ligand
 OpenBabel11021811473D
libRbt.so/2013.1/901 2013/11/27
 10  9  0  0  0  0  0  0  0  0999 V2000
   32.1033   15.7896   19.8260 N   0  0  0  0  0  0  0  0  0  0  0  0
   31.4784   16.6637   20.8645 C   0  0  2  0  0  0  0  0  0  0  0  0
   32.4315   17.7572   21.3602 C   0  0  0  0  0  0  0  0  0  0  0  0
   32.0268   18.7485   21.9858 O   0  0  0  0  0  0  0  0  0  0  0  0
   30.9397   15.8278   22.0287 C   0  0  0  0  0  0  0  0  0  0  0  0
   29.7266   15.0046   21.6598 C   0  0  0  0  0  0  0  0  0  0  0  0
   28.5123   15.8699   21.4247 C   0  0  0  0  0  0  0  0  0  0  0  0
   27.3084   15.0299   21.0122 C   0  0  0  0  0  0  0  0  0  0  0  0
   27.4415   14.4292   19.6576 N   0  0  0  0  0  0  0  0  0  0  0  0
   33.6502   17.6672   21.1822 O   0  0  0  0  0  0  0  0  0  0  0  0
  2  1  1  6  0  0  0
  2  3  1  0  0  0  0
  2  5  1  0  0  0  0
  3  4  1  0  0  0  0
  3 10  1  0  0  0  0
  5  6  1  0  0  0  0
  6  7  1  0  0  0  0
  7  8  1  0  0  0  0
  8  9  1  0  0  0  0
M  END
>  <CHROM.1>
163.72591727,-70.06139878,-69.79750439,178.26680632,-69.07355223,30.59248304
16.30915788,21.11205803,-0.46273425,-0.28075306,-2.41047233

>  <Name>
ligand

>  <RI>
0

>  <Rbt.Current_Directory>
/home/itssahil/PROJECTS/Mol_Feturizer/New_Systems/rnas/3DIY

>  <Rbt.Executable>
rbdock ($Id: //depot/dev/client3/rdock/2013.1/src/exe/rbdock.cxx#4 $)

>  <Rbt.Library>
libRbt.so (2013.1, Build901 2013/11/27)

>  <Rbt.Parameter_File>
/export/apps/rDock/src/rDock_2013.1_src/data/scripts/dock_solv.prm

>  <Rbt.Receptor>
prm/pocket_docking_2.prm

>  <SCORE>
-7.51983

>  <SCORE.INTER>
-7.74329

>  <SCORE.INTER.CONST>
1

>  <SCORE.INTER.POLAR>
0

>  <SCORE.INTER.ROT>
5

>  <SCORE.INTER.SOLV>
14.8898

>  <SCORE.INTER.VDW>
-17.0588

>  <SCORE.INTER.norm>
-0.774329

>  <SCORE.INTRA>
0.223464

>  <SCORE.INTRA.DIHEDRAL>
0.0389434

>  <SCORE.INTRA.DIHEDRAL.0>
2.56603

>  <SCORE.INTRA.POLAR>
0

>  <SCORE.INTRA.POLAR.0>
0

>  <SCORE.INTRA.REPUL>
0

>  <SCORE.INTRA.REPUL.0>
0

>  <SCORE.INTRA.SOLV>
0.449716

>  <SCORE.INTRA.SOLV.lig_0>
-32.0799

>  <SCORE.INTRA.VDW>
-0.0208656

>  <SCORE.INTRA.VDW.0>
-0.618248

>  <SCORE.INTRA.norm>
0.0223464

>  <SCORE.RESTR>
0

>  <SCORE.RESTR.CAVITY>
0

>  <SCORE.RESTR.norm>
0

>  <SCORE.SYSTEM>
0

>  <SCORE.SYSTEM.CONST>
0

>  <SCORE.SYSTEM.DIHEDRAL>
0

>  <SCORE.SYSTEM.SOLV>
0

>  <SCORE.SYSTEM.norm>
0

>  <SCORE.heavy>
10

>  <SCORE.norm>
-0.751983

>  <RMSD>
0.963

$$$$
ligand
 OpenBabel11021811473D
libRbt.so/2013.1/901 2013/11/27
 10  9  0  0  0  0  0  0  0  0999 V2000
   31.8526   16.4267   20.0023 N   0  0  0  0  0  0  0  0  0  0  0  0
   31.1858   17.1958   21.0963 C   0  0  2  0  0  0  0  0  0  0  0  0
   32.1881   17.7645   22.1072 C   0  0  0  0  0  0  0  0  0  0  0  0
   33.2057   17.1418   22.4461 O   0  0  0  0  0  0  0  0  0  0  0  0
   30.1202   16.3435   21.7909 C   0  0  0  0  0  0  0  0  0  0  0  0
   28.9157   16.0693   20.9196 C   0  0  0  0  0  0  0  0  0  0  0  0
   27.9261   15.1564   21.6021 C   0  0  0  0  0  0  0  0  0  0  0  0
   26.6981   14.9232   20.7286 C   0  0  0  0  0  0  0  0  0  0  0  0
   27.0191   14.3346   19.4006 N   0  0  0  0  0  0  0  0  0  0  0  0
   32.0317   18.8883   22.5944 O   0  0  0  0  0  0  0  0  0  0  0  0
  2  1  1  6  0  0  0
  2  3  1  0  0  0  0
  2  5  1  0  0  0  0
  3  4  1  0  0  0  0
  3 10  1  0  0  0  0
  5  6  1  0  0  0  0
  6  7  1  0  0  0  0
  7  8  1  0  0  0  0
  8  9  1  0  0  0  0
M  END
>  <CHROM.1>
-36.82593783,-69.54492425,176.40741347,178.27800121,58.28506567,30.14723639
16.44452154,21.29349739,-0.50750360,-0.28769484,-2.15210284

>  <Name>
ligand

>  <RI>
0

>  <Rbt.Current_Directory>
/home/itssahil/PROJECTS/Mol_Feturizer/New_Systems/rnas/3DIY

>  <Rbt.Executable>
rbdock ($Id: //depot/dev/client3/rdock/2013.1/src/exe/rbdock.cxx#4 $)

>  <Rbt.Library>
libRbt.so (2013.1, Build901 2013/11/27)

>  <Rbt.Parameter_File>
/export/apps/rDock/src/rDock_2013.1_src/data/scripts/dock_solv.prm

>  <Rbt.Receptor>
prm/pocket_docking_2.prm

>  <SCORE>
-7.9715

>  <SCORE.INTER>
-7.64287

>  <SCORE.INTER.CONST>
1

>  <SCORE.INTER.POLAR>
0

>  <SCORE.INTER.ROT>
5

>  <SCORE.INTER.SOLV>
15.1879

>  <SCORE.INTER.VDW>
-17.0912

>  <SCORE.INTER.norm>
-0.764287

>  <SCORE.INTRA>
-0.328625

>  <SCORE.INTRA.DIHEDRAL>
-0.507927

>  <SCORE.INTRA.DIHEDRAL.0>
2.56603

>  <SCORE.INTRA.POLAR>
0

>  <SCORE.INTRA.POLAR.0>
0

>  <SCORE.INTRA.REPUL>
0

>  <SCORE.INTRA.REPUL.0>
0

>  <SCORE.INTRA.SOLV>
0.185414

>  <SCORE.INTRA.SOLV.lig_0>
-32.0799

>  <SCORE.INTRA.VDW>
-0.167368

>  <SCORE.INTRA.VDW.0>
-0.618248

>  <SCORE.INTRA.norm>
-0.0328625

>  <SCORE.RESTR>
0

>  <SCORE.RESTR.CAVITY>
0

>  <SCORE.RESTR.norm>
0

>  <SCORE.SYSTEM>
0

>  <SCORE.SYSTEM.CONST>
0

>  <SCORE.SYSTEM.DIHEDRAL>
0

>  <SCORE.SYSTEM.SOLV>
0

>  <SCORE.SYSTEM.norm>
0

>  <SCORE.heavy>
10

>  <SCORE.norm>
-0.79715

>  <RMSD>
0.978

$$$$
ligand
 OpenBabel11021811473D
libRbt.so/2013.1/901 2013/11/27
 10  9  0  0  0  0  0  0  0  0999 V2000
   31.6473   16.8799   19.8548 N   0  0  0  0  0  0  0  0  0  0  0  0
   31.1824   17.3207   21.2049 C   0  0  2  0  0  0  0  0  0  0  0  0
   32.3467   17.6291   22.1532 C   0  0  0  0  0  0  0  0  0  0  0  0
   33.1848   16.7704   22.4668 O   0  0  0  0  0  0  0  0  0  0  0  0
   30.2270   16.2919   21.8156 C   0  0  0  0  0  0  0  0  0  0  0  0
   28.9592   16.1065   21.0132 C   0  0  0  0  0  0  0  0  0  0  0  0
   28.0689   15.0432   21.6091 C   0  0  0  0  0  0  0  0  0  0  0  0
   26.7748   14.8995   20.8155 C   0  0  0  0  0  0  0  0  0  0  0  0
   26.9927   14.5553   19.3846 N   0  0  0  0  0  0  0  0  0  0  0  0
   32.5101   18.7640   22.6115 O   0  0  0  0  0  0  0  0  0  0  0  0
  2  1  1  6  0  0  0
  2  3  1  0  0  0  0
  2  5  1  0  0  0  0
  3  4  1  0  0  0  0
  3 10  1  0  0  0  0
  5  6  1  0  0  0  0
  6  7  1  0  0  0  0
  7  8  1  0  0  0  0
  8  9  1  0  0  0  0
M  END
>  <CHROM.1>
-60.25958975,-62.60771489,177.48346471,178.15420487,58.49898284,30.22602236
16.44017080,21.31657473,-0.32991358,-0.45269318,-1.69809957

>  <Name>
ligand

>  <RI>
0

>  <Rbt.Current_Directory>
/home/itssahil/PROJECTS/Mol_Feturizer/New_Systems/rnas/3DIY

>  <Rbt.Executable>
rbdock ($Id: //depot/dev/client3/rdock/2013.1/src/exe/rbdock.cxx#4 $)

>  <Rbt.Library>
libRbt.so (2013.1, Build901 2013/11/27)

>  <Rbt.Parameter_File>
/export/apps/rDock/src/rDock_2013.1_src/data/scripts/dock_solv.prm

>  <Rbt.Receptor>
prm/pocket_docking_2.prm

>  <SCORE>
-7.91458

>  <SCORE.INTER>
-7.49999

>  <SCORE.INTER.CONST>
1

>  <SCORE.INTER.POLAR>
0

>  <SCORE.INTER.ROT>
5

>  <SCORE.INTER.SOLV>
15.1214

>  <SCORE.INTER.VDW>
-16.9738

>  <SCORE.INTER.norm>
-0.749999

>  <SCORE.INTRA>
-0.414583

>  <SCORE.INTRA.DIHEDRAL>
-0.950606

>  <SCORE.INTRA.DIHEDRAL.0>
2.56603

>  <SCORE.INTRA.POLAR>
0

>  <SCORE.INTRA.POLAR.0>
0

>  <SCORE.INTRA.REPUL>
0

>  <SCORE.INTRA.REPUL.0>
0

>  <SCORE.INTRA.SOLV>
0.259937

>  <SCORE.INTRA.SOLV.lig_0>
-32.0799

>  <SCORE.INTRA.VDW>
-0.0692485

>  <SCORE.INTRA.VDW.0>
-0.618248

>  <SCORE.INTRA.norm>
-0.0414583

>  <SCORE.RESTR>
0

>  <SCORE.RESTR.CAVITY>
0

>  <SCORE.RESTR.norm>
0

>  <SCORE.SYSTEM>
0

>  <SCORE.SYSTEM.CONST>
0

>  <SCORE.SYSTEM.DIHEDRAL>
0

>  <SCORE.SYSTEM.SOLV>
0

>  <SCORE.SYSTEM.norm>
0

>  <SCORE.heavy>
10

>  <SCORE.norm>
-0.791458

>  <RMSD>
0.991

$$$$
ligand
 OpenBabel11021811473D
libRbt.so/2013.1/901 2013/11/27
 10  9  0  0  0  0  0  0  0  0999 V2000
   31.6251   16.7614   19.9062 N   0  0  0  0  0  0  0  0  0  0  0  0
   31.1020   17.3076   21.1951 C   0  0  2  0  0  0  0  0  0  0  0  0
   32.2230   17.6604   22.1793 C   0  0  0  0  0  0  0  0  0  0  0  0
   33.1386   16.8674   22.4454 O   0  0  0  0  0  0  0  0  0  0  0  0
   30.0926   16.3445   21.8259 C   0  0  0  0  0  0  0  0  0  0  0  0
   28.8603   16.1327   20.9762 C   0  0  0  0  0  0  0  0  0  0  0  0
   27.9104   15.1414   21.6035 C   0  0  0  0  0  0  0  0  0  0  0  0
   26.6797   14.9280   20.7288 C   0  0  0  0  0  0  0  0  0  0  0  0
   27.0045   14.4711   19.3508 N   0  0  0  0  0  0  0  0  0  0  0  0
   32.2710   18.7710   22.7170 O   0  0  0  0  0  0  0  0  0  0  0  0
  2  1  1  6  0  0  0
  2  3  1  0  0  0  0
  2  5  1  0  0  0  0
  3  4  1  0  0  0  0
  3 10  1  0  0  0  0
  5  6  1  0  0  0  0
  6  7  1  0  0  0  0
  7  8  1  0  0  0  0
  8  9  1  0  0  0  0
M  END
>  <CHROM.1>
-49.41410326,-62.91830309,177.95757575,-179.43604955,57.10447342,30.12635583
16.45372156,21.31735062,-0.43192521,-0.37540717,-1.91262706

>  <Name>
ligand

>  <RI>
0

>  <Rbt.Current_Directory>
/home/itssahil/PROJECTS/Mol_Feturizer/New_Systems/rnas/3DIY

>  <Rbt.Executable>
rbdock ($Id: //depot/dev/client3/rdock/2013.1/src/exe/rbdock.cxx#4 $)

>  <Rbt.Library>
libRbt.so (2013.1, Build901 2013/11/27)

>  <Rbt.Parameter_File>
/export/apps/rDock/src/rDock_2013.1_src/data/scripts/dock_solv.prm

>  <Rbt.Receptor>
prm/pocket_docking_2.prm

>  <SCORE>
-8.10175

>  <SCORE.INTER>
-7.70091

>  <SCORE.INTER.CONST>
1

>  <SCORE.INTER.POLAR>
0

>  <SCORE.INTER.ROT>
5

>  <SCORE.INTER.SOLV>
15.0493

>  <SCORE.INTER.VDW>
-17.0837

>  <SCORE.INTER.norm>
-0.770091

>  <SCORE.INTRA>
-0.40084

>  <SCORE.INTRA.DIHEDRAL>
-0.901041

>  <SCORE.INTRA.DIHEDRAL.0>
2.56603

>  <SCORE.INTRA.POLAR>
0

>  <SCORE.INTRA.POLAR.0>
0

>  <SCORE.INTRA.REPUL>
0

>  <SCORE.INTRA.REPUL.0>
0

>  <SCORE.INTRA.SOLV>
0.286771

>  <SCORE.INTRA.SOLV.lig_0>
-32.0799

>  <SCORE.INTRA.VDW>
-0.0937054

>  <SCORE.INTRA.VDW.0>
-0.618248

>  <SCORE.INTRA.norm>
-0.040084

>  <SCORE.RESTR>
0

>  <SCORE.RESTR.CAVITY>
0

>  <SCORE.RESTR.norm>
0

>  <SCORE.SYSTEM>
0

>  <SCORE.SYSTEM.CONST>
0

>  <SCORE.SYSTEM.DIHEDRAL>
0

>  <SCORE.SYSTEM.SOLV>
0

>  <SCORE.SYSTEM.norm>
0

>  <SCORE.heavy>
10

>  <SCORE.norm>
-0.810175

>  <RMSD>
1.016

$$$$
ligand
 OpenBabel11021811473D
libRbt.so/2013.1/901 2013/11/27
 10  9  0  0  0  0  0  0  0  0999 V2000
   31.7793   16.5855   19.9867 N   0  0  0  0  0  0  0  0  0  0  0  0
   31.1310   17.3024   21.1263 C   0  0  2  0  0  0  0  0  0  0  0  0
   32.1513   17.8410   22.1357 C   0  0  0  0  0  0  0  0  0  0  0  0
   33.1756   17.2097   22.4362 O   0  0  0  0  0  0  0  0  0  0  0  0
   30.0910   16.4111   21.8106 C   0  0  0  0  0  0  0  0  0  0  0  0
   28.9053   16.0939   20.9280 C   0  0  0  0  0  0  0  0  0  0  0  0
   27.9231   15.1776   21.6165 C   0  0  0  0  0  0  0  0  0  0  0  0
   26.7039   14.9168   20.7385 C   0  0  0  0  0  0  0  0  0  0  0  0
   27.0436   14.3422   19.4089 N   0  0  0  0  0  0  0  0  0  0  0  0
   32.0029   18.9490   22.6604 O   0  0  0  0  0  0  0  0  0  0  0  0
  2  1  1  6  0  0  0
  2  3  1  0  0  0  0
  2  5  1  0  0  0  0
  3  4  1  0  0  0  0
  3 10  1  0  0  0  0
  5  6  1  0  0  0  0
  6  7  1  0  0  0  0
  7  8  1  0  0  0  0
  8  9  1  0  0  0  0
M  END
>  <CHROM.1>
-37.64069567,-66.24273783,178.11357623,177.46913182,57.01327933,30.12388757
16.50257953,21.30951807,-0.50749609,-0.31959777,-2.11657603

>  <Name>
ligand

>  <RI>
0

>  <Rbt.Current_Directory>
/home/itssahil/PROJECTS/Mol_Feturizer/New_Systems/rnas/3DIY

>  <Rbt.Executable>
rbdock ($Id: //depot/dev/client3/rdock/2013.1/src/exe/rbdock.cxx#4 $)

>  <Rbt.Library>
libRbt.so (2013.1, Build901 2013/11/27)

>  <Rbt.Parameter_File>
/export/apps/rDock/src/rDock_2013.1_src/data/scripts/dock_solv.prm

>  <Rbt.Receptor>
prm/blind_docking_100.prm

>  <SCORE>
-8.02259

>  <SCORE.INTER>
-7.65493

>  <SCORE.INTER.CONST>
1

>  <SCORE.INTER.POLAR>
0

>  <SCORE.INTER.ROT>
5

>  <SCORE.INTER.SOLV>
15.0314

>  <SCORE.INTER.VDW>
-17.0471

>  <SCORE.INTER.norm>
-0.765493

>  <SCORE.INTRA>
-0.367652

>  <SCORE.INTRA.DIHEDRAL>
-0.71713

>  <SCORE.INTRA.DIHEDRAL.0>
2.56603

>  <SCORE.INTRA.POLAR>
0

>  <SCORE.INTRA.POLAR.0>
0

>  <SCORE.INTRA.REPUL>
0

>  <SCORE.INTRA.REPUL.0>
0

>  <SCORE.INTRA.SOLV>
0.232996

>  <SCORE.INTRA.SOLV.lig_0>
-32.0799

>  <SCORE.INTRA.VDW>
-0.125585

>  <SCORE.INTRA.VDW.0>
-0.618248

>  <SCORE.INTRA.norm>
-0.0367652

>  <SCORE.RESTR>
0

>  <SCORE.RESTR.CAVITY>
0

>  <SCORE.RESTR.norm>
0

>  <SCORE.SYSTEM>
0

>  <SCORE.SYSTEM.CONST>
0

>  <SCORE.SYSTEM.DIHEDRAL>
0

>  <SCORE.SYSTEM.SOLV>
0

>  <SCORE.SYSTEM.norm>
0

>  <SCORE.heavy>
10

>  <SCORE.norm>
-0.802259

>  <RMSD>
1.030

$$$$
ligand
 OpenBabel11021811473D
libRbt.so/2013.1/901 2013/11/27
 10  9  0  0  0  0  0  0  0  0999 V2000
   31.7060   16.7548   19.9234 N   0  0  0  0  0  0  0  0  0  0  0  0
   31.0898   17.3801   21.1327 C   0  0  2  0  0  0  0  0  0  0  0  0
   32.1384   17.8544   22.1453 C   0  0  0  0  0  0  0  0  0  0  0  0
   32.0349   18.9371   22.7412 O   0  0  0  0  0  0  0  0  0  0  0  0
   30.0801   16.4305   21.7832 C   0  0  0  0  0  0  0  0  0  0  0  0
   28.8776   16.1511   20.9107 C   0  0  0  0  0  0  0  0  0  0  0  0
   27.9263   15.1770   21.5623 C   0  0  0  0  0  0  0  0  0  0  0  0
   26.6892   14.9536   20.6991 C   0  0  0  0  0  0  0  0  0  0  0  0
   27.0002   14.4223   19.3447 N   0  0  0  0  0  0  0  0  0  0  0  0
   33.1116   17.1497   22.4303 O   0  0  0  0  0  0  0  0  0  0  0  0
  2  1  1  6  0  0  0
  2  3  1  0  0  0  0
  2  5  1  0  0  0  0
  3  4  1  0  0  0  0
  3 10  1  0  0  0  0
  5  6  1  0  0  0  0
  6  7  1  0  0  0  0
  7  8  1  0  0  0  0
  8  9  1  0  0  0  0
M  END
>  <CHROM.1>
138.41140465,-65.45723559,178.10003418,177.44099965,59.18762015,30.09879231
16.53870687,21.29303483,-0.48921862,-0.35175765,-2.03271902

>  <Name>
ligand

>  <RI>
0

>  <Rbt.Current_Directory>
/home/itssahil/PROJECTS/Mol_Feturizer/New_Systems/rnas/3DIY

>  <Rbt.Executable>
rbdock ($Id: //depot/dev/client3/rdock/2013.1/src/exe/rbdock.cxx#4 $)

>  <Rbt.Library>
libRbt.so (2013.1, Build901 2013/11/27)

>  <Rbt.Parameter_File>
/export/apps/rDock/src/rDock_2013.1_src/data/scripts/dock_solv.prm

>  <Rbt.Receptor>
prm/pocket_docking_6.prm

>  <SCORE>
-8.2278

>  <SCORE.INTER>
-7.74112

>  <SCORE.INTER.CONST>
1

>  <SCORE.INTER.POLAR>
0

>  <SCORE.INTER.ROT>
5

>  <SCORE.INTER.SOLV>
15.1685

>  <SCORE.INTER.VDW>
-17.1502

>  <SCORE.INTER.norm>
-0.774112

>  <SCORE.INTRA>
-0.48668

>  <SCORE.INTRA.DIHEDRAL>
-0.906405

>  <SCORE.INTRA.DIHEDRAL.0>
2.56603

>  <SCORE.INTRA.POLAR>
0

>  <SCORE.INTRA.POLAR.0>
0

>  <SCORE.INTRA.REPUL>
0

>  <SCORE.INTRA.REPUL.0>
0

>  <SCORE.INTRA.SOLV>
0.204416

>  <SCORE.INTRA.SOLV.lig_0>
-32.0799

>  <SCORE.INTRA.VDW>
-0.135685

>  <SCORE.INTRA.VDW.0>
-0.618248

>  <SCORE.INTRA.norm>
-0.048668

>  <SCORE.RESTR>
0

>  <SCORE.RESTR.CAVITY>
0

>  <SCORE.RESTR.norm>
0

>  <SCORE.SYSTEM>
0

>  <SCORE.SYSTEM.CONST>
0

>  <SCORE.SYSTEM.DIHEDRAL>
0

>  <SCORE.SYSTEM.SOLV>
0

>  <SCORE.SYSTEM.norm>
0

>  <SCORE.heavy>
10

>  <SCORE.norm>
-0.82278

>  <RMSD>
1.047

$$$$
ligand
 OpenBabel11021811473D
libRbt.so/2013.1/901 2013/11/27
 10  9  0  0  0  0  0  0  0  0999 V2000
   31.7052   16.7586   19.9260 N   0  0  0  0  0  0  0  0  0  0  0  0
   31.0949   17.3772   21.1417 C   0  0  2  0  0  0  0  0  0  0  0  0
   32.1484   17.8464   22.1516 C   0  0  0  0  0  0  0  0  0  0  0  0
   32.0569   18.9340   22.7403 O   0  0  0  0  0  0  0  0  0  0  0  0
   30.0887   16.4239   21.7920 C   0  0  0  0  0  0  0  0  0  0  0  0
   28.8783   16.1548   20.9271 C   0  0  0  0  0  0  0  0  0  0  0  0
   27.9281   15.1805   21.5801 C   0  0  0  0  0  0  0  0  0  0  0  0
   26.6898   14.9571   20.7187 C   0  0  0  0  0  0  0  0  0  0  0  0
   27.0012   14.4593   19.3518 N   0  0  0  0  0  0  0  0  0  0  0  0
   33.1135   17.1327   22.4416 O   0  0  0  0  0  0  0  0  0  0  0  0
  2  1  1  6  0  0  0
  2  3  1  0  0  0  0
  2  5  1  0  0  0  0
  3  4  1  0  0  0  0
  3 10  1  0  0  0  0
  5  6  1  0  0  0  0
  6  7  1  0  0  0  0
  7  8  1  0  0  0  0
  8  9  1  0  0  0  0
M  END
>  <CHROM.1>
137.41347928,-65.76803002,178.30135538,177.99520336,57.69036360,30.10400548
16.53994797,21.30276024,-0.48098181,-0.35587617,-2.01756847

>  <Name>
ligand

>  <RI>
0

>  <Rbt.Current_Directory>
/home/itssahil/PROJECTS/Mol_Feturizer/New_Systems/rnas/3DIY

>  <Rbt.Executable>
rbdock ($Id: //depot/dev/client3/rdock/2013.1/src/exe/rbdock.cxx#4 $)

>  <Rbt.Library>
libRbt.so (2013.1, Build901 2013/11/27)

>  <Rbt.Parameter_File>
/export/apps/rDock/src/rDock_2013.1_src/data/scripts/dock_solv.prm

>  <Rbt.Receptor>
prm/pocket_docking_2.prm

>  <SCORE>
-8.25181

>  <SCORE.INTER>
-7.79997

>  <SCORE.INTER.CONST>
1

>  <SCORE.INTER.POLAR>
0

>  <SCORE.INTER.ROT>
5

>  <SCORE.INTER.SOLV>
15.0954

>  <SCORE.INTER.VDW>
-17.1651

>  <SCORE.INTER.norm>
-0.779997

>  <SCORE.INTRA>
-0.451844

>  <SCORE.INTRA.DIHEDRAL>
-0.885539

>  <SCORE.INTRA.DIHEDRAL.0>
2.56603

>  <SCORE.INTRA.POLAR>
0

>  <SCORE.INTRA.POLAR.0>
0

>  <SCORE.INTRA.REPUL>
0

>  <SCORE.INTRA.REPUL.0>
0

>  <SCORE.INTRA.SOLV>
0.221206

>  <SCORE.INTRA.SOLV.lig_0>
-32.0799

>  <SCORE.INTRA.VDW>
-0.119677

>  <SCORE.INTRA.VDW.0>
-0.618248

>  <SCORE.INTRA.norm>
-0.0451844

>  <SCORE.RESTR>
0

>  <SCORE.RESTR.CAVITY>
0

>  <SCORE.RESTR.norm>
0

>  <SCORE.SYSTEM>
0

>  <SCORE.SYSTEM.CONST>
0

>  <SCORE.SYSTEM.DIHEDRAL>
0

>  <SCORE.SYSTEM.SOLV>
0

>  <SCORE.SYSTEM.norm>
0

>  <SCORE.heavy>
10

>  <SCORE.norm>
-0.825181

>  <RMSD>
1.048

$$$$
ligand
 OpenBabel11021811473D
libRbt.so/2013.1/901 2013/11/27
 10  9  0  0  0  0  0  0  0  0999 V2000
   31.6675   16.7664   19.9142 N   0  0  0  0  0  0  0  0  0  0  0  0
   31.0724   17.3472   21.1559 C   0  0  2  0  0  0  0  0  0  0  0  0
   32.1387   17.7932   22.1629 C   0  0  0  0  0  0  0  0  0  0  0  0
   33.1133   17.0812   22.4477 O   0  0  0  0  0  0  0  0  0  0  0  0
   30.0808   16.3705   21.7938 C   0  0  0  0  0  0  0  0  0  0  0  0
   28.8599   16.1179   20.9388 C   0  0  0  0  0  0  0  0  0  0  0  0
   27.9120   15.1400   21.5898 C   0  0  0  0  0  0  0  0  0  0  0  0
   26.6686   14.9247   20.7338 C   0  0  0  0  0  0  0  0  0  0  0  0
   26.9724   14.4515   19.3565 N   0  0  0  0  0  0  0  0  0  0  0  0
   32.0801   18.9028   22.7015 O   0  0  0  0  0  0  0  0  0  0  0  0
  2  1  1  6  0  0  0
  2  3  1  0  0  0  0
  2  5  1  0  0  0  0
  3  4  1  0  0  0  0
  3 10  1  0  0  0  0
  5  6  1  0  0  0  0
  6  7  1  0  0  0  0
  7  8  1  0  0  0  0
  8  9  1  0  0  0  0
M  END
>  <CHROM.1>
-45.62468683,-65.68467930,179.35859604,178.44975831,57.03982600,30.09080081
16.50704380,21.30442290,-0.46339731,-0.37106272,-1.98156422

>  <Name>
ligand

>  <RI>
0

>  <Rbt.Current_Directory>
/home/itssahil/PROJECTS/Mol_Feturizer/New_Systems/rnas/3DIY

>  <Rbt.Executable>
rbdock ($Id: //depot/dev/client3/rdock/2013.1/src/exe/rbdock.cxx#4 $)

>  <Rbt.Library>
libRbt.so (2013.1, Build901 2013/11/27)

>  <Rbt.Parameter_File>
/export/apps/rDock/src/rDock_2013.1_src/data/scripts/dock_solv.prm

>  <Rbt.Receptor>
prm/pocket_docking_2.prm

>  <SCORE>
-8.21441

>  <SCORE.INTER>
-7.81181

>  <SCORE.INTER.CONST>
1

>  <SCORE.INTER.POLAR>
0

>  <SCORE.INTER.ROT>
5

>  <SCORE.INTER.SOLV>
15.1861

>  <SCORE.INTER.VDW>
-17.2032

>  <SCORE.INTER.norm>
-0.781181

>  <SCORE.INTRA>
-0.402597

>  <SCORE.INTRA.DIHEDRAL>
-0.794636

>  <SCORE.INTRA.DIHEDRAL.0>
2.56603

>  <SCORE.INTRA.POLAR>
0

>  <SCORE.INTRA.POLAR.0>
0

>  <SCORE.INTRA.REPUL>
0

>  <SCORE.INTRA.REPUL.0>
0

>  <SCORE.INTRA.SOLV>
0.235236

>  <SCORE.INTRA.SOLV.lig_0>
-32.0799

>  <SCORE.INTRA.VDW>
-0.122897

>  <SCORE.INTRA.VDW.0>
-0.618248

>  <SCORE.INTRA.norm>
-0.0402597

>  <SCORE.RESTR>
0

>  <SCORE.RESTR.CAVITY>
0

>  <SCORE.RESTR.norm>
0

>  <SCORE.SYSTEM>
0

>  <SCORE.SYSTEM.CONST>
0

>  <SCORE.SYSTEM.DIHEDRAL>
0

>  <SCORE.SYSTEM.SOLV>
0

>  <SCORE.SYSTEM.norm>
0

>  <SCORE.heavy>
10

>  <SCORE.norm>
-0.821441

>  <RMSD>
1.049

$$$$
ligand
 OpenBabel11021811473D
libRbt.so/2013.1/901 2013/11/27
 10  9  0  0  0  0  0  0  0  0999 V2000
   31.7109   16.7613   19.9213 N   0  0  0  0  0  0  0  0  0  0  0  0
   31.0911   17.3813   21.1315 C   0  0  2  0  0  0  0  0  0  0  0  0
   32.1370   17.8608   22.1445 C   0  0  0  0  0  0  0  0  0  0  0  0
   32.0282   18.9432   22.7399 O   0  0  0  0  0  0  0  0  0  0  0  0
   30.0874   16.4248   21.7810 C   0  0  0  0  0  0  0  0  0  0  0  0
   28.8729   16.1614   20.9203 C   0  0  0  0  0  0  0  0  0  0  0  0
   27.9244   15.1851   21.5727 C   0  0  0  0  0  0  0  0  0  0  0  0
   26.6873   14.9586   20.7104 C   0  0  0  0  0  0  0  0  0  0  0  0
   27.0016   14.4744   19.3393 N   0  0  0  0  0  0  0  0  0  0  0  0
   33.1133   17.1607   22.4302 O   0  0  0  0  0  0  0  0  0  0  0  0
  2  1  1  6  0  0  0
  2  3  1  0  0  0  0
  2  5  1  0  0  0  0
  3  4  1  0  0  0  0
  3 10  1  0  0  0  0
  5  6  1  0  0  0  0
  6  7  1  0  0  0  0
  7  8  1  0  0  0  0
  8  9  1  0  0  0  0
M  END
>  <CHROM.1>
138.27956302,-66.64277406,178.36482885,178.46424327,57.11123496,30.09875343
16.54887612,21.29483751,-0.48388468,-0.35412554,-2.02340971

>  <Name>
ligand

>  <RI>
0

>  <Rbt.Current_Directory>
/home/itssahil/PROJECTS/Mol_Feturizer/New_Systems/rnas/3DIY

>  <Rbt.Executable>
rbdock ($Id: //depot/dev/client3/rdock/2013.1/src/exe/rbdock.cxx#4 $)

>  <Rbt.Library>
libRbt.so (2013.1, Build901 2013/11/27)

>  <Rbt.Parameter_File>
/export/apps/rDock/src/rDock_2013.1_src/data/scripts/dock_solv.prm

>  <Rbt.Receptor>
prm/pocket_docking_6.prm

>  <SCORE>
-8.24108

>  <SCORE.INTER>
-7.8106

>  <SCORE.INTER.CONST>
1

>  <SCORE.INTER.POLAR>
0

>  <SCORE.INTER.ROT>
5

>  <SCORE.INTER.SOLV>
15.087

>  <SCORE.INTER.VDW>
-17.1694

>  <SCORE.INTER.norm>
-0.78106

>  <SCORE.INTRA>
-0.430479

>  <SCORE.INTRA.DIHEDRAL>
-0.840375

>  <SCORE.INTRA.DIHEDRAL.0>
2.56603

>  <SCORE.INTRA.POLAR>
0

>  <SCORE.INTRA.POLAR.0>
0

>  <SCORE.INTRA.REPUL>
0

>  <SCORE.INTRA.REPUL.0>
0

>  <SCORE.INTRA.SOLV>
0.219646

>  <SCORE.INTRA.SOLV.lig_0>
-32.0799

>  <SCORE.INTRA.VDW>
-0.120114

>  <SCORE.INTRA.VDW.0>
-0.618248

>  <SCORE.INTRA.norm>
-0.0430479

>  <SCORE.RESTR>
0

>  <SCORE.RESTR.CAVITY>
0

>  <SCORE.RESTR.norm>
0

>  <SCORE.SYSTEM>
0

>  <SCORE.SYSTEM.CONST>
0

>  <SCORE.SYSTEM.DIHEDRAL>
0

>  <SCORE.SYSTEM.SOLV>
0

>  <SCORE.SYSTEM.norm>
0

>  <SCORE.heavy>
10

>  <SCORE.norm>
-0.824108

>  <RMSD>
1.049

$$$$
ligand
 OpenBabel11021811473D
libRbt.so/2013.1/901 2013/11/27
 10  9  0  0  0  0  0  0  0  0999 V2000
   31.6981   16.7393   19.9295 N   0  0  0  0  0  0  0  0  0  0  0  0
   31.0948   17.3617   21.1468 C   0  0  2  0  0  0  0  0  0  0  0  0
   32.1544   17.8424   22.1448 C   0  0  0  0  0  0  0  0  0  0  0  0
   32.0523   18.9241   22.7426 O   0  0  0  0  0  0  0  0  0  0  0  0
   30.0994   16.4068   21.8113 C   0  0  0  0  0  0  0  0  0  0  0  0
   28.8887   16.1171   20.9536 C   0  0  0  0  0  0  0  0  0  0  0  0
   27.9461   15.1470   21.6236 C   0  0  0  0  0  0  0  0  0  0  0  0
   26.7130   14.8933   20.7632 C   0  0  0  0  0  0  0  0  0  0  0  0
   27.0317   14.3349   19.4216 N   0  0  0  0  0  0  0  0  0  0  0  0
   33.1360   17.1439   22.4159 O   0  0  0  0  0  0  0  0  0  0  0  0
  2  1  1  6  0  0  0
  2  3  1  0  0  0  0
  2  5  1  0  0  0  0
  3  4  1  0  0  0  0
  3 10  1  0  0  0  0
  5  6  1  0  0  0  0
  6  7  1  0  0  0  0
  7  8  1  0  0  0  0
  8  9  1  0  0  0  0
M  END
>  <CHROM.1>
138.48354318,-65.29025456,178.57701122,178.50168726,59.29953582,30.11504831
16.50893919,21.32058428,-0.48437074,-0.36261724,-2.03889005

>  <Name>
ligand

>  <RI>
0

>  <Rbt.Current_Directory>
/home/itssahil/PROJECTS/Mol_Feturizer/New_Systems/rnas/3DIY

>  <Rbt.Executable>
rbdock ($Id: //depot/dev/client3/rdock/2013.1/src/exe/rbdock.cxx#4 $)

>  <Rbt.Library>
libRbt.so (2013.1, Build901 2013/11/27)

>  <Rbt.Parameter_File>
/export/apps/rDock/src/rDock_2013.1_src/data/scripts/dock_solv.prm

>  <Rbt.Receptor>
prm/blind_docking_80.prm

>  <SCORE>
-8.21754

>  <SCORE.INTER>
-7.71598

>  <SCORE.INTER.CONST>
1

>  <SCORE.INTER.POLAR>
0

>  <SCORE.INTER.ROT>
5

>  <SCORE.INTER.SOLV>
15.1966

>  <SCORE.INTER.VDW>
-17.1428

>  <SCORE.INTER.norm>
-0.771598

>  <SCORE.INTRA>
-0.501564

>  <SCORE.INTRA.DIHEDRAL>
-0.939237

>  <SCORE.INTRA.DIHEDRAL.0>
2.56603

>  <SCORE.INTRA.POLAR>
0

>  <SCORE.INTRA.POLAR.0>
0

>  <SCORE.INTRA.REPUL>
0

>  <SCORE.INTRA.REPUL.0>
0

>  <SCORE.INTRA.SOLV>
0.20747

>  <SCORE.INTRA.SOLV.lig_0>
-32.0799

>  <SCORE.INTRA.VDW>
-0.135681

>  <SCORE.INTRA.VDW.0>
-0.618248

>  <SCORE.INTRA.norm>
-0.0501564

>  <SCORE.RESTR>
0

>  <SCORE.RESTR.CAVITY>
0

>  <SCORE.RESTR.norm>
0

>  <SCORE.SYSTEM>
0

>  <SCORE.SYSTEM.CONST>
0

>  <SCORE.SYSTEM.DIHEDRAL>
0

>  <SCORE.SYSTEM.SOLV>
0

>  <SCORE.SYSTEM.norm>
0

>  <SCORE.heavy>
10

>  <SCORE.norm>
-0.821754

>  <RMSD>
1.050

$$$$
ligand
 OpenBabel11021811473D
libRbt.so/2013.1/901 2013/11/27
 10  9  0  0  0  0  0  0  0  0999 V2000
   31.6823   16.7662   19.9119 N   0  0  0  0  0  0  0  0  0  0  0  0
   31.0955   17.3597   21.1514 C   0  0  2  0  0  0  0  0  0  0  0  0
   32.1684   17.8180   22.1458 C   0  0  0  0  0  0  0  0  0  0  0  0
   32.1125   18.9196   22.7125 O   0  0  0  0  0  0  0  0  0  0  0  0
   30.1098   16.3887   21.8071 C   0  0  0  0  0  0  0  0  0  0  0  0
   28.8850   16.1223   20.9621 C   0  0  0  0  0  0  0  0  0  0  0  0
   27.9518   15.1366   21.6225 C   0  0  0  0  0  0  0  0  0  0  0  0
   26.6932   14.9249   20.7879 C   0  0  0  0  0  0  0  0  0  0  0  0
   26.9727   14.4624   19.4018 N   0  0  0  0  0  0  0  0  0  0  0  0
   33.1138   17.0821   22.4453 O   0  0  0  0  0  0  0  0  0  0  0  0
  2  1  1  6  0  0  0
  2  3  1  0  0  0  0
  2  5  1  0  0  0  0
  3  4  1  0  0  0  0
  3 10  1  0  0  0  0
  5  6  1  0  0  0  0
  6  7  1  0  0  0  0
  7  8  1  0  0  0  0
  8  9  1  0  0  0  0
M  END
>  <CHROM.1>
134.28001952,-65.52171297,178.61390440,177.49859801,57.09857210,30.11246556
16.51530523,21.32005372,-0.45570765,-0.37836109,-1.97638690

>  <Name>
ligand

>  <RI>
0

>  <Rbt.Current_Directory>
/home/itssahil/PROJECTS/Mol_Feturizer/New_Systems/rnas/3DIY

>  <Rbt.Executable>
rbdock ($Id: //depot/dev/client3/rdock/2013.1/src/exe/rbdock.cxx#4 $)

>  <Rbt.Library>
libRbt.so (2013.1, Build901 2013/11/27)

>  <Rbt.Parameter_File>
/export/apps/rDock/src/rDock_2013.1_src/data/scripts/dock_solv.prm

>  <Rbt.Receptor>
prm/pocket_docking_7.prm

>  <SCORE>
-8.22514

>  <SCORE.INTER>
-7.79662

>  <SCORE.INTER.CONST>
1

>  <SCORE.INTER.POLAR>
0

>  <SCORE.INTER.ROT>
5

>  <SCORE.INTER.SOLV>
15.186

>  <SCORE.INTER.VDW>
-17.1931

>  <SCORE.INTER.norm>
-0.779662

>  <SCORE.INTRA>
-0.428526

>  <SCORE.INTRA.DIHEDRAL>
-0.870905

>  <SCORE.INTRA.DIHEDRAL.0>
2.56603

>  <SCORE.INTRA.POLAR>
0

>  <SCORE.INTRA.POLAR.0>
0

>  <SCORE.INTRA.REPUL>
0

>  <SCORE.INTRA.REPUL.0>
0

>  <SCORE.INTRA.SOLV>
0.226509

>  <SCORE.INTRA.SOLV.lig_0>
-32.0799

>  <SCORE.INTRA.VDW>
-0.106329

>  <SCORE.INTRA.VDW.0>
-0.618248

>  <SCORE.INTRA.norm>
-0.0428526

>  <SCORE.RESTR>
0

>  <SCORE.RESTR.CAVITY>
0

>  <SCORE.RESTR.norm>
0

>  <SCORE.SYSTEM>
0

>  <SCORE.SYSTEM.CONST>
0

>  <SCORE.SYSTEM.DIHEDRAL>
0

>  <SCORE.SYSTEM.SOLV>
0

>  <SCORE.SYSTEM.norm>
0

>  <SCORE.heavy>
10

>  <SCORE.norm>
-0.822514

>  <RMSD>
1.050

$$$$
ligand
 OpenBabel11021811473D
libRbt.so/2013.1/901 2013/11/27
 10  9  0  0  0  0  0  0  0  0999 V2000
   31.6471   16.7622   19.9210 N   0  0  0  0  0  0  0  0  0  0  0  0
   31.0609   17.3658   21.1559 C   0  0  2  0  0  0  0  0  0  0  0  0
   32.1338   17.8115   22.1560 C   0  0  0  0  0  0  0  0  0  0  0  0
   33.1170   17.1048   22.4245 O   0  0  0  0  0  0  0  0  0  0  0  0
   30.0583   16.4093   21.8074 C   0  0  0  0  0  0  0  0  0  0  0  0
   28.8562   16.1229   20.9367 C   0  0  0  0  0  0  0  0  0  0  0  0
   27.9106   15.1447   21.5905 C   0  0  0  0  0  0  0  0  0  0  0  0
   26.6675   14.9242   20.7354 C   0  0  0  0  0  0  0  0  0  0  0  0
   26.9722   14.4498   19.3587 N   0  0  0  0  0  0  0  0  0  0  0  0
   32.0721   18.9159   22.7049 O   0  0  0  0  0  0  0  0  0  0  0  0
  2  1  1  6  0  0  0
  2  3  1  0  0  0  0
  2  5  1  0  0  0  0
  3  4  1  0  0  0  0
  3 10  1  0  0  0  0
  5  6  1  0  0  0  0
  6  7  1  0  0  0  0
  7  8  1  0  0  0  0
  8  9  1  0  0  0  0
M  END
>  <CHROM.1>
-43.86760817,-63.67436692,178.22926609,176.90241390,56.96105942,30.08393553
16.51866019,21.30385204,-0.46835622,-0.36810820,-1.99477157

>  <Name>
ligand

>  <RI>
0

>  <Rbt.Current_Directory>
/home/itssahil/PROJECTS/Mol_Feturizer/New_Systems/rnas/3DIY

>  <Rbt.Executable>
rbdock ($Id: //depot/dev/client3/rdock/2013.1/src/exe/rbdock.cxx#4 $)

>  <Rbt.Library>
libRbt.so (2013.1, Build901 2013/11/27)

>  <Rbt.Parameter_File>
/export/apps/rDock/src/rDock_2013.1_src/data/scripts/dock_solv.prm

>  <Rbt.Receptor>
prm/pocket_docking_2.prm

>  <SCORE>
-8.23343

>  <SCORE.INTER>
-7.84824

>  <SCORE.INTER.CONST>
1

>  <SCORE.INTER.POLAR>
0

>  <SCORE.INTER.ROT>
5

>  <SCORE.INTER.SOLV>
15.1412

>  <SCORE.INTER.VDW>
-17.2126

>  <SCORE.INTER.norm>
-0.784824

>  <SCORE.INTRA>
-0.385187

>  <SCORE.INTRA.DIHEDRAL>
-0.824235

>  <SCORE.INTRA.DIHEDRAL.0>
2.56603

>  <SCORE.INTRA.POLAR>
0

>  <SCORE.INTRA.POLAR.0>
0

>  <SCORE.INTRA.REPUL>
0

>  <SCORE.INTRA.REPUL.0>
0

>  <SCORE.INTRA.SOLV>
0.262382

>  <SCORE.INTRA.SOLV.lig_0>
-32.0799

>  <SCORE.INTRA.VDW>
-0.10426

>  <SCORE.INTRA.VDW.0>
-0.618248

>  <SCORE.INTRA.norm>
-0.0385187

>  <SCORE.RESTR>
0

>  <SCORE.RESTR.CAVITY>
0

>  <SCORE.RESTR.norm>
0

>  <SCORE.SYSTEM>
0

>  <SCORE.SYSTEM.CONST>
0

>  <SCORE.SYSTEM.DIHEDRAL>
0

>  <SCORE.SYSTEM.SOLV>
0

>  <SCORE.SYSTEM.norm>
0

>  <SCORE.heavy>
10

>  <SCORE.norm>
-0.823343

>  <RMSD>
1.056

$$$$
ligand
 OpenBabel11021811473D
libRbt.so/2013.1/901 2013/11/27
 10  9  0  0  0  0  0  0  0  0999 V2000
   31.6973   16.7522   19.9373 N   0  0  0  0  0  0  0  0  0  0  0  0
   31.0882   17.3883   21.1446 C   0  0  2  0  0  0  0  0  0  0  0  0
   32.1427   17.8689   22.1480 C   0  0  0  0  0  0  0  0  0  0  0  0
   32.0345   18.9478   22.7499 O   0  0  0  0  0  0  0  0  0  0  0  0
   30.0802   16.4457   21.8077 C   0  0  0  0  0  0  0  0  0  0  0  0
   28.8806   16.1485   20.9371 C   0  0  0  0  0  0  0  0  0  0  0  0
   27.9376   15.1716   21.5964 C   0  0  0  0  0  0  0  0  0  0  0  0
   26.6949   14.9433   20.7426 C   0  0  0  0  0  0  0  0  0  0  0  0
   27.0016   14.4815   19.3620 N   0  0  0  0  0  0  0  0  0  0  0  0
   33.1260   17.1730   22.4195 O   0  0  0  0  0  0  0  0  0  0  0  0
  2  1  1  6  0  0  0
  2  3  1  0  0  0  0
  2  5  1  0  0  0  0
  3  4  1  0  0  0  0
  3 10  1  0  0  0  0
  5  6  1  0  0  0  0
  6  7  1  0  0  0  0
  7  8  1  0  0  0  0
  8  9  1  0  0  0  0
M  END
>  <CHROM.1>
139.45317717,-64.78271187,177.56126379,176.74016821,56.10111439,30.10187878
16.54986460,21.30997711,-0.48200684,-0.35743570,-2.02445452

>  <Name>
ligand

>  <RI>
0

>  <Rbt.Current_Directory>
/home/itssahil/PROJECTS/Mol_Feturizer/New_Systems/rnas/3DIY

>  <Rbt.Executable>
rbdock ($Id: //depot/dev/client3/rdock/2013.1/src/exe/rbdock.cxx#4 $)

>  <Rbt.Library>
libRbt.so (2013.1, Build901 2013/11/27)

>  <Rbt.Parameter_File>
/export/apps/rDock/src/rDock_2013.1_src/data/scripts/dock_solv.prm

>  <Rbt.Receptor>
prm/blind_docking_80.prm

>  <SCORE>
-8.21622

>  <SCORE.INTER>
-7.82572

>  <SCORE.INTER.CONST>
1

>  <SCORE.INTER.POLAR>
0

>  <SCORE.INTER.ROT>
5

>  <SCORE.INTER.SOLV>
15.0152

>  <SCORE.INTER.VDW>
-17.1555

>  <SCORE.INTER.norm>
-0.782572

>  <SCORE.INTRA>
-0.390504

>  <SCORE.INTRA.DIHEDRAL>
-0.855733

>  <SCORE.INTRA.DIHEDRAL.0>
2.56603

>  <SCORE.INTRA.POLAR>
0

>  <SCORE.INTRA.POLAR.0>
0

>  <SCORE.INTRA.REPUL>
0

>  <SCORE.INTRA.REPUL.0>
0

>  <SCORE.INTRA.SOLV>
0.255107

>  <SCORE.INTRA.SOLV.lig_0>
-32.0799

>  <SCORE.INTRA.VDW>
-0.090191

>  <SCORE.INTRA.VDW.0>
-0.618248

>  <SCORE.INTRA.norm>
-0.0390504

>  <SCORE.RESTR>
0

>  <SCORE.RESTR.CAVITY>
0

>  <SCORE.RESTR.norm>
0

>  <SCORE.SYSTEM>
0

>  <SCORE.SYSTEM.CONST>
0

>  <SCORE.SYSTEM.DIHEDRAL>
0

>  <SCORE.SYSTEM.SOLV>
0

>  <SCORE.SYSTEM.norm>
0

>  <SCORE.heavy>
10

>  <SCORE.norm>
-0.821622

>  <RMSD>
1.057

$$$$
ligand
 OpenBabel11021811473D
libRbt.so/2013.1/901 2013/11/27
 10  9  0  0  0  0  0  0  0  0999 V2000
   31.7023   16.5995   19.8577 N   0  0  0  0  0  0  0  0  0  0  0  0
   31.2520   17.0602   21.2060 C   0  0  2  0  0  0  0  0  0  0  0  0
   32.2692   17.9903   21.8769 C   0  0  0  0  0  0  0  0  0  0  0  0
   33.4921   17.8162   21.7671 O   0  0  0  0  0  0  0  0  0  0  0  0
   30.9134   15.8678   22.1049 C   0  0  0  0  0  0  0  0  0  0  0  0
   29.7830   15.0195   21.5683 C   0  0  0  0  0  0  0  0  0  0  0  0
   28.4572   15.7368   21.6476 C   0  0  0  0  0  0  0  0  0  0  0  0
   27.3412   14.9026   21.0280 C   0  0  0  0  0  0  0  0  0  0  0  0
   27.4891   14.7126   19.5599 N   0  0  0  0  0  0  0  0  0  0  0  0
   31.9002   18.9745   22.5250 O   0  0  0  0  0  0  0  0  0  0  0  0
  2  1  1  6  0  0  0
  2  3  1  0  0  0  0
  2  5  1  0  0  0  0
  3  4  1  0  0  0  0
  3 10  1  0  0  0  0
  5  6  1  0  0  0  0
  6  7  1  0  0  0  0
  7  8  1  0  0  0  0
  8  9  1  0  0  0  0
M  END
>  <CHROM.1>
-37.33230285,-61.61657183,-70.03686842,176.64147709,-66.30668157,30.49122731
16.49613245,21.33058077,-0.48106237,-0.40315582,-2.13217641

>  <Name>
ligand

>  <RI>
0

>  <Rbt.Current_Directory>
/home/itssahil/PROJECTS/Mol_Feturizer/New_Systems/rnas/3DIY

>  <Rbt.Executable>
rbdock ($Id: //depot/dev/client3/rdock/2013.1/src/exe/rbdock.cxx#4 $)

>  <Rbt.Library>
libRbt.so (2013.1, Build901 2013/11/27)

>  <Rbt.Parameter_File>
/export/apps/rDock/src/rDock_2013.1_src/data/scripts/dock_solv.prm

>  <Rbt.Receptor>
prm/pocket_docking_2.prm

>  <SCORE>
-7.73036

>  <SCORE.INTER>
-7.8521

>  <SCORE.INTER.CONST>
1

>  <SCORE.INTER.POLAR>
0

>  <SCORE.INTER.ROT>
5

>  <SCORE.INTER.SOLV>
12.9734

>  <SCORE.INTER.VDW>
-16.4925

>  <SCORE.INTER.norm>
-0.78521

>  <SCORE.INTRA>
0.121741

>  <SCORE.INTRA.DIHEDRAL>
-0.335953

>  <SCORE.INTRA.DIHEDRAL.0>
2.56603

>  <SCORE.INTRA.POLAR>
0

>  <SCORE.INTRA.POLAR.0>
0

>  <SCORE.INTRA.REPUL>
0

>  <SCORE.INTRA.REPUL.0>
0

>  <SCORE.INTRA.SOLV>
0.655645

>  <SCORE.INTRA.SOLV.lig_0>
-32.0799

>  <SCORE.INTRA.VDW>
-0.0381051

>  <SCORE.INTRA.VDW.0>
-0.618248

>  <SCORE.INTRA.norm>
0.0121741

>  <SCORE.RESTR>
0

>  <SCORE.RESTR.CAVITY>
0

>  <SCORE.RESTR.norm>
0

>  <SCORE.SYSTEM>
0

>  <SCORE.SYSTEM.CONST>
0

>  <SCORE.SYSTEM.DIHEDRAL>
0

>  <SCORE.SYSTEM.SOLV>
0

>  <SCORE.SYSTEM.norm>
0

>  <SCORE.heavy>
10

>  <SCORE.norm>
-0.773036

>  <RMSD>
1.120

$$$$
ligand
 OpenBabel11021811473D
libRbt.so/2013.1/901 2013/11/27
 10  9  0  0  0  0  0  0  0  0999 V2000
   32.5929   15.9284   19.5871 N   0  0  0  0  0  0  0  0  0  0  0  0
   31.5750   16.5375   20.4959 C   0  0  2  0  0  0  0  0  0  0  0  0
   32.2082   17.1918   21.7292 C   0  0  0  0  0  0  0  0  0  0  0  0
   33.0475   16.6041   22.4278 O   0  0  0  0  0  0  0  0  0  0  0  0
   30.5157   15.5073   20.8967 C   0  0  0  0  0  0  0  0  0  0  0  0
   29.4975   16.0493   21.8740 C   0  0  0  0  0  0  0  0  0  0  0  0
   28.2590   15.1882   21.9285 C   0  0  0  0  0  0  0  0  0  0  0  0
   27.4187   15.3509   20.6664 C   0  0  0  0  0  0  0  0  0  0  0  0
   26.0671   14.7381   20.7719 N   0  0  0  0  0  0  0  0  0  0  0  0
   31.9268   18.3509   22.0491 O   0  0  0  0  0  0  0  0  0  0  0  0
  2  1  1  1  0  0  0
  2  3  1  0  0  0  0
  2  5  1  0  0  0  0
  3  4  1  0  0  0  0
  3 10  1  0  0  0  0
  5  6  1  0  0  0  0
  6  7  1  0  0  0  0
  7  8  1  0  0  0  0
  8  9  1  0  0  0  0
M  END
>  <CHROM.1>
-48.97617154,177.04898107,162.68185943,-72.52692416,-168.80871649,30.33583168
16.16439110,21.26918126,-0.25709321,-0.25338334,-2.15288544

>  <Name>
ligand

>  <RI>
0

>  <Rbt.Current_Directory>
/home/itssahil/PROJECTS/Mol_Feturizer/New_Systems/rnas/3DIY

>  <Rbt.Executable>
rbdock ($Id: //depot/dev/client3/rdock/2013.1/src/exe/rbdock.cxx#4 $)

>  <Rbt.Library>
libRbt.so (2013.1, Build901 2013/11/27)

>  <Rbt.Parameter_File>
/export/apps/rDock/src/rDock_2013.1_src/data/scripts/dock_solv.prm

>  <Rbt.Receptor>
prm/pocket_docking_8.prm

>  <SCORE>
-5.20444

>  <SCORE.INTER>
-5.65898

>  <SCORE.INTER.CONST>
1

>  <SCORE.INTER.POLAR>
0

>  <SCORE.INTER.ROT>
5

>  <SCORE.INTER.SOLV>
21.3972

>  <SCORE.INTER.VDW>
-17.8384

>  <SCORE.INTER.norm>
-0.565898

>  <SCORE.INTRA>
0.454543

>  <SCORE.INTRA.DIHEDRAL>
1.3204

>  <SCORE.INTRA.DIHEDRAL.0>
2.56603

>  <SCORE.INTRA.POLAR>
0

>  <SCORE.INTRA.POLAR.0>
0

>  <SCORE.INTRA.REPUL>
0

>  <SCORE.INTRA.REPUL.0>
0

>  <SCORE.INTRA.SOLV>
-1.42347

>  <SCORE.INTRA.SOLV.lig_0>
-32.0799

>  <SCORE.INTRA.VDW>
0.506075

>  <SCORE.INTRA.VDW.0>
-0.618248

>  <SCORE.INTRA.norm>
0.0454543

>  <SCORE.RESTR>
0

>  <SCORE.RESTR.CAVITY>
0

>  <SCORE.RESTR.norm>
0

>  <SCORE.SYSTEM>
0

>  <SCORE.SYSTEM.CONST>
0

>  <SCORE.SYSTEM.DIHEDRAL>
0

>  <SCORE.SYSTEM.SOLV>
0

>  <SCORE.SYSTEM.norm>
0

>  <SCORE.heavy>
10

>  <SCORE.norm>
-0.520444

>  <RMSD>
1.138

$$$$
ligand
 OpenBabel11021811473D
libRbt.so/2013.1/901 2013/11/27
 10  9  0  0  0  0  0  0  0  0999 V2000
   32.2307   15.8518   19.6180 N   0  0  0  0  0  0  0  0  0  0  0  0
   31.1185   16.4121   20.4440 C   0  0  2  0  0  0  0  0  0  0  0  0
   31.5997   16.9162   21.8093 C   0  0  0  0  0  0  0  0  0  0  0  0
   32.4742   16.3232   22.4586 O   0  0  0  0  0  0  0  0  0  0  0  0
   29.9857   15.3933   20.5965 C   0  0  0  0  0  0  0  0  0  0  0  0
   28.8281   15.9087   21.4209 C   0  0  0  0  0  0  0  0  0  0  0  0
   27.6479   14.9686   21.3795 C   0  0  0  0  0  0  0  0  0  0  0  0
   26.8135   15.1866   20.1219 C   0  0  0  0  0  0  0  0  0  0  0  0
   27.5606   14.9236   18.8626 N   0  0  0  0  0  0  0  0  0  0  0  0
   31.1535   17.9601   22.2952 O   0  0  0  0  0  0  0  0  0  0  0  0
  2  1  1  1  0  0  0
  2  3  1  0  0  0  0
  2  5  1  0  0  0  0
  3  4  1  0  0  0  0
  3 10  1  0  0  0  0
  5  6  1  0  0  0  0
  6  7  1  0  0  0  0
  7  8  1  0  0  0  0
  8  9  1  0  0  0  0
M  END
>  <CHROM.1>
-38.00980305,-179.79713659,171.41332281,-82.28125962,61.87399895,29.96151103
16.00057163,20.93267128,-0.44278535,-0.19187280,-2.01003110

>  <Name>
ligand

>  <RI>
0

>  <Rbt.Current_Directory>
/home/itssahil/PROJECTS/Mol_Feturizer/New_Systems/rnas/3DIY

>  <Rbt.Executable>
rbdock ($Id: //depot/dev/client3/rdock/2013.1/src/exe/rbdock.cxx#4 $)

>  <Rbt.Library>
libRbt.so (2013.1, Build901 2013/11/27)

>  <Rbt.Parameter_File>
/export/apps/rDock/src/rDock_2013.1_src/data/scripts/dock_solv.prm

>  <Rbt.Receptor>
prm/blind_docking_80.prm

>  <SCORE>
-6.36116

>  <SCORE.INTER>
-7.70068

>  <SCORE.INTER.CONST>
1

>  <SCORE.INTER.POLAR>
0

>  <SCORE.INTER.ROT>
5

>  <SCORE.INTER.SOLV>
14.4944

>  <SCORE.INTER.VDW>
-16.8986

>  <SCORE.INTER.norm>
-0.770068

>  <SCORE.INTRA>
1.33952

>  <SCORE.INTRA.DIHEDRAL>
1.21238

>  <SCORE.INTRA.DIHEDRAL.0>
2.56603

>  <SCORE.INTRA.POLAR>
0

>  <SCORE.INTRA.POLAR.0>
0

>  <SCORE.INTRA.REPUL>
0

>  <SCORE.INTRA.REPUL.0>
0

>  <SCORE.INTRA.SOLV>
0.736405

>  <SCORE.INTRA.SOLV.lig_0>
-32.0799

>  <SCORE.INTRA.VDW>
0.365123

>  <SCORE.INTRA.VDW.0>
-0.618248

>  <SCORE.INTRA.norm>
0.133952

>  <SCORE.RESTR>
0

>  <SCORE.RESTR.CAVITY>
0

>  <SCORE.RESTR.norm>
0

>  <SCORE.SYSTEM>
0

>  <SCORE.SYSTEM.CONST>
0

>  <SCORE.SYSTEM.DIHEDRAL>
0

>  <SCORE.SYSTEM.SOLV>
0

>  <SCORE.SYSTEM.norm>
0

>  <SCORE.heavy>
10

>  <SCORE.norm>
-0.636116

>  <RMSD>
1.145

$$$$
ligand
 OpenBabel11021811473D
libRbt.so/2013.1/901 2013/11/27
 10  9  0  0  0  0  0  0  0  0999 V2000
   32.3136   16.1866   20.3659 N   0  0  0  0  0  0  0  0  0  0  0  0
   31.5039   17.2326   21.0611 C   0  0  2  0  0  0  0  0  0  0  0  0
   32.3680   18.1790   21.9023 C   0  0  0  0  0  0  0  0  0  0  0  0
   33.5859   18.3070   21.7060 O   0  0  0  0  0  0  0  0  0  0  0  0
   30.3972   16.5943   21.9050 C   0  0  0  0  0  0  0  0  0  0  0  0
   29.3619   15.8669   21.0777 C   0  0  0  0  0  0  0  0  0  0  0  0
   28.1897   15.4172   21.9156 C   0  0  0  0  0  0  0  0  0  0  0  0
   27.1048   14.7841   21.0510 C   0  0  0  0  0  0  0  0  0  0  0  0
   26.6186   15.6757   19.9638 N   0  0  0  0  0  0  0  0  0  0  0  0
   31.8675   18.8790   22.7879 O   0  0  0  0  0  0  0  0  0  0  0  0
  2  1  1  1  0  0  0
  2  3  1  0  0  0  0
  2  5  1  0  0  0  0
  3  4  1  0  0  0  0
  3 10  1  0  0  0  0
  5  6  1  0  0  0  0
  6  7  1  0  0  0  0
  7  8  1  0  0  0  0
  8  9  1  0  0  0  0
M  END
>  <CHROM.1>
20.02701635,-65.17264344,-172.03314859,175.50157908,-56.32344791,30.36084476
16.74037010,21.39307502,-0.45020257,-0.25069794,-2.33497689

>  <Name>
ligand

>  <RI>
0

>  <Rbt.Current_Directory>
/home/itssahil/PROJECTS/Mol_Feturizer/New_Systems/rnas/3DIY

>  <Rbt.Executable>
rbdock ($Id: //depot/dev/client3/rdock/2013.1/src/exe/rbdock.cxx#4 $)

>  <Rbt.Library>
libRbt.so (2013.1, Build901 2013/11/27)

>  <Rbt.Parameter_File>
/export/apps/rDock/src/rDock_2013.1_src/data/scripts/dock_solv.prm

>  <Rbt.Receptor>
prm/pocket_docking_4.prm

>  <SCORE>
-6.93174

>  <SCORE.INTER>
-7.08008

>  <SCORE.INTER.CONST>
1

>  <SCORE.INTER.POLAR>
0

>  <SCORE.INTER.ROT>
5

>  <SCORE.INTER.SOLV>
16.4264

>  <SCORE.INTER.VDW>
-17.1289

>  <SCORE.INTER.norm>
-0.708008

>  <SCORE.INTRA>
0.148337

>  <SCORE.INTRA.DIHEDRAL>
-0.569853

>  <SCORE.INTRA.DIHEDRAL.0>
2.56603

>  <SCORE.INTRA.POLAR>
0

>  <SCORE.INTRA.POLAR.0>
0

>  <SCORE.INTRA.REPUL>
0

>  <SCORE.INTRA.REPUL.0>
0

>  <SCORE.INTRA.SOLV>
0.244688

>  <SCORE.INTRA.SOLV.lig_0>
-32.0799

>  <SCORE.INTRA.VDW>
0.310919

>  <SCORE.INTRA.VDW.0>
-0.618248

>  <SCORE.INTRA.norm>
0.0148337

>  <SCORE.RESTR>
0

>  <SCORE.RESTR.CAVITY>
0

>  <SCORE.RESTR.norm>
0

>  <SCORE.SYSTEM>
0

>  <SCORE.SYSTEM.CONST>
0

>  <SCORE.SYSTEM.DIHEDRAL>
0

>  <SCORE.SYSTEM.SOLV>
0

>  <SCORE.SYSTEM.norm>
0

>  <SCORE.heavy>
10

>  <SCORE.norm>
-0.693174

>  <RMSD>
1.159

$$$$
ligand
 OpenBabel11021811473D
libRbt.so/2013.1/901 2013/11/27
 10  9  0  0  0  0  0  0  0  0999 V2000
   32.2790   15.7853   19.9284 N   0  0  0  0  0  0  0  0  0  0  0  0
   31.5896   16.9677   20.5282 C   0  0  2  0  0  0  0  0  0  0  0  0
   32.2641   17.4463   21.8189 C   0  0  0  0  0  0  0  0  0  0  0  0
   32.0692   18.5804   22.2815 O   0  0  0  0  0  0  0  0  0  0  0  0
   30.1036   16.6759   20.7540 C   0  0  0  0  0  0  0  0  0  0  0  0
   29.8601   15.4649   21.6255 C   0  0  0  0  0  0  0  0  0  0  0  0
   28.3916   15.2676   21.9136 C   0  0  0  0  0  0  0  0  0  0  0  0
   27.6255   14.9023   20.6468 C   0  0  0  0  0  0  0  0  0  0  0  0
   26.1509   14.8575   20.8386 N   0  0  0  0  0  0  0  0  0  0  0  0
   33.0025   16.6974   22.4660 O   0  0  0  0  0  0  0  0  0  0  0  0
  2  1  1  1  0  0  0
  2  3  1  0  0  0  0
  2  5  1  0  0  0  0
  3  4  1  0  0  0  0
  3 10  1  0  0  0  0
  5  6  1  0  0  0  0
  6  7  1  0  0  0  0
  7  8  1  0  0  0  0
  8  9  1  0  0  0  0
M  END
>  <CHROM.1>
161.53470962,56.94043362,175.66704302,66.84691816,-173.00618384,30.35895037
16.28133078,21.30863099,-0.36685536,-0.25157640,-2.26764665

>  <Name>
ligand

>  <RI>
0

>  <Rbt.Current_Directory>
/home/itssahil/PROJECTS/Mol_Feturizer/New_Systems/rnas/3DIY

>  <Rbt.Executable>
rbdock ($Id: //depot/dev/client3/rdock/2013.1/src/exe/rbdock.cxx#4 $)

>  <Rbt.Library>
libRbt.so (2013.1, Build901 2013/11/27)

>  <Rbt.Parameter_File>
/export/apps/rDock/src/rDock_2013.1_src/data/scripts/dock_solv.prm

>  <Rbt.Receptor>
prm/pocket_docking_8.prm

>  <SCORE>
-6.06853

>  <SCORE.INTER>
-6.20095

>  <SCORE.INTER.CONST>
1

>  <SCORE.INTER.POLAR>
0

>  <SCORE.INTER.ROT>
5

>  <SCORE.INTER.SOLV>
19.6738

>  <SCORE.INTER.VDW>
-17.6252

>  <SCORE.INTER.norm>
-0.620095

>  <SCORE.INTRA>
0.132415

>  <SCORE.INTRA.DIHEDRAL>
-0.589315

>  <SCORE.INTRA.DIHEDRAL.0>
2.56603

>  <SCORE.INTRA.POLAR>
0

>  <SCORE.INTRA.POLAR.0>
0

>  <SCORE.INTRA.REPUL>
0

>  <SCORE.INTRA.REPUL.0>
0

>  <SCORE.INTRA.SOLV>
-0.357455

>  <SCORE.INTRA.SOLV.lig_0>
-32.0799

>  <SCORE.INTRA.VDW>
0.6058

>  <SCORE.INTRA.VDW.0>
-0.618248

>  <SCORE.INTRA.norm>
0.0132415

>  <SCORE.RESTR>
0

>  <SCORE.RESTR.CAVITY>
0

>  <SCORE.RESTR.norm>
0

>  <SCORE.SYSTEM>
0

>  <SCORE.SYSTEM.CONST>
0

>  <SCORE.SYSTEM.DIHEDRAL>
0

>  <SCORE.SYSTEM.SOLV>
0

>  <SCORE.SYSTEM.norm>
0

>  <SCORE.heavy>
10

>  <SCORE.norm>
-0.606853

>  <RMSD>
1.188

$$$$
ligand
 OpenBabel11021811473D
libRbt.so/2013.1/901 2013/11/27
 10  9  0  0  0  0  0  0  0  0999 V2000
   32.3484   15.6238   19.7798 N   0  0  0  0  0  0  0  0  0  0  0  0
   31.2321   16.1141   20.6439 C   0  0  2  0  0  0  0  0  0  0  0  0
   31.7071   17.1181   21.7005 C   0  0  0  0  0  0  0  0  0  0  0  0
   32.8045   17.0067   22.2674 O   0  0  0  0  0  0  0  0  0  0  0  0
   30.4858   14.9425   21.2878 C   0  0  0  0  0  0  0  0  0  0  0  0
   29.1667   15.3447   21.9071 C   0  0  0  0  0  0  0  0  0  0  0  0
   28.1622   15.7664   20.8622 C   0  0  0  0  0  0  0  0  0  0  0  0
   27.7494   14.5877   19.9872 C   0  0  0  0  0  0  0  0  0  0  0  0
   26.8763   14.9744   18.8464 N   0  0  0  0  0  0  0  0  0  0  0  0
   31.0209   18.1007   21.9980 O   0  0  0  0  0  0  0  0  0  0  0  0
  2  1  1  1  0  0  0
  2  3  1  0  0  0  0
  2  5  1  0  0  0  0
  3  4  1  0  0  0  0
  3 10  1  0  0  0  0
  5  6  1  0  0  0  0
  6  7  1  0  0  0  0
  7  8  1  0  0  0  0
  8  9  1  0  0  0  0
M  END
>  <CHROM.1>
-36.62855815,-166.65374454,67.48039323,66.96506990,-173.63061840,30.17477804
15.98503110,20.95316851,-0.53767888,-0.06639540,-2.29617598

>  <Name>
ligand

>  <RI>
0

>  <Rbt.Current_Directory>
/home/itssahil/PROJECTS/Mol_Feturizer/New_Systems/rnas/3DIY

>  <Rbt.Executable>
rbdock ($Id: //depot/dev/client3/rdock/2013.1/src/exe/rbdock.cxx#4 $)

>  <Rbt.Library>
libRbt.so (2013.1, Build901 2013/11/27)

>  <Rbt.Parameter_File>
/export/apps/rDock/src/rDock_2013.1_src/data/scripts/dock_solv.prm

>  <Rbt.Receptor>
prm/pocket_docking_2.prm

>  <SCORE>
-5.77029

>  <SCORE.INTER>
-5.97207

>  <SCORE.INTER.CONST>
1

>  <SCORE.INTER.POLAR>
0

>  <SCORE.INTER.ROT>
5

>  <SCORE.INTER.SOLV>
17.3831

>  <SCORE.INTER.VDW>
-16.7091

>  <SCORE.INTER.norm>
-0.597207

>  <SCORE.INTRA>
0.201078

>  <SCORE.INTRA.DIHEDRAL>
0.256468

>  <SCORE.INTRA.DIHEDRAL.0>
2.56603

>  <SCORE.INTRA.POLAR>
0

>  <SCORE.INTRA.POLAR.0>
0

>  <SCORE.INTRA.REPUL>
0

>  <SCORE.INTRA.REPUL.0>
0

>  <SCORE.INTRA.SOLV>
-0.974026

>  <SCORE.INTRA.SOLV.lig_0>
-32.0799

>  <SCORE.INTRA.VDW>
0.559857

>  <SCORE.INTRA.VDW.0>
-0.618248

>  <SCORE.INTRA.norm>
0.0201078

>  <SCORE.RESTR>
0.000696859

>  <SCORE.RESTR.CAVITY>
0.000696859

>  <SCORE.RESTR.norm>
6.96859e-05

>  <SCORE.SYSTEM>
0

>  <SCORE.SYSTEM.CONST>
0

>  <SCORE.SYSTEM.DIHEDRAL>
0

>  <SCORE.SYSTEM.SOLV>
0

>  <SCORE.SYSTEM.norm>
0

>  <SCORE.heavy>
10

>  <SCORE.norm>
-0.577029

>  <RMSD>
1.189

$$$$
ligand
 OpenBabel11021811473D
libRbt.so/2013.1/901 2013/11/27
 10  9  0  0  0  0  0  0  0  0999 V2000
   31.0717   16.9158   19.9588 N   0  0  0  0  0  0  0  0  0  0  0  0
   30.8480   17.2609   21.3955 C   0  0  2  0  0  0  0  0  0  0  0  0
   32.0780   17.9102   22.0401 C   0  0  0  0  0  0  0  0  0  0  0  0
   31.9906   18.9212   22.7530 O   0  0  0  0  0  0  0  0  0  0  0  0
   30.3903   16.0325   22.1866 C   0  0  0  0  0  0  0  0  0  0  0  0
   28.9433   15.6706   21.9401 C   0  0  0  0  0  0  0  0  0  0  0  0
   28.7038   15.2627   20.5067 C   0  0  0  0  0  0  0  0  0  0  0  0
   27.2265   14.9826   20.2529 C   0  0  0  0  0  0  0  0  0  0  0  0
   26.9165   14.6838   18.8289 N   0  0  0  0  0  0  0  0  0  0  0  0
   33.2029   17.4210   21.8986 O   0  0  0  0  0  0  0  0  0  0  0  0
  2  1  1  6  0  0  0
  2  3  1  0  0  0  0
  2  5  1  0  0  0  0
  3  4  1  0  0  0  0
  3 10  1  0  0  0  0
  5  6  1  0  0  0  0
  6  7  1  0  0  0  0
  7  8  1  0  0  0  0
  8  9  1  0  0  0  0
M  END
>  <CHROM.1>
134.47293250,-75.91027706,64.09459090,-176.54998361,175.29602821,30.17344428
16.52741698,21.19484752,-0.45232709,-0.50948830,-1.71696448

>  <Name>
ligand

>  <RI>
0

>  <Rbt.Current_Directory>
/home/itssahil/PROJECTS/Mol_Feturizer/New_Systems/rnas/3DIY

>  <Rbt.Executable>
rbdock ($Id: //depot/dev/client3/rdock/2013.1/src/exe/rbdock.cxx#4 $)

>  <Rbt.Library>
libRbt.so (2013.1, Build901 2013/11/27)

>  <Rbt.Parameter_File>
/export/apps/rDock/src/rDock_2013.1_src/data/scripts/dock_solv.prm

>  <Rbt.Receptor>
prm/blind_docking_60.prm

>  <SCORE>
-6.48431

>  <SCORE.INTER>
-7.056

>  <SCORE.INTER.CONST>
1

>  <SCORE.INTER.POLAR>
0

>  <SCORE.INTER.ROT>
5

>  <SCORE.INTER.SOLV>
14.4075

>  <SCORE.INTER.VDW>
-16.4398

>  <SCORE.INTER.norm>
-0.7056

>  <SCORE.INTRA>
0.571685

>  <SCORE.INTRA.DIHEDRAL>
0.102399

>  <SCORE.INTRA.DIHEDRAL.0>
2.56603

>  <SCORE.INTRA.POLAR>
0

>  <SCORE.INTRA.POLAR.0>
0

>  <SCORE.INTRA.REPUL>
0

>  <SCORE.INTRA.REPUL.0>
0

>  <SCORE.INTRA.SOLV>
0.571837

>  <SCORE.INTRA.SOLV.lig_0>
-32.0799

>  <SCORE.INTRA.VDW>
0.234567

>  <SCORE.INTRA.VDW.0>
-0.618248

>  <SCORE.INTRA.norm>
0.0571685

>  <SCORE.RESTR>
0

>  <SCORE.RESTR.CAVITY>
0

>  <SCORE.RESTR.norm>
0

>  <SCORE.SYSTEM>
0

>  <SCORE.SYSTEM.CONST>
0

>  <SCORE.SYSTEM.DIHEDRAL>
0

>  <SCORE.SYSTEM.SOLV>
0

>  <SCORE.SYSTEM.norm>
0

>  <SCORE.heavy>
10

>  <SCORE.norm>
-0.648431

>  <RMSD>
1.204

$$$$
ligand
 OpenBabel11021811473D
libRbt.so/2013.1/901 2013/11/27
 10  9  0  0  0  0  0  0  0  0999 V2000
   32.1348   16.1347   20.4715 N   0  0  0  0  0  0  0  0  0  0  0  0
   31.2823   17.1537   21.1555 C   0  0  2  0  0  0  0  0  0  0  0  0
   32.0862   18.0444   22.1097 C   0  0  0  0  0  0  0  0  0  0  0  0
   31.6358   19.1135   22.5480 O   0  0  0  0  0  0  0  0  0  0  0  0
   30.1075   16.4869   21.8764 C   0  0  0  0  0  0  0  0  0  0  0  0
   29.1192   15.8403   20.9327 C   0  0  0  0  0  0  0  0  0  0  0  0
   27.9092   15.3116   21.6640 C   0  0  0  0  0  0  0  0  0  0  0  0
   26.8929   14.7205   20.6928 C   0  0  0  0  0  0  0  0  0  0  0  0
   26.4434   15.6806   19.6491 N   0  0  0  0  0  0  0  0  0  0  0  0
   33.2054   17.7046   22.5056 O   0  0  0  0  0  0  0  0  0  0  0  0
  2  1  1  1  0  0  0
  2  3  1  0  0  0  0
  2  5  1  0  0  0  0
  3  4  1  0  0  0  0
  3 10  1  0  0  0  0
  5  6  1  0  0  0  0
  6  7  1  0  0  0  0
  7  8  1  0  0  0  0
  8  9  1  0  0  0  0
M  END
>  <CHROM.1>
164.30358134,-66.32992761,-174.44042494,177.37504141,-56.85396848,30.11007973
16.64516510,21.38425699,-0.53669839,-0.04467237,-2.53611347

>  <Name>
ligand

>  <RI>
0

>  <Rbt.Current_Directory>
/home/itssahil/PROJECTS/Mol_Feturizer/New_Systems/rnas/3DIY

>  <Rbt.Executable>
rbdock ($Id: //depot/dev/client3/rdock/2013.1/src/exe/rbdock.cxx#4 $)

>  <Rbt.Library>
libRbt.so (2013.1, Build901 2013/11/27)

>  <Rbt.Parameter_File>
/export/apps/rDock/src/rDock_2013.1_src/data/scripts/dock_solv.prm

>  <Rbt.Receptor>
prm/blind_docking_80.prm

>  <SCORE>
-7.22877

>  <SCORE.INTER>
-6.95376

>  <SCORE.INTER.CONST>
1

>  <SCORE.INTER.POLAR>
0

>  <SCORE.INTER.ROT>
5

>  <SCORE.INTER.SOLV>
16.6597

>  <SCORE.INTER.VDW>
-17.1224

>  <SCORE.INTER.norm>
-0.695376

>  <SCORE.INTRA>
-0.275008

>  <SCORE.INTRA.DIHEDRAL>
-0.717143

>  <SCORE.INTRA.DIHEDRAL.0>
2.56603

>  <SCORE.INTRA.POLAR>
0

>  <SCORE.INTRA.POLAR.0>
0

>  <SCORE.INTRA.REPUL>
0

>  <SCORE.INTRA.REPUL.0>
0

>  <SCORE.INTRA.SOLV>
0.227949

>  <SCORE.INTRA.SOLV.lig_0>
-32.0799

>  <SCORE.INTRA.VDW>
-0.0304111

>  <SCORE.INTRA.VDW.0>
-0.618248

>  <SCORE.INTRA.norm>
-0.0275008

>  <SCORE.RESTR>
0

>  <SCORE.RESTR.CAVITY>
0

>  <SCORE.RESTR.norm>
0

>  <SCORE.SYSTEM>
0

>  <SCORE.SYSTEM.CONST>
0

>  <SCORE.SYSTEM.DIHEDRAL>
0

>  <SCORE.SYSTEM.SOLV>
0

>  <SCORE.SYSTEM.norm>
0

>  <SCORE.heavy>
10

>  <SCORE.norm>
-0.722877

>  <RMSD>
1.215

$$$$
ligand
 OpenBabel11021811473D
libRbt.so/2013.1/901 2013/11/27
 10  9  0  0  0  0  0  0  0  0999 V2000
   31.3949   16.9422   19.9331 N   0  0  0  0  0  0  0  0  0  0  0  0
   31.1449   17.2128   21.3813 C   0  0  2  0  0  0  0  0  0  0  0  0
   32.2395   18.0809   22.0122 C   0  0  0  0  0  0  0  0  0  0  0  0
   33.4408   17.9177   21.7510 O   0  0  0  0  0  0  0  0  0  0  0  0
   30.9582   15.9055   22.1562 C   0  0  0  0  0  0  0  0  0  0  0  0
   29.8678   15.0264   21.5872 C   0  0  0  0  0  0  0  0  0  0  0  0
   28.5013   15.6429   21.7637 C   0  0  0  0  0  0  0  0  0  0  0  0
   27.4240   14.7962   21.0946 C   0  0  0  0  0  0  0  0  0  0  0  0
   27.5518   14.7376   19.6135 N   0  0  0  0  0  0  0  0  0  0  0  0
   31.9546   19.0043   22.7811 O   0  0  0  0  0  0  0  0  0  0  0  0
  2  1  1  6  0  0  0
  2  3  1  0  0  0  0
  2  5  1  0  0  0  0
  3  4  1  0  0  0  0
  3 10  1  0  0  0  0
  5  6  1  0  0  0  0
  6  7  1  0  0  0  0
  7  8  1  0  0  0  0
  8  9  1  0  0  0  0
M  END
>  <CHROM.1>
-40.84615887,-55.23539258,-67.57865614,175.78088113,-65.53967063,30.48038803
16.55380972,21.42341396,-0.41050485,-0.52625221,-1.91431068

>  <Name>
ligand

>  <RI>
0

>  <Rbt.Current_Directory>
/home/itssahil/PROJECTS/Mol_Feturizer/New_Systems/rnas/3DIY

>  <Rbt.Executable>
rbdock ($Id: //depot/dev/client3/rdock/2013.1/src/exe/rbdock.cxx#4 $)

>  <Rbt.Library>
libRbt.so (2013.1, Build901 2013/11/27)

>  <Rbt.Parameter_File>
/export/apps/rDock/src/rDock_2013.1_src/data/scripts/dock_solv.prm

>  <Rbt.Receptor>
prm/pocket_docking_2.prm

>  <SCORE>
-7.82758

>  <SCORE.INTER>
-8.10625

>  <SCORE.INTER.CONST>
1

>  <SCORE.INTER.POLAR>
0

>  <SCORE.INTER.ROT>
5

>  <SCORE.INTER.SOLV>
12.5082

>  <SCORE.INTER.VDW>
-16.5069

>  <SCORE.INTER.norm>
-0.810625

>  <SCORE.INTRA>
0.278671

>  <SCORE.INTRA.DIHEDRAL>
-0.465614

>  <SCORE.INTRA.DIHEDRAL.0>
2.56603

>  <SCORE.INTRA.POLAR>
0

>  <SCORE.INTRA.POLAR.0>
0

>  <SCORE.INTRA.REPUL>
0

>  <SCORE.INTRA.REPUL.0>
0

>  <SCORE.INTRA.SOLV>
0.853894

>  <SCORE.INTRA.SOLV.lig_0>
-32.0799

>  <SCORE.INTRA.VDW>
0.0845314

>  <SCORE.INTRA.VDW.0>
-0.618248

>  <SCORE.INTRA.norm>
0.0278671

>  <SCORE.RESTR>
0

>  <SCORE.RESTR.CAVITY>
0

>  <SCORE.RESTR.norm>
0

>  <SCORE.SYSTEM>
0

>  <SCORE.SYSTEM.CONST>
0

>  <SCORE.SYSTEM.DIHEDRAL>
0

>  <SCORE.SYSTEM.SOLV>
0

>  <SCORE.SYSTEM.norm>
0

>  <SCORE.heavy>
10

>  <SCORE.norm>
-0.782758

>  <RMSD>
1.249

$$$$
ligand
 OpenBabel11021811473D
libRbt.so/2013.1/901 2013/11/27
 10  9  0  0  0  0  0  0  0  0999 V2000
   31.3978   16.7093   19.9404 N   0  0  0  0  0  0  0  0  0  0  0  0
   30.9643   17.0331   21.3334 C   0  0  2  0  0  0  0  0  0  0  0  0
   31.9562   17.9513   22.0567 C   0  0  0  0  0  0  0  0  0  0  0  0
   33.1654   17.6860   22.1294 O   0  0  0  0  0  0  0  0  0  0  0  0
   30.7056   15.7546   22.1351 C   0  0  0  0  0  0  0  0  0  0  0  0
   29.5804   14.9163   21.5726 C   0  0  0  0  0  0  0  0  0  0  0  0
   28.2462   15.6107   21.6997 C   0  0  0  0  0  0  0  0  0  0  0  0
   27.1444   14.8193   21.0033 C   0  0  0  0  0  0  0  0  0  0  0  0
   27.3508   14.6816   19.5365 N   0  0  0  0  0  0  0  0  0  0  0  0
   31.5850   19.0140   22.5643 O   0  0  0  0  0  0  0  0  0  0  0  0
  2  1  1  6  0  0  0
  2  3  1  0  0  0  0
  2  5  1  0  0  0  0
  3  4  1  0  0  0  0
  3 10  1  0  0  0  0
  5  6  1  0  0  0  0
  6  7  1  0  0  0  0
  7  8  1  0  0  0  0
  8  9  1  0  0  0  0
M  END
>  <CHROM.1>
-52.48059446,-62.88538393,-66.73526899,174.22811618,-62.70982021,30.24005582
16.44554505,21.41519248,-0.51524748,-0.41639689,-2.10525103

>  <Name>
ligand

>  <RI>
0

>  <Rbt.Current_Directory>
/home/itssahil/PROJECTS/Mol_Feturizer/New_Systems/rnas/3DIY

>  <Rbt.Executable>
rbdock ($Id: //depot/dev/client3/rdock/2013.1/src/exe/rbdock.cxx#4 $)

>  <Rbt.Library>
libRbt.so (2013.1, Build901 2013/11/27)

>  <Rbt.Parameter_File>
/export/apps/rDock/src/rDock_2013.1_src/data/scripts/dock_solv.prm

>  <Rbt.Receptor>
prm/blind_docking_80.prm

>  <SCORE>
-8.12238

>  <SCORE.INTER>
-8.23595

>  <SCORE.INTER.CONST>
1

>  <SCORE.INTER.POLAR>
0

>  <SCORE.INTER.ROT>
5

>  <SCORE.INTER.SOLV>
13.0633

>  <SCORE.INTER.VDW>
-16.7784

>  <SCORE.INTER.norm>
-0.823595

>  <SCORE.INTRA>
0.113567

>  <SCORE.INTRA.DIHEDRAL>
-0.608661

>  <SCORE.INTRA.DIHEDRAL.0>
2.56603

>  <SCORE.INTRA.POLAR>
0

>  <SCORE.INTRA.POLAR.0>
0

>  <SCORE.INTRA.REPUL>
0

>  <SCORE.INTRA.REPUL.0>
0

>  <SCORE.INTRA.SOLV>
0.730423

>  <SCORE.INTRA.SOLV.lig_0>
-32.0799

>  <SCORE.INTRA.VDW>
0.0526856

>  <SCORE.INTRA.VDW.0>
-0.618248

>  <SCORE.INTRA.norm>
0.0113567

>  <SCORE.RESTR>
0

>  <SCORE.RESTR.CAVITY>
0

>  <SCORE.RESTR.norm>
0

>  <SCORE.SYSTEM>
0

>  <SCORE.SYSTEM.CONST>
0

>  <SCORE.SYSTEM.DIHEDRAL>
0

>  <SCORE.SYSTEM.SOLV>
0

>  <SCORE.SYSTEM.norm>
0

>  <SCORE.heavy>
10

>  <SCORE.norm>
-0.812238

>  <RMSD>
1.260

$$$$
ligand
 OpenBabel11021811473D
libRbt.so/2013.1/901 2013/11/27
 10  9  0  0  0  0  0  0  0  0999 V2000
   31.4567   16.4594   20.0004 N   0  0  0  0  0  0  0  0  0  0  0  0
   30.8127   16.9108   21.2711 C   0  0  2  0  0  0  0  0  0  0  0  0
   31.7098   17.8558   22.0787 C   0  0  0  0  0  0  0  0  0  0  0  0
   31.2700   18.8865   22.6099 O   0  0  0  0  0  0  0  0  0  0  0  0
   30.3692   15.7118   22.1137 C   0  0  0  0  0  0  0  0  0  0  0  0
   29.2935   14.8825   21.4497 C   0  0  0  0  0  0  0  0  0  0  0  0
   27.9797   15.6222   21.3778 C   0  0  0  0  0  0  0  0  0  0  0  0
   26.9493   14.8384   20.5720 C   0  0  0  0  0  0  0  0  0  0  0  0
   27.2957   14.7125   19.1307 N   0  0  0  0  0  0  0  0  0  0  0  0
   32.9043   17.5995   22.2588 O   0  0  0  0  0  0  0  0  0  0  0  0
  2  1  1  6  0  0  0
  2  3  1  0  0  0  0
  2  5  1  0  0  0  0
  3  4  1  0  0  0  0
  3 10  1  0  0  0  0
  5  6  1  0  0  0  0
  6  7  1  0  0  0  0
  7  8  1  0  0  0  0
  8  9  1  0  0  0  0
M  END
>  <CHROM.1>
136.20526486,-64.27114199,-69.11481167,173.74270734,-66.44664593,30.03236016
16.37558486,21.30765041,-0.60462682,-0.30244036,-2.19045494

>  <Name>
ligand

>  <RI>
0

>  <Rbt.Current_Directory>
/home/itssahil/PROJECTS/Mol_Feturizer/New_Systems/rnas/3DIY

>  <Rbt.Executable>
rbdock ($Id: //depot/dev/client3/rdock/2013.1/src/exe/rbdock.cxx#4 $)

>  <Rbt.Library>
libRbt.so (2013.1, Build901 2013/11/27)

>  <Rbt.Parameter_File>
/export/apps/rDock/src/rDock_2013.1_src/data/scripts/dock_solv.prm

>  <Rbt.Receptor>
prm/pocket_docking_8.prm

>  <SCORE>
-8.18931

>  <SCORE.INTER>
-8.29111

>  <SCORE.INTER.CONST>
1

>  <SCORE.INTER.POLAR>
0

>  <SCORE.INTER.ROT>
5

>  <SCORE.INTER.SOLV>
13.2593

>  <SCORE.INTER.VDW>
-16.8805

>  <SCORE.INTER.norm>
-0.829111

>  <SCORE.INTRA>
0.1018

>  <SCORE.INTRA.DIHEDRAL>
-0.332847

>  <SCORE.INTRA.DIHEDRAL.0>
2.56603

>  <SCORE.INTRA.POLAR>
0

>  <SCORE.INTRA.POLAR.0>
0

>  <SCORE.INTRA.REPUL>
0

>  <SCORE.INTRA.REPUL.0>
0

>  <SCORE.INTRA.SOLV>
0.620129

>  <SCORE.INTRA.SOLV.lig_0>
-32.0799

>  <SCORE.INTRA.VDW>
-0.0418412

>  <SCORE.INTRA.VDW.0>
-0.618248

>  <SCORE.INTRA.norm>
0.01018

>  <SCORE.RESTR>
0

>  <SCORE.RESTR.CAVITY>
0

>  <SCORE.RESTR.norm>
0

>  <SCORE.SYSTEM>
0

>  <SCORE.SYSTEM.CONST>
0

>  <SCORE.SYSTEM.DIHEDRAL>
0

>  <SCORE.SYSTEM.SOLV>
0

>  <SCORE.SYSTEM.norm>
0

>  <SCORE.heavy>
10

>  <SCORE.norm>
-0.818931

>  <RMSD>
1.260

$$$$
ligand
 OpenBabel11021811473D
libRbt.so/2013.1/901 2013/11/27
 10  9  0  0  0  0  0  0  0  0999 V2000
   32.2808   15.7432   19.6996 N   0  0  0  0  0  0  0  0  0  0  0  0
   31.1393   16.1506   20.5737 C   0  0  2  0  0  0  0  0  0  0  0  0
   31.5704   17.1059   21.6924 C   0  0  0  0  0  0  0  0  0  0  0  0
   30.8327   18.0147   22.1020 O   0  0  0  0  0  0  0  0  0  0  0  0
   30.4201   14.9228   21.1390 C   0  0  0  0  0  0  0  0  0  0  0  0
   29.1748   15.2703   21.9225 C   0  0  0  0  0  0  0  0  0  0  0  0
   28.1076   15.8724   21.0410 C   0  0  0  0  0  0  0  0  0  0  0  0
   27.4079   14.8005   20.2123 C   0  0  0  0  0  0  0  0  0  0  0  0
   28.2679   14.2216   19.1452 N   0  0  0  0  0  0  0  0  0  0  0  0
   32.6633   16.9770   22.2527 O   0  0  0  0  0  0  0  0  0  0  0  0
  2  1  1  1  0  0  0
  2  3  1  0  0  0  0
  2  5  1  0  0  0  0
  3  4  1  0  0  0  0
  3 10  1  0  0  0  0
  5  6  1  0  0  0  0
  6  7  1  0  0  0  0
  7  8  1  0  0  0  0
  8  9  1  0  0  0  0
M  END
>  <CHROM.1>
145.38493901,-174.39922574,65.81079281,76.67433317,-70.25739037,30.20354982
15.93370357,21.00469735,-0.57600567,-0.17294057,-2.29577497

>  <Name>
ligand

>  <RI>
0

>  <Rbt.Current_Directory>
/home/itssahil/PROJECTS/Mol_Feturizer/New_Systems/rnas/3DIY

>  <Rbt.Executable>
rbdock ($Id: //depot/dev/client3/rdock/2013.1/src/exe/rbdock.cxx#4 $)

>  <Rbt.Library>
libRbt.so (2013.1, Build901 2013/11/27)

>  <Rbt.Parameter_File>
/export/apps/rDock/src/rDock_2013.1_src/data/scripts/dock_solv.prm

>  <Rbt.Receptor>
prm/blind_docking_80.prm

>  <SCORE>
-5.3059

>  <SCORE.INTER>
-6.74813

>  <SCORE.INTER.CONST>
1

>  <SCORE.INTER.POLAR>
0

>  <SCORE.INTER.ROT>
5

>  <SCORE.INTER.SOLV>
14.9748

>  <SCORE.INTER.VDW>
-16.4237

>  <SCORE.INTER.norm>
-0.674813

>  <SCORE.INTRA>
1.44223

>  <SCORE.INTRA.DIHEDRAL>
0.632981

>  <SCORE.INTRA.DIHEDRAL.0>
2.56603

>  <SCORE.INTRA.POLAR>
0

>  <SCORE.INTRA.POLAR.0>
0

>  <SCORE.INTRA.REPUL>
0

>  <SCORE.INTRA.REPUL.0>
0

>  <SCORE.INTRA.SOLV>
1.33881

>  <SCORE.INTRA.SOLV.lig_0>
-32.0799

>  <SCORE.INTRA.VDW>
0.456331

>  <SCORE.INTRA.VDW.0>
-0.618248

>  <SCORE.INTRA.norm>
0.144223

>  <SCORE.RESTR>
0

>  <SCORE.RESTR.CAVITY>
0

>  <SCORE.RESTR.norm>
0

>  <SCORE.SYSTEM>
0

>  <SCORE.SYSTEM.CONST>
0

>  <SCORE.SYSTEM.DIHEDRAL>
0

>  <SCORE.SYSTEM.SOLV>
0

>  <SCORE.SYSTEM.norm>
0

>  <SCORE.heavy>
10

>  <SCORE.norm>
-0.53059

>  <RMSD>
1.265

$$$$
ligand
 OpenBabel11021811473D
libRbt.so/2013.1/901 2013/11/27
 10  9  0  0  0  0  0  0  0  0999 V2000
   32.4226   15.8789   19.4125 N   0  0  0  0  0  0  0  0  0  0  0  0
   31.3327   16.2326   20.3717 C   0  0  2  0  0  0  0  0  0  0  0  0
   31.7473   17.3410   21.3462 C   0  0  0  0  0  0  0  0  0  0  0  0
   32.9353   17.6479   21.5266 O   0  0  0  0  0  0  0  0  0  0  0  0
   30.8409   14.9909   21.1205 C   0  0  0  0  0  0  0  0  0  0  0  0
   29.4593   15.1596   21.7106 C   0  0  0  0  0  0  0  0  0  0  0  0
   28.3867   15.1105   20.6497 C   0  0  0  0  0  0  0  0  0  0  0  0
   26.9962   15.0597   21.2736 C   0  0  0  0  0  0  0  0  0  0  0  0
   25.8968   15.0696   20.2714 N   0  0  0  0  0  0  0  0  0  0  0  0
   30.9006   17.9956   21.9622 O   0  0  0  0  0  0  0  0  0  0  0  0
  2  1  1  1  0  0  0
  2  3  1  0  0  0  0
  2  5  1  0  0  0  0
  3  4  1  0  0  0  0
  3 10  1  0  0  0  0
  5  6  1  0  0  0  0
  6  7  1  0  0  0  0
  7  8  1  0  0  0  0
  8  9  1  0  0  0  0
M  END
>  <CHROM.1>
-16.98180457,-159.25320238,73.98259487,171.02178051,177.49858998,30.11065853
16.07858046,20.98538648,-0.32508330,-0.20249633,-2.47872047

>  <Name>
ligand

>  <RI>
0

>  <Rbt.Current_Directory>
/home/itssahil/PROJECTS/Mol_Feturizer/New_Systems/rnas/3DIY

>  <Rbt.Executable>
rbdock ($Id: //depot/dev/client3/rdock/2013.1/src/exe/rbdock.cxx#4 $)

>  <Rbt.Library>
libRbt.so (2013.1, Build901 2013/11/27)

>  <Rbt.Parameter_File>
/export/apps/rDock/src/rDock_2013.1_src/data/scripts/dock_solv.prm

>  <Rbt.Receptor>
prm/pocket_docking_2.prm

>  <SCORE>
-5.34802

>  <SCORE.INTER>
-5.37069

>  <SCORE.INTER.CONST>
1

>  <SCORE.INTER.POLAR>
0

>  <SCORE.INTER.ROT>
5

>  <SCORE.INTER.SOLV>
21.0363

>  <SCORE.INTER.VDW>
-17.5259

>  <SCORE.INTER.norm>
-0.537069

>  <SCORE.INTRA>
0.0226728

>  <SCORE.INTRA.DIHEDRAL>
1.64419

>  <SCORE.INTRA.DIHEDRAL.0>
2.56603

>  <SCORE.INTRA.POLAR>
0

>  <SCORE.INTRA.POLAR.0>
0

>  <SCORE.INTRA.REPUL>
0

>  <SCORE.INTRA.REPUL.0>
0

>  <SCORE.INTRA.SOLV>
-1.22882

>  <SCORE.INTRA.SOLV.lig_0>
-32.0799

>  <SCORE.INTRA.VDW>
-0.18501

>  <SCORE.INTRA.VDW.0>
-0.618248

>  <SCORE.INTRA.norm>
0.00226728

>  <SCORE.RESTR>
0

>  <SCORE.RESTR.CAVITY>
0

>  <SCORE.RESTR.norm>
0

>  <SCORE.SYSTEM>
0

>  <SCORE.SYSTEM.CONST>
0

>  <SCORE.SYSTEM.DIHEDRAL>
0

>  <SCORE.SYSTEM.SOLV>
0

>  <SCORE.SYSTEM.norm>
0

>  <SCORE.heavy>
10

>  <SCORE.norm>
-0.534802

>  <RMSD>
1.267

$$$$
ligand
 OpenBabel11021811473D
libRbt.so/2013.1/901 2013/11/27
 10  9  0  0  0  0  0  0  0  0999 V2000
   31.3789   16.4738   19.9883 N   0  0  0  0  0  0  0  0  0  0  0  0
   30.7358   16.8811   21.2743 C   0  0  2  0  0  0  0  0  0  0  0  0
   31.6366   17.7915   22.1168 C   0  0  0  0  0  0  0  0  0  0  0  0
   32.8365   17.5396   22.3030 O   0  0  0  0  0  0  0  0  0  0  0  0
   30.2860   15.6539   22.0718 C   0  0  0  0  0  0  0  0  0  0  0  0
   29.2157   14.8480   21.3716 C   0  0  0  0  0  0  0  0  0  0  0  0
   27.9112   15.6026   21.2865 C   0  0  0  0  0  0  0  0  0  0  0  0
   26.8977   14.8560   20.4259 C   0  0  0  0  0  0  0  0  0  0  0  0
   27.2857   14.7726   18.9921 N   0  0  0  0  0  0  0  0  0  0  0  0
   31.2006   18.8352   22.6121 O   0  0  0  0  0  0  0  0  0  0  0  0
  2  1  1  6  0  0  0
  2  3  1  0  0  0  0
  2  5  1  0  0  0  0
  3  4  1  0  0  0  0
  3 10  1  0  0  0  0
  5  6  1  0  0  0  0
  6  7  1  0  0  0  0
  7  8  1  0  0  0  0
  8  9  1  0  0  0  0
M  END
>  <CHROM.1>
-45.91484340,-63.76720253,-67.79991383,172.73723711,-66.35980967,29.96684776
16.35277303,21.26598746,-0.61290869,-0.30011959,-2.15240179

>  <Name>
ligand

>  <RI>
0

>  <Rbt.Current_Directory>
/home/itssahil/PROJECTS/Mol_Feturizer/New_Systems/rnas/3DIY

>  <Rbt.Executable>
rbdock ($Id: //depot/dev/client3/rdock/2013.1/src/exe/rbdock.cxx#4 $)

>  <Rbt.Library>
libRbt.so (2013.1, Build901 2013/11/27)

>  <Rbt.Parameter_File>
/export/apps/rDock/src/rDock_2013.1_src/data/scripts/dock_solv.prm

>  <Rbt.Receptor>
prm/blind_docking_80.prm

>  <SCORE>
-8.25869

>  <SCORE.INTER>
-8.41589

>  <SCORE.INTER.CONST>
1

>  <SCORE.INTER.POLAR>
0

>  <SCORE.INTER.ROT>
5

>  <SCORE.INTER.SOLV>
13.1608

>  <SCORE.INTER.VDW>
-16.9309

>  <SCORE.INTER.norm>
-0.841589

>  <SCORE.INTRA>
0.157205

>  <SCORE.INTRA.DIHEDRAL>
-0.293686

>  <SCORE.INTRA.DIHEDRAL.0>
2.56603

>  <SCORE.INTRA.POLAR>
0

>  <SCORE.INTRA.POLAR.0>
0

>  <SCORE.INTRA.REPUL>
0

>  <SCORE.INTRA.REPUL.0>
0

>  <SCORE.INTRA.SOLV>
0.662011

>  <SCORE.INTRA.SOLV.lig_0>
-32.0799

>  <SCORE.INTRA.VDW>
-0.0269579

>  <SCORE.INTRA.VDW.0>
-0.618248

>  <SCORE.INTRA.norm>
0.0157205

>  <SCORE.RESTR>
0

>  <SCORE.RESTR.CAVITY>
0

>  <SCORE.RESTR.norm>
0

>  <SCORE.SYSTEM>
0

>  <SCORE.SYSTEM.CONST>
0

>  <SCORE.SYSTEM.DIHEDRAL>
0

>  <SCORE.SYSTEM.SOLV>
0

>  <SCORE.SYSTEM.norm>
0

>  <SCORE.heavy>
10

>  <SCORE.norm>
-0.825869

>  <RMSD>
1.282

$$$$
ligand
 OpenBabel11021811473D
libRbt.so/2013.1/901 2013/11/27
 10  9  0  0  0  0  0  0  0  0999 V2000
   31.1950   16.8830   19.9377 N   0  0  0  0  0  0  0  0  0  0  0  0
   30.8691   17.0963   21.3804 C   0  0  2  0  0  0  0  0  0  0  0  0
   31.9085   17.9695   22.0925 C   0  0  0  0  0  0  0  0  0  0  0  0
   31.6131   19.0614   22.6009 O   0  0  0  0  0  0  0  0  0  0  0  0
   30.6813   15.7583   22.1006 C   0  0  0  0  0  0  0  0  0  0  0  0
   29.5717   14.9162   21.5131 C   0  0  0  0  0  0  0  0  0  0  0  0
   28.2150   15.5361   21.7441 C   0  0  0  0  0  0  0  0  0  0  0  0
   27.1314   14.7962   20.9672 C   0  0  0  0  0  0  0  0  0  0  0  0
   27.3251   14.8401   19.4928 N   0  0  0  0  0  0  0  0  0  0  0  0
   33.0780   17.5929   22.2161 O   0  0  0  0  0  0  0  0  0  0  0  0
  2  1  1  6  0  0  0
  2  3  1  0  0  0  0
  2  5  1  0  0  0  0
  3  4  1  0  0  0  0
  3 10  1  0  0  0  0
  5  6  1  0  0  0  0
  6  7  1  0  0  0  0
  7  8  1  0  0  0  0
  8  9  1  0  0  0  0
M  END
>  <CHROM.1>
118.24297226,-59.57032970,-67.75734539,171.24212845,-62.08470122,30.19014025
16.47135508,21.42344231,-0.39708000,-0.54024311,-1.81295408

>  <Name>
ligand

>  <RI>
0

>  <Rbt.Current_Directory>
/home/itssahil/PROJECTS/Mol_Feturizer/New_Systems/rnas/3DIY

>  <Rbt.Executable>
rbdock ($Id: //depot/dev/client3/rdock/2013.1/src/exe/rbdock.cxx#4 $)

>  <Rbt.Library>
libRbt.so (2013.1, Build901 2013/11/27)

>  <Rbt.Parameter_File>
/export/apps/rDock/src/rDock_2013.1_src/data/scripts/dock_solv.prm

>  <Rbt.Receptor>
prm/pocket_docking_3.prm

>  <SCORE>
-8.10763

>  <SCORE.INTER>
-8.43287

>  <SCORE.INTER.CONST>
1

>  <SCORE.INTER.POLAR>
0

>  <SCORE.INTER.ROT>
5

>  <SCORE.INTER.SOLV>
12.952

>  <SCORE.INTER.VDW>
-16.8726

>  <SCORE.INTER.norm>
-0.843287

>  <SCORE.INTRA>
0.325244

>  <SCORE.INTRA.DIHEDRAL>
-0.430709

>  <SCORE.INTRA.DIHEDRAL.0>
2.56603

>  <SCORE.INTRA.POLAR>
0

>  <SCORE.INTRA.POLAR.0>
0

>  <SCORE.INTRA.REPUL>
0

>  <SCORE.INTRA.REPUL.0>
0

>  <SCORE.INTRA.SOLV>
0.809441

>  <SCORE.INTRA.SOLV.lig_0>
-32.0799

>  <SCORE.INTRA.VDW>
0.135878

>  <SCORE.INTRA.VDW.0>
-0.618248

>  <SCORE.INTRA.norm>
0.0325244

>  <SCORE.RESTR>
0

>  <SCORE.RESTR.CAVITY>
0

>  <SCORE.RESTR.norm>
0

>  <SCORE.SYSTEM>
0

>  <SCORE.SYSTEM.CONST>
0

>  <SCORE.SYSTEM.DIHEDRAL>
0

>  <SCORE.SYSTEM.SOLV>
0

>  <SCORE.SYSTEM.norm>
0

>  <SCORE.heavy>
10

>  <SCORE.norm>
-0.810763

>  <RMSD>
1.309

$$$$
ligand
 OpenBabel11021811473D
libRbt.so/2013.1/901 2013/11/27
 10  9  0  0  0  0  0  0  0  0999 V2000
   31.4259   16.4318   20.0406 N   0  0  0  0  0  0  0  0  0  0  0  0
   30.7164   16.8942   21.2718 C   0  0  2  0  0  0  0  0  0  0  0  0
   31.5565   17.8745   22.0984 C   0  0  0  0  0  0  0  0  0  0  0  0
   31.0646   18.8890   22.6150 O   0  0  0  0  0  0  0  0  0  0  0  0
   30.2610   15.7028   22.1188 C   0  0  0  0  0  0  0  0  0  0  0  0
   29.1949   14.8674   21.4472 C   0  0  0  0  0  0  0  0  0  0  0  0
   27.8852   15.6101   21.3401 C   0  0  0  0  0  0  0  0  0  0  0  0
   26.8697   14.8215   20.5203 C   0  0  0  0  0  0  0  0  0  0  0  0
   27.2510   14.6721   19.0901 N   0  0  0  0  0  0  0  0  0  0  0  0
   32.7549   17.6643   22.3092 O   0  0  0  0  0  0  0  0  0  0  0  0
  2  1  1  6  0  0  0
  2  3  1  0  0  0  0
  2  5  1  0  0  0  0
  3  4  1  0  0  0  0
  3 10  1  0  0  0  0
  5  6  1  0  0  0  0
  6  7  1  0  0  0  0
  7  8  1  0  0  0  0
  8  9  1  0  0  0  0
M  END
>  <CHROM.1>
137.98027688,-66.49130125,-68.67133064,173.42631954,-66.02852795,29.92487663
16.37123536,21.30702921,-0.63517216,-0.27715946,-2.23380057

>  <Name>
ligand

>  <RI>
0

>  <Rbt.Current_Directory>
/home/itssahil/PROJECTS/Mol_Feturizer/New_Systems/rnas/3DIY

>  <Rbt.Executable>
rbdock ($Id: //depot/dev/client3/rdock/2013.1/src/exe/rbdock.cxx#4 $)

>  <Rbt.Library>
libRbt.so (2013.1, Build901 2013/11/27)

>  <Rbt.Parameter_File>
/export/apps/rDock/src/rDock_2013.1_src/data/scripts/dock_solv.prm

>  <Rbt.Receptor>
prm/pocket_docking_8.prm

>  <SCORE>
-8.22876

>  <SCORE.INTER>
-8.33645

>  <SCORE.INTER.CONST>
1

>  <SCORE.INTER.POLAR>
0

>  <SCORE.INTER.ROT>
5

>  <SCORE.INTER.SOLV>
13.4363

>  <SCORE.INTER.VDW>
-16.9697

>  <SCORE.INTER.norm>
-0.833645

>  <SCORE.INTRA>
0.107685

>  <SCORE.INTRA.DIHEDRAL>
-0.274363

>  <SCORE.INTRA.DIHEDRAL.0>
2.56603

>  <SCORE.INTRA.POLAR>
0

>  <SCORE.INTRA.POLAR.0>
0

>  <SCORE.INTRA.REPUL>
0

>  <SCORE.INTRA.REPUL.0>
0

>  <SCORE.INTRA.SOLV>
0.590834

>  <SCORE.INTRA.SOLV.lig_0>
-32.0799

>  <SCORE.INTRA.VDW>
-0.0505501

>  <SCORE.INTRA.VDW.0>
-0.618248

>  <SCORE.INTRA.norm>
0.0107685

>  <SCORE.RESTR>
0

>  <SCORE.RESTR.CAVITY>
0

>  <SCORE.RESTR.norm>
0

>  <SCORE.SYSTEM>
0

>  <SCORE.SYSTEM.CONST>
0

>  <SCORE.SYSTEM.DIHEDRAL>
0

>  <SCORE.SYSTEM.SOLV>
0

>  <SCORE.SYSTEM.norm>
0

>  <SCORE.heavy>
10

>  <SCORE.norm>
-0.822876

>  <RMSD>
1.338

$$$$
ligand
 OpenBabel11021811473D
libRbt.so/2013.1/901 2013/11/27
 10  9  0  0  0  0  0  0  0  0999 V2000
   32.6475   16.7176   19.5569 N   0  0  0  0  0  0  0  0  0  0  0  0
   31.4602   16.7398   20.4640 C   0  0  2  0  0  0  0  0  0  0  0  0
   31.6567   17.6745   21.6630 C   0  0  0  0  0  0  0  0  0  0  0  0
   32.6966   17.6679   22.3387 O   0  0  0  0  0  0  0  0  0  0  0  0
   31.0943   15.3241   20.9183 C   0  0  0  0  0  0  0  0  0  0  0  0
   29.7470   15.2468   21.5995 C   0  0  0  0  0  0  0  0  0  0  0  0
   28.6118   15.3884   20.6147 C   0  0  0  0  0  0  0  0  0  0  0  0
   27.2680   15.1083   21.2786 C   0  0  0  0  0  0  0  0  0  0  0  0
   26.1188   15.1623   20.3354 N   0  0  0  0  0  0  0  0  0  0  0  0
   30.7916   18.4982   21.9757 O   0  0  0  0  0  0  0  0  0  0  0  0
  2  1  1  1  0  0  0
  2  3  1  0  0  0  0
  2  5  1  0  0  0  0
  3  4  1  0  0  0  0
  3 10  1  0  0  0  0
  5  6  1  0  0  0  0
  6  7  1  0  0  0  0
  7  8  1  0  0  0  0
  8  9  1  0  0  0  0
M  END
>  <CHROM.1>
-46.61299873,-168.16526812,73.17929792,171.78652284,-176.90190910,30.22278509
16.37964261,21.10103074,-0.39912820,-0.21294754,-2.43673162

>  <Name>
ligand

>  <RI>
0

>  <Rbt.Current_Directory>
/home/itssahil/PROJECTS/Mol_Feturizer/New_Systems/rnas/3DIY

>  <Rbt.Executable>
rbdock ($Id: //depot/dev/client3/rdock/2013.1/src/exe/rbdock.cxx#4 $)

>  <Rbt.Library>
libRbt.so (2013.1, Build901 2013/11/27)

>  <Rbt.Parameter_File>
/export/apps/rDock/src/rDock_2013.1_src/data/scripts/dock_solv.prm

>  <Rbt.Receptor>
prm/pocket_docking_4.prm

>  <SCORE>
-6.18739

>  <SCORE.INTER>
-5.56321

>  <SCORE.INTER.CONST>
1

>  <SCORE.INTER.POLAR>
0

>  <SCORE.INTER.ROT>
5

>  <SCORE.INTER.SOLV>
20.3655

>  <SCORE.INTER.VDW>
-17.4307

>  <SCORE.INTER.norm>
-0.556321

>  <SCORE.INTRA>
-0.624182

>  <SCORE.INTRA.DIHEDRAL>
0.527407

>  <SCORE.INTRA.DIHEDRAL.0>
2.56603

>  <SCORE.INTRA.POLAR>
0

>  <SCORE.INTRA.POLAR.0>
0

>  <SCORE.INTRA.REPUL>
0

>  <SCORE.INTRA.REPUL.0>
0

>  <SCORE.INTRA.SOLV>
-1.32094

>  <SCORE.INTRA.SOLV.lig_0>
-32.0799

>  <SCORE.INTRA.VDW>
-0.227416

>  <SCORE.INTRA.VDW.0>
-0.618248

>  <SCORE.INTRA.norm>
-0.0624182

>  <SCORE.RESTR>
0

>  <SCORE.RESTR.CAVITY>
0

>  <SCORE.RESTR.norm>
0

>  <SCORE.SYSTEM>
0

>  <SCORE.SYSTEM.CONST>
0

>  <SCORE.SYSTEM.DIHEDRAL>
0

>  <SCORE.SYSTEM.SOLV>
0

>  <SCORE.SYSTEM.norm>
0

>  <SCORE.heavy>
10

>  <SCORE.norm>
-0.618739

>  <RMSD>
1.369

$$$$
ligand
 OpenBabel11021811473D
libRbt.so/2013.1/901 2013/11/27
 10  9  0  0  0  0  0  0  0  0999 V2000
   32.0080   16.2053   20.2933 N   0  0  0  0  0  0  0  0  0  0  0  0
   31.1697   16.9304   21.2956 C   0  0  2  0  0  0  0  0  0  0  0  0
   31.9325   18.0682   21.9835 C   0  0  0  0  0  0  0  0  0  0  0  0
   33.1709   18.0847   22.0488 O   0  0  0  0  0  0  0  0  0  0  0  0
   30.5817   15.9572   22.3209 C   0  0  0  0  0  0  0  0  0  0  0  0
   29.5937   14.9836   21.7197 C   0  0  0  0  0  0  0  0  0  0  0  0
   28.3438   15.6791   21.2375 C   0  0  0  0  0  0  0  0  0  0  0  0
   27.3416   14.6802   20.6692 C   0  0  0  0  0  0  0  0  0  0  0  0
   26.0834   15.3121   20.1885 N   0  0  0  0  0  0  0  0  0  0  0  0
   31.3338   19.0334   22.4680 O   0  0  0  0  0  0  0  0  0  0  0  0
  2  1  1  6  0  0  0
  2  3  1  0  0  0  0
  2  5  1  0  0  0  0
  3  4  1  0  0  0  0
  3 10  1  0  0  0  0
  5  6  1  0  0  0  0
  6  7  1  0  0  0  0
  7  8  1  0  0  0  0
  8  9  1  0  0  0  0
M  END
>  <CHROM.1>
-23.03134337,-65.73724917,-66.87261069,-178.43325848,179.51975711,30.18221668
16.52575775,21.43910688,-0.56502285,0.01463669,-2.76356538

>  <Name>
ligand

>  <RI>
0

>  <Rbt.Current_Directory>
/home/itssahil/PROJECTS/Mol_Feturizer/New_Systems/rnas/3DIY

>  <Rbt.Executable>
rbdock ($Id: //depot/dev/client3/rdock/2013.1/src/exe/rbdock.cxx#4 $)

>  <Rbt.Library>
libRbt.so (2013.1, Build901 2013/11/27)

>  <Rbt.Parameter_File>
/export/apps/rDock/src/rDock_2013.1_src/data/scripts/dock_solv.prm

>  <Rbt.Receptor>
prm/blind_docking_100.prm

>  <SCORE>
-7.29647

>  <SCORE.INTER>
-6.86856

>  <SCORE.INTER.CONST>
1

>  <SCORE.INTER.POLAR>
0

>  <SCORE.INTER.ROT>
5

>  <SCORE.INTER.SOLV>
17.8075

>  <SCORE.INTER.VDW>
-17.4482

>  <SCORE.INTER.norm>
-0.686856

>  <SCORE.INTRA>
-0.427916

>  <SCORE.INTRA.DIHEDRAL>
-0.60363

>  <SCORE.INTRA.DIHEDRAL.0>
2.56603

>  <SCORE.INTRA.POLAR>
0

>  <SCORE.INTRA.POLAR.0>
0

>  <SCORE.INTRA.REPUL>
0

>  <SCORE.INTRA.REPUL.0>
0

>  <SCORE.INTRA.SOLV>
-0.264422

>  <SCORE.INTRA.SOLV.lig_0>
-32.0799

>  <SCORE.INTRA.VDW>
0.00610948

>  <SCORE.INTRA.VDW.0>
-0.618248

>  <SCORE.INTRA.norm>
-0.0427916

>  <SCORE.RESTR>
0

>  <SCORE.RESTR.CAVITY>
0

>  <SCORE.RESTR.norm>
0

>  <SCORE.SYSTEM>
0

>  <SCORE.SYSTEM.CONST>
0

>  <SCORE.SYSTEM.DIHEDRAL>
0

>  <SCORE.SYSTEM.SOLV>
0

>  <SCORE.SYSTEM.norm>
0

>  <SCORE.heavy>
10

>  <SCORE.norm>
-0.729647

>  <RMSD>
1.376

$$$$
ligand
 OpenBabel11021811473D
libRbt.so/2013.1/901 2013/11/27
 10  9  0  0  0  0  0  0  0  0999 V2000
   31.7690   16.3222   19.7672 N   0  0  0  0  0  0  0  0  0  0  0  0
   30.9309   17.2503   20.5852 C   0  0  2  0  0  0  0  0  0  0  0  0
   31.5797   17.5925   21.9313 C   0  0  0  0  0  0  0  0  0  0  0  0
   31.1378   18.4888   22.6656 O   0  0  0  0  0  0  0  0  0  0  0  0
   29.5205   16.6861   20.7766 C   0  0  0  0  0  0  0  0  0  0  0  0
   28.6803   16.7442   19.5212 C   0  0  0  0  0  0  0  0  0  0  0  0
   27.3576   16.0389   19.6986 C   0  0  0  0  0  0  0  0  0  0  0  0
   27.5385   14.5249   19.7184 C   0  0  0  0  0  0  0  0  0  0  0  0
   28.0687   13.9752   18.4417 N   0  0  0  0  0  0  0  0  0  0  0  0
   32.5517   16.9555   22.3489 O   0  0  0  0  0  0  0  0  0  0  0  0
  2  1  1  1  0  0  0
  2  3  1  0  0  0  0
  2  5  1  0  0  0  0
  3  4  1  0  0  0  0
  3 10  1  0  0  0  0
  5  6  1  0  0  0  0
  6  7  1  0  0  0  0
  7  8  1  0  0  0  0
  8  9  1  0  0  0  0
M  END
>  <CHROM.1>
169.50124035,-72.41771202,173.42278461,-73.27862038,-63.29534961,29.93639845
16.47171327,20.58063613,-0.76228452,0.08548339,-2.40936317

>  <Name>
ligand

>  <RI>
0

>  <Rbt.Current_Directory>
/home/itssahil/PROJECTS/Mol_Feturizer/New_Systems/rnas/3DIY

>  <Rbt.Executable>
rbdock ($Id: //depot/dev/client3/rdock/2013.1/src/exe/rbdock.cxx#4 $)

>  <Rbt.Library>
libRbt.so (2013.1, Build901 2013/11/27)

>  <Rbt.Parameter_File>
/export/apps/rDock/src/rDock_2013.1_src/data/scripts/dock_solv.prm

>  <Rbt.Receptor>
prm/pocket_docking_6.prm

>  <SCORE>
-5.46071

>  <SCORE.INTER>
-6.31907

>  <SCORE.INTER.CONST>
1

>  <SCORE.INTER.POLAR>
0

>  <SCORE.INTER.ROT>
5

>  <SCORE.INTER.SOLV>
14.637

>  <SCORE.INTER.VDW>
-16.0251

>  <SCORE.INTER.norm>
-0.631907

>  <SCORE.INTRA>
0.858364

>  <SCORE.INTRA.DIHEDRAL>
0.473296

>  <SCORE.INTRA.DIHEDRAL.0>
2.56603

>  <SCORE.INTRA.POLAR>
0

>  <SCORE.INTRA.POLAR.0>
0

>  <SCORE.INTRA.REPUL>
0

>  <SCORE.INTRA.REPUL.0>
0

>  <SCORE.INTRA.SOLV>
0.636272

>  <SCORE.INTRA.SOLV.lig_0>
-32.0799

>  <SCORE.INTRA.VDW>
0.30358

>  <SCORE.INTRA.VDW.0>
-0.618248

>  <SCORE.INTRA.norm>
0.0858364

>  <SCORE.RESTR>
0

>  <SCORE.RESTR.CAVITY>
0

>  <SCORE.RESTR.norm>
0

>  <SCORE.SYSTEM>
0

>  <SCORE.SYSTEM.CONST>
0

>  <SCORE.SYSTEM.DIHEDRAL>
0

>  <SCORE.SYSTEM.SOLV>
0

>  <SCORE.SYSTEM.norm>
0

>  <SCORE.heavy>
10

>  <SCORE.norm>
-0.546071

>  <RMSD>
1.388

$$$$
ligand
 OpenBabel11021811473D
libRbt.so/2013.1/901 2013/11/27
 10  9  0  0  0  0  0  0  0  0999 V2000
   30.4395   14.7601   21.3847 N   0  0  0  0  0  0  0  0  0  0  0  0
   30.9538   15.8444   20.4943 C   0  0  2  0  0  0  0  0  0  0  0  0
   32.3642   16.3020   20.8835 C   0  0  0  0  0  0  0  0  0  0  0  0
   33.3051   16.2928   20.0757 O   0  0  0  0  0  0  0  0  0  0  0  0
   29.9792   17.0245   20.4532 C   0  0  0  0  0  0  0  0  0  0  0  0
   28.6657   16.6892   19.7843 C   0  0  0  0  0  0  0  0  0  0  0  0
   27.8591   15.7040   20.5949 C   0  0  0  0  0  0  0  0  0  0  0  0
   26.6403   15.2180   19.8179 C   0  0  0  0  0  0  0  0  0  0  0  0
   26.9846   14.3598   18.6525 N   0  0  0  0  0  0  0  0  0  0  0  0
   32.6030   16.7333   22.0157 O   0  0  0  0  0  0  0  0  0  0  0  0
  2  1  1  1  0  0  0
  2  3  1  0  0  0  0
  2  5  1  0  0  0  0
  3  4  1  0  0  0  0
  3 10  1  0  0  0  0
  5  6  1  0  0  0  0
  6  7  1  0  0  0  0
  7  8  1  0  0  0  0
  8  9  1  0  0  0  0
M  END
>  <CHROM.1>
124.28163843,-66.92057214,67.70744721,-171.58954084,68.62619095,30.02194286
15.90503349,20.42615995,-0.32432629,0.07316187,-2.47823221

>  <Name>
ligand

>  <RI>
0

>  <Rbt.Current_Directory>
/home/itssahil/PROJECTS/Mol_Feturizer/New_Systems/rnas/3DIY

>  <Rbt.Executable>
rbdock ($Id: //depot/dev/client3/rdock/2013.1/src/exe/rbdock.cxx#4 $)

>  <Rbt.Library>
libRbt.so (2013.1, Build901 2013/11/27)

>  <Rbt.Parameter_File>
/export/apps/rDock/src/rDock_2013.1_src/data/scripts/dock_solv.prm

>  <Rbt.Receptor>
prm/pocket_docking_2.prm

>  <SCORE>
-6.28217

>  <SCORE.INTER>
-7.49928

>  <SCORE.INTER.CONST>
1

>  <SCORE.INTER.POLAR>
0

>  <SCORE.INTER.ROT>
5

>  <SCORE.INTER.SOLV>
16.0733

>  <SCORE.INTER.VDW>
-17.2906

>  <SCORE.INTER.norm>
-0.749928

>  <SCORE.INTRA>
1.21711

>  <SCORE.INTRA.DIHEDRAL>
-0.0165996

>  <SCORE.INTRA.DIHEDRAL.0>
2.56603

>  <SCORE.INTRA.POLAR>
0

>  <SCORE.INTRA.POLAR.0>
0

>  <SCORE.INTRA.REPUL>
0

>  <SCORE.INTRA.REPUL.0>
0

>  <SCORE.INTRA.SOLV>
1.69557

>  <SCORE.INTRA.SOLV.lig_0>
-32.0799

>  <SCORE.INTRA.VDW>
0.377623

>  <SCORE.INTRA.VDW.0>
-0.618248

>  <SCORE.INTRA.norm>
0.121711

>  <SCORE.RESTR>
0

>  <SCORE.RESTR.CAVITY>
0

>  <SCORE.RESTR.norm>
0

>  <SCORE.SYSTEM>
0

>  <SCORE.SYSTEM.CONST>
0

>  <SCORE.SYSTEM.DIHEDRAL>
0

>  <SCORE.SYSTEM.SOLV>
0

>  <SCORE.SYSTEM.norm>
0

>  <SCORE.heavy>
10

>  <SCORE.norm>
-0.628217

>  <RMSD>
1.412

$$$$
ligand
 OpenBabel11021811473D
libRbt.so/2013.1/901 2013/11/27
 10  9  0  0  0  0  0  0  0  0999 V2000
   31.3939   15.9204   22.3908 N   0  0  0  0  0  0  0  0  0  0  0  0
   31.6148   15.9349   20.9129 C   0  0  2  0  0  0  0  0  0  0  0  0
   32.9326   16.6151   20.5245 C   0  0  0  0  0  0  0  0  0  0  0  0
   33.3283   17.6496   21.0824 O   0  0  0  0  0  0  0  0  0  0  0  0
   30.4263   16.5745   20.1901 C   0  0  0  0  0  0  0  0  0  0  0  0
   29.1544   15.7653   20.3038 C   0  0  0  0  0  0  0  0  0  0  0  0
   28.0283   16.3755   19.5050 C   0  0  0  0  0  0  0  0  0  0  0  0
   26.7642   15.5277   19.5978 C   0  0  0  0  0  0  0  0  0  0  0  0
   26.9251   14.1610   19.0327 N   0  0  0  0  0  0  0  0  0  0  0  0
   33.6681   16.1294   19.6596 O   0  0  0  0  0  0  0  0  0  0  0  0
  2  1  1  1  0  0  0
  2  3  1  0  0  0  0
  2  5  1  0  0  0  0
  3  4  1  0  0  0  0
  3 10  1  0  0  0  0
  5  6  1  0  0  0  0
  6  7  1  0  0  0  0
  7  8  1  0  0  0  0
  8  9  1  0  0  0  0
M  END
>  <CHROM.1>
-40.89991210,-66.36611705,-176.19579365,178.40211463,-62.50496443,30.46557445
16.08176146,20.31411541,0.25713324,0.19798152,1.35953084

>  <Name>
ligand

>  <RI>
0

>  <Rbt.Current_Directory>
/home/itssahil/PROJECTS/Mol_Feturizer/New_Systems/rnas/3DIY

>  <Rbt.Executable>
rbdock ($Id: //depot/dev/client3/rdock/2013.1/src/exe/rbdock.cxx#4 $)

>  <Rbt.Library>
libRbt.so (2013.1, Build901 2013/11/27)

>  <Rbt.Parameter_File>
/export/apps/rDock/src/rDock_2013.1_src/data/scripts/dock_solv.prm

>  <Rbt.Receptor>
prm/pocket_docking_6.prm

>  <SCORE>
-6.69322

>  <SCORE.INTER>
-6.2256

>  <SCORE.INTER.CONST>
1

>  <SCORE.INTER.POLAR>
0

>  <SCORE.INTER.ROT>
5

>  <SCORE.INTER.SOLV>
16.9957

>  <SCORE.INTER.VDW>
-16.749

>  <SCORE.INTER.norm>
-0.62256

>  <SCORE.INTRA>
-0.46762

>  <SCORE.INTRA.DIHEDRAL>
-0.698306

>  <SCORE.INTRA.DIHEDRAL.0>
2.56603

>  <SCORE.INTRA.POLAR>
0

>  <SCORE.INTRA.POLAR.0>
0

>  <SCORE.INTRA.REPUL>
0

>  <SCORE.INTRA.REPUL.0>
0

>  <SCORE.INTRA.SOLV>
0.148328

>  <SCORE.INTRA.SOLV.lig_0>
-32.0799

>  <SCORE.INTRA.VDW>
-0.192631

>  <SCORE.INTRA.VDW.0>
-0.618248

>  <SCORE.INTRA.norm>
-0.046762

>  <SCORE.RESTR>
0

>  <SCORE.RESTR.CAVITY>
0

>  <SCORE.RESTR.norm>
0

>  <SCORE.SYSTEM>
0

>  <SCORE.SYSTEM.CONST>
0

>  <SCORE.SYSTEM.DIHEDRAL>
0

>  <SCORE.SYSTEM.SOLV>
0

>  <SCORE.SYSTEM.norm>
0

>  <SCORE.heavy>
10

>  <SCORE.norm>
-0.669322

>  <RMSD>
1.543

$$$$
ligand
 OpenBabel11021811473D
libRbt.so/2013.1/901 2013/11/27
 10  9  0  0  0  0  0  0  0  0999 V2000
   33.4762   16.9213   20.6715 N   0  0  0  0  0  0  0  0  0  0  0  0
   32.0557   17.2711   20.9764 C   0  0  2  0  0  0  0  0  0  0  0  0
   31.9389   18.4137   21.9916 C   0  0  0  0  0  0  0  0  0  0  0  0
   30.9258   19.1248   22.0680 O   0  0  0  0  0  0  0  0  0  0  0  0
   31.2771   16.0364   21.4386 C   0  0  0  0  0  0  0  0  0  0  0  0
   29.7781   16.2080   21.3450 C   0  0  0  0  0  0  0  0  0  0  0  0
   29.0428   14.9680   21.7926 C   0  0  0  0  0  0  0  0  0  0  0  0
   27.5583   15.0554   21.4547 C   0  0  0  0  0  0  0  0  0  0  0  0
   27.2859   15.1099   19.9931 N   0  0  0  0  0  0  0  0  0  0  0  0
   32.8448   18.6419   22.7991 O   0  0  0  0  0  0  0  0  0  0  0  0
  2  1  1  1  0  0  0
  2  3  1  0  0  0  0
  2  5  1  0  0  0  0
  3  4  1  0  0  0  0
  3 10  1  0  0  0  0
  5  6  1  0  0  0  0
  6  7  1  0  0  0  0
  7  8  1  0  0  0  0
  8  9  1  0  0  0  0
M  END
>  <CHROM.1>
156.91902256,-161.87123897,179.33154476,-169.52376878,63.91906958,30.62470787
16.80724501,21.47651114,-0.60103327,-0.13096443,-2.66430935

>  <Name>
ligand

>  <RI>
0

>  <Rbt.Current_Directory>
/home/itssahil/PROJECTS/Mol_Feturizer/New_Systems/rnas/3DIY

>  <Rbt.Executable>
rbdock ($Id: //depot/dev/client3/rdock/2013.1/src/exe/rbdock.cxx#4 $)

>  <Rbt.Library>
libRbt.so (2013.1, Build901 2013/11/27)

>  <Rbt.Parameter_File>
/export/apps/rDock/src/rDock_2013.1_src/data/scripts/dock_solv.prm

>  <Rbt.Receptor>
prm/blind_docking_100.prm

>  <SCORE>
-8.00005

>  <SCORE.INTER>
-7.75419

>  <SCORE.INTER.CONST>
1

>  <SCORE.INTER.POLAR>
0

>  <SCORE.INTER.ROT>
5

>  <SCORE.INTER.SOLV>
14.5267

>  <SCORE.INTER.VDW>
-16.945

>  <SCORE.INTER.norm>
-0.775419

>  <SCORE.INTRA>
-0.24586

>  <SCORE.INTRA.DIHEDRAL>
0.552949

>  <SCORE.INTRA.DIHEDRAL.0>
2.56603

>  <SCORE.INTRA.POLAR>
0

>  <SCORE.INTRA.POLAR.0>
0

>  <SCORE.INTRA.REPUL>
0

>  <SCORE.INTRA.REPUL.0>
0

>  <SCORE.INTRA.SOLV>
-0.617399

>  <SCORE.INTRA.SOLV.lig_0>
-32.0799

>  <SCORE.INTRA.VDW>
-0.213635

>  <SCORE.INTRA.VDW.0>
-0.618248

>  <SCORE.INTRA.norm>
-0.024586

>  <SCORE.RESTR>
0

>  <SCORE.RESTR.CAVITY>
0

>  <SCORE.RESTR.norm>
0

>  <SCORE.SYSTEM>
0

>  <SCORE.SYSTEM.CONST>
0

>  <SCORE.SYSTEM.DIHEDRAL>
0

>  <SCORE.SYSTEM.SOLV>
0

>  <SCORE.SYSTEM.norm>
0

>  <SCORE.heavy>
10

>  <SCORE.norm>
-0.800005

>  <RMSD>
1.594

$$$$
ligand
 OpenBabel11021811473D
libRbt.so/2013.1/901 2013/11/27
 10  9  0  0  0  0  0  0  0  0999 V2000
   33.5135   16.9000   20.6873 N   0  0  0  0  0  0  0  0  0  0  0  0
   32.0828   17.2327   20.9623 C   0  0  2  0  0  0  0  0  0  0  0  0
   31.9310   18.3714   21.9773 C   0  0  0  0  0  0  0  0  0  0  0  0
   30.9080   19.0700   22.0342 O   0  0  0  0  0  0  0  0  0  0  0  0
   31.3088   15.9880   21.4049 C   0  0  0  0  0  0  0  0  0  0  0  0
   29.8089   16.1699   21.3539 C   0  0  0  0  0  0  0  0  0  0  0  0
   29.0776   14.9142   21.7621 C   0  0  0  0  0  0  0  0  0  0  0  0
   27.5887   15.0169   21.4491 C   0  0  0  0  0  0  0  0  0  0  0  0
   27.2954   15.1241   19.9945 N   0  0  0  0  0  0  0  0  0  0  0  0
   32.8172   18.6087   22.8040 O   0  0  0  0  0  0  0  0  0  0  0  0
  2  1  1  1  0  0  0
  2  3  1  0  0  0  0
  2  5  1  0  0  0  0
  3  4  1  0  0  0  0
  3 10  1  0  0  0  0
  5  6  1  0  0  0  0
  6  7  1  0  0  0  0
  7  8  1  0  0  0  0
  8  9  1  0  0  0  0
M  END
>  <CHROM.1>
156.97672105,-165.14359167,178.53313999,-168.90650238,64.17048890,30.63871079
16.77166794,21.46635387,-0.60033576,-0.12070114,-2.67866395

>  <Name>
ligand

>  <RI>
0

>  <Rbt.Current_Directory>
/home/itssahil/PROJECTS/Mol_Feturizer/New_Systems/rnas/3DIY

>  <Rbt.Executable>
rbdock ($Id: //depot/dev/client3/rdock/2013.1/src/exe/rbdock.cxx#4 $)

>  <Rbt.Library>
libRbt.so (2013.1, Build901 2013/11/27)

>  <Rbt.Parameter_File>
/export/apps/rDock/src/rDock_2013.1_src/data/scripts/dock_solv.prm

>  <Rbt.Receptor>
prm/pocket_docking_7.prm

>  <SCORE>
-7.95656

>  <SCORE.INTER>
-7.60751

>  <SCORE.INTER.CONST>
1

>  <SCORE.INTER.POLAR>
0

>  <SCORE.INTER.ROT>
5

>  <SCORE.INTER.SOLV>
14.6224

>  <SCORE.INTER.VDW>
-16.8791

>  <SCORE.INTER.norm>
-0.760751

>  <SCORE.INTRA>
-0.349058

>  <SCORE.INTRA.DIHEDRAL>
0.257437

>  <SCORE.INTRA.DIHEDRAL.0>
2.56603

>  <SCORE.INTRA.POLAR>
0

>  <SCORE.INTRA.POLAR.0>
0

>  <SCORE.INTRA.REPUL>
0

>  <SCORE.INTRA.REPUL.0>
0

>  <SCORE.INTRA.SOLV>
-0.62341

>  <SCORE.INTRA.SOLV.lig_0>
-32.0799

>  <SCORE.INTRA.VDW>
-0.166071

>  <SCORE.INTRA.VDW.0>
-0.618248

>  <SCORE.INTRA.norm>
-0.0349058

>  <SCORE.RESTR>
0

>  <SCORE.RESTR.CAVITY>
0

>  <SCORE.RESTR.norm>
0

>  <SCORE.SYSTEM>
0

>  <SCORE.SYSTEM.CONST>
0

>  <SCORE.SYSTEM.DIHEDRAL>
0

>  <SCORE.SYSTEM.SOLV>
0

>  <SCORE.SYSTEM.norm>
0

>  <SCORE.heavy>
10

>  <SCORE.norm>
-0.795656

>  <RMSD>
1.595

$$$$
ligand
 OpenBabel11021811473D
libRbt.so/2013.1/901 2013/11/27
 10  9  0  0  0  0  0  0  0  0999 V2000
   33.1083   16.7544   20.4354 N   0  0  0  0  0  0  0  0  0  0  0  0
   31.7853   17.0651   21.0567 C   0  0  2  0  0  0  0  0  0  0  0  0
   31.8314   18.3202   21.9356 C   0  0  0  0  0  0  0  0  0  0  0  0
   32.8342   18.6214   22.6002 O   0  0  0  0  0  0  0  0  0  0  0  0
   31.2529   15.8604   21.8374 C   0  0  0  0  0  0  0  0  0  0  0  0
   29.8014   16.0026   22.2353 C   0  0  0  0  0  0  0  0  0  0  0  0
   28.8795   15.3455   21.2370 C   0  0  0  0  0  0  0  0  0  0  0  0
   28.7575   16.1802   19.9667 C   0  0  0  0  0  0  0  0  0  0  0  0
   27.9105   15.5465   18.9207 N   0  0  0  0  0  0  0  0  0  0  0  0
   30.8746   19.0994   21.9823 O   0  0  0  0  0  0  0  0  0  0  0  0
  2  1  1  1  0  0  0
  2  3  1  0  0  0  0
  2  5  1  0  0  0  0
  3  4  1  0  0  0  0
  3 10  1  0  0  0  0
  5  6  1  0  0  0  0
  6  7  1  0  0  0  0
  7  8  1  0  0  0  0
  8  9  1  0  0  0  0
M  END
>  <CHROM.1>
-34.55712318,-167.58455836,94.79606206,-74.91847411,177.24050851,30.71197309
16.91323761,21.24202767,-0.69968663,0.02523733,-2.53790302

>  <Name>
ligand

>  <RI>
0

>  <Rbt.Current_Directory>
/home/itssahil/PROJECTS/Mol_Feturizer/New_Systems/rnas/3DIY

>  <Rbt.Executable>
rbdock ($Id: //depot/dev/client3/rdock/2013.1/src/exe/rbdock.cxx#4 $)

>  <Rbt.Library>
libRbt.so (2013.1, Build901 2013/11/27)

>  <Rbt.Parameter_File>
/export/apps/rDock/src/rDock_2013.1_src/data/scripts/dock_solv.prm

>  <Rbt.Receptor>
prm/blind_docking_60.prm

>  <SCORE>
-4.65795

>  <SCORE.INTER>
-6.34412

>  <SCORE.INTER.CONST>
1

>  <SCORE.INTER.POLAR>
0

>  <SCORE.INTER.ROT>
5

>  <SCORE.INTER.SOLV>
12.4098

>  <SCORE.INTER.VDW>
-15.2993

>  <SCORE.INTER.norm>
-0.634412

>  <SCORE.INTRA>
1.68618

>  <SCORE.INTRA.DIHEDRAL>
4.32634

>  <SCORE.INTRA.DIHEDRAL.0>
2.56603

>  <SCORE.INTRA.POLAR>
0

>  <SCORE.INTRA.POLAR.0>
0

>  <SCORE.INTRA.REPUL>
0

>  <SCORE.INTRA.REPUL.0>
0

>  <SCORE.INTRA.SOLV>
-0.96738

>  <SCORE.INTRA.SOLV.lig_0>
-32.0799

>  <SCORE.INTRA.VDW>
0.00669768

>  <SCORE.INTRA.VDW.0>
-0.618248

>  <SCORE.INTRA.norm>
0.168618

>  <SCORE.RESTR>
0

>  <SCORE.RESTR.CAVITY>
0

>  <SCORE.RESTR.norm>
0

>  <SCORE.SYSTEM>
0

>  <SCORE.SYSTEM.CONST>
0

>  <SCORE.SYSTEM.DIHEDRAL>
0

>  <SCORE.SYSTEM.SOLV>
0

>  <SCORE.SYSTEM.norm>
0

>  <SCORE.heavy>
10

>  <SCORE.norm>
-0.465795

>  <RMSD>
1.659

$$$$
ligand
 OpenBabel11021811473D
libRbt.so/2013.1/901 2013/11/27
 10  9  0  0  0  0  0  0  0  0999 V2000
   33.5303   16.8945   20.9318 N   0  0  0  0  0  0  0  0  0  0  0  0
   32.0943   17.2587   21.1271 C   0  0  2  0  0  0  0  0  0  0  0  0
   31.9173   18.4642   22.0575 C   0  0  0  0  0  0  0  0  0  0  0  0
   32.7943   18.8065   22.8646 O   0  0  0  0  0  0  0  0  0  0  0  0
   31.2883   16.0541   21.6204 C   0  0  0  0  0  0  0  0  0  0  0  0
   29.7999   16.2035   21.4021 C   0  0  0  0  0  0  0  0  0  0  0  0
   29.0441   14.9677   21.8266 C   0  0  0  0  0  0  0  0  0  0  0  0
   27.5813   15.0434   21.4025 C   0  0  0  0  0  0  0  0  0  0  0  0
   27.3955   15.1246   19.9287 N   0  0  0  0  0  0  0  0  0  0  0  0
   30.8999   19.1623   22.0072 O   0  0  0  0  0  0  0  0  0  0  0  0
  2  1  1  1  0  0  0
  2  3  1  0  0  0  0
  2  5  1  0  0  0  0
  3  4  1  0  0  0  0
  3 10  1  0  0  0  0
  5  6  1  0  0  0  0
  6  7  1  0  0  0  0
  7  8  1  0  0  0  0
  8  9  1  0  0  0  0
M  END
>  <CHROM.1>
-21.30864748,-160.79420706,176.74261122,-171.10645673,61.76809907,30.63971488
16.83221528,21.53790117,-0.63297304,-0.05211428,-2.75025706

>  <Name>
ligand

>  <RI>
0

>  <Rbt.Current_Directory>
/home/itssahil/PROJECTS/Mol_Feturizer/New_Systems/rnas/3DIY

>  <Rbt.Executable>
rbdock ($Id: //depot/dev/client3/rdock/2013.1/src/exe/rbdock.cxx#4 $)

>  <Rbt.Library>
libRbt.so (2013.1, Build901 2013/11/27)

>  <Rbt.Parameter_File>
/export/apps/rDock/src/rDock_2013.1_src/data/scripts/dock_solv.prm

>  <Rbt.Receptor>
prm/pocket_docking_4.prm

>  <SCORE>
-7.88408

>  <SCORE.INTER>
-7.73664

>  <SCORE.INTER.CONST>
1

>  <SCORE.INTER.POLAR>
0

>  <SCORE.INTER.ROT>
5

>  <SCORE.INTER.SOLV>
14.3108

>  <SCORE.INTER.VDW>
-16.8614

>  <SCORE.INTER.norm>
-0.773664

>  <SCORE.INTRA>
-0.147441

>  <SCORE.INTRA.DIHEDRAL>
0.69813

>  <SCORE.INTRA.DIHEDRAL.0>
2.56603

>  <SCORE.INTRA.POLAR>
0

>  <SCORE.INTRA.POLAR.0>
0

>  <SCORE.INTRA.REPUL>
0

>  <SCORE.INTRA.REPUL.0>
0

>  <SCORE.INTRA.SOLV>
-0.593507

>  <SCORE.INTRA.SOLV.lig_0>
-32.0799

>  <SCORE.INTRA.VDW>
-0.199752

>  <SCORE.INTRA.VDW.0>
-0.618248

>  <SCORE.INTRA.norm>
-0.0147441

>  <SCORE.RESTR>
0

>  <SCORE.RESTR.CAVITY>
0

>  <SCORE.RESTR.norm>
0

>  <SCORE.SYSTEM>
0

>  <SCORE.SYSTEM.CONST>
0

>  <SCORE.SYSTEM.DIHEDRAL>
0

>  <SCORE.SYSTEM.SOLV>
0

>  <SCORE.SYSTEM.norm>
0

>  <SCORE.heavy>
10

>  <SCORE.norm>
-0.788408

>  <RMSD>
1.673

$$$$
ligand
 OpenBabel11021811473D
libRbt.so/2013.1/901 2013/11/27
 10  9  0  0  0  0  0  0  0  0999 V2000
   31.4174   17.6558   22.3956 N   0  0  0  0  0  0  0  0  0  0  0  0
   31.8409   16.5116   21.5328 C   0  0  2  0  0  0  0  0  0  0  0  0
   33.1146   16.8185   20.7369 C   0  0  0  0  0  0  0  0  0  0  0  0
   33.7688   17.8566   20.9172 O   0  0  0  0  0  0  0  0  0  0  0  0
   30.7011   16.0742   20.6087 C   0  0  0  0  0  0  0  0  0  0  0  0
   29.4595   15.6448   21.3566 C   0  0  0  0  0  0  0  0  0  0  0  0
   28.2937   15.4190   20.4248 C   0  0  0  0  0  0  0  0  0  0  0  0
   27.0438   15.0076   21.1953 C   0  0  0  0  0  0  0  0  0  0  0  0
   25.8191   14.9543   20.3523 N   0  0  0  0  0  0  0  0  0  0  0  0
   33.5550   16.0166   19.9076 O   0  0  0  0  0  0  0  0  0  0  0  0
  2  1  1  6  0  0  0
  2  3  1  0  0  0  0
  2  5  1  0  0  0  0
  3  4  1  0  0  0  0
  3 10  1  0  0  0  0
  5  6  1  0  0  0  0
  6  7  1  0  0  0  0
  7  8  1  0  0  0  0
  8  9  1  0  0  0  0
M  END
>  <CHROM.1>
6.82095509,-59.08472731,171.46637687,-179.11791068,172.02937030,30.54339381
16.20541311,20.92656421,0.19978351,0.22484360,0.89416435

>  <Name>
ligand

>  <RI>
0

>  <Rbt.Current_Directory>
/home/itssahil/PROJECTS/Mol_Feturizer/New_Systems/rnas/3DIY

>  <Rbt.Executable>
rbdock ($Id: //depot/dev/client3/rdock/2013.1/src/exe/rbdock.cxx#4 $)

>  <Rbt.Library>
libRbt.so (2013.1, Build901 2013/11/27)

>  <Rbt.Parameter_File>
/export/apps/rDock/src/rDock_2013.1_src/data/scripts/dock_solv.prm

>  <Rbt.Receptor>
prm/pocket_docking_2.prm

>  <SCORE>
-6.96743

>  <SCORE.INTER>
-6.469

>  <SCORE.INTER.CONST>
1

>  <SCORE.INTER.POLAR>
0

>  <SCORE.INTER.ROT>
5

>  <SCORE.INTER.SOLV>
17.8509

>  <SCORE.INTER.VDW>
-17.1963

>  <SCORE.INTER.norm>
-0.6469

>  <SCORE.INTRA>
-0.498431

>  <SCORE.INTRA.DIHEDRAL>
-0.503479

>  <SCORE.INTRA.DIHEDRAL.0>
2.56603

>  <SCORE.INTRA.POLAR>
0

>  <SCORE.INTRA.POLAR.0>
0

>  <SCORE.INTRA.REPUL>
0

>  <SCORE.INTRA.REPUL.0>
0

>  <SCORE.INTRA.SOLV>
-0.605596

>  <SCORE.INTRA.SOLV.lig_0>
-32.0799

>  <SCORE.INTRA.VDW>
0.0561069

>  <SCORE.INTRA.VDW.0>
-0.618248

>  <SCORE.INTRA.norm>
-0.0498431

>  <SCORE.RESTR>
0

>  <SCORE.RESTR.CAVITY>
0

>  <SCORE.RESTR.norm>
0

>  <SCORE.SYSTEM>
0

>  <SCORE.SYSTEM.CONST>
0

>  <SCORE.SYSTEM.DIHEDRAL>
0

>  <SCORE.SYSTEM.SOLV>
0

>  <SCORE.SYSTEM.norm>
0

>  <SCORE.heavy>
10

>  <SCORE.norm>
-0.696743

>  <RMSD>
1.698

$$$$
ligand
 OpenBabel11021811473D
libRbt.so/2013.1/901 2013/11/27
 10  9  0  0  0  0  0  0  0  0999 V2000
   30.5053   15.5998   22.3018 N   0  0  0  0  0  0  0  0  0  0  0  0
   30.9477   16.0515   20.9479 C   0  0  2  0  0  0  0  0  0  0  0  0
   32.3742   16.6128   20.9551 C   0  0  0  0  0  0  0  0  0  0  0  0
   32.9893   16.8326   22.0093 O   0  0  0  0  0  0  0  0  0  0  0  0
   29.9577   17.0599   20.3588 C   0  0  0  0  0  0  0  0  0  0  0  0
   28.5727   16.4878   20.1591 C   0  0  0  0  0  0  0  0  0  0  0  0
   28.5589   15.4076   19.1048 C   0  0  0  0  0  0  0  0  0  0  0  0
   27.1677   14.8015   18.9548 C   0  0  0  0  0  0  0  0  0  0  0  0
   27.0972   13.7276   17.9278 N   0  0  0  0  0  0  0  0  0  0  0  0
   32.9766   16.8323   19.8997 O   0  0  0  0  0  0  0  0  0  0  0  0
  2  1  1  1  0  0  0
  2  3  1  0  0  0  0
  2  5  1  0  0  0  0
  3  4  1  0  0  0  0
  3 10  1  0  0  0  0
  5  6  1  0  0  0  0
  6  7  1  0  0  0  0
  7  8  1  0  0  0  0
  8  9  1  0  0  0  0
M  END
>  <CHROM.1>
-9.64974730,-61.76186310,-66.29983038,177.69645458,-179.90924289,30.15704952
15.95622997,20.26651702,0.48804737,0.31318344,1.42831888

>  <Name>
ligand

>  <RI>
0

>  <Rbt.Current_Directory>
/home/itssahil/PROJECTS/Mol_Feturizer/New_Systems/rnas/3DIY

>  <Rbt.Executable>
rbdock ($Id: //depot/dev/client3/rdock/2013.1/src/exe/rbdock.cxx#4 $)

>  <Rbt.Library>
libRbt.so (2013.1, Build901 2013/11/27)

>  <Rbt.Parameter_File>
/export/apps/rDock/src/rDock_2013.1_src/data/scripts/dock_solv.prm

>  <Rbt.Receptor>
prm/pocket_docking_2.prm

>  <SCORE>
-5.90097

>  <SCORE.INTER>
-5.55669

>  <SCORE.INTER.CONST>
1

>  <SCORE.INTER.POLAR>
0

>  <SCORE.INTER.ROT>
5

>  <SCORE.INTER.SOLV>
16.7451

>  <SCORE.INTER.VDW>
-16.2195

>  <SCORE.INTER.norm>
-0.555669

>  <SCORE.INTRA>
-0.344278

>  <SCORE.INTRA.DIHEDRAL>
-0.779299

>  <SCORE.INTRA.DIHEDRAL.0>
2.56603

>  <SCORE.INTRA.POLAR>
0

>  <SCORE.INTRA.POLAR.0>
0

>  <SCORE.INTRA.REPUL>
0

>  <SCORE.INTRA.REPUL.0>
0

>  <SCORE.INTRA.SOLV>
-0.176362

>  <SCORE.INTRA.SOLV.lig_0>
-32.0799

>  <SCORE.INTRA.VDW>
0.133552

>  <SCORE.INTRA.VDW.0>
-0.618248

>  <SCORE.INTRA.norm>
-0.0344278

>  <SCORE.RESTR>
0

>  <SCORE.RESTR.CAVITY>
0

>  <SCORE.RESTR.norm>
0

>  <SCORE.SYSTEM>
0

>  <SCORE.SYSTEM.CONST>
0

>  <SCORE.SYSTEM.DIHEDRAL>
0

>  <SCORE.SYSTEM.SOLV>
0

>  <SCORE.SYSTEM.norm>
0

>  <SCORE.heavy>
10

>  <SCORE.norm>
-0.590097

>  <RMSD>
1.705

$$$$
ligand
 OpenBabel11021811473D
libRbt.so/2013.1/901 2013/11/27
 10  9  0  0  0  0  0  0  0  0999 V2000
   33.7023   16.9992   21.0422 N   0  0  0  0  0  0  0  0  0  0  0  0
   32.2452   17.3062   21.1680 C   0  0  2  0  0  0  0  0  0  0  0  0
   31.9767   18.5081   22.0808 C   0  0  0  0  0  0  0  0  0  0  0  0
   30.9128   19.1437   22.0357 O   0  0  0  0  0  0  0  0  0  0  0  0
   31.4660   16.0724   21.6317 C   0  0  0  0  0  0  0  0  0  0  0  0
   29.9737   16.1983   21.4255 C   0  0  0  0  0  0  0  0  0  0  0  0
   29.2405   14.9528   21.8608 C   0  0  0  0  0  0  0  0  0  0  0  0
   27.7597   15.0324   21.5056 C   0  0  0  0  0  0  0  0  0  0  0  0
   27.5046   15.0984   20.0414 N   0  0  0  0  0  0  0  0  0  0  0  0
   32.8053   18.8635   22.9246 O   0  0  0  0  0  0  0  0  0  0  0  0
  2  1  1  1  0  0  0
  2  3  1  0  0  0  0
  2  5  1  0  0  0  0
  3  4  1  0  0  0  0
  3 10  1  0  0  0  0
  5  6  1  0  0  0  0
  6  7  1  0  0  0  0
  7  8  1  0  0  0  0
  8  9  1  0  0  0  0
M  END
>  <CHROM.1>
159.97837683,-164.55021400,178.57765312,-173.70865457,63.54340316,30.76148036
16.85119137,21.59292937,-0.64293164,-0.05149098,-2.76792636

>  <Name>
ligand

>  <RI>
0

>  <Rbt.Current_Directory>
/home/itssahil/PROJECTS/Mol_Feturizer/New_Systems/rnas/3DIY

>  <Rbt.Executable>
rbdock ($Id: //depot/dev/client3/rdock/2013.1/src/exe/rbdock.cxx#4 $)

>  <Rbt.Library>
libRbt.so (2013.1, Build901 2013/11/27)

>  <Rbt.Parameter_File>
/export/apps/rDock/src/rDock_2013.1_src/data/scripts/dock_solv.prm

>  <Rbt.Receptor>
prm/pocket_docking_6.prm

>  <SCORE>
-7.88109

>  <SCORE.INTER>
-7.40279

>  <SCORE.INTER.CONST>
1

>  <SCORE.INTER.POLAR>
0

>  <SCORE.INTER.ROT>
5

>  <SCORE.INTER.SOLV>
14.3109

>  <SCORE.INTER.VDW>
-16.6388

>  <SCORE.INTER.norm>
-0.740279

>  <SCORE.INTRA>
-0.478298

>  <SCORE.INTRA.DIHEDRAL>
-0.0329749

>  <SCORE.INTRA.DIHEDRAL.0>
2.56603

>  <SCORE.INTRA.POLAR>
0

>  <SCORE.INTRA.POLAR.0>
0

>  <SCORE.INTRA.REPUL>
0

>  <SCORE.INTRA.REPUL.0>
0

>  <SCORE.INTRA.SOLV>
-0.643696

>  <SCORE.INTRA.SOLV.lig_0>
-32.0799

>  <SCORE.INTRA.VDW>
-0.139963

>  <SCORE.INTRA.VDW.0>
-0.618248

>  <SCORE.INTRA.norm>
-0.0478298

>  <SCORE.RESTR>
0

>  <SCORE.RESTR.CAVITY>
0

>  <SCORE.RESTR.norm>
0

>  <SCORE.SYSTEM>
0

>  <SCORE.SYSTEM.CONST>
0

>  <SCORE.SYSTEM.DIHEDRAL>
0

>  <SCORE.SYSTEM.SOLV>
0

>  <SCORE.SYSTEM.norm>
0

>  <SCORE.heavy>
10

>  <SCORE.norm>
-0.788109

>  <RMSD>
1.766

$$$$
ligand
 OpenBabel11021811473D
libRbt.so/2013.1/901 2013/11/27
 10  9  0  0  0  0  0  0  0  0999 V2000
   30.7546   15.6345   22.1545 N   0  0  0  0  0  0  0  0  0  0  0  0
   30.9694   15.9748   20.7154 C   0  0  2  0  0  0  0  0  0  0  0  0
   32.3820   16.5046   20.4435 C   0  0  0  0  0  0  0  0  0  0  0  0
   33.0432   17.0913   21.3132 O   0  0  0  0  0  0  0  0  0  0  0  0
   29.9038   16.9576   20.2225 C   0  0  0  0  0  0  0  0  0  0  0  0
   28.5312   16.3361   20.1005 C   0  0  0  0  0  0  0  0  0  0  0  0
   28.4858   15.2848   19.0183 C   0  0  0  0  0  0  0  0  0  0  0  0
   27.1045   14.6451   18.9288 C   0  0  0  0  0  0  0  0  0  0  0  0
   26.9975   13.6137   17.8620 N   0  0  0  0  0  0  0  0  0  0  0  0
   32.9268   16.3301   19.3492 O   0  0  0  0  0  0  0  0  0  0  0  0
  2  1  1  1  0  0  0
  2  3  1  0  0  0  0
  2  5  1  0  0  0  0
  3  4  1  0  0  0  0
  3 10  1  0  0  0  0
  5  6  1  0  0  0  0
  6  7  1  0  0  0  0
  7  8  1  0  0  0  0
  8  9  1  0  0  0  0
M  END
>  <CHROM.1>
-27.70378321,-70.49319879,-66.40139712,178.70239308,179.12897162,30.15202608
15.85151191,20.00853721,0.47530961,0.23305191,1.21780048

>  <Name>
ligand

>  <RI>
0

>  <Rbt.Current_Directory>
/home/itssahil/PROJECTS/Mol_Feturizer/New_Systems/rnas/3DIY

>  <Rbt.Executable>
rbdock ($Id: //depot/dev/client3/rdock/2013.1/src/exe/rbdock.cxx#4 $)

>  <Rbt.Library>
libRbt.so (2013.1, Build901 2013/11/27)

>  <Rbt.Parameter_File>
/export/apps/rDock/src/rDock_2013.1_src/data/scripts/dock_solv.prm

>  <Rbt.Receptor>
prm/pocket_docking_6.prm

>  <SCORE>
-6.49447

>  <SCORE.INTER>
-6.11432

>  <SCORE.INTER.CONST>
1

>  <SCORE.INTER.POLAR>
0

>  <SCORE.INTER.ROT>
5

>  <SCORE.INTER.SOLV>
16.8981

>  <SCORE.INTER.VDW>
-16.6422

>  <SCORE.INTER.norm>
-0.611432

>  <SCORE.INTRA>
-0.380148

>  <SCORE.INTRA.DIHEDRAL>
-0.324763

>  <SCORE.INTRA.DIHEDRAL.0>
2.56603

>  <SCORE.INTRA.POLAR>
0

>  <SCORE.INTRA.POLAR.0>
0

>  <SCORE.INTRA.REPUL>
0

>  <SCORE.INTRA.REPUL.0>
0

>  <SCORE.INTRA.SOLV>
-0.352319

>  <SCORE.INTRA.SOLV.lig_0>
-32.0799

>  <SCORE.INTRA.VDW>
-0.0416074

>  <SCORE.INTRA.VDW.0>
-0.618248

>  <SCORE.INTRA.norm>
-0.0380148

>  <SCORE.RESTR>
0

>  <SCORE.RESTR.CAVITY>
0

>  <SCORE.RESTR.norm>
0

>  <SCORE.SYSTEM>
0

>  <SCORE.SYSTEM.CONST>
0

>  <SCORE.SYSTEM.DIHEDRAL>
0

>  <SCORE.SYSTEM.SOLV>
0

>  <SCORE.SYSTEM.norm>
0

>  <SCORE.heavy>
10

>  <SCORE.norm>
-0.649447

>  <RMSD>
1.794

$$$$
ligand
 OpenBabel11021811473D
libRbt.so/2013.1/901 2013/11/27
 10  9  0  0  0  0  0  0  0  0999 V2000
   31.4518   17.3761   22.1296 N   0  0  0  0  0  0  0  0  0  0  0  0
   31.7353   16.1303   21.3545 C   0  0  2  0  0  0  0  0  0  0  0  0
   32.7293   16.3654   20.2114 C   0  0  0  0  0  0  0  0  0  0  0  0
   32.7585   15.6406   19.2055 O   0  0  0  0  0  0  0  0  0  0  0  0
   30.4377   15.5005   20.8407 C   0  0  0  0  0  0  0  0  0  0  0  0
   29.4673   15.1505   21.9457 C   0  0  0  0  0  0  0  0  0  0  0  0
   28.1852   14.5679   21.4022 C   0  0  0  0  0  0  0  0  0  0  0  0
   27.4118   15.6004   20.5891 C   0  0  0  0  0  0  0  0  0  0  0  0
   26.0985   15.1039   20.0972 N   0  0  0  0  0  0  0  0  0  0  0  0
   33.5168   17.3162   20.2389 O   0  0  0  0  0  0  0  0  0  0  0  0
  2  1  1  6  0  0  0
  2  3  1  0  0  0  0
  2  5  1  0  0  0  0
  3  4  1  0  0  0  0
  3 10  1  0  0  0  0
  5  6  1  0  0  0  0
  6  7  1  0  0  0  0
  7  8  1  0  0  0  0
  8  9  1  0  0  0  0
M  END
>  <CHROM.1>
-154.96076926,-58.53765364,178.41382070,-65.77460538,-176.53383093,30.41354322
15.88311407,20.77569955,0.02193100,0.27726117,1.22980789

>  <Name>
ligand

>  <RI>
0

>  <Rbt.Current_Directory>
/home/itssahil/PROJECTS/Mol_Feturizer/New_Systems/rnas/3DIY

>  <Rbt.Executable>
rbdock ($Id: //depot/dev/client3/rdock/2013.1/src/exe/rbdock.cxx#4 $)

>  <Rbt.Library>
libRbt.so (2013.1, Build901 2013/11/27)

>  <Rbt.Parameter_File>
/export/apps/rDock/src/rDock_2013.1_src/data/scripts/dock_solv.prm

>  <Rbt.Receptor>
prm/pocket_docking_6.prm

>  <SCORE>
-7.71045

>  <SCORE.INTER>
-8.17593

>  <SCORE.INTER.CONST>
1

>  <SCORE.INTER.POLAR>
0

>  <SCORE.INTER.ROT>
5

>  <SCORE.INTER.SOLV>
16.9064

>  <SCORE.INTER.VDW>
-18.0194

>  <SCORE.INTER.norm>
-0.817593

>  <SCORE.INTRA>
0.465482

>  <SCORE.INTRA.DIHEDRAL>
-0.757456

>  <SCORE.INTRA.DIHEDRAL.0>
2.56603

>  <SCORE.INTRA.POLAR>
0

>  <SCORE.INTRA.POLAR.0>
0

>  <SCORE.INTRA.REPUL>
0

>  <SCORE.INTRA.REPUL.0>
0

>  <SCORE.INTRA.SOLV>
-0.375293

>  <SCORE.INTRA.SOLV.lig_0>
-32.0799

>  <SCORE.INTRA.VDW>
1.03186

>  <SCORE.INTRA.VDW.0>
-0.618248

>  <SCORE.INTRA.norm>
0.0465482

>  <SCORE.RESTR>
0

>  <SCORE.RESTR.CAVITY>
0

>  <SCORE.RESTR.norm>
0

>  <SCORE.SYSTEM>
0

>  <SCORE.SYSTEM.CONST>
0

>  <SCORE.SYSTEM.DIHEDRAL>
0

>  <SCORE.SYSTEM.SOLV>
0

>  <SCORE.SYSTEM.norm>
0

>  <SCORE.heavy>
10

>  <SCORE.norm>
-0.771045

>  <RMSD>
1.891

$$$$
ligand
 OpenBabel11021811473D
libRbt.so/2013.1/901 2013/11/27
 10  9  0  0  0  0  0  0  0  0999 V2000
   31.3932   17.4496   22.0384 N   0  0  0  0  0  0  0  0  0  0  0  0
   31.7033   16.1410   21.3868 C   0  0  2  0  0  0  0  0  0  0  0  0
   32.7445   16.2753   20.2697 C   0  0  0  0  0  0  0  0  0  0  0  0
   32.6335   15.6733   19.1911 O   0  0  0  0  0  0  0  0  0  0  0  0
   30.4255   15.4695   20.8764 C   0  0  0  0  0  0  0  0  0  0  0  0
   29.4152   15.2035   21.9690 C   0  0  0  0  0  0  0  0  0  0  0  0
   28.1489   14.5885   21.4242 C   0  0  0  0  0  0  0  0  0  0  0  0
   27.3853   15.5800   20.5529 C   0  0  0  0  0  0  0  0  0  0  0  0
   26.0923   15.0481   20.0444 N   0  0  0  0  0  0  0  0  0  0  0  0
   33.7189   17.0235   20.3952 O   0  0  0  0  0  0  0  0  0  0  0  0
  2  1  1  6  0  0  0
  2  3  1  0  0  0  0
  2  5  1  0  0  0  0
  3  4  1  0  0  0  0
  3 10  1  0  0  0  0
  5  6  1  0  0  0  0
  6  7  1  0  0  0  0
  7  8  1  0  0  0  0
  8  9  1  0  0  0  0
M  END
>  <CHROM.1>
-138.09485515,-59.17623339,177.89034185,-67.80771318,-177.09598933,30.40155314
15.85093209,20.78987265,0.03641520,0.25650809,1.21557797

>  <Name>
ligand

>  <RI>
0

>  <Rbt.Current_Directory>
/home/itssahil/PROJECTS/Mol_Feturizer/New_Systems/rnas/3DIY

>  <Rbt.Executable>
rbdock ($Id: //depot/dev/client3/rdock/2013.1/src/exe/rbdock.cxx#4 $)

>  <Rbt.Library>
libRbt.so (2013.1, Build901 2013/11/27)

>  <Rbt.Parameter_File>
/export/apps/rDock/src/rDock_2013.1_src/data/scripts/dock_solv.prm

>  <Rbt.Receptor>
prm/pocket_docking_6.prm

>  <SCORE>
-7.5867

>  <SCORE.INTER>
-8.15354

>  <SCORE.INTER.CONST>
1

>  <SCORE.INTER.POLAR>
0

>  <SCORE.INTER.ROT>
5

>  <SCORE.INTER.SOLV>
16.8951

>  <SCORE.INTER.VDW>
-18.0007

>  <SCORE.INTER.norm>
-0.815354

>  <SCORE.INTRA>
0.566844

>  <SCORE.INTRA.DIHEDRAL>
-0.658672

>  <SCORE.INTRA.DIHEDRAL.0>
2.56603

>  <SCORE.INTRA.POLAR>
0

>  <SCORE.INTRA.POLAR.0>
0

>  <SCORE.INTRA.REPUL>
0

>  <SCORE.INTRA.REPUL.0>
0

>  <SCORE.INTRA.SOLV>
-0.39011

>  <SCORE.INTRA.SOLV.lig_0>
-32.0799

>  <SCORE.INTRA.VDW>
1.09123

>  <SCORE.INTRA.VDW.0>
-0.618248

>  <SCORE.INTRA.norm>
0.0566844

>  <SCORE.RESTR>
0

>  <SCORE.RESTR.CAVITY>
0

>  <SCORE.RESTR.norm>
0

>  <SCORE.SYSTEM>
0

>  <SCORE.SYSTEM.CONST>
0

>  <SCORE.SYSTEM.DIHEDRAL>
0

>  <SCORE.SYSTEM.SOLV>
0

>  <SCORE.SYSTEM.norm>
0

>  <SCORE.heavy>
10

>  <SCORE.norm>
-0.75867

>  <RMSD>
1.892

$$$$
ligand
 OpenBabel11021811473D
libRbt.so/2013.1/901 2013/11/27
 10  9  0  0  0  0  0  0  0  0999 V2000
   31.3709   17.8093   22.1936 N   0  0  0  0  0  0  0  0  0  0  0  0
   31.7250   16.3951   21.8657 C   0  0  2  0  0  0  0  0  0  0  0  0
   32.3472   16.2553   20.4717 C   0  0  0  0  0  0  0  0  0  0  0  0
   33.2458   17.0117   20.0735 O   0  0  0  0  0  0  0  0  0  0  0  0
   30.5098   15.4775   22.0254 C   0  0  0  0  0  0  0  0  0  0  0  0
   29.3413   15.8797   21.1546 C   0  0  0  0  0  0  0  0  0  0  0  0
   28.1725   14.9380   21.3146 C   0  0  0  0  0  0  0  0  0  0  0  0
   27.0448   15.2903   20.3506 C   0  0  0  0  0  0  0  0  0  0  0  0
   27.4445   15.2167   18.9195 N   0  0  0  0  0  0  0  0  0  0  0  0
   31.9954   15.3528   19.7058 O   0  0  0  0  0  0  0  0  0  0  0  0
  2  1  1  6  0  0  0
  2  3  1  0  0  0  0
  2  5  1  0  0  0  0
  3  4  1  0  0  0  0
  3 10  1  0  0  0  0
  5  6  1  0  0  0  0
  6  7  1  0  0  0  0
  7  8  1  0  0  0  0
  8  9  1  0  0  0  0
M  END
>  <CHROM.1>
46.66483535,58.48654336,178.77565809,-175.47983642,60.35574187,30.34530023
15.96135634,20.77916119,0.20062031,0.24525530,1.24676273

>  <Name>
ligand

>  <RI>
0

>  <Rbt.Current_Directory>
/home/itssahil/PROJECTS/Mol_Feturizer/New_Systems/rnas/3DIY

>  <Rbt.Executable>
rbdock ($Id: //depot/dev/client3/rdock/2013.1/src/exe/rbdock.cxx#4 $)

>  <Rbt.Library>
libRbt.so (2013.1, Build901 2013/11/27)

>  <Rbt.Parameter_File>
/export/apps/rDock/src/rDock_2013.1_src/data/scripts/dock_solv.prm

>  <Rbt.Receptor>
prm/pocket_docking_7.prm

>  <SCORE>
-8.87676

>  <SCORE.INTER>
-9.27857

>  <SCORE.INTER.CONST>
1

>  <SCORE.INTER.POLAR>
0

>  <SCORE.INTER.ROT>
5

>  <SCORE.INTER.SOLV>
12.5387

>  <SCORE.INTER.VDW>
-17.2986

>  <SCORE.INTER.norm>
-0.927857

>  <SCORE.INTRA>
0.401813

>  <SCORE.INTRA.DIHEDRAL>
-0.973211

>  <SCORE.INTRA.DIHEDRAL.0>
2.56603

>  <SCORE.INTRA.POLAR>
0

>  <SCORE.INTRA.POLAR.0>
0

>  <SCORE.INTRA.REPUL>
0

>  <SCORE.INTRA.REPUL.0>
0

>  <SCORE.INTRA.SOLV>
0.28712

>  <SCORE.INTRA.SOLV.lig_0>
-32.0799

>  <SCORE.INTRA.VDW>
0.744859

>  <SCORE.INTRA.VDW.0>
-0.618248

>  <SCORE.INTRA.norm>
0.0401813

>  <SCORE.RESTR>
0

>  <SCORE.RESTR.CAVITY>
0

>  <SCORE.RESTR.norm>
0

>  <SCORE.SYSTEM>
0

>  <SCORE.SYSTEM.CONST>
0

>  <SCORE.SYSTEM.DIHEDRAL>
0

>  <SCORE.SYSTEM.SOLV>
0

>  <SCORE.SYSTEM.norm>
0

>  <SCORE.heavy>
10

>  <SCORE.norm>
-0.887676

>  <RMSD>
1.892

$$$$
ligand
 OpenBabel11021811473D
libRbt.so/2013.1/901 2013/11/27
 10  9  0  0  0  0  0  0  0  0999 V2000
   31.3172   17.7614   22.1318 N   0  0  0  0  0  0  0  0  0  0  0  0
   31.6634   16.3483   21.7910 C   0  0  2  0  0  0  0  0  0  0  0  0
   32.2573   16.2139   20.3842 C   0  0  0  0  0  0  0  0  0  0  0  0
   33.1701   16.9511   19.9823 O   0  0  0  0  0  0  0  0  0  0  0  0
   30.4509   15.4310   21.9712 C   0  0  0  0  0  0  0  0  0  0  0  0
   29.2747   15.8215   21.1055 C   0  0  0  0  0  0  0  0  0  0  0  0
   28.1025   14.8905   21.2990 C   0  0  0  0  0  0  0  0  0  0  0  0
   26.9648   15.2303   20.3421 C   0  0  0  0  0  0  0  0  0  0  0  0
   27.3276   15.0657   18.9087 N   0  0  0  0  0  0  0  0  0  0  0  0
   31.8669   15.3343   19.6104 O   0  0  0  0  0  0  0  0  0  0  0  0
  2  1  1  6  0  0  0
  2  3  1  0  0  0  0
  2  5  1  0  0  0  0
  3  4  1  0  0  0  0
  3 10  1  0  0  0  0
  5  6  1  0  0  0  0
  6  7  1  0  0  0  0
  7  8  1  0  0  0  0
  8  9  1  0  0  0  0
M  END
>  <CHROM.1>
48.39016076,59.62498334,179.50254622,-175.57075962,62.98264871,30.26452725
15.90373369,20.72380758,0.19378417,0.25661570,1.24271115

>  <Name>
ligand

>  <RI>
0

>  <Rbt.Current_Directory>
/home/itssahil/PROJECTS/Mol_Feturizer/New_Systems/rnas/3DIY

>  <Rbt.Executable>
rbdock ($Id: //depot/dev/client3/rdock/2013.1/src/exe/rbdock.cxx#4 $)

>  <Rbt.Library>
libRbt.so (2013.1, Build901 2013/11/27)

>  <Rbt.Parameter_File>
/export/apps/rDock/src/rDock_2013.1_src/data/scripts/dock_solv.prm

>  <Rbt.Receptor>
prm/pocket_docking_2.prm

>  <SCORE>
-8.77592

>  <SCORE.INTER>
-9.16106

>  <SCORE.INTER.CONST>
1

>  <SCORE.INTER.POLAR>
0

>  <SCORE.INTER.ROT>
5

>  <SCORE.INTER.SOLV>
13.0284

>  <SCORE.INTER.VDW>
-17.3835

>  <SCORE.INTER.norm>
-0.916106

>  <SCORE.INTRA>
0.385141

>  <SCORE.INTRA.DIHEDRAL>
-0.955476

>  <SCORE.INTRA.DIHEDRAL.0>
2.56603

>  <SCORE.INTRA.POLAR>
0

>  <SCORE.INTRA.POLAR.0>
0

>  <SCORE.INTRA.REPUL>
0

>  <SCORE.INTRA.REPUL.0>
0

>  <SCORE.INTRA.SOLV>
0.238933

>  <SCORE.INTRA.SOLV.lig_0>
-32.0799

>  <SCORE.INTRA.VDW>
0.743412

>  <SCORE.INTRA.VDW.0>
-0.618248

>  <SCORE.INTRA.norm>
0.0385141

>  <SCORE.RESTR>
0

>  <SCORE.RESTR.CAVITY>
0

>  <SCORE.RESTR.norm>
0

>  <SCORE.SYSTEM>
0

>  <SCORE.SYSTEM.CONST>
0

>  <SCORE.SYSTEM.DIHEDRAL>
0

>  <SCORE.SYSTEM.SOLV>
0

>  <SCORE.SYSTEM.norm>
0

>  <SCORE.heavy>
10

>  <SCORE.norm>
-0.877592

>  <RMSD>
1.910

$$$$
ligand
 OpenBabel11021811473D
libRbt.so/2013.1/901 2013/11/27
 10  9  0  0  0  0  0  0  0  0999 V2000
   31.1101   17.0677   22.1893 N   0  0  0  0  0  0  0  0  0  0  0  0
   31.4238   15.9527   21.2452 C   0  0  2  0  0  0  0  0  0  0  0  0
   32.4968   16.3376   20.2203 C   0  0  0  0  0  0  0  0  0  0  0  0
   33.2525   17.3059   20.3913 O   0  0  0  0  0  0  0  0  0  0  0  0
   30.1533   15.4483   20.5555 C   0  0  0  0  0  0  0  0  0  0  0  0
   29.3505   16.5519   19.9050 C   0  0  0  0  0  0  0  0  0  0  0  0
   28.1729   16.0082   19.1329 C   0  0  0  0  0  0  0  0  0  0  0  0
   27.0522   15.5732   20.0711 C   0  0  0  0  0  0  0  0  0  0  0  0
   27.4148   14.4129   20.9287 N   0  0  0  0  0  0  0  0  0  0  0  0
   32.6692   15.6671   19.1978 O   0  0  0  0  0  0  0  0  0  0  0  0
  2  1  1  6  0  0  0
  2  3  1  0  0  0  0
  2  5  1  0  0  0  0
  3  4  1  0  0  0  0
  3 10  1  0  0  0  0
  5  6  1  0  0  0  0
  6  7  1  0  0  0  0
  7  8  1  0  0  0  0
  8  9  1  0  0  0  0
M  END
>  <CHROM.1>
18.16983403,52.34265058,174.98531632,75.48408040,-65.99106721,30.34481421
16.04152827,20.36308537,0.09126672,0.22695974,1.35125393

>  <Name>
ligand

>  <RI>
0

>  <Rbt.Current_Directory>
/home/itssahil/PROJECTS/Mol_Feturizer/New_Systems/rnas/3DIY

>  <Rbt.Executable>
rbdock ($Id: //depot/dev/client3/rdock/2013.1/src/exe/rbdock.cxx#4 $)

>  <Rbt.Library>
libRbt.so (2013.1, Build901 2013/11/27)

>  <Rbt.Parameter_File>
/export/apps/rDock/src/rDock_2013.1_src/data/scripts/dock_solv.prm

>  <Rbt.Receptor>
prm/blind_docking_80.prm

>  <SCORE>
-6.12771

>  <SCORE.INTER>
-8.03475

>  <SCORE.INTER.CONST>
1

>  <SCORE.INTER.POLAR>
0

>  <SCORE.INTER.ROT>
5

>  <SCORE.INTER.SOLV>
13.6638

>  <SCORE.INTER.VDW>
-16.8444

>  <SCORE.INTER.norm>
-0.803475

>  <SCORE.INTRA>
1.90704

>  <SCORE.INTRA.DIHEDRAL>
0.35652

>  <SCORE.INTRA.DIHEDRAL.0>
2.56603

>  <SCORE.INTRA.POLAR>
0

>  <SCORE.INTRA.POLAR.0>
0

>  <SCORE.INTRA.REPUL>
0

>  <SCORE.INTRA.REPUL.0>
0

>  <SCORE.INTRA.SOLV>
1.65262

>  <SCORE.INTRA.SOLV.lig_0>
-32.0799

>  <SCORE.INTRA.VDW>
0.902474

>  <SCORE.INTRA.VDW.0>
-0.618248

>  <SCORE.INTRA.norm>
0.190704

>  <SCORE.RESTR>
0

>  <SCORE.RESTR.CAVITY>
0

>  <SCORE.RESTR.norm>
0

>  <SCORE.SYSTEM>
0

>  <SCORE.SYSTEM.CONST>
0

>  <SCORE.SYSTEM.DIHEDRAL>
0

>  <SCORE.SYSTEM.SOLV>
0

>  <SCORE.SYSTEM.norm>
0

>  <SCORE.heavy>
10

>  <SCORE.norm>
-0.612771

>  <RMSD>
1.937

$$$$
ligand
 OpenBabel11021811473D
libRbt.so/2013.1/901 2013/11/27
 10  9  0  0  0  0  0  0  0  0999 V2000
   33.0075   17.9022   22.4629 N   0  0  0  0  0  0  0  0  0  0  0  0
   32.3528   16.6900   21.8841 C   0  0  2  0  0  0  0  0  0  0  0  0
   32.6027   16.5523   20.3779 C   0  0  0  0  0  0  0  0  0  0  0  0
   31.8325   17.0383   19.5362 O   0  0  0  0  0  0  0  0  0  0  0  0
   30.8550   16.6751   22.2016 C   0  0  0  0  0  0  0  0  0  0  0  0
   30.1260   15.5057   21.5798 C   0  0  0  0  0  0  0  0  0  0  0  0
   28.6444   15.5531   21.8646 C   0  0  0  0  0  0  0  0  0  0  0  0
   27.8762   14.6087   20.9463 C   0  0  0  0  0  0  0  0  0  0  0  0
   27.9048   15.0195   19.5167 N   0  0  0  0  0  0  0  0  0  0  0  0
   33.6089   15.9784   19.9502 O   0  0  0  0  0  0  0  0  0  0  0  0
  2  1  1  6  0  0  0
  2  3  1  0  0  0  0
  2  5  1  0  0  0  0
  3  4  1  0  0  0  0
  3 10  1  0  0  0  0
  5  6  1  0  0  0  0
  6  7  1  0  0  0  0
  7  8  1  0  0  0  0
  8  9  1  0  0  0  0
M  END
>  <CHROM.1>
-91.06306647,177.04989085,-177.63163375,164.79712248,-66.91634109,30.89754384
16.15262600,20.99926113,0.15161866,0.34955461,1.28195858

>  <Name>
ligand

>  <RI>
0

>  <Rbt.Current_Directory>
/home/itssahil/PROJECTS/Mol_Feturizer/New_Systems/rnas/3DIY

>  <Rbt.Executable>
rbdock ($Id: //depot/dev/client3/rdock/2013.1/src/exe/rbdock.cxx#4 $)

>  <Rbt.Library>
libRbt.so (2013.1, Build901 2013/11/27)

>  <Rbt.Parameter_File>
/export/apps/rDock/src/rDock_2013.1_src/data/scripts/dock_solv.prm

>  <Rbt.Receptor>
prm/pocket_docking_2.prm

>  <SCORE>
-7.02003

>  <SCORE.INTER>
-7.15434

>  <SCORE.INTER.CONST>
1

>  <SCORE.INTER.POLAR>
0

>  <SCORE.INTER.ROT>
5

>  <SCORE.INTER.SOLV>
12.3556

>  <SCORE.INTER.VDW>
-15.8214

>  <SCORE.INTER.norm>
-0.715434

>  <SCORE.INTRA>
0.134303

>  <SCORE.INTRA.DIHEDRAL>
0.0652961

>  <SCORE.INTRA.DIHEDRAL.0>
2.56603

>  <SCORE.INTRA.POLAR>
0

>  <SCORE.INTRA.POLAR.0>
0

>  <SCORE.INTRA.REPUL>
0

>  <SCORE.INTRA.REPUL.0>
0

>  <SCORE.INTRA.SOLV>
-0.658493

>  <SCORE.INTRA.SOLV.lig_0>
-32.0799

>  <SCORE.INTRA.VDW>
0.430901

>  <SCORE.INTRA.VDW.0>
-0.618248

>  <SCORE.INTRA.norm>
0.0134303

>  <SCORE.RESTR>
0

>  <SCORE.RESTR.CAVITY>
0

>  <SCORE.RESTR.norm>
0

>  <SCORE.SYSTEM>
0

>  <SCORE.SYSTEM.CONST>
0

>  <SCORE.SYSTEM.DIHEDRAL>
0

>  <SCORE.SYSTEM.SOLV>
0

>  <SCORE.SYSTEM.norm>
0

>  <SCORE.heavy>
10

>  <SCORE.norm>
-0.702003

>  <RMSD>
1.966

$$$$
ligand
 OpenBabel11021811473D
libRbt.so/2013.1/901 2013/11/27
 10  9  0  0  0  0  0  0  0  0999 V2000
   30.7512   15.6725   22.2798 N   0  0  0  0  0  0  0  0  0  0  0  0
   30.8032   15.6551   20.7864 C   0  0  2  0  0  0  0  0  0  0  0  0
   32.1838   16.0419   20.2441 C   0  0  0  0  0  0  0  0  0  0  0  0
   32.9901   16.7069   20.9117 O   0  0  0  0  0  0  0  0  0  0  0  0
   29.7053   16.5415   20.1921 C   0  0  0  0  0  0  0  0  0  0  0  0
   28.3132   16.1278   20.6121 C   0  0  0  0  0  0  0  0  0  0  0  0
   27.9266   14.7895   20.0306 C   0  0  0  0  0  0  0  0  0  0  0  0
   27.7055   14.8860   18.5249 C   0  0  0  0  0  0  0  0  0  0  0  0
   27.3002   13.5971   17.9021 N   0  0  0  0  0  0  0  0  0  0  0  0
   32.5556   15.6689   19.1272 O   0  0  0  0  0  0  0  0  0  0  0  0
  2  1  1  1  0  0  0
  2  3  1  0  0  0  0
  2  5  1  0  0  0  0
  3  4  1  0  0  0  0
  3 10  1  0  0  0  0
  5  6  1  0  0  0  0
  6  7  1  0  0  0  0
  7  8  1  0  0  0  0
  8  9  1  0  0  0  0
M  END
>  <CHROM.1>
-22.43347736,-58.64982728,-67.51090507,-70.26461702,-179.07291847,30.06418958
15.57892055,20.05212139,0.43958159,0.18049037,1.18308691

>  <Name>
ligand

>  <RI>
0

>  <Rbt.Current_Directory>
/home/itssahil/PROJECTS/Mol_Feturizer/New_Systems/rnas/3DIY

>  <Rbt.Executable>
rbdock ($Id: //depot/dev/client3/rdock/2013.1/src/exe/rbdock.cxx#4 $)

>  <Rbt.Library>
libRbt.so (2013.1, Build901 2013/11/27)

>  <Rbt.Parameter_File>
/export/apps/rDock/src/rDock_2013.1_src/data/scripts/dock_solv.prm

>  <Rbt.Receptor>
prm/pocket_docking_2.prm

>  <SCORE>
-6.21703

>  <SCORE.INTER>
-6.72712

>  <SCORE.INTER.CONST>
1

>  <SCORE.INTER.POLAR>
0

>  <SCORE.INTER.ROT>
5

>  <SCORE.INTER.SOLV>
16.5769

>  <SCORE.INTER.VDW>
-16.9437

>  <SCORE.INTER.norm>
-0.672712

>  <SCORE.INTRA>
0.510092

>  <SCORE.INTRA.DIHEDRAL>
-0.283396

>  <SCORE.INTRA.DIHEDRAL.0>
2.56603

>  <SCORE.INTRA.POLAR>
0

>  <SCORE.INTRA.POLAR.0>
0

>  <SCORE.INTRA.REPUL>
0

>  <SCORE.INTRA.REPUL.0>
0

>  <SCORE.INTRA.SOLV>
0.0985011

>  <SCORE.INTRA.SOLV.lig_0>
-32.0799

>  <SCORE.INTRA.VDW>
0.60254

>  <SCORE.INTRA.VDW.0>
-0.618248

>  <SCORE.INTRA.norm>
0.0510092

>  <SCORE.RESTR>
0

>  <SCORE.RESTR.CAVITY>
0

>  <SCORE.RESTR.norm>
0

>  <SCORE.SYSTEM>
0

>  <SCORE.SYSTEM.CONST>
0

>  <SCORE.SYSTEM.DIHEDRAL>
0

>  <SCORE.SYSTEM.SOLV>
0

>  <SCORE.SYSTEM.norm>
0

>  <SCORE.heavy>
10

>  <SCORE.norm>
-0.621703

>  <RMSD>
1.978

$$$$
ligand
 OpenBabel11021811473D
libRbt.so/2013.1/901 2013/11/27
 10  9  0  0  0  0  0  0  0  0999 V2000
   32.0174   17.7252   22.1521 N   0  0  0  0  0  0  0  0  0  0  0  0
   31.4430   16.6467   21.2918 C   0  0  2  0  0  0  0  0  0  0  0  0
   32.3286   16.3293   20.0814 C   0  0  0  0  0  0  0  0  0  0  0  0
   33.3530   16.9804   19.8270 O   0  0  0  0  0  0  0  0  0  0  0  0
   30.0164   16.9958   20.8591 C   0  0  0  0  0  0  0  0  0  0  0  0
   29.2682   15.8213   20.2707 C   0  0  0  0  0  0  0  0  0  0  0  0
   27.8541   16.1899   19.8927 C   0  0  0  0  0  0  0  0  0  0  0  0
   27.1104   14.9939   19.3080 C   0  0  0  0  0  0  0  0  0  0  0  0
   27.6825   14.5119   18.0220 N   0  0  0  0  0  0  0  0  0  0  0  0
   32.0676   15.3821   19.3334 O   0  0  0  0  0  0  0  0  0  0  0  0
  2  1  1  6  0  0  0
  2  3  1  0  0  0  0
  2  5  1  0  0  0  0
  3  4  1  0  0  0  0
  3 10  1  0  0  0  0
  5  6  1  0  0  0  0
  6  7  1  0  0  0  0
  7  8  1  0  0  0  0
  8  9  1  0  0  0  0
M  END
>  <CHROM.1>
-4.64767720,-166.36824968,178.33180455,-179.69628558,-64.60946938,30.34442176
16.15236089,20.08102741,0.43520507,0.09747913,0.94762809

>  <Name>
ligand

>  <RI>
0

>  <Rbt.Current_Directory>
/home/itssahil/PROJECTS/Mol_Feturizer/New_Systems/rnas/3DIY

>  <Rbt.Executable>
rbdock ($Id: //depot/dev/client3/rdock/2013.1/src/exe/rbdock.cxx#4 $)

>  <Rbt.Library>
libRbt.so (2013.1, Build901 2013/11/27)

>  <Rbt.Parameter_File>
/export/apps/rDock/src/rDock_2013.1_src/data/scripts/dock_solv.prm

>  <Rbt.Receptor>
prm/pocket_docking_3.prm

>  <SCORE>
-7.87916

>  <SCORE.INTER>
-7.48705

>  <SCORE.INTER.CONST>
1

>  <SCORE.INTER.POLAR>
0

>  <SCORE.INTER.ROT>
5

>  <SCORE.INTER.SOLV>
12.9232

>  <SCORE.INTER.VDW>
-16.2324

>  <SCORE.INTER.norm>
-0.748705

>  <SCORE.INTRA>
-0.392111

>  <SCORE.INTRA.DIHEDRAL>
-0.251721

>  <SCORE.INTRA.DIHEDRAL.0>
2.56603

>  <SCORE.INTRA.POLAR>
0

>  <SCORE.INTRA.POLAR.0>
0

>  <SCORE.INTRA.REPUL>
0

>  <SCORE.INTRA.REPUL.0>
0

>  <SCORE.INTRA.SOLV>
-0.696569

>  <SCORE.INTRA.SOLV.lig_0>
-32.0799

>  <SCORE.INTRA.VDW>
0.0820338

>  <SCORE.INTRA.VDW.0>
-0.618248

>  <SCORE.INTRA.norm>
-0.0392111

>  <SCORE.RESTR>
0

>  <SCORE.RESTR.CAVITY>
0

>  <SCORE.RESTR.norm>
0

>  <SCORE.SYSTEM>
0

>  <SCORE.SYSTEM.CONST>
0

>  <SCORE.SYSTEM.DIHEDRAL>
0

>  <SCORE.SYSTEM.SOLV>
0

>  <SCORE.SYSTEM.norm>
0

>  <SCORE.heavy>
10

>  <SCORE.norm>
-0.787916

>  <RMSD>
1.985

$$$$
ligand
 OpenBabel11021811473D
libRbt.so/2013.1/901 2013/11/27
 10  9  0  0  0  0  0  0  0  0999 V2000
   32.7102   17.8132   22.3509 N   0  0  0  0  0  0  0  0  0  0  0  0
   32.0214   16.6631   21.6908 C   0  0  2  0  0  0  0  0  0  0  0  0
   32.5949   16.3554   20.3029 C   0  0  0  0  0  0  0  0  0  0  0  0
   33.4699   17.0626   19.7811 O   0  0  0  0  0  0  0  0  0  0  0  0
   30.5095   16.8966   21.6270 C   0  0  0  0  0  0  0  0  0  0  0  0
   29.7347   15.6698   21.2027 C   0  0  0  0  0  0  0  0  0  0  0  0
   28.2662   15.9687   21.0224 C   0  0  0  0  0  0  0  0  0  0  0  0
   27.5006   14.7253   20.5830 C   0  0  0  0  0  0  0  0  0  0  0  0
   26.0513   14.9721   20.3550 N   0  0  0  0  0  0  0  0  0  0  0  0
   32.2265   15.3621   19.6685 O   0  0  0  0  0  0  0  0  0  0  0  0
  2  1  1  6  0  0  0
  2  3  1  0  0  0  0
  2  5  1  0  0  0  0
  3  4  1  0  0  0  0
  3 10  1  0  0  0  0
  5  6  1  0  0  0  0
  6  7  1  0  0  0  0
  7  8  1  0  0  0  0
  8  9  1  0  0  0  0
M  END
>  <CHROM.1>
-4.63443371,-169.51464341,-174.54069844,179.51124799,-178.46492419,30.53364350
16.14399276,20.82858109,0.18458141,0.23353646,0.96012451

>  <Name>
ligand

>  <RI>
0

>  <Rbt.Current_Directory>
/home/itssahil/PROJECTS/Mol_Feturizer/New_Systems/rnas/3DIY

>  <Rbt.Executable>
rbdock ($Id: //depot/dev/client3/rdock/2013.1/src/exe/rbdock.cxx#4 $)

>  <Rbt.Library>
libRbt.so (2013.1, Build901 2013/11/27)

>  <Rbt.Parameter_File>
/export/apps/rDock/src/rDock_2013.1_src/data/scripts/dock_solv.prm

>  <Rbt.Receptor>
prm/pocket_docking_2.prm

>  <SCORE>
-7.01612

>  <SCORE.INTER>
-6.06323

>  <SCORE.INTER.CONST>
1

>  <SCORE.INTER.POLAR>
0

>  <SCORE.INTER.ROT>
5

>  <SCORE.INTER.SOLV>
18.3398

>  <SCORE.INTER.VDW>
-17.0888

>  <SCORE.INTER.norm>
-0.606323

>  <SCORE.INTRA>
-0.952891

>  <SCORE.INTRA.DIHEDRAL>
-0.478255

>  <SCORE.INTRA.DIHEDRAL.0>
2.56603

>  <SCORE.INTRA.POLAR>
0

>  <SCORE.INTRA.POLAR.0>
0

>  <SCORE.INTRA.REPUL>
0

>  <SCORE.INTRA.REPUL.0>
0

>  <SCORE.INTRA.SOLV>
-1.58492

>  <SCORE.INTRA.SOLV.lig_0>
-32.0799

>  <SCORE.INTRA.VDW>
0.0786989

>  <SCORE.INTRA.VDW.0>
-0.618248

>  <SCORE.INTRA.norm>
-0.0952891

>  <SCORE.RESTR>
0

>  <SCORE.RESTR.CAVITY>
0

>  <SCORE.RESTR.norm>
0

>  <SCORE.SYSTEM>
0

>  <SCORE.SYSTEM.CONST>
0

>  <SCORE.SYSTEM.DIHEDRAL>
0

>  <SCORE.SYSTEM.SOLV>
0

>  <SCORE.SYSTEM.norm>
0

>  <SCORE.heavy>
10

>  <SCORE.norm>
-0.701612

>  <RMSD>
1.987

$$$$
ligand
 OpenBabel11021811473D
libRbt.so/2013.1/901 2013/11/27
 10  9  0  0  0  0  0  0  0  0999 V2000
   32.2537   17.9701   22.3091 N   0  0  0  0  0  0  0  0  0  0  0  0
   31.6625   16.8861   21.4674 C   0  0  2  0  0  0  0  0  0  0  0  0
   32.5984   16.4475   20.3353 C   0  0  0  0  0  0  0  0  0  0  0  0
   33.6072   17.0992   20.0261 O   0  0  0  0  0  0  0  0  0  0  0  0
   30.2927   17.3027   20.9248 C   0  0  0  0  0  0  0  0  0  0  0  0
   29.5711   16.1847   20.2074 C   0  0  0  0  0  0  0  0  0  0  0  0
   28.2584   16.6482   19.6240 C   0  0  0  0  0  0  0  0  0  0  0  0
   27.5311   15.5043   18.9256 C   0  0  0  0  0  0  0  0  0  0  0  0
   27.1688   14.3874   19.8392 N   0  0  0  0  0  0  0  0  0  0  0  0
   32.3959   15.4008   19.7123 O   0  0  0  0  0  0  0  0  0  0  0  0
  2  1  1  6  0  0  0
  2  3  1  0  0  0  0
  2  5  1  0  0  0  0
  3  4  1  0  0  0  0
  3 10  1  0  0  0  0
  5  6  1  0  0  0  0
  6  7  1  0  0  0  0
  7  8  1  0  0  0  0
  8  9  1  0  0  0  0
M  END
>  <CHROM.1>
-12.40176632,-172.92026323,-177.03296101,-178.98949387,62.11732762,30.56564312
16.37492741,20.31576664,0.38090465,0.04194097,0.78184420

>  <Name>
ligand

>  <RI>
0

>  <Rbt.Current_Directory>
/home/itssahil/PROJECTS/Mol_Feturizer/New_Systems/rnas/3DIY

>  <Rbt.Executable>
rbdock ($Id: //depot/dev/client3/rdock/2013.1/src/exe/rbdock.cxx#4 $)

>  <Rbt.Library>
libRbt.so (2013.1, Build901 2013/11/27)

>  <Rbt.Parameter_File>
/export/apps/rDock/src/rDock_2013.1_src/data/scripts/dock_solv.prm

>  <Rbt.Receptor>
prm/pocket_docking_4.prm

>  <SCORE>
-6.72628

>  <SCORE.INTER>
-6.16353

>  <SCORE.INTER.CONST>
1

>  <SCORE.INTER.POLAR>
0

>  <SCORE.INTER.ROT>
5

>  <SCORE.INTER.SOLV>
14.0684

>  <SCORE.INTER.VDW>
-15.7318

>  <SCORE.INTER.norm>
-0.616353

>  <SCORE.INTRA>
-0.562751

>  <SCORE.INTRA.DIHEDRAL>
-0.744307

>  <SCORE.INTRA.DIHEDRAL.0>
2.56603

>  <SCORE.INTRA.POLAR>
0

>  <SCORE.INTRA.POLAR.0>
0

>  <SCORE.INTRA.REPUL>
0

>  <SCORE.INTRA.REPUL.0>
0

>  <SCORE.INTRA.SOLV>
-0.664278

>  <SCORE.INTRA.SOLV.lig_0>
-32.0799

>  <SCORE.INTRA.VDW>
0.141541

>  <SCORE.INTRA.VDW.0>
-0.618248

>  <SCORE.INTRA.norm>
-0.0562751

>  <SCORE.RESTR>
0

>  <SCORE.RESTR.CAVITY>
0

>  <SCORE.RESTR.norm>
0

>  <SCORE.SYSTEM>
0

>  <SCORE.SYSTEM.CONST>
0

>  <SCORE.SYSTEM.DIHEDRAL>
0

>  <SCORE.SYSTEM.SOLV>
0

>  <SCORE.SYSTEM.norm>
0

>  <SCORE.heavy>
10

>  <SCORE.norm>
-0.672628

>  <RMSD>
1.988

$$$$
ligand
 OpenBabel11021811473D
libRbt.so/2013.1/901 2013/11/27
 10  9  0  0  0  0  0  0  0  0999 V2000
   30.9975   15.8922   22.2204 N   0  0  0  0  0  0  0  0  0  0  0  0
   30.8868   15.7226   20.7399 C   0  0  2  0  0  0  0  0  0  0  0  0
   32.1485   16.1843   20.0017 C   0  0  0  0  0  0  0  0  0  0  0  0
   32.8216   17.1507   20.3904 O   0  0  0  0  0  0  0  0  0  0  0  0
   29.6395   16.4288   20.2017 C   0  0  0  0  0  0  0  0  0  0  0  0
   28.3566   15.9317   20.8283 C   0  0  0  0  0  0  0  0  0  0  0  0
   28.0347   14.5200   20.4019 C   0  0  0  0  0  0  0  0  0  0  0  0
   27.4812   14.4860   18.9814 C   0  0  0  0  0  0  0  0  0  0  0  0
   28.4950   14.8132   17.9429 N   0  0  0  0  0  0  0  0  0  0  0  0
   32.5601   15.5799   19.0066 O   0  0  0  0  0  0  0  0  0  0  0  0
  2  1  1  1  0  0  0
  2  3  1  0  0  0  0
  2  5  1  0  0  0  0
  3  4  1  0  0  0  0
  3 10  1  0  0  0  0
  5  6  1  0  0  0  0
  6  7  1  0  0  0  0
  7  8  1  0  0  0  0
  8  9  1  0  0  0  0
M  END
>  <CHROM.1>
-34.99925790,-58.33848505,-69.08133486,-76.30078001,69.63068158,30.17953325
15.68272835,20.05730223,0.26988180,0.27808367,1.30770072

>  <Name>
ligand

>  <RI>
0

>  <Rbt.Current_Directory>
/home/itssahil/PROJECTS/Mol_Feturizer/New_Systems/rnas/3DIY

>  <Rbt.Executable>
rbdock ($Id: //depot/dev/client3/rdock/2013.1/src/exe/rbdock.cxx#4 $)

>  <Rbt.Library>
libRbt.so (2013.1, Build901 2013/11/27)

>  <Rbt.Parameter_File>
/export/apps/rDock/src/rDock_2013.1_src/data/scripts/dock_solv.prm

>  <Rbt.Receptor>
prm/blind_docking_100.prm

>  <SCORE>
-5.83426

>  <SCORE.INTER>
-7.85503

>  <SCORE.INTER.CONST>
1

>  <SCORE.INTER.POLAR>
0

>  <SCORE.INTER.ROT>
5

>  <SCORE.INTER.SOLV>
13.3594

>  <SCORE.INTER.VDW>
-16.6232

>  <SCORE.INTER.norm>
-0.785503

>  <SCORE.INTRA>
2.02077

>  <SCORE.INTRA.DIHEDRAL>
0.781171

>  <SCORE.INTRA.DIHEDRAL.0>
2.56603

>  <SCORE.INTRA.POLAR>
0

>  <SCORE.INTRA.POLAR.0>
0

>  <SCORE.INTRA.REPUL>
0

>  <SCORE.INTRA.REPUL.0>
0

>  <SCORE.INTRA.SOLV>
2.40694

>  <SCORE.INTRA.SOLV.lig_0>
-32.0799

>  <SCORE.INTRA.VDW>
0.426713

>  <SCORE.INTRA.VDW.0>
-0.618248

>  <SCORE.INTRA.norm>
0.202077

>  <SCORE.RESTR>
0

>  <SCORE.RESTR.CAVITY>
0

>  <SCORE.RESTR.norm>
0

>  <SCORE.SYSTEM>
0

>  <SCORE.SYSTEM.CONST>
0

>  <SCORE.SYSTEM.DIHEDRAL>
0

>  <SCORE.SYSTEM.SOLV>
0

>  <SCORE.SYSTEM.norm>
0

>  <SCORE.heavy>
10

>  <SCORE.norm>
-0.583426

>  <RMSD>
1.992

$$$$
ligand
 OpenBabel11021811473D
libRbt.so/2013.1/901 2013/11/27
 10  9  0  0  0  0  0  0  0  0999 V2000
   31.9996   17.7306   22.1581 N   0  0  0  0  0  0  0  0  0  0  0  0
   31.4250   16.6420   21.3108 C   0  0  2  0  0  0  0  0  0  0  0  0
   32.2865   16.3427   20.0786 C   0  0  0  0  0  0  0  0  0  0  0  0
   32.0693   15.3662   19.3456 O   0  0  0  0  0  0  0  0  0  0  0  0
   29.9818   16.9641   20.9138 C   0  0  0  0  0  0  0  0  0  0  0  0
   29.2680   15.7992   20.2667 C   0  0  0  0  0  0  0  0  0  0  0  0
   27.8386   16.1395   19.9209 C   0  0  0  0  0  0  0  0  0  0  0  0
   27.1359   14.9595   19.2581 C   0  0  0  0  0  0  0  0  0  0  0  0
   27.7544   14.5504   17.9684 N   0  0  0  0  0  0  0  0  0  0  0  0
   33.2116   17.0926   19.7521 O   0  0  0  0  0  0  0  0  0  0  0  0
  2  1  1  6  0  0  0
  2  3  1  0  0  0  0
  2  5  1  0  0  0  0
  3  4  1  0  0  0  0
  3 10  1  0  0  0  0
  5  6  1  0  0  0  0
  6  7  1  0  0  0  0
  7  8  1  0  0  0  0
  8  9  1  0  0  0  0
M  END
>  <CHROM.1>
170.83554131,-169.80649462,178.52343564,179.49337287,-62.04735269,30.32622830
16.15457608,20.07358847,0.45029461,0.11525229,0.96924327

>  <Name>
ligand

>  <RI>
0

>  <Rbt.Current_Directory>
/home/itssahil/PROJECTS/Mol_Feturizer/New_Systems/rnas/3DIY

>  <Rbt.Executable>
rbdock ($Id: //depot/dev/client3/rdock/2013.1/src/exe/rbdock.cxx#4 $)

>  <Rbt.Library>
libRbt.so (2013.1, Build901 2013/11/27)

>  <Rbt.Parameter_File>
/export/apps/rDock/src/rDock_2013.1_src/data/scripts/dock_solv.prm

>  <Rbt.Receptor>
prm/pocket_docking_8.prm

>  <SCORE>
-8.03137

>  <SCORE.INTER>
-7.46398

>  <SCORE.INTER.CONST>
1

>  <SCORE.INTER.POLAR>
0

>  <SCORE.INTER.ROT>
5

>  <SCORE.INTER.SOLV>
12.8547

>  <SCORE.INTER.VDW>
-16.1942

>  <SCORE.INTER.norm>
-0.746398

>  <SCORE.INTRA>
-0.567391

>  <SCORE.INTRA.DIHEDRAL>
-0.673023

>  <SCORE.INTRA.DIHEDRAL.0>
2.56603

>  <SCORE.INTRA.POLAR>
0

>  <SCORE.INTRA.POLAR.0>
0

>  <SCORE.INTRA.REPUL>
0

>  <SCORE.INTRA.REPUL.0>
0

>  <SCORE.INTRA.SOLV>
-0.660078

>  <SCORE.INTRA.SOLV.lig_0>
-32.0799

>  <SCORE.INTRA.VDW>
0.0991594

>  <SCORE.INTRA.VDW.0>
-0.618248

>  <SCORE.INTRA.norm>
-0.0567391

>  <SCORE.RESTR>
0

>  <SCORE.RESTR.CAVITY>
0

>  <SCORE.RESTR.norm>
0

>  <SCORE.SYSTEM>
0

>  <SCORE.SYSTEM.CONST>
0

>  <SCORE.SYSTEM.DIHEDRAL>
0

>  <SCORE.SYSTEM.SOLV>
0

>  <SCORE.SYSTEM.norm>
0

>  <SCORE.heavy>
10

>  <SCORE.norm>
-0.803137

>  <RMSD>
1.993

$$$$
ligand
 OpenBabel11021811473D
libRbt.so/2013.1/901 2013/11/27
 10  9  0  0  0  0  0  0  0  0999 V2000
   32.5218   17.8383   22.3796 N   0  0  0  0  0  0  0  0  0  0  0  0
   32.1086   16.5232   21.8026 C   0  0  2  0  0  0  0  0  0  0  0  0
   32.4225   16.4159   20.3060 C   0  0  0  0  0  0  0  0  0  0  0  0
   33.2296   15.5861   19.8610 O   0  0  0  0  0  0  0  0  0  0  0  0
   30.6286   16.2466   22.0803 C   0  0  0  0  0  0  0  0  0  0  0  0
   30.1552   14.9233   21.5234 C   0  0  0  0  0  0  0  0  0  0  0  0
   28.6790   14.7123   21.7573 C   0  0  0  0  0  0  0  0  0  0  0  0
   27.8436   15.6161   20.8570 C   0  0  0  0  0  0  0  0  0  0  0  0
   28.0192   15.3331   19.4071 N   0  0  0  0  0  0  0  0  0  0  0  0
   31.8486   17.1354   19.4827 O   0  0  0  0  0  0  0  0  0  0  0  0
  2  1  1  6  0  0  0
  2  3  1  0  0  0  0
  2  5  1  0  0  0  0
  3  4  1  0  0  0  0
  3 10  1  0  0  0  0
  5  6  1  0  0  0  0
  6  7  1  0  0  0  0
  7  8  1  0  0  0  0
  8  9  1  0  0  0  0
M  END
>  <CHROM.1>
116.11627915,-179.74464368,-177.29654651,72.24159772,63.34320687,30.76227408
16.03305282,20.91313272,0.06984493,0.33244497,1.40830892

>  <Name>
ligand

>  <RI>
0

>  <Rbt.Current_Directory>
/home/itssahil/PROJECTS/Mol_Feturizer/New_Systems/rnas/3DIY

>  <Rbt.Executable>
rbdock ($Id: //depot/dev/client3/rdock/2013.1/src/exe/rbdock.cxx#4 $)

>  <Rbt.Library>
libRbt.so (2013.1, Build901 2013/11/27)

>  <Rbt.Parameter_File>
/export/apps/rDock/src/rDock_2013.1_src/data/scripts/dock_solv.prm

>  <Rbt.Receptor>
prm/pocket_docking_3.prm

>  <SCORE>
-7.24482

>  <SCORE.INTER>
-7.40821

>  <SCORE.INTER.CONST>
1

>  <SCORE.INTER.POLAR>
0

>  <SCORE.INTER.ROT>
5

>  <SCORE.INTER.SOLV>
11.1844

>  <SCORE.INTER.VDW>
-15.6003

>  <SCORE.INTER.norm>
-0.740821

>  <SCORE.INTRA>
0.163387

>  <SCORE.INTRA.DIHEDRAL>
-0.324051

>  <SCORE.INTRA.DIHEDRAL.0>
2.56603

>  <SCORE.INTRA.POLAR>
0

>  <SCORE.INTRA.POLAR.0>
0

>  <SCORE.INTRA.REPUL>
0

>  <SCORE.INTRA.REPUL.0>
0

>  <SCORE.INTRA.SOLV>
-0.257839

>  <SCORE.INTRA.SOLV.lig_0>
-32.0799

>  <SCORE.INTRA.VDW>
0.454331

>  <SCORE.INTRA.VDW.0>
-0.618248

>  <SCORE.INTRA.norm>
0.0163387

>  <SCORE.RESTR>
0

>  <SCORE.RESTR.CAVITY>
0

>  <SCORE.RESTR.norm>
0

>  <SCORE.SYSTEM>
0

>  <SCORE.SYSTEM.CONST>
0

>  <SCORE.SYSTEM.DIHEDRAL>
0

>  <SCORE.SYSTEM.SOLV>
0

>  <SCORE.SYSTEM.norm>
0

>  <SCORE.heavy>
10

>  <SCORE.norm>
-0.724482

>  <RMSD>
1.996

$$$$
ligand
 OpenBabel11021811473D
libRbt.so/2013.1/901 2013/11/27
 10  9  0  0  0  0  0  0  0  0999 V2000
   30.9977   17.6492   22.1597 N   0  0  0  0  0  0  0  0  0  0  0  0
   31.3491   16.2412   21.8033 C   0  0  2  0  0  0  0  0  0  0  0  0
   31.9669   16.1279   20.4049 C   0  0  0  0  0  0  0  0  0  0  0  0
   32.8672   16.8889   20.0199 O   0  0  0  0  0  0  0  0  0  0  0  0
   30.1333   15.3220   21.9488 C   0  0  0  0  0  0  0  0  0  0  0  0
   28.9735   15.7244   21.0666 C   0  0  0  0  0  0  0  0  0  0  0  0
   27.7916   14.8013   21.2385 C   0  0  0  0  0  0  0  0  0  0  0  0
   26.6946   15.1162   20.2272 C   0  0  0  0  0  0  0  0  0  0  0  0
   27.1258   14.9463   18.8135 N   0  0  0  0  0  0  0  0  0  0  0  0
   31.6095   15.2427   19.6216 O   0  0  0  0  0  0  0  0  0  0  0  0
  2  1  1  6  0  0  0
  2  3  1  0  0  0  0
  2  5  1  0  0  0  0
  3  4  1  0  0  0  0
  3 10  1  0  0  0  0
  5  6  1  0  0  0  0
  6  7  1  0  0  0  0
  7  8  1  0  0  0  0
  8  9  1  0  0  0  0
M  END
>  <CHROM.1>
46.82973228,59.76973927,-179.79843034,-173.23346567,61.42135169,29.97634203
15.80543708,20.70204212,0.21762051,0.25639948,1.24407295

>  <Name>
ligand

>  <RI>
0

>  <Rbt.Current_Directory>
/home/itssahil/PROJECTS/Mol_Feturizer/New_Systems/rnas/3DIY

>  <Rbt.Executable>
rbdock ($Id: //depot/dev/client3/rdock/2013.1/src/exe/rbdock.cxx#4 $)

>  <Rbt.Library>
libRbt.so (2013.1, Build901 2013/11/27)

>  <Rbt.Parameter_File>
/export/apps/rDock/src/rDock_2013.1_src/data/scripts/dock_solv.prm

>  <Rbt.Receptor>
prm/pocket_docking_2.prm

>  <SCORE>
-8.83952

>  <SCORE.INTER>
-9.27526

>  <SCORE.INTER.CONST>
1

>  <SCORE.INTER.POLAR>
0

>  <SCORE.INTER.ROT>
5

>  <SCORE.INTER.SOLV>
14.2196

>  <SCORE.INTER.VDW>
-17.8567

>  <SCORE.INTER.norm>
-0.927526

>  <SCORE.INTRA>
0.435747

>  <SCORE.INTRA.DIHEDRAL>
-0.879362

>  <SCORE.INTRA.DIHEDRAL.0>
2.56603

>  <SCORE.INTRA.POLAR>
0

>  <SCORE.INTRA.POLAR.0>
0

>  <SCORE.INTRA.REPUL>
0

>  <SCORE.INTRA.REPUL.0>
0

>  <SCORE.INTRA.SOLV>
0.276427

>  <SCORE.INTRA.SOLV.lig_0>
-32.0799

>  <SCORE.INTRA.VDW>
0.737214

>  <SCORE.INTRA.VDW.0>
-0.618248

>  <SCORE.INTRA.norm>
0.0435747

>  <SCORE.RESTR>
0

>  <SCORE.RESTR.CAVITY>
0

>  <SCORE.RESTR.norm>
0

>  <SCORE.SYSTEM>
0

>  <SCORE.SYSTEM.CONST>
0

>  <SCORE.SYSTEM.DIHEDRAL>
0

>  <SCORE.SYSTEM.SOLV>
0

>  <SCORE.SYSTEM.norm>
0

>  <SCORE.heavy>
10

>  <SCORE.norm>
-0.883952

>  <RMSD>
2.000

$$$$
ligand
 OpenBabel11021811473D
libRbt.so/2013.1/901 2013/11/27
 10  9  0  0  0  0  0  0  0  0999 V2000
   31.8956   17.7116   22.1849 N   0  0  0  0  0  0  0  0  0  0  0  0
   31.3933   16.6419   21.2703 C   0  0  2  0  0  0  0  0  0  0  0  0
   32.3584   16.3602   20.1131 C   0  0  0  0  0  0  0  0  0  0  0  0
   32.1703   15.4338   19.3103 O   0  0  0  0  0  0  0  0  0  0  0  0
   29.9918   16.9794   20.7542 C   0  0  0  0  0  0  0  0  0  0  0  0
   29.2811   15.7940   20.1419 C   0  0  0  0  0  0  0  0  0  0  0  0
   27.8938   16.1549   19.6690 C   0  0  0  0  0  0  0  0  0  0  0  0
   27.1875   14.9481   19.0607 C   0  0  0  0  0  0  0  0  0  0  0  0
   27.8749   14.4031   17.8592 N   0  0  0  0  0  0  0  0  0  0  0  0
   33.3452   17.0767   19.9192 O   0  0  0  0  0  0  0  0  0  0  0  0
  2  1  1  6  0  0  0
  2  3  1  0  0  0  0
  2  5  1  0  0  0  0
  3  4  1  0  0  0  0
  3 10  1  0  0  0  0
  5  6  1  0  0  0  0
  6  7  1  0  0  0  0
  7  8  1  0  0  0  0
  8  9  1  0  0  0  0
M  END
>  <CHROM.1>
174.07803034,-164.33439089,178.86722468,-179.71030598,-61.87968163,30.37054610
16.14683574,20.00665046,0.48784818,0.08650520,0.94492379

>  <Name>
ligand

>  <RI>
0

>  <Rbt.Current_Directory>
/home/itssahil/PROJECTS/Mol_Feturizer/New_Systems/rnas/3DIY

>  <Rbt.Executable>
rbdock ($Id: //depot/dev/client3/rdock/2013.1/src/exe/rbdock.cxx#4 $)

>  <Rbt.Library>
libRbt.so (2013.1, Build901 2013/11/27)

>  <Rbt.Parameter_File>
/export/apps/rDock/src/rDock_2013.1_src/data/scripts/dock_solv.prm

>  <Rbt.Receptor>
prm/blind_docking_80.prm

>  <SCORE>
-7.89906

>  <SCORE.INTER>
-7.52077

>  <SCORE.INTER.CONST>
1

>  <SCORE.INTER.POLAR>
0

>  <SCORE.INTER.ROT>
5

>  <SCORE.INTER.SOLV>
12.9418

>  <SCORE.INTER.VDW>
-16.2611

>  <SCORE.INTER.norm>
-0.752077

>  <SCORE.INTRA>
-0.378287

>  <SCORE.INTRA.DIHEDRAL>
-0.173225

>  <SCORE.INTRA.DIHEDRAL.0>
2.56603

>  <SCORE.INTRA.POLAR>
0

>  <SCORE.INTRA.POLAR.0>
0

>  <SCORE.INTRA.REPUL>
0

>  <SCORE.INTRA.REPUL.0>
0

>  <SCORE.INTRA.SOLV>
-0.651568

>  <SCORE.INTRA.SOLV.lig_0>
-32.0799

>  <SCORE.INTRA.VDW>
0.0341096

>  <SCORE.INTRA.VDW.0>
-0.618248

>  <SCORE.INTRA.norm>
-0.0378287

>  <SCORE.RESTR>
0

>  <SCORE.RESTR.CAVITY>
0

>  <SCORE.RESTR.norm>
0

>  <SCORE.SYSTEM>
0

>  <SCORE.SYSTEM.CONST>
0

>  <SCORE.SYSTEM.DIHEDRAL>
0

>  <SCORE.SYSTEM.SOLV>
0

>  <SCORE.SYSTEM.norm>
0

>  <SCORE.heavy>
10

>  <SCORE.norm>
-0.789906

>  <RMSD>
2.001

$$$$
ligand
 OpenBabel11021811473D
libRbt.so/2013.1/901 2013/11/27
 10  9  0  0  0  0  0  0  0  0999 V2000
   30.8609   16.7278   22.1888 N   0  0  0  0  0  0  0  0  0  0  0  0
   30.9914   15.8839   20.9625 C   0  0  2  0  0  0  0  0  0  0  0  0
   32.2371   16.2340   20.1406 C   0  0  0  0  0  0  0  0  0  0  0  0
   32.5534   15.5999   19.1229 O   0  0  0  0  0  0  0  0  0  0  0  0
   29.7230   15.9630   20.1085 C   0  0  0  0  0  0  0  0  0  0  0  0
   28.4961   15.4314   20.8137 C   0  0  0  0  0  0  0  0  0  0  0  0
   27.2638   15.5324   19.9479 C   0  0  0  0  0  0  0  0  0  0  0  0
   27.2726   14.4732   18.8509 C   0  0  0  0  0  0  0  0  0  0  0  0
   28.3498   14.6720   17.8443 N   0  0  0  0  0  0  0  0  0  0  0  0
   32.9533   17.1919   20.4481 O   0  0  0  0  0  0  0  0  0  0  0  0
  2  1  1  1  0  0  0
  2  3  1  0  0  0  0
  2  5  1  0  0  0  0
  3  4  1  0  0  0  0
  3 10  1  0  0  0  0
  5  6  1  0  0  0  0
  6  7  1  0  0  0  0
  7  8  1  0  0  0  0
  8  9  1  0  0  0  0
M  END
>  <CHROM.1>
176.40514383,-62.58443893,179.63389052,74.57779021,-66.73005400,30.10774283
15.78101472,20.02768002,0.35476711,0.20502408,1.18379365

>  <Name>
ligand

>  <RI>
0

>  <Rbt.Current_Directory>
/home/itssahil/PROJECTS/Mol_Feturizer/New_Systems/rnas/3DIY

>  <Rbt.Executable>
rbdock ($Id: //depot/dev/client3/rdock/2013.1/src/exe/rbdock.cxx#4 $)

>  <Rbt.Library>
libRbt.so (2013.1, Build901 2013/11/27)

>  <Rbt.Parameter_File>
/export/apps/rDock/src/rDock_2013.1_src/data/scripts/dock_solv.prm

>  <Rbt.Receptor>
prm/pocket_docking_7.prm

>  <SCORE>
-7.13683

>  <SCORE.INTER>
-8.52517

>  <SCORE.INTER.CONST>
1

>  <SCORE.INTER.POLAR>
0

>  <SCORE.INTER.ROT>
5

>  <SCORE.INTER.SOLV>
11.9825

>  <SCORE.INTER.VDW>
-16.6109

>  <SCORE.INTER.norm>
-0.852517

>  <SCORE.INTRA>
1.38834

>  <SCORE.INTRA.DIHEDRAL>
0.00597951

>  <SCORE.INTRA.DIHEDRAL.0>
2.56603

>  <SCORE.INTRA.POLAR>
0

>  <SCORE.INTRA.POLAR.0>
0

>  <SCORE.INTRA.REPUL>
0

>  <SCORE.INTRA.REPUL.0>
0

>  <SCORE.INTRA.SOLV>
1.59234

>  <SCORE.INTRA.SOLV.lig_0>
-32.0799

>  <SCORE.INTRA.VDW>
0.589183

>  <SCORE.INTRA.VDW.0>
-0.618248

>  <SCORE.INTRA.norm>
0.138834

>  <SCORE.RESTR>
0

>  <SCORE.RESTR.CAVITY>
0

>  <SCORE.RESTR.norm>
0

>  <SCORE.SYSTEM>
0

>  <SCORE.SYSTEM.CONST>
0

>  <SCORE.SYSTEM.DIHEDRAL>
0

>  <SCORE.SYSTEM.SOLV>
0

>  <SCORE.SYSTEM.norm>
0

>  <SCORE.heavy>
10

>  <SCORE.norm>
-0.713683

>  <RMSD>
2.001

$$$$
ligand
 OpenBabel11021811473D
libRbt.so/2013.1/901 2013/11/27
 10  9  0  0  0  0  0  0  0  0999 V2000
   31.9953   17.7416   22.1365 N   0  0  0  0  0  0  0  0  0  0  0  0
   31.4279   16.6545   21.2824 C   0  0  2  0  0  0  0  0  0  0  0  0
   32.3042   16.3513   20.0617 C   0  0  0  0  0  0  0  0  0  0  0  0
   32.1027   15.3664   19.3356 O   0  0  0  0  0  0  0  0  0  0  0  0
   29.9911   16.9814   20.8665 C   0  0  0  0  0  0  0  0  0  0  0  0
   29.2781   15.8154   20.2204 C   0  0  0  0  0  0  0  0  0  0  0  0
   27.8607   16.1668   19.8385 C   0  0  0  0  0  0  0  0  0  0  0  0
   27.1571   14.9836   19.1826 C   0  0  0  0  0  0  0  0  0  0  0  0
   27.8043   14.5353   17.9202 N   0  0  0  0  0  0  0  0  0  0  0  0
   33.2262   17.1061   19.7375 O   0  0  0  0  0  0  0  0  0  0  0  0
  2  1  1  6  0  0  0
  2  3  1  0  0  0  0
  2  5  1  0  0  0  0
  3  4  1  0  0  0  0
  3 10  1  0  0  0  0
  5  6  1  0  0  0  0
  6  7  1  0  0  0  0
  7  8  1  0  0  0  0
  8  9  1  0  0  0  0
M  END
>  <CHROM.1>
169.97317578,-169.36631734,179.31268467,179.73590099,-61.52587937,30.34421247
16.16605684,20.03483188,0.45944822,0.10561748,0.96046459

>  <Name>
ligand

>  <RI>
0

>  <Rbt.Current_Directory>
/home/itssahil/PROJECTS/Mol_Feturizer/New_Systems/rnas/3DIY

>  <Rbt.Executable>
rbdock ($Id: //depot/dev/client3/rdock/2013.1/src/exe/rbdock.cxx#4 $)

>  <Rbt.Library>
libRbt.so (2013.1, Build901 2013/11/27)

>  <Rbt.Parameter_File>
/export/apps/rDock/src/rDock_2013.1_src/data/scripts/dock_solv.prm

>  <Rbt.Receptor>
prm/pocket_docking_6.prm

>  <SCORE>
-8.03563

>  <SCORE.INTER>
-7.45398

>  <SCORE.INTER.CONST>
1

>  <SCORE.INTER.POLAR>
0

>  <SCORE.INTER.ROT>
5

>  <SCORE.INTER.SOLV>
12.8691

>  <SCORE.INTER.VDW>
-16.1923

>  <SCORE.INTER.norm>
-0.745398

>  <SCORE.INTRA>
-0.581659

>  <SCORE.INTRA.DIHEDRAL>
-0.657907

>  <SCORE.INTRA.DIHEDRAL.0>
2.56603

>  <SCORE.INTRA.POLAR>
0

>  <SCORE.INTRA.POLAR.0>
0

>  <SCORE.INTRA.REPUL>
0

>  <SCORE.INTRA.REPUL.0>
0

>  <SCORE.INTRA.SOLV>
-0.653911

>  <SCORE.INTRA.SOLV.lig_0>
-32.0799

>  <SCORE.INTRA.VDW>
0.0742507

>  <SCORE.INTRA.VDW.0>
-0.618248

>  <SCORE.INTRA.norm>
-0.0581659

>  <SCORE.RESTR>
0

>  <SCORE.RESTR.CAVITY>
0

>  <SCORE.RESTR.norm>
0

>  <SCORE.SYSTEM>
0

>  <SCORE.SYSTEM.CONST>
0

>  <SCORE.SYSTEM.DIHEDRAL>
0

>  <SCORE.SYSTEM.SOLV>
0

>  <SCORE.SYSTEM.norm>
0

>  <SCORE.heavy>
10

>  <SCORE.norm>
-0.803563

>  <RMSD>
2.004

$$$$
ligand
 OpenBabel11021811473D
libRbt.so/2013.1/901 2013/11/27
 10  9  0  0  0  0  0  0  0  0999 V2000
   31.9402   17.7804   22.1441 N   0  0  0  0  0  0  0  0  0  0  0  0
   31.4217   16.6904   21.2631 C   0  0  2  0  0  0  0  0  0  0  0  0
   32.3678   16.3796   20.0977 C   0  0  0  0  0  0  0  0  0  0  0  0
   32.2105   15.3884   19.3691 O   0  0  0  0  0  0  0  0  0  0  0  0
   30.0127   17.0184   20.7615 C   0  0  0  0  0  0  0  0  0  0  0  0
   29.3298   15.8458   20.0950 C   0  0  0  0  0  0  0  0  0  0  0  0
   27.9264   16.1888   19.6580 C   0  0  0  0  0  0  0  0  0  0  0  0
   27.2189   14.9720   19.0713 C   0  0  0  0  0  0  0  0  0  0  0  0
   27.8829   14.4302   17.8552 N   0  0  0  0  0  0  0  0  0  0  0  0
   33.3057   17.1339   19.8214 O   0  0  0  0  0  0  0  0  0  0  0  0
  2  1  1  6  0  0  0
  2  3  1  0  0  0  0
  2  5  1  0  0  0  0
  3  4  1  0  0  0  0
  3 10  1  0  0  0  0
  5  6  1  0  0  0  0
  6  7  1  0  0  0  0
  7  8  1  0  0  0  0
  8  9  1  0  0  0  0
M  END
>  <CHROM.1>
169.65705671,-168.65597636,177.93165902,-176.26056011,-61.74750813,30.39255507
16.17855268,19.99183920,0.49045969,0.08158406,0.92621672

>  <Name>
ligand

>  <RI>
0

>  <Rbt.Current_Directory>
/home/itssahil/PROJECTS/Mol_Feturizer/New_Systems/rnas/3DIY

>  <Rbt.Executable>
rbdock ($Id: //depot/dev/client3/rdock/2013.1/src/exe/rbdock.cxx#4 $)

>  <Rbt.Library>
libRbt.so (2013.1, Build901 2013/11/27)

>  <Rbt.Parameter_File>
/export/apps/rDock/src/rDock_2013.1_src/data/scripts/dock_solv.prm

>  <Rbt.Receptor>
prm/pocket_docking_5.prm

>  <SCORE>
-7.86451

>  <SCORE.INTER>
-7.34803

>  <SCORE.INTER.CONST>
1

>  <SCORE.INTER.POLAR>
0

>  <SCORE.INTER.ROT>
5

>  <SCORE.INTER.SOLV>
13.0605

>  <SCORE.INTER.VDW>
-16.1855

>  <SCORE.INTER.norm>
-0.734803

>  <SCORE.INTRA>
-0.516482

>  <SCORE.INTRA.DIHEDRAL>
-0.526284

>  <SCORE.INTRA.DIHEDRAL.0>
2.56603

>  <SCORE.INTRA.POLAR>
0

>  <SCORE.INTRA.POLAR.0>
0

>  <SCORE.INTRA.REPUL>
0

>  <SCORE.INTRA.REPUL.0>
0

>  <SCORE.INTRA.SOLV>
-0.674984

>  <SCORE.INTRA.SOLV.lig_0>
-32.0799

>  <SCORE.INTRA.VDW>
0.0841521

>  <SCORE.INTRA.VDW.0>
-0.618248

>  <SCORE.INTRA.norm>
-0.0516482

>  <SCORE.RESTR>
0

>  <SCORE.RESTR.CAVITY>
0

>  <SCORE.RESTR.norm>
0

>  <SCORE.SYSTEM>
0

>  <SCORE.SYSTEM.CONST>
0

>  <SCORE.SYSTEM.DIHEDRAL>
0

>  <SCORE.SYSTEM.SOLV>
0

>  <SCORE.SYSTEM.norm>
0

>  <SCORE.heavy>
10

>  <SCORE.norm>
-0.786451

>  <RMSD>
2.005

$$$$
ligand
 OpenBabel11021811473D
libRbt.so/2013.1/901 2013/11/27
 10  9  0  0  0  0  0  0  0  0999 V2000
   31.9899   17.7044   22.1469 N   0  0  0  0  0  0  0  0  0  0  0  0
   31.4534   16.6397   21.2461 C   0  0  2  0  0  0  0  0  0  0  0  0
   32.3824   16.3526   20.0609 C   0  0  0  0  0  0  0  0  0  0  0  0
   33.3835   17.0461   19.8267 O   0  0  0  0  0  0  0  0  0  0  0  0
   30.0401   16.9880   20.7714 C   0  0  0  0  0  0  0  0  0  0  0  0
   29.3219   15.8212   20.1324 C   0  0  0  0  0  0  0  0  0  0  0  0
   27.9406   16.2041   19.6593 C   0  0  0  0  0  0  0  0  0  0  0  0
   27.2101   15.0054   19.0636 C   0  0  0  0  0  0  0  0  0  0  0  0
   27.8769   14.4451   17.8575 N   0  0  0  0  0  0  0  0  0  0  0  0
   32.1821   15.3893   19.3147 O   0  0  0  0  0  0  0  0  0  0  0  0
  2  1  1  6  0  0  0
  2  3  1  0  0  0  0
  2  5  1  0  0  0  0
  3  4  1  0  0  0  0
  3 10  1  0  0  0  0
  5  6  1  0  0  0  0
  6  7  1  0  0  0  0
  7  8  1  0  0  0  0
  8  9  1  0  0  0  0
M  END
>  <CHROM.1>
-7.35022186,-166.45381746,-179.20207299,-177.93015967,-62.46474426,30.40913744
16.15504379,19.98613742,0.47461620,0.08020044,0.94516341

>  <Name>
ligand

>  <RI>
0

>  <Rbt.Current_Directory>
/home/itssahil/PROJECTS/Mol_Feturizer/New_Systems/rnas/3DIY

>  <Rbt.Executable>
rbdock ($Id: //depot/dev/client3/rdock/2013.1/src/exe/rbdock.cxx#4 $)

>  <Rbt.Library>
libRbt.so (2013.1, Build901 2013/11/27)

>  <Rbt.Parameter_File>
/export/apps/rDock/src/rDock_2013.1_src/data/scripts/dock_solv.prm

>  <Rbt.Receptor>
prm/blind_docking_60.prm

>  <SCORE>
-7.81935

>  <SCORE.INTER>
-7.38706

>  <SCORE.INTER.CONST>
1

>  <SCORE.INTER.POLAR>
0

>  <SCORE.INTER.ROT>
5

>  <SCORE.INTER.SOLV>
12.8508

>  <SCORE.INTER.VDW>
-16.1416

>  <SCORE.INTER.norm>
-0.738706

>  <SCORE.INTRA>
-0.432285

>  <SCORE.INTRA.DIHEDRAL>
-0.298718

>  <SCORE.INTRA.DIHEDRAL.0>
2.56603

>  <SCORE.INTRA.POLAR>
0

>  <SCORE.INTRA.POLAR.0>
0

>  <SCORE.INTRA.REPUL>
0

>  <SCORE.INTRA.REPUL.0>
0

>  <SCORE.INTRA.SOLV>
-0.675533

>  <SCORE.INTRA.SOLV.lig_0>
-32.0799

>  <SCORE.INTRA.VDW>
0.0548407

>  <SCORE.INTRA.VDW.0>
-0.618248

>  <SCORE.INTRA.norm>
-0.0432285

>  <SCORE.RESTR>
0

>  <SCORE.RESTR.CAVITY>
0

>  <SCORE.RESTR.norm>
0

>  <SCORE.SYSTEM>
0

>  <SCORE.SYSTEM.CONST>
0

>  <SCORE.SYSTEM.DIHEDRAL>
0

>  <SCORE.SYSTEM.SOLV>
0

>  <SCORE.SYSTEM.norm>
0

>  <SCORE.heavy>
10

>  <SCORE.norm>
-0.781935

>  <RMSD>
2.010

$$$$
ligand
 OpenBabel11021811473D
libRbt.so/2013.1/901 2013/11/27
 10  9  0  0  0  0  0  0  0  0999 V2000
   31.1124   17.5476   21.9738 N   0  0  0  0  0  0  0  0  0  0  0  0
   31.3607   16.0900   21.7577 C   0  0  2  0  0  0  0  0  0  0  0  0
   31.9797   15.7986   20.3859 C   0  0  0  0  0  0  0  0  0  0  0  0
   31.3505   15.2147   19.4908 O   0  0  0  0  0  0  0  0  0  0  0  0
   30.0785   15.2808   21.9709 C   0  0  0  0  0  0  0  0  0  0  0  0
   28.9449   15.7124   21.0687 C   0  0  0  0  0  0  0  0  0  0  0  0
   27.7165   14.8570   21.2635 C   0  0  0  0  0  0  0  0  0  0  0  0
   26.6560   15.1681   20.2129 C   0  0  0  0  0  0  0  0  0  0  0  0
   27.1084   14.9082   18.8197 N   0  0  0  0  0  0  0  0  0  0  0  0
   33.1245   16.1722   20.1125 O   0  0  0  0  0  0  0  0  0  0  0  0
  2  1  1  6  0  0  0
  2  3  1  0  0  0  0
  2  5  1  0  0  0  0
  3  4  1  0  0  0  0
  3 10  1  0  0  0  0
  5  6  1  0  0  0  0
  6  7  1  0  0  0  0
  7  8  1  0  0  0  0
  8  9  1  0  0  0  0
M  END
>  <CHROM.1>
-110.68904592,57.84708056,177.57715528,-171.73743684,61.10805862,29.96836267
15.67058492,20.67749362,0.19507851,0.17600444,1.20485338

>  <Name>
ligand

>  <RI>
0

>  <Rbt.Current_Directory>
/home/itssahil/PROJECTS/Mol_Feturizer/New_Systems/rnas/3DIY

>  <Rbt.Executable>
rbdock ($Id: //depot/dev/client3/rdock/2013.1/src/exe/rbdock.cxx#4 $)

>  <Rbt.Library>
libRbt.so (2013.1, Build901 2013/11/27)

>  <Rbt.Parameter_File>
/export/apps/rDock/src/rDock_2013.1_src/data/scripts/dock_solv.prm

>  <Rbt.Receptor>
prm/pocket_docking_2.prm

>  <SCORE>
-9.13302

>  <SCORE.INTER>
-9.66011

>  <SCORE.INTER.CONST>
1

>  <SCORE.INTER.POLAR>
0

>  <SCORE.INTER.ROT>
5

>  <SCORE.INTER.SOLV>
13.853

>  <SCORE.INTER.VDW>
-17.9911

>  <SCORE.INTER.norm>
-0.966011

>  <SCORE.INTRA>
0.52709

>  <SCORE.INTRA.DIHEDRAL>
-0.718449

>  <SCORE.INTRA.DIHEDRAL.0>
2.56603

>  <SCORE.INTRA.POLAR>
0

>  <SCORE.INTRA.POLAR.0>
0

>  <SCORE.INTRA.REPUL>
0

>  <SCORE.INTRA.REPUL.0>
0

>  <SCORE.INTRA.SOLV>
0.310569

>  <SCORE.INTRA.SOLV.lig_0>
-32.0799

>  <SCORE.INTRA.VDW>
0.731029

>  <SCORE.INTRA.VDW.0>
-0.618248

>  <SCORE.INTRA.norm>
0.052709

>  <SCORE.RESTR>
0

>  <SCORE.RESTR.CAVITY>
0

>  <SCORE.RESTR.norm>
0

>  <SCORE.SYSTEM>
0

>  <SCORE.SYSTEM.CONST>
0

>  <SCORE.SYSTEM.DIHEDRAL>
0

>  <SCORE.SYSTEM.SOLV>
0

>  <SCORE.SYSTEM.norm>
0

>  <SCORE.heavy>
10

>  <SCORE.norm>
-0.913302

>  <RMSD>
2.019

$$$$
ligand
 OpenBabel11021811473D
libRbt.so/2013.1/901 2013/11/27
 10  9  0  0  0  0  0  0  0  0999 V2000
   31.1316   17.5428   21.9719 N   0  0  0  0  0  0  0  0  0  0  0  0
   31.3692   16.0841   21.7513 C   0  0  2  0  0  0  0  0  0  0  0  0
   31.9695   15.7907   20.3716 C   0  0  0  0  0  0  0  0  0  0  0  0
   31.3296   15.2018   19.4875 O   0  0  0  0  0  0  0  0  0  0  0  0
   30.0854   15.2817   21.9798 C   0  0  0  0  0  0  0  0  0  0  0  0
   28.9497   15.7051   21.0763 C   0  0  0  0  0  0  0  0  0  0  0  0
   27.7255   14.8443   21.2737 C   0  0  0  0  0  0  0  0  0  0  0  0
   26.6579   15.1570   20.2308 C   0  0  0  0  0  0  0  0  0  0  0  0
   27.0995   14.8953   18.8344 N   0  0  0  0  0  0  0  0  0  0  0  0
   33.1089   16.1676   20.0806 O   0  0  0  0  0  0  0  0  0  0  0  0
  2  1  1  6  0  0  0
  2  3  1  0  0  0  0
  2  5  1  0  0  0  0
  3  4  1  0  0  0  0
  3 10  1  0  0  0  0
  5  6  1  0  0  0  0
  6  7  1  0  0  0  0
  7  8  1  0  0  0  0
  8  9  1  0  0  0  0
M  END
>  <CHROM.1>
-111.26612856,58.79285958,176.81937143,-172.30650826,61.58397693,29.96741161
15.66261835,20.67741018,0.19183798,0.18004892,1.20638976

>  <Name>
ligand

>  <RI>
0

>  <Rbt.Current_Directory>
/home/itssahil/PROJECTS/Mol_Feturizer/New_Systems/rnas/3DIY

>  <Rbt.Executable>
rbdock ($Id: //depot/dev/client3/rdock/2013.1/src/exe/rbdock.cxx#4 $)

>  <Rbt.Library>
libRbt.so (2013.1, Build901 2013/11/27)

>  <Rbt.Parameter_File>
/export/apps/rDock/src/rDock_2013.1_src/data/scripts/dock_solv.prm

>  <Rbt.Receptor>
prm/pocket_docking_2.prm

>  <SCORE>
-9.13474

>  <SCORE.INTER>
-9.66191

>  <SCORE.INTER.CONST>
1

>  <SCORE.INTER.POLAR>
0

>  <SCORE.INTER.ROT>
5

>  <SCORE.INTER.SOLV>
13.873

>  <SCORE.INTER.VDW>
-17.999

>  <SCORE.INTER.norm>
-0.966191

>  <SCORE.INTRA>
0.52717

>  <SCORE.INTRA.DIHEDRAL>
-0.74583

>  <SCORE.INTRA.DIHEDRAL.0>
2.56603

>  <SCORE.INTRA.POLAR>
0

>  <SCORE.INTRA.POLAR.0>
0

>  <SCORE.INTRA.REPUL>
0

>  <SCORE.INTRA.REPUL.0>
0

>  <SCORE.INTRA.SOLV>
0.285309

>  <SCORE.INTRA.SOLV.lig_0>
-32.0799

>  <SCORE.INTRA.VDW>
0.757431

>  <SCORE.INTRA.VDW.0>
-0.618248

>  <SCORE.INTRA.norm>
0.052717

>  <SCORE.RESTR>
0

>  <SCORE.RESTR.CAVITY>
0

>  <SCORE.RESTR.norm>
0

>  <SCORE.SYSTEM>
0

>  <SCORE.SYSTEM.CONST>
0

>  <SCORE.SYSTEM.DIHEDRAL>
0

>  <SCORE.SYSTEM.SOLV>
0

>  <SCORE.SYSTEM.norm>
0

>  <SCORE.heavy>
10

>  <SCORE.norm>
-0.913474

>  <RMSD>
2.025

$$$$
ligand
 OpenBabel11021811473D
libRbt.so/2013.1/901 2013/11/27
 10  9  0  0  0  0  0  0  0  0999 V2000
   31.1327   17.5430   21.9564 N   0  0  0  0  0  0  0  0  0  0  0  0
   31.3660   16.0836   21.7357 C   0  0  2  0  0  0  0  0  0  0  0  0
   31.9670   15.7886   20.3567 C   0  0  0  0  0  0  0  0  0  0  0  0
   31.3279   15.1978   19.4733 O   0  0  0  0  0  0  0  0  0  0  0  0
   30.0793   15.2852   21.9624 C   0  0  0  0  0  0  0  0  0  0  0  0
   28.9466   15.7112   21.0564 C   0  0  0  0  0  0  0  0  0  0  0  0
   27.7118   14.8694   21.2688 C   0  0  0  0  0  0  0  0  0  0  0  0
   26.6536   15.1666   20.2118 C   0  0  0  0  0  0  0  0  0  0  0  0
   27.1108   14.8931   18.8228 N   0  0  0  0  0  0  0  0  0  0  0  0
   33.1061   16.1660   20.0655 O   0  0  0  0  0  0  0  0  0  0  0  0
  2  1  1  6  0  0  0
  2  3  1  0  0  0  0
  2  5  1  0  0  0  0
  3  4  1  0  0  0  0
  3 10  1  0  0  0  0
  5  6  1  0  0  0  0
  6  7  1  0  0  0  0
  7  8  1  0  0  0  0
  8  9  1  0  0  0  0
M  END
>  <CHROM.1>
-111.52655053,58.87360112,177.78764407,-171.43954006,60.27095938,29.96492916
15.66599354,20.66260732,0.19062171,0.17781649,1.20317501

>  <Name>
ligand

>  <RI>
0

>  <Rbt.Current_Directory>
/home/itssahil/PROJECTS/Mol_Feturizer/New_Systems/rnas/3DIY

>  <Rbt.Executable>
rbdock ($Id: //depot/dev/client3/rdock/2013.1/src/exe/rbdock.cxx#4 $)

>  <Rbt.Library>
libRbt.so (2013.1, Build901 2013/11/27)

>  <Rbt.Parameter_File>
/export/apps/rDock/src/rDock_2013.1_src/data/scripts/dock_solv.prm

>  <Rbt.Receptor>
prm/pocket_docking_7.prm

>  <SCORE>
-9.12889

>  <SCORE.INTER>
-9.69994

>  <SCORE.INTER.CONST>
1

>  <SCORE.INTER.POLAR>
0

>  <SCORE.INTER.ROT>
5

>  <SCORE.INTER.SOLV>
13.7982

>  <SCORE.INTER.VDW>
-17.9994

>  <SCORE.INTER.norm>
-0.969994

>  <SCORE.INTRA>
0.571052

>  <SCORE.INTRA.DIHEDRAL>
-0.719549

>  <SCORE.INTRA.DIHEDRAL.0>
2.56603

>  <SCORE.INTRA.POLAR>
0

>  <SCORE.INTRA.POLAR.0>
0

>  <SCORE.INTRA.REPUL>
0

>  <SCORE.INTRA.REPUL.0>
0

>  <SCORE.INTRA.SOLV>
0.311529

>  <SCORE.INTRA.SOLV.lig_0>
-32.0799

>  <SCORE.INTRA.VDW>
0.775062

>  <SCORE.INTRA.VDW.0>
-0.618248

>  <SCORE.INTRA.norm>
0.0571052

>  <SCORE.RESTR>
0

>  <SCORE.RESTR.CAVITY>
0

>  <SCORE.RESTR.norm>
0

>  <SCORE.SYSTEM>
0

>  <SCORE.SYSTEM.CONST>
0

>  <SCORE.SYSTEM.DIHEDRAL>
0

>  <SCORE.SYSTEM.SOLV>
0

>  <SCORE.SYSTEM.norm>
0

>  <SCORE.heavy>
10

>  <SCORE.norm>
-0.912889

>  <RMSD>
2.025

$$$$
ligand
 OpenBabel11021811473D
libRbt.so/2013.1/901 2013/11/27
 10  9  0  0  0  0  0  0  0  0999 V2000
   33.0207   17.0595   22.2672 N   0  0  0  0  0  0  0  0  0  0  0  0
   31.8846   16.4330   21.5257 C   0  0  2  0  0  0  0  0  0  0  0  0
   32.2932   15.9472   20.1303 C   0  0  0  0  0  0  0  0  0  0  0  0
   31.5770   15.1857   19.4631 O   0  0  0  0  0  0  0  0  0  0  0  0
   30.6888   17.3865   21.4531 C   0  0  0  0  0  0  0  0  0  0  0  0
   29.4538   16.7488   20.8585 C   0  0  0  0  0  0  0  0  0  0  0  0
   28.9091   15.6518   21.7408 C   0  0  0  0  0  0  0  0  0  0  0  0
   27.5834   15.1214   21.2057 C   0  0  0  0  0  0  0  0  0  0  0  0
   27.6772   14.5784   19.8238 N   0  0  0  0  0  0  0  0  0  0  0  0
   33.3426   16.3316   19.6052 O   0  0  0  0  0  0  0  0  0  0  0  0
  2  1  1  6  0  0  0
  2  3  1  0  0  0  0
  2  5  1  0  0  0  0
  3  4  1  0  0  0  0
  3 10  1  0  0  0  0
  5  6  1  0  0  0  0
  6  7  1  0  0  0  0
  7  8  1  0  0  0  0
  8  9  1  0  0  0  0
M  END
>  <CHROM.1>
166.20291035,-173.18224978,66.17590716,173.86549600,58.69932896,30.66148914
16.03508363,20.77620235,0.13012043,0.22686991,0.97989636

>  <Name>
ligand

>  <RI>
0

>  <Rbt.Current_Directory>
/home/itssahil/PROJECTS/Mol_Feturizer/New_Systems/rnas/3DIY

>  <Rbt.Executable>
rbdock ($Id: //depot/dev/client3/rdock/2013.1/src/exe/rbdock.cxx#4 $)

>  <Rbt.Library>
libRbt.so (2013.1, Build901 2013/11/27)

>  <Rbt.Parameter_File>
/export/apps/rDock/src/rDock_2013.1_src/data/scripts/dock_solv.prm

>  <Rbt.Receptor>
prm/pocket_docking_3.prm

>  <SCORE>
-7.50542

>  <SCORE.INTER>
-7.32822

>  <SCORE.INTER.CONST>
1

>  <SCORE.INTER.POLAR>
0

>  <SCORE.INTER.ROT>
5

>  <SCORE.INTER.SOLV>
14.4636

>  <SCORE.INTER.VDW>
-16.64

>  <SCORE.INTER.norm>
-0.732822

>  <SCORE.INTRA>
-0.177197

>  <SCORE.INTRA.DIHEDRAL>
-0.598483

>  <SCORE.INTRA.DIHEDRAL.0>
2.56603

>  <SCORE.INTRA.POLAR>
0

>  <SCORE.INTRA.POLAR.0>
0

>  <SCORE.INTRA.REPUL>
0

>  <SCORE.INTRA.REPUL.0>
0

>  <SCORE.INTRA.SOLV>
-0.354746

>  <SCORE.INTRA.SOLV.lig_0>
-32.0799

>  <SCORE.INTRA.VDW>
0.299418

>  <SCORE.INTRA.VDW.0>
-0.618248

>  <SCORE.INTRA.norm>
-0.0177197

>  <SCORE.RESTR>
0

>  <SCORE.RESTR.CAVITY>
0

>  <SCORE.RESTR.norm>
0

>  <SCORE.SYSTEM>
0

>  <SCORE.SYSTEM.CONST>
0

>  <SCORE.SYSTEM.DIHEDRAL>
0

>  <SCORE.SYSTEM.SOLV>
0

>  <SCORE.SYSTEM.norm>
0

>  <SCORE.heavy>
10

>  <SCORE.norm>
-0.750542

>  <RMSD>
2.049

$$$$
ligand
 OpenBabel11021811473D
libRbt.so/2013.1/901 2013/11/27
 10  9  0  0  0  0  0  0  0  0999 V2000
   29.8921   17.7548   20.5865 N   0  0  0  0  0  0  0  0  0  0  0  0
   30.1076   16.4403   21.2637 C   0  0  2  0  0  0  0  0  0  0  0  0
   31.5923   16.0752   21.3747 C   0  0  0  0  0  0  0  0  0  0  0  0
   32.2746   15.7856   20.3804 O   0  0  0  0  0  0  0  0  0  0  0  0
   29.3141   15.3314   20.5673 C   0  0  0  0  0  0  0  0  0  0  0  0
   27.8395   15.6412   20.4445 C   0  0  0  0  0  0  0  0  0  0  0  0
   27.1016   14.5645   19.6866 C   0  0  0  0  0  0  0  0  0  0  0  0
   27.5587   14.5016   18.2332 C   0  0  0  0  0  0  0  0  0  0  0  0
   26.8998   13.4209   17.4514 N   0  0  0  0  0  0  0  0  0  0  0  0
   32.1719   16.0933   22.4649 O   0  0  0  0  0  0  0  0  0  0  0  0
  2  1  1  6  0  0  0
  2  3  1  0  0  0  0
  2  5  1  0  0  0  0
  3  4  1  0  0  0  0
  3 10  1  0  0  0  0
  5  6  1  0  0  0  0
  6  7  1  0  0  0  0
  7  8  1  0  0  0  0
  8  9  1  0  0  0  0
M  END
>  <CHROM.1>
-68.96294331,-54.55169138,176.82438225,-65.59124447,177.79551030,29.51759795
15.55783088,20.25517277,0.66524183,-0.15848253,0.76464494

>  <Name>
ligand

>  <RI>
0

>  <Rbt.Current_Directory>
/home/itssahil/PROJECTS/Mol_Feturizer/New_Systems/rnas/3DIY

>  <Rbt.Executable>
rbdock ($Id: //depot/dev/client3/rdock/2013.1/src/exe/rbdock.cxx#4 $)

>  <Rbt.Library>
libRbt.so (2013.1, Build901 2013/11/27)

>  <Rbt.Parameter_File>
/export/apps/rDock/src/rDock_2013.1_src/data/scripts/dock_solv.prm

>  <Rbt.Receptor>
prm/blind_docking_60.prm

>  <SCORE>
-5.75734

>  <SCORE.INTER>
-5.93329

>  <SCORE.INTER.CONST>
1

>  <SCORE.INTER.POLAR>
0

>  <SCORE.INTER.ROT>
5

>  <SCORE.INTER.SOLV>
19.0148

>  <SCORE.INTER.VDW>
-17.2271

>  <SCORE.INTER.norm>
-0.593329

>  <SCORE.INTRA>
0.175957

>  <SCORE.INTRA.DIHEDRAL>
-0.775345

>  <SCORE.INTRA.DIHEDRAL.0>
2.56603

>  <SCORE.INTRA.POLAR>
0

>  <SCORE.INTRA.POLAR.0>
0

>  <SCORE.INTRA.REPUL>
0

>  <SCORE.INTRA.REPUL.0>
0

>  <SCORE.INTRA.SOLV>
-0.28316

>  <SCORE.INTRA.SOLV.lig_0>
-32.0799

>  <SCORE.INTRA.VDW>
0.705209

>  <SCORE.INTRA.VDW.0>
-0.618248

>  <SCORE.INTRA.norm>
0.0175957

>  <SCORE.RESTR>
0

>  <SCORE.RESTR.CAVITY>
0

>  <SCORE.RESTR.norm>
0

>  <SCORE.SYSTEM>
0

>  <SCORE.SYSTEM.CONST>
0

>  <SCORE.SYSTEM.DIHEDRAL>
0

>  <SCORE.SYSTEM.SOLV>
0

>  <SCORE.SYSTEM.norm>
0

>  <SCORE.heavy>
10

>  <SCORE.norm>
-0.575734

>  <RMSD>
2.077

$$$$
ligand
 OpenBabel11021811473D
libRbt.so/2013.1/901 2013/11/27
 10  9  0  0  0  0  0  0  0  0999 V2000
   32.4914   16.3800   20.6412 N   0  0  0  0  0  0  0  0  0  0  0  0
   31.1555   17.0481   20.6862 C   0  0  2  0  0  0  0  0  0  0  0  0
   30.7655   17.4826   22.1036 C   0  0  0  0  0  0  0  0  0  0  0  0
   30.9434   18.6411   22.5088 O   0  0  0  0  0  0  0  0  0  0  0  0
   30.0782   16.1559   20.0633 C   0  0  0  0  0  0  0  0  0  0  0  0
   28.7253   16.8252   19.9805 C   0  0  0  0  0  0  0  0  0  0  0  0
   27.6844   15.9130   19.3781 C   0  0  0  0  0  0  0  0  0  0  0  0
   27.3960   14.7267   20.2918 C   0  0  0  0  0  0  0  0  0  0  0  0
   26.8897   15.1221   21.6337 N   0  0  0  0  0  0  0  0  0  0  0  0
   30.2226   16.6942   22.8837 O   0  0  0  0  0  0  0  0  0  0  0  0
  2  1  1  1  0  0  0
  2  3  1  0  0  0  0
  2  5  1  0  0  0  0
  3  4  1  0  0  0  0
  3 10  1  0  0  0  0
  5  6  1  0  0  0  0
  6  7  1  0  0  0  0
  7  8  1  0  0  0  0
  8  9  1  0  0  0  0
M  END
>  <CHROM.1>
97.08557389,-175.38416861,-179.29353001,66.71198141,59.83535331,29.63468700
16.51379807,21.05085737,-0.47112747,-0.34783155,-1.95499120

>  <Name>
ligand

>  <RI>
0

>  <Rbt.Current_Directory>
/home/itssahil/PROJECTS/Mol_Feturizer/New_Systems/rnas/3DIY

>  <Rbt.Executable>
rbdock ($Id: //depot/dev/client3/rdock/2013.1/src/exe/rbdock.cxx#4 $)

>  <Rbt.Library>
libRbt.so (2013.1, Build901 2013/11/27)

>  <Rbt.Parameter_File>
/export/apps/rDock/src/rDock_2013.1_src/data/scripts/dock_solv.prm

>  <Rbt.Receptor>
prm/blind_docking_80.prm

>  <SCORE>
-5.52793

>  <SCORE.INTER>
-5.98179

>  <SCORE.INTER.CONST>
1

>  <SCORE.INTER.POLAR>
0

>  <SCORE.INTER.ROT>
5

>  <SCORE.INTER.SOLV>
17.159

>  <SCORE.INTER.VDW>
-16.6409

>  <SCORE.INTER.norm>
-0.598179

>  <SCORE.INTRA>
0.45386

>  <SCORE.INTRA.DIHEDRAL>
-0.695745

>  <SCORE.INTRA.DIHEDRAL.0>
2.56603

>  <SCORE.INTRA.POLAR>
0

>  <SCORE.INTRA.POLAR.0>
0

>  <SCORE.INTRA.REPUL>
0

>  <SCORE.INTRA.REPUL.0>
0

>  <SCORE.INTRA.SOLV>
-0.055322

>  <SCORE.INTRA.SOLV.lig_0>
-32.0799

>  <SCORE.INTRA.VDW>
0.829393

>  <SCORE.INTRA.VDW.0>
-0.618248

>  <SCORE.INTRA.norm>
0.045386

>  <SCORE.RESTR>
0

>  <SCORE.RESTR.CAVITY>
0

>  <SCORE.RESTR.norm>
0

>  <SCORE.SYSTEM>
0

>  <SCORE.SYSTEM.CONST>
0

>  <SCORE.SYSTEM.DIHEDRAL>
0

>  <SCORE.SYSTEM.SOLV>
0

>  <SCORE.SYSTEM.norm>
0

>  <SCORE.heavy>
10

>  <SCORE.norm>
-0.552793

>  <RMSD>
2.080

$$$$
ligand
 OpenBabel11021811473D
libRbt.so/2013.1/901 2013/11/27
 10  9  0  0  0  0  0  0  0  0999 V2000
   33.0445   17.2509   22.1742 N   0  0  0  0  0  0  0  0  0  0  0  0
   31.9697   16.3273   21.7000 C   0  0  2  0  0  0  0  0  0  0  0  0
   31.9760   16.1549   20.1768 C   0  0  0  0  0  0  0  0  0  0  0  0
   31.4404   15.1832   19.6225 O   0  0  0  0  0  0  0  0  0  0  0  0
   30.5971   16.7848   22.2009 C   0  0  0  0  0  0  0  0  0  0  0  0
   29.5253   15.7296   22.0484 C   0  0  0  0  0  0  0  0  0  0  0  0
   28.8638   15.7942   20.6932 C   0  0  0  0  0  0  0  0  0  0  0  0
   27.7681   14.7415   20.5640 C   0  0  0  0  0  0  0  0  0  0  0  0
   27.1055   14.7368   19.2320 N   0  0  0  0  0  0  0  0  0  0  0  0
   32.4881   17.0054   19.4426 O   0  0  0  0  0  0  0  0  0  0  0  0
  2  1  1  6  0  0  0
  2  3  1  0  0  0  0
  2  5  1  0  0  0  0
  3  4  1  0  0  0  0
  3 10  1  0  0  0  0
  5  6  1  0  0  0  0
  6  7  1  0  0  0  0
  7  8  1  0  0  0  0
  8  9  1  0  0  0  0
M  END
>  <CHROM.1>
159.54049157,-165.90566081,-87.68775276,-178.93972929,-178.48397717,30.48748129
15.96913607,20.75261602,0.27217186,0.31461251,1.30973807

>  <Name>
ligand

>  <RI>
0

>  <Rbt.Current_Directory>
/home/itssahil/PROJECTS/Mol_Feturizer/New_Systems/rnas/3DIY

>  <Rbt.Executable>
rbdock ($Id: //depot/dev/client3/rdock/2013.1/src/exe/rbdock.cxx#4 $)

>  <Rbt.Library>
libRbt.so (2013.1, Build901 2013/11/27)

>  <Rbt.Parameter_File>
/export/apps/rDock/src/rDock_2013.1_src/data/scripts/dock_solv.prm

>  <Rbt.Receptor>
prm/pocket_docking_3.prm

>  <SCORE>
-5.72535

>  <SCORE.INTER>
-6.16722

>  <SCORE.INTER.CONST>
1

>  <SCORE.INTER.POLAR>
0

>  <SCORE.INTER.ROT>
5

>  <SCORE.INTER.SOLV>
15.5172

>  <SCORE.INTER.VDW>
-16.2172

>  <SCORE.INTER.norm>
-0.616722

>  <SCORE.INTRA>
0.44187

>  <SCORE.INTRA.DIHEDRAL>
2.31183

>  <SCORE.INTRA.DIHEDRAL.0>
2.56603

>  <SCORE.INTRA.POLAR>
0

>  <SCORE.INTRA.POLAR.0>
0

>  <SCORE.INTRA.REPUL>
0

>  <SCORE.INTRA.REPUL.0>
0

>  <SCORE.INTRA.SOLV>
-1.53876

>  <SCORE.INTRA.SOLV.lig_0>
-32.0799

>  <SCORE.INTRA.VDW>
0.0553343

>  <SCORE.INTRA.VDW.0>
-0.618248

>  <SCORE.INTRA.norm>
0.044187

>  <SCORE.RESTR>
0

>  <SCORE.RESTR.CAVITY>
0

>  <SCORE.RESTR.norm>
0

>  <SCORE.SYSTEM>
0

>  <SCORE.SYSTEM.CONST>
0

>  <SCORE.SYSTEM.DIHEDRAL>
0

>  <SCORE.SYSTEM.SOLV>
0

>  <SCORE.SYSTEM.norm>
0

>  <SCORE.heavy>
10

>  <SCORE.norm>
-0.572535

>  <RMSD>
2.105

$$$$
ligand
 OpenBabel11021811473D
libRbt.so/2013.1/901 2013/11/27
 10  9  0  0  0  0  0  0  0  0999 V2000
   30.7238   15.7000   22.3212 N   0  0  0  0  0  0  0  0  0  0  0  0
   30.9121   15.3641   20.8774 C   0  0  2  0  0  0  0  0  0  0  0  0
   32.1548   16.0323   20.2780 C   0  0  0  0  0  0  0  0  0  0  0  0
   32.7838   16.9138   20.8823 O   0  0  0  0  0  0  0  0  0  0  0  0
   29.6560   15.7031   20.0702 C   0  0  0  0  0  0  0  0  0  0  0  0
   28.4731   14.8264   20.4130 C   0  0  0  0  0  0  0  0  0  0  0  0
   27.2775   15.1332   19.5442 C   0  0  0  0  0  0  0  0  0  0  0  0
   27.5475   14.7720   18.0875 C   0  0  0  0  0  0  0  0  0  0  0  0
   27.8156   13.3240   17.8763 N   0  0  0  0  0  0  0  0  0  0  0  0
   32.5955   15.6849   19.1780 O   0  0  0  0  0  0  0  0  0  0  0  0
  2  1  1  1  0  0  0
  2  3  1  0  0  0  0
  2  5  1  0  0  0  0
  3  4  1  0  0  0  0
  3 10  1  0  0  0  0
  5  6  1  0  0  0  0
  6  7  1  0  0  0  0
  7  8  1  0  0  0  0
  8  9  1  0  0  0  0
M  END
>  <CHROM.1>
-10.88662771,-67.57184492,-176.67258518,66.00189808,61.91274120,30.03210346
15.36235486,19.94367068,0.46797515,0.25371280,1.29448367

>  <Name>
ligand

>  <RI>
0

>  <Rbt.Current_Directory>
/home/itssahil/PROJECTS/Mol_Feturizer/New_Systems/rnas/3DIY

>  <Rbt.Executable>
rbdock ($Id: //depot/dev/client3/rdock/2013.1/src/exe/rbdock.cxx#4 $)

>  <Rbt.Library>
libRbt.so (2013.1, Build901 2013/11/27)

>  <Rbt.Parameter_File>
/export/apps/rDock/src/rDock_2013.1_src/data/scripts/dock_solv.prm

>  <Rbt.Receptor>
prm/blind_docking_60.prm

>  <SCORE>
-6.9449

>  <SCORE.INTER>
-7.67222

>  <SCORE.INTER.CONST>
1

>  <SCORE.INTER.POLAR>
0

>  <SCORE.INTER.ROT>
5

>  <SCORE.INTER.SOLV>
16.1238

>  <SCORE.INTER.VDW>
-17.4227

>  <SCORE.INTER.norm>
-0.767222

>  <SCORE.INTRA>
0.727315

>  <SCORE.INTRA.DIHEDRAL>
-0.528302

>  <SCORE.INTRA.DIHEDRAL.0>
2.56603

>  <SCORE.INTRA.POLAR>
0

>  <SCORE.INTRA.POLAR.0>
0

>  <SCORE.INTRA.REPUL>
0

>  <SCORE.INTRA.REPUL.0>
0

>  <SCORE.INTRA.SOLV>
0.691235

>  <SCORE.INTRA.SOLV.lig_0>
-32.0799

>  <SCORE.INTRA.VDW>
0.645848

>  <SCORE.INTRA.VDW.0>
-0.618248

>  <SCORE.INTRA.norm>
0.0727315

>  <SCORE.RESTR>
0

>  <SCORE.RESTR.CAVITY>
0

>  <SCORE.RESTR.norm>
0

>  <SCORE.SYSTEM>
0

>  <SCORE.SYSTEM.CONST>
0

>  <SCORE.SYSTEM.DIHEDRAL>
0

>  <SCORE.SYSTEM.SOLV>
0

>  <SCORE.SYSTEM.norm>
0

>  <SCORE.heavy>
10

>  <SCORE.norm>
-0.69449

>  <RMSD>
2.123

$$$$
ligand
 OpenBabel11021811473D
libRbt.so/2013.1/901 2013/11/27
 10  9  0  0  0  0  0  0  0  0999 V2000
   32.0574   17.6951   22.0489 N   0  0  0  0  0  0  0  0  0  0  0  0
   31.5260   16.3432   21.6985 C   0  0  2  0  0  0  0  0  0  0  0  0
   32.0171   15.8578   20.3298 C   0  0  0  0  0  0  0  0  0  0  0  0
   31.2888   15.2130   19.5604 O   0  0  0  0  0  0  0  0  0  0  0  0
   29.9973   16.3202   21.7796 C   0  0  0  0  0  0  0  0  0  0  0  0
   29.4224   14.9220   21.7916 C   0  0  0  0  0  0  0  0  0  0  0  0
   27.9141   14.9355   21.7350 C   0  0  0  0  0  0  0  0  0  0  0  0
   27.4182   15.3038   20.3408 C   0  0  0  0  0  0  0  0  0  0  0  0
   25.9459   15.1637   20.1798 N   0  0  0  0  0  0  0  0  0  0  0  0
   33.1538   16.1273   19.9298 O   0  0  0  0  0  0  0  0  0  0  0  0
  2  1  1  6  0  0  0
  2  3  1  0  0  0  0
  2  5  1  0  0  0  0
  3  4  1  0  0  0  0
  3 10  1  0  0  0  0
  5  6  1  0  0  0  0
  6  7  1  0  0  0  0
  7  8  1  0  0  0  0
  8  9  1  0  0  0  0
M  END
>  <CHROM.1>
-142.56195085,-165.04762194,-174.39151819,73.81558770,172.62762455,30.09630440
15.77970861,20.90925295,0.10414371,0.21274449,1.09333728

>  <Name>
ligand

>  <RI>
0

>  <Rbt.Current_Directory>
/home/itssahil/PROJECTS/Mol_Feturizer/New_Systems/rnas/3DIY

>  <Rbt.Executable>
rbdock ($Id: //depot/dev/client3/rdock/2013.1/src/exe/rbdock.cxx#4 $)

>  <Rbt.Library>
libRbt.so (2013.1, Build901 2013/11/27)

>  <Rbt.Parameter_File>
/export/apps/rDock/src/rDock_2013.1_src/data/scripts/dock_solv.prm

>  <Rbt.Receptor>
prm/pocket_docking_2.prm

>  <SCORE>
-7.13236

>  <SCORE.INTER>
-7.80595

>  <SCORE.INTER.CONST>
1

>  <SCORE.INTER.POLAR>
0

>  <SCORE.INTER.ROT>
5

>  <SCORE.INTER.SOLV>
17.6641

>  <SCORE.INTER.VDW>
-18.0253

>  <SCORE.INTER.norm>
-0.780595

>  <SCORE.INTRA>
0.67359

>  <SCORE.INTRA.DIHEDRAL>
0.933597

>  <SCORE.INTRA.DIHEDRAL.0>
2.56603

>  <SCORE.INTRA.POLAR>
0

>  <SCORE.INTRA.POLAR.0>
0

>  <SCORE.INTRA.REPUL>
0

>  <SCORE.INTRA.REPUL.0>
0

>  <SCORE.INTRA.SOLV>
-1.4003

>  <SCORE.INTRA.SOLV.lig_0>
-32.0799

>  <SCORE.INTRA.VDW>
0.906941

>  <SCORE.INTRA.VDW.0>
-0.618248

>  <SCORE.INTRA.norm>
0.067359

>  <SCORE.RESTR>
0

>  <SCORE.RESTR.CAVITY>
0

>  <SCORE.RESTR.norm>
0

>  <SCORE.SYSTEM>
0

>  <SCORE.SYSTEM.CONST>
0

>  <SCORE.SYSTEM.DIHEDRAL>
0

>  <SCORE.SYSTEM.SOLV>
0

>  <SCORE.SYSTEM.norm>
0

>  <SCORE.heavy>
10

>  <SCORE.norm>
-0.713236

>  <RMSD>
2.123

$$$$
ligand
 OpenBabel11021811473D
libRbt.so/2013.1/901 2013/11/27
 10  9  0  0  0  0  0  0  0  0999 V2000
   30.2894   16.3498   22.2577 N   0  0  0  0  0  0  0  0  0  0  0  0
   30.7104   15.6243   21.0210 C   0  0  2  0  0  0  0  0  0  0  0  0
   32.0036   16.1891   20.4223 C   0  0  0  0  0  0  0  0  0  0  0  0
   32.5277   17.2283   20.8506 O   0  0  0  0  0  0  0  0  0  0  0  0
   29.5812   15.6081   19.9871 C   0  0  0  0  0  0  0  0  0  0  0  0
   28.3623   14.8418   20.4483 C   0  0  0  0  0  0  0  0  0  0  0  0
   27.3246   14.7301   19.3579 C   0  0  0  0  0  0  0  0  0  0  0  0
   27.8353   13.8857   18.1953 C   0  0  0  0  0  0  0  0  0  0  0  0
   26.7979   13.6052   17.1666 N   0  0  0  0  0  0  0  0  0  0  0  0
   32.5911   15.6017   19.5087 O   0  0  0  0  0  0  0  0  0  0  0  0
  2  1  1  1  0  0  0
  2  3  1  0  0  0  0
  2  5  1  0  0  0  0
  3  4  1  0  0  0  0
  3 10  1  0  0  0  0
  5  6  1  0  0  0  0
  6  7  1  0  0  0  0
  7  8  1  0  0  0  0
  8  9  1  0  0  0  0
M  END
>  <CHROM.1>
-7.81634708,-64.19930773,-174.39759655,65.70782971,173.04218581,29.84185082
15.38222756,19.91382727,0.58520589,0.26286569,1.18356123

>  <Name>
ligand

>  <RI>
0

>  <Rbt.Current_Directory>
/home/itssahil/PROJECTS/Mol_Feturizer/New_Systems/rnas/3DIY

>  <Rbt.Executable>
rbdock ($Id: //depot/dev/client3/rdock/2013.1/src/exe/rbdock.cxx#4 $)

>  <Rbt.Library>
libRbt.so (2013.1, Build901 2013/11/27)

>  <Rbt.Parameter_File>
/export/apps/rDock/src/rDock_2013.1_src/data/scripts/dock_solv.prm

>  <Rbt.Receptor>
prm/pocket_docking_4.prm

>  <SCORE>
-6.39173

>  <SCORE.INTER>
-6.55769

>  <SCORE.INTER.CONST>
1

>  <SCORE.INTER.POLAR>
0

>  <SCORE.INTER.ROT>
5

>  <SCORE.INTER.SOLV>
17.3615

>  <SCORE.INTER.VDW>
-17.0923

>  <SCORE.INTER.norm>
-0.655769

>  <SCORE.INTRA>
0.165964

>  <SCORE.INTRA.DIHEDRAL>
-0.461859

>  <SCORE.INTRA.DIHEDRAL.0>
2.56603

>  <SCORE.INTRA.POLAR>
0

>  <SCORE.INTRA.POLAR.0>
0

>  <SCORE.INTRA.REPUL>
0

>  <SCORE.INTRA.REPUL.0>
0

>  <SCORE.INTRA.SOLV>
-0.515908

>  <SCORE.INTRA.SOLV.lig_0>
-32.0799

>  <SCORE.INTRA.VDW>
0.654848

>  <SCORE.INTRA.VDW.0>
-0.618248

>  <SCORE.INTRA.norm>
0.0165964

>  <SCORE.RESTR>
0

>  <SCORE.RESTR.CAVITY>
0

>  <SCORE.RESTR.norm>
0

>  <SCORE.SYSTEM>
0

>  <SCORE.SYSTEM.CONST>
0

>  <SCORE.SYSTEM.DIHEDRAL>
0

>  <SCORE.SYSTEM.SOLV>
0

>  <SCORE.SYSTEM.norm>
0

>  <SCORE.heavy>
10

>  <SCORE.norm>
-0.639173

>  <RMSD>
2.205

$$$$
ligand
 OpenBabel11021811473D
libRbt.so/2013.1/901 2013/11/27
 10  9  0  0  0  0  0  0  0  0999 V2000
   29.1057   17.1036   19.6705 N   0  0  0  0  0  0  0  0  0  0  0  0
   29.9853   16.6934   20.8068 C   0  0  2  0  0  0  0  0  0  0  0  0
   31.2020   15.8845   20.3430 C   0  0  0  0  0  0  0  0  0  0  0  0
   32.3011   15.9647   20.9119 O   0  0  0  0  0  0  0  0  0  0  0  0
   29.1858   15.9334   21.8686 C   0  0  0  0  0  0  0  0  0  0  0  0
   28.5452   14.6699   21.3407 C   0  0  0  0  0  0  0  0  0  0  0  0
   27.0684   14.8535   21.0879 C   0  0  0  0  0  0  0  0  0  0  0  0
   26.8145   15.4327   19.7003 C   0  0  0  0  0  0  0  0  0  0  0  0
   27.2861   14.5538   18.5965 N   0  0  0  0  0  0  0  0  0  0  0  0
   31.1166   15.0912   19.4005 O   0  0  0  0  0  0  0  0  0  0  0  0
  2  1  1  6  0  0  0
  2  3  1  0  0  0  0
  2  5  1  0  0  0  0
  3  4  1  0  0  0  0
  3 10  1  0  0  0  0
  5  6  1  0  0  0  0
  6  7  1  0  0  0  0
  7  8  1  0  0  0  0
  8  9  1  0  0  0  0
M  END
>  <CHROM.1>
146.08185003,60.26811240,-102.72692035,85.80075771,62.00146046,29.29689661
15.60401119,20.36430241,-0.15113082,-0.18938193,-1.72132256

>  <Name>
ligand

>  <RI>
0

>  <Rbt.Current_Directory>
/home/itssahil/PROJECTS/Mol_Feturizer/New_Systems/rnas/3DIY

>  <Rbt.Executable>
rbdock ($Id: //depot/dev/client3/rdock/2013.1/src/exe/rbdock.cxx#4 $)

>  <Rbt.Library>
libRbt.so (2013.1, Build901 2013/11/27)

>  <Rbt.Parameter_File>
/export/apps/rDock/src/rDock_2013.1_src/data/scripts/dock_solv.prm

>  <Rbt.Receptor>
prm/pocket_docking_4.prm

>  <SCORE>
-3.41299

>  <SCORE.INTER>
-8.93475

>  <SCORE.INTER.CONST>
1

>  <SCORE.INTER.POLAR>
0

>  <SCORE.INTER.ROT>
5

>  <SCORE.INTER.SOLV>
14.77

>  <SCORE.INTER.VDW>
-17.8132

>  <SCORE.INTER.norm>
-0.893475

>  <SCORE.INTRA>
5.52176

>  <SCORE.INTRA.DIHEDRAL>
6.26243

>  <SCORE.INTRA.DIHEDRAL.0>
2.56603

>  <SCORE.INTRA.POLAR>
0

>  <SCORE.INTRA.POLAR.0>
0

>  <SCORE.INTRA.REPUL>
0

>  <SCORE.INTRA.REPUL.0>
0

>  <SCORE.INTRA.SOLV>
4.43051

>  <SCORE.INTRA.SOLV.lig_0>
-32.0799

>  <SCORE.INTRA.VDW>
0.175291

>  <SCORE.INTRA.VDW.0>
-0.618248

>  <SCORE.INTRA.norm>
0.552176

>  <SCORE.RESTR>
0

>  <SCORE.RESTR.CAVITY>
0

>  <SCORE.RESTR.norm>
0

>  <SCORE.SYSTEM>
0

>  <SCORE.SYSTEM.CONST>
0

>  <SCORE.SYSTEM.DIHEDRAL>
0

>  <SCORE.SYSTEM.SOLV>
0

>  <SCORE.SYSTEM.norm>
0

>  <SCORE.heavy>
10

>  <SCORE.norm>
-0.341299

>  <RMSD>
2.269

$$$$
ligand
 OpenBabel11021811473D
libRbt.so/2013.1/901 2013/11/27
 10  9  0  0  0  0  0  0  0  0999 V2000
   30.2876   16.6418   22.6475 N   0  0  0  0  0  0  0  0  0  0  0  0
   30.6469   15.5921   21.6465 C   0  0  2  0  0  0  0  0  0  0  0  0
   31.5227   16.1388   20.5133 C   0  0  0  0  0  0  0  0  0  0  0  0
   32.3175   15.4190   19.8904 O   0  0  0  0  0  0  0  0  0  0  0  0
   29.3911   14.9096   21.0972 C   0  0  0  0  0  0  0  0  0  0  0  0
   28.4428   15.8684   20.4138 C   0  0  0  0  0  0  0  0  0  0  0  0
   27.3691   15.1403   19.6422 C   0  0  0  0  0  0  0  0  0  0  0  0
   27.9444   14.4617   18.4037 C   0  0  0  0  0  0  0  0  0  0  0  0
   26.9361   13.6888   17.6297 N   0  0  0  0  0  0  0  0  0  0  0  0
   31.4377   17.3179   20.1563 O   0  0  0  0  0  0  0  0  0  0  0  0
  2  1  1  1  0  0  0
  2  3  1  0  0  0  0
  2  5  1  0  0  0  0
  3  4  1  0  0  0  0
  3 10  1  0  0  0  0
  5  6  1  0  0  0  0
  6  7  1  0  0  0  0
  7  8  1  0  0  0  0
  8  9  1  0  0  0  0
M  END
>  <CHROM.1>
152.62796844,59.65565757,168.23873249,-70.70553897,178.00945892,29.65841691
15.53231646,20.18428612,0.63801162,0.23043962,1.20166782

>  <Name>
ligand

>  <RI>
0

>  <Rbt.Current_Directory>
/home/itssahil/PROJECTS/Mol_Feturizer/New_Systems/rnas/3DIY

>  <Rbt.Executable>
rbdock ($Id: //depot/dev/client3/rdock/2013.1/src/exe/rbdock.cxx#4 $)

>  <Rbt.Library>
libRbt.so (2013.1, Build901 2013/11/27)

>  <Rbt.Parameter_File>
/export/apps/rDock/src/rDock_2013.1_src/data/scripts/dock_solv.prm

>  <Rbt.Receptor>
prm/pocket_docking_6.prm

>  <SCORE>
-6.52651

>  <SCORE.INTER>
-6.58368

>  <SCORE.INTER.CONST>
1

>  <SCORE.INTER.POLAR>
0

>  <SCORE.INTER.ROT>
5

>  <SCORE.INTER.SOLV>
17.0982

>  <SCORE.INTER.VDW>
-17.0219

>  <SCORE.INTER.norm>
-0.658368

>  <SCORE.INTRA>
0.0571715

>  <SCORE.INTRA.DIHEDRAL>
-0.0528183

>  <SCORE.INTRA.DIHEDRAL.0>
2.56603

>  <SCORE.INTRA.POLAR>
0

>  <SCORE.INTRA.POLAR.0>
0

>  <SCORE.INTRA.REPUL>
0

>  <SCORE.INTRA.REPUL.0>
0

>  <SCORE.INTRA.SOLV>
-0.476686

>  <SCORE.INTRA.SOLV.lig_0>
-32.0799

>  <SCORE.INTRA.VDW>
0.321924

>  <SCORE.INTRA.VDW.0>
-0.618248

>  <SCORE.INTRA.norm>
0.00571715

>  <SCORE.RESTR>
0

>  <SCORE.RESTR.CAVITY>
0

>  <SCORE.RESTR.norm>
0

>  <SCORE.SYSTEM>
0

>  <SCORE.SYSTEM.CONST>
0

>  <SCORE.SYSTEM.DIHEDRAL>
0

>  <SCORE.SYSTEM.SOLV>
0

>  <SCORE.SYSTEM.norm>
0

>  <SCORE.heavy>
10

>  <SCORE.norm>
-0.652651

>  <RMSD>
2.278

$$$$
ligand
 OpenBabel11021811473D
libRbt.so/2013.1/901 2013/11/27
 10  9  0  0  0  0  0  0  0  0999 V2000
   31.5977   17.2296   22.0990 N   0  0  0  0  0  0  0  0  0  0  0  0
   30.9731   15.9503   21.6449 C   0  0  2  0  0  0  0  0  0  0  0  0
   31.4590   15.5223   20.2554 C   0  0  0  0  0  0  0  0  0  0  0  0
   30.6956   15.0189   19.4178 O   0  0  0  0  0  0  0  0  0  0  0  0
   29.4455   16.0415   21.6947 C   0  0  0  0  0  0  0  0  0  0  0  0
   28.7626   14.7066   21.5018 C   0  0  0  0  0  0  0  0  0  0  0  0
   27.2681   14.8577   21.3530 C   0  0  0  0  0  0  0  0  0  0  0  0
   26.9123   15.5591   20.0466 C   0  0  0  0  0  0  0  0  0  0  0  0
   27.3677   14.8233   18.8364 N   0  0  0  0  0  0  0  0  0  0  0  0
   32.6307   15.7005   19.9088 O   0  0  0  0  0  0  0  0  0  0  0  0
  2  1  1  6  0  0  0
  2  3  1  0  0  0  0
  2  5  1  0  0  0  0
  3  4  1  0  0  0  0
  3 10  1  0  0  0  0
  5  6  1  0  0  0  0
  6  7  1  0  0  0  0
  7  8  1  0  0  0  0
  8  9  1  0  0  0  0
M  END
>  <CHROM.1>
-140.84800171,-169.05031660,-171.60631873,67.90243044,60.87889928,29.73189541
15.53311549,20.64667397,0.18890019,0.16529911,1.19688773

>  <Name>
ligand

>  <RI>
0

>  <Rbt.Current_Directory>
/home/itssahil/PROJECTS/Mol_Feturizer/New_Systems/rnas/3DIY

>  <Rbt.Executable>
rbdock ($Id: //depot/dev/client3/rdock/2013.1/src/exe/rbdock.cxx#4 $)

>  <Rbt.Library>
libRbt.so (2013.1, Build901 2013/11/27)

>  <Rbt.Parameter_File>
/export/apps/rDock/src/rDock_2013.1_src/data/scripts/dock_solv.prm

>  <Rbt.Receptor>
prm/pocket_docking_2.prm

>  <SCORE>
-8.62533

>  <SCORE.INTER>
-10.0291

>  <SCORE.INTER.CONST>
1

>  <SCORE.INTER.POLAR>
0

>  <SCORE.INTER.ROT>
5

>  <SCORE.INTER.SOLV>
12.5355

>  <SCORE.INTER.VDW>
-17.7979

>  <SCORE.INTER.norm>
-1.00291

>  <SCORE.INTRA>
1.40378

>  <SCORE.INTRA.DIHEDRAL>
0.0192508

>  <SCORE.INTRA.DIHEDRAL.0>
2.56603

>  <SCORE.INTRA.POLAR>
0

>  <SCORE.INTRA.POLAR.0>
0

>  <SCORE.INTRA.REPUL>
0

>  <SCORE.INTRA.REPUL.0>
0

>  <SCORE.INTRA.SOLV>
0.254876

>  <SCORE.INTRA.SOLV.lig_0>
-32.0799

>  <SCORE.INTRA.VDW>
1.26671

>  <SCORE.INTRA.VDW.0>
-0.618248

>  <SCORE.INTRA.norm>
0.140378

>  <SCORE.RESTR>
0

>  <SCORE.RESTR.CAVITY>
0

>  <SCORE.RESTR.norm>
0

>  <SCORE.SYSTEM>
0

>  <SCORE.SYSTEM.CONST>
0

>  <SCORE.SYSTEM.DIHEDRAL>
0

>  <SCORE.SYSTEM.SOLV>
0

>  <SCORE.SYSTEM.norm>
0

>  <SCORE.heavy>
10

>  <SCORE.norm>
-0.862533

>  <RMSD>
2.283

$$$$
ligand
 OpenBabel11021811473D
libRbt.so/2013.1/901 2013/11/27
 10  9  0  0  0  0  0  0  0  0999 V2000
   31.5120   17.2419   22.0823 N   0  0  0  0  0  0  0  0  0  0  0  0
   30.8918   15.9587   21.6332 C   0  0  2  0  0  0  0  0  0  0  0  0
   31.3970   15.5149   20.2555 C   0  0  0  0  0  0  0  0  0  0  0  0
   30.6414   15.0194   19.4061 O   0  0  0  0  0  0  0  0  0  0  0  0
   29.3638   16.0527   21.6599 C   0  0  0  0  0  0  0  0  0  0  0  0
   28.6818   14.7126   21.5031 C   0  0  0  0  0  0  0  0  0  0  0  0
   27.1881   14.8591   21.3432 C   0  0  0  0  0  0  0  0  0  0  0  0
   26.8386   15.5299   20.0191 C   0  0  0  0  0  0  0  0  0  0  0  0
   27.3009   14.7670   18.8285 N   0  0  0  0  0  0  0  0  0  0  0  0
   32.5780   15.6715   19.9305 O   0  0  0  0  0  0  0  0  0  0  0  0
  2  1  1  6  0  0  0
  2  3  1  0  0  0  0
  2  5  1  0  0  0  0
  3  4  1  0  0  0  0
  3 10  1  0  0  0  0
  5  6  1  0  0  0  0
  6  7  1  0  0  0  0
  7  8  1  0  0  0  0
  8  9  1  0  0  0  0
M  END
>  <CHROM.1>
-139.89111572,-167.74319884,-172.15451446,67.53748245,60.86877454,29.66045192
15.52461118,20.63725841,0.19400066,0.16409448,1.18043621

>  <Name>
ligand

>  <RI>
0

>  <Rbt.Current_Directory>
/home/itssahil/PROJECTS/Mol_Feturizer/New_Systems/rnas/3DIY

>  <Rbt.Executable>
rbdock ($Id: //depot/dev/client3/rdock/2013.1/src/exe/rbdock.cxx#4 $)

>  <Rbt.Library>
libRbt.so (2013.1, Build901 2013/11/27)

>  <Rbt.Parameter_File>
/export/apps/rDock/src/rDock_2013.1_src/data/scripts/dock_solv.prm

>  <Rbt.Receptor>
prm/pocket_docking_2.prm

>  <SCORE>
-8.5702

>  <SCORE.INTER>
-9.93916

>  <SCORE.INTER.CONST>
1

>  <SCORE.INTER.POLAR>
0

>  <SCORE.INTER.ROT>
5

>  <SCORE.INTER.SOLV>
12.7814

>  <SCORE.INTER.VDW>
-17.8199

>  <SCORE.INTER.norm>
-0.993916

>  <SCORE.INTRA>
1.36897

>  <SCORE.INTRA.DIHEDRAL>
0.0663251

>  <SCORE.INTRA.DIHEDRAL.0>
2.56603

>  <SCORE.INTRA.POLAR>
0

>  <SCORE.INTRA.POLAR.0>
0

>  <SCORE.INTRA.REPUL>
0

>  <SCORE.INTRA.REPUL.0>
0

>  <SCORE.INTRA.SOLV>
0.252125

>  <SCORE.INTRA.SOLV.lig_0>
-32.0799

>  <SCORE.INTRA.VDW>
1.20974

>  <SCORE.INTRA.VDW.0>
-0.618248

>  <SCORE.INTRA.norm>
0.136897

>  <SCORE.RESTR>
0

>  <SCORE.RESTR.CAVITY>
0

>  <SCORE.RESTR.norm>
0

>  <SCORE.SYSTEM>
0

>  <SCORE.SYSTEM.CONST>
0

>  <SCORE.SYSTEM.DIHEDRAL>
0

>  <SCORE.SYSTEM.SOLV>
0

>  <SCORE.SYSTEM.norm>
0

>  <SCORE.heavy>
10

>  <SCORE.norm>
-0.85702

>  <RMSD>
2.310

$$$$
ligand
 OpenBabel11021811473D
libRbt.so/2013.1/901 2013/11/27
 10  9  0  0  0  0  0  0  0  0999 V2000
   31.5321   17.2935   22.0175 N   0  0  0  0  0  0  0  0  0  0  0  0
   30.9160   15.9965   21.6038 C   0  0  2  0  0  0  0  0  0  0  0  0
   31.4154   15.5213   20.2346 C   0  0  0  0  0  0  0  0  0  0  0  0
   32.5964   15.6575   19.8817 O   0  0  0  0  0  0  0  0  0  0  0  0
   29.3877   16.0834   21.6374 C   0  0  0  0  0  0  0  0  0  0  0  0
   28.7133   14.7309   21.5999 C   0  0  0  0  0  0  0  0  0  0  0  0
   27.2193   14.8541   21.4236 C   0  0  0  0  0  0  0  0  0  0  0  0
   26.8467   14.9805   19.9503 C   0  0  0  0  0  0  0  0  0  0  0  0
   27.4060   16.1962   19.3002 N   0  0  0  0  0  0  0  0  0  0  0  0
   30.6580   14.9488   19.4450 O   0  0  0  0  0  0  0  0  0  0  0  0
  2  1  1  6  0  0  0
  2  3  1  0  0  0  0
  2  5  1  0  0  0  0
  3  4  1  0  0  0  0
  3 10  1  0  0  0  0
  5  6  1  0  0  0  0
  6  7  1  0  0  0  0
  7  8  1  0  0  0  0
  8  9  1  0  0  0  0
M  END
>  <CHROM.1>
38.66215976,-164.34710725,-171.36375984,84.99835513,-62.25323760,29.69004416
15.61577389,20.68056775,0.10276545,0.14978912,1.23355448

>  <Name>
ligand

>  <RI>
0

>  <Rbt.Current_Directory>
/home/itssahil/PROJECTS/Mol_Feturizer/New_Systems/rnas/3DIY

>  <Rbt.Executable>
rbdock ($Id: //depot/dev/client3/rdock/2013.1/src/exe/rbdock.cxx#4 $)

>  <Rbt.Library>
libRbt.so (2013.1, Build901 2013/11/27)

>  <Rbt.Parameter_File>
/export/apps/rDock/src/rDock_2013.1_src/data/scripts/dock_solv.prm

>  <Rbt.Receptor>
prm/pocket_docking_6.prm

>  <SCORE>
-7.2934

>  <SCORE.INTER>
-9.67173

>  <SCORE.INTER.CONST>
1

>  <SCORE.INTER.POLAR>
0

>  <SCORE.INTER.ROT>
5

>  <SCORE.INTER.SOLV>
13.8528

>  <SCORE.INTER.VDW>
-17.9988

>  <SCORE.INTER.norm>
-0.967173

>  <SCORE.INTRA>
2.37833

>  <SCORE.INTRA.DIHEDRAL>
2.36076

>  <SCORE.INTRA.DIHEDRAL.0>
2.56603

>  <SCORE.INTRA.POLAR>
0

>  <SCORE.INTRA.POLAR.0>
0

>  <SCORE.INTRA.REPUL>
0

>  <SCORE.INTRA.REPUL.0>
0

>  <SCORE.INTRA.SOLV>
0.967358

>  <SCORE.INTRA.SOLV.lig_0>
-32.0799

>  <SCORE.INTRA.VDW>
0.714272

>  <SCORE.INTRA.VDW.0>
-0.618248

>  <SCORE.INTRA.norm>
0.237833

>  <SCORE.RESTR>
0

>  <SCORE.RESTR.CAVITY>
0

>  <SCORE.RESTR.norm>
0

>  <SCORE.SYSTEM>
0

>  <SCORE.SYSTEM.CONST>
0

>  <SCORE.SYSTEM.DIHEDRAL>
0

>  <SCORE.SYSTEM.SOLV>
0

>  <SCORE.SYSTEM.norm>
0

>  <SCORE.heavy>
10

>  <SCORE.norm>
-0.72934

>  <RMSD>
2.372

$$$$
ligand
 OpenBabel11021811473D
libRbt.so/2013.1/901 2013/11/27
 10  9  0  0  0  0  0  0  0  0999 V2000
   31.5445   17.2840   21.9516 N   0  0  0  0  0  0  0  0  0  0  0  0
   30.9037   15.9793   21.6051 C   0  0  2  0  0  0  0  0  0  0  0  0
   31.3732   15.4379   20.2499 C   0  0  0  0  0  0  0  0  0  0  0  0
   30.5824   14.9602   19.4226 O   0  0  0  0  0  0  0  0  0  0  0  0
   29.3775   16.0896   21.6598 C   0  0  0  0  0  0  0  0  0  0  0  0
   28.6839   14.7467   21.6888 C   0  0  0  0  0  0  0  0  0  0  0  0
   27.1960   14.8794   21.4724 C   0  0  0  0  0  0  0  0  0  0  0  0
   26.8615   14.9768   19.9878 C   0  0  0  0  0  0  0  0  0  0  0  0
   27.4333   16.1824   19.3299 N   0  0  0  0  0  0  0  0  0  0  0  0
   32.5619   15.4940   19.9201 O   0  0  0  0  0  0  0  0  0  0  0  0
  2  1  1  6  0  0  0
  2  3  1  0  0  0  0
  2  5  1  0  0  0  0
  3  4  1  0  0  0  0
  3 10  1  0  0  0  0
  5  6  1  0  0  0  0
  6  7  1  0  0  0  0
  7  8  1  0  0  0  0
  8  9  1  0  0  0  0
M  END
>  <CHROM.1>
-135.81992099,-164.49337491,-168.91222194,82.76098322,-63.01605749,29.67198513
15.59186880,20.69984934,0.08895333,0.13801853,1.22199107

>  <Name>
ligand

>  <RI>
0

>  <Rbt.Current_Directory>
/home/itssahil/PROJECTS/Mol_Feturizer/New_Systems/rnas/3DIY

>  <Rbt.Executable>
rbdock ($Id: //depot/dev/client3/rdock/2013.1/src/exe/rbdock.cxx#4 $)

>  <Rbt.Library>
libRbt.so (2013.1, Build901 2013/11/27)

>  <Rbt.Parameter_File>
/export/apps/rDock/src/rDock_2013.1_src/data/scripts/dock_solv.prm

>  <Rbt.Receptor>
prm/blind_docking_80.prm

>  <SCORE>
-7.32861

>  <SCORE.INTER>
-9.68126

>  <SCORE.INTER.CONST>
1

>  <SCORE.INTER.POLAR>
0

>  <SCORE.INTER.ROT>
5

>  <SCORE.INTER.SOLV>
13.6627

>  <SCORE.INTER.VDW>
-17.9417

>  <SCORE.INTER.norm>
-0.968126

>  <SCORE.INTRA>
2.35264

>  <SCORE.INTRA.DIHEDRAL>
2.34273

>  <SCORE.INTRA.DIHEDRAL.0>
2.56603

>  <SCORE.INTRA.POLAR>
0

>  <SCORE.INTRA.POLAR.0>
0

>  <SCORE.INTRA.REPUL>
0

>  <SCORE.INTRA.REPUL.0>
0

>  <SCORE.INTRA.SOLV>
1.09426

>  <SCORE.INTRA.SOLV.lig_0>
-32.0799

>  <SCORE.INTRA.VDW>
0.634149

>  <SCORE.INTRA.VDW.0>
-0.618248

>  <SCORE.INTRA.norm>
0.235264

>  <SCORE.RESTR>
0

>  <SCORE.RESTR.CAVITY>
0

>  <SCORE.RESTR.norm>
0

>  <SCORE.SYSTEM>
0

>  <SCORE.SYSTEM.CONST>
0

>  <SCORE.SYSTEM.DIHEDRAL>
0

>  <SCORE.SYSTEM.SOLV>
0

>  <SCORE.SYSTEM.norm>
0

>  <SCORE.heavy>
10

>  <SCORE.norm>
-0.732861

>  <RMSD>
2.397

$$$$
ligand
 OpenBabel11021811473D
libRbt.so/2013.1/901 2013/11/27
 10  9  0  0  0  0  0  0  0  0999 V2000
   30.2726   16.4266   22.8118 N   0  0  0  0  0  0  0  0  0  0  0  0
   29.8078   15.5770   21.6737 C   0  0  2  0  0  0  0  0  0  0  0  0
   30.3865   16.0318   20.3290 C   0  0  0  0  0  0  0  0  0  0  0  0
   31.0998   15.2913   19.6356 O   0  0  0  0  0  0  0  0  0  0  0  0
   28.2786   15.5161   21.6275 C   0  0  0  0  0  0  0  0  0  0  0  0
   27.7510   14.6309   20.5214 C   0  0  0  0  0  0  0  0  0  0  0  0
   27.7352   15.3447   19.1915 C   0  0  0  0  0  0  0  0  0  0  0  0
   27.2025   14.4392   18.0863 C   0  0  0  0  0  0  0  0  0  0  0  0
   28.0959   13.2896   17.7804 N   0  0  0  0  0  0  0  0  0  0  0  0
   30.1284   17.1491   19.8709 O   0  0  0  0  0  0  0  0  0  0  0  0
  2  1  1  1  0  0  0
  2  3  1  0  0  0  0
  2  5  1  0  0  0  0
  3  4  1  0  0  0  0
  3 10  1  0  0  0  0
  5  6  1  0  0  0  0
  6  7  1  0  0  0  0
  7  8  1  0  0  0  0
  8  9  1  0  0  0  0
M  END
>  <CHROM.1>
119.33488146,-178.07651173,-81.36409442,179.93178287,-66.98740294,29.09484821
15.38262063,20.12822790,0.92055729,0.40116257,1.27660120

>  <Name>
ligand

>  <RI>
0

>  <Rbt.Current_Directory>
/home/itssahil/PROJECTS/Mol_Feturizer/New_Systems/rnas/3DIY

>  <Rbt.Executable>
rbdock ($Id: //depot/dev/client3/rdock/2013.1/src/exe/rbdock.cxx#4 $)

>  <Rbt.Library>
libRbt.so (2013.1, Build901 2013/11/27)

>  <Rbt.Parameter_File>
/export/apps/rDock/src/rDock_2013.1_src/data/scripts/dock_solv.prm

>  <Rbt.Receptor>
prm/pocket_docking_4.prm

>  <SCORE>
-5.60853

>  <SCORE.INTER>
-5.97425

>  <SCORE.INTER.CONST>
1

>  <SCORE.INTER.POLAR>
0

>  <SCORE.INTER.ROT>
5

>  <SCORE.INTER.SOLV>
16.5894

>  <SCORE.INTER.VDW>
-16.446

>  <SCORE.INTER.norm>
-0.597425

>  <SCORE.INTRA>
0.365713

>  <SCORE.INTRA.DIHEDRAL>
0.898675

>  <SCORE.INTRA.DIHEDRAL.0>
2.56603

>  <SCORE.INTRA.POLAR>
0

>  <SCORE.INTRA.POLAR.0>
0

>  <SCORE.INTRA.REPUL>
0

>  <SCORE.INTRA.REPUL.0>
0

>  <SCORE.INTRA.SOLV>
-0.638314

>  <SCORE.INTRA.SOLV.lig_0>
-32.0799

>  <SCORE.INTRA.VDW>
0.235532

>  <SCORE.INTRA.VDW.0>
-0.618248

>  <SCORE.INTRA.norm>
0.0365713

>  <SCORE.RESTR>
0

>  <SCORE.RESTR.CAVITY>
0

>  <SCORE.RESTR.norm>
0

>  <SCORE.SYSTEM>
0

>  <SCORE.SYSTEM.CONST>
0

>  <SCORE.SYSTEM.DIHEDRAL>
0

>  <SCORE.SYSTEM.SOLV>
0

>  <SCORE.SYSTEM.norm>
0

>  <SCORE.heavy>
10

>  <SCORE.norm>
-0.560853

>  <RMSD>
2.892

$$$$
ligand
 OpenBabel11021811473D
libRbt.so/2013.1/901 2013/11/27
 10  9  0  0  0  0  0  0  0  0999 V2000
   28.2819   15.1665   21.4874 N   0  0  0  0  0  0  0  0  0  0  0  0
   29.1097   15.2966   20.2501 C   0  0  2  0  0  0  0  0  0  0  0  0
   30.3841   16.1165   20.4817 C   0  0  0  0  0  0  0  0  0  0  0  0
   31.5090   15.6776   20.1993 O   0  0  0  0  0  0  0  0  0  0  0  0
   28.2816   15.8719   19.0979 C   0  0  0  0  0  0  0  0  0  0  0  0
   27.2241   14.9182   18.5903 C   0  0  0  0  0  0  0  0  0  0  0  0
   27.8330   13.7179   17.9070 C   0  0  0  0  0  0  0  0  0  0  0  0
   26.7555   12.8118   17.3211 C   0  0  0  0  0  0  0  0  0  0  0  0
   27.2832   11.5177   16.8109 N   0  0  0  0  0  0  0  0  0  0  0  0
   30.3280   17.2666   20.9278 O   0  0  0  0  0  0  0  0  0  0  0  0
  2  1  1  1  0  0  0
  2  3  1  0  0  0  0
  2  5  1  0  0  0  0
  3  4  1  0  0  0  0
  3 10  1  0  0  0  0
  5  6  1  0  0  0  0
  6  7  1  0  0  0  0
  7  8  1  0  0  0  0
  8  9  1  0  0  0  0
M  END
>  <CHROM.1>
125.74431387,-69.21767017,-67.78857126,-176.29541762,-171.58109869,28.73430993
14.86072057,19.31903047,1.00125392,0.00140659,0.74724518

>  <Name>
ligand

>  <RI>
0

>  <Rbt.Current_Directory>
/home/itssahil/PROJECTS/Mol_Feturizer/New_Systems/rnas/3DIY

>  <Rbt.Executable>
rbdock ($Id: //depot/dev/client3/rdock/2013.1/src/exe/rbdock.cxx#4 $)

>  <Rbt.Library>
libRbt.so (2013.1, Build901 2013/11/27)

>  <Rbt.Parameter_File>
/export/apps/rDock/src/rDock_2013.1_src/data/scripts/dock_solv.prm

>  <Rbt.Receptor>
prm/blind_docking_80.prm

>  <SCORE>
-7.48138

>  <SCORE.INTER>
-7.20348

>  <SCORE.INTER.CONST>
1

>  <SCORE.INTER.POLAR>
0

>  <SCORE.INTER.ROT>
5

>  <SCORE.INTER.SOLV>
16.9157

>  <SCORE.INTER.VDW>
-17.3742

>  <SCORE.INTER.norm>
-0.720348

>  <SCORE.INTRA>
-0.277905

>  <SCORE.INTRA.DIHEDRAL>
-0.118561

>  <SCORE.INTRA.DIHEDRAL.0>
2.56603

>  <SCORE.INTRA.POLAR>
0

>  <SCORE.INTRA.POLAR.0>
0

>  <SCORE.INTRA.REPUL>
0

>  <SCORE.INTRA.REPUL.0>
0

>  <SCORE.INTRA.SOLV>
-0.360453

>  <SCORE.INTRA.SOLV.lig_0>
-32.0799

>  <SCORE.INTRA.VDW>
-0.0383977

>  <SCORE.INTRA.VDW.0>
-0.618248

>  <SCORE.INTRA.norm>
-0.0277905

>  <SCORE.RESTR>
0

>  <SCORE.RESTR.CAVITY>
0

>  <SCORE.RESTR.norm>
0

>  <SCORE.SYSTEM>
0

>  <SCORE.SYSTEM.CONST>
0

>  <SCORE.SYSTEM.DIHEDRAL>
0

>  <SCORE.SYSTEM.SOLV>
0

>  <SCORE.SYSTEM.norm>
0

>  <SCORE.heavy>
10

>  <SCORE.norm>
-0.748138

>  <RMSD>
3.406

$$$$
ligand
 OpenBabel11021811473D
libRbt.so/2013.1/901 2013/11/27
 10  9  0  0  0  0  0  0  0  0999 V2000
   30.6428   16.3416   21.5059 N   0  0  0  0  0  0  0  0  0  0  0  0
   29.1731   16.3284   21.2359 C   0  0  2  0  0  0  0  0  0  0  0  0
   28.4696   15.1302   21.8833 C   0  0  0  0  0  0  0  0  0  0  0  0
   27.3178   15.2096   22.3362 O   0  0  0  0  0  0  0  0  0  0  0  0
   28.8944   16.3892   19.7316 C   0  0  0  0  0  0  0  0  0  0  0  0
   27.4219   16.3221   19.3956 C   0  0  0  0  0  0  0  0  0  0  0  0
   26.9197   14.8992   19.3580 C   0  0  0  0  0  0  0  0  0  0  0  0
   27.2882   14.2191   18.0438 C   0  0  0  0  0  0  0  0  0  0  0  0
   28.7535   14.1762   17.7898 N   0  0  0  0  0  0  0  0  0  0  0  0
   29.0192   14.0259   21.9425 O   0  0  0  0  0  0  0  0  0  0  0  0
  2  1  1  6  0  0  0
  2  3  1  0  0  0  0
  2  5  1  0  0  0  0
  3  4  1  0  0  0  0
  3 10  1  0  0  0  0
  5  6  1  0  0  0  0
  6  7  1  0  0  0  0
  7  8  1  0  0  0  0
  8  9  1  0  0  0  0
M  END
>  <CHROM.1>
145.31877283,177.66097312,-83.36041085,-79.46322051,59.03015798,28.37673056
15.28013284,20.34442387,-1.13912696,-0.54975351,-1.56542582

>  <Name>
ligand

>  <RI>
0

>  <Rbt.Current_Directory>
/home/itssahil/PROJECTS/Mol_Feturizer/New_Systems/rnas/3DIY

>  <Rbt.Executable>
rbdock ($Id: //depot/dev/client3/rdock/2013.1/src/exe/rbdock.cxx#4 $)

>  <Rbt.Library>
libRbt.so (2013.1, Build901 2013/11/27)

>  <Rbt.Parameter_File>
/export/apps/rDock/src/rDock_2013.1_src/data/scripts/dock_solv.prm

>  <Rbt.Receptor>
prm/pocket_docking_7.prm

>  <SCORE>
-7.21019

>  <SCORE.INTER>
-9.87178

>  <SCORE.INTER.CONST>
1

>  <SCORE.INTER.POLAR>
0

>  <SCORE.INTER.ROT>
5

>  <SCORE.INTER.SOLV>
12.8579

>  <SCORE.INTER.VDW>
-17.8005

>  <SCORE.INTER.norm>
-0.987178

>  <SCORE.INTRA>
2.66159

>  <SCORE.INTRA.DIHEDRAL>
2.40977

>  <SCORE.INTRA.DIHEDRAL.0>
2.56603

>  <SCORE.INTRA.POLAR>
0

>  <SCORE.INTRA.POLAR.0>
0

>  <SCORE.INTRA.REPUL>
0

>  <SCORE.INTRA.REPUL.0>
0

>  <SCORE.INTRA.SOLV>
1.00636

>  <SCORE.INTRA.SOLV.lig_0>
-32.0799

>  <SCORE.INTRA.VDW>
0.953528

>  <SCORE.INTRA.VDW.0>
-0.618248

>  <SCORE.INTRA.norm>
0.266159

>  <SCORE.RESTR>
0

>  <SCORE.RESTR.CAVITY>
0

>  <SCORE.RESTR.norm>
0

>  <SCORE.SYSTEM>
0

>  <SCORE.SYSTEM.CONST>
0

>  <SCORE.SYSTEM.DIHEDRAL>
0

>  <SCORE.SYSTEM.SOLV>
0

>  <SCORE.SYSTEM.norm>
0

>  <SCORE.heavy>
10

>  <SCORE.norm>
-0.721019

>  <RMSD>
3.659

$$$$
ligand
 OpenBabel11021811473D
libRbt.so/2013.1/901 2013/11/27
 10  9  0  0  0  0  0  0  0  0999 V2000
   30.6210   16.2224   21.7593 N   0  0  0  0  0  0  0  0  0  0  0  0
   29.1940   16.2486   21.3165 C   0  0  2  0  0  0  0  0  0  0  0  0
   28.3996   15.0419   21.8291 C   0  0  0  0  0  0  0  0  0  0  0  0
   28.9191   13.9248   21.9716 O   0  0  0  0  0  0  0  0  0  0  0  0
   29.0978   16.3697   19.7932 C   0  0  0  0  0  0  0  0  0  0  0  0
   27.6736   16.4148   19.2881 C   0  0  0  0  0  0  0  0  0  0  0  0
   27.0921   15.0313   19.1261 C   0  0  0  0  0  0  0  0  0  0  0  0
   27.7094   14.3103   17.9326 C   0  0  0  0  0  0  0  0  0  0  0  0
   27.0491   13.0150   17.6170 N   0  0  0  0  0  0  0  0  0  0  0  0
   27.2137   15.1531   22.1546 O   0  0  0  0  0  0  0  0  0  0  0  0
  2  1  1  6  0  0  0
  2  3  1  0  0  0  0
  2  5  1  0  0  0  0
  3  4  1  0  0  0  0
  3 10  1  0  0  0  0
  5  6  1  0  0  0  0
  6  7  1  0  0  0  0
  7  8  1  0  0  0  0
  8  9  1  0  0  0  0
M  END
>  <CHROM.1>
-33.61644511,-179.43136019,-84.09286311,-71.95273763,-172.41529418,28.28247686
15.14981773,20.29931388,-0.72827216,-0.94169230,-1.21889622

>  <Name>
ligand

>  <RI>
0

>  <Rbt.Current_Directory>
/home/itssahil/PROJECTS/Mol_Feturizer/New_Systems/rnas/3DIY

>  <Rbt.Executable>
rbdock ($Id: //depot/dev/client3/rdock/2013.1/src/exe/rbdock.cxx#4 $)

>  <Rbt.Library>
libRbt.so (2013.1, Build901 2013/11/27)

>  <Rbt.Parameter_File>
/export/apps/rDock/src/rDock_2013.1_src/data/scripts/dock_solv.prm

>  <Rbt.Receptor>
prm/pocket_docking_3.prm

>  <SCORE>
-8.34839

>  <SCORE.INTER>
-9.39099

>  <SCORE.INTER.CONST>
1

>  <SCORE.INTER.POLAR>
0

>  <SCORE.INTER.ROT>
5

>  <SCORE.INTER.SOLV>
15.6699

>  <SCORE.INTER.VDW>
-18.4173

>  <SCORE.INTER.norm>
-0.939099

>  <SCORE.INTRA>
1.0426

>  <SCORE.INTRA.DIHEDRAL>
1.96835

>  <SCORE.INTRA.DIHEDRAL.0>
2.56603

>  <SCORE.INTRA.POLAR>
0

>  <SCORE.INTRA.POLAR.0>
0

>  <SCORE.INTRA.REPUL>
0

>  <SCORE.INTRA.REPUL.0>
0

>  <SCORE.INTRA.SOLV>
-1.28865

>  <SCORE.INTRA.SOLV.lig_0>
-32.0799

>  <SCORE.INTRA.VDW>
0.702744

>  <SCORE.INTRA.VDW.0>
-0.618248

>  <SCORE.INTRA.norm>
0.10426

>  <SCORE.RESTR>
0

>  <SCORE.RESTR.CAVITY>
0

>  <SCORE.RESTR.norm>
0

>  <SCORE.SYSTEM>
0

>  <SCORE.SYSTEM.CONST>
0

>  <SCORE.SYSTEM.DIHEDRAL>
0

>  <SCORE.SYSTEM.SOLV>
0

>  <SCORE.SYSTEM.norm>
0

>  <SCORE.heavy>
10

>  <SCORE.norm>
-0.834839

>  <RMSD>
3.722

$$$$
ligand
 OpenBabel11021811473D
libRbt.so/2013.1/901 2013/11/27
 10  9  0  0  0  0  0  0  0  0999 V2000
   30.5505   16.4228   21.2748 N   0  0  0  0  0  0  0  0  0  0  0  0
   29.1501   16.1529   20.8287 C   0  0  2  0  0  0  0  0  0  0  0  0
   28.3877   15.2510   21.8062 C   0  0  0  0  0  0  0  0  0  0  0  0
   28.9682   14.4344   22.5371 O   0  0  0  0  0  0  0  0  0  0  0  0
   29.1310   15.5753   19.4109 C   0  0  0  0  0  0  0  0  0  0  0  0
   27.8022   15.7541   18.7127 C   0  0  0  0  0  0  0  0  0  0  0  0
   27.6711   14.8445   17.5152 C   0  0  0  0  0  0  0  0  0  0  0  0
   27.2132   13.4503   17.9296 C   0  0  0  0  0  0  0  0  0  0  0  0
   26.8506   12.5797   16.7790 N   0  0  0  0  0  0  0  0  0  0  0  0
   27.1615   15.3352   21.9248 O   0  0  0  0  0  0  0  0  0  0  0  0
  2  1  1  1  0  0  0
  2  3  1  0  0  0  0
  2  5  1  0  0  0  0
  3  4  1  0  0  0  0
  3 10  1  0  0  0  0
  5  6  1  0  0  0  0
  6  7  1  0  0  0  0
  7  8  1  0  0  0  0
  8  9  1  0  0  0  0
M  END
>  <CHROM.1>
-26.97457038,-158.66398698,-163.14162434,83.10164614,170.43925324,28.27465674
14.96526355,19.90363974,-1.03419755,-0.80042205,-1.57574594

>  <Name>
ligand

>  <RI>
0

>  <Rbt.Current_Directory>
/home/itssahil/PROJECTS/Mol_Feturizer/New_Systems/rnas/3DIY

>  <Rbt.Executable>
rbdock ($Id: //depot/dev/client3/rdock/2013.1/src/exe/rbdock.cxx#4 $)

>  <Rbt.Library>
libRbt.so (2013.1, Build901 2013/11/27)

>  <Rbt.Parameter_File>
/export/apps/rDock/src/rDock_2013.1_src/data/scripts/dock_solv.prm

>  <Rbt.Receptor>
prm/blind_docking_80.prm

>  <SCORE>
-6.20678

>  <SCORE.INTER>
-7.2527

>  <SCORE.INTER.CONST>
1

>  <SCORE.INTER.POLAR>
0

>  <SCORE.INTER.ROT>
5

>  <SCORE.INTER.SOLV>
15.4945

>  <SCORE.INTER.VDW>
-16.9333

>  <SCORE.INTER.norm>
-0.72527

>  <SCORE.INTRA>
1.04592

>  <SCORE.INTRA.DIHEDRAL>
4.028

>  <SCORE.INTRA.DIHEDRAL.0>
2.56603

>  <SCORE.INTRA.POLAR>
0

>  <SCORE.INTRA.POLAR.0>
0

>  <SCORE.INTRA.REPUL>
0

>  <SCORE.INTRA.REPUL.0>
0

>  <SCORE.INTRA.SOLV>
-1.45335

>  <SCORE.INTRA.SOLV.lig_0>
-32.0799

>  <SCORE.INTRA.VDW>
-0.241402

>  <SCORE.INTRA.VDW.0>
-0.618248

>  <SCORE.INTRA.norm>
0.104592

>  <SCORE.RESTR>
0

>  <SCORE.RESTR.CAVITY>
0

>  <SCORE.RESTR.norm>
0

>  <SCORE.SYSTEM>
0

>  <SCORE.SYSTEM.CONST>
0

>  <SCORE.SYSTEM.DIHEDRAL>
0

>  <SCORE.SYSTEM.SOLV>
0

>  <SCORE.SYSTEM.norm>
0

>  <SCORE.heavy>
10

>  <SCORE.norm>
-0.620678

>  <RMSD>
3.874

$$$$
ligand
 OpenBabel11021811473D
libRbt.so/2013.1/901 2013/11/27
 10  9  0  0  0  0  0  0  0  0999 V2000
   30.0822   16.0715   20.7028 N   0  0  0  0  0  0  0  0  0  0  0  0
   28.6076   16.2088   20.9019 C   0  0  2  0  0  0  0  0  0  0  0  0
   27.9858   14.9656   21.5484 C   0  0  0  0  0  0  0  0  0  0  0  0
   28.6689   13.9849   21.8794 O   0  0  0  0  0  0  0  0  0  0  0  0
   27.9094   16.5571   19.5845 C   0  0  0  0  0  0  0  0  0  0  0  0
   28.1376   15.5292   18.4996 C   0  0  0  0  0  0  0  0  0  0  0  0
   27.2165   14.3427   18.6488 C   0  0  0  0  0  0  0  0  0  0  0  0
   27.4215   13.3403   17.5181 C   0  0  0  0  0  0  0  0  0  0  0  0
   26.4377   12.2244   17.5305 N   0  0  0  0  0  0  0  0  0  0  0  0
   26.7771   14.9149   21.7962 O   0  0  0  0  0  0  0  0  0  0  0  0
  2  1  1  6  0  0  0
  2  3  1  0  0  0  0
  2  5  1  0  0  0  0
  3  4  1  0  0  0  0
  3 10  1  0  0  0  0
  5  6  1  0  0  0  0
  6  7  1  0  0  0  0
  7  8  1  0  0  0  0
  8  9  1  0  0  0  0
M  END
>  <CHROM.1>
1.32530016,58.60658470,81.10746755,177.83767368,-173.64012243,27.91294962
14.79182258,19.88495843,-0.83840184,-1.01053213,-1.50023026

>  <Name>
ligand

>  <RI>
0

>  <Rbt.Current_Directory>
/home/itssahil/PROJECTS/Mol_Feturizer/New_Systems/rnas/3DIY

>  <Rbt.Executable>
rbdock ($Id: //depot/dev/client3/rdock/2013.1/src/exe/rbdock.cxx#4 $)

>  <Rbt.Library>
libRbt.so (2013.1, Build901 2013/11/27)

>  <Rbt.Parameter_File>
/export/apps/rDock/src/rDock_2013.1_src/data/scripts/dock_solv.prm

>  <Rbt.Receptor>
prm/blind_docking_60.prm

>  <SCORE>
-9.69374

>  <SCORE.INTER>
-10.0176

>  <SCORE.INTER.CONST>
1

>  <SCORE.INTER.POLAR>
0

>  <SCORE.INTER.ROT>
5

>  <SCORE.INTER.SOLV>
15.5275

>  <SCORE.INTER.VDW>
-18.7876

>  <SCORE.INTER.norm>
-1.00176

>  <SCORE.INTRA>
0.323912

>  <SCORE.INTRA.DIHEDRAL>
0.84535

>  <SCORE.INTRA.DIHEDRAL.0>
2.56603

>  <SCORE.INTRA.POLAR>
0

>  <SCORE.INTRA.POLAR.0>
0

>  <SCORE.INTRA.REPUL>
0

>  <SCORE.INTRA.REPUL.0>
0

>  <SCORE.INTRA.SOLV>
-0.306654

>  <SCORE.INTRA.SOLV.lig_0>
-32.0799

>  <SCORE.INTRA.VDW>
0.0545638

>  <SCORE.INTRA.VDW.0>
-0.618248

>  <SCORE.INTRA.norm>
0.0323912

>  <SCORE.RESTR>
0

>  <SCORE.RESTR.CAVITY>
0

>  <SCORE.RESTR.norm>
0

>  <SCORE.SYSTEM>
0

>  <SCORE.SYSTEM.CONST>
0

>  <SCORE.SYSTEM.DIHEDRAL>
0

>  <SCORE.SYSTEM.SOLV>
0

>  <SCORE.SYSTEM.norm>
0

>  <SCORE.heavy>
10

>  <SCORE.norm>
-0.969374

>  <RMSD>
4.125

$$$$
ligand
 OpenBabel11021811473D
libRbt.so/2013.1/901 2013/11/27
 10  9  0  0  0  0  0  0  0  0999 V2000
   30.0635   16.0568   20.7636 N   0  0  0  0  0  0  0  0  0  0  0  0
   28.5815   16.1987   20.8918 C   0  0  2  0  0  0  0  0  0  0  0  0
   27.9283   14.9669   21.5290 C   0  0  0  0  0  0  0  0  0  0  0  0
   28.5935   13.9905   21.9059 O   0  0  0  0  0  0  0  0  0  0  0  0
   27.9457   16.5258   19.5379 C   0  0  0  0  0  0  0  0  0  0  0  0
   28.2004   15.4674   18.4890 C   0  0  0  0  0  0  0  0  0  0  0  0
   27.2346   14.3138   18.6105 C   0  0  0  0  0  0  0  0  0  0  0  0
   27.4844   13.2695   17.5277 C   0  0  0  0  0  0  0  0  0  0  0  0
   26.4596   12.1914   17.4971 N   0  0  0  0  0  0  0  0  0  0  0  0
   26.7096   14.9221   21.7230 O   0  0  0  0  0  0  0  0  0  0  0  0
  2  1  1  6  0  0  0
  2  3  1  0  0  0  0
  2  5  1  0  0  0  0
  3  4  1  0  0  0  0
  3 10  1  0  0  0  0
  5  6  1  0  0  0  0
  6  7  1  0  0  0  0
  7  8  1  0  0  0  0
  8  9  1  0  0  0  0
M  END
>  <CHROM.1>
1.22948895,59.68747967,82.24606786,178.76104278,-173.03575900,27.90767183
14.76856376,19.87126858,-0.89440701,-0.99595456,-1.56652442

>  <Name>
ligand

>  <RI>
0

>  <Rbt.Current_Directory>
/home/itssahil/PROJECTS/Mol_Feturizer/New_Systems/rnas/3DIY

>  <Rbt.Executable>
rbdock ($Id: //depot/dev/client3/rdock/2013.1/src/exe/rbdock.cxx#4 $)

>  <Rbt.Library>
libRbt.so (2013.1, Build901 2013/11/27)

>  <Rbt.Parameter_File>
/export/apps/rDock/src/rDock_2013.1_src/data/scripts/dock_solv.prm

>  <Rbt.Receptor>
prm/blind_docking_100.prm

>  <SCORE>
-9.754

>  <SCORE.INTER>
-10.1301

>  <SCORE.INTER.CONST>
1

>  <SCORE.INTER.POLAR>
0

>  <SCORE.INTER.ROT>
5

>  <SCORE.INTER.SOLV>
15.4231

>  <SCORE.INTER.VDW>
-18.8278

>  <SCORE.INTER.norm>
-1.01301

>  <SCORE.INTRA>
0.376083

>  <SCORE.INTRA.DIHEDRAL>
1.01749

>  <SCORE.INTRA.DIHEDRAL.0>
2.56603

>  <SCORE.INTRA.POLAR>
0

>  <SCORE.INTRA.POLAR.0>
0

>  <SCORE.INTRA.REPUL>
0

>  <SCORE.INTRA.REPUL.0>
0

>  <SCORE.INTRA.SOLV>
-0.338953

>  <SCORE.INTRA.SOLV.lig_0>
-32.0799

>  <SCORE.INTRA.VDW>
0.0368166

>  <SCORE.INTRA.VDW.0>
-0.618248

>  <SCORE.INTRA.norm>
0.0376083

>  <SCORE.RESTR>
0

>  <SCORE.RESTR.CAVITY>
0

>  <SCORE.RESTR.norm>
0

>  <SCORE.SYSTEM>
0

>  <SCORE.SYSTEM.CONST>
0

>  <SCORE.SYSTEM.DIHEDRAL>
0

>  <SCORE.SYSTEM.SOLV>
0

>  <SCORE.SYSTEM.norm>
0

>  <SCORE.heavy>
10

>  <SCORE.norm>
-0.9754

>  <RMSD>
4.164

$$$$
ligand
 OpenBabel11021811473D
libRbt.so/2013.1/901 2013/11/27
 10  9  0  0  0  0  0  0  0  0999 V2000
   29.7964   15.5452   19.9108 N   0  0  0  0  0  0  0  0  0  0  0  0
   28.5114   15.9893   20.5308 C   0  0  2  0  0  0  0  0  0  0  0  0
   28.0933   15.1034   21.7099 C   0  0  0  0  0  0  0  0  0  0  0  0
   28.8985   14.3633   22.2946 O   0  0  0  0  0  0  0  0  0  0  0  0
   27.4005   16.0760   19.4807 C   0  0  0  0  0  0  0  0  0  0  0  0
   26.9889   14.7271   18.9363 C   0  0  0  0  0  0  0  0  0  0  0  0
   27.9889   14.1966   17.9378 C   0  0  0  0  0  0  0  0  0  0  0  0
   27.5928   12.8088   17.4453 C   0  0  0  0  0  0  0  0  0  0  0  0
   26.3042   12.7897   16.7021 N   0  0  0  0  0  0  0  0  0  0  0  0
   26.9372   15.1257   22.1435 O   0  0  0  0  0  0  0  0  0  0  0  0
  2  1  1  6  0  0  0
  2  3  1  0  0  0  0
  2  5  1  0  0  0  0
  3  4  1  0  0  0  0
  3 10  1  0  0  0  0
  5  6  1  0  0  0  0
  6  7  1  0  0  0  0
  7  8  1  0  0  0  0
  8  9  1  0  0  0  0
M  END
>  <CHROM.1>
18.56362291,68.06451231,-76.91060666,177.43353453,63.42089486,27.84483989
14.65911987,19.74530850,-1.27418013,-0.55846559,-1.81951370

>  <Name>
ligand

>  <RI>
0

>  <Rbt.Current_Directory>
/home/itssahil/PROJECTS/Mol_Feturizer/New_Systems/rnas/3DIY

>  <Rbt.Executable>
rbdock ($Id: //depot/dev/client3/rdock/2013.1/src/exe/rbdock.cxx#4 $)

>  <Rbt.Library>
libRbt.so (2013.1, Build901 2013/11/27)

>  <Rbt.Parameter_File>
/export/apps/rDock/src/rDock_2013.1_src/data/scripts/dock_solv.prm

>  <Rbt.Receptor>
prm/pocket_docking_8.prm

>  <SCORE>
-7.19653

>  <SCORE.INTER>
-8.67423

>  <SCORE.INTER.CONST>
1

>  <SCORE.INTER.POLAR>
0

>  <SCORE.INTER.ROT>
5

>  <SCORE.INTER.SOLV>
17.113

>  <SCORE.INTER.VDW>
-18.4205

>  <SCORE.INTER.norm>
-0.867423

>  <SCORE.INTRA>
1.4777

>  <SCORE.INTRA.DIHEDRAL>
0.339319

>  <SCORE.INTRA.DIHEDRAL.0>
2.56603

>  <SCORE.INTRA.POLAR>
0

>  <SCORE.INTRA.POLAR.0>
0

>  <SCORE.INTRA.REPUL>
0

>  <SCORE.INTRA.REPUL.0>
0

>  <SCORE.INTRA.SOLV>
1.48559

>  <SCORE.INTRA.SOLV.lig_0>
-32.0799

>  <SCORE.INTRA.VDW>
0.565245

>  <SCORE.INTRA.VDW.0>
-0.618248

>  <SCORE.INTRA.norm>
0.14777

>  <SCORE.RESTR>
0

>  <SCORE.RESTR.CAVITY>
0

>  <SCORE.RESTR.norm>
0

>  <SCORE.SYSTEM>
0

>  <SCORE.SYSTEM.CONST>
0

>  <SCORE.SYSTEM.DIHEDRAL>
0

>  <SCORE.SYSTEM.SOLV>
0

>  <SCORE.SYSTEM.norm>
0

>  <SCORE.heavy>
10

>  <SCORE.norm>
-0.719653

>  <RMSD>
4.201

$$$$
ligand
 OpenBabel11021811473D
libRbt.so/2013.1/901 2013/11/27
 10  9  0  0  0  0  0  0  0  0999 V2000
   30.1191   16.0249   20.5743 N   0  0  0  0  0  0  0  0  0  0  0  0
   28.6297   16.0806   20.6822 C   0  0  2  0  0  0  0  0  0  0  0  0
   28.0776   15.0678   21.6919 C   0  0  0  0  0  0  0  0  0  0  0  0
   28.7685   14.1392   22.1370 O   0  0  0  0  0  0  0  0  0  0  0  0
   27.9764   15.9070   19.3084 C   0  0  0  0  0  0  0  0  0  0  0  0
   27.9535   14.4708   18.8371 C   0  0  0  0  0  0  0  0  0  0  0  0
   27.2961   14.3348   17.4851 C   0  0  0  0  0  0  0  0  0  0  0  0
   26.7844   12.9159   17.2612 C   0  0  0  0  0  0  0  0  0  0  0  0
   27.8711   11.9076   17.1350 N   0  0  0  0  0  0  0  0  0  0  0  0
   26.9261   15.1666   22.1268 O   0  0  0  0  0  0  0  0  0  0  0  0
  2  1  1  6  0  0  0
  2  3  1  0  0  0  0
  2  5  1  0  0  0  0
  3  4  1  0  0  0  0
  3 10  1  0  0  0  0
  5  6  1  0  0  0  0
  6  7  1  0  0  0  0
  7  8  1  0  0  0  0
  8  9  1  0  0  0  0
M  END
>  <CHROM.1>
-14.08551301,77.68815619,179.65862901,-157.64820558,-67.66972781,28.02983567
14.58591530,19.75651921,-1.15341037,-1.00761957,-1.70995752

>  <Name>
ligand

>  <RI>
0

>  <Rbt.Current_Directory>
/home/itssahil/PROJECTS/Mol_Feturizer/New_Systems/rnas/3DIY

>  <Rbt.Executable>
rbdock ($Id: //depot/dev/client3/rdock/2013.1/src/exe/rbdock.cxx#4 $)

>  <Rbt.Library>
libRbt.so (2013.1, Build901 2013/11/27)

>  <Rbt.Parameter_File>
/export/apps/rDock/src/rDock_2013.1_src/data/scripts/dock_solv.prm

>  <Rbt.Receptor>
prm/pocket_docking_4.prm

>  <SCORE>
-8.5555

>  <SCORE.INTER>
-9.78584

>  <SCORE.INTER.CONST>
1

>  <SCORE.INTER.POLAR>
0

>  <SCORE.INTER.ROT>
5

>  <SCORE.INTER.SOLV>
14.7045

>  <SCORE.INTER.VDW>
-18.3587

>  <SCORE.INTER.norm>
-0.978584

>  <SCORE.INTRA>
1.23034

>  <SCORE.INTRA.DIHEDRAL>
2.2057

>  <SCORE.INTRA.DIHEDRAL.0>
2.56603

>  <SCORE.INTRA.POLAR>
0

>  <SCORE.INTRA.POLAR.0>
0

>  <SCORE.INTRA.REPUL>
0

>  <SCORE.INTRA.REPUL.0>
0

>  <SCORE.INTRA.SOLV>
-0.145753

>  <SCORE.INTRA.SOLV.lig_0>
-32.0799

>  <SCORE.INTRA.VDW>
0.20037

>  <SCORE.INTRA.VDW.0>
-0.618248

>  <SCORE.INTRA.norm>
0.123034

>  <SCORE.RESTR>
0

>  <SCORE.RESTR.CAVITY>
0

>  <SCORE.RESTR.norm>
0

>  <SCORE.SYSTEM>
0

>  <SCORE.SYSTEM.CONST>
0

>  <SCORE.SYSTEM.DIHEDRAL>
0

>  <SCORE.SYSTEM.SOLV>
0

>  <SCORE.SYSTEM.norm>
0

>  <SCORE.heavy>
10

>  <SCORE.norm>
-0.85555

>  <RMSD>
4.218

$$$$
ligand
 OpenBabel11021811473D
libRbt.so/2013.1/901 2013/11/27
 10  9  0  0  0  0  0  0  0  0999 V2000
   30.0139   16.1163   20.3533 N   0  0  0  0  0  0  0  0  0  0  0  0
   28.5313   16.1176   20.5398 C   0  0  2  0  0  0  0  0  0  0  0  0
   28.0820   15.1799   21.6662 C   0  0  0  0  0  0  0  0  0  0  0  0
   28.8772   14.4350   22.2585 O   0  0  0  0  0  0  0  0  0  0  0  0
   27.8161   15.7894   19.2263 C   0  0  0  0  0  0  0  0  0  0  0  0
   28.0978   14.3901   18.7283 C   0  0  0  0  0  0  0  0  0  0  0  0
   27.1308   13.9749   17.6461 C   0  0  0  0  0  0  0  0  0  0  0  0
   27.2976   12.5007   17.2939 C   0  0  0  0  0  0  0  0  0  0  0  0
   26.2086   11.9715   16.4295 N   0  0  0  0  0  0  0  0  0  0  0  0
   26.9080   15.1624   22.0489 O   0  0  0  0  0  0  0  0  0  0  0  0
  2  1  1  6  0  0  0
  2  3  1  0  0  0  0
  2  5  1  0  0  0  0
  3  4  1  0  0  0  0
  3 10  1  0  0  0  0
  5  6  1  0  0  0  0
  6  7  1  0  0  0  0
  7  8  1  0  0  0  0
  8  9  1  0  0  0  0
M  END
>  <CHROM.1>
-5.61413797,64.69209988,165.67599773,-171.91499860,168.94228949,27.88898248
14.55060202,19.65447633,-1.10729170,-0.82675755,-1.75910130

>  <Name>
ligand

>  <RI>
0

>  <Rbt.Current_Directory>
/home/itssahil/PROJECTS/Mol_Feturizer/New_Systems/rnas/3DIY

>  <Rbt.Executable>
rbdock ($Id: //depot/dev/client3/rdock/2013.1/src/exe/rbdock.cxx#4 $)

>  <Rbt.Library>
libRbt.so (2013.1, Build901 2013/11/27)

>  <Rbt.Parameter_File>
/export/apps/rDock/src/rDock_2013.1_src/data/scripts/dock_solv.prm

>  <Rbt.Receptor>
prm/pocket_docking_7.prm

>  <SCORE>
-9.40021

>  <SCORE.INTER>
-9.25986

>  <SCORE.INTER.CONST>
1

>  <SCORE.INTER.POLAR>
0

>  <SCORE.INTER.ROT>
5

>  <SCORE.INTER.SOLV>
16.4025

>  <SCORE.INTER.VDW>
-18.5741

>  <SCORE.INTER.norm>
-0.925986

>  <SCORE.INTRA>
-0.140357

>  <SCORE.INTRA.DIHEDRAL>
0.61547

>  <SCORE.INTRA.DIHEDRAL.0>
2.56603

>  <SCORE.INTRA.POLAR>
0

>  <SCORE.INTRA.POLAR.0>
0

>  <SCORE.INTRA.REPUL>
0

>  <SCORE.INTRA.REPUL.0>
0

>  <SCORE.INTRA.SOLV>
-0.78183

>  <SCORE.INTRA.SOLV.lig_0>
-32.0799

>  <SCORE.INTRA.VDW>
-0.0571768

>  <SCORE.INTRA.VDW.0>
-0.618248

>  <SCORE.INTRA.norm>
-0.0140357

>  <SCORE.RESTR>
0

>  <SCORE.RESTR.CAVITY>
0

>  <SCORE.RESTR.norm>
0

>  <SCORE.SYSTEM>
0

>  <SCORE.SYSTEM.CONST>
0

>  <SCORE.SYSTEM.DIHEDRAL>
0

>  <SCORE.SYSTEM.SOLV>
0

>  <SCORE.SYSTEM.norm>
0

>  <SCORE.heavy>
10

>  <SCORE.norm>
-0.940021

>  <RMSD>
4.269

$$$$
ligand
 OpenBabel11021811473D
libRbt.so/2013.1/901 2013/11/27
 10  9  0  0  0  0  0  0  0  0999 V2000
   26.7213   14.7849   20.4918 N   0  0  0  0  0  0  0  0  0  0  0  0
   28.1901   14.6655   20.2441 C   0  0  2  0  0  0  0  0  0  0  0  0
   29.0210   15.4677   21.2522 C   0  0  0  0  0  0  0  0  0  0  0  0
   29.0543   16.7073   21.2386 O   0  0  0  0  0  0  0  0  0  0  0  0
   28.5341   15.0579   18.8047 C   0  0  0  0  0  0  0  0  0  0  0  0
   28.3105   13.9392   17.8128 C   0  0  0  0  0  0  0  0  0  0  0  0
   26.8671   13.4988   17.7803 C   0  0  0  0  0  0  0  0  0  0  0  0
   26.6595   12.3637   16.7834 C   0  0  0  0  0  0  0  0  0  0  0  0
   27.4296   11.1351   17.1162 N   0  0  0  0  0  0  0  0  0  0  0  0
   29.6617   14.9005   22.1424 O   0  0  0  0  0  0  0  0  0  0  0  0
  2  1  1  1  0  0  0
  2  3  1  0  0  0  0
  2  5  1  0  0  0  0
  3  4  1  0  0  0  0
  3 10  1  0  0  0  0
  5  6  1  0  0  0  0
  6  7  1  0  0  0  0
  7  8  1  0  0  0  0
  8  9  1  0  0  0  0
M  END
>  <CHROM.1>
-71.06933930,-82.11242131,60.84463168,-179.57719925,61.90952469,28.06692772
14.27549099,19.39856636,0.97890645,-0.93628586,0.40967294

>  <Name>
ligand

>  <RI>
0

>  <Rbt.Current_Directory>
/home/itssahil/PROJECTS/Mol_Feturizer/New_Systems/rnas/3DIY

>  <Rbt.Executable>
rbdock ($Id: //depot/dev/client3/rdock/2013.1/src/exe/rbdock.cxx#4 $)

>  <Rbt.Library>
libRbt.so (2013.1, Build901 2013/11/27)

>  <Rbt.Parameter_File>
/export/apps/rDock/src/rDock_2013.1_src/data/scripts/dock_solv.prm

>  <Rbt.Receptor>
prm/blind_docking_100.prm

>  <SCORE>
-5.74078

>  <SCORE.INTER>
-7.15348

>  <SCORE.INTER.CONST>
1

>  <SCORE.INTER.POLAR>
0

>  <SCORE.INTER.ROT>
5

>  <SCORE.INTER.SOLV>
19.0533

>  <SCORE.INTER.VDW>
-18.0534

>  <SCORE.INTER.norm>
-0.715348

>  <SCORE.INTRA>
1.4127

>  <SCORE.INTRA.DIHEDRAL>
0.695783

>  <SCORE.INTRA.DIHEDRAL.0>
2.56603

>  <SCORE.INTRA.POLAR>
0

>  <SCORE.INTRA.POLAR.0>
0

>  <SCORE.INTRA.REPUL>
0

>  <SCORE.INTRA.REPUL.0>
0

>  <SCORE.INTRA.SOLV>
1.32021

>  <SCORE.INTRA.SOLV.lig_0>
-32.0799

>  <SCORE.INTRA.VDW>
0.4047

>  <SCORE.INTRA.VDW.0>
-0.618248

>  <SCORE.INTRA.norm>
0.14127

>  <SCORE.RESTR>
0

>  <SCORE.RESTR.CAVITY>
0

>  <SCORE.RESTR.norm>
0

>  <SCORE.SYSTEM>
0

>  <SCORE.SYSTEM.CONST>
0

>  <SCORE.SYSTEM.DIHEDRAL>
0

>  <SCORE.SYSTEM.SOLV>
0

>  <SCORE.SYSTEM.norm>
0

>  <SCORE.heavy>
10

>  <SCORE.norm>
-0.574078

>  <RMSD>
4.286

$$$$
ligand
 OpenBabel11021811473D
libRbt.so/2013.1/901 2013/11/27
 10  9  0  0  0  0  0  0  0  0999 V2000
   27.1178   15.5113   20.5722 N   0  0  0  0  0  0  0  0  0  0  0  0
   28.2214   14.6925   19.9851 C   0  0  2  0  0  0  0  0  0  0  0  0
   29.5414   14.8567   20.7472 C   0  0  0  0  0  0  0  0  0  0  0  0
   30.6040   15.1327   20.1704 O   0  0  0  0  0  0  0  0  0  0  0  0
   28.3980   15.0027   18.4962 C   0  0  0  0  0  0  0  0  0  0  0  0
   27.3405   14.3638   17.6252 C   0  0  0  0  0  0  0  0  0  0  0  0
   27.5214   12.8683   17.5293 C   0  0  0  0  0  0  0  0  0  0  0  0
   26.3049   12.2057   16.8920 C   0  0  0  0  0  0  0  0  0  0  0  0
   26.3407   10.7196   16.9520 N   0  0  0  0  0  0  0  0  0  0  0  0
   29.5826   14.7543   21.9771 O   0  0  0  0  0  0  0  0  0  0  0  0
  2  1  1  1  0  0  0
  2  3  1  0  0  0  0
  2  5  1  0  0  0  0
  3  4  1  0  0  0  0
  3 10  1  0  0  0  0
  5  6  1  0  0  0  0
  6  7  1  0  0  0  0
  7  8  1  0  0  0  0
  8  9  1  0  0  0  0
M  END
>  <CHROM.1>
-128.80956857,-76.59657580,-71.44974069,168.50541818,-171.57406090,28.13194228
14.02014624,19.12012699,0.94982102,-0.53699529,0.54993147

>  <Name>
ligand

>  <RI>
0

>  <Rbt.Current_Directory>
/home/itssahil/PROJECTS/Mol_Feturizer/New_Systems/rnas/3DIY

>  <Rbt.Executable>
rbdock ($Id: //depot/dev/client3/rdock/2013.1/src/exe/rbdock.cxx#4 $)

>  <Rbt.Library>
libRbt.so (2013.1, Build901 2013/11/27)

>  <Rbt.Parameter_File>
/export/apps/rDock/src/rDock_2013.1_src/data/scripts/dock_solv.prm

>  <Rbt.Receptor>
prm/blind_docking_80.prm

>  <SCORE>
-6.855

>  <SCORE.INTER>
-7.76833

>  <SCORE.INTER.CONST>
1

>  <SCORE.INTER.POLAR>
0

>  <SCORE.INTER.ROT>
5

>  <SCORE.INTER.SOLV>
17.2552

>  <SCORE.INTER.VDW>
-17.8639

>  <SCORE.INTER.norm>
-0.776833

>  <SCORE.INTRA>
0.913332

>  <SCORE.INTRA.DIHEDRAL>
1.39755

>  <SCORE.INTRA.DIHEDRAL.0>
2.56603

>  <SCORE.INTRA.POLAR>
0

>  <SCORE.INTRA.POLAR.0>
0

>  <SCORE.INTRA.REPUL>
0

>  <SCORE.INTRA.REPUL.0>
0

>  <SCORE.INTRA.SOLV>
-0.52212

>  <SCORE.INTRA.SOLV.lig_0>
-32.0799

>  <SCORE.INTRA.VDW>
0.475615

>  <SCORE.INTRA.VDW.0>
-0.618248

>  <SCORE.INTRA.norm>
0.0913332

>  <SCORE.RESTR>
0

>  <SCORE.RESTR.CAVITY>
0

>  <SCORE.RESTR.norm>
0

>  <SCORE.SYSTEM>
0

>  <SCORE.SYSTEM.CONST>
0

>  <SCORE.SYSTEM.DIHEDRAL>
0

>  <SCORE.SYSTEM.SOLV>
0

>  <SCORE.SYSTEM.norm>
0

>  <SCORE.heavy>
10

>  <SCORE.norm>
-0.6855

>  <RMSD>
4.300

$$$$
ligand
 OpenBabel11021811473D
libRbt.so/2013.1/901 2013/11/27
 10  9  0  0  0  0  0  0  0  0999 V2000
   30.0316   15.9499   20.3823 N   0  0  0  0  0  0  0  0  0  0  0  0
   28.6278   15.4744   20.1918 C   0  0  2  0  0  0  0  0  0  0  0  0
   28.0943   14.7195   21.4148 C   0  0  0  0  0  0  0  0  0  0  0  0
   28.8145   13.9698   22.0908 O   0  0  0  0  0  0  0  0  0  0  0  0
   28.5061   14.6287   18.9213 C   0  0  0  0  0  0  0  0  0  0  0  0
   27.0929   14.1680   18.6455 C   0  0  0  0  0  0  0  0  0  0  0  0
   26.9435   13.6247   17.2452 C   0  0  0  0  0  0  0  0  0  0  0  0
   27.4207   12.1788   17.1611 C   0  0  0  0  0  0  0  0  0  0  0  0
   26.3456   11.1843   17.4228 N   0  0  0  0  0  0  0  0  0  0  0  0
   26.9272   14.8636   21.7917 O   0  0  0  0  0  0  0  0  0  0  0  0
  2  1  1  1  0  0  0
  2  3  1  0  0  0  0
  2  5  1  0  0  0  0
  3  4  1  0  0  0  0
  3 10  1  0  0  0  0
  5  6  1  0  0  0  0
  6  7  1  0  0  0  0
  7  8  1  0  0  0  0
  8  9  1  0  0  0  0
M  END
>  <CHROM.1>
-37.05024194,-177.55490807,166.60875830,81.51155681,90.33810085,27.87168747
14.06666133,19.56269000,-1.03100795,-0.84337947,-1.74992670

>  <Name>
ligand

>  <RI>
0

>  <Rbt.Current_Directory>
/home/itssahil/PROJECTS/Mol_Feturizer/New_Systems/rnas/3DIY

>  <Rbt.Executable>
rbdock ($Id: //depot/dev/client3/rdock/2013.1/src/exe/rbdock.cxx#4 $)

>  <Rbt.Library>
libRbt.so (2013.1, Build901 2013/11/27)

>  <Rbt.Parameter_File>
/export/apps/rDock/src/rDock_2013.1_src/data/scripts/dock_solv.prm

>  <Rbt.Receptor>
prm/blind_docking_80.prm

>  <SCORE>
-5.90004

>  <SCORE.INTER>
-7.79555

>  <SCORE.INTER.CONST>
1

>  <SCORE.INTER.POLAR>
0

>  <SCORE.INTER.ROT>
5

>  <SCORE.INTER.SOLV>
14.2159

>  <SCORE.INTER.VDW>
-16.869

>  <SCORE.INTER.norm>
-0.779555

>  <SCORE.INTRA>
1.8955

>  <SCORE.INTRA.DIHEDRAL>
4.33176

>  <SCORE.INTRA.DIHEDRAL.0>
2.56603

>  <SCORE.INTRA.POLAR>
0

>  <SCORE.INTRA.POLAR.0>
0

>  <SCORE.INTRA.REPUL>
0

>  <SCORE.INTRA.REPUL.0>
0

>  <SCORE.INTRA.SOLV>
-0.848671

>  <SCORE.INTRA.SOLV.lig_0>
-32.0799

>  <SCORE.INTRA.VDW>
0.153957

>  <SCORE.INTRA.VDW.0>
-0.618248

>  <SCORE.INTRA.norm>
0.18955

>  <SCORE.RESTR>
0

>  <SCORE.RESTR.CAVITY>
0

>  <SCORE.RESTR.norm>
0

>  <SCORE.SYSTEM>
0

>  <SCORE.SYSTEM.CONST>
0

>  <SCORE.SYSTEM.DIHEDRAL>
0

>  <SCORE.SYSTEM.SOLV>
0

>  <SCORE.SYSTEM.norm>
0

>  <SCORE.heavy>
10

>  <SCORE.norm>
-0.590004

>  <RMSD>
4.487

$$$$
ligand
 OpenBabel11021811473D
libRbt.so/2013.1/901 2013/11/27
 10  9  0  0  0  0  0  0  0  0999 V2000
   28.9881   16.4562   19.0935 N   0  0  0  0  0  0  0  0  0  0  0  0
   27.8166   15.8800   19.8207 C   0  0  2  0  0  0  0  0  0  0  0  0
   28.2332   15.0721   21.0550 C   0  0  0  0  0  0  0  0  0  0  0  0
   27.5085   14.9815   22.0573 O   0  0  0  0  0  0  0  0  0  0  0  0
   26.9469   15.0439   18.8779 C   0  0  0  0  0  0  0  0  0  0  0  0
   27.7034   13.9168   18.2124 C   0  0  0  0  0  0  0  0  0  0  0  0
   26.7843   13.0085   17.4322 C   0  0  0  0  0  0  0  0  0  0  0  0
   27.4894   11.7140   17.0422 C   0  0  0  0  0  0  0  0  0  0  0  0
   26.5534   10.6144   16.6844 N   0  0  0  0  0  0  0  0  0  0  0  0
   29.2991   14.4490   21.0772 O   0  0  0  0  0  0  0  0  0  0  0  0
  2  1  1  6  0  0  0
  2  3  1  0  0  0  0
  2  5  1  0  0  0  0
  3  4  1  0  0  0  0
  3 10  1  0  0  0  0
  5  6  1  0  0  0  0
  6  7  1  0  0  0  0
  7  8  1  0  0  0  0
  8  9  1  0  0  0  0
M  END
>  <CHROM.1>
149.77751922,57.66306274,172.67067644,-166.75837150,160.90701336,27.74329829
14.10430317,19.17128840,-0.21989343,-1.31138339,-0.99632604

>  <Name>
ligand

>  <RI>
0

>  <Rbt.Current_Directory>
/home/itssahil/PROJECTS/Mol_Feturizer/New_Systems/rnas/3DIY

>  <Rbt.Executable>
rbdock ($Id: //depot/dev/client3/rdock/2013.1/src/exe/rbdock.cxx#4 $)

>  <Rbt.Library>
libRbt.so (2013.1, Build901 2013/11/27)

>  <Rbt.Parameter_File>
/export/apps/rDock/src/rDock_2013.1_src/data/scripts/dock_solv.prm

>  <Rbt.Receptor>
prm/pocket_docking_7.prm

>  <SCORE>
-8.2195

>  <SCORE.INTER>
-8.26141

>  <SCORE.INTER.CONST>
1

>  <SCORE.INTER.POLAR>
0

>  <SCORE.INTER.ROT>
5

>  <SCORE.INTER.SOLV>
15.7805

>  <SCORE.INTER.VDW>
-17.7011

>  <SCORE.INTER.norm>
-0.826141

>  <SCORE.INTRA>
0.0419121

>  <SCORE.INTRA.DIHEDRAL>
1.12582

>  <SCORE.INTRA.DIHEDRAL.0>
2.56603

>  <SCORE.INTRA.POLAR>
0

>  <SCORE.INTRA.POLAR.0>
0

>  <SCORE.INTRA.REPUL>
0

>  <SCORE.INTRA.REPUL.0>
0

>  <SCORE.INTRA.SOLV>
-0.658015

>  <SCORE.INTRA.SOLV.lig_0>
-32.0799

>  <SCORE.INTRA.VDW>
-0.191992

>  <SCORE.INTRA.VDW.0>
-0.618248

>  <SCORE.INTRA.norm>
0.00419121

>  <SCORE.RESTR>
0

>  <SCORE.RESTR.CAVITY>
0

>  <SCORE.RESTR.norm>
0

>  <SCORE.SYSTEM>
0

>  <SCORE.SYSTEM.CONST>
0

>  <SCORE.SYSTEM.DIHEDRAL>
0

>  <SCORE.SYSTEM.SOLV>
0

>  <SCORE.SYSTEM.norm>
0

>  <SCORE.heavy>
10

>  <SCORE.norm>
-0.82195

>  <RMSD>
4.628

$$$$
ligand
 OpenBabel11021811473D
libRbt.so/2013.1/901 2013/11/27
 10  9  0  0  0  0  0  0  0  0999 V2000
   29.3721   15.9247   19.5319 N   0  0  0  0  0  0  0  0  0  0  0  0
   27.9416   15.7126   19.9084 C   0  0  2  0  0  0  0  0  0  0  0  0
   27.7899   14.8817   21.1876 C   0  0  0  0  0  0  0  0  0  0  0  0
   26.7711   14.9392   21.8925 O   0  0  0  0  0  0  0  0  0  0  0  0
   27.1584   15.0927   18.7480 C   0  0  0  0  0  0  0  0  0  0  0  0
   27.7773   13.8158   18.2265 C   0  0  0  0  0  0  0  0  0  0  0  0
   26.8033   13.0211   17.3909 C   0  0  0  0  0  0  0  0  0  0  0  0
   27.3771   11.6569   17.0238 C   0  0  0  0  0  0  0  0  0  0  0  0
   26.3356   10.6349   16.7338 N   0  0  0  0  0  0  0  0  0  0  0  0
   28.6714   14.0927   21.5417 O   0  0  0  0  0  0  0  0  0  0  0  0
  2  1  1  6  0  0  0
  2  3  1  0  0  0  0
  2  5  1  0  0  0  0
  3  4  1  0  0  0  0
  3 10  1  0  0  0  0
  5  6  1  0  0  0  0
  6  7  1  0  0  0  0
  7  8  1  0  0  0  0
  8  9  1  0  0  0  0
M  END
>  <CHROM.1>
156.85527359,54.45820790,163.09011912,-172.62361226,155.35115324,27.59795546
13.96715934,19.25562539,-1.08855883,-1.07880674,-1.85721555

>  <Name>
ligand

>  <RI>
0

>  <Rbt.Current_Directory>
/home/itssahil/PROJECTS/Mol_Feturizer/New_Systems/rnas/3DIY

>  <Rbt.Executable>
rbdock ($Id: //depot/dev/client3/rdock/2013.1/src/exe/rbdock.cxx#4 $)

>  <Rbt.Library>
libRbt.so (2013.1, Build901 2013/11/27)

>  <Rbt.Parameter_File>
/export/apps/rDock/src/rDock_2013.1_src/data/scripts/dock_solv.prm

>  <Rbt.Receptor>
prm/pocket_docking_7.prm

>  <SCORE>
-9.64227

>  <SCORE.INTER>
-10.3458

>  <SCORE.INTER.CONST>
1

>  <SCORE.INTER.POLAR>
0

>  <SCORE.INTER.ROT>
5

>  <SCORE.INTER.SOLV>
14.1741

>  <SCORE.INTER.VDW>
-18.5552

>  <SCORE.INTER.norm>
-1.03458

>  <SCORE.INTRA>
0.703537

>  <SCORE.INTRA.DIHEDRAL>
2.38251

>  <SCORE.INTRA.DIHEDRAL.0>
2.56603

>  <SCORE.INTRA.POLAR>
0

>  <SCORE.INTRA.POLAR.0>
0

>  <SCORE.INTRA.REPUL>
0

>  <SCORE.INTRA.REPUL.0>
0

>  <SCORE.INTRA.SOLV>
-0.621545

>  <SCORE.INTRA.SOLV.lig_0>
-32.0799

>  <SCORE.INTRA.VDW>
-0.176945

>  <SCORE.INTRA.VDW.0>
-0.618248

>  <SCORE.INTRA.norm>
0.0703537

>  <SCORE.RESTR>
0

>  <SCORE.RESTR.CAVITY>
0

>  <SCORE.RESTR.norm>
0

>  <SCORE.SYSTEM>
0

>  <SCORE.SYSTEM.CONST>
0

>  <SCORE.SYSTEM.DIHEDRAL>
0

>  <SCORE.SYSTEM.SOLV>
0

>  <SCORE.SYSTEM.norm>
0

>  <SCORE.heavy>
10

>  <SCORE.norm>
-0.964227

>  <RMSD>
4.819

$$$$
ligand
 OpenBabel11021811473D
libRbt.so/2013.1/901 2013/11/27
 10  9  0  0  0  0  0  0  0  0999 V2000
   29.1118   16.9255   20.4321 N   0  0  0  0  0  0  0  0  0  0  0  0
   27.9507   16.0741   20.0321 C   0  0  2  0  0  0  0  0  0  0  0  0
   27.3225   15.3431   21.2242 C   0  0  0  0  0  0  0  0  0  0  0  0
   26.1606   14.9107   21.1926 O   0  0  0  0  0  0  0  0  0  0  0  0
   28.3495   15.0924   18.9269 C   0  0  0  0  0  0  0  0  0  0  0  0
   27.1777   14.3200   18.3650 C   0  0  0  0  0  0  0  0  0  0  0  0
   27.6281   13.1312   17.5512 C   0  0  0  0  0  0  0  0  0  0  0  0
   26.4371   12.3087   17.0712 C   0  0  0  0  0  0  0  0  0  0  0  0
   26.8033   10.9334   16.6379 N   0  0  0  0  0  0  0  0  0  0  0  0
   27.9721   15.1271   22.2519 O   0  0  0  0  0  0  0  0  0  0  0  0
  2  1  1  1  0  0  0
  2  3  1  0  0  0  0
  2  5  1  0  0  0  0
  3  4  1  0  0  0  0
  3 10  1  0  0  0  0
  5  6  1  0  0  0  0
  6  7  1  0  0  0  0
  7  8  1  0  0  0  0
  8  9  1  0  0  0  0
M  END
>  <CHROM.1>
158.88282239,-173.04681918,-165.32617130,176.12094459,-162.25945452,27.47846256
14.40853211,19.40328433,-1.29196954,-0.83774699,-2.10222766

>  <Name>
ligand

>  <RI>
0

>  <Rbt.Current_Directory>
/home/itssahil/PROJECTS/Mol_Feturizer/New_Systems/rnas/3DIY

>  <Rbt.Executable>
rbdock ($Id: //depot/dev/client3/rdock/2013.1/src/exe/rbdock.cxx#4 $)

>  <Rbt.Library>
libRbt.so (2013.1, Build901 2013/11/27)

>  <Rbt.Parameter_File>
/export/apps/rDock/src/rDock_2013.1_src/data/scripts/dock_solv.prm

>  <Rbt.Receptor>
prm/pocket_docking_5.prm

>  <SCORE>
-10.5358

>  <SCORE.INTER>
-10.1628

>  <SCORE.INTER.CONST>
1

>  <SCORE.INTER.POLAR>
0

>  <SCORE.INTER.ROT>
5

>  <SCORE.INTER.SOLV>
18.2115

>  <SCORE.INTER.VDW>
-19.779

>  <SCORE.INTER.norm>
-1.01628

>  <SCORE.INTRA>
-0.373034

>  <SCORE.INTRA.DIHEDRAL>
1.10183

>  <SCORE.INTRA.DIHEDRAL.0>
2.56603

>  <SCORE.INTRA.POLAR>
0

>  <SCORE.INTRA.POLAR.0>
0

>  <SCORE.INTRA.REPUL>
0

>  <SCORE.INTRA.REPUL.0>
0

>  <SCORE.INTRA.SOLV>
-1.57146

>  <SCORE.INTRA.SOLV.lig_0>
-32.0799

>  <SCORE.INTRA.VDW>
-0.138222

>  <SCORE.INTRA.VDW.0>
-0.618248

>  <SCORE.INTRA.norm>
-0.0373034

>  <SCORE.RESTR>
0

>  <SCORE.RESTR.CAVITY>
0

>  <SCORE.RESTR.norm>
0

>  <SCORE.SYSTEM>
0

>  <SCORE.SYSTEM.CONST>
0

>  <SCORE.SYSTEM.DIHEDRAL>
0

>  <SCORE.SYSTEM.SOLV>
0

>  <SCORE.SYSTEM.norm>
0

>  <SCORE.heavy>
10

>  <SCORE.norm>
-1.05358

>  <RMSD>
4.831

$$$$
ligand
 OpenBabel11021811473D
libRbt.so/2013.1/901 2013/11/27
 10  9  0  0  0  0  0  0  0  0999 V2000
   27.0081   14.6409   18.9291 N   0  0  0  0  0  0  0  0  0  0  0  0
   28.1394   15.0835   19.7995 C   0  0  2  0  0  0  0  0  0  0  0  0
   27.9341   14.6962   21.2684 C   0  0  0  0  0  0  0  0  0  0  0  0
   26.8991   14.9866   21.8869 O   0  0  0  0  0  0  0  0  0  0  0  0
   28.3854   16.5874   19.6513 C   0  0  0  0  0  0  0  0  0  0  0  0
   29.7970   16.9976   20.0044 C   0  0  0  0  0  0  0  0  0  0  0  0
   30.0916   16.7887   21.4700 C   0  0  0  0  0  0  0  0  0  0  0  0
   31.5064   17.2391   21.8175 C   0  0  0  0  0  0  0  0  0  0  0  0
   32.5625   16.4985   21.0763 N   0  0  0  0  0  0  0  0  0  0  0  0
   28.7865   14.0441   21.8792 O   0  0  0  0  0  0  0  0  0  0  0  0
  2  1  1  6  0  0  0
  2  3  1  0  0  0  0
  2  5  1  0  0  0  0
  3  4  1  0  0  0  0
  3 10  1  0  0  0  0
  5  6  1  0  0  0  0
  6  7  1  0  0  0  0
  7  8  1  0  0  0  0
  8  9  1  0  0  0  0
M  END
>  <CHROM.1>
-52.71200012,-155.72392785,-66.16623945,-178.58176521,-60.57301944,29.09910709
15.74156533,20.80937264,3.07006912,0.49274118,2.06902937

>  <Name>
ligand

>  <RI>
0

>  <Rbt.Current_Directory>
/home/itssahil/PROJECTS/Mol_Feturizer/New_Systems/rnas/3DIY

>  <Rbt.Executable>
rbdock ($Id: //depot/dev/client3/rdock/2013.1/src/exe/rbdock.cxx#4 $)

>  <Rbt.Library>
libRbt.so (2013.1, Build901 2013/11/27)

>  <Rbt.Parameter_File>
/export/apps/rDock/src/rDock_2013.1_src/data/scripts/dock_solv.prm

>  <Rbt.Receptor>
prm/blind_docking_80.prm

>  <SCORE>
-7.20524

>  <SCORE.INTER>
-7.67958

>  <SCORE.INTER.CONST>
1

>  <SCORE.INTER.POLAR>
0

>  <SCORE.INTER.ROT>
5

>  <SCORE.INTER.SOLV>
14.1638

>  <SCORE.INTER.VDW>
-16.7743

>  <SCORE.INTER.norm>
-0.767958

>  <SCORE.INTRA>
0.474344

>  <SCORE.INTRA.DIHEDRAL>
1.11163

>  <SCORE.INTRA.DIHEDRAL.0>
2.56603

>  <SCORE.INTRA.POLAR>
0

>  <SCORE.INTRA.POLAR.0>
0

>  <SCORE.INTRA.REPUL>
0

>  <SCORE.INTRA.REPUL.0>
0

>  <SCORE.INTRA.SOLV>
-0.481993

>  <SCORE.INTRA.SOLV.lig_0>
-32.0799

>  <SCORE.INTRA.VDW>
0.159525

>  <SCORE.INTRA.VDW.0>
-0.618248

>  <SCORE.INTRA.norm>
0.0474344

>  <SCORE.RESTR>
0

>  <SCORE.RESTR.CAVITY>
0

>  <SCORE.RESTR.norm>
0

>  <SCORE.SYSTEM>
0

>  <SCORE.SYSTEM.CONST>
0

>  <SCORE.SYSTEM.DIHEDRAL>
0

>  <SCORE.SYSTEM.SOLV>
0

>  <SCORE.SYSTEM.norm>
0

>  <SCORE.heavy>
10

>  <SCORE.norm>
-0.720524

>  <RMSD>
4.855

$$$$
ligand
 OpenBabel11021811473D
libRbt.so/2013.1/901 2013/11/27
 10  9  0  0  0  0  0  0  0  0999 V2000
   27.0057   14.6826   18.9425 N   0  0  0  0  0  0  0  0  0  0  0  0
   28.1385   15.1002   19.8230 C   0  0  2  0  0  0  0  0  0  0  0  0
   27.9265   14.6891   21.2845 C   0  0  0  0  0  0  0  0  0  0  0  0
   28.8002   14.0953   21.9341 O   0  0  0  0  0  0  0  0  0  0  0  0
   28.3976   16.6044   19.7017 C   0  0  0  0  0  0  0  0  0  0  0  0
   29.8215   16.9919   20.0303 C   0  0  0  0  0  0  0  0  0  0  0  0
   30.1339   16.7908   21.4933 C   0  0  0  0  0  0  0  0  0  0  0  0
   31.5559   17.2345   21.8193 C   0  0  0  0  0  0  0  0  0  0  0  0
   32.5978   16.4794   21.0725 N   0  0  0  0  0  0  0  0  0  0  0  0
   26.8818   14.9713   21.8793 O   0  0  0  0  0  0  0  0  0  0  0  0
  2  1  1  6  0  0  0
  2  3  1  0  0  0  0
  2  5  1  0  0  0  0
  3  4  1  0  0  0  0
  3 10  1  0  0  0  0
  5  6  1  0  0  0  0
  6  7  1  0  0  0  0
  7  8  1  0  0  0  0
  8  9  1  0  0  0  0
M  END
>  <CHROM.1>
130.25530813,-154.22167142,-68.05289384,-177.87967325,-60.75792886,29.11402219
15.74967416,20.82928989,3.07134397,0.48104562,2.06812497

>  <Name>
ligand

>  <RI>
0

>  <Rbt.Current_Directory>
/home/itssahil/PROJECTS/Mol_Feturizer/New_Systems/rnas/3DIY

>  <Rbt.Executable>
rbdock ($Id: //depot/dev/client3/rdock/2013.1/src/exe/rbdock.cxx#4 $)

>  <Rbt.Library>
libRbt.so (2013.1, Build901 2013/11/27)

>  <Rbt.Parameter_File>
/export/apps/rDock/src/rDock_2013.1_src/data/scripts/dock_solv.prm

>  <Rbt.Receptor>
prm/pocket_docking_4.prm

>  <SCORE>
-7.20777

>  <SCORE.INTER>
-7.72359

>  <SCORE.INTER.CONST>
1

>  <SCORE.INTER.POLAR>
0

>  <SCORE.INTER.ROT>
5

>  <SCORE.INTER.SOLV>
14.1937

>  <SCORE.INTER.VDW>
-16.8136

>  <SCORE.INTER.norm>
-0.772359

>  <SCORE.INTRA>
0.515814

>  <SCORE.INTRA.DIHEDRAL>
1.39524

>  <SCORE.INTRA.DIHEDRAL.0>
2.56603

>  <SCORE.INTRA.POLAR>
0

>  <SCORE.INTRA.POLAR.0>
0

>  <SCORE.INTRA.REPUL>
0

>  <SCORE.INTRA.REPUL.0>
0

>  <SCORE.INTRA.SOLV>
-0.507581

>  <SCORE.INTRA.SOLV.lig_0>
-32.0799

>  <SCORE.INTRA.VDW>
0.0719855

>  <SCORE.INTRA.VDW.0>
-0.618248

>  <SCORE.INTRA.norm>
0.0515814

>  <SCORE.RESTR>
0

>  <SCORE.RESTR.CAVITY>
0

>  <SCORE.RESTR.norm>
0

>  <SCORE.SYSTEM>
0

>  <SCORE.SYSTEM.CONST>
0

>  <SCORE.SYSTEM.DIHEDRAL>
0

>  <SCORE.SYSTEM.SOLV>
0

>  <SCORE.SYSTEM.norm>
0

>  <SCORE.heavy>
10

>  <SCORE.norm>
-0.720777

>  <RMSD>
4.861

$$$$
ligand
 OpenBabel11021811473D
libRbt.so/2013.1/901 2013/11/27
 10  9  0  0  0  0  0  0  0  0999 V2000
   27.2141   16.2040   19.4485 N   0  0  0  0  0  0  0  0  0  0  0  0
   28.3484   15.4244   20.0304 C   0  0  2  0  0  0  0  0  0  0  0  0
   28.0052   14.8241   21.3985 C   0  0  0  0  0  0  0  0  0  0  0  0
   28.8227   14.1530   22.0461 O   0  0  0  0  0  0  0  0  0  0  0  0
   29.6173   16.2783   20.1016 C   0  0  0  0  0  0  0  0  0  0  0  0
   30.8805   15.4581   20.2324 C   0  0  0  0  0  0  0  0  0  0  0  0
   32.1125   16.3292   20.2754 C   0  0  0  0  0  0  0  0  0  0  0  0
   32.3632   16.8602   21.6827 C   0  0  0  0  0  0  0  0  0  0  0  0
   31.3039   17.7878   22.1631 N   0  0  0  0  0  0  0  0  0  0  0  0
   26.9044   15.0221   21.9218 O   0  0  0  0  0  0  0  0  0  0  0  0
  2  1  1  1  0  0  0
  2  3  1  0  0  0  0
  2  5  1  0  0  0  0
  3  4  1  0  0  0  0
  3 10  1  0  0  0  0
  5  6  1  0  0  0  0
  6  7  1  0  0  0  0
  7  8  1  0  0  0  0
  8  9  1  0  0  0  0
M  END
>  <CHROM.1>
-179.35256490,-160.71527045,178.99590884,82.96902870,-65.40174493,29.54076528
15.81628268,20.95928932,3.04164251,0.35566476,1.94722870

>  <Name>
ligand

>  <RI>
0

>  <Rbt.Current_Directory>
/home/itssahil/PROJECTS/Mol_Feturizer/New_Systems/rnas/3DIY

>  <Rbt.Executable>
rbdock ($Id: //depot/dev/client3/rdock/2013.1/src/exe/rbdock.cxx#4 $)

>  <Rbt.Library>
libRbt.so (2013.1, Build901 2013/11/27)

>  <Rbt.Parameter_File>
/export/apps/rDock/src/rDock_2013.1_src/data/scripts/dock_solv.prm

>  <Rbt.Receptor>
prm/pocket_docking_8.prm

>  <SCORE>
-6.18301

>  <SCORE.INTER>
-7.83985

>  <SCORE.INTER.CONST>
1

>  <SCORE.INTER.POLAR>
0

>  <SCORE.INTER.ROT>
5

>  <SCORE.INTER.SOLV>
14.5733

>  <SCORE.INTER.VDW>
-17.0177

>  <SCORE.INTER.norm>
-0.783985

>  <SCORE.INTRA>
1.65684

>  <SCORE.INTRA.DIHEDRAL>
2.32448

>  <SCORE.INTRA.DIHEDRAL.0>
2.56603

>  <SCORE.INTRA.POLAR>
0

>  <SCORE.INTRA.POLAR.0>
0

>  <SCORE.INTRA.REPUL>
0

>  <SCORE.INTRA.REPUL.0>
0

>  <SCORE.INTRA.SOLV>
0.580114

>  <SCORE.INTRA.SOLV.lig_0>
-32.0799

>  <SCORE.INTRA.VDW>
0.204546

>  <SCORE.INTRA.VDW.0>
-0.618248

>  <SCORE.INTRA.norm>
0.165684

>  <SCORE.RESTR>
0

>  <SCORE.RESTR.CAVITY>
0

>  <SCORE.RESTR.norm>
0

>  <SCORE.SYSTEM>
0

>  <SCORE.SYSTEM.CONST>
0

>  <SCORE.SYSTEM.DIHEDRAL>
0

>  <SCORE.SYSTEM.SOLV>
0

>  <SCORE.SYSTEM.norm>
0

>  <SCORE.heavy>
10

>  <SCORE.norm>
-0.618301

>  <RMSD>
4.904

$$$$
ligand
 OpenBabel11021811473D
libRbt.so/2013.1/901 2013/11/27
 10  9  0  0  0  0  0  0  0  0999 V2000
   29.0785   16.8473   20.4731 N   0  0  0  0  0  0  0  0  0  0  0  0
   27.9122   16.0515   19.9836 C   0  0  2  0  0  0  0  0  0  0  0  0
   27.1632   15.3495   21.1221 C   0  0  0  0  0  0  0  0  0  0  0  0
   26.0009   14.9379   20.9894 O   0  0  0  0  0  0  0  0  0  0  0  0
   28.3463   15.0535   18.9067 C   0  0  0  0  0  0  0  0  0  0  0  0
   27.1859   14.3288   18.2637 C   0  0  0  0  0  0  0  0  0  0  0  0
   27.6339   13.0794   17.5449 C   0  0  0  0  0  0  0  0  0  0  0  0
   26.4416   12.2933   17.0104 C   0  0  0  0  0  0  0  0  0  0  0  0
   26.7809   10.9007   16.6120 N   0  0  0  0  0  0  0  0  0  0  0  0
   27.7117   15.1364   22.2078 O   0  0  0  0  0  0  0  0  0  0  0  0
  2  1  1  1  0  0  0
  2  3  1  0  0  0  0
  2  5  1  0  0  0  0
  3  4  1  0  0  0  0
  3 10  1  0  0  0  0
  5  6  1  0  0  0  0
  6  7  1  0  0  0  0
  7  8  1  0  0  0  0
  8  9  1  0  0  0  0
M  END
>  <CHROM.1>
160.97100301,-173.53908561,-162.15496586,174.84506818,-164.99533165,27.40971776
14.39045157,19.34487489,-1.33943179,-0.77140717,-2.15467420

>  <Name>
ligand

>  <RI>
0

>  <Rbt.Current_Directory>
/home/itssahil/PROJECTS/Mol_Feturizer/New_Systems/rnas/3DIY

>  <Rbt.Executable>
rbdock ($Id: //depot/dev/client3/rdock/2013.1/src/exe/rbdock.cxx#4 $)

>  <Rbt.Library>
libRbt.so (2013.1, Build901 2013/11/27)

>  <Rbt.Parameter_File>
/export/apps/rDock/src/rDock_2013.1_src/data/scripts/dock_solv.prm

>  <Rbt.Receptor>
prm/pocket_docking_5.prm

>  <SCORE>
-10.5925

>  <SCORE.INTER>
-10.3082

>  <SCORE.INTER.CONST>
1

>  <SCORE.INTER.POLAR>
0

>  <SCORE.INTER.ROT>
5

>  <SCORE.INTER.SOLV>
18.0252

>  <SCORE.INTER.VDW>
-19.8139

>  <SCORE.INTER.norm>
-1.03082

>  <SCORE.INTRA>
-0.284275

>  <SCORE.INTRA.DIHEDRAL>
1.21226

>  <SCORE.INTRA.DIHEDRAL.0>
2.56603

>  <SCORE.INTRA.POLAR>
0

>  <SCORE.INTRA.POLAR.0>
0

>  <SCORE.INTRA.REPUL>
0

>  <SCORE.INTRA.REPUL.0>
0

>  <SCORE.INTRA.SOLV>
-1.57666

>  <SCORE.INTRA.SOLV.lig_0>
-32.0799

>  <SCORE.INTRA.VDW>
-0.102077

>  <SCORE.INTRA.VDW.0>
-0.618248

>  <SCORE.INTRA.norm>
-0.0284275

>  <SCORE.RESTR>
0

>  <SCORE.RESTR.CAVITY>
0

>  <SCORE.RESTR.norm>
0

>  <SCORE.SYSTEM>
0

>  <SCORE.SYSTEM.CONST>
0

>  <SCORE.SYSTEM.DIHEDRAL>
0

>  <SCORE.SYSTEM.SOLV>
0

>  <SCORE.SYSTEM.norm>
0

>  <SCORE.heavy>
10

>  <SCORE.norm>
-1.05925

>  <RMSD>
4.929

$$$$
ligand
 OpenBabel11021811473D
libRbt.so/2013.1/901 2013/11/27
 10  9  0  0  0  0  0  0  0  0999 V2000
   29.1202   15.7592   19.2353 N   0  0  0  0  0  0  0  0  0  0  0  0
   27.7267   15.4216   19.6565 C   0  0  2  0  0  0  0  0  0  0  0  0
   27.5584   15.4253   21.1801 C   0  0  0  0  0  0  0  0  0  0  0  0
   26.5286   15.0058   21.7292 O   0  0  0  0  0  0  0  0  0  0  0  0
   27.2827   14.0866   19.0525 C   0  0  0  0  0  0  0  0  0  0  0  0
   27.2770   14.0893   17.5408 C   0  0  0  0  0  0  0  0  0  0  0  0
   26.5640   12.8825   16.9806 C   0  0  0  0  0  0  0  0  0  0  0  0
   27.4347   11.6343   17.0763 C   0  0  0  0  0  0  0  0  0  0  0  0
   26.7119   10.3803   16.7325 N   0  0  0  0  0  0  0  0  0  0  0  0
   28.4669   15.8166   21.9194 O   0  0  0  0  0  0  0  0  0  0  0  0
  2  1  1  1  0  0  0
  2  3  1  0  0  0  0
  2  5  1  0  0  0  0
  3  4  1  0  0  0  0
  3 10  1  0  0  0  0
  5  6  1  0  0  0  0
  6  7  1  0  0  0  0
  7  8  1  0  0  0  0
  8  9  1  0  0  0  0
M  END
>  <CHROM.1>
-170.59230435,-60.79809158,-167.81607011,-76.59498998,171.20781128,27.46467268
14.05903792,19.15305341,-1.31255034,-0.90844249,-2.10463633

>  <Name>
ligand

>  <RI>
0

>  <Rbt.Current_Directory>
/home/itssahil/PROJECTS/Mol_Feturizer/New_Systems/rnas/3DIY

>  <Rbt.Executable>
rbdock ($Id: //depot/dev/client3/rdock/2013.1/src/exe/rbdock.cxx#4 $)

>  <Rbt.Library>
libRbt.so (2013.1, Build901 2013/11/27)

>  <Rbt.Parameter_File>
/export/apps/rDock/src/rDock_2013.1_src/data/scripts/dock_solv.prm

>  <Rbt.Receptor>
prm/pocket_docking_7.prm

>  <SCORE>
-8.05924

>  <SCORE.INTER>
-8.78183

>  <SCORE.INTER.CONST>
1

>  <SCORE.INTER.POLAR>
0

>  <SCORE.INTER.ROT>
5

>  <SCORE.INTER.SOLV>
14.3002

>  <SCORE.INTER.VDW>
-17.5546

>  <SCORE.INTER.norm>
-0.878183

>  <SCORE.INTRA>
0.722595

>  <SCORE.INTRA.DIHEDRAL>
0.981111

>  <SCORE.INTRA.DIHEDRAL.0>
2.56603

>  <SCORE.INTRA.POLAR>
0

>  <SCORE.INTRA.POLAR.0>
0

>  <SCORE.INTRA.REPUL>
0

>  <SCORE.INTRA.REPUL.0>
0

>  <SCORE.INTRA.SOLV>
-0.470197

>  <SCORE.INTRA.SOLV.lig_0>
-32.0799

>  <SCORE.INTRA.VDW>
0.467138

>  <SCORE.INTRA.VDW.0>
-0.618248

>  <SCORE.INTRA.norm>
0.0722595

>  <SCORE.RESTR>
0

>  <SCORE.RESTR.CAVITY>
0

>  <SCORE.RESTR.norm>
0

>  <SCORE.SYSTEM>
0

>  <SCORE.SYSTEM.CONST>
0

>  <SCORE.SYSTEM.DIHEDRAL>
0

>  <SCORE.SYSTEM.SOLV>
0

>  <SCORE.SYSTEM.norm>
0

>  <SCORE.heavy>
10

>  <SCORE.norm>
-0.805924

>  <RMSD>
4.961

$$$$
ligand
 OpenBabel11021811473D
libRbt.so/2013.1/901 2013/11/27
 10  9  0  0  0  0  0  0  0  0999 V2000
   29.0704   16.7909   20.4925 N   0  0  0  0  0  0  0  0  0  0  0  0
   27.8910   16.0568   19.9419 C   0  0  2  0  0  0  0  0  0  0  0  0
   27.0636   15.3734   21.0366 C   0  0  0  0  0  0  0  0  0  0  0  0
   27.4966   15.2184   22.1883 O   0  0  0  0  0  0  0  0  0  0  0  0
   28.3246   15.0557   18.8677 C   0  0  0  0  0  0  0  0  0  0  0  0
   27.1623   14.3471   18.2101 C   0  0  0  0  0  0  0  0  0  0  0  0
   27.5953   13.0697   17.5324 C   0  0  0  0  0  0  0  0  0  0  0  0
   26.3976   12.3086   16.9741 C   0  0  0  0  0  0  0  0  0  0  0  0
   26.7111   10.9034   16.5997 N   0  0  0  0  0  0  0  0  0  0  0  0
   25.9131   14.9837   20.8142 O   0  0  0  0  0  0  0  0  0  0  0  0
  2  1  1  1  0  0  0
  2  3  1  0  0  0  0
  2  5  1  0  0  0  0
  3  4  1  0  0  0  0
  3 10  1  0  0  0  0
  5  6  1  0  0  0  0
  6  7  1  0  0  0  0
  7  8  1  0  0  0  0
  8  9  1  0  0  0  0
M  END
>  <CHROM.1>
-14.38132681,-176.23892323,-160.26174714,175.29932786,-165.72760548,27.34451985
14.40470623,19.29833375,-1.35666513,-0.71961049,-2.18022151

>  <Name>
ligand

>  <RI>
0

>  <Rbt.Current_Directory>
/home/itssahil/PROJECTS/Mol_Feturizer/New_Systems/rnas/3DIY

>  <Rbt.Executable>
rbdock ($Id: //depot/dev/client3/rdock/2013.1/src/exe/rbdock.cxx#4 $)

>  <Rbt.Library>
libRbt.so (2013.1, Build901 2013/11/27)

>  <Rbt.Parameter_File>
/export/apps/rDock/src/rDock_2013.1_src/data/scripts/dock_solv.prm

>  <Rbt.Receptor>
prm/pocket_docking_5.prm

>  <SCORE>
-10.4814

>  <SCORE.INTER>
-10.4476

>  <SCORE.INTER.CONST>
1

>  <SCORE.INTER.POLAR>
0

>  <SCORE.INTER.ROT>
5

>  <SCORE.INTER.SOLV>
17.8142

>  <SCORE.INTER.VDW>
-19.8365

>  <SCORE.INTER.norm>
-1.04476

>  <SCORE.INTRA>
-0.0337776

>  <SCORE.INTRA.DIHEDRAL>
1.39565

>  <SCORE.INTRA.DIHEDRAL.0>
2.56603

>  <SCORE.INTRA.POLAR>
0

>  <SCORE.INTRA.POLAR.0>
0

>  <SCORE.INTRA.REPUL>
0

>  <SCORE.INTRA.REPUL.0>
0

>  <SCORE.INTRA.SOLV>
-1.57843

>  <SCORE.INTRA.SOLV.lig_0>
-32.0799

>  <SCORE.INTRA.VDW>
0.0576158

>  <SCORE.INTRA.VDW.0>
-0.618248

>  <SCORE.INTRA.norm>
-0.00337776

>  <SCORE.RESTR>
0

>  <SCORE.RESTR.CAVITY>
0

>  <SCORE.RESTR.norm>
0

>  <SCORE.SYSTEM>
0

>  <SCORE.SYSTEM.CONST>
0

>  <SCORE.SYSTEM.DIHEDRAL>
0

>  <SCORE.SYSTEM.SOLV>
0

>  <SCORE.SYSTEM.norm>
0

>  <SCORE.heavy>
10

>  <SCORE.norm>
-1.04814

>  <RMSD>
4.993

$$$$
ligand
 OpenBabel11021811473D
libRbt.so/2013.1/901 2013/11/27
 10  9  0  0  0  0  0  0  0  0999 V2000
   28.5740   15.9467   19.1671 N   0  0  0  0  0  0  0  0  0  0  0  0
   28.2797   14.8751   20.1661 C   0  0  2  0  0  0  0  0  0  0  0  0
   26.9285   15.0776   20.8611 C   0  0  0  0  0  0  0  0  0  0  0  0
   25.8713   15.1933   20.2231 O   0  0  0  0  0  0  0  0  0  0  0  0
   29.4153   14.7533   21.1858 C   0  0  0  0  0  0  0  0  0  0  0  0
   29.6385   16.0185   21.9827 C   0  0  0  0  0  0  0  0  0  0  0  0
   30.3375   17.0789   21.1670 C   0  0  0  0  0  0  0  0  0  0  0  0
   31.8256   16.7758   21.0283 C   0  0  0  0  0  0  0  0  0  0  0  0
   32.1140   15.6212   20.1356 N   0  0  0  0  0  0  0  0  0  0  0  0
   26.8433   15.0959   22.0929 O   0  0  0  0  0  0  0  0  0  0  0  0
  2  1  1  6  0  0  0
  2  3  1  0  0  0  0
  2  5  1  0  0  0  0
  3  4  1  0  0  0  0
  3 10  1  0  0  0  0
  5  6  1  0  0  0  0
  6  7  1  0  0  0  0
  7  8  1  0  0  0  0
  8  9  1  0  0  0  0
M  END
>  <CHROM.1>
55.33819549,60.93971396,-75.15759065,-76.33654050,71.24334114,28.94335950
15.64321856,20.81493773,-3.12220761,0.24233522,1.48571943

>  <Name>
ligand

>  <RI>
0

>  <Rbt.Current_Directory>
/home/itssahil/PROJECTS/Mol_Feturizer/New_Systems/rnas/3DIY

>  <Rbt.Executable>
rbdock ($Id: //depot/dev/client3/rdock/2013.1/src/exe/rbdock.cxx#4 $)

>  <Rbt.Library>
libRbt.so (2013.1, Build901 2013/11/27)

>  <Rbt.Parameter_File>
/export/apps/rDock/src/rDock_2013.1_src/data/scripts/dock_solv.prm

>  <Rbt.Receptor>
prm/pocket_docking_7.prm

>  <SCORE>
-5.37501

>  <SCORE.INTER>
-9.84501

>  <SCORE.INTER.CONST>
1

>  <SCORE.INTER.POLAR>
0

>  <SCORE.INTER.ROT>
5

>  <SCORE.INTER.SOLV>
11.7119

>  <SCORE.INTER.VDW>
-17.4006

>  <SCORE.INTER.norm>
-0.984501

>  <SCORE.INTRA>
4.47

>  <SCORE.INTRA.DIHEDRAL>
1.38193

>  <SCORE.INTRA.DIHEDRAL.0>
2.56603

>  <SCORE.INTRA.POLAR>
0

>  <SCORE.INTRA.POLAR.0>
0

>  <SCORE.INTRA.REPUL>
0

>  <SCORE.INTRA.REPUL.0>
0

>  <SCORE.INTRA.SOLV>
4.33672

>  <SCORE.INTRA.SOLV.lig_0>
-32.0799

>  <SCORE.INTRA.VDW>
1.61068

>  <SCORE.INTRA.VDW.0>
-0.618248

>  <SCORE.INTRA.norm>
0.447

>  <SCORE.RESTR>
0

>  <SCORE.RESTR.CAVITY>
0

>  <SCORE.RESTR.norm>
0

>  <SCORE.SYSTEM>
0

>  <SCORE.SYSTEM.CONST>
0

>  <SCORE.SYSTEM.DIHEDRAL>
0

>  <SCORE.SYSTEM.SOLV>
0

>  <SCORE.SYSTEM.norm>
0

>  <SCORE.heavy>
10

>  <SCORE.norm>
-0.537501

>  <RMSD>
5.009

$$$$
ligand
 OpenBabel11021811473D
libRbt.so/2013.1/901 2013/11/27
 10  9  0  0  0  0  0  0  0  0999 V2000
   27.3018   14.9530   18.8149 N   0  0  0  0  0  0  0  0  0  0  0  0
   28.3219   15.2311   19.8710 C   0  0  2  0  0  0  0  0  0  0  0  0
   27.8491   14.8098   21.2670 C   0  0  0  0  0  0  0  0  0  0  0  0
   26.6709   14.9430   21.6306 O   0  0  0  0  0  0  0  0  0  0  0  0
   28.7429   16.7030   19.8486 C   0  0  0  0  0  0  0  0  0  0  0  0
   29.8323   17.0261   20.8457 C   0  0  0  0  0  0  0  0  0  0  0  0
   31.1225   16.3152   20.5165 C   0  0  0  0  0  0  0  0  0  0  0  0
   32.1665   16.5353   21.6059 C   0  0  0  0  0  0  0  0  0  0  0  0
   32.5517   17.9620   21.7775 N   0  0  0  0  0  0  0  0  0  0  0  0
   28.6265   14.2850   22.0702 O   0  0  0  0  0  0  0  0  0  0  0  0
  2  1  1  6  0  0  0
  2  3  1  0  0  0  0
  2  5  1  0  0  0  0
  3  4  1  0  0  0  0
  3 10  1  0  0  0  0
  5  6  1  0  0  0  0
  6  7  1  0  0  0  0
  7  8  1  0  0  0  0
  8  9  1  0  0  0  0
M  END
>  <CHROM.1>
-37.21902027,-176.74367623,64.98547320,-174.15477200,-62.16546029,29.29986220
15.86075090,20.85411487,3.09630931,0.48881919,1.99836905

>  <Name>
ligand

>  <RI>
0

>  <Rbt.Current_Directory>
/home/itssahil/PROJECTS/Mol_Feturizer/New_Systems/rnas/3DIY

>  <Rbt.Executable>
rbdock ($Id: //depot/dev/client3/rdock/2013.1/src/exe/rbdock.cxx#4 $)

>  <Rbt.Library>
libRbt.so (2013.1, Build901 2013/11/27)

>  <Rbt.Parameter_File>
/export/apps/rDock/src/rDock_2013.1_src/data/scripts/dock_solv.prm

>  <Rbt.Receptor>
prm/blind_docking_80.prm

>  <SCORE>
-9.08382

>  <SCORE.INTER>
-8.65939

>  <SCORE.INTER.CONST>
1

>  <SCORE.INTER.POLAR>
0

>  <SCORE.INTER.ROT>
5

>  <SCORE.INTER.SOLV>
12.8101

>  <SCORE.INTER.VDW>
-16.9763

>  <SCORE.INTER.norm>
-0.865939

>  <SCORE.INTRA>
-0.424423

>  <SCORE.INTRA.DIHEDRAL>
-0.664364

>  <SCORE.INTRA.DIHEDRAL.0>
2.56603

>  <SCORE.INTRA.POLAR>
0

>  <SCORE.INTRA.POLAR.0>
0

>  <SCORE.INTRA.REPUL>
0

>  <SCORE.INTRA.REPUL.0>
0

>  <SCORE.INTRA.SOLV>
-0.444042

>  <SCORE.INTRA.SOLV.lig_0>
-32.0799

>  <SCORE.INTRA.VDW>
0.12978

>  <SCORE.INTRA.VDW.0>
-0.618248

>  <SCORE.INTRA.norm>
-0.0424423

>  <SCORE.RESTR>
0

>  <SCORE.RESTR.CAVITY>
0

>  <SCORE.RESTR.norm>
0

>  <SCORE.SYSTEM>
0

>  <SCORE.SYSTEM.CONST>
0

>  <SCORE.SYSTEM.DIHEDRAL>
0

>  <SCORE.SYSTEM.SOLV>
0

>  <SCORE.SYSTEM.norm>
0

>  <SCORE.heavy>
10

>  <SCORE.norm>
-0.908382

>  <RMSD>
5.013

$$$$
ligand
 OpenBabel11021811473D
libRbt.so/2013.1/901 2013/11/27
 10  9  0  0  0  0  0  0  0  0999 V2000
   27.0048   15.4474   18.1205 N   0  0  0  0  0  0  0  0  0  0  0  0
   27.9946   15.4904   19.2392 C   0  0  2  0  0  0  0  0  0  0  0  0
   27.4221   14.9369   20.5491 C   0  0  0  0  0  0  0  0  0  0  0  0
   28.0393   14.1128   21.2404 O   0  0  0  0  0  0  0  0  0  0  0  0
   28.5427   16.9075   19.4282 C   0  0  0  0  0  0  0  0  0  0  0  0
   29.5378   17.0150   20.5612 C   0  0  0  0  0  0  0  0  0  0  0  0
   30.8157   16.2714   20.2575 C   0  0  0  0  0  0  0  0  0  0  0  0
   31.8249   16.4243   21.3904 C   0  0  0  0  0  0  0  0  0  0  0  0
   31.3666   15.8316   22.6757 N   0  0  0  0  0  0  0  0  0  0  0  0
   26.3325   15.3254   20.9813 O   0  0  0  0  0  0  0  0  0  0  0  0
  2  1  1  6  0  0  0
  2  3  1  0  0  0  0
  2  5  1  0  0  0  0
  3  4  1  0  0  0  0
  3 10  1  0  0  0  0
  5  6  1  0  0  0  0
  6  7  1  0  0  0  0
  7  8  1  0  0  0  0
  8  9  1  0  0  0  0
M  END
>  <CHROM.1>
132.09270982,179.24912666,67.68520720,178.26947455,63.45161197,28.86775147
15.76078692,20.47010647,-2.90595289,0.39641812,2.08171694

>  <Name>
ligand

>  <RI>
0

>  <Rbt.Current_Directory>
/home/itssahil/PROJECTS/Mol_Feturizer/New_Systems/rnas/3DIY

>  <Rbt.Executable>
rbdock ($Id: //depot/dev/client3/rdock/2013.1/src/exe/rbdock.cxx#4 $)

>  <Rbt.Library>
libRbt.so (2013.1, Build901 2013/11/27)

>  <Rbt.Parameter_File>
/export/apps/rDock/src/rDock_2013.1_src/data/scripts/dock_solv.prm

>  <Rbt.Receptor>
prm/blind_docking_60.prm

>  <SCORE>
-1.48199

>  <SCORE.INTER>
-0.931647

>  <SCORE.INTER.CONST>
1

>  <SCORE.INTER.POLAR>
0

>  <SCORE.INTER.ROT>
5

>  <SCORE.INTER.SOLV>
19.042

>  <SCORE.INTER.VDW>
-13.9018

>  <SCORE.INTER.norm>
-0.0931647

>  <SCORE.INTRA>
-0.550344

>  <SCORE.INTRA.DIHEDRAL>
-0.757182

>  <SCORE.INTRA.DIHEDRAL.0>
2.56603

>  <SCORE.INTRA.POLAR>
0

>  <SCORE.INTRA.POLAR.0>
0

>  <SCORE.INTRA.REPUL>
0

>  <SCORE.INTRA.REPUL.0>
0

>  <SCORE.INTRA.SOLV>
-0.49892

>  <SCORE.INTRA.SOLV.lig_0>
-32.0799

>  <SCORE.INTRA.VDW>
0.0777071

>  <SCORE.INTRA.VDW.0>
-0.618248

>  <SCORE.INTRA.norm>
-0.0550344

>  <SCORE.RESTR>
0

>  <SCORE.RESTR.CAVITY>
0

>  <SCORE.RESTR.norm>
0

>  <SCORE.SYSTEM>
0

>  <SCORE.SYSTEM.CONST>
0

>  <SCORE.SYSTEM.DIHEDRAL>
0

>  <SCORE.SYSTEM.SOLV>
0

>  <SCORE.SYSTEM.norm>
0

>  <SCORE.heavy>
10

>  <SCORE.norm>
-0.148199

>  <RMSD>
5.036

$$$$
ligand
 OpenBabel11021811473D
libRbt.so/2013.1/901 2013/11/27
 10  9  0  0  0  0  0  0  0  0999 V2000
   25.8664   15.0532   20.3105 N   0  0  0  0  0  0  0  0  0  0  0  0
   27.2422   15.5877   20.5445 C   0  0  2  0  0  0  0  0  0  0  0  0
   27.8764   16.1511   19.2677 C   0  0  0  0  0  0  0  0  0  0  0  0
   27.8422   15.5380   18.1903 O   0  0  0  0  0  0  0  0  0  0  0  0
   28.1381   14.5251   21.1868 C   0  0  0  0  0  0  0  0  0  0  0  0
   29.3401   15.1082   21.8944 C   0  0  0  0  0  0  0  0  0  0  0  0
   30.3893   15.5832   20.9187 C   0  0  0  0  0  0  0  0  0  0  0  0
   31.5616   16.2351   21.6440 C   0  0  0  0  0  0  0  0  0  0  0  0
   32.5978   16.7788   20.7254 N   0  0  0  0  0  0  0  0  0  0  0  0
   28.4158   17.2620   19.2624 O   0  0  0  0  0  0  0  0  0  0  0  0
  2  1  1  6  0  0  0
  2  3  1  0  0  0  0
  2  5  1  0  0  0  0
  3  4  1  0  0  0  0
  3 10  1  0  0  0  0
  5  6  1  0  0  0  0
  6  7  1  0  0  0  0
  7  8  1  0  0  0  0
  8  9  1  0  0  0  0
M  END
>  <CHROM.1>
-46.33756107,-159.20258138,-74.42558130,176.99027157,-177.33415477,28.93162664
15.79558955,20.36281146,2.96673526,-0.29744178,-1.03389433

>  <Name>
ligand

>  <RI>
0

>  <Rbt.Current_Directory>
/home/itssahil/PROJECTS/Mol_Feturizer/New_Systems/rnas/3DIY

>  <Rbt.Executable>
rbdock ($Id: //depot/dev/client3/rdock/2013.1/src/exe/rbdock.cxx#4 $)

>  <Rbt.Library>
libRbt.so (2013.1, Build901 2013/11/27)

>  <Rbt.Parameter_File>
/export/apps/rDock/src/rDock_2013.1_src/data/scripts/dock_solv.prm

>  <Rbt.Receptor>
prm/pocket_docking_3.prm

>  <SCORE>
-8.4586

>  <SCORE.INTER>
-8.20944

>  <SCORE.INTER.CONST>
1

>  <SCORE.INTER.POLAR>
0

>  <SCORE.INTER.ROT>
5

>  <SCORE.INTER.SOLV>
18.057

>  <SCORE.INTER.VDW>
-18.4253

>  <SCORE.INTER.norm>
-0.820944

>  <SCORE.INTRA>
-0.249159

>  <SCORE.INTRA.DIHEDRAL>
1.38916

>  <SCORE.INTRA.DIHEDRAL.0>
2.56603

>  <SCORE.INTRA.POLAR>
0

>  <SCORE.INTRA.POLAR.0>
0

>  <SCORE.INTRA.REPUL>
0

>  <SCORE.INTRA.REPUL.0>
0

>  <SCORE.INTRA.SOLV>
-1.4679

>  <SCORE.INTRA.SOLV.lig_0>
-32.0799

>  <SCORE.INTRA.VDW>
-0.209791

>  <SCORE.INTRA.VDW.0>
-0.618248

>  <SCORE.INTRA.norm>
-0.0249159

>  <SCORE.RESTR>
0

>  <SCORE.RESTR.CAVITY>
0

>  <SCORE.RESTR.norm>
0

>  <SCORE.SYSTEM>
0

>  <SCORE.SYSTEM.CONST>
0

>  <SCORE.SYSTEM.DIHEDRAL>
0

>  <SCORE.SYSTEM.SOLV>
0

>  <SCORE.SYSTEM.norm>
0

>  <SCORE.heavy>
10

>  <SCORE.norm>
-0.84586

>  <RMSD>
5.050

$$$$
ligand
 OpenBabel11021811473D
libRbt.so/2013.1/901 2013/11/27
 10  9  0  0  0  0  0  0  0  0999 V2000
   29.3062   15.3416   20.6396 N   0  0  0  0  0  0  0  0  0  0  0  0
   28.0743   15.9203   20.0227 C   0  0  2  0  0  0  0  0  0  0  0  0
   26.7928   15.2606   20.5446 C   0  0  0  0  0  0  0  0  0  0  0  0
   25.7045   15.3864   19.9634 O   0  0  0  0  0  0  0  0  0  0  0  0
   28.1482   15.8572   18.4947 C   0  0  0  0  0  0  0  0  0  0  0  0
   28.3531   14.4559   17.9657 C   0  0  0  0  0  0  0  0  0  0  0  0
   27.0478   13.7092   17.8359 C   0  0  0  0  0  0  0  0  0  0  0  0
   27.2534   12.3505   17.1749 C   0  0  0  0  0  0  0  0  0  0  0  0
   25.9966   11.5686   17.0250 N   0  0  0  0  0  0  0  0  0  0  0  0
   26.8102   14.5451   21.5509 O   0  0  0  0  0  0  0  0  0  0  0  0
  2  1  1  1  0  0  0
  2  3  1  0  0  0  0
  2  5  1  0  0  0  0
  3  4  1  0  0  0  0
  3 10  1  0  0  0  0
  5  6  1  0  0  0  0
  6  7  1  0  0  0  0
  7  8  1  0  0  0  0
  8  9  1  0  0  0  0
M  END
>  <CHROM.1>
-164.12402955,57.09082182,84.49298640,174.43726140,179.84775226,27.32085644
14.43221956,19.14079429,-1.34628898,-0.51873672,-2.19413345

>  <Name>
ligand

>  <RI>
0

>  <Rbt.Current_Directory>
/home/itssahil/PROJECTS/Mol_Feturizer/New_Systems/rnas/3DIY

>  <Rbt.Executable>
rbdock ($Id: //depot/dev/client3/rdock/2013.1/src/exe/rbdock.cxx#4 $)

>  <Rbt.Library>
libRbt.so (2013.1, Build901 2013/11/27)

>  <Rbt.Parameter_File>
/export/apps/rDock/src/rDock_2013.1_src/data/scripts/dock_solv.prm

>  <Rbt.Receptor>
prm/pocket_docking_5.prm

>  <SCORE>
-10.4913

>  <SCORE.INTER>
-11.2582

>  <SCORE.INTER.CONST>
1

>  <SCORE.INTER.POLAR>
0

>  <SCORE.INTER.ROT>
5

>  <SCORE.INTER.SOLV>
15.4431

>  <SCORE.INTER.VDW>
-19.5865

>  <SCORE.INTER.norm>
-1.12582

>  <SCORE.INTRA>
0.766878

>  <SCORE.INTRA.DIHEDRAL>
1.38399

>  <SCORE.INTRA.DIHEDRAL.0>
2.56603

>  <SCORE.INTRA.POLAR>
0

>  <SCORE.INTRA.POLAR.0>
0

>  <SCORE.INTRA.REPUL>
0

>  <SCORE.INTRA.REPUL.0>
0

>  <SCORE.INTRA.SOLV>
-0.312877

>  <SCORE.INTRA.SOLV.lig_0>
-32.0799

>  <SCORE.INTRA.VDW>
0.231322

>  <SCORE.INTRA.VDW.0>
-0.618248

>  <SCORE.INTRA.norm>
0.0766878

>  <SCORE.RESTR>
0

>  <SCORE.RESTR.CAVITY>
0

>  <SCORE.RESTR.norm>
0

>  <SCORE.SYSTEM>
0

>  <SCORE.SYSTEM.CONST>
0

>  <SCORE.SYSTEM.DIHEDRAL>
0

>  <SCORE.SYSTEM.SOLV>
0

>  <SCORE.SYSTEM.norm>
0

>  <SCORE.heavy>
10

>  <SCORE.norm>
-1.04913

>  <RMSD>
5.050

$$$$
ligand
 OpenBabel11021811473D
libRbt.so/2013.1/901 2013/11/27
 10  9  0  0  0  0  0  0  0  0999 V2000
   25.8356   14.9971   20.3675 N   0  0  0  0  0  0  0  0  0  0  0  0
   27.2067   15.5464   20.5940 C   0  0  2  0  0  0  0  0  0  0  0  0
   27.8574   16.0486   19.3000 C   0  0  0  0  0  0  0  0  0  0  0  0
   27.8410   15.3826   18.2540 O   0  0  0  0  0  0  0  0  0  0  0  0
   28.0961   14.5192   21.2998 C   0  0  0  0  0  0  0  0  0  0  0  0
   29.3034   15.1362   21.9684 C   0  0  0  0  0  0  0  0  0  0  0  0
   30.3688   15.5106   20.9667 C   0  0  0  0  0  0  0  0  0  0  0  0
   31.5260   16.2408   21.6398 C   0  0  0  0  0  0  0  0  0  0  0  0
   32.5622   16.7162   20.6841 N   0  0  0  0  0  0  0  0  0  0  0  0
   28.3927   17.1601   19.2472 O   0  0  0  0  0  0  0  0  0  0  0  0
  2  1  1  6  0  0  0
  2  3  1  0  0  0  0
  2  5  1  0  0  0  0
  3  4  1  0  0  0  0
  3 10  1  0  0  0  0
  5  6  1  0  0  0  0
  6  7  1  0  0  0  0
  7  8  1  0  0  0  0
  8  9  1  0  0  0  0
M  END
>  <CHROM.1>
-46.43141097,-160.49068474,-75.84482083,175.04390189,-176.04276011,28.90399110
15.73765594,20.40013864,2.97132844,-0.29141188,-1.08233291

>  <Name>
ligand

>  <RI>
0

>  <Rbt.Current_Directory>
/home/itssahil/PROJECTS/Mol_Feturizer/New_Systems/rnas/3DIY

>  <Rbt.Executable>
rbdock ($Id: //depot/dev/client3/rdock/2013.1/src/exe/rbdock.cxx#4 $)

>  <Rbt.Library>
libRbt.so (2013.1, Build901 2013/11/27)

>  <Rbt.Parameter_File>
/export/apps/rDock/src/rDock_2013.1_src/data/scripts/dock_solv.prm

>  <Rbt.Receptor>
prm/pocket_docking_5.prm

>  <SCORE>
-8.33201

>  <SCORE.INTER>
-8.08899

>  <SCORE.INTER.CONST>
1

>  <SCORE.INTER.POLAR>
0

>  <SCORE.INTER.ROT>
5

>  <SCORE.INTER.SOLV>
18.1705

>  <SCORE.INTER.VDW>
-18.3828

>  <SCORE.INTER.norm>
-0.808899

>  <SCORE.INTRA>
-0.243022

>  <SCORE.INTRA.DIHEDRAL>
1.48272

>  <SCORE.INTRA.DIHEDRAL.0>
2.56603

>  <SCORE.INTRA.POLAR>
0

>  <SCORE.INTRA.POLAR.0>
0

>  <SCORE.INTRA.REPUL>
0

>  <SCORE.INTRA.REPUL.0>
0

>  <SCORE.INTRA.SOLV>
-1.47595

>  <SCORE.INTRA.SOLV.lig_0>
-32.0799

>  <SCORE.INTRA.VDW>
-0.246403

>  <SCORE.INTRA.VDW.0>
-0.618248

>  <SCORE.INTRA.norm>
-0.0243022

>  <SCORE.RESTR>
0

>  <SCORE.RESTR.CAVITY>
0

>  <SCORE.RESTR.norm>
0

>  <SCORE.SYSTEM>
0

>  <SCORE.SYSTEM.CONST>
0

>  <SCORE.SYSTEM.DIHEDRAL>
0

>  <SCORE.SYSTEM.SOLV>
0

>  <SCORE.SYSTEM.norm>
0

>  <SCORE.heavy>
10

>  <SCORE.norm>
-0.833201

>  <RMSD>
5.060

$$$$
ligand
 OpenBabel11021811473D
libRbt.so/2013.1/901 2013/11/27
 10  9  0  0  0  0  0  0  0  0999 V2000
   25.8159   15.0093   20.3431 N   0  0  0  0  0  0  0  0  0  0  0  0
   27.1903   15.5482   20.5749 C   0  0  2  0  0  0  0  0  0  0  0  0
   27.8455   16.0556   19.2853 C   0  0  0  0  0  0  0  0  0  0  0  0
   28.4257   17.1502   19.2287 O   0  0  0  0  0  0  0  0  0  0  0  0
   28.0724   14.5104   21.2743 C   0  0  0  0  0  0  0  0  0  0  0  0
   29.2663   15.1183   21.9746 C   0  0  0  0  0  0  0  0  0  0  0  0
   30.3285   15.5548   20.9951 C   0  0  0  0  0  0  0  0  0  0  0  0
   31.4831   16.2506   21.7079 C   0  0  0  0  0  0  0  0  0  0  0  0
   32.5140   16.7885   20.7798 N   0  0  0  0  0  0  0  0  0  0  0  0
   27.8483   15.3672   18.2600 O   0  0  0  0  0  0  0  0  0  0  0  0
  2  1  1  6  0  0  0
  2  3  1  0  0  0  0
  2  5  1  0  0  0  0
  3  4  1  0  0  0  0
  3 10  1  0  0  0  0
  5  6  1  0  0  0  0
  6  7  1  0  0  0  0
  7  8  1  0  0  0  0
  8  9  1  0  0  0  0
M  END
>  <CHROM.1>
133.46487251,-159.20561084,-74.13150926,176.15622225,-175.87709263,28.88499708
15.74666143,20.41044442,2.96063690,-0.31015219,-1.08220699

>  <Name>
ligand

>  <RI>
0

>  <Rbt.Current_Directory>
/home/itssahil/PROJECTS/Mol_Feturizer/New_Systems/rnas/3DIY

>  <Rbt.Executable>
rbdock ($Id: //depot/dev/client3/rdock/2013.1/src/exe/rbdock.cxx#4 $)

>  <Rbt.Library>
libRbt.so (2013.1, Build901 2013/11/27)

>  <Rbt.Parameter_File>
/export/apps/rDock/src/rDock_2013.1_src/data/scripts/dock_solv.prm

>  <Rbt.Receptor>
prm/pocket_docking_5.prm

>  <SCORE>
-8.32287

>  <SCORE.INTER>
-8.08024

>  <SCORE.INTER.CONST>
1

>  <SCORE.INTER.POLAR>
0

>  <SCORE.INTER.ROT>
5

>  <SCORE.INTER.SOLV>
17.9734

>  <SCORE.INTER.VDW>
-18.3113

>  <SCORE.INTER.norm>
-0.808024

>  <SCORE.INTRA>
-0.242629

>  <SCORE.INTRA.DIHEDRAL>
1.3326

>  <SCORE.INTRA.DIHEDRAL.0>
2.56603

>  <SCORE.INTRA.POLAR>
0

>  <SCORE.INTRA.POLAR.0>
0

>  <SCORE.INTRA.REPUL>
0

>  <SCORE.INTRA.REPUL.0>
0

>  <SCORE.INTRA.SOLV>
-1.47569

>  <SCORE.INTRA.SOLV.lig_0>
-32.0799

>  <SCORE.INTRA.VDW>
-0.171083

>  <SCORE.INTRA.VDW.0>
-0.618248

>  <SCORE.INTRA.norm>
-0.0242629

>  <SCORE.RESTR>
0

>  <SCORE.RESTR.CAVITY>
0

>  <SCORE.RESTR.norm>
0

>  <SCORE.SYSTEM>
0

>  <SCORE.SYSTEM.CONST>
0

>  <SCORE.SYSTEM.DIHEDRAL>
0

>  <SCORE.SYSTEM.SOLV>
0

>  <SCORE.SYSTEM.norm>
0

>  <SCORE.heavy>
10

>  <SCORE.norm>
-0.832287

>  <RMSD>
5.063

$$$$
ligand
 OpenBabel11021811473D
libRbt.so/2013.1/901 2013/11/27
 10  9  0  0  0  0  0  0  0  0999 V2000
   29.2559   15.6269   21.1223 N   0  0  0  0  0  0  0  0  0  0  0  0
   28.3328   15.5539   19.9495 C   0  0  2  0  0  0  0  0  0  0  0  0
   26.8958   15.2078   20.3560 C   0  0  0  0  0  0  0  0  0  0  0  0
   25.9180   15.5586   19.6787 O   0  0  0  0  0  0  0  0  0  0  0  0
   28.8630   14.5750   18.8983 C   0  0  0  0  0  0  0  0  0  0  0  0
   28.1198   14.6522   17.5841 C   0  0  0  0  0  0  0  0  0  0  0  0
   26.9349   13.7176   17.5543 C   0  0  0  0  0  0  0  0  0  0  0  0
   27.3605   12.2993   17.1902 C   0  0  0  0  0  0  0  0  0  0  0  0
   26.2234   11.3440   17.1021 N   0  0  0  0  0  0  0  0  0  0  0  0
   26.6652   14.5303   21.3623 O   0  0  0  0  0  0  0  0  0  0  0  0
  2  1  1  1  0  0  0
  2  3  1  0  0  0  0
  2  5  1  0  0  0  0
  3  4  1  0  0  0  0
  3 10  1  0  0  0  0
  5  6  1  0  0  0  0
  6  7  1  0  0  0  0
  7  8  1  0  0  0  0
  8  9  1  0  0  0  0
M  END
>  <CHROM.1>
153.19914735,-169.03043235,-89.41021897,-82.60720730,-178.09209191,27.42602099
14.30564652,19.09559933,-1.35678317,-0.34745868,-2.20934029

>  <Name>
ligand

>  <RI>
0

>  <Rbt.Current_Directory>
/home/itssahil/PROJECTS/Mol_Feturizer/New_Systems/rnas/3DIY

>  <Rbt.Executable>
rbdock ($Id: //depot/dev/client3/rdock/2013.1/src/exe/rbdock.cxx#4 $)

>  <Rbt.Library>
libRbt.so (2013.1, Build901 2013/11/27)

>  <Rbt.Parameter_File>
/export/apps/rDock/src/rDock_2013.1_src/data/scripts/dock_solv.prm

>  <Rbt.Receptor>
prm/blind_docking_100.prm

>  <SCORE>
-7.63822

>  <SCORE.INTER>
-9.12926

>  <SCORE.INTER.CONST>
1

>  <SCORE.INTER.POLAR>
0

>  <SCORE.INTER.ROT>
5

>  <SCORE.INTER.SOLV>
15.1186

>  <SCORE.INTER.VDW>
-18.059

>  <SCORE.INTER.norm>
-0.912926

>  <SCORE.INTRA>
1.49104

>  <SCORE.INTRA.DIHEDRAL>
4.21041

>  <SCORE.INTRA.DIHEDRAL.0>
2.56603

>  <SCORE.INTRA.POLAR>
0

>  <SCORE.INTRA.POLAR.0>
0

>  <SCORE.INTRA.REPUL>
0

>  <SCORE.INTRA.REPUL.0>
0

>  <SCORE.INTRA.SOLV>
-1.41277

>  <SCORE.INTRA.SOLV.lig_0>
-32.0799

>  <SCORE.INTRA.VDW>
0.0922164

>  <SCORE.INTRA.VDW.0>
-0.618248

>  <SCORE.INTRA.norm>
0.149104

>  <SCORE.RESTR>
0

>  <SCORE.RESTR.CAVITY>
0

>  <SCORE.RESTR.norm>
0

>  <SCORE.SYSTEM>
0

>  <SCORE.SYSTEM.CONST>
0

>  <SCORE.SYSTEM.DIHEDRAL>
0

>  <SCORE.SYSTEM.SOLV>
0

>  <SCORE.SYSTEM.norm>
0

>  <SCORE.heavy>
10

>  <SCORE.norm>
-0.763822

>  <RMSD>
5.065

$$$$
ligand
 OpenBabel11021811473D
libRbt.so/2013.1/901 2013/11/27
 10  9  0  0  0  0  0  0  0  0999 V2000
   27.2314   15.9337   19.3628 N   0  0  0  0  0  0  0  0  0  0  0  0
   28.3918   15.2977   20.0571 C   0  0  2  0  0  0  0  0  0  0  0  0
   28.0468   14.8471   21.4811 C   0  0  0  0  0  0  0  0  0  0  0  0
   26.9535   15.1060   22.0063 O   0  0  0  0  0  0  0  0  0  0  0  0
   29.6086   16.2270   20.0487 C   0  0  0  0  0  0  0  0  0  0  0  0
   30.8862   15.5393   20.4732 C   0  0  0  0  0  0  0  0  0  0  0  0
   32.0570   16.4919   20.4894 C   0  0  0  0  0  0  0  0  0  0  0  0
   31.9640   17.4595   21.6643 C   0  0  0  0  0  0  0  0  0  0  0  0
   33.1339   18.3721   21.7739 N   0  0  0  0  0  0  0  0  0  0  0  0
   28.8407   14.1734   22.1449 O   0  0  0  0  0  0  0  0  0  0  0  0
  2  1  1  1  0  0  0
  2  3  1  0  0  0  0
  2  5  1  0  0  0  0
  3  4  1  0  0  0  0
  3 10  1  0  0  0  0
  5  6  1  0  0  0  0
  6  7  1  0  0  0  0
  7  8  1  0  0  0  0
  8  9  1  0  0  0  0
M  END
>  <CHROM.1>
-5.96981543,-167.97286388,-178.46479641,72.65447733,176.70952593,29.69374106
15.92825813,20.98054298,3.00905298,0.44695652,1.97564723

>  <Name>
ligand

>  <RI>
0

>  <Rbt.Current_Directory>
/home/itssahil/PROJECTS/Mol_Feturizer/New_Systems/rnas/3DIY

>  <Rbt.Executable>
rbdock ($Id: //depot/dev/client3/rdock/2013.1/src/exe/rbdock.cxx#4 $)

>  <Rbt.Library>
libRbt.so (2013.1, Build901 2013/11/27)

>  <Rbt.Parameter_File>
/export/apps/rDock/src/rDock_2013.1_src/data/scripts/dock_solv.prm

>  <Rbt.Receptor>
prm/pocket_docking_5.prm

>  <SCORE>
-7.34571

>  <SCORE.INTER>
-7.26427

>  <SCORE.INTER.CONST>
1

>  <SCORE.INTER.POLAR>
0

>  <SCORE.INTER.ROT>
5

>  <SCORE.INTER.SOLV>
14.9209

>  <SCORE.INTER.VDW>
-16.7498

>  <SCORE.INTER.norm>
-0.726427

>  <SCORE.INTRA>
-0.0814339

>  <SCORE.INTRA.DIHEDRAL>
0.214406

>  <SCORE.INTRA.DIHEDRAL.0>
2.56603

>  <SCORE.INTRA.POLAR>
0

>  <SCORE.INTRA.POLAR.0>
0

>  <SCORE.INTRA.REPUL>
0

>  <SCORE.INTRA.REPUL.0>
0

>  <SCORE.INTRA.SOLV>
-1.38373

>  <SCORE.INTRA.SOLV.lig_0>
-32.0799

>  <SCORE.INTRA.VDW>
0.503228

>  <SCORE.INTRA.VDW.0>
-0.618248

>  <SCORE.INTRA.norm>
-0.00814339

>  <SCORE.RESTR>
0

>  <SCORE.RESTR.CAVITY>
0

>  <SCORE.RESTR.norm>
0

>  <SCORE.SYSTEM>
0

>  <SCORE.SYSTEM.CONST>
0

>  <SCORE.SYSTEM.DIHEDRAL>
0

>  <SCORE.SYSTEM.SOLV>
0

>  <SCORE.SYSTEM.norm>
0

>  <SCORE.heavy>
10

>  <SCORE.norm>
-0.734571

>  <RMSD>
5.068

$$$$
ligand
 OpenBabel11021811473D
libRbt.so/2013.1/901 2013/11/27
 10  9  0  0  0  0  0  0  0  0999 V2000
   25.8454   14.9771   20.5266 N   0  0  0  0  0  0  0  0  0  0  0  0
   27.2202   15.5505   20.6459 C   0  0  2  0  0  0  0  0  0  0  0  0
   27.7515   16.0807   19.3092 C   0  0  0  0  0  0  0  0  0  0  0  0
   28.3040   17.1868   19.2132 O   0  0  0  0  0  0  0  0  0  0  0  0
   28.1841   14.5327   21.2616 C   0  0  0  0  0  0  0  0  0  0  0  0
   29.4735   15.1530   21.7495 C   0  0  0  0  0  0  0  0  0  0  0  0
   30.4149   15.4590   20.6099 C   0  0  0  0  0  0  0  0  0  0  0  0
   31.6898   16.1277   21.1126 C   0  0  0  0  0  0  0  0  0  0  0  0
   31.4504   17.4405   21.7701 N   0  0  0  0  0  0  0  0  0  0  0  0
   27.6784   15.4007   18.2811 O   0  0  0  0  0  0  0  0  0  0  0  0
  2  1  1  6  0  0  0
  2  3  1  0  0  0  0
  2  5  1  0  0  0  0
  3  4  1  0  0  0  0
  3 10  1  0  0  0  0
  5  6  1  0  0  0  0
  6  7  1  0  0  0  0
  7  8  1  0  0  0  0
  8  9  1  0  0  0  0
M  END
>  <CHROM.1>
133.90711187,-164.49057638,-76.99035930,178.04466269,-62.19390189,28.80490912
15.80237341,20.41506830,2.96066556,-0.38708974,-0.99279081

>  <Name>
ligand

>  <RI>
0

>  <Rbt.Current_Directory>
/home/itssahil/PROJECTS/Mol_Feturizer/New_Systems/rnas/3DIY

>  <Rbt.Executable>
rbdock ($Id: //depot/dev/client3/rdock/2013.1/src/exe/rbdock.cxx#4 $)

>  <Rbt.Library>
libRbt.so (2013.1, Build901 2013/11/27)

>  <Rbt.Parameter_File>
/export/apps/rDock/src/rDock_2013.1_src/data/scripts/dock_solv.prm

>  <Rbt.Receptor>
prm/pocket_docking_3.prm

>  <SCORE>
-8.20259

>  <SCORE.INTER>
-8.30357

>  <SCORE.INTER.CONST>
1

>  <SCORE.INTER.POLAR>
0

>  <SCORE.INTER.ROT>
5

>  <SCORE.INTER.SOLV>
17.1445

>  <SCORE.INTER.VDW>
-18.1839

>  <SCORE.INTER.norm>
-0.830357

>  <SCORE.INTRA>
0.100978

>  <SCORE.INTRA.DIHEDRAL>
0.944031

>  <SCORE.INTRA.DIHEDRAL.0>
2.56603

>  <SCORE.INTRA.POLAR>
0

>  <SCORE.INTRA.POLAR.0>
0

>  <SCORE.INTRA.REPUL>
0

>  <SCORE.INTRA.REPUL.0>
0

>  <SCORE.INTRA.SOLV>
-0.565363

>  <SCORE.INTRA.SOLV.lig_0>
-32.0799

>  <SCORE.INTRA.VDW>
-0.0883567

>  <SCORE.INTRA.VDW.0>
-0.618248

>  <SCORE.INTRA.norm>
0.0100978

>  <SCORE.RESTR>
0

>  <SCORE.RESTR.CAVITY>
0

>  <SCORE.RESTR.norm>
0

>  <SCORE.SYSTEM>
0

>  <SCORE.SYSTEM.CONST>
0

>  <SCORE.SYSTEM.DIHEDRAL>
0

>  <SCORE.SYSTEM.SOLV>
0

>  <SCORE.SYSTEM.norm>
0

>  <SCORE.heavy>
10

>  <SCORE.norm>
-0.820259

>  <RMSD>
5.069

$$$$
ligand
 OpenBabel11021811473D
libRbt.so/2013.1/901 2013/11/27
 10  9  0  0  0  0  0  0  0  0999 V2000
   25.8639   15.0198   20.3978 N   0  0  0  0  0  0  0  0  0  0  0  0
   27.2567   15.5511   20.5016 C   0  0  2  0  0  0  0  0  0  0  0  0
   27.8517   15.9054   19.1340 C   0  0  0  0  0  0  0  0  0  0  0  0
   27.8131   15.1188   18.1760 O   0  0  0  0  0  0  0  0  0  0  0  0
   28.1577   14.5746   21.2624 C   0  0  0  0  0  0  0  0  0  0  0  0
   29.4322   15.2109   21.7686 C   0  0  0  0  0  0  0  0  0  0  0  0
   30.4128   15.4685   20.6503 C   0  0  0  0  0  0  0  0  0  0  0  0
   31.6947   16.1045   21.1769 C   0  0  0  0  0  0  0  0  0  0  0  0
   31.4809   17.4372   21.8025 N   0  0  0  0  0  0  0  0  0  0  0  0
   28.3616   17.0114   18.9295 O   0  0  0  0  0  0  0  0  0  0  0  0
  2  1  1  6  0  0  0
  2  3  1  0  0  0  0
  2  5  1  0  0  0  0
  3  4  1  0  0  0  0
  3 10  1  0  0  0  0
  5  6  1  0  0  0  0
  6  7  1  0  0  0  0
  7  8  1  0  0  0  0
  8  9  1  0  0  0  0
M  END
>  <CHROM.1>
-49.30644913,-162.34112932,-73.59450315,-179.75252830,-62.42506747,28.83701887
15.74814013,20.34558285,2.86670689,-0.39695606,-1.14223018

>  <Name>
ligand

>  <RI>
0

>  <Rbt.Current_Directory>
/home/itssahil/PROJECTS/Mol_Feturizer/New_Systems/rnas/3DIY

>  <Rbt.Executable>
rbdock ($Id: //depot/dev/client3/rdock/2013.1/src/exe/rbdock.cxx#4 $)

>  <Rbt.Library>
libRbt.so (2013.1, Build901 2013/11/27)

>  <Rbt.Parameter_File>
/export/apps/rDock/src/rDock_2013.1_src/data/scripts/dock_solv.prm

>  <Rbt.Receptor>
prm/pocket_docking_4.prm

>  <SCORE>
-8.12784

>  <SCORE.INTER>
-8.25988

>  <SCORE.INTER.CONST>
1

>  <SCORE.INTER.POLAR>
0

>  <SCORE.INTER.ROT>
5

>  <SCORE.INTER.SOLV>
16.7581

>  <SCORE.INTER.VDW>
-18.026

>  <SCORE.INTER.norm>
-0.825988

>  <SCORE.INTRA>
0.132036

>  <SCORE.INTRA.DIHEDRAL>
0.858769

>  <SCORE.INTRA.DIHEDRAL.0>
2.56603

>  <SCORE.INTRA.POLAR>
0

>  <SCORE.INTRA.POLAR.0>
0

>  <SCORE.INTRA.REPUL>
0

>  <SCORE.INTRA.REPUL.0>
0

>  <SCORE.INTRA.SOLV>
-0.552363

>  <SCORE.INTRA.SOLV.lig_0>
-32.0799

>  <SCORE.INTRA.VDW>
-0.0211665

>  <SCORE.INTRA.VDW.0>
-0.618248

>  <SCORE.INTRA.norm>
0.0132036

>  <SCORE.RESTR>
0

>  <SCORE.RESTR.CAVITY>
0

>  <SCORE.RESTR.norm>
0

>  <SCORE.SYSTEM>
0

>  <SCORE.SYSTEM.CONST>
0

>  <SCORE.SYSTEM.DIHEDRAL>
0

>  <SCORE.SYSTEM.SOLV>
0

>  <SCORE.SYSTEM.norm>
0

>  <SCORE.heavy>
10

>  <SCORE.norm>
-0.812784

>  <RMSD>
5.082

$$$$
ligand
 OpenBabel11021811473D
libRbt.so/2013.1/901 2013/11/27
 10  9  0  0  0  0  0  0  0  0999 V2000
   25.8061   14.9797   20.5310 N   0  0  0  0  0  0  0  0  0  0  0  0
   27.1891   15.5370   20.6306 C   0  0  2  0  0  0  0  0  0  0  0  0
   27.7431   15.9754   19.2701 C   0  0  0  0  0  0  0  0  0  0  0  0
   27.6859   15.2443   18.2700 O   0  0  0  0  0  0  0  0  0  0  0  0
   28.1293   14.5433   21.3183 C   0  0  0  0  0  0  0  0  0  0  0  0
   29.4321   15.1671   21.7645 C   0  0  0  0  0  0  0  0  0  0  0  0
   30.3623   15.4145   20.6018 C   0  0  0  0  0  0  0  0  0  0  0  0
   31.6612   16.0661   21.0640 C   0  0  0  0  0  0  0  0  0  0  0  0
   31.4665   17.4121   21.6672 N   0  0  0  0  0  0  0  0  0  0  0  0
   28.2365   17.0968   19.1159 O   0  0  0  0  0  0  0  0  0  0  0  0
  2  1  1  6  0  0  0
  2  3  1  0  0  0  0
  2  5  1  0  0  0  0
  3  4  1  0  0  0  0
  3 10  1  0  0  0  0
  5  6  1  0  0  0  0
  6  7  1  0  0  0  0
  7  8  1  0  0  0  0
  8  9  1  0  0  0  0
M  END
>  <CHROM.1>
-48.52928905,-165.30832678,-75.03768914,178.99236470,-62.98679434,28.77457942
15.75360082,20.38975560,2.94733749,-0.37392025,-1.05301469

>  <Name>
ligand

>  <RI>
0

>  <Rbt.Current_Directory>
/home/itssahil/PROJECTS/Mol_Feturizer/New_Systems/rnas/3DIY

>  <Rbt.Executable>
rbdock ($Id: //depot/dev/client3/rdock/2013.1/src/exe/rbdock.cxx#4 $)

>  <Rbt.Library>
libRbt.so (2013.1, Build901 2013/11/27)

>  <Rbt.Parameter_File>
/export/apps/rDock/src/rDock_2013.1_src/data/scripts/dock_solv.prm

>  <Rbt.Receptor>
prm/blind_docking_100.prm

>  <SCORE>
-8.28359

>  <SCORE.INTER>
-8.36146

>  <SCORE.INTER.CONST>
1

>  <SCORE.INTER.POLAR>
0

>  <SCORE.INTER.ROT>
5

>  <SCORE.INTER.SOLV>
17.21

>  <SCORE.INTER.VDW>
-18.2443

>  <SCORE.INTER.norm>
-0.836146

>  <SCORE.INTRA>
0.0778713

>  <SCORE.INTRA.DIHEDRAL>
0.709845

>  <SCORE.INTRA.DIHEDRAL.0>
2.56603

>  <SCORE.INTRA.POLAR>
0

>  <SCORE.INTRA.POLAR.0>
0

>  <SCORE.INTRA.REPUL>
0

>  <SCORE.INTRA.REPUL.0>
0

>  <SCORE.INTRA.SOLV>
-0.559419

>  <SCORE.INTRA.SOLV.lig_0>
-32.0799

>  <SCORE.INTRA.VDW>
0.00265853

>  <SCORE.INTRA.VDW.0>
-0.618248

>  <SCORE.INTRA.norm>
0.00778713

>  <SCORE.RESTR>
0

>  <SCORE.RESTR.CAVITY>
0

>  <SCORE.RESTR.norm>
0

>  <SCORE.SYSTEM>
0

>  <SCORE.SYSTEM.CONST>
0

>  <SCORE.SYSTEM.DIHEDRAL>
0

>  <SCORE.SYSTEM.SOLV>
0

>  <SCORE.SYSTEM.norm>
0

>  <SCORE.heavy>
10

>  <SCORE.norm>
-0.828359

>  <RMSD>
5.090

$$$$
ligand
 OpenBabel11021811473D
libRbt.so/2013.1/901 2013/11/27
 10  9  0  0  0  0  0  0  0  0999 V2000
   28.3432   14.2249   18.7544 N   0  0  0  0  0  0  0  0  0  0  0  0
   28.3395   14.3500   20.2435 C   0  0  2  0  0  0  0  0  0  0  0  0
   27.1529   15.1724   20.7590 C   0  0  0  0  0  0  0  0  0  0  0  0
   26.8110   15.1581   21.9510 O   0  0  0  0  0  0  0  0  0  0  0  0
   29.6690   14.9189   20.7464 C   0  0  0  0  0  0  0  0  0  0  0  0
   29.9999   16.2706   20.1559 C   0  0  0  0  0  0  0  0  0  0  0  0
   31.4544   16.6255   20.3480 C   0  0  0  0  0  0  0  0  0  0  0  0
   31.7676   16.8910   21.8166 C   0  0  0  0  0  0  0  0  0  0  0  0
   31.0835   18.0952   22.3597 N   0  0  0  0  0  0  0  0  0  0  0  0
   26.5152   15.9116   20.0029 O   0  0  0  0  0  0  0  0  0  0  0  0
  2  1  1  6  0  0  0
  2  3  1  0  0  0  0
  2  5  1  0  0  0  0
  3  4  1  0  0  0  0
  3 10  1  0  0  0  0
  5  6  1  0  0  0  0
  6  7  1  0  0  0  0
  7  8  1  0  0  0  0
  8  9  1  0  0  0  0
M  END
>  <CHROM.1>
164.49224403,57.98253871,-163.82585045,-69.02585984,-65.83163226,29.07847562
15.77385599,20.72385975,-2.66801409,0.23656346,0.91518009

>  <Name>
ligand

>  <RI>
0

>  <Rbt.Current_Directory>
/home/itssahil/PROJECTS/Mol_Feturizer/New_Systems/rnas/3DIY

>  <Rbt.Executable>
rbdock ($Id: //depot/dev/client3/rdock/2013.1/src/exe/rbdock.cxx#4 $)

>  <Rbt.Library>
libRbt.so (2013.1, Build901 2013/11/27)

>  <Rbt.Parameter_File>
/export/apps/rDock/src/rDock_2013.1_src/data/scripts/dock_solv.prm

>  <Rbt.Receptor>
prm/blind_docking_60.prm

>  <SCORE>
-6.04243

>  <SCORE.INTER>
-7.25019

>  <SCORE.INTER.CONST>
1

>  <SCORE.INTER.POLAR>
0

>  <SCORE.INTER.ROT>
5

>  <SCORE.INTER.SOLV>
13.8651

>  <SCORE.INTER.VDW>
-16.3885

>  <SCORE.INTER.norm>
-0.725019

>  <SCORE.INTRA>
1.20776

>  <SCORE.INTRA.DIHEDRAL>
0.433892

>  <SCORE.INTRA.DIHEDRAL.0>
2.56603

>  <SCORE.INTRA.POLAR>
0

>  <SCORE.INTRA.POLAR.0>
0

>  <SCORE.INTRA.REPUL>
0

>  <SCORE.INTRA.REPUL.0>
0

>  <SCORE.INTRA.SOLV>
0.800313

>  <SCORE.INTRA.SOLV.lig_0>
-32.0799

>  <SCORE.INTRA.VDW>
0.590663

>  <SCORE.INTRA.VDW.0>
-0.618248

>  <SCORE.INTRA.norm>
0.120776

>  <SCORE.RESTR>
0

>  <SCORE.RESTR.CAVITY>
0

>  <SCORE.RESTR.norm>
0

>  <SCORE.SYSTEM>
0

>  <SCORE.SYSTEM.CONST>
0

>  <SCORE.SYSTEM.DIHEDRAL>
0

>  <SCORE.SYSTEM.SOLV>
0

>  <SCORE.SYSTEM.norm>
0

>  <SCORE.heavy>
10

>  <SCORE.norm>
-0.604243

>  <RMSD>
5.096

$$$$
ligand
 OpenBabel11021811473D
libRbt.so/2013.1/901 2013/11/27
 10  9  0  0  0  0  0  0  0  0999 V2000
   25.9271   14.8621   20.7319 N   0  0  0  0  0  0  0  0  0  0  0  0
   27.2886   15.4776   20.7551 C   0  0  2  0  0  0  0  0  0  0  0  0
   27.7182   16.0007   19.3797 C   0  0  0  0  0  0  0  0  0  0  0  0
   28.2599   17.1071   19.2365 O   0  0  0  0  0  0  0  0  0  0  0  0
   28.3199   14.4990   21.3234 C   0  0  0  0  0  0  0  0  0  0  0  0
   29.6077   15.1692   21.7453 C   0  0  0  0  0  0  0  0  0  0  0  0
   30.4586   15.5468   20.5571 C   0  0  0  0  0  0  0  0  0  0  0  0
   31.7725   16.1818   20.9997 C   0  0  0  0  0  0  0  0  0  0  0  0
   31.5911   17.4375   21.7766 N   0  0  0  0  0  0  0  0  0  0  0  0
   27.5704   15.3145   18.3637 O   0  0  0  0  0  0  0  0  0  0  0  0
  2  1  1  6  0  0  0
  2  3  1  0  0  0  0
  2  5  1  0  0  0  0
  3  4  1  0  0  0  0
  3 10  1  0  0  0  0
  5  6  1  0  0  0  0
  6  7  1  0  0  0  0
  7  8  1  0  0  0  0
  8  9  1  0  0  0  0
M  END
>  <CHROM.1>
135.72623316,-163.31605986,-75.15150696,-178.22657656,-61.16791393,28.85259694
15.77070347,20.45341650,2.99534065,-0.38381645,-1.01058809

>  <Name>
ligand

>  <RI>
0

>  <Rbt.Current_Directory>
/home/itssahil/PROJECTS/Mol_Feturizer/New_Systems/rnas/3DIY

>  <Rbt.Executable>
rbdock ($Id: //depot/dev/client3/rdock/2013.1/src/exe/rbdock.cxx#4 $)

>  <Rbt.Library>
libRbt.so (2013.1, Build901 2013/11/27)

>  <Rbt.Parameter_File>
/export/apps/rDock/src/rDock_2013.1_src/data/scripts/dock_solv.prm

>  <Rbt.Receptor>
prm/pocket_docking_5.prm

>  <SCORE>
-8.1687

>  <SCORE.INTER>
-8.34631

>  <SCORE.INTER.CONST>
1

>  <SCORE.INTER.POLAR>
0

>  <SCORE.INTER.ROT>
5

>  <SCORE.INTER.SOLV>
17.2698

>  <SCORE.INTER.VDW>
-18.2542

>  <SCORE.INTER.norm>
-0.834631

>  <SCORE.INTRA>
0.177614

>  <SCORE.INTRA.DIHEDRAL>
0.831171

>  <SCORE.INTRA.DIHEDRAL.0>
2.56603

>  <SCORE.INTRA.POLAR>
0

>  <SCORE.INTRA.POLAR.0>
0

>  <SCORE.INTRA.REPUL>
0

>  <SCORE.INTRA.REPUL.0>
0

>  <SCORE.INTRA.SOLV>
-0.559839

>  <SCORE.INTRA.SOLV.lig_0>
-32.0799

>  <SCORE.INTRA.VDW>
0.0419478

>  <SCORE.INTRA.VDW.0>
-0.618248

>  <SCORE.INTRA.norm>
0.0177614

>  <SCORE.RESTR>
0

>  <SCORE.RESTR.CAVITY>
0

>  <SCORE.RESTR.norm>
0

>  <SCORE.SYSTEM>
0

>  <SCORE.SYSTEM.CONST>
0

>  <SCORE.SYSTEM.DIHEDRAL>
0

>  <SCORE.SYSTEM.SOLV>
0

>  <SCORE.SYSTEM.norm>
0

>  <SCORE.heavy>
10

>  <SCORE.norm>
-0.81687

>  <RMSD>
5.096

$$$$
ligand
 OpenBabel11021811473D
libRbt.so/2013.1/901 2013/11/27
 10  9  0  0  0  0  0  0  0  0999 V2000
   28.5374   16.0072   19.0251 N   0  0  0  0  0  0  0  0  0  0  0  0
   29.2105   15.0169   19.9192 C   0  0  2  0  0  0  0  0  0  0  0  0
   28.3989   14.7263   21.1868 C   0  0  0  0  0  0  0  0  0  0  0  0
   28.8397   14.0139   22.1013 O   0  0  0  0  0  0  0  0  0  0  0  0
   30.6322   15.4699   20.2623 C   0  0  0  0  0  0  0  0  0  0  0  0
   30.6729   16.7638   21.0430 C   0  0  0  0  0  0  0  0  0  0  0  0
   32.0820   17.1395   21.4326 C   0  0  0  0  0  0  0  0  0  0  0  0
   32.1082   18.4529   22.2069 C   0  0  0  0  0  0  0  0  0  0  0  0
   33.4658   18.8336   22.6814 N   0  0  0  0  0  0  0  0  0  0  0  0
   27.2830   15.2271   21.3563 O   0  0  0  0  0  0  0  0  0  0  0  0
  2  1  1  1  0  0  0
  2  3  1  0  0  0  0
  2  5  1  0  0  0  0
  3  4  1  0  0  0  0
  3 10  1  0  0  0  0
  5  6  1  0  0  0  0
  6  7  1  0  0  0  0
  7  8  1  0  0  0  0
  8  9  1  0  0  0  0
M  END
>  <CHROM.1>
-174.12380849,63.25739374,176.72332436,179.43845307,176.82329465,30.09632130
16.15034050,21.14619929,-3.03727565,0.68381609,1.78686375

>  <Name>
ligand

>  <RI>
0

>  <Rbt.Current_Directory>
/home/itssahil/PROJECTS/Mol_Feturizer/New_Systems/rnas/3DIY

>  <Rbt.Executable>
rbdock ($Id: //depot/dev/client3/rdock/2013.1/src/exe/rbdock.cxx#4 $)

>  <Rbt.Library>
libRbt.so (2013.1, Build901 2013/11/27)

>  <Rbt.Parameter_File>
/export/apps/rDock/src/rDock_2013.1_src/data/scripts/dock_solv.prm

>  <Rbt.Receptor>
prm/pocket_docking_6.prm

>  <SCORE>
-6.9209

>  <SCORE.INTER>
-6.19266

>  <SCORE.INTER.CONST>
1

>  <SCORE.INTER.POLAR>
0

>  <SCORE.INTER.ROT>
5

>  <SCORE.INTER.SOLV>
13.3478

>  <SCORE.INTER.VDW>
-15.511

>  <SCORE.INTER.norm>
-0.619266

>  <SCORE.INTRA>
-0.728233

>  <SCORE.INTRA.DIHEDRAL>
-0.893974

>  <SCORE.INTRA.DIHEDRAL.0>
2.56603

>  <SCORE.INTRA.POLAR>
0

>  <SCORE.INTRA.POLAR.0>
0

>  <SCORE.INTRA.REPUL>
0

>  <SCORE.INTRA.REPUL.0>
0

>  <SCORE.INTRA.SOLV>
-0.725062

>  <SCORE.INTRA.SOLV.lig_0>
-32.0799

>  <SCORE.INTRA.VDW>
0.0812848

>  <SCORE.INTRA.VDW.0>
-0.618248

>  <SCORE.INTRA.norm>
-0.0728233

>  <SCORE.RESTR>
0

>  <SCORE.RESTR.CAVITY>
0

>  <SCORE.RESTR.norm>
0

>  <SCORE.SYSTEM>
0

>  <SCORE.SYSTEM.CONST>
0

>  <SCORE.SYSTEM.DIHEDRAL>
0

>  <SCORE.SYSTEM.SOLV>
0

>  <SCORE.SYSTEM.norm>
0

>  <SCORE.heavy>
10

>  <SCORE.norm>
-0.69209

>  <RMSD>
5.098

$$$$
ligand
 OpenBabel11021811473D
libRbt.so/2013.1/901 2013/11/27
 10  9  0  0  0  0  0  0  0  0999 V2000
   28.6687   16.8945   20.4932 N   0  0  0  0  0  0  0  0  0  0  0  0
   27.7639   16.0794   19.6273 C   0  0  2  0  0  0  0  0  0  0  0  0
   26.8915   15.1137   20.4375 C   0  0  0  0  0  0  0  0  0  0  0  0
   27.3690   14.3632   21.3017 O   0  0  0  0  0  0  0  0  0  0  0  0
   28.5613   15.3371   18.5514 C   0  0  0  0  0  0  0  0  0  0  0  0
   27.6866   14.6900   17.5019 C   0  0  0  0  0  0  0  0  0  0  0  0
   27.1919   13.3338   17.9428 C   0  0  0  0  0  0  0  0  0  0  0  0
   26.5199   12.5916   16.7927 C   0  0  0  0  0  0  0  0  0  0  0  0
   26.1288   11.1977   17.1356 N   0  0  0  0  0  0  0  0  0  0  0  0
   25.6674   15.0775   20.2795 O   0  0  0  0  0  0  0  0  0  0  0  0
  2  1  1  1  0  0  0
  2  3  1  0  0  0  0
  2  5  1  0  0  0  0
  3  4  1  0  0  0  0
  3 10  1  0  0  0  0
  5  6  1  0  0  0  0
  6  7  1  0  0  0  0
  7  8  1  0  0  0  0
  8  9  1  0  0  0  0
M  END
>  <CHROM.1>
-49.43565685,-170.01358010,-84.16926957,-170.06907113,174.49085508,27.22588216
14.45429471,19.03140730,-1.21111564,-0.82379044,-2.13701966

>  <Name>
ligand

>  <RI>
0

>  <Rbt.Current_Directory>
/home/itssahil/PROJECTS/Mol_Feturizer/New_Systems/rnas/3DIY

>  <Rbt.Executable>
rbdock ($Id: //depot/dev/client3/rdock/2013.1/src/exe/rbdock.cxx#4 $)

>  <Rbt.Library>
libRbt.so (2013.1, Build901 2013/11/27)

>  <Rbt.Parameter_File>
/export/apps/rDock/src/rDock_2013.1_src/data/scripts/dock_solv.prm

>  <Rbt.Receptor>
prm/blind_docking_40.prm

>  <SCORE>
-8.87892

>  <SCORE.INTER>
-8.84464

>  <SCORE.INTER.CONST>
1

>  <SCORE.INTER.POLAR>
0

>  <SCORE.INTER.ROT>
5

>  <SCORE.INTER.SOLV>
19.7895

>  <SCORE.INTER.VDW>
-19.4263

>  <SCORE.INTER.norm>
-0.884464

>  <SCORE.INTRA>
-0.0342854

>  <SCORE.INTRA.DIHEDRAL>
2.01764

>  <SCORE.INTRA.DIHEDRAL.0>
2.56603

>  <SCORE.INTRA.POLAR>
0

>  <SCORE.INTRA.POLAR.0>
0

>  <SCORE.INTRA.REPUL>
0

>  <SCORE.INTRA.REPUL.0>
0

>  <SCORE.INTRA.SOLV>
-1.51993

>  <SCORE.INTRA.SOLV.lig_0>
-32.0799

>  <SCORE.INTRA.VDW>
-0.283143

>  <SCORE.INTRA.VDW.0>
-0.618248

>  <SCORE.INTRA.norm>
-0.00342854

>  <SCORE.RESTR>
0

>  <SCORE.RESTR.CAVITY>
0

>  <SCORE.RESTR.norm>
0

>  <SCORE.SYSTEM>
0

>  <SCORE.SYSTEM.CONST>
0

>  <SCORE.SYSTEM.DIHEDRAL>
0

>  <SCORE.SYSTEM.SOLV>
0

>  <SCORE.SYSTEM.norm>
0

>  <SCORE.heavy>
10

>  <SCORE.norm>
-0.887892

>  <RMSD>
5.103

$$$$
ligand
 OpenBabel11021811473D
libRbt.so/2013.1/901 2013/11/27
 10  9  0  0  0  0  0  0  0  0999 V2000
   25.9339   14.8535   20.7431 N   0  0  0  0  0  0  0  0  0  0  0  0
   27.3026   15.4534   20.7405 C   0  0  2  0  0  0  0  0  0  0  0  0
   27.7101   15.9763   19.3583 C   0  0  0  0  0  0  0  0  0  0  0  0
   27.5663   15.2983   18.3299 O   0  0  0  0  0  0  0  0  0  0  0  0
   28.3340   14.4612   21.2845 C   0  0  0  0  0  0  0  0  0  0  0  0
   29.6355   15.1161   21.6878 C   0  0  0  0  0  0  0  0  0  0  0  0
   30.4498   15.5315   20.4866 C   0  0  0  0  0  0  0  0  0  0  0  0
   31.7718   16.1635   20.9088 C   0  0  0  0  0  0  0  0  0  0  0  0
   31.6055   17.4220   21.6845 N   0  0  0  0  0  0  0  0  0  0  0  0
   28.1658   17.1154   19.2183 O   0  0  0  0  0  0  0  0  0  0  0  0
  2  1  1  6  0  0  0
  2  3  1  0  0  0  0
  2  5  1  0  0  0  0
  3  4  1  0  0  0  0
  3 10  1  0  0  0  0
  5  6  1  0  0  0  0
  6  7  1  0  0  0  0
  7  8  1  0  0  0  0
  8  9  1  0  0  0  0
M  END
>  <CHROM.1>
-47.74449912,-163.07110908,-73.38150546,-178.80600123,-63.15461057,28.84737369
15.75073000,20.41070066,3.01359644,-0.37525609,-0.98699251

>  <Name>
ligand

>  <RI>
0

>  <Rbt.Current_Directory>
/home/itssahil/PROJECTS/Mol_Feturizer/New_Systems/rnas/3DIY

>  <Rbt.Executable>
rbdock ($Id: //depot/dev/client3/rdock/2013.1/src/exe/rbdock.cxx#4 $)

>  <Rbt.Library>
libRbt.so (2013.1, Build901 2013/11/27)

>  <Rbt.Parameter_File>
/export/apps/rDock/src/rDock_2013.1_src/data/scripts/dock_solv.prm

>  <Rbt.Receptor>
prm/blind_docking_60.prm

>  <SCORE>
-8.19995

>  <SCORE.INTER>
-8.34253

>  <SCORE.INTER.CONST>
1

>  <SCORE.INTER.POLAR>
0

>  <SCORE.INTER.ROT>
5

>  <SCORE.INTER.SOLV>
17.3279

>  <SCORE.INTER.VDW>
-18.271

>  <SCORE.INTER.norm>
-0.834253

>  <SCORE.INTRA>
0.142579

>  <SCORE.INTRA.DIHEDRAL>
0.778905

>  <SCORE.INTRA.DIHEDRAL.0>
2.56603

>  <SCORE.INTRA.POLAR>
0

>  <SCORE.INTRA.POLAR.0>
0

>  <SCORE.INTRA.REPUL>
0

>  <SCORE.INTRA.REPUL.0>
0

>  <SCORE.INTRA.SOLV>
-0.565061

>  <SCORE.INTRA.SOLV.lig_0>
-32.0799

>  <SCORE.INTRA.VDW>
0.0356569

>  <SCORE.INTRA.VDW.0>
-0.618248

>  <SCORE.INTRA.norm>
0.0142579

>  <SCORE.RESTR>
0

>  <SCORE.RESTR.CAVITY>
0

>  <SCORE.RESTR.norm>
0

>  <SCORE.SYSTEM>
0

>  <SCORE.SYSTEM.CONST>
0

>  <SCORE.SYSTEM.DIHEDRAL>
0

>  <SCORE.SYSTEM.SOLV>
0

>  <SCORE.SYSTEM.norm>
0

>  <SCORE.heavy>
10

>  <SCORE.norm>
-0.819995

>  <RMSD>
5.103

$$$$
ligand
 OpenBabel11021811473D
libRbt.so/2013.1/901 2013/11/27
 10  9  0  0  0  0  0  0  0  0999 V2000
   28.5975   16.9168   20.3873 N   0  0  0  0  0  0  0  0  0  0  0  0
   27.6924   16.0535   19.5696 C   0  0  2  0  0  0  0  0  0  0  0  0
   26.9478   15.0167   20.4184 C   0  0  0  0  0  0  0  0  0  0  0  0
   25.7164   14.8813   20.3608 O   0  0  0  0  0  0  0  0  0  0  0  0
   28.4617   15.3856   18.4266 C   0  0  0  0  0  0  0  0  0  0  0  0
   27.5650   14.6605   17.4491 C   0  0  0  0  0  0  0  0  0  0  0  0
   27.3744   13.2126   17.8309 C   0  0  0  0  0  0  0  0  0  0  0  0
   26.5085   12.4827   16.8098 C   0  0  0  0  0  0  0  0  0  0  0  0
   26.3802   11.0247   17.0765 N   0  0  0  0  0  0  0  0  0  0  0  0
   27.5605   14.2500   21.1678 O   0  0  0  0  0  0  0  0  0  0  0  0
  2  1  1  1  0  0  0
  2  3  1  0  0  0  0
  2  5  1  0  0  0  0
  3  4  1  0  0  0  0
  3 10  1  0  0  0  0
  5  6  1  0  0  0  0
  6  7  1  0  0  0  0
  7  8  1  0  0  0  0
  8  9  1  0  0  0  0
M  END
>  <CHROM.1>
128.45659832,-171.70016303,-91.32711560,-177.99893278,175.23493980,27.26423900
14.37265335,18.97505548,-1.21506660,-0.91937941,-2.13945925

>  <Name>
ligand

>  <RI>
0

>  <Rbt.Current_Directory>
/home/itssahil/PROJECTS/Mol_Feturizer/New_Systems/rnas/3DIY

>  <Rbt.Executable>
rbdock ($Id: //depot/dev/client3/rdock/2013.1/src/exe/rbdock.cxx#4 $)

>  <Rbt.Library>
libRbt.so (2013.1, Build901 2013/11/27)

>  <Rbt.Parameter_File>
/export/apps/rDock/src/rDock_2013.1_src/data/scripts/dock_solv.prm

>  <Rbt.Receptor>
prm/blind_docking_60.prm

>  <SCORE>
-8.77817

>  <SCORE.INTER>
-8.84856

>  <SCORE.INTER.CONST>
1

>  <SCORE.INTER.POLAR>
0

>  <SCORE.INTER.ROT>
5

>  <SCORE.INTER.SOLV>
19.4914

>  <SCORE.INTER.VDW>
-19.3295

>  <SCORE.INTER.norm>
-0.884856

>  <SCORE.INTRA>
0.0703941

>  <SCORE.INTRA.DIHEDRAL>
2.56478

>  <SCORE.INTRA.DIHEDRAL.0>
2.56603

>  <SCORE.INTRA.POLAR>
0

>  <SCORE.INTRA.POLAR.0>
0

>  <SCORE.INTRA.REPUL>
0

>  <SCORE.INTRA.REPUL.0>
0

>  <SCORE.INTRA.SOLV>
-1.56786

>  <SCORE.INTRA.SOLV.lig_0>
-32.0799

>  <SCORE.INTRA.VDW>
-0.428065

>  <SCORE.INTRA.VDW.0>
-0.618248

>  <SCORE.INTRA.norm>
0.00703941

>  <SCORE.RESTR>
0

>  <SCORE.RESTR.CAVITY>
0

>  <SCORE.RESTR.norm>
0

>  <SCORE.SYSTEM>
0

>  <SCORE.SYSTEM.CONST>
0

>  <SCORE.SYSTEM.DIHEDRAL>
0

>  <SCORE.SYSTEM.SOLV>
0

>  <SCORE.SYSTEM.norm>
0

>  <SCORE.heavy>
10

>  <SCORE.norm>
-0.877817

>  <RMSD>
5.133

$$$$
ligand
 OpenBabel11021811473D
libRbt.so/2013.1/901 2013/11/27
 10  9  0  0  0  0  0  0  0  0999 V2000
   27.9742   15.1440   18.6484 N   0  0  0  0  0  0  0  0  0  0  0  0
   28.0707   14.6494   20.0552 C   0  0  2  0  0  0  0  0  0  0  0  0
   26.8250   14.9885   20.8818 C   0  0  0  0  0  0  0  0  0  0  0  0
   25.7014   15.0901   20.3669 O   0  0  0  0  0  0  0  0  0  0  0  0
   29.3428   15.1693   20.7302 C   0  0  0  0  0  0  0  0  0  0  0  0
   29.4429   16.6777   20.7307 C   0  0  0  0  0  0  0  0  0  0  0  0
   30.7385   17.1535   21.3417 C   0  0  0  0  0  0  0  0  0  0  0  0
   31.9050   16.9632   20.3781 C   0  0  0  0  0  0  0  0  0  0  0  0
   32.2134   15.5353   20.0963 N   0  0  0  0  0  0  0  0  0  0  0  0
   26.8950   15.1370   22.1057 O   0  0  0  0  0  0  0  0  0  0  0  0
  2  1  1  6  0  0  0
  2  3  1  0  0  0  0
  2  5  1  0  0  0  0
  3  4  1  0  0  0  0
  3 10  1  0  0  0  0
  5  6  1  0  0  0  0
  6  7  1  0  0  0  0
  7  8  1  0  0  0  0
  8  9  1  0  0  0  0
M  END
>  <CHROM.1>
29.90313685,57.13783605,-177.18945228,76.07043421,-66.20357694,28.87330488
15.65248342,20.55193648,-3.05237666,0.27504132,1.14941352

>  <Name>
ligand

>  <RI>
0

>  <Rbt.Current_Directory>
/home/itssahil/PROJECTS/Mol_Feturizer/New_Systems/rnas/3DIY

>  <Rbt.Executable>
rbdock ($Id: //depot/dev/client3/rdock/2013.1/src/exe/rbdock.cxx#4 $)

>  <Rbt.Library>
libRbt.so (2013.1, Build901 2013/11/27)

>  <Rbt.Parameter_File>
/export/apps/rDock/src/rDock_2013.1_src/data/scripts/dock_solv.prm

>  <Rbt.Receptor>
prm/pocket_docking_8.prm

>  <SCORE>
-7.52354

>  <SCORE.INTER>
-9.4243

>  <SCORE.INTER.CONST>
1

>  <SCORE.INTER.POLAR>
0

>  <SCORE.INTER.ROT>
5

>  <SCORE.INTER.SOLV>
13.0534

>  <SCORE.INTER.VDW>
-17.5673

>  <SCORE.INTER.norm>
-0.94243

>  <SCORE.INTRA>
1.90075

>  <SCORE.INTRA.DIHEDRAL>
0.138978

>  <SCORE.INTRA.DIHEDRAL.0>
2.56603

>  <SCORE.INTRA.POLAR>
0

>  <SCORE.INTRA.POLAR.0>
0

>  <SCORE.INTRA.REPUL>
0

>  <SCORE.INTRA.REPUL.0>
0

>  <SCORE.INTRA.SOLV>
1.68833

>  <SCORE.INTRA.SOLV.lig_0>
-32.0799

>  <SCORE.INTRA.VDW>
0.987103

>  <SCORE.INTRA.VDW.0>
-0.618248

>  <SCORE.INTRA.norm>
0.190075

>  <SCORE.RESTR>
0

>  <SCORE.RESTR.CAVITY>
0

>  <SCORE.RESTR.norm>
0

>  <SCORE.SYSTEM>
0

>  <SCORE.SYSTEM.CONST>
0

>  <SCORE.SYSTEM.DIHEDRAL>
0

>  <SCORE.SYSTEM.SOLV>
0

>  <SCORE.SYSTEM.norm>
0

>  <SCORE.heavy>
10

>  <SCORE.norm>
-0.752354

>  <RMSD>
5.137

$$$$
ligand
 OpenBabel11021811473D
libRbt.so/2013.1/901 2013/11/27
 10  9  0  0  0  0  0  0  0  0999 V2000
   25.7713   14.8474   20.6621 N   0  0  0  0  0  0  0  0  0  0  0  0
   27.1363   15.4540   20.7066 C   0  0  2  0  0  0  0  0  0  0  0  0
   27.6176   15.9146   19.3260 C   0  0  0  0  0  0  0  0  0  0  0  0
   28.0655   17.0547   19.1321 O   0  0  0  0  0  0  0  0  0  0  0  0
   28.1391   14.4937   21.3519 C   0  0  0  0  0  0  0  0  0  0  0  0
   29.4295   15.1666   21.7612 C   0  0  0  0  0  0  0  0  0  0  0  0
   30.3207   15.4393   20.5739 C   0  0  0  0  0  0  0  0  0  0  0  0
   31.6425   16.0632   21.0087 C   0  0  0  0  0  0  0  0  0  0  0  0
   31.4818   17.3758   21.6903 N   0  0  0  0  0  0  0  0  0  0  0  0
   27.6087   15.1453   18.3602 O   0  0  0  0  0  0  0  0  0  0  0  0
  2  1  1  6  0  0  0
  2  3  1  0  0  0  0
  2  5  1  0  0  0  0
  3  4  1  0  0  0  0
  3 10  1  0  0  0  0
  5  6  1  0  0  0  0
  6  7  1  0  0  0  0
  7  8  1  0  0  0  0
  8  9  1  0  0  0  0
M  END
>  <CHROM.1>
129.25948313,-164.61745242,-76.13983350,-177.56880023,-61.46644765,28.72369036
15.70525113,20.42365442,2.97779644,-0.37350996,-1.04667823

>  <Name>
ligand

>  <RI>
0

>  <Rbt.Current_Directory>
/home/itssahil/PROJECTS/Mol_Feturizer/New_Systems/rnas/3DIY

>  <Rbt.Executable>
rbdock ($Id: //depot/dev/client3/rdock/2013.1/src/exe/rbdock.cxx#4 $)

>  <Rbt.Library>
libRbt.so (2013.1, Build901 2013/11/27)

>  <Rbt.Parameter_File>
/export/apps/rDock/src/rDock_2013.1_src/data/scripts/dock_solv.prm

>  <Rbt.Receptor>
prm/pocket_docking_7.prm

>  <SCORE>
-8.06213

>  <SCORE.INTER>
-8.14898

>  <SCORE.INTER.CONST>
1

>  <SCORE.INTER.POLAR>
0

>  <SCORE.INTER.ROT>
5

>  <SCORE.INTER.SOLV>
17.5004

>  <SCORE.INTER.VDW>
-18.1995

>  <SCORE.INTER.norm>
-0.814898

>  <SCORE.INTRA>
0.0868497

>  <SCORE.INTRA.DIHEDRAL>
0.841098

>  <SCORE.INTRA.DIHEDRAL.0>
2.56603

>  <SCORE.INTRA.POLAR>
0

>  <SCORE.INTRA.POLAR.0>
0

>  <SCORE.INTRA.REPUL>
0

>  <SCORE.INTRA.REPUL.0>
0

>  <SCORE.INTRA.SOLV>
-0.577264

>  <SCORE.INTRA.SOLV.lig_0>
-32.0799

>  <SCORE.INTRA.VDW>
-0.0450672

>  <SCORE.INTRA.VDW.0>
-0.618248

>  <SCORE.INTRA.norm>
0.00868497

>  <SCORE.RESTR>
0

>  <SCORE.RESTR.CAVITY>
0

>  <SCORE.RESTR.norm>
0

>  <SCORE.SYSTEM>
0

>  <SCORE.SYSTEM.CONST>
0

>  <SCORE.SYSTEM.DIHEDRAL>
0

>  <SCORE.SYSTEM.SOLV>
0

>  <SCORE.SYSTEM.norm>
0

>  <SCORE.heavy>
10

>  <SCORE.norm>
-0.806213

>  <RMSD>
5.140

$$$$
ligand
 OpenBabel11021811473D
libRbt.so/2013.1/901 2013/11/27
 10  9  0  0  0  0  0  0  0  0999 V2000
   29.3736   15.2459   20.1391 N   0  0  0  0  0  0  0  0  0  0  0  0
   27.9918   15.7062   19.8047 C   0  0  2  0  0  0  0  0  0  0  0  0
   26.9647   15.2948   20.8657 C   0  0  0  0  0  0  0  0  0  0  0  0
   25.7869   15.0365   20.5759 O   0  0  0  0  0  0  0  0  0  0  0  0
   27.5769   15.2205   18.4132 C   0  0  0  0  0  0  0  0  0  0  0  0
   27.4407   13.7176   18.3230 C   0  0  0  0  0  0  0  0  0  0  0  0
   26.7541   13.2924   17.0478 C   0  0  0  0  0  0  0  0  0  0  0  0
   26.4052   11.8083   17.0781 C   0  0  0  0  0  0  0  0  0  0  0  0
   27.5955   10.9186   17.0069 N   0  0  0  0  0  0  0  0  0  0  0  0
   27.2894   15.1706   22.0506 O   0  0  0  0  0  0  0  0  0  0  0  0
  2  1  1  1  0  0  0
  2  3  1  0  0  0  0
  2  5  1  0  0  0  0
  3  4  1  0  0  0  0
  3 10  1  0  0  0  0
  5  6  1  0  0  0  0
  6  7  1  0  0  0  0
  7  8  1  0  0  0  0
  8  9  1  0  0  0  0
M  END
>  <CHROM.1>
-147.91020305,65.95366975,167.79220736,-170.08192738,-69.54317931,27.29598250
14.14069230,19.16208460,-1.48381350,-0.39286374,-2.26001224

>  <Name>
ligand

>  <RI>
0

>  <Rbt.Current_Directory>
/home/itssahil/PROJECTS/Mol_Feturizer/New_Systems/rnas/3DIY

>  <Rbt.Executable>
rbdock ($Id: //depot/dev/client3/rdock/2013.1/src/exe/rbdock.cxx#4 $)

>  <Rbt.Library>
libRbt.so (2013.1, Build901 2013/11/27)

>  <Rbt.Parameter_File>
/export/apps/rDock/src/rDock_2013.1_src/data/scripts/dock_solv.prm

>  <Rbt.Receptor>
prm/pocket_docking_7.prm

>  <SCORE>
-9.70844

>  <SCORE.INTER>
-10.4311

>  <SCORE.INTER.CONST>
1

>  <SCORE.INTER.POLAR>
0

>  <SCORE.INTER.ROT>
5

>  <SCORE.INTER.SOLV>
15.6369

>  <SCORE.INTER.VDW>
-19.0997

>  <SCORE.INTER.norm>
-1.04311

>  <SCORE.INTRA>
0.722664

>  <SCORE.INTRA.DIHEDRAL>
0.513399

>  <SCORE.INTRA.DIHEDRAL.0>
2.56603

>  <SCORE.INTRA.POLAR>
0

>  <SCORE.INTRA.POLAR.0>
0

>  <SCORE.INTRA.REPUL>
0

>  <SCORE.INTRA.REPUL.0>
0

>  <SCORE.INTRA.SOLV>
-0.0290642

>  <SCORE.INTRA.SOLV.lig_0>
-32.0799

>  <SCORE.INTRA.VDW>
0.480496

>  <SCORE.INTRA.VDW.0>
-0.618248

>  <SCORE.INTRA.norm>
0.0722664

>  <SCORE.RESTR>
0

>  <SCORE.RESTR.CAVITY>
0

>  <SCORE.RESTR.norm>
0

>  <SCORE.SYSTEM>
0

>  <SCORE.SYSTEM.CONST>
0

>  <SCORE.SYSTEM.DIHEDRAL>
0

>  <SCORE.SYSTEM.SOLV>
0

>  <SCORE.SYSTEM.norm>
0

>  <SCORE.heavy>
10

>  <SCORE.norm>
-0.970844

>  <RMSD>
5.150

$$$$
ligand
 OpenBabel11021811473D
libRbt.so/2013.1/901 2013/11/27
 10  9  0  0  0  0  0  0  0  0999 V2000
   28.3128   16.9455   19.0016 N   0  0  0  0  0  0  0  0  0  0  0  0
   28.1767   15.4582   18.9507 C   0  0  2  0  0  0  0  0  0  0  0  0
   27.8620   14.9470   17.5402 C   0  0  0  0  0  0  0  0  0  0  0  0
   27.2266   13.8998   17.3466 O   0  0  0  0  0  0  0  0  0  0  0  0
   27.1361   14.9708   19.9625 C   0  0  0  0  0  0  0  0  0  0  0  0
   27.5076   15.2800   21.3949 C   0  0  0  0  0  0  0  0  0  0  0  0
   28.7000   14.4748   21.8512 C   0  0  0  0  0  0  0  0  0  0  0  0
   30.0066   15.1308   21.4179 C   0  0  0  0  0  0  0  0  0  0  0  0
   30.2361   16.4620   22.0413 N   0  0  0  0  0  0  0  0  0  0  0  0
   28.2032   15.5872   16.5409 O   0  0  0  0  0  0  0  0  0  0  0  0
  2  1  1  6  0  0  0
  2  3  1  0  0  0  0
  2  5  1  0  0  0  0
  3  4  1  0  0  0  0
  3 10  1  0  0  0  0
  5  6  1  0  0  0  0
  6  7  1  0  0  0  0
  7  8  1  0  0  0  0
  8  9  1  0  0  0  0
M  END
>  <CHROM.1>
-151.70068872,-62.34794841,-68.43384750,83.03922429,64.17040078,28.32704456
15.30346591,19.56429262,-2.05414266,0.78922703,1.81460722

>  <Name>
ligand

>  <RI>
0

>  <Rbt.Current_Directory>
/home/itssahil/PROJECTS/Mol_Feturizer/New_Systems/rnas/3DIY

>  <Rbt.Executable>
rbdock ($Id: //depot/dev/client3/rdock/2013.1/src/exe/rbdock.cxx#4 $)

>  <Rbt.Library>
libRbt.so (2013.1, Build901 2013/11/27)

>  <Rbt.Parameter_File>
/export/apps/rDock/src/rDock_2013.1_src/data/scripts/dock_solv.prm

>  <Rbt.Receptor>
prm/blind_docking_100.prm

>  <SCORE>
-8.34442

>  <SCORE.INTER>
-11.7044

>  <SCORE.INTER.CONST>
1

>  <SCORE.INTER.POLAR>
0

>  <SCORE.INTER.ROT>
5

>  <SCORE.INTER.SOLV>
14.2816

>  <SCORE.INTER.VDW>
-19.4968

>  <SCORE.INTER.norm>
-1.17044

>  <SCORE.INTRA>
3.35995

>  <SCORE.INTRA.DIHEDRAL>
1.40365

>  <SCORE.INTRA.DIHEDRAL.0>
2.56603

>  <SCORE.INTRA.POLAR>
0

>  <SCORE.INTRA.POLAR.0>
0

>  <SCORE.INTRA.REPUL>
0

>  <SCORE.INTRA.REPUL.0>
0

>  <SCORE.INTRA.SOLV>
3.46146

>  <SCORE.INTRA.SOLV.lig_0>
-32.0799

>  <SCORE.INTRA.VDW>
0.927393

>  <SCORE.INTRA.VDW.0>
-0.618248

>  <SCORE.INTRA.norm>
0.335995

>  <SCORE.RESTR>
0

>  <SCORE.RESTR.CAVITY>
0

>  <SCORE.RESTR.norm>
0

>  <SCORE.SYSTEM>
0

>  <SCORE.SYSTEM.CONST>
0

>  <SCORE.SYSTEM.DIHEDRAL>
0

>  <SCORE.SYSTEM.SOLV>
0

>  <SCORE.SYSTEM.norm>
0

>  <SCORE.heavy>
10

>  <SCORE.norm>
-0.834442

>  <RMSD>
5.154

$$$$
ligand
 OpenBabel11021811473D
libRbt.so/2013.1/901 2013/11/27
 10  9  0  0  0  0  0  0  0  0999 V2000
   25.6956   14.8561   20.5437 N   0  0  0  0  0  0  0  0  0  0  0  0
   27.0541   15.4622   20.6857 C   0  0  2  0  0  0  0  0  0  0  0  0
   27.6379   15.9122   19.3416 C   0  0  0  0  0  0  0  0  0  0  0  0
   27.6659   15.1639   18.3530 O   0  0  0  0  0  0  0  0  0  0  0  0
   28.0047   14.5062   21.4113 C   0  0  0  0  0  0  0  0  0  0  0  0
   29.1898   15.2057   22.0372 C   0  0  0  0  0  0  0  0  0  0  0  0
   30.1953   15.6423   20.9995 C   0  0  0  0  0  0  0  0  0  0  0  0
   31.3914   16.3320   21.6469 C   0  0  0  0  0  0  0  0  0  0  0  0
   32.4123   16.7908   20.6669 N   0  0  0  0  0  0  0  0  0  0  0  0
   28.0705   17.0585   19.1880 O   0  0  0  0  0  0  0  0  0  0  0  0
  2  1  1  6  0  0  0
  2  3  1  0  0  0  0
  2  5  1  0  0  0  0
  3  4  1  0  0  0  0
  3 10  1  0  0  0  0
  5  6  1  0  0  0  0
  6  7  1  0  0  0  0
  7  8  1  0  0  0  0
  8  9  1  0  0  0  0
M  END
>  <CHROM.1>
-50.09952134,-158.54552983,-73.72823307,-179.36673950,-179.67023800,28.73509486
15.70316681,20.45430990,2.99210340,-0.31232466,-1.12660123

>  <Name>
ligand

>  <RI>
0

>  <Rbt.Current_Directory>
/home/itssahil/PROJECTS/Mol_Feturizer/New_Systems/rnas/3DIY

>  <Rbt.Executable>
rbdock ($Id: //depot/dev/client3/rdock/2013.1/src/exe/rbdock.cxx#4 $)

>  <Rbt.Library>
libRbt.so (2013.1, Build901 2013/11/27)

>  <Rbt.Parameter_File>
/export/apps/rDock/src/rDock_2013.1_src/data/scripts/dock_solv.prm

>  <Rbt.Receptor>
prm/pocket_docking_7.prm

>  <SCORE>
-7.95519

>  <SCORE.INTER>
-7.66422

>  <SCORE.INTER.CONST>
1

>  <SCORE.INTER.POLAR>
0

>  <SCORE.INTER.ROT>
5

>  <SCORE.INTER.SOLV>
18.424

>  <SCORE.INTER.VDW>
-18.1842

>  <SCORE.INTER.norm>
-0.766422

>  <SCORE.INTRA>
-0.290967

>  <SCORE.INTRA.DIHEDRAL>
1.32524

>  <SCORE.INTRA.DIHEDRAL.0>
2.56603

>  <SCORE.INTRA.POLAR>
0

>  <SCORE.INTRA.POLAR.0>
0

>  <SCORE.INTRA.REPUL>
0

>  <SCORE.INTRA.REPUL.0>
0

>  <SCORE.INTRA.SOLV>
-1.46669

>  <SCORE.INTRA.SOLV.lig_0>
-32.0799

>  <SCORE.INTRA.VDW>
-0.220245

>  <SCORE.INTRA.VDW.0>
-0.618248

>  <SCORE.INTRA.norm>
-0.0290967

>  <SCORE.RESTR>
0

>  <SCORE.RESTR.CAVITY>
0

>  <SCORE.RESTR.norm>
0

>  <SCORE.SYSTEM>
0

>  <SCORE.SYSTEM.CONST>
0

>  <SCORE.SYSTEM.DIHEDRAL>
0

>  <SCORE.SYSTEM.SOLV>
0

>  <SCORE.SYSTEM.norm>
0

>  <SCORE.heavy>
10

>  <SCORE.norm>
-0.795519

>  <RMSD>
5.158

$$$$
ligand
 OpenBabel11021811473D
libRbt.so/2013.1/901 2013/11/27
 10  9  0  0  0  0  0  0  0  0999 V2000
   27.0771   16.4164   19.3379 N   0  0  0  0  0  0  0  0  0  0  0  0
   28.0605   15.2933   19.4064 C   0  0  2  0  0  0  0  0  0  0  0  0
   27.9617   14.3542   18.1988 C   0  0  0  0  0  0  0  0  0  0  0  0
   28.9222   14.1552   17.4399 O   0  0  0  0  0  0  0  0  0  0  0  0
   27.9175   14.5227   20.7217 C   0  0  0  0  0  0  0  0  0  0  0  0
   28.5068   15.2530   21.9069 C   0  0  0  0  0  0  0  0  0  0  0  0
   30.0059   15.0907   21.9767 C   0  0  0  0  0  0  0  0  0  0  0  0
   30.7060   15.9984   20.9711 C   0  0  0  0  0  0  0  0  0  0  0  0
   30.6449   17.4403   21.3321 N   0  0  0  0  0  0  0  0  0  0  0  0
   26.9226   13.7308   17.9613 O   0  0  0  0  0  0  0  0  0  0  0  0
  2  1  1  6  0  0  0
  2  3  1  0  0  0  0
  2  5  1  0  0  0  0
  3  4  1  0  0  0  0
  3 10  1  0  0  0  0
  5  6  1  0  0  0  0
  6  7  1  0  0  0  0
  7  8  1  0  0  0  0
  8  9  1  0  0  0  0
M  END
>  <CHROM.1>
120.66410706,-75.77893784,-80.20269532,77.67386336,71.05991262,28.66603038
15.20110999,19.89135556,2.17116772,-0.37301611,-1.82110741

>  <Name>
ligand

>  <RI>
0

>  <Rbt.Current_Directory>
/home/itssahil/PROJECTS/Mol_Feturizer/New_Systems/rnas/3DIY

>  <Rbt.Executable>
rbdock ($Id: //depot/dev/client3/rdock/2013.1/src/exe/rbdock.cxx#4 $)

>  <Rbt.Library>
libRbt.so (2013.1, Build901 2013/11/27)

>  <Rbt.Parameter_File>
/export/apps/rDock/src/rDock_2013.1_src/data/scripts/dock_solv.prm

>  <Rbt.Receptor>
prm/pocket_docking_7.prm

>  <SCORE>
-5.57635

>  <SCORE.INTER>
-8.2469

>  <SCORE.INTER.CONST>
1

>  <SCORE.INTER.POLAR>
0

>  <SCORE.INTER.ROT>
5

>  <SCORE.INTER.SOLV>
15.2401

>  <SCORE.INTER.VDW>
-17.5113

>  <SCORE.INTER.norm>
-0.82469

>  <SCORE.INTRA>
2.67055

>  <SCORE.INTRA.DIHEDRAL>
3.16224

>  <SCORE.INTRA.DIHEDRAL.0>
2.56603

>  <SCORE.INTRA.POLAR>
0

>  <SCORE.INTRA.POLAR.0>
0

>  <SCORE.INTRA.REPUL>
0

>  <SCORE.INTRA.REPUL.0>
0

>  <SCORE.INTRA.SOLV>
1.8489

>  <SCORE.INTRA.SOLV.lig_0>
-32.0799

>  <SCORE.INTRA.VDW>
0.164978

>  <SCORE.INTRA.VDW.0>
-0.618248

>  <SCORE.INTRA.norm>
0.267055

>  <SCORE.RESTR>
0

>  <SCORE.RESTR.CAVITY>
0

>  <SCORE.RESTR.norm>
0

>  <SCORE.SYSTEM>
0

>  <SCORE.SYSTEM.CONST>
0

>  <SCORE.SYSTEM.DIHEDRAL>
0

>  <SCORE.SYSTEM.SOLV>
0

>  <SCORE.SYSTEM.norm>
0

>  <SCORE.heavy>
10

>  <SCORE.norm>
-0.557635

>  <RMSD>
5.165

$$$$
ligand
 OpenBabel11021811473D
libRbt.so/2013.1/901 2013/11/27
 10  9  0  0  0  0  0  0  0  0999 V2000
   28.5635   14.8872   18.8945 N   0  0  0  0  0  0  0  0  0  0  0  0
   28.2995   14.5266   20.3205 C   0  0  2  0  0  0  0  0  0  0  0  0
   26.9256   15.0072   20.8013 C   0  0  0  0  0  0  0  0  0  0  0  0
   26.6602   15.1421   22.0052 O   0  0  0  0  0  0  0  0  0  0  0  0
   29.4177   15.0436   21.2297 C   0  0  0  0  0  0  0  0  0  0  0  0
   29.6440   16.5333   21.1072 C   0  0  0  0  0  0  0  0  0  0  0  0
   30.6881   17.0237   22.0807 C   0  0  0  0  0  0  0  0  0  0  0  0
   32.0749   16.5125   21.7055 C   0  0  0  0  0  0  0  0  0  0  0  0
   32.5603   17.0242   20.3956 N   0  0  0  0  0  0  0  0  0  0  0  0
   26.0413   15.3137   19.9957 O   0  0  0  0  0  0  0  0  0  0  0  0
  2  1  1  6  0  0  0
  2  3  1  0  0  0  0
  2  5  1  0  0  0  0
  3  4  1  0  0  0  0
  3 10  1  0  0  0  0
  5  6  1  0  0  0  0
  6  7  1  0  0  0  0
  7  8  1  0  0  0  0
  8  9  1  0  0  0  0
M  END
>  <CHROM.1>
-159.80573364,55.86698139,176.24529122,69.12203431,64.04709441,29.04708764
15.70640401,20.86259741,-2.91967321,0.28413885,1.25815684

>  <Name>
ligand

>  <RI>
0

>  <Rbt.Current_Directory>
/home/itssahil/PROJECTS/Mol_Feturizer/New_Systems/rnas/3DIY

>  <Rbt.Executable>
rbdock ($Id: //depot/dev/client3/rdock/2013.1/src/exe/rbdock.cxx#4 $)

>  <Rbt.Library>
libRbt.so (2013.1, Build901 2013/11/27)

>  <Rbt.Parameter_File>
/export/apps/rDock/src/rDock_2013.1_src/data/scripts/dock_solv.prm

>  <Rbt.Receptor>
prm/pocket_docking_3.prm

>  <SCORE>
-8.06772

>  <SCORE.INTER>
-9.16112

>  <SCORE.INTER.CONST>
1

>  <SCORE.INTER.POLAR>
0

>  <SCORE.INTER.ROT>
5

>  <SCORE.INTER.SOLV>
11.7684

>  <SCORE.INTER.VDW>
-16.9636

>  <SCORE.INTER.norm>
-0.916112

>  <SCORE.INTRA>
1.09341

>  <SCORE.INTRA.DIHEDRAL>
-0.423804

>  <SCORE.INTRA.DIHEDRAL.0>
2.56603

>  <SCORE.INTRA.POLAR>
0

>  <SCORE.INTRA.POLAR.0>
0

>  <SCORE.INTRA.REPUL>
0

>  <SCORE.INTRA.REPUL.0>
0

>  <SCORE.INTRA.SOLV>
0.754958

>  <SCORE.INTRA.SOLV.lig_0>
-32.0799

>  <SCORE.INTRA.VDW>
0.92783

>  <SCORE.INTRA.VDW.0>
-0.618248

>  <SCORE.INTRA.norm>
0.109341

>  <SCORE.RESTR>
0

>  <SCORE.RESTR.CAVITY>
0

>  <SCORE.RESTR.norm>
0

>  <SCORE.SYSTEM>
0

>  <SCORE.SYSTEM.CONST>
0

>  <SCORE.SYSTEM.DIHEDRAL>
0

>  <SCORE.SYSTEM.SOLV>
0

>  <SCORE.SYSTEM.norm>
0

>  <SCORE.heavy>
10

>  <SCORE.norm>
-0.806772

>  <RMSD>
5.167

$$$$
ligand
 OpenBabel11021811473D
libRbt.so/2013.1/901 2013/11/27
 10  9  0  0  0  0  0  0  0  0999 V2000
   29.1033   16.5379   20.1178 N   0  0  0  0  0  0  0  0  0  0  0  0
   27.8985   15.8270   19.5923 C   0  0  2  0  0  0  0  0  0  0  0  0
   26.9845   15.3172   20.7123 C   0  0  0  0  0  0  0  0  0  0  0  0
   27.3941   15.1503   21.8709 O   0  0  0  0  0  0  0  0  0  0  0  0
   28.3037   14.6925   18.6473 C   0  0  0  0  0  0  0  0  0  0  0  0
   27.1226   14.0068   17.9990 C   0  0  0  0  0  0  0  0  0  0  0  0
   27.5090   12.6809   17.3900 C   0  0  0  0  0  0  0  0  0  0  0  0
   26.2789   11.9068   16.9285 C   0  0  0  0  0  0  0  0  0  0  0  0
   26.5440   10.4631   16.6864 N   0  0  0  0  0  0  0  0  0  0  0  0
   25.7891   15.0886   20.5032 O   0  0  0  0  0  0  0  0  0  0  0  0
  2  1  1  1  0  0  0
  2  3  1  0  0  0  0
  2  5  1  0  0  0  0
  3  4  1  0  0  0  0
  3 10  1  0  0  0  0
  5  6  1  0  0  0  0
  6  7  1  0  0  0  0
  7  8  1  0  0  0  0
  8  9  1  0  0  0  0
M  END
>  <CHROM.1>
-20.58842213,-175.45581031,-164.25381113,171.41940766,-163.44595157,27.27309500
14.16564835,19.07711738,-1.35910814,-0.63323979,-2.27456548

>  <Name>
ligand

>  <RI>
0

>  <Rbt.Current_Directory>
/home/itssahil/PROJECTS/Mol_Feturizer/New_Systems/rnas/3DIY

>  <Rbt.Executable>
rbdock ($Id: //depot/dev/client3/rdock/2013.1/src/exe/rbdock.cxx#4 $)

>  <Rbt.Library>
libRbt.so (2013.1, Build901 2013/11/27)

>  <Rbt.Parameter_File>
/export/apps/rDock/src/rDock_2013.1_src/data/scripts/dock_solv.prm

>  <Rbt.Receptor>
prm/pocket_docking_6.prm

>  <SCORE>
-11.4015

>  <SCORE.INTER>
-11.2203

>  <SCORE.INTER.CONST>
1

>  <SCORE.INTER.POLAR>
0

>  <SCORE.INTER.ROT>
5

>  <SCORE.INTER.SOLV>
15.6561

>  <SCORE.INTER.VDW>
-19.6322

>  <SCORE.INTER.norm>
-1.12203

>  <SCORE.INTRA>
-0.181241

>  <SCORE.INTRA.DIHEDRAL>
1.3693

>  <SCORE.INTRA.DIHEDRAL.0>
2.56603

>  <SCORE.INTRA.POLAR>
0

>  <SCORE.INTRA.POLAR.0>
0

>  <SCORE.INTRA.REPUL>
0

>  <SCORE.INTRA.REPUL.0>
0

>  <SCORE.INTRA.SOLV>
-1.57382

>  <SCORE.INTRA.SOLV.lig_0>
-32.0799

>  <SCORE.INTRA.VDW>
-0.0789835

>  <SCORE.INTRA.VDW.0>
-0.618248

>  <SCORE.INTRA.norm>
-0.0181241

>  <SCORE.RESTR>
0

>  <SCORE.RESTR.CAVITY>
0

>  <SCORE.RESTR.norm>
0

>  <SCORE.SYSTEM>
0

>  <SCORE.SYSTEM.CONST>
0

>  <SCORE.SYSTEM.DIHEDRAL>
0

>  <SCORE.SYSTEM.SOLV>
0

>  <SCORE.SYSTEM.norm>
0

>  <SCORE.heavy>
10

>  <SCORE.norm>
-1.14015

>  <RMSD>
5.169

$$$$
ligand
 OpenBabel11021811473D
libRbt.so/2013.1/901 2013/11/27
 10  9  0  0  0  0  0  0  0  0999 V2000
   29.1298   16.4655   20.2075 N   0  0  0  0  0  0  0  0  0  0  0  0
   27.9211   15.7896   19.6461 C   0  0  2  0  0  0  0  0  0  0  0  0
   26.9643   15.2988   20.7387 C   0  0  0  0  0  0  0  0  0  0  0  0
   25.7694   15.0599   20.5080 O   0  0  0  0  0  0  0  0  0  0  0  0
   28.3211   14.6494   18.7058 C   0  0  0  0  0  0  0  0  0  0  0  0
   27.1391   13.9919   18.0304 C   0  0  0  0  0  0  0  0  0  0  0  0
   27.5201   12.6825   17.3835 C   0  0  0  0  0  0  0  0  0  0  0  0
   26.2847   11.9090   16.9354 C   0  0  0  0  0  0  0  0  0  0  0  0
   26.5494   10.4679   16.6778 N   0  0  0  0  0  0  0  0  0  0  0  0
   27.3652   15.0885   21.8876 O   0  0  0  0  0  0  0  0  0  0  0  0
  2  1  1  1  0  0  0
  2  3  1  0  0  0  0
  2  5  1  0  0  0  0
  3  4  1  0  0  0  0
  3 10  1  0  0  0  0
  5  6  1  0  0  0  0
  6  7  1  0  0  0  0
  7  8  1  0  0  0  0
  8  9  1  0  0  0  0
M  END
>  <CHROM.1>
159.48344123,-175.88292105,-166.23924560,169.44416097,-162.46540743,27.27615892
14.13827619,19.10378138,-1.36503892,-0.60306327,-2.27185751

>  <Name>
ligand

>  <RI>
0

>  <Rbt.Current_Directory>
/home/itssahil/PROJECTS/Mol_Feturizer/New_Systems/rnas/3DIY

>  <Rbt.Executable>
rbdock ($Id: //depot/dev/client3/rdock/2013.1/src/exe/rbdock.cxx#4 $)

>  <Rbt.Library>
libRbt.so (2013.1, Build901 2013/11/27)

>  <Rbt.Parameter_File>
/export/apps/rDock/src/rDock_2013.1_src/data/scripts/dock_solv.prm

>  <Rbt.Receptor>
prm/pocket_docking_7.prm

>  <SCORE>
-11.4422

>  <SCORE.INTER>
-11.2355

>  <SCORE.INTER.CONST>
1

>  <SCORE.INTER.POLAR>
0

>  <SCORE.INTER.ROT>
5

>  <SCORE.INTER.SOLV>
15.4242

>  <SCORE.INTER.VDW>
-19.565

>  <SCORE.INTER.norm>
-1.12355

>  <SCORE.INTRA>
-0.206726

>  <SCORE.INTRA.DIHEDRAL>
1.25998

>  <SCORE.INTRA.DIHEDRAL.0>
2.56603

>  <SCORE.INTRA.POLAR>
0

>  <SCORE.INTRA.POLAR.0>
0

>  <SCORE.INTRA.REPUL>
0

>  <SCORE.INTRA.REPUL.0>
0

>  <SCORE.INTRA.SOLV>
-1.57386

>  <SCORE.INTRA.SOLV.lig_0>
-32.0799

>  <SCORE.INTRA.VDW>
-0.0497877

>  <SCORE.INTRA.VDW.0>
-0.618248

>  <SCORE.INTRA.norm>
-0.0206726

>  <SCORE.RESTR>
0

>  <SCORE.RESTR.CAVITY>
0

>  <SCORE.RESTR.norm>
0

>  <SCORE.SYSTEM>
0

>  <SCORE.SYSTEM.CONST>
0

>  <SCORE.SYSTEM.DIHEDRAL>
0

>  <SCORE.SYSTEM.SOLV>
0

>  <SCORE.SYSTEM.norm>
0

>  <SCORE.heavy>
10

>  <SCORE.norm>
-1.14422

>  <RMSD>
5.174

$$$$
ligand
 OpenBabel11021811473D
libRbt.so/2013.1/901 2013/11/27
 10  9  0  0  0  0  0  0  0  0999 V2000
   29.0913   16.5323   20.1201 N   0  0  0  0  0  0  0  0  0  0  0  0
   27.8879   15.8172   19.5971 C   0  0  2  0  0  0  0  0  0  0  0  0
   26.9838   15.2944   20.7193 C   0  0  0  0  0  0  0  0  0  0  0  0
   27.4033   15.1156   21.8726 O   0  0  0  0  0  0  0  0  0  0  0  0
   28.2945   14.6915   18.6423 C   0  0  0  0  0  0  0  0  0  0  0  0
   27.1141   14.0066   17.9920 C   0  0  0  0  0  0  0  0  0  0  0  0
   27.4995   12.6779   17.3884 C   0  0  0  0  0  0  0  0  0  0  0  0
   26.2692   11.9060   16.9237 C   0  0  0  0  0  0  0  0  0  0  0  0
   26.5343   10.4634   16.6749 N   0  0  0  0  0  0  0  0  0  0  0  0
   25.7871   15.0665   20.5176 O   0  0  0  0  0  0  0  0  0  0  0  0
  2  1  1  1  0  0  0
  2  3  1  0  0  0  0
  2  5  1  0  0  0  0
  3  4  1  0  0  0  0
  3 10  1  0  0  0  0
  5  6  1  0  0  0  0
  6  7  1  0  0  0  0
  7  8  1  0  0  0  0
  8  9  1  0  0  0  0
M  END
>  <CHROM.1>
-20.98559872,-175.20363399,-163.46299437,171.47742507,-163.97101541,27.26705085
14.15535813,19.07723502,-1.35555820,-0.64252316,-2.26720176

>  <Name>
ligand

>  <RI>
0

>  <Rbt.Current_Directory>
/home/itssahil/PROJECTS/Mol_Feturizer/New_Systems/rnas/3DIY

>  <Rbt.Executable>
rbdock ($Id: //depot/dev/client3/rdock/2013.1/src/exe/rbdock.cxx#4 $)

>  <Rbt.Library>
libRbt.so (2013.1, Build901 2013/11/27)

>  <Rbt.Parameter_File>
/export/apps/rDock/src/rDock_2013.1_src/data/scripts/dock_solv.prm

>  <Rbt.Receptor>
prm/blind_docking_40.prm

>  <SCORE>
-11.375

>  <SCORE.INTER>
-11.199

>  <SCORE.INTER.CONST>
1

>  <SCORE.INTER.POLAR>
0

>  <SCORE.INTER.ROT>
5

>  <SCORE.INTER.SOLV>
15.6929

>  <SCORE.INTER.VDW>
-19.6303

>  <SCORE.INTER.norm>
-1.1199

>  <SCORE.INTRA>
-0.17591

>  <SCORE.INTRA.DIHEDRAL>
1.41185

>  <SCORE.INTRA.DIHEDRAL.0>
2.56603

>  <SCORE.INTRA.POLAR>
0

>  <SCORE.INTRA.POLAR.0>
0

>  <SCORE.INTRA.REPUL>
0

>  <SCORE.INTRA.REPUL.0>
0

>  <SCORE.INTRA.SOLV>
-1.57478

>  <SCORE.INTRA.SOLV.lig_0>
-32.0799

>  <SCORE.INTRA.VDW>
-0.0944466

>  <SCORE.INTRA.VDW.0>
-0.618248

>  <SCORE.INTRA.norm>
-0.017591

>  <SCORE.RESTR>
0

>  <SCORE.RESTR.CAVITY>
0

>  <SCORE.RESTR.norm>
0

>  <SCORE.SYSTEM>
0

>  <SCORE.SYSTEM.CONST>
0

>  <SCORE.SYSTEM.DIHEDRAL>
0

>  <SCORE.SYSTEM.SOLV>
0

>  <SCORE.SYSTEM.norm>
0

>  <SCORE.heavy>
10

>  <SCORE.norm>
-1.1375

>  <RMSD>
5.175

$$$$
ligand
 OpenBabel11021811473D
libRbt.so/2013.1/901 2013/11/27
 10  9  0  0  0  0  0  0  0  0999 V2000
   29.1053   16.5286   20.1159 N   0  0  0  0  0  0  0  0  0  0  0  0
   27.9001   15.8251   19.5813 C   0  0  2  0  0  0  0  0  0  0  0  0
   26.9754   15.3196   20.6945 C   0  0  0  0  0  0  0  0  0  0  0  0
   27.3794   15.1357   21.8525 O   0  0  0  0  0  0  0  0  0  0  0  0
   28.3053   14.6892   18.6381 C   0  0  0  0  0  0  0  0  0  0  0  0
   27.1237   13.9937   18.0012 C   0  0  0  0  0  0  0  0  0  0  0  0
   27.5164   12.6738   17.3831 C   0  0  0  0  0  0  0  0  0  0  0  0
   26.2879   11.8804   16.9510 C   0  0  0  0  0  0  0  0  0  0  0  0
   26.5724   10.4435   16.6909 N   0  0  0  0  0  0  0  0  0  0  0  0
   25.7771   15.1117   20.4804 O   0  0  0  0  0  0  0  0  0  0  0  0
  2  1  1  1  0  0  0
  2  3  1  0  0  0  0
  2  5  1  0  0  0  0
  3  4  1  0  0  0  0
  3 10  1  0  0  0  0
  5  6  1  0  0  0  0
  6  7  1  0  0  0  0
  7  8  1  0  0  0  0
  8  9  1  0  0  0  0
M  END
>  <CHROM.1>
-21.36878008,-176.55256571,-164.80549691,170.62559870,-163.96204145,27.27435805
14.15880490,19.07104613,-1.36572857,-0.62565311,-2.28531781

>  <Name>
ligand

>  <RI>
0

>  <Rbt.Current_Directory>
/home/itssahil/PROJECTS/Mol_Feturizer/New_Systems/rnas/3DIY

>  <Rbt.Executable>
rbdock ($Id: //depot/dev/client3/rdock/2013.1/src/exe/rbdock.cxx#4 $)

>  <Rbt.Library>
libRbt.so (2013.1, Build901 2013/11/27)

>  <Rbt.Parameter_File>
/export/apps/rDock/src/rDock_2013.1_src/data/scripts/dock_solv.prm

>  <Rbt.Receptor>
prm/blind_docking_80.prm

>  <SCORE>
-11.3893

>  <SCORE.INTER>
-11.1827

>  <SCORE.INTER.CONST>
1

>  <SCORE.INTER.POLAR>
0

>  <SCORE.INTER.ROT>
5

>  <SCORE.INTER.SOLV>
15.6153

>  <SCORE.INTER.VDW>
-19.5936

>  <SCORE.INTER.norm>
-1.11827

>  <SCORE.INTRA>
-0.206549

>  <SCORE.INTRA.DIHEDRAL>
1.27703

>  <SCORE.INTRA.DIHEDRAL.0>
2.56603

>  <SCORE.INTRA.POLAR>
0

>  <SCORE.INTRA.POLAR.0>
0

>  <SCORE.INTRA.REPUL>
0

>  <SCORE.INTRA.REPUL.0>
0

>  <SCORE.INTRA.SOLV>
-1.57567

>  <SCORE.INTRA.SOLV.lig_0>
-32.0799

>  <SCORE.INTRA.VDW>
-0.0572267

>  <SCORE.INTRA.VDW.0>
-0.618248

>  <SCORE.INTRA.norm>
-0.0206549

>  <SCORE.RESTR>
0

>  <SCORE.RESTR.CAVITY>
0

>  <SCORE.RESTR.norm>
0

>  <SCORE.SYSTEM>
0

>  <SCORE.SYSTEM.CONST>
0

>  <SCORE.SYSTEM.DIHEDRAL>
0

>  <SCORE.SYSTEM.SOLV>
0

>  <SCORE.SYSTEM.norm>
0

>  <SCORE.heavy>
10

>  <SCORE.norm>
-1.13893

>  <RMSD>
5.176

$$$$
ligand
 OpenBabel11021811473D
libRbt.so/2013.1/901 2013/11/27
 10  9  0  0  0  0  0  0  0  0999 V2000
   29.2629   15.6656   19.5380 N   0  0  0  0  0  0  0  0  0  0  0  0
   27.7714   15.6073   19.6105 C   0  0  2  0  0  0  0  0  0  0  0  0
   27.2742   14.8797   20.8648 C   0  0  0  0  0  0  0  0  0  0  0  0
   28.0551   14.3854   21.6917 O   0  0  0  0  0  0  0  0  0  0  0  0
   27.1876   14.9842   18.3395 C   0  0  0  0  0  0  0  0  0  0  0  0
   27.7457   13.6119   18.0384 C   0  0  0  0  0  0  0  0  0  0  0  0
   26.7872   12.7848   17.2164 C   0  0  0  0  0  0  0  0  0  0  0  0
   27.3222   11.3732   17.0008 C   0  0  0  0  0  0  0  0  0  0  0  0
   26.2546   10.3663   16.7564 N   0  0  0  0  0  0  0  0  0  0  0  0
   26.0677   14.7931   21.1134 O   0  0  0  0  0  0  0  0  0  0  0  0
  2  1  1  6  0  0  0
  2  3  1  0  0  0  0
  2  5  1  0  0  0  0
  3  4  1  0  0  0  0
  3 10  1  0  0  0  0
  5  6  1  0  0  0  0
  6  7  1  0  0  0  0
  7  8  1  0  0  0  0
  8  9  1  0  0  0  0
M  END
>  <CHROM.1>
-1.27282030,55.78018207,154.58611476,-176.16418921,154.51000984,27.36261570
13.83881036,19.05330444,-1.29972173,-0.89478919,-2.13782035

>  <Name>
ligand

>  <RI>
0

>  <Rbt.Current_Directory>
/home/itssahil/PROJECTS/Mol_Feturizer/New_Systems/rnas/3DIY

>  <Rbt.Executable>
rbdock ($Id: //depot/dev/client3/rdock/2013.1/src/exe/rbdock.cxx#4 $)

>  <Rbt.Library>
libRbt.so (2013.1, Build901 2013/11/27)

>  <Rbt.Parameter_File>
/export/apps/rDock/src/rDock_2013.1_src/data/scripts/dock_solv.prm

>  <Rbt.Receptor>
prm/blind_docking_40.prm

>  <SCORE>
-9.47296

>  <SCORE.INTER>
-10.8797

>  <SCORE.INTER.CONST>
1

>  <SCORE.INTER.POLAR>
0

>  <SCORE.INTER.ROT>
5

>  <SCORE.INTER.SOLV>
13.6212

>  <SCORE.INTER.VDW>
-18.7269

>  <SCORE.INTER.norm>
-1.08797

>  <SCORE.INTRA>
1.40679

>  <SCORE.INTRA.DIHEDRAL>
3.57557

>  <SCORE.INTRA.DIHEDRAL.0>
2.56603

>  <SCORE.INTRA.POLAR>
0

>  <SCORE.INTRA.POLAR.0>
0

>  <SCORE.INTRA.REPUL>
0

>  <SCORE.INTRA.REPUL.0>
0

>  <SCORE.INTRA.SOLV>
-0.641849

>  <SCORE.INTRA.SOLV.lig_0>
-32.0799

>  <SCORE.INTRA.VDW>
-0.0600735

>  <SCORE.INTRA.VDW.0>
-0.618248

>  <SCORE.INTRA.norm>
0.140679

>  <SCORE.RESTR>
0

>  <SCORE.RESTR.CAVITY>
0

>  <SCORE.RESTR.norm>
0

>  <SCORE.SYSTEM>
0

>  <SCORE.SYSTEM.CONST>
0

>  <SCORE.SYSTEM.DIHEDRAL>
0

>  <SCORE.SYSTEM.SOLV>
0

>  <SCORE.SYSTEM.norm>
0

>  <SCORE.heavy>
10

>  <SCORE.norm>
-0.947296

>  <RMSD>
5.181

$$$$
ligand
 OpenBabel11021811473D
libRbt.so/2013.1/901 2013/11/27
 10  9  0  0  0  0  0  0  0  0999 V2000
   29.0895   16.5288   20.1067 N   0  0  0  0  0  0  0  0  0  0  0  0
   27.8851   15.8212   19.5758 C   0  0  2  0  0  0  0  0  0  0  0  0
   26.9645   15.3143   20.6918 C   0  0  0  0  0  0  0  0  0  0  0  0
   25.7627   15.0782   20.4968 O   0  0  0  0  0  0  0  0  0  0  0  0
   28.2914   14.6854   18.6329 C   0  0  0  0  0  0  0  0  0  0  0  0
   27.1101   13.9818   18.0044 C   0  0  0  0  0  0  0  0  0  0  0  0
   27.5105   12.6723   17.3693 C   0  0  0  0  0  0  0  0  0  0  0  0
   26.2860   11.8655   16.9509 C   0  0  0  0  0  0  0  0  0  0  0  0
   26.5845   10.4333   16.6808 N   0  0  0  0  0  0  0  0  0  0  0  0
   27.4027   15.0877   21.8239 O   0  0  0  0  0  0  0  0  0  0  0  0
  2  1  1  1  0  0  0
  2  3  1  0  0  0  0
  2  5  1  0  0  0  0
  3  4  1  0  0  0  0
  3 10  1  0  0  0  0
  5  6  1  0  0  0  0
  6  7  1  0  0  0  0
  7  8  1  0  0  0  0
  8  9  1  0  0  0  0
M  END
>  <CHROM.1>
157.61423368,-176.80228387,-165.64846982,170.37108180,-163.68630662,27.26918431
14.14458056,19.06540849,-1.36509340,-0.63293324,-2.28412878

>  <Name>
ligand

>  <RI>
0

>  <Rbt.Current_Directory>
/home/itssahil/PROJECTS/Mol_Feturizer/New_Systems/rnas/3DIY

>  <Rbt.Executable>
rbdock ($Id: //depot/dev/client3/rdock/2013.1/src/exe/rbdock.cxx#4 $)

>  <Rbt.Library>
libRbt.so (2013.1, Build901 2013/11/27)

>  <Rbt.Parameter_File>
/export/apps/rDock/src/rDock_2013.1_src/data/scripts/dock_solv.prm

>  <Rbt.Receptor>
prm/blind_docking_60.prm

>  <SCORE>
-11.4214

>  <SCORE.INTER>
-11.1239

>  <SCORE.INTER.CONST>
1

>  <SCORE.INTER.POLAR>
0

>  <SCORE.INTER.ROT>
5

>  <SCORE.INTER.SOLV>
15.6955

>  <SCORE.INTER.VDW>
-19.5811

>  <SCORE.INTER.norm>
-1.11239

>  <SCORE.INTRA>
-0.29746

>  <SCORE.INTRA.DIHEDRAL>
1.0861

>  <SCORE.INTRA.DIHEDRAL.0>
2.56603

>  <SCORE.INTRA.POLAR>
0

>  <SCORE.INTRA.POLAR.0>
0

>  <SCORE.INTRA.REPUL>
0

>  <SCORE.INTRA.REPUL.0>
0

>  <SCORE.INTRA.SOLV>
-1.57798

>  <SCORE.INTRA.SOLV.lig_0>
-32.0799

>  <SCORE.INTRA.VDW>
-0.0515178

>  <SCORE.INTRA.VDW.0>
-0.618248

>  <SCORE.INTRA.norm>
-0.029746

>  <SCORE.RESTR>
0

>  <SCORE.RESTR.CAVITY>
0

>  <SCORE.RESTR.norm>
0

>  <SCORE.SYSTEM>
0

>  <SCORE.SYSTEM.CONST>
0

>  <SCORE.SYSTEM.DIHEDRAL>
0

>  <SCORE.SYSTEM.SOLV>
0

>  <SCORE.SYSTEM.norm>
0

>  <SCORE.heavy>
10

>  <SCORE.norm>
-1.14214

>  <RMSD>
5.186

$$$$
ligand
 OpenBabel11021811473D
libRbt.so/2013.1/901 2013/11/27
 10  9  0  0  0  0  0  0  0  0999 V2000
   29.0759   16.5391   20.0990 N   0  0  0  0  0  0  0  0  0  0  0  0
   27.8743   15.8140   19.5859 C   0  0  2  0  0  0  0  0  0  0  0  0
   26.9561   15.3305   20.7142 C   0  0  0  0  0  0  0  0  0  0  0  0
   25.7606   15.0634   20.5207 O   0  0  0  0  0  0  0  0  0  0  0  0
   28.2848   14.6573   18.6706 C   0  0  0  0  0  0  0  0  0  0  0  0
   27.1097   13.9807   18.0023 C   0  0  0  0  0  0  0  0  0  0  0  0
   27.5031   12.6663   17.3729 C   0  0  0  0  0  0  0  0  0  0  0  0
   26.2753   11.8770   16.9318 C   0  0  0  0  0  0  0  0  0  0  0  0
   26.5569   10.4392   16.6736 N   0  0  0  0  0  0  0  0  0  0  0  0
   27.3908   15.1547   21.8566 O   0  0  0  0  0  0  0  0  0  0  0  0
  2  1  1  1  0  0  0
  2  3  1  0  0  0  0
  2  5  1  0  0  0  0
  3  4  1  0  0  0  0
  3 10  1  0  0  0  0
  5  6  1  0  0  0  0
  6  7  1  0  0  0  0
  7  8  1  0  0  0  0
  8  9  1  0  0  0  0
M  END
>  <CHROM.1>
158.85214524,-173.74596200,-166.74353519,169.51028351,-163.32911848,27.25930264
14.15046405,19.07519540,-1.36671811,-0.62870335,-2.28182025

>  <Name>
ligand

>  <RI>
0

>  <Rbt.Current_Directory>
/home/itssahil/PROJECTS/Mol_Feturizer/New_Systems/rnas/3DIY

>  <Rbt.Executable>
rbdock ($Id: //depot/dev/client3/rdock/2013.1/src/exe/rbdock.cxx#4 $)

>  <Rbt.Library>
libRbt.so (2013.1, Build901 2013/11/27)

>  <Rbt.Parameter_File>
/export/apps/rDock/src/rDock_2013.1_src/data/scripts/dock_solv.prm

>  <Rbt.Receptor>
prm/pocket_docking_8.prm

>  <SCORE>
-11.4532

>  <SCORE.INTER>
-11.1368

>  <SCORE.INTER.CONST>
1

>  <SCORE.INTER.POLAR>
0

>  <SCORE.INTER.ROT>
5

>  <SCORE.INTER.SOLV>
15.7488

>  <SCORE.INTER.VDW>
-19.6074

>  <SCORE.INTER.norm>
-1.11368

>  <SCORE.INTRA>
-0.316399

>  <SCORE.INTRA.DIHEDRAL>
1.18285

>  <SCORE.INTRA.DIHEDRAL.0>
2.56603

>  <SCORE.INTRA.POLAR>
0

>  <SCORE.INTRA.POLAR.0>
0

>  <SCORE.INTRA.REPUL>
0

>  <SCORE.INTRA.REPUL.0>
0

>  <SCORE.INTRA.SOLV>
-1.57448

>  <SCORE.INTRA.SOLV.lig_0>
-32.0799

>  <SCORE.INTRA.VDW>
-0.120585

>  <SCORE.INTRA.VDW.0>
-0.618248

>  <SCORE.INTRA.norm>
-0.0316399

>  <SCORE.RESTR>
0

>  <SCORE.RESTR.CAVITY>
0

>  <SCORE.RESTR.norm>
0

>  <SCORE.SYSTEM>
0

>  <SCORE.SYSTEM.CONST>
0

>  <SCORE.SYSTEM.DIHEDRAL>
0

>  <SCORE.SYSTEM.SOLV>
0

>  <SCORE.SYSTEM.norm>
0

>  <SCORE.heavy>
10

>  <SCORE.norm>
-1.14532

>  <RMSD>
5.188

$$$$
ligand
 OpenBabel11021811473D
libRbt.so/2013.1/901 2013/11/27
 10  9  0  0  0  0  0  0  0  0999 V2000
   29.0760   16.5321   20.1023 N   0  0  0  0  0  0  0  0  0  0  0  0
   27.8749   15.8099   19.5838 C   0  0  2  0  0  0  0  0  0  0  0  0
   26.9682   15.2985   20.7090 C   0  0  0  0  0  0  0  0  0  0  0  0
   27.3828   15.1390   21.8669 O   0  0  0  0  0  0  0  0  0  0  0  0
   28.2855   14.6742   18.6426 C   0  0  0  0  0  0  0  0  0  0  0  0
   27.1078   13.9827   17.9943 C   0  0  0  0  0  0  0  0  0  0  0  0
   27.5018   12.6609   17.3811 C   0  0  0  0  0  0  0  0  0  0  0  0
   26.2746   11.8698   16.9413 C   0  0  0  0  0  0  0  0  0  0  0  0
   26.5578   10.4321   16.6842 N   0  0  0  0  0  0  0  0  0  0  0  0
   25.7737   15.0609   20.5049 O   0  0  0  0  0  0  0  0  0  0  0  0
  2  1  1  1  0  0  0
  2  3  1  0  0  0  0
  2  5  1  0  0  0  0
  3  4  1  0  0  0  0
  3 10  1  0  0  0  0
  5  6  1  0  0  0  0
  6  7  1  0  0  0  0
  7  8  1  0  0  0  0
  8  9  1  0  0  0  0
M  END
>  <CHROM.1>
-20.63330425,-175.08023438,-164.65185775,170.44043508,-164.01910529,27.26074914
14.14452136,19.07348861,-1.36340570,-0.63984717,-2.27880994

>  <Name>
ligand

>  <RI>
0

>  <Rbt.Current_Directory>
/home/itssahil/PROJECTS/Mol_Feturizer/New_Systems/rnas/3DIY

>  <Rbt.Executable>
rbdock ($Id: //depot/dev/client3/rdock/2013.1/src/exe/rbdock.cxx#4 $)

>  <Rbt.Library>
libRbt.so (2013.1, Build901 2013/11/27)

>  <Rbt.Parameter_File>
/export/apps/rDock/src/rDock_2013.1_src/data/scripts/dock_solv.prm

>  <Rbt.Receptor>
prm/blind_docking_40.prm

>  <SCORE>
-11.3908

>  <SCORE.INTER>
-11.1856

>  <SCORE.INTER.CONST>
1

>  <SCORE.INTER.POLAR>
0

>  <SCORE.INTER.ROT>
5

>  <SCORE.INTER.SOLV>
15.6914

>  <SCORE.INTER.VDW>
-19.6209

>  <SCORE.INTER.norm>
-1.11856

>  <SCORE.INTRA>
-0.205224

>  <SCORE.INTRA.DIHEDRAL>
1.34504

>  <SCORE.INTRA.DIHEDRAL.0>
2.56603

>  <SCORE.INTRA.POLAR>
0

>  <SCORE.INTRA.POLAR.0>
0

>  <SCORE.INTRA.REPUL>
0

>  <SCORE.INTRA.REPUL.0>
0

>  <SCORE.INTRA.SOLV>
-1.57473

>  <SCORE.INTRA.SOLV.lig_0>
-32.0799

>  <SCORE.INTRA.VDW>
-0.0903794

>  <SCORE.INTRA.VDW.0>
-0.618248

>  <SCORE.INTRA.norm>
-0.0205224

>  <SCORE.RESTR>
0

>  <SCORE.RESTR.CAVITY>
0

>  <SCORE.RESTR.norm>
0

>  <SCORE.SYSTEM>
0

>  <SCORE.SYSTEM.CONST>
0

>  <SCORE.SYSTEM.DIHEDRAL>
0

>  <SCORE.SYSTEM.SOLV>
0

>  <SCORE.SYSTEM.norm>
0

>  <SCORE.heavy>
10

>  <SCORE.norm>
-1.13908

>  <RMSD>
5.190

$$$$
ligand
 OpenBabel11021811473D
libRbt.so/2013.1/901 2013/11/27
 10  9  0  0  0  0  0  0  0  0999 V2000
   25.6869   14.9445   20.5596 N   0  0  0  0  0  0  0  0  0  0  0  0
   27.0928   15.4503   20.5373 C   0  0  2  0  0  0  0  0  0  0  0  0
   27.6378   15.6025   19.1125 C   0  0  0  0  0  0  0  0  0  0  0  0
   28.2065   16.6371   18.7328 O   0  0  0  0  0  0  0  0  0  0  0  0
   28.0053   14.5630   21.3884 C   0  0  0  0  0  0  0  0  0  0  0  0
   29.3249   15.2179   21.7279 C   0  0  0  0  0  0  0  0  0  0  0  0
   30.2364   15.2977   20.5274 C   0  0  0  0  0  0  0  0  0  0  0  0
   31.5808   15.9156   20.8962 C   0  0  0  0  0  0  0  0  0  0  0  0
   31.4668   17.2856   21.4649 N   0  0  0  0  0  0  0  0  0  0  0  0
   27.5595   14.6764   18.2994 O   0  0  0  0  0  0  0  0  0  0  0  0
  2  1  1  6  0  0  0
  2  3  1  0  0  0  0
  2  5  1  0  0  0  0
  3  4  1  0  0  0  0
  3 10  1  0  0  0  0
  5  6  1  0  0  0  0
  6  7  1  0  0  0  0
  7  8  1  0  0  0  0
  8  9  1  0  0  0  0
M  END
>  <CHROM.1>
131.17884330,-163.67216519,-72.31385509,-178.00977240,-58.61159124,28.68374988
15.56178259,20.28967536,2.89393974,-0.34297628,-1.28819799

>  <Name>
ligand

>  <RI>
0

>  <Rbt.Current_Directory>
/home/itssahil/PROJECTS/Mol_Feturizer/New_Systems/rnas/3DIY

>  <Rbt.Executable>
rbdock ($Id: //depot/dev/client3/rdock/2013.1/src/exe/rbdock.cxx#4 $)

>  <Rbt.Library>
libRbt.so (2013.1, Build901 2013/11/27)

>  <Rbt.Parameter_File>
/export/apps/rDock/src/rDock_2013.1_src/data/scripts/dock_solv.prm

>  <Rbt.Receptor>
prm/pocket_docking_6.prm

>  <SCORE>
-7.82081

>  <SCORE.INTER>
-8.03299

>  <SCORE.INTER.CONST>
1

>  <SCORE.INTER.POLAR>
0

>  <SCORE.INTER.ROT>
5

>  <SCORE.INTER.SOLV>
17.2623

>  <SCORE.INTER.VDW>
-18.0428

>  <SCORE.INTER.norm>
-0.803299

>  <SCORE.INTRA>
0.212182

>  <SCORE.INTRA.DIHEDRAL>
0.512375

>  <SCORE.INTRA.DIHEDRAL.0>
2.56603

>  <SCORE.INTRA.POLAR>
0

>  <SCORE.INTRA.POLAR.0>
0

>  <SCORE.INTRA.REPUL>
0

>  <SCORE.INTRA.REPUL.0>
0

>  <SCORE.INTRA.SOLV>
-0.511852

>  <SCORE.INTRA.SOLV.lig_0>
-32.0799

>  <SCORE.INTRA.VDW>
0.21192

>  <SCORE.INTRA.VDW.0>
-0.618248

>  <SCORE.INTRA.norm>
0.0212182

>  <SCORE.RESTR>
0

>  <SCORE.RESTR.CAVITY>
0

>  <SCORE.RESTR.norm>
0

>  <SCORE.SYSTEM>
0

>  <SCORE.SYSTEM.CONST>
0

>  <SCORE.SYSTEM.DIHEDRAL>
0

>  <SCORE.SYSTEM.SOLV>
0

>  <SCORE.SYSTEM.norm>
0

>  <SCORE.heavy>
10

>  <SCORE.norm>
-0.782081

>  <RMSD>
5.190

$$$$
ligand
 OpenBabel11021811473D
libRbt.so/2013.1/901 2013/11/27
 10  9  0  0  0  0  0  0  0  0999 V2000
   27.6891   14.4873   18.3765 N   0  0  0  0  0  0  0  0  0  0  0  0
   27.8982   14.4490   19.8557 C   0  0  2  0  0  0  0  0  0  0  0  0
   26.6831   14.9689   20.6324 C   0  0  0  0  0  0  0  0  0  0  0  0
   25.6362   15.3122   20.0631 O   0  0  0  0  0  0  0  0  0  0  0  0
   29.1712   15.2046   20.2463 C   0  0  0  0  0  0  0  0  0  0  0  0
   29.5876   14.9686   21.6803 C   0  0  0  0  0  0  0  0  0  0  0  0
   30.8901   15.6582   22.0067 C   0  0  0  0  0  0  0  0  0  0  0  0
   30.7040   17.1683   22.1077 C   0  0  0  0  0  0  0  0  0  0  0  0
   30.3273   17.8061   20.8176 N   0  0  0  0  0  0  0  0  0  0  0  0
   26.6949   15.0291   21.8657 O   0  0  0  0  0  0  0  0  0  0  0  0
  2  1  1  6  0  0  0
  2  3  1  0  0  0  0
  2  5  1  0  0  0  0
  3  4  1  0  0  0  0
  3 10  1  0  0  0  0
  5  6  1  0  0  0  0
  6  7  1  0  0  0  0
  7  8  1  0  0  0  0
  8  9  1  0  0  0  0
M  END
>  <CHROM.1>
3.30761710,-168.33959668,176.46193584,72.54455801,-65.55067708,28.49283850
15.51089864,20.77949721,-2.67648195,0.29189949,1.26568234

>  <Name>
ligand

>  <RI>
0

>  <Rbt.Current_Directory>
/home/itssahil/PROJECTS/Mol_Feturizer/New_Systems/rnas/3DIY

>  <Rbt.Executable>
rbdock ($Id: //depot/dev/client3/rdock/2013.1/src/exe/rbdock.cxx#4 $)

>  <Rbt.Library>
libRbt.so (2013.1, Build901 2013/11/27)

>  <Rbt.Parameter_File>
/export/apps/rDock/src/rDock_2013.1_src/data/scripts/dock_solv.prm

>  <Rbt.Receptor>
prm/pocket_docking_3.prm

>  <SCORE>
-6.97541

>  <SCORE.INTER>
-8.50866

>  <SCORE.INTER.CONST>
1

>  <SCORE.INTER.POLAR>
0

>  <SCORE.INTER.ROT>
5

>  <SCORE.INTER.SOLV>
15.2764

>  <SCORE.INTER.VDW>
-17.6979

>  <SCORE.INTER.norm>
-0.850866

>  <SCORE.INTRA>
1.53325

>  <SCORE.INTRA.DIHEDRAL>
0.255019

>  <SCORE.INTRA.DIHEDRAL.0>
2.56603

>  <SCORE.INTRA.POLAR>
0

>  <SCORE.INTRA.POLAR.0>
0

>  <SCORE.INTRA.REPUL>
0

>  <SCORE.INTRA.REPUL.0>
0

>  <SCORE.INTRA.SOLV>
0.751696

>  <SCORE.INTRA.SOLV.lig_0>
-32.0799

>  <SCORE.INTRA.VDW>
1.02989

>  <SCORE.INTRA.VDW.0>
-0.618248

>  <SCORE.INTRA.norm>
0.153325

>  <SCORE.RESTR>
0

>  <SCORE.RESTR.CAVITY>
0

>  <SCORE.RESTR.norm>
0

>  <SCORE.SYSTEM>
0

>  <SCORE.SYSTEM.CONST>
0

>  <SCORE.SYSTEM.DIHEDRAL>
0

>  <SCORE.SYSTEM.SOLV>
0

>  <SCORE.SYSTEM.norm>
0

>  <SCORE.heavy>
10

>  <SCORE.norm>
-0.697541

>  <RMSD>
5.192

$$$$
ligand
 OpenBabel11021811473D
libRbt.so/2013.1/901 2013/11/27
 10  9  0  0  0  0  0  0  0  0999 V2000
   27.5605   14.5582   18.3969 N   0  0  0  0  0  0  0  0  0  0  0  0
   27.8576   14.4702   19.8587 C   0  0  2  0  0  0  0  0  0  0  0  0
   26.6885   14.9541   20.7240 C   0  0  0  0  0  0  0  0  0  0  0  0
   26.7946   15.1003   21.9510 O   0  0  0  0  0  0  0  0  0  0  0  0
   29.1478   15.2211   20.1992 C   0  0  0  0  0  0  0  0  0  0  0  0
   29.6526   14.9351   21.5952 C   0  0  0  0  0  0  0  0  0  0  0  0
   30.9530   15.6476   21.8780 C   0  0  0  0  0  0  0  0  0  0  0  0
   30.7291   17.1415   22.0860 C   0  0  0  0  0  0  0  0  0  0  0  0
   30.2805   17.8498   20.8570 N   0  0  0  0  0  0  0  0  0  0  0  0
   25.6026   15.2519   20.2170 O   0  0  0  0  0  0  0  0  0  0  0  0
  2  1  1  6  0  0  0
  2  3  1  0  0  0  0
  2  5  1  0  0  0  0
  3  4  1  0  0  0  0
  3 10  1  0  0  0  0
  5  6  1  0  0  0  0
  6  7  1  0  0  0  0
  7  8  1  0  0  0  0
  8  9  1  0  0  0  0
M  END
>  <CHROM.1>
-171.72072081,-168.15939054,177.74323803,73.72250506,-67.03784020,28.49251108
15.51878702,20.79251930,-2.69064432,0.27834441,1.22993286

>  <Name>
ligand

>  <RI>
0

>  <Rbt.Current_Directory>
/home/itssahil/PROJECTS/Mol_Feturizer/New_Systems/rnas/3DIY

>  <Rbt.Executable>
rbdock ($Id: //depot/dev/client3/rdock/2013.1/src/exe/rbdock.cxx#4 $)

>  <Rbt.Library>
libRbt.so (2013.1, Build901 2013/11/27)

>  <Rbt.Parameter_File>
/export/apps/rDock/src/rDock_2013.1_src/data/scripts/dock_solv.prm

>  <Rbt.Receptor>
prm/pocket_docking_4.prm

>  <SCORE>
-6.97316

>  <SCORE.INTER>
-8.5284

>  <SCORE.INTER.CONST>
1

>  <SCORE.INTER.POLAR>
0

>  <SCORE.INTER.ROT>
5

>  <SCORE.INTER.SOLV>
15.5825

>  <SCORE.INTER.VDW>
-17.8131

>  <SCORE.INTER.norm>
-0.85284

>  <SCORE.INTRA>
1.55524

>  <SCORE.INTRA.DIHEDRAL>
0.458395

>  <SCORE.INTRA.DIHEDRAL.0>
2.56603

>  <SCORE.INTRA.POLAR>
0

>  <SCORE.INTRA.POLAR.0>
0

>  <SCORE.INTRA.REPUL>
0

>  <SCORE.INTRA.REPUL.0>
0

>  <SCORE.INTRA.SOLV>
0.703742

>  <SCORE.INTRA.SOLV.lig_0>
-32.0799

>  <SCORE.INTRA.VDW>
0.974172

>  <SCORE.INTRA.VDW.0>
-0.618248

>  <SCORE.INTRA.norm>
0.155524

>  <SCORE.RESTR>
0

>  <SCORE.RESTR.CAVITY>
0

>  <SCORE.RESTR.norm>
0

>  <SCORE.SYSTEM>
0

>  <SCORE.SYSTEM.CONST>
0

>  <SCORE.SYSTEM.DIHEDRAL>
0

>  <SCORE.SYSTEM.SOLV>
0

>  <SCORE.SYSTEM.norm>
0

>  <SCORE.heavy>
10

>  <SCORE.norm>
-0.697316

>  <RMSD>
5.192

$$$$
ligand
 OpenBabel11021811473D
libRbt.so/2013.1/901 2013/11/27
 10  9  0  0  0  0  0  0  0  0999 V2000
   28.6117   15.2100   18.8637 N   0  0  0  0  0  0  0  0  0  0  0  0
   28.3365   14.9122   20.3020 C   0  0  2  0  0  0  0  0  0  0  0  0
   26.8692   15.1476   20.6783 C   0  0  0  0  0  0  0  0  0  0  0  0
   26.0219   15.4900   19.8399 O   0  0  0  0  0  0  0  0  0  0  0  0
   29.2770   15.7058   21.2130 C   0  0  0  0  0  0  0  0  0  0  0  0
   30.7263   15.2999   21.0713 C   0  0  0  0  0  0  0  0  0  0  0  0
   31.6207   16.0795   22.0044 C   0  0  0  0  0  0  0  0  0  0  0  0
   31.8668   17.4906   21.4813 C   0  0  0  0  0  0  0  0  0  0  0  0
   30.6727   18.3731   21.5741 N   0  0  0  0  0  0  0  0  0  0  0  0
   26.4720   14.9665   21.8334 O   0  0  0  0  0  0  0  0  0  0  0  0
  2  1  1  6  0  0  0
  2  3  1  0  0  0  0
  2  5  1  0  0  0  0
  3  4  1  0  0  0  0
  3 10  1  0  0  0  0
  5  6  1  0  0  0  0
  6  7  1  0  0  0  0
  7  8  1  0  0  0  0
  8  9  1  0  0  0  0
M  END
>  <CHROM.1>
2.96570449,-65.68294482,-178.72804484,-76.92213611,71.28001331,29.00520584
15.86649270,20.89208162,-2.73281865,0.16494763,0.91159088

>  <Name>
ligand

>  <RI>
0

>  <Rbt.Current_Directory>
/home/itssahil/PROJECTS/Mol_Feturizer/New_Systems/rnas/3DIY

>  <Rbt.Executable>
rbdock ($Id: //depot/dev/client3/rdock/2013.1/src/exe/rbdock.cxx#4 $)

>  <Rbt.Library>
libRbt.so (2013.1, Build901 2013/11/27)

>  <Rbt.Parameter_File>
/export/apps/rDock/src/rDock_2013.1_src/data/scripts/dock_solv.prm

>  <Rbt.Receptor>
prm/pocket_docking_5.prm

>  <SCORE>
-6.57637

>  <SCORE.INTER>
-8.01026

>  <SCORE.INTER.CONST>
1

>  <SCORE.INTER.POLAR>
0

>  <SCORE.INTER.ROT>
5

>  <SCORE.INTER.SOLV>
13.4474

>  <SCORE.INTER.VDW>
-16.756

>  <SCORE.INTER.norm>
-0.801026

>  <SCORE.INTRA>
1.43389

>  <SCORE.INTRA.DIHEDRAL>
0.709912

>  <SCORE.INTRA.DIHEDRAL.0>
2.56603

>  <SCORE.INTRA.POLAR>
0

>  <SCORE.INTRA.POLAR.0>
0

>  <SCORE.INTRA.REPUL>
0

>  <SCORE.INTRA.REPUL.0>
0

>  <SCORE.INTRA.SOLV>
1.35853

>  <SCORE.INTRA.SOLV.lig_0>
-32.0799

>  <SCORE.INTRA.VDW>
0.399671

>  <SCORE.INTRA.VDW.0>
-0.618248

>  <SCORE.INTRA.norm>
0.143389

>  <SCORE.RESTR>
0

>  <SCORE.RESTR.CAVITY>
0

>  <SCORE.RESTR.norm>
0

>  <SCORE.SYSTEM>
0

>  <SCORE.SYSTEM.CONST>
0

>  <SCORE.SYSTEM.DIHEDRAL>
0

>  <SCORE.SYSTEM.SOLV>
0

>  <SCORE.SYSTEM.norm>
0

>  <SCORE.heavy>
10

>  <SCORE.norm>
-0.657637

>  <RMSD>
5.193

$$$$
ligand
 OpenBabel11021811473D
libRbt.so/2013.1/901 2013/11/27
 10  9  0  0  0  0  0  0  0  0999 V2000
   27.5464   14.8699   18.2854 N   0  0  0  0  0  0  0  0  0  0  0  0
   28.0786   15.1012   19.6624 C   0  0  2  0  0  0  0  0  0  0  0  0
   26.9769   15.0750   20.7281 C   0  0  0  0  0  0  0  0  0  0  0  0
   25.7732   15.0998   20.4305 O   0  0  0  0  0  0  0  0  0  0  0  0
   28.8806   16.4040   19.7255 C   0  0  0  0  0  0  0  0  0  0  0  0
   29.6678   16.5573   21.0070 C   0  0  0  0  0  0  0  0  0  0  0  0
   30.7613   15.5231   21.1204 C   0  0  0  0  0  0  0  0  0  0  0  0
   31.9384   15.8637   20.2128 C   0  0  0  0  0  0  0  0  0  0  0  0
   32.6924   17.0700   20.6483 N   0  0  0  0  0  0  0  0  0  0  0  0
   27.2549   14.9905   21.9282 O   0  0  0  0  0  0  0  0  0  0  0  0
  2  1  1  6  0  0  0
  2  3  1  0  0  0  0
  2  5  1  0  0  0  0
  3  4  1  0  0  0  0
  3 10  1  0  0  0  0
  5  6  1  0  0  0  0
  6  7  1  0  0  0  0
  7  8  1  0  0  0  0
  8  9  1  0  0  0  0
M  END
>  <CHROM.1>
-12.02493673,-168.62878899,66.02207748,75.67428868,68.72906506,28.92298041
15.65054693,20.39766483,-3.07231569,0.25805305,1.51302386

>  <Name>
ligand

>  <RI>
0

>  <Rbt.Current_Directory>
/home/itssahil/PROJECTS/Mol_Feturizer/New_Systems/rnas/3DIY

>  <Rbt.Executable>
rbdock ($Id: //depot/dev/client3/rdock/2013.1/src/exe/rbdock.cxx#4 $)

>  <Rbt.Library>
libRbt.so (2013.1, Build901 2013/11/27)

>  <Rbt.Parameter_File>
/export/apps/rDock/src/rDock_2013.1_src/data/scripts/dock_solv.prm

>  <Rbt.Receptor>
prm/pocket_docking_8.prm

>  <SCORE>
-8.4381

>  <SCORE.INTER>
-9.44955

>  <SCORE.INTER.CONST>
1

>  <SCORE.INTER.POLAR>
0

>  <SCORE.INTER.ROT>
5

>  <SCORE.INTER.SOLV>
13.3194

>  <SCORE.INTER.VDW>
-17.6728

>  <SCORE.INTER.norm>
-0.944955

>  <SCORE.INTRA>
1.01145

>  <SCORE.INTRA.DIHEDRAL>
0.889493

>  <SCORE.INTRA.DIHEDRAL.0>
2.56603

>  <SCORE.INTRA.POLAR>
0

>  <SCORE.INTRA.POLAR.0>
0

>  <SCORE.INTRA.REPUL>
0

>  <SCORE.INTRA.REPUL.0>
0

>  <SCORE.INTRA.SOLV>
-0.0603088

>  <SCORE.INTRA.SOLV.lig_0>
-32.0799

>  <SCORE.INTRA.VDW>
0.596861

>  <SCORE.INTRA.VDW.0>
-0.618248

>  <SCORE.INTRA.norm>
0.101145

>  <SCORE.RESTR>
0

>  <SCORE.RESTR.CAVITY>
0

>  <SCORE.RESTR.norm>
0

>  <SCORE.SYSTEM>
0

>  <SCORE.SYSTEM.CONST>
0

>  <SCORE.SYSTEM.DIHEDRAL>
0

>  <SCORE.SYSTEM.SOLV>
0

>  <SCORE.SYSTEM.norm>
0

>  <SCORE.heavy>
10

>  <SCORE.norm>
-0.84381

>  <RMSD>
5.196

$$$$
ligand
 OpenBabel11021811473D
libRbt.so/2013.1/901 2013/11/27
 10  9  0  0  0  0  0  0  0  0999 V2000
   26.0763   14.7284   21.1497 N   0  0  0  0  0  0  0  0  0  0  0  0
   27.3767   15.4044   20.8581 C   0  0  2  0  0  0  0  0  0  0  0  0
   27.5244   15.7763   19.3783 C   0  0  0  0  0  0  0  0  0  0  0  0
   27.1601   15.0155   18.4692 O   0  0  0  0  0  0  0  0  0  0  0  0
   28.5544   14.5505   21.3357 C   0  0  0  0  0  0  0  0  0  0  0  0
   29.8988   15.1911   21.0756 C   0  0  0  0  0  0  0  0  0  0  0  0
   30.1013   16.4296   21.9143 C   0  0  0  0  0  0  0  0  0  0  0  0
   31.2633   17.2664   21.3900 C   0  0  0  0  0  0  0  0  0  0  0  0
   32.5623   16.5413   21.3892 N   0  0  0  0  0  0  0  0  0  0  0  0
   27.9821   16.8724   19.0407 O   0  0  0  0  0  0  0  0  0  0  0  0
  2  1  1  6  0  0  0
  2  3  1  0  0  0  0
  2  5  1  0  0  0  0
  3  4  1  0  0  0  0
  3 10  1  0  0  0  0
  5  6  1  0  0  0  0
  6  7  1  0  0  0  0
  7  8  1  0  0  0  0
  8  9  1  0  0  0  0
M  END
>  <CHROM.1>
-40.84092865,-179.56051749,67.43755371,-164.71983215,-60.05798591,28.84354541
15.78497485,20.56392018,2.96315618,-0.41416282,-1.08925496

>  <Name>
ligand

>  <RI>
0

>  <Rbt.Current_Directory>
/home/itssahil/PROJECTS/Mol_Feturizer/New_Systems/rnas/3DIY

>  <Rbt.Executable>
rbdock ($Id: //depot/dev/client3/rdock/2013.1/src/exe/rbdock.cxx#4 $)

>  <Rbt.Library>
libRbt.so (2013.1, Build901 2013/11/27)

>  <Rbt.Parameter_File>
/export/apps/rDock/src/rDock_2013.1_src/data/scripts/dock_solv.prm

>  <Rbt.Receptor>
prm/pocket_docking_4.prm

>  <SCORE>
-7.18402

>  <SCORE.INTER>
-7.16893

>  <SCORE.INTER.CONST>
1

>  <SCORE.INTER.POLAR>
0

>  <SCORE.INTER.ROT>
5

>  <SCORE.INTER.SOLV>
18.8605

>  <SCORE.INTER.VDW>
-17.9994

>  <SCORE.INTER.norm>
-0.716893

>  <SCORE.INTRA>
-0.01509

>  <SCORE.INTRA.DIHEDRAL>
0.189475

>  <SCORE.INTRA.DIHEDRAL.0>
2.56603

>  <SCORE.INTRA.POLAR>
0

>  <SCORE.INTRA.POLAR.0>
0

>  <SCORE.INTRA.REPUL>
0

>  <SCORE.INTRA.REPUL.0>
0

>  <SCORE.INTRA.SOLV>
-0.47119

>  <SCORE.INTRA.SOLV.lig_0>
-32.0799

>  <SCORE.INTRA.VDW>
0.125768

>  <SCORE.INTRA.VDW.0>
-0.618248

>  <SCORE.INTRA.norm>
-0.001509

>  <SCORE.RESTR>
0

>  <SCORE.RESTR.CAVITY>
0

>  <SCORE.RESTR.norm>
0

>  <SCORE.SYSTEM>
0

>  <SCORE.SYSTEM.CONST>
0

>  <SCORE.SYSTEM.DIHEDRAL>
0

>  <SCORE.SYSTEM.SOLV>
0

>  <SCORE.SYSTEM.norm>
0

>  <SCORE.heavy>
10

>  <SCORE.norm>
-0.718402

>  <RMSD>
5.216

$$$$
ligand
 OpenBabel11021811473D
libRbt.so/2013.1/901 2013/11/27
 10  9  0  0  0  0  0  0  0  0999 V2000
   27.7185   15.2209   18.5189 N   0  0  0  0  0  0  0  0  0  0  0  0
   28.0253   14.9873   19.9627 C   0  0  2  0  0  0  0  0  0  0  0  0
   26.7711   15.0343   20.8429 C   0  0  0  0  0  0  0  0  0  0  0  0
   26.8373   15.0846   22.0802 O   0  0  0  0  0  0  0  0  0  0  0  0
   29.0892   15.9697   20.4600 C   0  0  0  0  0  0  0  0  0  0  0  0
   29.6573   15.5987   21.8110 C   0  0  0  0  0  0  0  0  0  0  0  0
   30.6337   16.6349   22.3123 C   0  0  0  0  0  0  0  0  0  0  0  0
   31.9769   16.5168   21.6002 C   0  0  0  0  0  0  0  0  0  0  0  0
   31.9110   16.8520   20.1522 N   0  0  0  0  0  0  0  0  0  0  0  0
   25.6429   15.0606   20.3415 O   0  0  0  0  0  0  0  0  0  0  0  0
  2  1  1  6  0  0  0
  2  3  1  0  0  0  0
  2  5  1  0  0  0  0
  3  4  1  0  0  0  0
  3 10  1  0  0  0  0
  5  6  1  0  0  0  0
  6  7  1  0  0  0  0
  7  8  1  0  0  0  0
  8  9  1  0  0  0  0
M  END
>  <CHROM.1>
-167.87492821,-167.51813187,-176.18464752,-76.53578307,66.49473197,28.78881184
15.69297061,20.82540232,-2.96819423,0.29662867,1.53710881

>  <Name>
ligand

>  <RI>
0

>  <Rbt.Current_Directory>
/home/itssahil/PROJECTS/Mol_Feturizer/New_Systems/rnas/3DIY

>  <Rbt.Executable>
rbdock ($Id: //depot/dev/client3/rdock/2013.1/src/exe/rbdock.cxx#4 $)

>  <Rbt.Library>
libRbt.so (2013.1, Build901 2013/11/27)

>  <Rbt.Parameter_File>
/export/apps/rDock/src/rDock_2013.1_src/data/scripts/dock_solv.prm

>  <Rbt.Receptor>
prm/pocket_docking_3.prm

>  <SCORE>
-8.00895

>  <SCORE.INTER>
-9.76248

>  <SCORE.INTER.CONST>
1

>  <SCORE.INTER.POLAR>
0

>  <SCORE.INTER.ROT>
5

>  <SCORE.INTER.SOLV>
12.0703

>  <SCORE.INTER.VDW>
-17.4651

>  <SCORE.INTER.norm>
-0.976248

>  <SCORE.INTRA>
1.75353

>  <SCORE.INTRA.DIHEDRAL>
0.859965

>  <SCORE.INTRA.DIHEDRAL.0>
2.56603

>  <SCORE.INTRA.POLAR>
0

>  <SCORE.INTRA.POLAR.0>
0

>  <SCORE.INTRA.REPUL>
0

>  <SCORE.INTRA.REPUL.0>
0

>  <SCORE.INTRA.SOLV>
0.652137

>  <SCORE.INTRA.SOLV.lig_0>
-32.0799

>  <SCORE.INTRA.VDW>
0.997479

>  <SCORE.INTRA.VDW.0>
-0.618248

>  <SCORE.INTRA.norm>
0.175353

>  <SCORE.RESTR>
0

>  <SCORE.RESTR.CAVITY>
0

>  <SCORE.RESTR.norm>
0

>  <SCORE.SYSTEM>
0

>  <SCORE.SYSTEM.CONST>
0

>  <SCORE.SYSTEM.DIHEDRAL>
0

>  <SCORE.SYSTEM.SOLV>
0

>  <SCORE.SYSTEM.norm>
0

>  <SCORE.heavy>
10

>  <SCORE.norm>
-0.800895

>  <RMSD>
5.221

$$$$
ligand
 OpenBabel11021811473D
libRbt.so/2013.1/901 2013/11/27
 10  9  0  0  0  0  0  0  0  0999 V2000
   27.9945   14.6246   18.6108 N   0  0  0  0  0  0  0  0  0  0  0  0
   28.2133   14.7437   20.0843 C   0  0  2  0  0  0  0  0  0  0  0  0
   26.9211   15.0645   20.8440 C   0  0  0  0  0  0  0  0  0  0  0  0
   25.8302   15.1822   20.2661 O   0  0  0  0  0  0  0  0  0  0  0  0
   29.3072   15.7698   20.3921 C   0  0  0  0  0  0  0  0  0  0  0  0
   30.6873   15.3110   19.9796 C   0  0  0  0  0  0  0  0  0  0  0  0
   31.7205   16.3934   20.1777 C   0  0  0  0  0  0  0  0  0  0  0  0
   32.0099   16.6148   21.6584 C   0  0  0  0  0  0  0  0  0  0  0  0
   30.8860   17.2568   22.3919 N   0  0  0  0  0  0  0  0  0  0  0  0
   26.9185   15.1812   22.0734 O   0  0  0  0  0  0  0  0  0  0  0  0
  2  1  1  6  0  0  0
  2  3  1  0  0  0  0
  2  5  1  0  0  0  0
  3  4  1  0  0  0  0
  3 10  1  0  0  0  0
  5  6  1  0  0  0  0
  6  7  1  0  0  0  0
  7  8  1  0  0  0  0
  8  9  1  0  0  0  0
M  END
>  <CHROM.1>
1.12920000,-69.55959306,174.67151187,71.82088071,-70.40504824,29.01032928
15.61607050,20.66369516,-2.88835560,0.23440570,1.17075799

>  <Name>
ligand

>  <RI>
0

>  <Rbt.Current_Directory>
/home/itssahil/PROJECTS/Mol_Feturizer/New_Systems/rnas/3DIY

>  <Rbt.Executable>
rbdock ($Id: //depot/dev/client3/rdock/2013.1/src/exe/rbdock.cxx#4 $)

>  <Rbt.Library>
libRbt.so (2013.1, Build901 2013/11/27)

>  <Rbt.Parameter_File>
/export/apps/rDock/src/rDock_2013.1_src/data/scripts/dock_solv.prm

>  <Rbt.Receptor>
prm/pocket_docking_4.prm

>  <SCORE>
-7.43784

>  <SCORE.INTER>
-8.97918

>  <SCORE.INTER.CONST>
1

>  <SCORE.INTER.POLAR>
0

>  <SCORE.INTER.ROT>
5

>  <SCORE.INTER.SOLV>
11.664

>  <SCORE.INTER.VDW>
-16.8075

>  <SCORE.INTER.norm>
-0.897918

>  <SCORE.INTRA>
1.54135

>  <SCORE.INTRA.DIHEDRAL>
0.43747

>  <SCORE.INTRA.DIHEDRAL.0>
2.56603

>  <SCORE.INTRA.POLAR>
0

>  <SCORE.INTRA.POLAR.0>
0

>  <SCORE.INTRA.REPUL>
0

>  <SCORE.INTRA.REPUL.0>
0

>  <SCORE.INTRA.SOLV>
1.43941

>  <SCORE.INTRA.SOLV.lig_0>
-32.0799

>  <SCORE.INTRA.VDW>
0.602908

>  <SCORE.INTRA.VDW.0>
-0.618248

>  <SCORE.INTRA.norm>
0.154135

>  <SCORE.RESTR>
0

>  <SCORE.RESTR.CAVITY>
0

>  <SCORE.RESTR.norm>
0

>  <SCORE.SYSTEM>
0

>  <SCORE.SYSTEM.CONST>
0

>  <SCORE.SYSTEM.DIHEDRAL>
0

>  <SCORE.SYSTEM.SOLV>
0

>  <SCORE.SYSTEM.norm>
0

>  <SCORE.heavy>
10

>  <SCORE.norm>
-0.743784

>  <RMSD>
5.221

$$$$
ligand
 OpenBabel11021811473D
libRbt.so/2013.1/901 2013/11/27
 10  9  0  0  0  0  0  0  0  0999 V2000
   27.7325   15.2176   18.5072 N   0  0  0  0  0  0  0  0  0  0  0  0
   28.0204   14.9747   19.9533 C   0  0  2  0  0  0  0  0  0  0  0  0
   26.7600   15.0533   20.8224 C   0  0  0  0  0  0  0  0  0  0  0  0
   25.6227   15.0937   20.3297 O   0  0  0  0  0  0  0  0  0  0  0  0
   29.1049   15.9287   20.4613 C   0  0  0  0  0  0  0  0  0  0  0  0
   29.6997   15.5038   21.7846 C   0  0  0  0  0  0  0  0  0  0  0  0
   30.6965   16.5128   22.3010 C   0  0  0  0  0  0  0  0  0  0  0  0
   32.0013   16.4511   21.5141 C   0  0  0  0  0  0  0  0  0  0  0  0
   31.8732   16.9425   20.1157 N   0  0  0  0  0  0  0  0  0  0  0  0
   26.8357   15.0419   22.0549 O   0  0  0  0  0  0  0  0  0  0  0  0
  2  1  1  6  0  0  0
  2  3  1  0  0  0  0
  2  5  1  0  0  0  0
  3  4  1  0  0  0  0
  3 10  1  0  0  0  0
  5  6  1  0  0  0  0
  6  7  1  0  0  0  0
  7  8  1  0  0  0  0
  8  9  1  0  0  0  0
M  END
>  <CHROM.1>
11.00833696,-164.64978644,-176.14119562,-74.04853354,69.35945281,28.79702371
15.66882435,20.80163692,-2.98755365,0.29427725,1.57538333

>  <Name>
ligand

>  <RI>
0

>  <Rbt.Current_Directory>
/home/itssahil/PROJECTS/Mol_Feturizer/New_Systems/rnas/3DIY

>  <Rbt.Executable>
rbdock ($Id: //depot/dev/client3/rdock/2013.1/src/exe/rbdock.cxx#4 $)

>  <Rbt.Library>
libRbt.so (2013.1, Build901 2013/11/27)

>  <Rbt.Parameter_File>
/export/apps/rDock/src/rDock_2013.1_src/data/scripts/dock_solv.prm

>  <Rbt.Receptor>
prm/pocket_docking_3.prm

>  <SCORE>
-7.98842

>  <SCORE.INTER>
-9.70245

>  <SCORE.INTER.CONST>
1

>  <SCORE.INTER.POLAR>
0

>  <SCORE.INTER.ROT>
5

>  <SCORE.INTER.SOLV>
12.2234

>  <SCORE.INTER.VDW>
-17.4761

>  <SCORE.INTER.norm>
-0.970245

>  <SCORE.INTRA>
1.71403

>  <SCORE.INTRA.DIHEDRAL>
0.947762

>  <SCORE.INTRA.DIHEDRAL.0>
2.56603

>  <SCORE.INTRA.POLAR>
0

>  <SCORE.INTRA.POLAR.0>
0

>  <SCORE.INTRA.REPUL>
0

>  <SCORE.INTRA.REPUL.0>
0

>  <SCORE.INTRA.SOLV>
0.618543

>  <SCORE.INTRA.SOLV.lig_0>
-32.0799

>  <SCORE.INTRA.VDW>
0.930881

>  <SCORE.INTRA.VDW.0>
-0.618248

>  <SCORE.INTRA.norm>
0.171403

>  <SCORE.RESTR>
0

>  <SCORE.RESTR.CAVITY>
0

>  <SCORE.RESTR.norm>
0

>  <SCORE.SYSTEM>
0

>  <SCORE.SYSTEM.CONST>
0

>  <SCORE.SYSTEM.DIHEDRAL>
0

>  <SCORE.SYSTEM.SOLV>
0

>  <SCORE.SYSTEM.norm>
0

>  <SCORE.heavy>
10

>  <SCORE.norm>
-0.798842

>  <RMSD>
5.225

$$$$
ligand
 OpenBabel11021811473D
libRbt.so/2013.1/901 2013/11/27
 10  9  0  0  0  0  0  0  0  0999 V2000
   26.0633   14.7166   21.1914 N   0  0  0  0  0  0  0  0  0  0  0  0
   27.3518   15.3953   20.8563 C   0  0  2  0  0  0  0  0  0  0  0  0
   27.4651   15.7332   19.3653 C   0  0  0  0  0  0  0  0  0  0  0  0
   27.9623   16.7976   18.9680 O   0  0  0  0  0  0  0  0  0  0  0  0
   28.5462   14.5619   21.3286 C   0  0  0  0  0  0  0  0  0  0  0  0
   29.8801   15.1889   20.9924 C   0  0  0  0  0  0  0  0  0  0  0  0
   30.1027   16.4744   21.7516 C   0  0  0  0  0  0  0  0  0  0  0  0
   31.2696   17.2640   21.1684 C   0  0  0  0  0  0  0  0  0  0  0  0
   32.5571   16.5188   21.1874 N   0  0  0  0  0  0  0  0  0  0  0  0
   27.0942   14.9323   18.5018 O   0  0  0  0  0  0  0  0  0  0  0  0
  2  1  1  6  0  0  0
  2  3  1  0  0  0  0
  2  5  1  0  0  0  0
  3  4  1  0  0  0  0
  3 10  1  0  0  0  0
  5  6  1  0  0  0  0
  6  7  1  0  0  0  0
  7  8  1  0  0  0  0
  8  9  1  0  0  0  0
M  END
>  <CHROM.1>
140.52566485,178.91656675,66.54088106,-166.21888378,-59.32469115,28.82275579
15.76427223,20.49504138,3.00154953,-0.39771977,-1.10908606

>  <Name>
ligand

>  <RI>
0

>  <Rbt.Current_Directory>
/home/itssahil/PROJECTS/Mol_Feturizer/New_Systems/rnas/3DIY

>  <Rbt.Executable>
rbdock ($Id: //depot/dev/client3/rdock/2013.1/src/exe/rbdock.cxx#4 $)

>  <Rbt.Library>
libRbt.so (2013.1, Build901 2013/11/27)

>  <Rbt.Parameter_File>
/export/apps/rDock/src/rDock_2013.1_src/data/scripts/dock_solv.prm

>  <Rbt.Receptor>
prm/pocket_docking_3.prm

>  <SCORE>
-7.30546

>  <SCORE.INTER>
-7.20894

>  <SCORE.INTER.CONST>
1

>  <SCORE.INTER.POLAR>
0

>  <SCORE.INTER.ROT>
5

>  <SCORE.INTER.SOLV>
18.5855

>  <SCORE.INTER.VDW>
-17.9345

>  <SCORE.INTER.norm>
-0.720894

>  <SCORE.INTRA>
-0.0965208

>  <SCORE.INTRA.DIHEDRAL>
-0.137264

>  <SCORE.INTRA.DIHEDRAL.0>
2.56603

>  <SCORE.INTRA.POLAR>
0

>  <SCORE.INTRA.POLAR.0>
0

>  <SCORE.INTRA.REPUL>
0

>  <SCORE.INTRA.REPUL.0>
0

>  <SCORE.INTRA.SOLV>
-0.468647

>  <SCORE.INTRA.SOLV.lig_0>
-32.0799

>  <SCORE.INTRA.VDW>
0.206435

>  <SCORE.INTRA.VDW.0>
-0.618248

>  <SCORE.INTRA.norm>
-0.00965208

>  <SCORE.RESTR>
0

>  <SCORE.RESTR.CAVITY>
0

>  <SCORE.RESTR.norm>
0

>  <SCORE.SYSTEM>
0

>  <SCORE.SYSTEM.CONST>
0

>  <SCORE.SYSTEM.DIHEDRAL>
0

>  <SCORE.SYSTEM.SOLV>
0

>  <SCORE.SYSTEM.norm>
0

>  <SCORE.heavy>
10

>  <SCORE.norm>
-0.730546

>  <RMSD>
5.230

$$$$
ligand
 OpenBabel11021811473D
libRbt.so/2013.1/901 2013/11/27
 10  9  0  0  0  0  0  0  0  0999 V2000
   29.0648   16.5102   19.9992 N   0  0  0  0  0  0  0  0  0  0  0  0
   27.8616   15.7825   19.4934 C   0  0  2  0  0  0  0  0  0  0  0  0
   26.9436   15.3103   20.6266 C   0  0  0  0  0  0  0  0  0  0  0  0
   25.7339   15.1021   20.4498 O   0  0  0  0  0  0  0  0  0  0  0  0
   28.2697   14.6172   18.5879 C   0  0  0  0  0  0  0  0  0  0  0  0
   27.0908   13.9150   17.9533 C   0  0  0  0  0  0  0  0  0  0  0  0
   27.4888   12.5947   17.3393 C   0  0  0  0  0  0  0  0  0  0  0  0
   26.2627   11.7749   16.9525 C   0  0  0  0  0  0  0  0  0  0  0  0
   26.5693   10.3458   16.6749 N   0  0  0  0  0  0  0  0  0  0  0  0
   27.3910   15.0846   21.7553 O   0  0  0  0  0  0  0  0  0  0  0  0
  2  1  1  1  0  0  0
  2  3  1  0  0  0  0
  2  5  1  0  0  0  0
  3  4  1  0  0  0  0
  3 10  1  0  0  0  0
  5  6  1  0  0  0  0
  6  7  1  0  0  0  0
  7  8  1  0  0  0  0
  8  9  1  0  0  0  0
M  END
>  <CHROM.1>
155.48166092,-175.17015679,-166.60668093,168.72532882,-165.08960928,27.24814310
14.10235997,19.01553097,-1.36959989,-0.62746029,-2.30533745

>  <Name>
ligand

>  <RI>
0

>  <Rbt.Current_Directory>
/home/itssahil/PROJECTS/Mol_Feturizer/New_Systems/rnas/3DIY

>  <Rbt.Executable>
rbdock ($Id: //depot/dev/client3/rdock/2013.1/src/exe/rbdock.cxx#4 $)

>  <Rbt.Library>
libRbt.so (2013.1, Build901 2013/11/27)

>  <Rbt.Parameter_File>
/export/apps/rDock/src/rDock_2013.1_src/data/scripts/dock_solv.prm

>  <Rbt.Receptor>
prm/pocket_docking_6.prm

>  <SCORE>
-11.4179

>  <SCORE.INTER>
-11.0088

>  <SCORE.INTER.CONST>
1

>  <SCORE.INTER.POLAR>
0

>  <SCORE.INTER.ROT>
5

>  <SCORE.INTER.SOLV>
15.5159

>  <SCORE.INTER.VDW>
-19.4445

>  <SCORE.INTER.norm>
-1.10088

>  <SCORE.INTRA>
-0.409133

>  <SCORE.INTRA.DIHEDRAL>
1.01743

>  <SCORE.INTRA.DIHEDRAL.0>
2.56603

>  <SCORE.INTRA.POLAR>
0

>  <SCORE.INTRA.POLAR.0>
0

>  <SCORE.INTRA.REPUL>
0

>  <SCORE.INTRA.REPUL.0>
0

>  <SCORE.INTRA.SOLV>
-1.58095

>  <SCORE.INTRA.SOLV.lig_0>
-32.0799

>  <SCORE.INTRA.VDW>
-0.127372

>  <SCORE.INTRA.VDW.0>
-0.618248

>  <SCORE.INTRA.norm>
-0.0409133

>  <SCORE.RESTR>
0

>  <SCORE.RESTR.CAVITY>
0

>  <SCORE.RESTR.norm>
0

>  <SCORE.SYSTEM>
0

>  <SCORE.SYSTEM.CONST>
0

>  <SCORE.SYSTEM.DIHEDRAL>
0

>  <SCORE.SYSTEM.SOLV>
0

>  <SCORE.SYSTEM.norm>
0

>  <SCORE.heavy>
10

>  <SCORE.norm>
-1.14179

>  <RMSD>
5.230

$$$$
ligand
 OpenBabel11021811473D
libRbt.so/2013.1/901 2013/11/27
 10  9  0  0  0  0  0  0  0  0999 V2000
   28.8495   16.4491   19.0946 N   0  0  0  0  0  0  0  0  0  0  0  0
   28.0868   15.1660   19.0228 C   0  0  2  0  0  0  0  0  0  0  0  0
   27.6807   14.8058   17.5892 C   0  0  0  0  0  0  0  0  0  0  0  0
   26.9428   13.8414   17.3372 O   0  0  0  0  0  0  0  0  0  0  0  0
   26.8702   15.2021   19.9517 C   0  0  0  0  0  0  0  0  0  0  0  0
   27.1753   14.7207   21.3519 C   0  0  0  0  0  0  0  0  0  0  0  0
   28.2609   15.5427   22.0032 C   0  0  0  0  0  0  0  0  0  0  0  0
   29.6446   15.0100   21.6467 C   0  0  0  0  0  0  0  0  0  0  0  0
   30.7556   15.8336   22.1950 N   0  0  0  0  0  0  0  0  0  0  0  0
   28.0495   15.4932   16.6320 O   0  0  0  0  0  0  0  0  0  0  0  0
  2  1  1  6  0  0  0
  2  3  1  0  0  0  0
  2  5  1  0  0  0  0
  3  4  1  0  0  0  0
  3 10  1  0  0  0  0
  5  6  1  0  0  0  0
  6  7  1  0  0  0  0
  7  8  1  0  0  0  0
  8  9  1  0  0  0  0
M  END
>  <CHROM.1>
-173.55975410,-89.03541037,58.71020993,-86.26581787,176.46923924,28.21947475
15.19711326,19.64133749,-1.99095506,0.43800202,1.61733415

>  <Name>
ligand

>  <RI>
0

>  <Rbt.Current_Directory>
/home/itssahil/PROJECTS/Mol_Feturizer/New_Systems/rnas/3DIY

>  <Rbt.Executable>
rbdock ($Id: //depot/dev/client3/rdock/2013.1/src/exe/rbdock.cxx#4 $)

>  <Rbt.Library>
libRbt.so (2013.1, Build901 2013/11/27)

>  <Rbt.Parameter_File>
/export/apps/rDock/src/rDock_2013.1_src/data/scripts/dock_solv.prm

>  <Rbt.Receptor>
prm/pocket_docking_7.prm

>  <SCORE>
-7.13634

>  <SCORE.INTER>
-11.658

>  <SCORE.INTER.CONST>
1

>  <SCORE.INTER.POLAR>
0

>  <SCORE.INTER.ROT>
5

>  <SCORE.INTER.SOLV>
13.3335

>  <SCORE.INTER.VDW>
-19.1498

>  <SCORE.INTER.norm>
-1.1658

>  <SCORE.INTRA>
4.52162

>  <SCORE.INTRA.DIHEDRAL>
4.26264

>  <SCORE.INTRA.DIHEDRAL.0>
2.56603

>  <SCORE.INTRA.POLAR>
0

>  <SCORE.INTRA.POLAR.0>
0

>  <SCORE.INTRA.REPUL>
0

>  <SCORE.INTRA.REPUL.0>
0

>  <SCORE.INTRA.SOLV>
2.69486

>  <SCORE.INTRA.SOLV.lig_0>
-32.0799

>  <SCORE.INTRA.VDW>
1.04286

>  <SCORE.INTRA.VDW.0>
-0.618248

>  <SCORE.INTRA.norm>
0.452162

>  <SCORE.RESTR>
0

>  <SCORE.RESTR.CAVITY>
0

>  <SCORE.RESTR.norm>
0

>  <SCORE.SYSTEM>
0

>  <SCORE.SYSTEM.CONST>
0

>  <SCORE.SYSTEM.DIHEDRAL>
0

>  <SCORE.SYSTEM.SOLV>
0

>  <SCORE.SYSTEM.norm>
0

>  <SCORE.heavy>
10

>  <SCORE.norm>
-0.713634

>  <RMSD>
5.230

$$$$
ligand
 OpenBabel11021811473D
libRbt.so/2013.1/901 2013/11/27
 10  9  0  0  0  0  0  0  0  0999 V2000
   25.8512   15.3294   20.0718 N   0  0  0  0  0  0  0  0  0  0  0  0
   27.3444   15.2760   20.0518 C   0  0  2  0  0  0  0  0  0  0  0  0
   27.8884   14.5680   18.8057 C   0  0  0  0  0  0  0  0  0  0  0  0
   29.0586   14.7166   18.4228 O   0  0  0  0  0  0  0  0  0  0  0  0
   27.8844   14.6360   21.3336 C   0  0  0  0  0  0  0  0  0  0  0  0
   29.3820   14.7772   21.4846 C   0  0  0  0  0  0  0  0  0  0  0  0
   29.7830   16.1998   21.7912 C   0  0  0  0  0  0  0  0  0  0  0  0
   31.2987   16.3370   21.8857 C   0  0  0  0  0  0  0  0  0  0  0  0
   31.9940   16.1319   20.5865 N   0  0  0  0  0  0  0  0  0  0  0  0
   27.1820   13.7902   18.1569 O   0  0  0  0  0  0  0  0  0  0  0  0
  2  1  1  1  0  0  0
  2  3  1  0  0  0  0
  2  5  1  0  0  0  0
  3  4  1  0  0  0  0
  3 10  1  0  0  0  0
  5  6  1  0  0  0  0
  6  7  1  0  0  0  0
  7  8  1  0  0  0  0
  8  9  1  0  0  0  0
M  END
>  <CHROM.1>
160.85705942,-169.65664564,71.09383246,-177.73986911,67.52091263,28.77124369
15.15825296,20.22622979,2.55340267,-0.16832003,-1.90109497

>  <Name>
ligand

>  <RI>
0

>  <Rbt.Current_Directory>
/home/itssahil/PROJECTS/Mol_Feturizer/New_Systems/rnas/3DIY

>  <Rbt.Executable>
rbdock ($Id: //depot/dev/client3/rdock/2013.1/src/exe/rbdock.cxx#4 $)

>  <Rbt.Library>
libRbt.so (2013.1, Build901 2013/11/27)

>  <Rbt.Parameter_File>
/export/apps/rDock/src/rDock_2013.1_src/data/scripts/dock_solv.prm

>  <Rbt.Receptor>
prm/pocket_docking_6.prm

>  <SCORE>
-7.96939

>  <SCORE.INTER>
-7.70937

>  <SCORE.INTER.CONST>
1

>  <SCORE.INTER.POLAR>
0

>  <SCORE.INTER.ROT>
5

>  <SCORE.INTER.SOLV>
17.5126

>  <SCORE.INTER.VDW>
-17.9104

>  <SCORE.INTER.norm>
-0.770937

>  <SCORE.INTRA>
-0.260021

>  <SCORE.INTRA.DIHEDRAL>
0.020916

>  <SCORE.INTRA.DIHEDRAL.0>
2.56603

>  <SCORE.INTRA.POLAR>
0

>  <SCORE.INTRA.POLAR.0>
0

>  <SCORE.INTRA.REPUL>
0

>  <SCORE.INTRA.REPUL.0>
0

>  <SCORE.INTRA.SOLV>
-0.403031

>  <SCORE.INTRA.SOLV.lig_0>
-32.0799

>  <SCORE.INTRA.VDW>
-0.0689635

>  <SCORE.INTRA.VDW.0>
-0.618248

>  <SCORE.INTRA.norm>
-0.0260021

>  <SCORE.RESTR>
0

>  <SCORE.RESTR.CAVITY>
0

>  <SCORE.RESTR.norm>
0

>  <SCORE.SYSTEM>
0

>  <SCORE.SYSTEM.CONST>
0

>  <SCORE.SYSTEM.DIHEDRAL>
0

>  <SCORE.SYSTEM.SOLV>
0

>  <SCORE.SYSTEM.norm>
0

>  <SCORE.heavy>
10

>  <SCORE.norm>
-0.796939

>  <RMSD>
5.247

$$$$
ligand
 OpenBabel11021811473D
libRbt.so/2013.1/901 2013/11/27
 10  9  0  0  0  0  0  0  0  0999 V2000
   29.0501   14.7444   19.1762 N   0  0  0  0  0  0  0  0  0  0  0  0
   28.0282   14.3835   20.2051 C   0  0  2  0  0  0  0  0  0  0  0  0
   26.7858   15.2788   20.1356 C   0  0  0  0  0  0  0  0  0  0  0  0
   26.7564   16.3110   19.4489 O   0  0  0  0  0  0  0  0  0  0  0  0
   28.6406   14.3923   21.6084 C   0  0  0  0  0  0  0  0  0  0  0  0
   29.2365   15.7282   21.9899 C   0  0  0  0  0  0  0  0  0  0  0  0
   30.6188   15.9112   21.4117 C   0  0  0  0  0  0  0  0  0  0  0  0
   31.2020   17.2667   21.7959 C   0  0  0  0  0  0  0  0  0  0  0  0
   32.5905   17.4749   21.3042 N   0  0  0  0  0  0  0  0  0  0  0  0
   25.7510   14.9784   20.7387 O   0  0  0  0  0  0  0  0  0  0  0  0
  2  1  1  6  0  0  0
  2  3  1  0  0  0  0
  2  5  1  0  0  0  0
  3  4  1  0  0  0  0
  3 10  1  0  0  0  0
  5  6  1  0  0  0  0
  6  7  1  0  0  0  0
  7  8  1  0  0  0  0
  8  9  1  0  0  0  0
M  END
>  <CHROM.1>
-11.15210626,58.43466619,-81.20410662,179.56432767,177.33480325,28.82809441
15.66102903,20.77572494,3.11439569,0.42694553,2.28425306

>  <Name>
ligand

>  <RI>
0

>  <Rbt.Current_Directory>
/home/itssahil/PROJECTS/Mol_Feturizer/New_Systems/rnas/3DIY

>  <Rbt.Executable>
rbdock ($Id: //depot/dev/client3/rdock/2013.1/src/exe/rbdock.cxx#4 $)

>  <Rbt.Library>
libRbt.so (2013.1, Build901 2013/11/27)

>  <Rbt.Parameter_File>
/export/apps/rDock/src/rDock_2013.1_src/data/scripts/dock_solv.prm

>  <Rbt.Receptor>
prm/pocket_docking_4.prm

>  <SCORE>
-8.71063

>  <SCORE.INTER>
-9.52173

>  <SCORE.INTER.CONST>
1

>  <SCORE.INTER.POLAR>
0

>  <SCORE.INTER.ROT>
5

>  <SCORE.INTER.SOLV>
12.5492

>  <SCORE.INTER.VDW>
-17.4642

>  <SCORE.INTER.norm>
-0.952173

>  <SCORE.INTRA>
0.811101

>  <SCORE.INTRA.DIHEDRAL>
0.762661

>  <SCORE.INTRA.DIHEDRAL.0>
2.56603

>  <SCORE.INTRA.POLAR>
0

>  <SCORE.INTRA.POLAR.0>
0

>  <SCORE.INTRA.REPUL>
0

>  <SCORE.INTRA.REPUL.0>
0

>  <SCORE.INTRA.SOLV>
0.739076

>  <SCORE.INTRA.SOLV.lig_0>
-32.0799

>  <SCORE.INTRA.VDW>
0.060233

>  <SCORE.INTRA.VDW.0>
-0.618248

>  <SCORE.INTRA.norm>
0.0811101

>  <SCORE.RESTR>
0

>  <SCORE.RESTR.CAVITY>
0

>  <SCORE.RESTR.norm>
0

>  <SCORE.SYSTEM>
0

>  <SCORE.SYSTEM.CONST>
0

>  <SCORE.SYSTEM.DIHEDRAL>
0

>  <SCORE.SYSTEM.SOLV>
0

>  <SCORE.SYSTEM.norm>
0

>  <SCORE.heavy>
10

>  <SCORE.norm>
-0.871063

>  <RMSD>
5.249

$$$$
ligand
 OpenBabel11021811473D
libRbt.so/2013.1/901 2013/11/27
 10  9  0  0  0  0  0  0  0  0999 V2000
   28.8276   15.2489   19.1265 N   0  0  0  0  0  0  0  0  0  0  0  0
   28.1069   14.4656   20.1754 C   0  0  2  0  0  0  0  0  0  0  0  0
   26.6728   14.9609   20.3942 C   0  0  0  0  0  0  0  0  0  0  0  0
   26.0549   15.5922   19.5238 O   0  0  0  0  0  0  0  0  0  0  0  0
   28.8965   14.4552   21.4872 C   0  0  0  0  0  0  0  0  0  0  0  0
   29.0630   15.8302   22.0930 C   0  0  0  0  0  0  0  0  0  0  0  0
   30.0691   16.6598   21.3327 C   0  0  0  0  0  0  0  0  0  0  0  0
   31.4906   16.1675   21.5822 C   0  0  0  0  0  0  0  0  0  0  0  0
   32.5252   16.9539   20.8581 N   0  0  0  0  0  0  0  0  0  0  0  0
   26.0672   14.7131   21.4415 O   0  0  0  0  0  0  0  0  0  0  0  0
  2  1  1  6  0  0  0
  2  3  1  0  0  0  0
  2  5  1  0  0  0  0
  3  4  1  0  0  0  0
  3 10  1  0  0  0  0
  5  6  1  0  0  0  0
  6  7  1  0  0  0  0
  7  8  1  0  0  0  0
  8  9  1  0  0  0  0
M  END
>  <CHROM.1>
22.87922069,63.07158517,-73.81167925,-72.54654053,-179.84464023,28.73574898
15.50988906,20.80306420,-3.01618624,0.31164281,1.69559071

>  <Name>
ligand

>  <RI>
0

>  <Rbt.Current_Directory>
/home/itssahil/PROJECTS/Mol_Feturizer/New_Systems/rnas/3DIY

>  <Rbt.Executable>
rbdock ($Id: //depot/dev/client3/rdock/2013.1/src/exe/rbdock.cxx#4 $)

>  <Rbt.Library>
libRbt.so (2013.1, Build901 2013/11/27)

>  <Rbt.Parameter_File>
/export/apps/rDock/src/rDock_2013.1_src/data/scripts/dock_solv.prm

>  <Rbt.Receptor>
prm/pocket_docking_2.prm

>  <SCORE>
-7.73701

>  <SCORE.INTER>
-9.72286

>  <SCORE.INTER.CONST>
1

>  <SCORE.INTER.POLAR>
0

>  <SCORE.INTER.ROT>
5

>  <SCORE.INTER.SOLV>
10.984

>  <SCORE.INTER.VDW>
-17.0766

>  <SCORE.INTER.norm>
-0.972286

>  <SCORE.INTRA>
1.98584

>  <SCORE.INTRA.DIHEDRAL>
0.339045

>  <SCORE.INTRA.DIHEDRAL.0>
2.56603

>  <SCORE.INTRA.POLAR>
0

>  <SCORE.INTRA.POLAR.0>
0

>  <SCORE.INTRA.REPUL>
0

>  <SCORE.INTRA.REPUL.0>
0

>  <SCORE.INTRA.SOLV>
1.3036

>  <SCORE.INTRA.SOLV.lig_0>
-32.0799

>  <SCORE.INTRA.VDW>
1.16452

>  <SCORE.INTRA.VDW.0>
-0.618248

>  <SCORE.INTRA.norm>
0.198584

>  <SCORE.RESTR>
0

>  <SCORE.RESTR.CAVITY>
0

>  <SCORE.RESTR.norm>
0

>  <SCORE.SYSTEM>
0

>  <SCORE.SYSTEM.CONST>
0

>  <SCORE.SYSTEM.DIHEDRAL>
0

>  <SCORE.SYSTEM.SOLV>
0

>  <SCORE.SYSTEM.norm>
0

>  <SCORE.heavy>
10

>  <SCORE.norm>
-0.773701

>  <RMSD>
5.254

$$$$
ligand
 OpenBabel11021811473D
libRbt.so/2013.1/901 2013/11/27
 10  9  0  0  0  0  0  0  0  0999 V2000
   28.1401   15.4727   18.8254 N   0  0  0  0  0  0  0  0  0  0  0  0
   28.1520   14.6543   20.0756 C   0  0  2  0  0  0  0  0  0  0  0  0
   26.9839   14.9934   21.0086 C   0  0  0  0  0  0  0  0  0  0  0  0
   27.1576   15.2821   22.2021 O   0  0  0  0  0  0  0  0  0  0  0  0
   29.4953   14.7831   20.7991 C   0  0  0  0  0  0  0  0  0  0  0  0
   29.9255   16.2176   21.0053 C   0  0  0  0  0  0  0  0  0  0  0  0
   31.2994   16.3075   21.6239 C   0  0  0  0  0  0  0  0  0  0  0  0
   31.7757   17.7541   21.7008 C   0  0  0  0  0  0  0  0  0  0  0  0
   30.9753   18.5922   22.6336 N   0  0  0  0  0  0  0  0  0  0  0  0
   25.8232   15.0260   20.5883 O   0  0  0  0  0  0  0  0  0  0  0  0
  2  1  1  6  0  0  0
  2  3  1  0  0  0  0
  2  5  1  0  0  0  0
  3  4  1  0  0  0  0
  3 10  1  0  0  0  0
  5  6  1  0  0  0  0
  6  7  1  0  0  0  0
  7  8  1  0  0  0  0
  8  9  1  0  0  0  0
M  END
>  <CHROM.1>
-127.43227106,50.73197660,-175.60198077,174.47171865,66.35247557,28.93750460
15.90893490,21.06358211,-2.64027172,0.31509171,1.00204068

>  <Name>
ligand

>  <RI>
0

>  <Rbt.Current_Directory>
/home/itssahil/PROJECTS/Mol_Feturizer/New_Systems/rnas/3DIY

>  <Rbt.Executable>
rbdock ($Id: //depot/dev/client3/rdock/2013.1/src/exe/rbdock.cxx#4 $)

>  <Rbt.Library>
libRbt.so (2013.1, Build901 2013/11/27)

>  <Rbt.Parameter_File>
/export/apps/rDock/src/rDock_2013.1_src/data/scripts/dock_solv.prm

>  <Rbt.Receptor>
prm/pocket_docking_4.prm

>  <SCORE>
-7.86708

>  <SCORE.INTER>
-8.50863

>  <SCORE.INTER.CONST>
1

>  <SCORE.INTER.POLAR>
0

>  <SCORE.INTER.ROT>
5

>  <SCORE.INTER.SOLV>
13.9361

>  <SCORE.INTER.VDW>
-17.2511

>  <SCORE.INTER.norm>
-0.850863

>  <SCORE.INTRA>
0.641548

>  <SCORE.INTRA.DIHEDRAL>
-0.278185

>  <SCORE.INTRA.DIHEDRAL.0>
2.56603

>  <SCORE.INTRA.POLAR>
0

>  <SCORE.INTRA.POLAR.0>
0

>  <SCORE.INTRA.REPUL>
0

>  <SCORE.INTRA.REPUL.0>
0

>  <SCORE.INTRA.SOLV>
0.291346

>  <SCORE.INTRA.SOLV.lig_0>
-32.0799

>  <SCORE.INTRA.VDW>
0.634967

>  <SCORE.INTRA.VDW.0>
-0.618248

>  <SCORE.INTRA.norm>
0.0641548

>  <SCORE.RESTR>
0

>  <SCORE.RESTR.CAVITY>
0

>  <SCORE.RESTR.norm>
0

>  <SCORE.SYSTEM>
0

>  <SCORE.SYSTEM.CONST>
0

>  <SCORE.SYSTEM.DIHEDRAL>
0

>  <SCORE.SYSTEM.SOLV>
0

>  <SCORE.SYSTEM.norm>
0

>  <SCORE.heavy>
10

>  <SCORE.norm>
-0.786708

>  <RMSD>
5.256

$$$$
ligand
 OpenBabel11021811473D
libRbt.so/2013.1/901 2013/11/27
 10  9  0  0  0  0  0  0  0  0999 V2000
   29.3202   15.5451   19.6495 N   0  0  0  0  0  0  0  0  0  0  0  0
   27.8351   15.6277   19.5052 C   0  0  2  0  0  0  0  0  0  0  0  0
   27.0957   14.9935   20.6888 C   0  0  0  0  0  0  0  0  0  0  0  0
   25.8589   14.9079   20.7223 O   0  0  0  0  0  0  0  0  0  0  0  0
   27.3816   15.0173   18.1763 C   0  0  0  0  0  0  0  0  0  0  0  0
   27.8314   13.5856   17.9941 C   0  0  0  0  0  0  0  0  0  0  0  0
   26.8249   12.7768   17.2122 C   0  0  0  0  0  0  0  0  0  0  0  0
   27.3121   11.3477   16.9992 C   0  0  0  0  0  0  0  0  0  0  0  0
   26.2104   10.3744   16.7704 N   0  0  0  0  0  0  0  0  0  0  0  0
   27.7159   14.5094   21.6406 O   0  0  0  0  0  0  0  0  0  0  0  0
  2  1  1  1  0  0  0
  2  3  1  0  0  0  0
  2  5  1  0  0  0  0
  3  4  1  0  0  0  0
  3 10  1  0  0  0  0
  5  6  1  0  0  0  0
  6  7  1  0  0  0  0
  7  8  1  0  0  0  0
  8  9  1  0  0  0  0
M  END
>  <CHROM.1>
-176.56243102,56.28526457,146.83599245,178.22242359,155.78538397,27.32301235
13.86365348,18.96974013,-1.36147964,-0.74945896,-2.23855126

>  <Name>
ligand

>  <RI>
0

>  <Rbt.Current_Directory>
/home/itssahil/PROJECTS/Mol_Feturizer/New_Systems/rnas/3DIY

>  <Rbt.Executable>
rbdock ($Id: //depot/dev/client3/rdock/2013.1/src/exe/rbdock.cxx#4 $)

>  <Rbt.Library>
libRbt.so (2013.1, Build901 2013/11/27)

>  <Rbt.Parameter_File>
/export/apps/rDock/src/rDock_2013.1_src/data/scripts/dock_solv.prm

>  <Rbt.Receptor>
prm/pocket_docking_6.prm

>  <SCORE>
-9.36228

>  <SCORE.INTER>
-11.2839

>  <SCORE.INTER.CONST>
1

>  <SCORE.INTER.POLAR>
0

>  <SCORE.INTER.ROT>
5

>  <SCORE.INTER.SOLV>
13.514

>  <SCORE.INTER.VDW>
-18.9606

>  <SCORE.INTER.norm>
-1.12839

>  <SCORE.INTRA>
1.92163

>  <SCORE.INTRA.DIHEDRAL>
4.55917

>  <SCORE.INTRA.DIHEDRAL.0>
2.56603

>  <SCORE.INTRA.POLAR>
0

>  <SCORE.INTRA.POLAR.0>
0

>  <SCORE.INTRA.REPUL>
0

>  <SCORE.INTRA.REPUL.0>
0

>  <SCORE.INTRA.SOLV>
-0.645347

>  <SCORE.INTRA.SOLV.lig_0>
-32.0799

>  <SCORE.INTRA.VDW>
-0.0352824

>  <SCORE.INTRA.VDW.0>
-0.618248

>  <SCORE.INTRA.norm>
0.192163

>  <SCORE.RESTR>
0

>  <SCORE.RESTR.CAVITY>
0

>  <SCORE.RESTR.norm>
0

>  <SCORE.SYSTEM>
0

>  <SCORE.SYSTEM.CONST>
0

>  <SCORE.SYSTEM.DIHEDRAL>
0

>  <SCORE.SYSTEM.SOLV>
0

>  <SCORE.SYSTEM.norm>
0

>  <SCORE.heavy>
10

>  <SCORE.norm>
-0.936228

>  <RMSD>
5.256

$$$$
ligand
 OpenBabel11021811473D
libRbt.so/2013.1/901 2013/11/27
 10  9  0  0  0  0  0  0  0  0999 V2000
   29.2227   15.6441   19.7295 N   0  0  0  0  0  0  0  0  0  0  0  0
   27.7333   15.6696   19.6102 C   0  0  2  0  0  0  0  0  0  0  0  0
   27.0391   14.9973   20.8002 C   0  0  0  0  0  0  0  0  0  0  0  0
   27.6675   14.6169   21.7994 O   0  0  0  0  0  0  0  0  0  0  0  0
   27.2817   15.0528   18.2836 C   0  0  0  0  0  0  0  0  0  0  0  0
   27.7754   13.6377   18.0861 C   0  0  0  0  0  0  0  0  0  0  0  0
   26.8196   12.8220   17.2497 C   0  0  0  0  0  0  0  0  0  0  0  0
   27.3440   11.4060   17.0366 C   0  0  0  0  0  0  0  0  0  0  0  0
   26.2703   10.4102   16.7743 N   0  0  0  0  0  0  0  0  0  0  0  0
   25.8139   14.8441   20.8181 O   0  0  0  0  0  0  0  0  0  0  0  0
  2  1  1  1  0  0  0
  2  3  1  0  0  0  0
  2  5  1  0  0  0  0
  3  4  1  0  0  0  0
  3 10  1  0  0  0  0
  5  6  1  0  0  0  0
  6  7  1  0  0  0  0
  7  8  1  0  0  0  0
  8  9  1  0  0  0  0
M  END
>  <CHROM.1>
7.25662160,56.71095917,149.88780791,178.89347269,154.57774353,27.28163499
13.90515557,19.05333829,-1.38351782,-0.78083249,-2.23248947

>  <Name>
ligand

>  <RI>
0

>  <Rbt.Current_Directory>
/home/itssahil/PROJECTS/Mol_Feturizer/New_Systems/rnas/3DIY

>  <Rbt.Executable>
rbdock ($Id: //depot/dev/client3/rdock/2013.1/src/exe/rbdock.cxx#4 $)

>  <Rbt.Library>
libRbt.so (2013.1, Build901 2013/11/27)

>  <Rbt.Parameter_File>
/export/apps/rDock/src/rDock_2013.1_src/data/scripts/dock_solv.prm

>  <Rbt.Receptor>
prm/blind_docking_40.prm

>  <SCORE>
-9.42367

>  <SCORE.INTER>
-11.2007

>  <SCORE.INTER.CONST>
1

>  <SCORE.INTER.POLAR>
0

>  <SCORE.INTER.ROT>
5

>  <SCORE.INTER.SOLV>
13.2705

>  <SCORE.INTER.VDW>
-18.824

>  <SCORE.INTER.norm>
-1.12007

>  <SCORE.INTRA>
1.777

>  <SCORE.INTRA.DIHEDRAL>
4.19301

>  <SCORE.INTRA.DIHEDRAL.0>
2.56603

>  <SCORE.INTRA.POLAR>
0

>  <SCORE.INTRA.POLAR.0>
0

>  <SCORE.INTRA.REPUL>
0

>  <SCORE.INTRA.REPUL.0>
0

>  <SCORE.INTRA.SOLV>
-0.65688

>  <SCORE.INTRA.SOLV.lig_0>
-32.0799

>  <SCORE.INTRA.VDW>
0.00893959

>  <SCORE.INTRA.VDW.0>
-0.618248

>  <SCORE.INTRA.norm>
0.1777

>  <SCORE.RESTR>
0

>  <SCORE.RESTR.CAVITY>
0

>  <SCORE.RESTR.norm>
0

>  <SCORE.SYSTEM>
0

>  <SCORE.SYSTEM.CONST>
0

>  <SCORE.SYSTEM.DIHEDRAL>
0

>  <SCORE.SYSTEM.SOLV>
0

>  <SCORE.SYSTEM.norm>
0

>  <SCORE.heavy>
10

>  <SCORE.norm>
-0.942367

>  <RMSD>
5.260

$$$$
ligand
 OpenBabel11021811473D
libRbt.so/2013.1/901 2013/11/27
 10  9  0  0  0  0  0  0  0  0999 V2000
   28.6541   14.2268   18.7727 N   0  0  0  0  0  0  0  0  0  0  0  0
   27.8854   14.3117   20.0514 C   0  0  2  0  0  0  0  0  0  0  0  0
   26.8067   15.4002   20.0149 C   0  0  0  0  0  0  0  0  0  0  0  0
   27.0291   16.5318   19.5587 O   0  0  0  0  0  0  0  0  0  0  0  0
   28.8279   14.5042   21.2426 C   0  0  0  0  0  0  0  0  0  0  0  0
   29.8367   15.6101   21.0312 C   0  0  0  0  0  0  0  0  0  0  0  0
   30.8337   15.6833   22.1622 C   0  0  0  0  0  0  0  0  0  0  0  0
   31.9638   16.6546   21.8388 C   0  0  0  0  0  0  0  0  0  0  0  0
   31.5221   18.0733   21.7639 N   0  0  0  0  0  0  0  0  0  0  0  0
   25.6590   15.1717   20.4094 O   0  0  0  0  0  0  0  0  0  0  0  0
  2  1  1  6  0  0  0
  2  3  1  0  0  0  0
  2  5  1  0  0  0  0
  3  4  1  0  0  0  0
  3 10  1  0  0  0  0
  5  6  1  0  0  0  0
  6  7  1  0  0  0  0
  7  8  1  0  0  0  0
  8  9  1  0  0  0  0
M  END
>  <CHROM.1>
-44.59854690,49.15225885,-174.37055297,171.39518087,67.19910184,28.86719330
15.63559797,20.67919742,-2.74485288,-0.31977436,0.22365217

>  <Name>
ligand

>  <RI>
0

>  <Rbt.Current_Directory>
/home/itssahil/PROJECTS/Mol_Feturizer/New_Systems/rnas/3DIY

>  <Rbt.Executable>
rbdock ($Id: //depot/dev/client3/rdock/2013.1/src/exe/rbdock.cxx#4 $)

>  <Rbt.Library>
libRbt.so (2013.1, Build901 2013/11/27)

>  <Rbt.Parameter_File>
/export/apps/rDock/src/rDock_2013.1_src/data/scripts/dock_solv.prm

>  <Rbt.Receptor>
prm/blind_docking_60.prm

>  <SCORE>
-8.04964

>  <SCORE.INTER>
-8.19039

>  <SCORE.INTER.CONST>
1

>  <SCORE.INTER.POLAR>
0

>  <SCORE.INTER.ROT>
5

>  <SCORE.INTER.SOLV>
14.7325

>  <SCORE.INTER.VDW>
-17.3044

>  <SCORE.INTER.norm>
-0.819039

>  <SCORE.INTRA>
0.140758

>  <SCORE.INTRA.DIHEDRAL>
0.129116

>  <SCORE.INTRA.DIHEDRAL.0>
2.56603

>  <SCORE.INTRA.POLAR>
0

>  <SCORE.INTRA.POLAR.0>
0

>  <SCORE.INTRA.REPUL>
0

>  <SCORE.INTRA.REPUL.0>
0

>  <SCORE.INTRA.SOLV>
0.29013

>  <SCORE.INTRA.SOLV.lig_0>
-32.0799

>  <SCORE.INTRA.VDW>
-0.0688651

>  <SCORE.INTRA.VDW.0>
-0.618248

>  <SCORE.INTRA.norm>
0.0140758

>  <SCORE.RESTR>
0

>  <SCORE.RESTR.CAVITY>
0

>  <SCORE.RESTR.norm>
0

>  <SCORE.SYSTEM>
0

>  <SCORE.SYSTEM.CONST>
0

>  <SCORE.SYSTEM.DIHEDRAL>
0

>  <SCORE.SYSTEM.SOLV>
0

>  <SCORE.SYSTEM.norm>
0

>  <SCORE.heavy>
10

>  <SCORE.norm>
-0.804964

>  <RMSD>
5.270

$$$$
ligand
 OpenBabel11021811473D
libRbt.so/2013.1/901 2013/11/27
 10  9  0  0  0  0  0  0  0  0999 V2000
   25.8618   15.4847   19.7706 N   0  0  0  0  0  0  0  0  0  0  0  0
   27.3439   15.3071   19.8392 C   0  0  2  0  0  0  0  0  0  0  0  0
   27.8895   14.4820   18.6681 C   0  0  0  0  0  0  0  0  0  0  0  0
   27.1721   13.7053   18.0200 O   0  0  0  0  0  0  0  0  0  0  0  0
   27.7594   14.7042   21.1838 C   0  0  0  0  0  0  0  0  0  0  0  0
   29.2471   14.7866   21.4394 C   0  0  0  0  0  0  0  0  0  0  0  0
   29.6912   16.2030   21.7134 C   0  0  0  0  0  0  0  0  0  0  0  0
   31.2044   16.2828   21.8843 C   0  0  0  0  0  0  0  0  0  0  0  0
   31.9556   16.0654   20.6187 N   0  0  0  0  0  0  0  0  0  0  0  0
   29.0647   14.5924   18.3054 O   0  0  0  0  0  0  0  0  0  0  0  0
  2  1  1  1  0  0  0
  2  3  1  0  0  0  0
  2  5  1  0  0  0  0
  3  4  1  0  0  0  0
  3 10  1  0  0  0  0
  5  6  1  0  0  0  0
  6  7  1  0  0  0  0
  7  8  1  0  0  0  0
  8  9  1  0  0  0  0
M  END
>  <CHROM.1>
-22.09314187,-167.05735668,71.09006082,-176.51565945,70.40078339,28.72380522
15.14153791,20.11214872,2.49969634,-0.11157015,-1.95425971

>  <Name>
ligand

>  <RI>
0

>  <Rbt.Current_Directory>
/home/itssahil/PROJECTS/Mol_Feturizer/New_Systems/rnas/3DIY

>  <Rbt.Executable>
rbdock ($Id: //depot/dev/client3/rdock/2013.1/src/exe/rbdock.cxx#4 $)

>  <Rbt.Library>
libRbt.so (2013.1, Build901 2013/11/27)

>  <Rbt.Parameter_File>
/export/apps/rDock/src/rDock_2013.1_src/data/scripts/dock_solv.prm

>  <Rbt.Receptor>
prm/pocket_docking_3.prm

>  <SCORE>
-7.91915

>  <SCORE.INTER>
-7.80851

>  <SCORE.INTER.CONST>
1

>  <SCORE.INTER.POLAR>
0

>  <SCORE.INTER.ROT>
5

>  <SCORE.INTER.SOLV>
17.573

>  <SCORE.INTER.VDW>
-17.9967

>  <SCORE.INTER.norm>
-0.780851

>  <SCORE.INTRA>
-0.110636

>  <SCORE.INTRA.DIHEDRAL>
0.589313

>  <SCORE.INTRA.DIHEDRAL.0>
2.56603

>  <SCORE.INTRA.POLAR>
0

>  <SCORE.INTRA.POLAR.0>
0

>  <SCORE.INTRA.REPUL>
0

>  <SCORE.INTRA.REPUL.0>
0

>  <SCORE.INTRA.SOLV>
-0.458185

>  <SCORE.INTRA.SOLV.lig_0>
-32.0799

>  <SCORE.INTRA.VDW>
-0.1762

>  <SCORE.INTRA.VDW.0>
-0.618248

>  <SCORE.INTRA.norm>
-0.0110636

>  <SCORE.RESTR>
0

>  <SCORE.RESTR.CAVITY>
0

>  <SCORE.RESTR.norm>
0

>  <SCORE.SYSTEM>
0

>  <SCORE.SYSTEM.CONST>
0

>  <SCORE.SYSTEM.DIHEDRAL>
0

>  <SCORE.SYSTEM.SOLV>
0

>  <SCORE.SYSTEM.norm>
0

>  <SCORE.heavy>
10

>  <SCORE.norm>
-0.791915

>  <RMSD>
5.271

$$$$
ligand
 OpenBabel11021811473D
libRbt.so/2013.1/901 2013/11/27
 10  9  0  0  0  0  0  0  0  0999 V2000
   27.3170   14.4898   18.2911 N   0  0  0  0  0  0  0  0  0  0  0  0
   27.8598   14.8811   19.6272 C   0  0  2  0  0  0  0  0  0  0  0  0
   26.7655   14.9863   20.6957 C   0  0  0  0  0  0  0  0  0  0  0  0
   27.0317   15.0617   21.9046 O   0  0  0  0  0  0  0  0  0  0  0  0
   28.6664   16.1788   19.5295 C   0  0  0  0  0  0  0  0  0  0  0  0
   29.4267   16.5042   20.7950 C   0  0  0  0  0  0  0  0  0  0  0  0
   30.5139   15.4941   21.0713 C   0  0  0  0  0  0  0  0  0  0  0  0
   31.7167   15.7159   20.1606 C   0  0  0  0  0  0  0  0  0  0  0  0
   32.4125   17.0083   20.4028 N   0  0  0  0  0  0  0  0  0  0  0  0
   25.5724   15.0367   20.3813 O   0  0  0  0  0  0  0  0  0  0  0  0
  2  1  1  6  0  0  0
  2  3  1  0  0  0  0
  2  5  1  0  0  0  0
  3  4  1  0  0  0  0
  3 10  1  0  0  0  0
  5  6  1  0  0  0  0
  6  7  1  0  0  0  0
  7  8  1  0  0  0  0
  8  9  1  0  0  0  0
M  END
>  <CHROM.1>
166.84375925,-170.55168119,66.10035796,76.22005831,65.21950778,28.69435496
15.53454912,20.30897713,-3.06100681,0.25886637,1.39276120

>  <Name>
ligand

>  <RI>
0

>  <Rbt.Current_Directory>
/home/itssahil/PROJECTS/Mol_Feturizer/New_Systems/rnas/3DIY

>  <Rbt.Executable>
rbdock ($Id: //depot/dev/client3/rdock/2013.1/src/exe/rbdock.cxx#4 $)

>  <Rbt.Library>
libRbt.so (2013.1, Build901 2013/11/27)

>  <Rbt.Parameter_File>
/export/apps/rDock/src/rDock_2013.1_src/data/scripts/dock_solv.prm

>  <Rbt.Receptor>
prm/blind_docking_100.prm

>  <SCORE>
-8.41699

>  <SCORE.INTER>
-9.32366

>  <SCORE.INTER.CONST>
1

>  <SCORE.INTER.POLAR>
0

>  <SCORE.INTER.ROT>
5

>  <SCORE.INTER.SOLV>
14.4858

>  <SCORE.INTER.VDW>
-17.9777

>  <SCORE.INTER.norm>
-0.932366

>  <SCORE.INTRA>
0.906671

>  <SCORE.INTRA.DIHEDRAL>
0.532298

>  <SCORE.INTRA.DIHEDRAL.0>
2.56603

>  <SCORE.INTRA.POLAR>
0

>  <SCORE.INTRA.POLAR.0>
0

>  <SCORE.INTRA.REPUL>
0

>  <SCORE.INTRA.REPUL.0>
0

>  <SCORE.INTRA.SOLV>
-0.0134169

>  <SCORE.INTRA.SOLV.lig_0>
-32.0799

>  <SCORE.INTRA.VDW>
0.647231

>  <SCORE.INTRA.VDW.0>
-0.618248

>  <SCORE.INTRA.norm>
0.0906671

>  <SCORE.RESTR>
0

>  <SCORE.RESTR.CAVITY>
0

>  <SCORE.RESTR.norm>
0

>  <SCORE.SYSTEM>
0

>  <SCORE.SYSTEM.CONST>
0

>  <SCORE.SYSTEM.DIHEDRAL>
0

>  <SCORE.SYSTEM.SOLV>
0

>  <SCORE.SYSTEM.norm>
0

>  <SCORE.heavy>
10

>  <SCORE.norm>
-0.841699

>  <RMSD>
5.274

$$$$
ligand
 OpenBabel11021811473D
libRbt.so/2013.1/901 2013/11/27
 10  9  0  0  0  0  0  0  0  0999 V2000
   27.2401   14.5446   18.2800 N   0  0  0  0  0  0  0  0  0  0  0  0
   27.8299   14.8876   19.6095 C   0  0  2  0  0  0  0  0  0  0  0  0
   26.7707   14.9795   20.7138 C   0  0  0  0  0  0  0  0  0  0  0  0
   25.5580   15.0306   20.4595 O   0  0  0  0  0  0  0  0  0  0  0  0
   28.6557   16.1741   19.5242 C   0  0  0  0  0  0  0  0  0  0  0  0
   29.4150   16.4797   20.7952 C   0  0  0  0  0  0  0  0  0  0  0  0
   30.4944   15.4589   21.0627 C   0  0  0  0  0  0  0  0  0  0  0  0
   31.7150   15.7038   20.1822 C   0  0  0  0  0  0  0  0  0  0  0  0
   32.4497   16.9520   20.5223 N   0  0  0  0  0  0  0  0  0  0  0  0
   27.0924   14.9689   21.9060 O   0  0  0  0  0  0  0  0  0  0  0  0
  2  1  1  6  0  0  0
  2  3  1  0  0  0  0
  2  5  1  0  0  0  0
  3  4  1  0  0  0  0
  3 10  1  0  0  0  0
  5  6  1  0  0  0  0
  6  7  1  0  0  0  0
  7  8  1  0  0  0  0
  8  9  1  0  0  0  0
M  END
>  <CHROM.1>
-13.57471806,-172.93167048,66.61113972,77.64833565,68.20129621,28.68898949
15.51560933,20.32945536,-3.06395653,0.25644244,1.44097841

>  <Name>
ligand

>  <RI>
0

>  <Rbt.Current_Directory>
/home/itssahil/PROJECTS/Mol_Feturizer/New_Systems/rnas/3DIY

>  <Rbt.Executable>
rbdock ($Id: //depot/dev/client3/rdock/2013.1/src/exe/rbdock.cxx#4 $)

>  <Rbt.Library>
libRbt.so (2013.1, Build901 2013/11/27)

>  <Rbt.Parameter_File>
/export/apps/rDock/src/rDock_2013.1_src/data/scripts/dock_solv.prm

>  <Rbt.Receptor>
prm/pocket_docking_2.prm

>  <SCORE>
-8.42688

>  <SCORE.INTER>
-9.42631

>  <SCORE.INTER.CONST>
1

>  <SCORE.INTER.POLAR>
0

>  <SCORE.INTER.ROT>
5

>  <SCORE.INTER.SOLV>
14.4448

>  <SCORE.INTER.VDW>
-18.0325

>  <SCORE.INTER.norm>
-0.942631

>  <SCORE.INTRA>
0.999433

>  <SCORE.INTRA.DIHEDRAL>
0.84847

>  <SCORE.INTRA.DIHEDRAL.0>
2.56603

>  <SCORE.INTRA.POLAR>
0

>  <SCORE.INTRA.POLAR.0>
0

>  <SCORE.INTRA.REPUL>
0

>  <SCORE.INTRA.REPUL.0>
0

>  <SCORE.INTRA.SOLV>
-0.111659

>  <SCORE.INTRA.SOLV.lig_0>
-32.0799

>  <SCORE.INTRA.VDW>
0.631027

>  <SCORE.INTRA.VDW.0>
-0.618248

>  <SCORE.INTRA.norm>
0.0999433

>  <SCORE.RESTR>
0

>  <SCORE.RESTR.CAVITY>
0

>  <SCORE.RESTR.norm>
0

>  <SCORE.SYSTEM>
0

>  <SCORE.SYSTEM.CONST>
0

>  <SCORE.SYSTEM.DIHEDRAL>
0

>  <SCORE.SYSTEM.SOLV>
0

>  <SCORE.SYSTEM.norm>
0

>  <SCORE.heavy>
10

>  <SCORE.norm>
-0.842688

>  <RMSD>
5.280

$$$$
ligand
 OpenBabel11021811473D
libRbt.so/2013.1/901 2013/11/27
 10  9  0  0  0  0  0  0  0  0999 V2000
   28.1683   14.0098   18.4517 N   0  0  0  0  0  0  0  0  0  0  0  0
   28.1132   14.3524   19.9052 C   0  0  2  0  0  0  0  0  0  0  0  0
   26.8959   15.2150   20.2576 C   0  0  0  0  0  0  0  0  0  0  0  0
   26.5874   16.2184   19.5974 O   0  0  0  0  0  0  0  0  0  0  0  0
   29.4151   15.0186   20.3583 C   0  0  0  0  0  0  0  0  0  0  0  0
   29.4693   15.2683   21.8483 C   0  0  0  0  0  0  0  0  0  0  0  0
   30.8003   15.8394   22.2732 C   0  0  0  0  0  0  0  0  0  0  0  0
   30.9894   17.2543   21.7371 C   0  0  0  0  0  0  0  0  0  0  0  0
   32.3091   17.8474   22.0833 N   0  0  0  0  0  0  0  0  0  0  0  0
   26.1545   14.9146   21.1983 O   0  0  0  0  0  0  0  0  0  0  0  0
  2  1  1  6  0  0  0
  2  3  1  0  0  0  0
  2  5  1  0  0  0  0
  3  4  1  0  0  0  0
  3 10  1  0  0  0  0
  5  6  1  0  0  0  0
  6  7  1  0  0  0  0
  7  8  1  0  0  0  0
  8  9  1  0  0  0  0
M  END
>  <CHROM.1>
-47.85261069,-174.49832069,176.16137471,68.08630809,-177.81457687,28.85347409
15.60724267,20.77427141,-2.55404883,0.03334391,0.85394075

>  <Name>
ligand

>  <RI>
0

>  <Rbt.Current_Directory>
/home/itssahil/PROJECTS/Mol_Feturizer/New_Systems/rnas/3DIY

>  <Rbt.Executable>
rbdock ($Id: //depot/dev/client3/rdock/2013.1/src/exe/rbdock.cxx#4 $)

>  <Rbt.Library>
libRbt.so (2013.1, Build901 2013/11/27)

>  <Rbt.Parameter_File>
/export/apps/rDock/src/rDock_2013.1_src/data/scripts/dock_solv.prm

>  <Rbt.Receptor>
prm/blind_docking_80.prm

>  <SCORE>
-9.21143

>  <SCORE.INTER>
-8.70691

>  <SCORE.INTER.CONST>
1

>  <SCORE.INTER.POLAR>
0

>  <SCORE.INTER.ROT>
5

>  <SCORE.INTER.SOLV>
13.9943

>  <SCORE.INTER.VDW>
-17.4027

>  <SCORE.INTER.norm>
-0.870691

>  <SCORE.INTRA>
-0.504523

>  <SCORE.INTRA.DIHEDRAL>
-0.536412

>  <SCORE.INTRA.DIHEDRAL.0>
2.56603

>  <SCORE.INTRA.POLAR>
0

>  <SCORE.INTRA.POLAR.0>
0

>  <SCORE.INTRA.REPUL>
0

>  <SCORE.INTRA.REPUL.0>
0

>  <SCORE.INTRA.SOLV>
-1.34243

>  <SCORE.INTRA.SOLV.lig_0>
-32.0799

>  <SCORE.INTRA.VDW>
0.434897

>  <SCORE.INTRA.VDW.0>
-0.618248

>  <SCORE.INTRA.norm>
-0.0504523

>  <SCORE.RESTR>
0

>  <SCORE.RESTR.CAVITY>
0

>  <SCORE.RESTR.norm>
0

>  <SCORE.SYSTEM>
0

>  <SCORE.SYSTEM.CONST>
0

>  <SCORE.SYSTEM.DIHEDRAL>
0

>  <SCORE.SYSTEM.SOLV>
0

>  <SCORE.SYSTEM.norm>
0

>  <SCORE.heavy>
10

>  <SCORE.norm>
-0.921143

>  <RMSD>
5.286

$$$$
ligand
 OpenBabel11021811473D
libRbt.so/2013.1/901 2013/11/27
 10  9  0  0  0  0  0  0  0  0999 V2000
   28.5828   16.7716   19.9017 N   0  0  0  0  0  0  0  0  0  0  0  0
   28.5606   15.3283   20.2883 C   0  0  2  0  0  0  0  0  0  0  0  0
   27.1684   14.7039   20.1408 C   0  0  0  0  0  0  0  0  0  0  0  0
   26.2940   14.8332   21.0107 O   0  0  0  0  0  0  0  0  0  0  0  0
   29.1083   15.1346   21.7049 C   0  0  0  0  0  0  0  0  0  0  0  0
   30.5776   15.4688   21.8263 C   0  0  0  0  0  0  0  0  0  0  0  0
   30.8249   16.9545   21.7260 C   0  0  0  0  0  0  0  0  0  0  0  0
   32.3166   17.2686   21.7615 C   0  0  0  0  0  0  0  0  0  0  0  0
   33.0536   16.7786   20.5656 N   0  0  0  0  0  0  0  0  0  0  0  0
   26.8573   14.0763   19.1239 O   0  0  0  0  0  0  0  0  0  0  0  0
  2  1  1  1  0  0  0
  2  3  1  0  0  0  0
  2  5  1  0  0  0  0
  3  4  1  0  0  0  0
  3 10  1  0  0  0  0
  5  6  1  0  0  0  0
  6  7  1  0  0  0  0
  7  8  1  0  0  0  0
  8  9  1  0  0  0  0
M  END
>  <CHROM.1>
-81.83117620,-66.13211021,71.29010496,-176.40747374,67.04918401,29.29333148
15.71340150,20.79767998,-2.94896308,0.41215593,1.64192081

>  <Name>
ligand

>  <RI>
0

>  <Rbt.Current_Directory>
/home/itssahil/PROJECTS/Mol_Feturizer/New_Systems/rnas/3DIY

>  <Rbt.Executable>
rbdock ($Id: //depot/dev/client3/rdock/2013.1/src/exe/rbdock.cxx#4 $)

>  <Rbt.Library>
libRbt.so (2013.1, Build901 2013/11/27)

>  <Rbt.Parameter_File>
/export/apps/rDock/src/rDock_2013.1_src/data/scripts/dock_solv.prm

>  <Rbt.Receptor>
prm/pocket_docking_2.prm

>  <SCORE>
-7.23351

>  <SCORE.INTER>
-8.38697

>  <SCORE.INTER.CONST>
1

>  <SCORE.INTER.POLAR>
0

>  <SCORE.INTER.ROT>
5

>  <SCORE.INTER.SOLV>
14.4747

>  <SCORE.INTER.VDW>
-17.3495

>  <SCORE.INTER.norm>
-0.838697

>  <SCORE.INTRA>
1.15346

>  <SCORE.INTRA.DIHEDRAL>
-0.174103

>  <SCORE.INTRA.DIHEDRAL.0>
2.56603

>  <SCORE.INTRA.POLAR>
0

>  <SCORE.INTRA.POLAR.0>
0

>  <SCORE.INTRA.REPUL>
0

>  <SCORE.INTRA.REPUL.0>
0

>  <SCORE.INTRA.SOLV>
1.6233

>  <SCORE.INTRA.SOLV.lig_0>
-32.0799

>  <SCORE.INTRA.VDW>
0.428858

>  <SCORE.INTRA.VDW.0>
-0.618248

>  <SCORE.INTRA.norm>
0.115346

>  <SCORE.RESTR>
0

>  <SCORE.RESTR.CAVITY>
0

>  <SCORE.RESTR.norm>
0

>  <SCORE.SYSTEM>
0

>  <SCORE.SYSTEM.CONST>
0

>  <SCORE.SYSTEM.DIHEDRAL>
0

>  <SCORE.SYSTEM.SOLV>
0

>  <SCORE.SYSTEM.norm>
0

>  <SCORE.heavy>
10

>  <SCORE.norm>
-0.723351

>  <RMSD>
5.291

$$$$
ligand
 OpenBabel11021811473D
libRbt.so/2013.1/901 2013/11/27
 10  9  0  0  0  0  0  0  0  0999 V2000
   27.1765   14.4847   18.3072 N   0  0  0  0  0  0  0  0  0  0  0  0
   27.7804   14.4834   19.6741 C   0  0  2  0  0  0  0  0  0  0  0  0
   26.7931   14.9479   20.7509 C   0  0  0  0  0  0  0  0  0  0  0  0
   25.5746   15.0293   20.5350 O   0  0  0  0  0  0  0  0  0  0  0  0
   29.0653   15.3155   19.7034 C   0  0  0  0  0  0  0  0  0  0  0  0
   29.9274   15.0374   20.9138 C   0  0  0  0  0  0  0  0  0  0  0  0
   31.3042   15.6397   20.7717 C   0  0  0  0  0  0  0  0  0  0  0  0
   31.2529   17.1608   20.8662 C   0  0  0  0  0  0  0  0  0  0  0  0
   30.8658   17.6577   22.2140 N   0  0  0  0  0  0  0  0  0  0  0  0
   27.1790   15.2241   21.8909 O   0  0  0  0  0  0  0  0  0  0  0  0
  2  1  1  6  0  0  0
  2  3  1  0  0  0  0
  2  5  1  0  0  0  0
  3  4  1  0  0  0  0
  3 10  1  0  0  0  0
  5  6  1  0  0  0  0
  6  7  1  0  0  0  0
  7  8  1  0  0  0  0
  8  9  1  0  0  0  0
M  END
>  <CHROM.1>
14.37173382,-163.29933010,167.82163758,70.61569185,67.07851522,28.66074723
15.50260622,20.58464402,-2.73981046,0.24489491,1.07622209

>  <Name>
ligand

>  <RI>
0

>  <Rbt.Current_Directory>
/home/itssahil/PROJECTS/Mol_Feturizer/New_Systems/rnas/3DIY

>  <Rbt.Executable>
rbdock ($Id: //depot/dev/client3/rdock/2013.1/src/exe/rbdock.cxx#4 $)

>  <Rbt.Library>
libRbt.so (2013.1, Build901 2013/11/27)

>  <Rbt.Parameter_File>
/export/apps/rDock/src/rDock_2013.1_src/data/scripts/dock_solv.prm

>  <Rbt.Receptor>
prm/blind_docking_60.prm

>  <SCORE>
-7.30457

>  <SCORE.INTER>
-8.59942

>  <SCORE.INTER.CONST>
1

>  <SCORE.INTER.POLAR>
0

>  <SCORE.INTER.ROT>
5

>  <SCORE.INTER.SOLV>
15.016

>  <SCORE.INTER.VDW>
-17.6716

>  <SCORE.INTER.norm>
-0.859942

>  <SCORE.INTRA>
1.29485

>  <SCORE.INTRA.DIHEDRAL>
1.15464

>  <SCORE.INTRA.DIHEDRAL.0>
2.56603

>  <SCORE.INTRA.POLAR>
0

>  <SCORE.INTRA.POLAR.0>
0

>  <SCORE.INTRA.REPUL>
0

>  <SCORE.INTRA.REPUL.0>
0

>  <SCORE.INTRA.SOLV>
-0.273134

>  <SCORE.INTRA.SOLV.lig_0>
-32.0799

>  <SCORE.INTRA.VDW>
0.854095

>  <SCORE.INTRA.VDW.0>
-0.618248

>  <SCORE.INTRA.norm>
0.129485

>  <SCORE.RESTR>
0

>  <SCORE.RESTR.CAVITY>
0

>  <SCORE.RESTR.norm>
0

>  <SCORE.SYSTEM>
0

>  <SCORE.SYSTEM.CONST>
0

>  <SCORE.SYSTEM.DIHEDRAL>
0

>  <SCORE.SYSTEM.SOLV>
0

>  <SCORE.SYSTEM.norm>
0

>  <SCORE.heavy>
10

>  <SCORE.norm>
-0.730457

>  <RMSD>
5.295

$$$$
ligand
 OpenBabel11021811473D
libRbt.so/2013.1/901 2013/11/27
 10  9  0  0  0  0  0  0  0  0999 V2000
   27.1043   14.5387   18.3655 N   0  0  0  0  0  0  0  0  0  0  0  0
   27.6591   15.1175   19.6265 C   0  0  2  0  0  0  0  0  0  0  0  0
   26.6841   14.9995   20.8035 C   0  0  0  0  0  0  0  0  0  0  0  0
   27.0698   15.0209   21.9820 O   0  0  0  0  0  0  0  0  0  0  0  0
   28.0985   16.5686   19.4135 C   0  0  0  0  0  0  0  0  0  0  0  0
   29.5003   16.8451   19.9074 C   0  0  0  0  0  0  0  0  0  0  0  0
   29.6442   16.5490   21.3805 C   0  0  0  0  0  0  0  0  0  0  0  0
   31.0286   16.9376   21.8881 C   0  0  0  0  0  0  0  0  0  0  0  0
   32.1368   16.2543   21.1681 N   0  0  0  0  0  0  0  0  0  0  0  0
   25.4667   14.9149   20.6148 O   0  0  0  0  0  0  0  0  0  0  0  0
  2  1  1  6  0  0  0
  2  3  1  0  0  0  0
  2  5  1  0  0  0  0
  3  4  1  0  0  0  0
  3 10  1  0  0  0  0
  5  6  1  0  0  0  0
  6  7  1  0  0  0  0
  7  8  1  0  0  0  0
  8  9  1  0  0  0  0
M  END
>  <CHROM.1>
157.05705231,-129.86707307,-58.90451539,-175.44060258,-57.85939325,28.40884731
15.76794174,20.53933568,-2.92209627,0.35545755,1.56770728

>  <Name>
ligand

>  <RI>
0

>  <Rbt.Current_Directory>
/home/itssahil/PROJECTS/Mol_Feturizer/New_Systems/rnas/3DIY

>  <Rbt.Executable>
rbdock ($Id: //depot/dev/client3/rdock/2013.1/src/exe/rbdock.cxx#4 $)

>  <Rbt.Library>
libRbt.so (2013.1, Build901 2013/11/27)

>  <Rbt.Parameter_File>
/export/apps/rDock/src/rDock_2013.1_src/data/scripts/dock_solv.prm

>  <Rbt.Receptor>
prm/pocket_docking_6.prm

>  <SCORE>
-6.93467

>  <SCORE.INTER>
-9.10685

>  <SCORE.INTER.CONST>
1

>  <SCORE.INTER.POLAR>
0

>  <SCORE.INTER.ROT>
5

>  <SCORE.INTER.SOLV>
14.5579

>  <SCORE.INTER.VDW>
-17.8572

>  <SCORE.INTER.norm>
-0.910685

>  <SCORE.INTRA>
2.17217

>  <SCORE.INTRA.DIHEDRAL>
4.29362

>  <SCORE.INTRA.DIHEDRAL.0>
2.56603

>  <SCORE.INTRA.POLAR>
0

>  <SCORE.INTRA.POLAR.0>
0

>  <SCORE.INTRA.REPUL>
0

>  <SCORE.INTRA.REPUL.0>
0

>  <SCORE.INTRA.SOLV>
-0.250787

>  <SCORE.INTRA.SOLV.lig_0>
-32.0799

>  <SCORE.INTRA.VDW>
0.150755

>  <SCORE.INTRA.VDW.0>
-0.618248

>  <SCORE.INTRA.norm>
0.217217

>  <SCORE.RESTR>
0

>  <SCORE.RESTR.CAVITY>
0

>  <SCORE.RESTR.norm>
0

>  <SCORE.SYSTEM>
0

>  <SCORE.SYSTEM.CONST>
0

>  <SCORE.SYSTEM.DIHEDRAL>
0

>  <SCORE.SYSTEM.SOLV>
0

>  <SCORE.SYSTEM.norm>
0

>  <SCORE.heavy>
10

>  <SCORE.norm>
-0.693467

>  <RMSD>
5.301

$$$$
ligand
 OpenBabel11021811473D
libRbt.so/2013.1/901 2013/11/27
 10  9  0  0  0  0  0  0  0  0999 V2000
   27.4192   13.8532   18.5497 N   0  0  0  0  0  0  0  0  0  0  0  0
   27.9539   14.7648   19.6062 C   0  0  2  0  0  0  0  0  0  0  0  0
   26.9578   14.9824   20.7509 C   0  0  0  0  0  0  0  0  0  0  0  0
   25.7333   15.0233   20.5585 O   0  0  0  0  0  0  0  0  0  0  0  0
   28.4026   16.0975   19.0004 C   0  0  0  0  0  0  0  0  0  0  0  0
   29.0250   17.0323   20.0125 C   0  0  0  0  0  0  0  0  0  0  0  0
   30.3914   16.5597   20.4463 C   0  0  0  0  0  0  0  0  0  0  0  0
   31.0032   17.5088   21.4710 C   0  0  0  0  0  0  0  0  0  0  0  0
   32.3806   17.1269   21.8835 N   0  0  0  0  0  0  0  0  0  0  0  0
   27.3444   15.0885   21.9188 O   0  0  0  0  0  0  0  0  0  0  0  0
  2  1  1  6  0  0  0
  2  3  1  0  0  0  0
  2  5  1  0  0  0  0
  3  4  1  0  0  0  0
  3 10  1  0  0  0  0
  5  6  1  0  0  0  0
  6  7  1  0  0  0  0
  7  8  1  0  0  0  0
  8  9  1  0  0  0  0
M  END
>  <CHROM.1>
-34.53421826,-176.77952611,71.75204028,-179.75073052,-177.13474957,28.63084420
15.80208194,20.44380636,-2.80120065,0.43536019,1.35335351

>  <Name>
ligand

>  <RI>
0

>  <Rbt.Current_Directory>
/home/itssahil/PROJECTS/Mol_Feturizer/New_Systems/rnas/3DIY

>  <Rbt.Executable>
rbdock ($Id: //depot/dev/client3/rdock/2013.1/src/exe/rbdock.cxx#4 $)

>  <Rbt.Library>
libRbt.so (2013.1, Build901 2013/11/27)

>  <Rbt.Parameter_File>
/export/apps/rDock/src/rDock_2013.1_src/data/scripts/dock_solv.prm

>  <Rbt.Receptor>
prm/pocket_docking_2.prm

>  <SCORE>
-9.63694

>  <SCORE.INTER>
-8.7165

>  <SCORE.INTER.CONST>
1

>  <SCORE.INTER.POLAR>
0

>  <SCORE.INTER.ROT>
5

>  <SCORE.INTER.SOLV>
14.8577

>  <SCORE.INTER.VDW>
-17.6969

>  <SCORE.INTER.norm>
-0.87165

>  <SCORE.INTRA>
-0.920447

>  <SCORE.INTRA.DIHEDRAL>
-0.332122

>  <SCORE.INTRA.DIHEDRAL.0>
2.56603

>  <SCORE.INTRA.POLAR>
0

>  <SCORE.INTRA.POLAR.0>
0

>  <SCORE.INTRA.REPUL>
0

>  <SCORE.INTRA.REPUL.0>
0

>  <SCORE.INTRA.SOLV>
-1.37432

>  <SCORE.INTRA.SOLV.lig_0>
-32.0799

>  <SCORE.INTRA.VDW>
-0.0672269

>  <SCORE.INTRA.VDW.0>
-0.618248

>  <SCORE.INTRA.norm>
-0.0920447

>  <SCORE.RESTR>
0

>  <SCORE.RESTR.CAVITY>
0

>  <SCORE.RESTR.norm>
0

>  <SCORE.SYSTEM>
0

>  <SCORE.SYSTEM.CONST>
0

>  <SCORE.SYSTEM.DIHEDRAL>
0

>  <SCORE.SYSTEM.SOLV>
0

>  <SCORE.SYSTEM.norm>
0

>  <SCORE.heavy>
10

>  <SCORE.norm>
-0.963694

>  <RMSD>
5.303

$$$$
ligand
 OpenBabel11021811473D
libRbt.so/2013.1/901 2013/11/27
 10  9  0  0  0  0  0  0  0  0999 V2000
   25.9565   14.9421   20.5084 N   0  0  0  0  0  0  0  0  0  0  0  0
   27.0870   15.5685   19.7583 C   0  0  2  0  0  0  0  0  0  0  0  0
   27.6496   14.6468   18.6702 C   0  0  0  0  0  0  0  0  0  0  0  0
   28.6125   13.8937   18.8792 O   0  0  0  0  0  0  0  0  0  0  0  0
   28.1875   16.0314   20.7168 C   0  0  0  0  0  0  0  0  0  0  0  0
   29.2414   16.8833   20.0468 C   0  0  0  0  0  0  0  0  0  0  0  0
   30.3168   17.3104   21.0162 C   0  0  0  0  0  0  0  0  0  0  0  0
   31.2135   16.1372   21.3965 C   0  0  0  0  0  0  0  0  0  0  0  0
   32.0051   15.6027   20.2558 N   0  0  0  0  0  0  0  0  0  0  0  0
   27.1336   14.5973   17.5494 O   0  0  0  0  0  0  0  0  0  0  0  0
  2  1  1  1  0  0  0
  2  3  1  0  0  0  0
  2  5  1  0  0  0  0
  3  4  1  0  0  0  0
  3 10  1  0  0  0  0
  5  6  1  0  0  0  0
  6  7  1  0  0  0  0
  7  8  1  0  0  0  0
  8  9  1  0  0  0  0
M  END
>  <CHROM.1>
-93.34476842,-169.98442966,-179.43554692,71.93673840,65.19432227,28.74343388
15.53763817,19.85119417,2.58026897,-0.01839883,-2.26080511

>  <Name>
ligand

>  <RI>
0

>  <Rbt.Current_Directory>
/home/itssahil/PROJECTS/Mol_Feturizer/New_Systems/rnas/3DIY

>  <Rbt.Executable>
rbdock ($Id: //depot/dev/client3/rdock/2013.1/src/exe/rbdock.cxx#4 $)

>  <Rbt.Library>
libRbt.so (2013.1, Build901 2013/11/27)

>  <Rbt.Parameter_File>
/export/apps/rDock/src/rDock_2013.1_src/data/scripts/dock_solv.prm

>  <Rbt.Receptor>
prm/pocket_docking_3.prm

>  <SCORE>
-6.12475

>  <SCORE.INTER>
-6.51935

>  <SCORE.INTER.CONST>
1

>  <SCORE.INTER.POLAR>
0

>  <SCORE.INTER.ROT>
5

>  <SCORE.INTER.SOLV>
18.8074

>  <SCORE.INTER.VDW>
-17.5487

>  <SCORE.INTER.norm>
-0.651935

>  <SCORE.INTRA>
0.394601

>  <SCORE.INTRA.DIHEDRAL>
-0.0616595

>  <SCORE.INTRA.DIHEDRAL.0>
2.56603

>  <SCORE.INTRA.POLAR>
0

>  <SCORE.INTRA.POLAR.0>
0

>  <SCORE.INTRA.REPUL>
0

>  <SCORE.INTRA.REPUL.0>
0

>  <SCORE.INTRA.SOLV>
-0.272028

>  <SCORE.INTRA.SOLV.lig_0>
-32.0799

>  <SCORE.INTRA.VDW>
0.561445

>  <SCORE.INTRA.VDW.0>
-0.618248

>  <SCORE.INTRA.norm>
0.0394601

>  <SCORE.RESTR>
0

>  <SCORE.RESTR.CAVITY>
0

>  <SCORE.RESTR.norm>
0

>  <SCORE.SYSTEM>
0

>  <SCORE.SYSTEM.CONST>
0

>  <SCORE.SYSTEM.DIHEDRAL>
0

>  <SCORE.SYSTEM.SOLV>
0

>  <SCORE.SYSTEM.norm>
0

>  <SCORE.heavy>
10

>  <SCORE.norm>
-0.612475

>  <RMSD>
5.303

$$$$
ligand
 OpenBabel11021811473D
libRbt.so/2013.1/901 2013/11/27
 10  9  0  0  0  0  0  0  0  0999 V2000
   28.1580   14.0445   18.4539 N   0  0  0  0  0  0  0  0  0  0  0  0
   28.1106   14.3384   19.9183 C   0  0  2  0  0  0  0  0  0  0  0  0
   26.8673   15.1432   20.3140 C   0  0  0  0  0  0  0  0  0  0  0  0
   26.4705   16.1110   19.6477 O   0  0  0  0  0  0  0  0  0  0  0  0
   29.3932   15.0382   20.3759 C   0  0  0  0  0  0  0  0  0  0  0  0
   29.4555   15.2490   21.8716 C   0  0  0  0  0  0  0  0  0  0  0  0
   30.7858   15.8174   22.3028 C   0  0  0  0  0  0  0  0  0  0  0  0
   30.9548   17.2533   21.8181 C   0  0  0  0  0  0  0  0  0  0  0  0
   32.2878   17.8325   22.1358 N   0  0  0  0  0  0  0  0  0  0  0  0
   26.1926   14.8279   21.2991 O   0  0  0  0  0  0  0  0  0  0  0  0
  2  1  1  6  0  0  0
  2  3  1  0  0  0  0
  2  5  1  0  0  0  0
  3  4  1  0  0  0  0
  3 10  1  0  0  0  0
  5  6  1  0  0  0  0
  6  7  1  0  0  0  0
  7  8  1  0  0  0  0
  8  9  1  0  0  0  0
M  END
>  <CHROM.1>
-43.80329815,-174.81435552,174.46424935,68.81767943,-176.07375283,28.83028927
15.57754144,20.81788924,-2.55519195,0.08728892,0.93049165

>  <Name>
ligand

>  <RI>
0

>  <Rbt.Current_Directory>
/home/itssahil/PROJECTS/Mol_Feturizer/New_Systems/rnas/3DIY

>  <Rbt.Executable>
rbdock ($Id: //depot/dev/client3/rdock/2013.1/src/exe/rbdock.cxx#4 $)

>  <Rbt.Library>
libRbt.so (2013.1, Build901 2013/11/27)

>  <Rbt.Parameter_File>
/export/apps/rDock/src/rDock_2013.1_src/data/scripts/dock_solv.prm

>  <Rbt.Receptor>
prm/pocket_docking_8.prm

>  <SCORE>
-9.08905

>  <SCORE.INTER>
-8.65002

>  <SCORE.INTER.CONST>
1

>  <SCORE.INTER.POLAR>
0

>  <SCORE.INTER.ROT>
5

>  <SCORE.INTER.SOLV>
14.0256

>  <SCORE.INTER.VDW>
-17.3752

>  <SCORE.INTER.norm>
-0.865002

>  <SCORE.INTRA>
-0.439024

>  <SCORE.INTRA.DIHEDRAL>
-0.379697

>  <SCORE.INTRA.DIHEDRAL.0>
2.56603

>  <SCORE.INTRA.POLAR>
0

>  <SCORE.INTRA.POLAR.0>
0

>  <SCORE.INTRA.REPUL>
0

>  <SCORE.INTRA.REPUL.0>
0

>  <SCORE.INTRA.SOLV>
-1.335

>  <SCORE.INTRA.SOLV.lig_0>
-32.0799

>  <SCORE.INTRA.VDW>
0.418326

>  <SCORE.INTRA.VDW.0>
-0.618248

>  <SCORE.INTRA.norm>
-0.0439024

>  <SCORE.RESTR>
0

>  <SCORE.RESTR.CAVITY>
0

>  <SCORE.RESTR.norm>
0

>  <SCORE.SYSTEM>
0

>  <SCORE.SYSTEM.CONST>
0

>  <SCORE.SYSTEM.DIHEDRAL>
0

>  <SCORE.SYSTEM.SOLV>
0

>  <SCORE.SYSTEM.norm>
0

>  <SCORE.heavy>
10

>  <SCORE.norm>
-0.908905

>  <RMSD>
5.306

$$$$
ligand
 OpenBabel11021811473D
libRbt.so/2013.1/901 2013/11/27
 10  9  0  0  0  0  0  0  0  0999 V2000
   26.6351   16.2459   19.5839 N   0  0  0  0  0  0  0  0  0  0  0  0
   27.8584   15.4799   19.1968 C   0  0  2  0  0  0  0  0  0  0  0  0
   27.7701   14.9156   17.7742 C   0  0  0  0  0  0  0  0  0  0  0  0
   28.3729   15.4339   16.8224 O   0  0  0  0  0  0  0  0  0  0  0  0
   28.1548   14.3750   20.2145 C   0  0  0  0  0  0  0  0  0  0  0  0
   28.4644   14.9052   21.5960 C   0  0  0  0  0  0  0  0  0  0  0  0
   29.8926   15.3808   21.7070 C   0  0  0  0  0  0  0  0  0  0  0  0
   30.0807   16.7267   21.0154 C   0  0  0  0  0  0  0  0  0  0  0  0
   31.4771   17.2359   21.0804 N   0  0  0  0  0  0  0  0  0  0  0  0
   27.1183   13.8946   17.5344 O   0  0  0  0  0  0  0  0  0  0  0  0
  2  1  1  1  0  0  0
  2  3  1  0  0  0  0
  2  5  1  0  0  0  0
  3  4  1  0  0  0  0
  3 10  1  0  0  0  0
  5  6  1  0  0  0  0
  6  7  1  0  0  0  0
  7  8  1  0  0  0  0
  8  9  1  0  0  0  0
M  END
>  <CHROM.1>
103.27312239,-63.05090768,-80.45011715,75.69487828,-179.30844183,28.57569860
15.44438240,19.61322359,2.34222343,-0.59893326,-1.46076586

>  <Name>
ligand

>  <RI>
0

>  <Rbt.Current_Directory>
/home/itssahil/PROJECTS/Mol_Feturizer/New_Systems/rnas/3DIY

>  <Rbt.Executable>
rbdock ($Id: //depot/dev/client3/rdock/2013.1/src/exe/rbdock.cxx#4 $)

>  <Rbt.Library>
libRbt.so (2013.1, Build901 2013/11/27)

>  <Rbt.Parameter_File>
/export/apps/rDock/src/rDock_2013.1_src/data/scripts/dock_solv.prm

>  <Rbt.Receptor>
prm/blind_docking_100.prm

>  <SCORE>
-7.16983

>  <SCORE.INTER>
-8.87788

>  <SCORE.INTER.CONST>
1

>  <SCORE.INTER.POLAR>
0

>  <SCORE.INTER.ROT>
5

>  <SCORE.INTER.SOLV>
14.9778

>  <SCORE.INTER.VDW>
-17.8445

>  <SCORE.INTER.norm>
-0.887788

>  <SCORE.INTRA>
1.70805

>  <SCORE.INTRA.DIHEDRAL>
1.65155

>  <SCORE.INTRA.DIHEDRAL.0>
2.56603

>  <SCORE.INTRA.POLAR>
0

>  <SCORE.INTRA.POLAR.0>
0

>  <SCORE.INTRA.REPUL>
0

>  <SCORE.INTRA.REPUL.0>
0

>  <SCORE.INTRA.SOLV>
0.63197

>  <SCORE.INTRA.SOLV.lig_0>
-32.0799

>  <SCORE.INTRA.VDW>
0.566285

>  <SCORE.INTRA.VDW.0>
-0.618248

>  <SCORE.INTRA.norm>
0.170805

>  <SCORE.RESTR>
0

>  <SCORE.RESTR.CAVITY>
0

>  <SCORE.RESTR.norm>
0

>  <SCORE.SYSTEM>
0

>  <SCORE.SYSTEM.CONST>
0

>  <SCORE.SYSTEM.DIHEDRAL>
0

>  <SCORE.SYSTEM.SOLV>
0

>  <SCORE.SYSTEM.norm>
0

>  <SCORE.heavy>
10

>  <SCORE.norm>
-0.716983

>  <RMSD>
5.309

$$$$
ligand
 OpenBabel11021811473D
libRbt.so/2013.1/901 2013/11/27
 10  9  0  0  0  0  0  0  0  0999 V2000
   26.6192   16.2307   19.6286 N   0  0  0  0  0  0  0  0  0  0  0  0
   27.8435   15.4710   19.2325 C   0  0  2  0  0  0  0  0  0  0  0  0
   27.7568   14.9252   17.8026 C   0  0  0  0  0  0  0  0  0  0  0  0
   28.3507   15.4630   16.8560 O   0  0  0  0  0  0  0  0  0  0  0  0
   28.1404   14.3534   20.2359 C   0  0  0  0  0  0  0  0  0  0  0  0
   28.4979   14.8677   21.6118 C   0  0  0  0  0  0  0  0  0  0  0  0
   29.9265   15.3508   21.6760 C   0  0  0  0  0  0  0  0  0  0  0  0
   30.0742   16.7227   21.0268 C   0  0  0  0  0  0  0  0  0  0  0  0
   31.4605   17.2593   21.0852 N   0  0  0  0  0  0  0  0  0  0  0  0
   27.1154   13.9004   17.5509 O   0  0  0  0  0  0  0  0  0  0  0  0
  2  1  1  1  0  0  0
  2  3  1  0  0  0  0
  2  5  1  0  0  0  0
  3  4  1  0  0  0  0
  3 10  1  0  0  0  0
  5  6  1  0  0  0  0
  6  7  1  0  0  0  0
  7  8  1  0  0  0  0
  8  9  1  0  0  0  0
M  END
>  <CHROM.1>
102.65711225,-65.15813690,-78.60891046,77.13739026,178.89896589,28.57172344
15.43988352,19.63128951,2.36305758,-0.61237608,-1.43565205

>  <Name>
ligand

>  <RI>
0

>  <Rbt.Current_Directory>
/home/itssahil/PROJECTS/Mol_Feturizer/New_Systems/rnas/3DIY

>  <Rbt.Executable>
rbdock ($Id: //depot/dev/client3/rdock/2013.1/src/exe/rbdock.cxx#4 $)

>  <Rbt.Library>
libRbt.so (2013.1, Build901 2013/11/27)

>  <Rbt.Parameter_File>
/export/apps/rDock/src/rDock_2013.1_src/data/scripts/dock_solv.prm

>  <Rbt.Receptor>
prm/pocket_docking_6.prm

>  <SCORE>
-7.1225

>  <SCORE.INTER>
-8.79247

>  <SCORE.INTER.CONST>
1

>  <SCORE.INTER.POLAR>
0

>  <SCORE.INTER.ROT>
5

>  <SCORE.INTER.SOLV>
15.0893

>  <SCORE.INTER.VDW>
-17.8248

>  <SCORE.INTER.norm>
-0.879247

>  <SCORE.INTRA>
1.66898

>  <SCORE.INTRA.DIHEDRAL>
1.65172

>  <SCORE.INTRA.DIHEDRAL.0>
2.56603

>  <SCORE.INTRA.POLAR>
0

>  <SCORE.INTRA.POLAR.0>
0

>  <SCORE.INTRA.REPUL>
0

>  <SCORE.INTRA.REPUL.0>
0

>  <SCORE.INTRA.SOLV>
0.596755

>  <SCORE.INTRA.SOLV.lig_0>
-32.0799

>  <SCORE.INTRA.VDW>
0.544739

>  <SCORE.INTRA.VDW.0>
-0.618248

>  <SCORE.INTRA.norm>
0.166898

>  <SCORE.RESTR>
0.000988445

>  <SCORE.RESTR.CAVITY>
0.000988445

>  <SCORE.RESTR.norm>
9.88445e-05

>  <SCORE.SYSTEM>
0

>  <SCORE.SYSTEM.CONST>
0

>  <SCORE.SYSTEM.DIHEDRAL>
0

>  <SCORE.SYSTEM.SOLV>
0

>  <SCORE.SYSTEM.norm>
0

>  <SCORE.heavy>
10

>  <SCORE.norm>
-0.71225

>  <RMSD>
5.309

$$$$
ligand
 OpenBabel11021811473D
libRbt.so/2013.1/901 2013/11/27
 10  9  0  0  0  0  0  0  0  0999 V2000
   27.3981   13.8314   18.4548 N   0  0  0  0  0  0  0  0  0  0  0  0
   28.0589   14.2694   19.7215 C   0  0  2  0  0  0  0  0  0  0  0  0
   27.0863   14.9693   20.6776 C   0  0  0  0  0  0  0  0  0  0  0  0
   25.9645   15.3511   20.3117 O   0  0  0  0  0  0  0  0  0  0  0  0
   29.2760   15.1499   19.4255 C   0  0  0  0  0  0  0  0  0  0  0  0
   30.1128   15.4407   20.6505 C   0  0  0  0  0  0  0  0  0  0  0  0
   31.4016   16.1418   20.2957 C   0  0  0  0  0  0  0  0  0  0  0  0
   32.1589   16.5701   21.5480 C   0  0  0  0  0  0  0  0  0  0  0  0
   31.4855   17.6605   22.3035 N   0  0  0  0  0  0  0  0  0  0  0  0
   27.3773   15.1446   21.8648 O   0  0  0  0  0  0  0  0  0  0  0  0
  2  1  1  6  0  0  0
  2  3  1  0  0  0  0
  2  5  1  0  0  0  0
  3  4  1  0  0  0  0
  3 10  1  0  0  0  0
  5  6  1  0  0  0  0
  6  7  1  0  0  0  0
  7  8  1  0  0  0  0
  8  9  1  0  0  0  0
M  END
>  <CHROM.1>
-13.29923008,-170.76268756,171.94323440,173.51879609,-68.80062845,29.00060497
15.46242979,20.54471518,-2.68466172,0.20993843,1.02212848

>  <Name>
ligand

>  <RI>
0

>  <Rbt.Current_Directory>
/home/itssahil/PROJECTS/Mol_Feturizer/New_Systems/rnas/3DIY

>  <Rbt.Executable>
rbdock ($Id: //depot/dev/client3/rdock/2013.1/src/exe/rbdock.cxx#4 $)

>  <Rbt.Library>
libRbt.so (2013.1, Build901 2013/11/27)

>  <Rbt.Parameter_File>
/export/apps/rDock/src/rDock_2013.1_src/data/scripts/dock_solv.prm

>  <Rbt.Receptor>
prm/blind_docking_60.prm

>  <SCORE>
-8.12585

>  <SCORE.INTER>
-7.80023

>  <SCORE.INTER.CONST>
1

>  <SCORE.INTER.POLAR>
0

>  <SCORE.INTER.ROT>
5

>  <SCORE.INTER.SOLV>
14.6096

>  <SCORE.INTER.VDW>
-17.0034

>  <SCORE.INTER.norm>
-0.780023

>  <SCORE.INTRA>
-0.325623

>  <SCORE.INTRA.DIHEDRAL>
0.0579493

>  <SCORE.INTRA.DIHEDRAL.0>
2.56603

>  <SCORE.INTRA.POLAR>
0

>  <SCORE.INTRA.POLAR.0>
0

>  <SCORE.INTRA.REPUL>
0

>  <SCORE.INTRA.REPUL.0>
0

>  <SCORE.INTRA.SOLV>
-0.722474

>  <SCORE.INTRA.SOLV.lig_0>
-32.0799

>  <SCORE.INTRA.VDW>
0.00663968

>  <SCORE.INTRA.VDW.0>
-0.618248

>  <SCORE.INTRA.norm>
-0.0325623

>  <SCORE.RESTR>
0

>  <SCORE.RESTR.CAVITY>
0

>  <SCORE.RESTR.norm>
0

>  <SCORE.SYSTEM>
0

>  <SCORE.SYSTEM.CONST>
0

>  <SCORE.SYSTEM.DIHEDRAL>
0

>  <SCORE.SYSTEM.SOLV>
0

>  <SCORE.SYSTEM.norm>
0

>  <SCORE.heavy>
10

>  <SCORE.norm>
-0.812585

>  <RMSD>
5.312

$$$$
ligand
 OpenBabel11021811473D
libRbt.so/2013.1/901 2013/11/27
 10  9  0  0  0  0  0  0  0  0999 V2000
   28.5871   14.1941   18.8756 N   0  0  0  0  0  0  0  0  0  0  0  0
   27.8379   14.2615   20.1668 C   0  0  2  0  0  0  0  0  0  0  0  0
   26.6503   15.2288   20.1048 C   0  0  0  0  0  0  0  0  0  0  0  0
   26.7220   16.3222   19.5239 O   0  0  0  0  0  0  0  0  0  0  0  0
   28.7770   14.6095   21.3249 C   0  0  0  0  0  0  0  0  0  0  0  0
   29.5571   15.8842   21.0967 C   0  0  0  0  0  0  0  0  0  0  0  0
   30.4312   16.2258   22.2789 C   0  0  0  0  0  0  0  0  0  0  0  0
   31.2702   17.4689   22.0030 C   0  0  0  0  0  0  0  0  0  0  0  0
   32.3170   17.2589   20.9669 N   0  0  0  0  0  0  0  0  0  0  0  0
   25.5612   14.9316   20.6053 O   0  0  0  0  0  0  0  0  0  0  0  0
  2  1  1  6  0  0  0
  2  3  1  0  0  0  0
  2  5  1  0  0  0  0
  3  4  1  0  0  0  0
  3 10  1  0  0  0  0
  5  6  1  0  0  0  0
  6  7  1  0  0  0  0
  7  8  1  0  0  0  0
  8  9  1  0  0  0  0
M  END
>  <CHROM.1>
-40.40392017,55.09082301,177.76181633,176.77608657,-68.47322979,28.73406697
15.65388041,20.68949245,-2.65599461,0.00369628,0.69732171

>  <Name>
ligand

>  <RI>
0

>  <Rbt.Current_Directory>
/home/itssahil/PROJECTS/Mol_Feturizer/New_Systems/rnas/3DIY

>  <Rbt.Executable>
rbdock ($Id: //depot/dev/client3/rdock/2013.1/src/exe/rbdock.cxx#4 $)

>  <Rbt.Library>
libRbt.so (2013.1, Build901 2013/11/27)

>  <Rbt.Parameter_File>
/export/apps/rDock/src/rDock_2013.1_src/data/scripts/dock_solv.prm

>  <Rbt.Receptor>
prm/blind_docking_80.prm

>  <SCORE>
-8.92984

>  <SCORE.INTER>
-8.66866

>  <SCORE.INTER.CONST>
1

>  <SCORE.INTER.POLAR>
0

>  <SCORE.INTER.ROT>
5

>  <SCORE.INTER.SOLV>
13.362

>  <SCORE.INTER.VDW>
-17.1664

>  <SCORE.INTER.norm>
-0.866866

>  <SCORE.INTRA>
-0.261179

>  <SCORE.INTRA.DIHEDRAL>
-0.527379

>  <SCORE.INTRA.DIHEDRAL.0>
2.56603

>  <SCORE.INTRA.POLAR>
0

>  <SCORE.INTRA.POLAR.0>
0

>  <SCORE.INTRA.REPUL>
0

>  <SCORE.INTRA.REPUL.0>
0

>  <SCORE.INTRA.SOLV>
0.222014

>  <SCORE.INTRA.SOLV.lig_0>
-32.0799

>  <SCORE.INTRA.VDW>
-0.108496

>  <SCORE.INTRA.VDW.0>
-0.618248

>  <SCORE.INTRA.norm>
-0.0261179

>  <SCORE.RESTR>
0

>  <SCORE.RESTR.CAVITY>
0

>  <SCORE.RESTR.norm>
0

>  <SCORE.SYSTEM>
0

>  <SCORE.SYSTEM.CONST>
0

>  <SCORE.SYSTEM.DIHEDRAL>
0

>  <SCORE.SYSTEM.SOLV>
0

>  <SCORE.SYSTEM.norm>
0

>  <SCORE.heavy>
10

>  <SCORE.norm>
-0.892984

>  <RMSD>
5.312

$$$$
ligand
 OpenBabel11021811473D
libRbt.so/2013.1/901 2013/11/27
 10  9  0  0  0  0  0  0  0  0999 V2000
   27.1798   14.3463   18.3129 N   0  0  0  0  0  0  0  0  0  0  0  0
   27.8137   14.8273   19.5778 C   0  0  2  0  0  0  0  0  0  0  0  0
   26.8007   14.9841   20.7176 C   0  0  0  0  0  0  0  0  0  0  0  0
   27.1549   15.1251   21.8977 O   0  0  0  0  0  0  0  0  0  0  0  0
   28.5872   16.1271   19.3402 C   0  0  0  0  0  0  0  0  0  0  0  0
   29.3629   16.5887   20.5529 C   0  0  0  0  0  0  0  0  0  0  0  0
   30.4343   15.5996   20.9430 C   0  0  0  0  0  0  0  0  0  0  0  0
   31.2224   16.0894   22.1531 C   0  0  0  0  0  0  0  0  0  0  0  0
   31.9868   17.3394   21.8955 N   0  0  0  0  0  0  0  0  0  0  0  0
   25.5872   15.0119   20.4906 O   0  0  0  0  0  0  0  0  0  0  0  0
  2  1  1  6  0  0  0
  2  3  1  0  0  0  0
  2  5  1  0  0  0  0
  3  4  1  0  0  0  0
  3 10  1  0  0  0  0
  5  6  1  0  0  0  0
  6  7  1  0  0  0  0
  7  8  1  0  0  0  0
  8  9  1  0  0  0  0
M  END
>  <CHROM.1>
166.12712620,-174.30565119,63.24232812,179.07674446,-64.02927310,28.58161136
15.60323845,20.61058028,-2.76827818,0.31547570,1.43855629

>  <Name>
ligand

>  <RI>
0

>  <Rbt.Current_Directory>
/home/itssahil/PROJECTS/Mol_Feturizer/New_Systems/rnas/3DIY

>  <Rbt.Executable>
rbdock ($Id: //depot/dev/client3/rdock/2013.1/src/exe/rbdock.cxx#4 $)

>  <Rbt.Library>
libRbt.so (2013.1, Build901 2013/11/27)

>  <Rbt.Parameter_File>
/export/apps/rDock/src/rDock_2013.1_src/data/scripts/dock_solv.prm

>  <Rbt.Receptor>
prm/pocket_docking_7.prm

>  <SCORE>
-9.85557

>  <SCORE.INTER>
-9.62882

>  <SCORE.INTER.CONST>
1

>  <SCORE.INTER.POLAR>
0

>  <SCORE.INTER.ROT>
5

>  <SCORE.INTER.SOLV>
13.5653

>  <SCORE.INTER.VDW>
-17.8743

>  <SCORE.INTER.norm>
-0.962882

>  <SCORE.INTRA>
-0.226752

>  <SCORE.INTRA.DIHEDRAL>
-0.86209

>  <SCORE.INTRA.DIHEDRAL.0>
2.56603

>  <SCORE.INTRA.POLAR>
0

>  <SCORE.INTRA.POLAR.0>
0

>  <SCORE.INTRA.REPUL>
0

>  <SCORE.INTRA.REPUL.0>
0

>  <SCORE.INTRA.SOLV>
-0.40936

>  <SCORE.INTRA.SOLV.lig_0>
-32.0799

>  <SCORE.INTRA.VDW>
0.408972

>  <SCORE.INTRA.VDW.0>
-0.618248

>  <SCORE.INTRA.norm>
-0.0226752

>  <SCORE.RESTR>
0

>  <SCORE.RESTR.CAVITY>
0

>  <SCORE.RESTR.norm>
0

>  <SCORE.SYSTEM>
0

>  <SCORE.SYSTEM.CONST>
0

>  <SCORE.SYSTEM.DIHEDRAL>
0

>  <SCORE.SYSTEM.SOLV>
0

>  <SCORE.SYSTEM.norm>
0

>  <SCORE.heavy>
10

>  <SCORE.norm>
-0.985557

>  <RMSD>
5.313

$$$$
ligand
 OpenBabel11021811473D
libRbt.so/2013.1/901 2013/11/27
 10  9  0  0  0  0  0  0  0  0999 V2000
   29.3837   14.9319   19.0392 N   0  0  0  0  0  0  0  0  0  0  0  0
   28.1732   14.6575   19.8713 C   0  0  2  0  0  0  0  0  0  0  0  0
   26.8697   14.8292   19.0830 C   0  0  0  0  0  0  0  0  0  0  0  0
   25.9144   15.4843   19.5261 O   0  0  0  0  0  0  0  0  0  0  0  0
   28.1742   15.5199   21.1364 C   0  0  0  0  0  0  0  0  0  0  0  0
   29.2379   15.1159   22.1317 C   0  0  0  0  0  0  0  0  0  0  0  0
   30.6218   15.4815   21.6525 C   0  0  0  0  0  0  0  0  0  0  0  0
   30.8477   16.9882   21.7178 C   0  0  0  0  0  0  0  0  0  0  0  0
   32.2220   17.3986   21.3229 N   0  0  0  0  0  0  0  0  0  0  0  0
   26.7410   14.3461   17.9539 O   0  0  0  0  0  0  0  0  0  0  0  0
  2  1  1  6  0  0  0
  2  3  1  0  0  0  0
  2  5  1  0  0  0  0
  3  4  1  0  0  0  0
  3 10  1  0  0  0  0
  5  6  1  0  0  0  0
  6  7  1  0  0  0  0
  7  8  1  0  0  0  0
  8  9  1  0  0  0  0
M  END
>  <CHROM.1>
-131.91547144,-69.93003139,71.43500383,72.11388682,177.01034940,28.78079659
15.47452375,20.32009114,-2.56621141,0.27658035,1.39167362

>  <Name>
ligand

>  <RI>
0

>  <Rbt.Current_Directory>
/home/itssahil/PROJECTS/Mol_Feturizer/New_Systems/rnas/3DIY

>  <Rbt.Executable>
rbdock ($Id: //depot/dev/client3/rdock/2013.1/src/exe/rbdock.cxx#4 $)

>  <Rbt.Library>
libRbt.so (2013.1, Build901 2013/11/27)

>  <Rbt.Parameter_File>
/export/apps/rDock/src/rDock_2013.1_src/data/scripts/dock_solv.prm

>  <Rbt.Receptor>
prm/pocket_docking_2.prm

>  <SCORE>
-6.69075

>  <SCORE.INTER>
-8.84318

>  <SCORE.INTER.CONST>
1

>  <SCORE.INTER.POLAR>
0

>  <SCORE.INTER.ROT>
5

>  <SCORE.INTER.SOLV>
11.7178

>  <SCORE.INTER.VDW>
-16.7347

>  <SCORE.INTER.norm>
-0.884318

>  <SCORE.INTRA>
2.13523

>  <SCORE.INTRA.DIHEDRAL>
0.58704

>  <SCORE.INTRA.DIHEDRAL.0>
2.56603

>  <SCORE.INTRA.POLAR>
0

>  <SCORE.INTRA.POLAR.0>
0

>  <SCORE.INTRA.REPUL>
0

>  <SCORE.INTRA.REPUL.0>
0

>  <SCORE.INTRA.SOLV>
1.25985

>  <SCORE.INTRA.SOLV.lig_0>
-32.0799

>  <SCORE.INTRA.VDW>
1.21179

>  <SCORE.INTRA.VDW.0>
-0.618248

>  <SCORE.INTRA.norm>
0.213523

>  <SCORE.RESTR>
0.017199

>  <SCORE.RESTR.CAVITY>
0.017199

>  <SCORE.RESTR.norm>
0.0017199

>  <SCORE.SYSTEM>
0

>  <SCORE.SYSTEM.CONST>
0

>  <SCORE.SYSTEM.DIHEDRAL>
0

>  <SCORE.SYSTEM.SOLV>
0

>  <SCORE.SYSTEM.norm>
0

>  <SCORE.heavy>
10

>  <SCORE.norm>
-0.669075

>  <RMSD>
5.322

$$$$
ligand
 OpenBabel11021811473D
libRbt.so/2013.1/901 2013/11/27
 10  9  0  0  0  0  0  0  0  0999 V2000
   27.0168   14.0418   18.3484 N   0  0  0  0  0  0  0  0  0  0  0  0
   27.6591   14.8082   19.4588 C   0  0  2  0  0  0  0  0  0  0  0  0
   26.7581   14.9150   20.6944 C   0  0  0  0  0  0  0  0  0  0  0  0
   27.2218   14.9964   21.8417 O   0  0  0  0  0  0  0  0  0  0  0  0
   28.1082   16.1910   18.9786 C   0  0  0  0  0  0  0  0  0  0  0  0
   29.0046   16.9024   19.9664 C   0  0  0  0  0  0  0  0  0  0  0  0
   30.3066   16.1671   20.1725 C   0  0  0  0  0  0  0  0  0  0  0  0
   31.2294   16.9335   21.1141 C   0  0  0  0  0  0  0  0  0  0  0  0
   30.6801   17.0845   22.4884 N   0  0  0  0  0  0  0  0  0  0  0  0
   25.5291   14.9605   20.5832 O   0  0  0  0  0  0  0  0  0  0  0  0
  2  1  1  6  0  0  0
  2  3  1  0  0  0  0
  2  5  1  0  0  0  0
  3  4  1  0  0  0  0
  3 10  1  0  0  0  0
  5  6  1  0  0  0  0
  6  7  1  0  0  0  0
  7  8  1  0  0  0  0
  8  9  1  0  0  0  0
M  END
>  <CHROM.1>
150.10983598,-168.45433444,63.84825771,177.01640593,63.20536412,28.32371075
15.69747902,20.39009588,-2.78706077,0.43886499,1.42572837

>  <Name>
ligand

>  <RI>
0

>  <Rbt.Current_Directory>
/home/itssahil/PROJECTS/Mol_Feturizer/New_Systems/rnas/3DIY

>  <Rbt.Executable>
rbdock ($Id: //depot/dev/client3/rdock/2013.1/src/exe/rbdock.cxx#4 $)

>  <Rbt.Library>
libRbt.so (2013.1, Build901 2013/11/27)

>  <Rbt.Parameter_File>
/export/apps/rDock/src/rDock_2013.1_src/data/scripts/dock_solv.prm

>  <Rbt.Receptor>
prm/pocket_docking_5.prm

>  <SCORE>
-9.25624

>  <SCORE.INTER>
-8.82286

>  <SCORE.INTER.CONST>
1

>  <SCORE.INTER.POLAR>
0

>  <SCORE.INTER.ROT>
5

>  <SCORE.INTER.SOLV>
15.4944

>  <SCORE.INTER.VDW>
-17.9801

>  <SCORE.INTER.norm>
-0.882286

>  <SCORE.INTRA>
-0.433383

>  <SCORE.INTRA.DIHEDRAL>
-0.489429

>  <SCORE.INTRA.DIHEDRAL.0>
2.56603

>  <SCORE.INTRA.POLAR>
0

>  <SCORE.INTRA.POLAR.0>
0

>  <SCORE.INTRA.REPUL>
0

>  <SCORE.INTRA.REPUL.0>
0

>  <SCORE.INTRA.SOLV>
-0.383715

>  <SCORE.INTRA.SOLV.lig_0>
-32.0799

>  <SCORE.INTRA.VDW>
0.00318889

>  <SCORE.INTRA.VDW.0>
-0.618248

>  <SCORE.INTRA.norm>
-0.0433383

>  <SCORE.RESTR>
0

>  <SCORE.RESTR.CAVITY>
0

>  <SCORE.RESTR.norm>
0

>  <SCORE.SYSTEM>
0

>  <SCORE.SYSTEM.CONST>
0

>  <SCORE.SYSTEM.DIHEDRAL>
0

>  <SCORE.SYSTEM.SOLV>
0

>  <SCORE.SYSTEM.norm>
0

>  <SCORE.heavy>
10

>  <SCORE.norm>
-0.925624

>  <RMSD>
5.324

$$$$
ligand
 OpenBabel11021811473D
libRbt.so/2013.1/901 2013/11/27
 10  9  0  0  0  0  0  0  0  0999 V2000
   27.1035   14.3946   18.2575 N   0  0  0  0  0  0  0  0  0  0  0  0
   27.7562   14.9038   19.5016 C   0  0  2  0  0  0  0  0  0  0  0  0
   26.7839   14.9788   20.6843 C   0  0  0  0  0  0  0  0  0  0  0  0
   27.1795   15.0524   21.8574 O   0  0  0  0  0  0  0  0  0  0  0  0
   28.4292   16.2559   19.2501 C   0  0  0  0  0  0  0  0  0  0  0  0
   29.2793   16.7229   20.4097 C   0  0  0  0  0  0  0  0  0  0  0  0
   30.4314   15.7842   20.6741 C   0  0  0  0  0  0  0  0  0  0  0  0
   31.2039   16.1975   21.9222 C   0  0  0  0  0  0  0  0  0  0  0  0
   31.8193   17.5479   21.8177 N   0  0  0  0  0  0  0  0  0  0  0  0
   25.5627   15.0053   20.5030 O   0  0  0  0  0  0  0  0  0  0  0  0
  2  1  1  6  0  0  0
  2  3  1  0  0  0  0
  2  5  1  0  0  0  0
  3  4  1  0  0  0  0
  3 10  1  0  0  0  0
  5  6  1  0  0  0  0
  6  7  1  0  0  0  0
  7  8  1  0  0  0  0
  8  9  1  0  0  0  0
M  END
>  <CHROM.1>
161.83987566,-171.38299747,62.89958693,-174.81904789,-61.74297931,28.52457574
15.68156984,20.51147605,-2.80273554,0.36420359,1.47409843

>  <Name>
ligand

>  <RI>
0

>  <Rbt.Current_Directory>
/home/itssahil/PROJECTS/Mol_Feturizer/New_Systems/rnas/3DIY

>  <Rbt.Executable>
rbdock ($Id: //depot/dev/client3/rdock/2013.1/src/exe/rbdock.cxx#4 $)

>  <Rbt.Library>
libRbt.so (2013.1, Build901 2013/11/27)

>  <Rbt.Parameter_File>
/export/apps/rDock/src/rDock_2013.1_src/data/scripts/dock_solv.prm

>  <Rbt.Receptor>
prm/pocket_docking_5.prm

>  <SCORE>
-9.91256

>  <SCORE.INTER>
-9.6563

>  <SCORE.INTER.CONST>
1

>  <SCORE.INTER.POLAR>
0

>  <SCORE.INTER.ROT>
5

>  <SCORE.INTER.SOLV>
13.7912

>  <SCORE.INTER.VDW>
-17.9679

>  <SCORE.INTER.norm>
-0.96563

>  <SCORE.INTRA>
-0.25626

>  <SCORE.INTRA.DIHEDRAL>
-0.67105

>  <SCORE.INTRA.DIHEDRAL.0>
2.56603

>  <SCORE.INTRA.POLAR>
0

>  <SCORE.INTRA.POLAR.0>
0

>  <SCORE.INTRA.REPUL>
0

>  <SCORE.INTRA.REPUL.0>
0

>  <SCORE.INTRA.SOLV>
-0.383154

>  <SCORE.INTRA.SOLV.lig_0>
-32.0799

>  <SCORE.INTRA.VDW>
0.270842

>  <SCORE.INTRA.VDW.0>
-0.618248

>  <SCORE.INTRA.norm>
-0.025626

>  <SCORE.RESTR>
0

>  <SCORE.RESTR.CAVITY>
0

>  <SCORE.RESTR.norm>
0

>  <SCORE.SYSTEM>
0

>  <SCORE.SYSTEM.CONST>
0

>  <SCORE.SYSTEM.DIHEDRAL>
0

>  <SCORE.SYSTEM.SOLV>
0

>  <SCORE.SYSTEM.norm>
0

>  <SCORE.heavy>
10

>  <SCORE.norm>
-0.991256

>  <RMSD>
5.325

$$$$
ligand
 OpenBabel11021811473D
libRbt.so/2013.1/901 2013/11/27
 10  9  0  0  0  0  0  0  0  0999 V2000
   27.2189   15.0873   21.9332 N   0  0  0  0  0  0  0  0  0  0  0  0
   28.0328   15.7859   20.8927 C   0  0  2  0  0  0  0  0  0  0  0  0
   27.2902   15.9152   19.5578 C   0  0  0  0  0  0  0  0  0  0  0  0
   27.8392   16.3643   18.5406 O   0  0  0  0  0  0  0  0  0  0  0  0
   29.3888   15.0992   20.7091 C   0  0  0  0  0  0  0  0  0  0  0  0
   30.2397   15.1172   21.9585 C   0  0  0  0  0  0  0  0  0  0  0  0
   30.7381   16.5059   22.2775 C   0  0  0  0  0  0  0  0  0  0  0  0
   31.8662   16.9161   21.3371 C   0  0  0  0  0  0  0  0  0  0  0  0
   32.5033   18.2091   21.7052 N   0  0  0  0  0  0  0  0  0  0  0  0
   26.1200   15.5383   19.4420 O   0  0  0  0  0  0  0  0  0  0  0  0
  2  1  1  1  0  0  0
  2  3  1  0  0  0  0
  2  5  1  0  0  0  0
  3  4  1  0  0  0  0
  3 10  1  0  0  0  0
  5  6  1  0  0  0  0
  6  7  1  0  0  0  0
  7  8  1  0  0  0  0
  8  9  1  0  0  0  0
M  END
>  <CHROM.1>
-173.86553443,-61.95880720,-70.00202938,-74.97800305,-173.22919620,29.09754819
16.05471567,20.80138131,2.95237000,-0.44284569,-1.02951175

>  <Name>
ligand

>  <RI>
0

>  <Rbt.Current_Directory>
/home/itssahil/PROJECTS/Mol_Feturizer/New_Systems/rnas/3DIY

>  <Rbt.Executable>
rbdock ($Id: //depot/dev/client3/rdock/2013.1/src/exe/rbdock.cxx#4 $)

>  <Rbt.Library>
libRbt.so (2013.1, Build901 2013/11/27)

>  <Rbt.Parameter_File>
/export/apps/rDock/src/rDock_2013.1_src/data/scripts/dock_solv.prm

>  <Rbt.Receptor>
prm/pocket_docking_3.prm

>  <SCORE>
-5.88335

>  <SCORE.INTER>
-6.71498

>  <SCORE.INTER.CONST>
1

>  <SCORE.INTER.POLAR>
0

>  <SCORE.INTER.ROT>
5

>  <SCORE.INTER.SOLV>
16.9252

>  <SCORE.INTER.VDW>
-17.0517

>  <SCORE.INTER.norm>
-0.671498

>  <SCORE.INTRA>
0.831631

>  <SCORE.INTRA.DIHEDRAL>
0.486869

>  <SCORE.INTRA.DIHEDRAL.0>
2.56603

>  <SCORE.INTRA.POLAR>
0

>  <SCORE.INTRA.POLAR.0>
0

>  <SCORE.INTRA.REPUL>
0

>  <SCORE.INTRA.REPUL.0>
0

>  <SCORE.INTRA.SOLV>
-0.0503495

>  <SCORE.INTRA.SOLV.lig_0>
-32.0799

>  <SCORE.INTRA.VDW>
0.613372

>  <SCORE.INTRA.VDW.0>
-0.618248

>  <SCORE.INTRA.norm>
0.0831631

>  <SCORE.RESTR>
0

>  <SCORE.RESTR.CAVITY>
0

>  <SCORE.RESTR.norm>
0

>  <SCORE.SYSTEM>
0

>  <SCORE.SYSTEM.CONST>
0

>  <SCORE.SYSTEM.DIHEDRAL>
0

>  <SCORE.SYSTEM.SOLV>
0

>  <SCORE.SYSTEM.norm>
0

>  <SCORE.heavy>
10

>  <SCORE.norm>
-0.588335

>  <RMSD>
5.326

$$$$
ligand
 OpenBabel11021811473D
libRbt.so/2013.1/901 2013/11/27
 10  9  0  0  0  0  0  0  0  0999 V2000
   27.1549   14.3396   18.3117 N   0  0  0  0  0  0  0  0  0  0  0  0
   27.7875   14.8155   19.5791 C   0  0  2  0  0  0  0  0  0  0  0  0
   26.7725   14.9721   20.7172 C   0  0  0  0  0  0  0  0  0  0  0  0
   25.5507   15.0121   20.5082 O   0  0  0  0  0  0  0  0  0  0  0  0
   28.5650   16.1138   19.3466 C   0  0  0  0  0  0  0  0  0  0  0  0
   29.3535   16.5607   20.5566 C   0  0  0  0  0  0  0  0  0  0  0  0
   30.4292   15.5673   20.9231 C   0  0  0  0  0  0  0  0  0  0  0  0
   31.2353   16.0463   22.1256 C   0  0  0  0  0  0  0  0  0  0  0  0
   31.9719   17.3148   21.8774 N   0  0  0  0  0  0  0  0  0  0  0  0
   27.1407   15.0274   21.8946 O   0  0  0  0  0  0  0  0  0  0  0  0
  2  1  1  6  0  0  0
  2  3  1  0  0  0  0
  2  5  1  0  0  0  0
  3  4  1  0  0  0  0
  3 10  1  0  0  0  0
  5  6  1  0  0  0  0
  6  7  1  0  0  0  0
  7  8  1  0  0  0  0
  8  9  1  0  0  0  0
M  END
>  <CHROM.1>
-16.20785408,-173.57237046,63.60458748,178.74112879,-62.66970404,28.56476528
15.57537947,20.60669229,-2.78234570,0.31749763,1.45548466

>  <Name>
ligand

>  <RI>
0

>  <Rbt.Current_Directory>
/home/itssahil/PROJECTS/Mol_Feturizer/New_Systems/rnas/3DIY

>  <Rbt.Executable>
rbdock ($Id: //depot/dev/client3/rdock/2013.1/src/exe/rbdock.cxx#4 $)

>  <Rbt.Library>
libRbt.so (2013.1, Build901 2013/11/27)

>  <Rbt.Parameter_File>
/export/apps/rDock/src/rDock_2013.1_src/data/scripts/dock_solv.prm

>  <Rbt.Receptor>
prm/pocket_docking_7.prm

>  <SCORE>
-9.92592

>  <SCORE.INTER>
-9.69617

>  <SCORE.INTER.CONST>
1

>  <SCORE.INTER.POLAR>
0

>  <SCORE.INTER.ROT>
5

>  <SCORE.INTER.SOLV>
13.6584

>  <SCORE.INTER.VDW>
-17.9503

>  <SCORE.INTER.norm>
-0.969617

>  <SCORE.INTRA>
-0.229749

>  <SCORE.INTRA.DIHEDRAL>
-0.736528

>  <SCORE.INTRA.DIHEDRAL.0>
2.56603

>  <SCORE.INTRA.POLAR>
0

>  <SCORE.INTRA.POLAR.0>
0

>  <SCORE.INTRA.REPUL>
0

>  <SCORE.INTRA.REPUL.0>
0

>  <SCORE.INTRA.SOLV>
-0.386617

>  <SCORE.INTRA.SOLV.lig_0>
-32.0799

>  <SCORE.INTRA.VDW>
0.331823

>  <SCORE.INTRA.VDW.0>
-0.618248

>  <SCORE.INTRA.norm>
-0.0229749

>  <SCORE.RESTR>
0

>  <SCORE.RESTR.CAVITY>
0

>  <SCORE.RESTR.norm>
0

>  <SCORE.SYSTEM>
0

>  <SCORE.SYSTEM.CONST>
0

>  <SCORE.SYSTEM.DIHEDRAL>
0

>  <SCORE.SYSTEM.SOLV>
0

>  <SCORE.SYSTEM.norm>
0

>  <SCORE.heavy>
10

>  <SCORE.norm>
-0.992592

>  <RMSD>
5.326

$$$$
ligand
 OpenBabel11021811473D
libRbt.so/2013.1/901 2013/11/27
 10  9  0  0  0  0  0  0  0  0999 V2000
   27.3170   13.8843   18.4903 N   0  0  0  0  0  0  0  0  0  0  0  0
   28.0080   14.2871   19.7526 C   0  0  2  0  0  0  0  0  0  0  0  0
   27.0503   14.9214   20.7677 C   0  0  0  0  0  0  0  0  0  0  0  0
   25.8811   15.2138   20.4753 O   0  0  0  0  0  0  0  0  0  0  0  0
   29.1924   15.2107   19.4551 C   0  0  0  0  0  0  0  0  0  0  0  0
   30.0753   15.4533   20.6580 C   0  0  0  0  0  0  0  0  0  0  0  0
   31.3358   16.1965   20.2876 C   0  0  0  0  0  0  0  0  0  0  0  0
   32.1284   16.5905   21.5293 C   0  0  0  0  0  0  0  0  0  0  0  0
   31.4835   17.6687   22.3261 N   0  0  0  0  0  0  0  0  0  0  0  0
   27.4047   15.1303   21.9320 O   0  0  0  0  0  0  0  0  0  0  0  0
  2  1  1  6  0  0  0
  2  3  1  0  0  0  0
  2  5  1  0  0  0  0
  3  4  1  0  0  0  0
  3 10  1  0  0  0  0
  5  6  1  0  0  0  0
  6  7  1  0  0  0  0
  7  8  1  0  0  0  0
  8  9  1  0  0  0  0
M  END
>  <CHROM.1>
-8.82824969,-169.74490782,171.64823125,172.71994086,-70.85262523,28.95665528
15.46361845,20.58818509,-2.70519342,0.24492761,1.06038625

>  <Name>
ligand

>  <RI>
0

>  <Rbt.Current_Directory>
/home/itssahil/PROJECTS/Mol_Feturizer/New_Systems/rnas/3DIY

>  <Rbt.Executable>
rbdock ($Id: //depot/dev/client3/rdock/2013.1/src/exe/rbdock.cxx#4 $)

>  <Rbt.Library>
libRbt.so (2013.1, Build901 2013/11/27)

>  <Rbt.Parameter_File>
/export/apps/rDock/src/rDock_2013.1_src/data/scripts/dock_solv.prm

>  <Rbt.Receptor>
prm/pocket_docking_2.prm

>  <SCORE>
-8.08759

>  <SCORE.INTER>
-7.92415

>  <SCORE.INTER.CONST>
1

>  <SCORE.INTER.POLAR>
0

>  <SCORE.INTER.ROT>
5

>  <SCORE.INTER.SOLV>
14.7523

>  <SCORE.INTER.VDW>
-17.1335

>  <SCORE.INTER.norm>
-0.792415

>  <SCORE.INTRA>
-0.163448

>  <SCORE.INTRA.DIHEDRAL>
0.326478

>  <SCORE.INTRA.DIHEDRAL.0>
2.56603

>  <SCORE.INTRA.POLAR>
0

>  <SCORE.INTRA.POLAR.0>
0

>  <SCORE.INTRA.REPUL>
0

>  <SCORE.INTRA.REPUL.0>
0

>  <SCORE.INTRA.SOLV>
-0.74472

>  <SCORE.INTRA.SOLV.lig_0>
-32.0799

>  <SCORE.INTRA.VDW>
0.0456733

>  <SCORE.INTRA.VDW.0>
-0.618248

>  <SCORE.INTRA.norm>
-0.0163448

>  <SCORE.RESTR>
0

>  <SCORE.RESTR.CAVITY>
0

>  <SCORE.RESTR.norm>
0

>  <SCORE.SYSTEM>
0

>  <SCORE.SYSTEM.CONST>
0

>  <SCORE.SYSTEM.DIHEDRAL>
0

>  <SCORE.SYSTEM.SOLV>
0

>  <SCORE.SYSTEM.norm>
0

>  <SCORE.heavy>
10

>  <SCORE.norm>
-0.808759

>  <RMSD>
5.328

$$$$
ligand
 OpenBabel11021811473D
libRbt.so/2013.1/901 2013/11/27
 10  9  0  0  0  0  0  0  0  0999 V2000
   26.9871   14.0232   18.3440 N   0  0  0  0  0  0  0  0  0  0  0  0
   27.6393   14.7884   19.4495 C   0  0  2  0  0  0  0  0  0  0  0  0
   26.7393   14.9155   20.6840 C   0  0  0  0  0  0  0  0  0  0  0  0
   27.2042   15.0267   21.8283 O   0  0  0  0  0  0  0  0  0  0  0  0
   28.1071   16.1618   18.9602 C   0  0  0  0  0  0  0  0  0  0  0  0
   28.9668   16.8916   19.9670 C   0  0  0  0  0  0  0  0  0  0  0  0
   30.2847   16.1909   20.1914 C   0  0  0  0  0  0  0  0  0  0  0  0
   31.1603   16.9644   21.1714 C   0  0  0  0  0  0  0  0  0  0  0  0
   30.5510   17.1125   22.5205 N   0  0  0  0  0  0  0  0  0  0  0  0
   25.5098   14.9483   20.5739 O   0  0  0  0  0  0  0  0  0  0  0  0
  2  1  1  6  0  0  0
  2  3  1  0  0  0  0
  2  5  1  0  0  0  0
  3  4  1  0  0  0  0
  3 10  1  0  0  0  0
  5  6  1  0  0  0  0
  6  7  1  0  0  0  0
  7  8  1  0  0  0  0
  8  9  1  0  0  0  0
M  END
>  <CHROM.1>
151.65738588,-170.79319560,66.26449877,177.99851431,61.13865757,28.28742350
15.70015716,20.39433172,-2.76248170,0.44358323,1.40701138

>  <Name>
ligand

>  <RI>
0

>  <Rbt.Current_Directory>
/home/itssahil/PROJECTS/Mol_Feturizer/New_Systems/rnas/3DIY

>  <Rbt.Executable>
rbdock ($Id: //depot/dev/client3/rdock/2013.1/src/exe/rbdock.cxx#4 $)

>  <Rbt.Library>
libRbt.so (2013.1, Build901 2013/11/27)

>  <Rbt.Parameter_File>
/export/apps/rDock/src/rDock_2013.1_src/data/scripts/dock_solv.prm

>  <Rbt.Receptor>
prm/pocket_docking_7.prm

>  <SCORE>
-9.30597

>  <SCORE.INTER>
-8.81667

>  <SCORE.INTER.CONST>
1

>  <SCORE.INTER.POLAR>
0

>  <SCORE.INTER.ROT>
5

>  <SCORE.INTER.SOLV>
15.8446

>  <SCORE.INTER.VDW>
-18.0927

>  <SCORE.INTER.norm>
-0.881667

>  <SCORE.INTRA>
-0.489307

>  <SCORE.INTRA.DIHEDRAL>
-0.616753

>  <SCORE.INTRA.DIHEDRAL.0>
2.56603

>  <SCORE.INTRA.POLAR>
0

>  <SCORE.INTRA.POLAR.0>
0

>  <SCORE.INTRA.REPUL>
0

>  <SCORE.INTRA.REPUL.0>
0

>  <SCORE.INTRA.SOLV>
-0.381692

>  <SCORE.INTRA.SOLV.lig_0>
-32.0799

>  <SCORE.INTRA.VDW>
0.00991603

>  <SCORE.INTRA.VDW.0>
-0.618248

>  <SCORE.INTRA.norm>
-0.0489307

>  <SCORE.RESTR>
0

>  <SCORE.RESTR.CAVITY>
0

>  <SCORE.RESTR.norm>
0

>  <SCORE.SYSTEM>
0

>  <SCORE.SYSTEM.CONST>
0

>  <SCORE.SYSTEM.DIHEDRAL>
0

>  <SCORE.SYSTEM.SOLV>
0

>  <SCORE.SYSTEM.norm>
0

>  <SCORE.heavy>
10

>  <SCORE.norm>
-0.930597

>  <RMSD>
5.328

$$$$
ligand
 OpenBabel11021811473D
libRbt.so/2013.1/901 2013/11/27
 10  9  0  0  0  0  0  0  0  0999 V2000
   27.9159   15.1123   18.6152 N   0  0  0  0  0  0  0  0  0  0  0  0
   28.0441   14.6233   20.0214 C   0  0  2  0  0  0  0  0  0  0  0  0
   26.8265   14.9840   20.8801 C   0  0  0  0  0  0  0  0  0  0  0  0
   25.6922   15.1072   20.3943 O   0  0  0  0  0  0  0  0  0  0  0  0
   29.3415   15.1286   20.6583 C   0  0  0  0  0  0  0  0  0  0  0  0
   29.4778   16.6336   20.6186 C   0  0  0  0  0  0  0  0  0  0  0  0
   30.8144   17.0899   21.1512 C   0  0  0  0  0  0  0  0  0  0  0  0
   31.9443   16.7167   20.1975 C   0  0  0  0  0  0  0  0  0  0  0  0
   33.2849   17.1607   20.6652 N   0  0  0  0  0  0  0  0  0  0  0  0
   26.9307   15.1294   22.1019 O   0  0  0  0  0  0  0  0  0  0  0  0
  2  1  1  6  0  0  0
  2  3  1  0  0  0  0
  2  5  1  0  0  0  0
  3  4  1  0  0  0  0
  3 10  1  0  0  0  0
  5  6  1  0  0  0  0
  6  7  1  0  0  0  0
  7  8  1  0  0  0  0
  8  9  1  0  0  0  0
M  END
>  <CHROM.1>
29.44563323,55.76651550,-175.35020343,70.10298009,179.17863833,28.98932049
15.76968182,20.54932505,-3.05972684,0.33388484,1.32128547

>  <Name>
ligand

>  <RI>
0

>  <Rbt.Current_Directory>
/home/itssahil/PROJECTS/Mol_Feturizer/New_Systems/rnas/3DIY

>  <Rbt.Executable>
rbdock ($Id: //depot/dev/client3/rdock/2013.1/src/exe/rbdock.cxx#4 $)

>  <Rbt.Library>
libRbt.so (2013.1, Build901 2013/11/27)

>  <Rbt.Parameter_File>
/export/apps/rDock/src/rDock_2013.1_src/data/scripts/dock_solv.prm

>  <Rbt.Receptor>
prm/blind_docking_60.prm

>  <SCORE>
-9.07165

>  <SCORE.INTER>
-9.6462

>  <SCORE.INTER.CONST>
1

>  <SCORE.INTER.POLAR>
0

>  <SCORE.INTER.ROT>
5

>  <SCORE.INTER.SOLV>
12.7543

>  <SCORE.INTER.VDW>
-17.6156

>  <SCORE.INTER.norm>
-0.96462

>  <SCORE.INTRA>
0.574553

>  <SCORE.INTRA.DIHEDRAL>
-0.506504

>  <SCORE.INTRA.DIHEDRAL.0>
2.56603

>  <SCORE.INTRA.POLAR>
0

>  <SCORE.INTRA.POLAR.0>
0

>  <SCORE.INTRA.REPUL>
0

>  <SCORE.INTRA.REPUL.0>
0

>  <SCORE.INTRA.SOLV>
-0.318273

>  <SCORE.INTRA.SOLV.lig_0>
-32.0799

>  <SCORE.INTRA.VDW>
0.986942

>  <SCORE.INTRA.VDW.0>
-0.618248

>  <SCORE.INTRA.norm>
0.0574553

>  <SCORE.RESTR>
0

>  <SCORE.RESTR.CAVITY>
0

>  <SCORE.RESTR.norm>
0

>  <SCORE.SYSTEM>
0

>  <SCORE.SYSTEM.CONST>
0

>  <SCORE.SYSTEM.DIHEDRAL>
0

>  <SCORE.SYSTEM.SOLV>
0

>  <SCORE.SYSTEM.norm>
0

>  <SCORE.heavy>
10

>  <SCORE.norm>
-0.907165

>  <RMSD>
5.329

$$$$
ligand
 OpenBabel11021811473D
libRbt.so/2013.1/901 2013/11/27
 10  9  0  0  0  0  0  0  0  0999 V2000
   27.4592   13.8179   18.5417 N   0  0  0  0  0  0  0  0  0  0  0  0
   27.9404   14.7447   19.6106 C   0  0  2  0  0  0  0  0  0  0  0  0
   26.8961   14.9612   20.7117 C   0  0  0  0  0  0  0  0  0  0  0  0
   25.6805   14.9934   20.4682 O   0  0  0  0  0  0  0  0  0  0  0  0
   28.3991   16.0770   19.0114 C   0  0  0  0  0  0  0  0  0  0  0  0
   28.9962   17.0161   20.0345 C   0  0  0  0  0  0  0  0  0  0  0  0
   30.3367   16.5284   20.5282 C   0  0  0  0  0  0  0  0  0  0  0  0
   30.9586   17.5207   21.5049 C   0  0  0  0  0  0  0  0  0  0  0  0
   32.3269   17.1385   21.9465 N   0  0  0  0  0  0  0  0  0  0  0  0
   27.2330   15.0752   21.8942 O   0  0  0  0  0  0  0  0  0  0  0  0
  2  1  1  6  0  0  0
  2  3  1  0  0  0  0
  2  5  1  0  0  0  0
  3  4  1  0  0  0  0
  3 10  1  0  0  0  0
  5  6  1  0  0  0  0
  6  7  1  0  0  0  0
  7  8  1  0  0  0  0
  8  9  1  0  0  0  0
M  END
>  <CHROM.1>
-34.89939097,-175.56445420,70.17397029,177.08390868,-175.73934115,28.59129001
15.78558493,20.44809947,-2.77307349,0.42689290,1.32187747

>  <Name>
ligand

>  <RI>
0

>  <Rbt.Current_Directory>
/home/itssahil/PROJECTS/Mol_Feturizer/New_Systems/rnas/3DIY

>  <Rbt.Executable>
rbdock ($Id: //depot/dev/client3/rdock/2013.1/src/exe/rbdock.cxx#4 $)

>  <Rbt.Library>
libRbt.so (2013.1, Build901 2013/11/27)

>  <Rbt.Parameter_File>
/export/apps/rDock/src/rDock_2013.1_src/data/scripts/dock_solv.prm

>  <Rbt.Receptor>
prm/pocket_docking_2.prm

>  <SCORE>
-9.6074

>  <SCORE.INTER>
-8.68226

>  <SCORE.INTER.CONST>
1

>  <SCORE.INTER.POLAR>
0

>  <SCORE.INTER.ROT>
5

>  <SCORE.INTER.SOLV>
14.8325

>  <SCORE.INTER.VDW>
-17.6657

>  <SCORE.INTER.norm>
-0.868226

>  <SCORE.INTRA>
-0.926054

>  <SCORE.INTRA.DIHEDRAL>
-0.364589

>  <SCORE.INTRA.DIHEDRAL.0>
2.56603

>  <SCORE.INTRA.POLAR>
0

>  <SCORE.INTRA.POLAR.0>
0

>  <SCORE.INTRA.REPUL>
0

>  <SCORE.INTRA.REPUL.0>
0

>  <SCORE.INTRA.SOLV>
-1.35765

>  <SCORE.INTRA.SOLV.lig_0>
-32.0799

>  <SCORE.INTRA.VDW>
-0.0649336

>  <SCORE.INTRA.VDW.0>
-0.618248

>  <SCORE.INTRA.norm>
-0.0926054

>  <SCORE.RESTR>
0.000915702

>  <SCORE.RESTR.CAVITY>
0.000915702

>  <SCORE.RESTR.norm>
9.15702e-05

>  <SCORE.SYSTEM>
0

>  <SCORE.SYSTEM.CONST>
0

>  <SCORE.SYSTEM.DIHEDRAL>
0

>  <SCORE.SYSTEM.SOLV>
0

>  <SCORE.SYSTEM.norm>
0

>  <SCORE.heavy>
10

>  <SCORE.norm>
-0.96074

>  <RMSD>
5.330

$$$$
ligand
 OpenBabel11021811473D
libRbt.so/2013.1/901 2013/11/27
 10  9  0  0  0  0  0  0  0  0999 V2000
   27.8911   15.0521   18.6145 N   0  0  0  0  0  0  0  0  0  0  0  0
   28.0194   14.6011   20.0334 C   0  0  2  0  0  0  0  0  0  0  0  0
   26.8033   14.9879   20.8829 C   0  0  0  0  0  0  0  0  0  0  0  0
   26.8939   15.2059   22.1003 O   0  0  0  0  0  0  0  0  0  0  0  0
   29.3185   15.1204   20.6554 C   0  0  0  0  0  0  0  0  0  0  0  0
   29.4161   16.6290   20.6582 C   0  0  0  0  0  0  0  0  0  0  0  0
   30.7341   17.1045   21.2196 C   0  0  0  0  0  0  0  0  0  0  0  0
   31.8862   16.7739   20.2768 C   0  0  0  0  0  0  0  0  0  0  0  0
   33.2112   17.2267   20.7793 N   0  0  0  0  0  0  0  0  0  0  0  0
   25.6893   15.1319   20.3701 O   0  0  0  0  0  0  0  0  0  0  0  0
  2  1  1  6  0  0  0
  2  3  1  0  0  0  0
  2  5  1  0  0  0  0
  3  4  1  0  0  0  0
  3 10  1  0  0  0  0
  5  6  1  0  0  0  0
  6  7  1  0  0  0  0
  7  8  1  0  0  0  0
  8  9  1  0  0  0  0
M  END
>  <CHROM.1>
-150.62907094,59.62831626,-177.38318419,69.51568148,179.74348197,28.94861269
15.78586755,20.57731507,-3.02232784,0.33230109,1.27289149

>  <Name>
ligand

>  <RI>
0

>  <Rbt.Current_Directory>
/home/itssahil/PROJECTS/Mol_Feturizer/New_Systems/rnas/3DIY

>  <Rbt.Executable>
rbdock ($Id: //depot/dev/client3/rdock/2013.1/src/exe/rbdock.cxx#4 $)

>  <Rbt.Library>
libRbt.so (2013.1, Build901 2013/11/27)

>  <Rbt.Parameter_File>
/export/apps/rDock/src/rDock_2013.1_src/data/scripts/dock_solv.prm

>  <Rbt.Receptor>
prm/pocket_docking_7.prm

>  <SCORE>
-8.97322

>  <SCORE.INTER>
-9.49019

>  <SCORE.INTER.CONST>
1

>  <SCORE.INTER.POLAR>
0

>  <SCORE.INTER.ROT>
5

>  <SCORE.INTER.SOLV>
12.6296

>  <SCORE.INTER.VDW>
-17.47

>  <SCORE.INTER.norm>
-0.949019

>  <SCORE.INTRA>
0.516965

>  <SCORE.INTRA.DIHEDRAL>
-0.549659

>  <SCORE.INTRA.DIHEDRAL.0>
2.56603

>  <SCORE.INTRA.POLAR>
0

>  <SCORE.INTRA.POLAR.0>
0

>  <SCORE.INTRA.REPUL>
0

>  <SCORE.INTRA.REPUL.0>
0

>  <SCORE.INTRA.SOLV>
-0.38704

>  <SCORE.INTRA.SOLV.lig_0>
-32.0799

>  <SCORE.INTRA.VDW>
0.985315

>  <SCORE.INTRA.VDW.0>
-0.618248

>  <SCORE.INTRA.norm>
0.0516965

>  <SCORE.RESTR>
0

>  <SCORE.RESTR.CAVITY>
0

>  <SCORE.RESTR.norm>
0

>  <SCORE.SYSTEM>
0

>  <SCORE.SYSTEM.CONST>
0

>  <SCORE.SYSTEM.DIHEDRAL>
0

>  <SCORE.SYSTEM.SOLV>
0

>  <SCORE.SYSTEM.norm>
0

>  <SCORE.heavy>
10

>  <SCORE.norm>
-0.897322

>  <RMSD>
5.330

$$$$
ligand
 OpenBabel11021811473D
libRbt.so/2013.1/901 2013/11/27
 10  9  0  0  0  0  0  0  0  0999 V2000
   28.5299   14.2631   18.8315 N   0  0  0  0  0  0  0  0  0  0  0  0
   27.7931   14.2772   20.1315 C   0  0  2  0  0  0  0  0  0  0  0  0
   26.5732   15.2052   20.1030 C   0  0  0  0  0  0  0  0  0  0  0  0
   26.5790   16.2806   19.4855 O   0  0  0  0  0  0  0  0  0  0  0  0
   28.7328   14.6316   21.2872 C   0  0  0  0  0  0  0  0  0  0  0  0
   29.4060   15.9744   21.1172 C   0  0  0  0  0  0  0  0  0  0  0  0
   30.3429   16.2806   22.2603 C   0  0  0  0  0  0  0  0  0  0  0  0
   31.1470   17.5477   21.9897 C   0  0  0  0  0  0  0  0  0  0  0  0
   32.1194   17.4047   20.8728 N   0  0  0  0  0  0  0  0  0  0  0  0
   25.5220   14.8912   20.6698 O   0  0  0  0  0  0  0  0  0  0  0  0
  2  1  1  6  0  0  0
  2  3  1  0  0  0  0
  2  5  1  0  0  0  0
  3  4  1  0  0  0  0
  3 10  1  0  0  0  0
  5  6  1  0  0  0  0
  6  7  1  0  0  0  0
  7  8  1  0  0  0  0
  8  9  1  0  0  0  0
M  END
>  <CHROM.1>
-36.48983058,58.45454662,-178.96779484,172.67394456,-67.58040559,28.63700830
15.68978665,20.67042729,-2.64353332,0.07809565,0.79508146

>  <Name>
ligand

>  <RI>
0

>  <Rbt.Current_Directory>
/home/itssahil/PROJECTS/Mol_Feturizer/New_Systems/rnas/3DIY

>  <Rbt.Executable>
rbdock ($Id: //depot/dev/client3/rdock/2013.1/src/exe/rbdock.cxx#4 $)

>  <Rbt.Library>
libRbt.so (2013.1, Build901 2013/11/27)

>  <Rbt.Parameter_File>
/export/apps/rDock/src/rDock_2013.1_src/data/scripts/dock_solv.prm

>  <Rbt.Receptor>
prm/pocket_docking_8.prm

>  <SCORE>
-8.93196

>  <SCORE.INTER>
-8.69141

>  <SCORE.INTER.CONST>
1

>  <SCORE.INTER.POLAR>
0

>  <SCORE.INTER.ROT>
5

>  <SCORE.INTER.SOLV>
13.2488

>  <SCORE.INTER.VDW>
-17.1439

>  <SCORE.INTER.norm>
-0.869141

>  <SCORE.INTRA>
-0.240558

>  <SCORE.INTRA.DIHEDRAL>
-0.503403

>  <SCORE.INTRA.DIHEDRAL.0>
2.56603

>  <SCORE.INTRA.POLAR>
0

>  <SCORE.INTRA.POLAR.0>
0

>  <SCORE.INTRA.REPUL>
0

>  <SCORE.INTRA.REPUL.0>
0

>  <SCORE.INTRA.SOLV>
0.233454

>  <SCORE.INTRA.SOLV.lig_0>
-32.0799

>  <SCORE.INTRA.VDW>
-0.105583

>  <SCORE.INTRA.VDW.0>
-0.618248

>  <SCORE.INTRA.norm>
-0.0240558

>  <SCORE.RESTR>
0

>  <SCORE.RESTR.CAVITY>
0

>  <SCORE.RESTR.norm>
0

>  <SCORE.SYSTEM>
0

>  <SCORE.SYSTEM.CONST>
0

>  <SCORE.SYSTEM.DIHEDRAL>
0

>  <SCORE.SYSTEM.SOLV>
0

>  <SCORE.SYSTEM.norm>
0

>  <SCORE.heavy>
10

>  <SCORE.norm>
-0.893196

>  <RMSD>
5.330

$$$$
ligand
 OpenBabel11021811473D
libRbt.so/2013.1/901 2013/11/27
 10  9  0  0  0  0  0  0  0  0999 V2000
   26.9701   14.0813   18.3226 N   0  0  0  0  0  0  0  0  0  0  0  0
   27.6402   14.8146   19.4390 C   0  0  2  0  0  0  0  0  0  0  0  0
   26.7525   14.9232   20.6841 C   0  0  0  0  0  0  0  0  0  0  0  0
   25.5146   14.9303   20.6109 O   0  0  0  0  0  0  0  0  0  0  0  0
   28.1182   16.1936   18.9764 C   0  0  0  0  0  0  0  0  0  0  0  0
   29.0034   16.8870   19.9869 C   0  0  0  0  0  0  0  0  0  0  0  0
   30.3172   16.1666   20.1691 C   0  0  0  0  0  0  0  0  0  0  0  0
   31.2417   16.9352   21.1072 C   0  0  0  0  0  0  0  0  0  0  0  0
   30.6958   17.0879   22.4827 N   0  0  0  0  0  0  0  0  0  0  0  0
   27.2464   14.9711   21.8150 O   0  0  0  0  0  0  0  0  0  0  0  0
  2  1  1  6  0  0  0
  2  3  1  0  0  0  0
  2  5  1  0  0  0  0
  3  4  1  0  0  0  0
  3 10  1  0  0  0  0
  5  6  1  0  0  0  0
  6  7  1  0  0  0  0
  7  8  1  0  0  0  0
  8  9  1  0  0  0  0
M  END
>  <CHROM.1>
-28.02930077,-170.33999528,66.45364792,175.55713392,62.06929645,28.32268991
15.69558851,20.38517854,-2.79336892,0.44023725,1.43779506

>  <Name>
ligand

>  <RI>
0

>  <Rbt.Current_Directory>
/home/itssahil/PROJECTS/Mol_Feturizer/New_Systems/rnas/3DIY

>  <Rbt.Executable>
rbdock ($Id: //depot/dev/client3/rdock/2013.1/src/exe/rbdock.cxx#4 $)

>  <Rbt.Library>
libRbt.so (2013.1, Build901 2013/11/27)

>  <Rbt.Parameter_File>
/export/apps/rDock/src/rDock_2013.1_src/data/scripts/dock_solv.prm

>  <Rbt.Receptor>
prm/pocket_docking_8.prm

>  <SCORE>
-9.20729

>  <SCORE.INTER>
-8.82506

>  <SCORE.INTER.CONST>
1

>  <SCORE.INTER.POLAR>
0

>  <SCORE.INTER.ROT>
5

>  <SCORE.INTER.SOLV>
15.5433

>  <SCORE.INTER.VDW>
-17.9978

>  <SCORE.INTER.norm>
-0.882506

>  <SCORE.INTRA>
-0.382229

>  <SCORE.INTRA.DIHEDRAL>
-0.351021

>  <SCORE.INTRA.DIHEDRAL.0>
2.56603

>  <SCORE.INTRA.POLAR>
0

>  <SCORE.INTRA.POLAR.0>
0

>  <SCORE.INTRA.REPUL>
0

>  <SCORE.INTRA.REPUL.0>
0

>  <SCORE.INTRA.SOLV>
-0.398696

>  <SCORE.INTRA.SOLV.lig_0>
-32.0799

>  <SCORE.INTRA.VDW>
-0.00737081

>  <SCORE.INTRA.VDW.0>
-0.618248

>  <SCORE.INTRA.norm>
-0.0382229

>  <SCORE.RESTR>
0

>  <SCORE.RESTR.CAVITY>
0

>  <SCORE.RESTR.norm>
0

>  <SCORE.SYSTEM>
0

>  <SCORE.SYSTEM.CONST>
0

>  <SCORE.SYSTEM.DIHEDRAL>
0

>  <SCORE.SYSTEM.SOLV>
0

>  <SCORE.SYSTEM.norm>
0

>  <SCORE.heavy>
10

>  <SCORE.norm>
-0.920729

>  <RMSD>
5.331

$$$$
ligand
 OpenBabel11021811473D
libRbt.so/2013.1/901 2013/11/27
 10  9  0  0  0  0  0  0  0  0999 V2000
   27.8879   15.0671   18.6060 N   0  0  0  0  0  0  0  0  0  0  0  0
   28.0308   14.5931   20.0159 C   0  0  2  0  0  0  0  0  0  0  0  0
   26.8231   14.9648   20.8838 C   0  0  0  0  0  0  0  0  0  0  0  0
   26.9187   15.1257   22.1098 O   0  0  0  0  0  0  0  0  0  0  0  0
   29.3357   15.1034   20.6332 C   0  0  0  0  0  0  0  0  0  0  0  0
   29.4576   16.6100   20.6075 C   0  0  0  0  0  0  0  0  0  0  0  0
   30.7668   17.0767   21.1961 C   0  0  0  0  0  0  0  0  0  0  0  0
   31.9360   16.7378   20.2777 C   0  0  0  0  0  0  0  0  0  0  0  0
   33.2543   17.1737   20.8119 N   0  0  0  0  0  0  0  0  0  0  0  0
   25.7117   15.1536   20.3797 O   0  0  0  0  0  0  0  0  0  0  0  0
  2  1  1  6  0  0  0
  2  3  1  0  0  0  0
  2  5  1  0  0  0  0
  3  4  1  0  0  0  0
  3 10  1  0  0  0  0
  5  6  1  0  0  0  0
  6  7  1  0  0  0  0
  7  8  1  0  0  0  0
  8  9  1  0  0  0  0
M  END
>  <CHROM.1>
-152.71884193,57.23372796,-178.77885939,70.86938452,-179.87242769,28.97467570
15.76282279,20.57086364,-3.03573555,0.33083744,1.31014644

>  <Name>
ligand

>  <RI>
0

>  <Rbt.Current_Directory>
/home/itssahil/PROJECTS/Mol_Feturizer/New_Systems/rnas/3DIY

>  <Rbt.Executable>
rbdock ($Id: //depot/dev/client3/rdock/2013.1/src/exe/rbdock.cxx#4 $)

>  <Rbt.Library>
libRbt.so (2013.1, Build901 2013/11/27)

>  <Rbt.Parameter_File>
/export/apps/rDock/src/rDock_2013.1_src/data/scripts/dock_solv.prm

>  <Rbt.Receptor>
prm/pocket_docking_4.prm

>  <SCORE>
-8.95441

>  <SCORE.INTER>
-9.44375

>  <SCORE.INTER.CONST>
1

>  <SCORE.INTER.POLAR>
0

>  <SCORE.INTER.ROT>
5

>  <SCORE.INTER.SOLV>
12.7207

>  <SCORE.INTER.VDW>
-17.4694

>  <SCORE.INTER.norm>
-0.944375

>  <SCORE.INTRA>
0.489332

>  <SCORE.INTRA.DIHEDRAL>
-0.427388

>  <SCORE.INTRA.DIHEDRAL.0>
2.56603

>  <SCORE.INTRA.POLAR>
0

>  <SCORE.INTRA.POLAR.0>
0

>  <SCORE.INTRA.REPUL>
0

>  <SCORE.INTRA.REPUL.0>
0

>  <SCORE.INTRA.SOLV>
-0.391965

>  <SCORE.INTRA.SOLV.lig_0>
-32.0799

>  <SCORE.INTRA.VDW>
0.899008

>  <SCORE.INTRA.VDW.0>
-0.618248

>  <SCORE.INTRA.norm>
0.0489332

>  <SCORE.RESTR>
0

>  <SCORE.RESTR.CAVITY>
0

>  <SCORE.RESTR.norm>
0

>  <SCORE.SYSTEM>
0

>  <SCORE.SYSTEM.CONST>
0

>  <SCORE.SYSTEM.DIHEDRAL>
0

>  <SCORE.SYSTEM.SOLV>
0

>  <SCORE.SYSTEM.norm>
0

>  <SCORE.heavy>
10

>  <SCORE.norm>
-0.895441

>  <RMSD>
5.333

$$$$
ligand
 OpenBabel11021811473D
libRbt.so/2013.1/901 2013/11/27
 10  9  0  0  0  0  0  0  0  0999 V2000
   29.0502   16.4118   19.7928 N   0  0  0  0  0  0  0  0  0  0  0  0
   27.8375   15.6907   19.3004 C   0  0  2  0  0  0  0  0  0  0  0  0
   26.8973   15.2805   20.4396 C   0  0  0  0  0  0  0  0  0  0  0  0
   25.6749   15.1566   20.2713 O   0  0  0  0  0  0  0  0  0  0  0  0
   28.2307   14.4840   18.4439 C   0  0  0  0  0  0  0  0  0  0  0  0
   27.0436   13.7761   17.8315 C   0  0  0  0  0  0  0  0  0  0  0  0
   27.4239   12.4284   17.2680 C   0  0  0  0  0  0  0  0  0  0  0  0
   26.1869   11.6017   16.9338 C   0  0  0  0  0  0  0  0  0  0  0  0
   26.4758   10.1552   16.7409 N   0  0  0  0  0  0  0  0  0  0  0  0
   27.3363   15.0221   21.5645 O   0  0  0  0  0  0  0  0  0  0  0  0
  2  1  1  1  0  0  0
  2  3  1  0  0  0  0
  2  5  1  0  0  0  0
  3  4  1  0  0  0  0
  3 10  1  0  0  0  0
  5  6  1  0  0  0  0
  6  7  1  0  0  0  0
  7  8  1  0  0  0  0
  8  9  1  0  0  0  0
M  END
>  <CHROM.1>
151.76524128,-175.65332966,-166.80995662,167.57275578,-163.85761970,27.19580498
14.00101933,18.89066591,-1.36439725,-0.60786598,-2.34877651

>  <Name>
ligand

>  <RI>
0

>  <Rbt.Current_Directory>
/home/itssahil/PROJECTS/Mol_Feturizer/New_Systems/rnas/3DIY

>  <Rbt.Executable>
rbdock ($Id: //depot/dev/client3/rdock/2013.1/src/exe/rbdock.cxx#4 $)

>  <Rbt.Library>
libRbt.so (2013.1, Build901 2013/11/27)

>  <Rbt.Parameter_File>
/export/apps/rDock/src/rDock_2013.1_src/data/scripts/dock_solv.prm

>  <Rbt.Receptor>
prm/pocket_docking_6.prm

>  <SCORE>
-11.3639

>  <SCORE.INTER>
-11.0238

>  <SCORE.INTER.CONST>
1

>  <SCORE.INTER.POLAR>
0

>  <SCORE.INTER.ROT>
5

>  <SCORE.INTER.SOLV>
14.6709

>  <SCORE.INTER.VDW>
-19.1729

>  <SCORE.INTER.norm>
-1.10238

>  <SCORE.INTRA>
-0.340081

>  <SCORE.INTRA.DIHEDRAL>
1.21613

>  <SCORE.INTRA.DIHEDRAL.0>
2.56603

>  <SCORE.INTRA.POLAR>
0

>  <SCORE.INTRA.POLAR.0>
0

>  <SCORE.INTRA.REPUL>
0

>  <SCORE.INTRA.REPUL.0>
0

>  <SCORE.INTRA.SOLV>
-1.58102

>  <SCORE.INTRA.SOLV.lig_0>
-32.0799

>  <SCORE.INTRA.VDW>
-0.157634

>  <SCORE.INTRA.VDW.0>
-0.618248

>  <SCORE.INTRA.norm>
-0.0340081

>  <SCORE.RESTR>
0

>  <SCORE.RESTR.CAVITY>
0

>  <SCORE.RESTR.norm>
0

>  <SCORE.SYSTEM>
0

>  <SCORE.SYSTEM.CONST>
0

>  <SCORE.SYSTEM.DIHEDRAL>
0

>  <SCORE.SYSTEM.SOLV>
0

>  <SCORE.SYSTEM.norm>
0

>  <SCORE.heavy>
10

>  <SCORE.norm>
-1.13639

>  <RMSD>
5.333

$$$$
ligand
 OpenBabel11021811473D
libRbt.so/2013.1/901 2013/11/27
 10  9  0  0  0  0  0  0  0  0999 V2000
   28.0394   14.1252   18.3408 N   0  0  0  0  0  0  0  0  0  0  0  0
   28.0746   14.3125   19.8230 C   0  0  2  0  0  0  0  0  0  0  0  0
   26.8103   14.9955   20.3570 C   0  0  0  0  0  0  0  0  0  0  0  0
   26.4260   14.8460   21.5266 O   0  0  0  0  0  0  0  0  0  0  0  0
   29.3357   15.0700   20.2472 C   0  0  0  0  0  0  0  0  0  0  0  0
   29.4670   15.2157   21.7462 C   0  0  0  0  0  0  0  0  0  0  0  0
   30.8050   15.7940   22.1382 C   0  0  0  0  0  0  0  0  0  0  0  0
   30.9303   17.2463   21.6907 C   0  0  0  0  0  0  0  0  0  0  0  0
   32.2464   17.8564   22.0208 N   0  0  0  0  0  0  0  0  0  0  0  0
   26.1470   15.7534   19.6427 O   0  0  0  0  0  0  0  0  0  0  0  0
  2  1  1  6  0  0  0
  2  3  1  0  0  0  0
  2  5  1  0  0  0  0
  3  4  1  0  0  0  0
  3 10  1  0  0  0  0
  5  6  1  0  0  0  0
  6  7  1  0  0  0  0
  7  8  1  0  0  0  0
  8  9  1  0  0  0  0
M  END
>  <CHROM.1>
155.06136041,-176.50708100,172.12298083,67.85058749,-178.49119862,28.79094648
15.53131153,20.76107435,-2.58787302,0.19739261,1.06964263

>  <Name>
ligand

>  <RI>
0

>  <Rbt.Current_Directory>
/home/itssahil/PROJECTS/Mol_Feturizer/New_Systems/rnas/3DIY

>  <Rbt.Executable>
rbdock ($Id: //depot/dev/client3/rdock/2013.1/src/exe/rbdock.cxx#4 $)

>  <Rbt.Library>
libRbt.so (2013.1, Build901 2013/11/27)

>  <Rbt.Parameter_File>
/export/apps/rDock/src/rDock_2013.1_src/data/scripts/dock_solv.prm

>  <Rbt.Receptor>
prm/pocket_docking_6.prm

>  <SCORE>
-9.20578

>  <SCORE.INTER>
-8.92419

>  <SCORE.INTER.CONST>
1

>  <SCORE.INTER.POLAR>
0

>  <SCORE.INTER.ROT>
5

>  <SCORE.INTER.SOLV>
13.8165

>  <SCORE.INTER.VDW>
-17.4883

>  <SCORE.INTER.norm>
-0.892419

>  <SCORE.INTRA>
-0.281597

>  <SCORE.INTRA.DIHEDRAL>
-0.541207

>  <SCORE.INTRA.DIHEDRAL.0>
2.56603

>  <SCORE.INTRA.POLAR>
0

>  <SCORE.INTRA.POLAR.0>
0

>  <SCORE.INTRA.REPUL>
0

>  <SCORE.INTRA.REPUL.0>
0

>  <SCORE.INTRA.SOLV>
-1.34357

>  <SCORE.INTRA.SOLV.lig_0>
-32.0799

>  <SCORE.INTRA.VDW>
0.660793

>  <SCORE.INTRA.VDW.0>
-0.618248

>  <SCORE.INTRA.norm>
-0.0281597

>  <SCORE.RESTR>
0

>  <SCORE.RESTR.CAVITY>
0

>  <SCORE.RESTR.norm>
0

>  <SCORE.SYSTEM>
0

>  <SCORE.SYSTEM.CONST>
0

>  <SCORE.SYSTEM.DIHEDRAL>
0

>  <SCORE.SYSTEM.SOLV>
0

>  <SCORE.SYSTEM.norm>
0

>  <SCORE.heavy>
10

>  <SCORE.norm>
-0.920578

>  <RMSD>
5.334

$$$$
ligand
 OpenBabel11021811473D
libRbt.so/2013.1/901 2013/11/27
 10  9  0  0  0  0  0  0  0  0999 V2000
   27.9375   15.1142   18.6438 N   0  0  0  0  0  0  0  0  0  0  0  0
   28.0453   14.6168   20.0488 C   0  0  2  0  0  0  0  0  0  0  0  0
   26.8104   14.9628   20.8887 C   0  0  0  0  0  0  0  0  0  0  0  0
   26.8735   15.1207   22.1171 O   0  0  0  0  0  0  0  0  0  0  0  0
   29.3277   15.1275   20.7113 C   0  0  0  0  0  0  0  0  0  0  0  0
   29.4267   16.6359   20.7334 C   0  0  0  0  0  0  0  0  0  0  0  0
   30.7412   17.1030   21.3098 C   0  0  0  0  0  0  0  0  0  0  0  0
   31.8923   16.8330   20.3468 C   0  0  0  0  0  0  0  0  0  0  0  0
   33.2169   17.2595   20.8729 N   0  0  0  0  0  0  0  0  0  0  0  0
   25.7081   15.1330   20.3586 O   0  0  0  0  0  0  0  0  0  0  0  0
  2  1  1  6  0  0  0
  2  3  1  0  0  0  0
  2  5  1  0  0  0  0
  3  4  1  0  0  0  0
  3 10  1  0  0  0  0
  5  6  1  0  0  0  0
  6  7  1  0  0  0  0
  7  8  1  0  0  0  0
  8  9  1  0  0  0  0
M  END
>  <CHROM.1>
-151.73379392,58.09250685,-176.23796093,71.77696997,-179.28137607,28.95989061
15.79218596,20.62097722,-3.02205631,0.34136636,1.31181289

>  <Name>
ligand

>  <RI>
0

>  <Rbt.Current_Directory>
/home/itssahil/PROJECTS/Mol_Feturizer/New_Systems/rnas/3DIY

>  <Rbt.Executable>
rbdock ($Id: //depot/dev/client3/rdock/2013.1/src/exe/rbdock.cxx#4 $)

>  <Rbt.Library>
libRbt.so (2013.1, Build901 2013/11/27)

>  <Rbt.Parameter_File>
/export/apps/rDock/src/rDock_2013.1_src/data/scripts/dock_solv.prm

>  <Rbt.Receptor>
prm/blind_docking_80.prm

>  <SCORE>
-8.9397

>  <SCORE.INTER>
-9.48718

>  <SCORE.INTER.CONST>
1

>  <SCORE.INTER.POLAR>
0

>  <SCORE.INTER.ROT>
5

>  <SCORE.INTER.SOLV>
12.4967

>  <SCORE.INTER.VDW>
-17.4237

>  <SCORE.INTER.norm>
-0.948718

>  <SCORE.INTRA>
0.54748

>  <SCORE.INTRA.DIHEDRAL>
-0.308558

>  <SCORE.INTRA.DIHEDRAL.0>
2.56603

>  <SCORE.INTRA.POLAR>
0

>  <SCORE.INTRA.POLAR.0>
0

>  <SCORE.INTRA.REPUL>
0

>  <SCORE.INTRA.REPUL.0>
0

>  <SCORE.INTRA.SOLV>
-0.355071

>  <SCORE.INTRA.SOLV.lig_0>
-32.0799

>  <SCORE.INTRA.VDW>
0.879295

>  <SCORE.INTRA.VDW.0>
-0.618248

>  <SCORE.INTRA.norm>
0.054748

>  <SCORE.RESTR>
0

>  <SCORE.RESTR.CAVITY>
0

>  <SCORE.RESTR.norm>
0

>  <SCORE.SYSTEM>
0

>  <SCORE.SYSTEM.CONST>
0

>  <SCORE.SYSTEM.DIHEDRAL>
0

>  <SCORE.SYSTEM.SOLV>
0

>  <SCORE.SYSTEM.norm>
0

>  <SCORE.heavy>
10

>  <SCORE.norm>
-0.89397

>  <RMSD>
5.335

$$$$
ligand
 OpenBabel11021811473D
libRbt.so/2013.1/901 2013/11/27
 10  9  0  0  0  0  0  0  0  0999 V2000
   28.5230   14.4305   18.7909 N   0  0  0  0  0  0  0  0  0  0  0  0
   27.8279   14.2628   20.1030 C   0  0  2  0  0  0  0  0  0  0  0  0
   26.5439   15.0950   20.1960 C   0  0  0  0  0  0  0  0  0  0  0  0
   25.6091   14.7806   20.9480 O   0  0  0  0  0  0  0  0  0  0  0  0
   28.7750   14.5724   21.2655 C   0  0  0  0  0  0  0  0  0  0  0  0
   29.3794   15.9560   21.1892 C   0  0  0  0  0  0  0  0  0  0  0  0
   30.3757   16.1946   22.2977 C   0  0  0  0  0  0  0  0  0  0  0  0
   31.1615   17.4805   22.0652 C   0  0  0  0  0  0  0  0  0  0  0  0
   32.0328   17.4323   20.8603 N   0  0  0  0  0  0  0  0  0  0  0  0
   26.4124   16.1363   19.5452 O   0  0  0  0  0  0  0  0  0  0  0  0
  2  1  1  6  0  0  0
  2  3  1  0  0  0  0
  2  5  1  0  0  0  0
  3  4  1  0  0  0  0
  3 10  1  0  0  0  0
  5  6  1  0  0  0  0
  6  7  1  0  0  0  0
  7  8  1  0  0  0  0
  8  9  1  0  0  0  0
M  END
>  <CHROM.1>
154.80059030,56.54914155,-176.23429197,169.53099169,-65.31272478,28.62569616
15.64659782,20.72497180,-2.70399754,0.24832290,1.11333279

>  <Name>
ligand

>  <RI>
0

>  <Rbt.Current_Directory>
/home/itssahil/PROJECTS/Mol_Feturizer/New_Systems/rnas/3DIY

>  <Rbt.Executable>
rbdock ($Id: //depot/dev/client3/rdock/2013.1/src/exe/rbdock.cxx#4 $)

>  <Rbt.Library>
libRbt.so (2013.1, Build901 2013/11/27)

>  <Rbt.Parameter_File>
/export/apps/rDock/src/rDock_2013.1_src/data/scripts/dock_solv.prm

>  <Rbt.Receptor>
prm/pocket_docking_5.prm

>  <SCORE>
-8.80138

>  <SCORE.INTER>
-8.68988

>  <SCORE.INTER.CONST>
1

>  <SCORE.INTER.POLAR>
0

>  <SCORE.INTER.ROT>
5

>  <SCORE.INTER.SOLV>
12.8682

>  <SCORE.INTER.VDW>
-17.016

>  <SCORE.INTER.norm>
-0.868988

>  <SCORE.INTRA>
-0.1115

>  <SCORE.INTRA.DIHEDRAL>
-0.429003

>  <SCORE.INTRA.DIHEDRAL.0>
2.56603

>  <SCORE.INTRA.POLAR>
0

>  <SCORE.INTRA.POLAR.0>
0

>  <SCORE.INTRA.REPUL>
0

>  <SCORE.INTRA.REPUL.0>
0

>  <SCORE.INTRA.SOLV>
0.323165

>  <SCORE.INTRA.SOLV.lig_0>
-32.0799

>  <SCORE.INTRA.VDW>
-0.0585811

>  <SCORE.INTRA.VDW.0>
-0.618248

>  <SCORE.INTRA.norm>
-0.01115

>  <SCORE.RESTR>
0

>  <SCORE.RESTR.CAVITY>
0

>  <SCORE.RESTR.norm>
0

>  <SCORE.SYSTEM>
0

>  <SCORE.SYSTEM.CONST>
0

>  <SCORE.SYSTEM.DIHEDRAL>
0

>  <SCORE.SYSTEM.SOLV>
0

>  <SCORE.SYSTEM.norm>
0

>  <SCORE.heavy>
10

>  <SCORE.norm>
-0.880138

>  <RMSD>
5.335

$$$$
ligand
 OpenBabel11021811473D
libRbt.so/2013.1/901 2013/11/27
 10  9  0  0  0  0  0  0  0  0999 V2000
   27.1183   14.6090   18.2150 N   0  0  0  0  0  0  0  0  0  0  0  0
   27.7302   14.9805   19.5268 C   0  0  2  0  0  0  0  0  0  0  0  0
   26.7204   14.9302   20.6790 C   0  0  0  0  0  0  0  0  0  0  0  0
   27.0776   14.8459   21.8636 O   0  0  0  0  0  0  0  0  0  0  0  0
   28.4092   16.3503   19.4435 C   0  0  0  0  0  0  0  0  0  0  0  0
   29.7708   16.3810   20.0996 C   0  0  0  0  0  0  0  0  0  0  0  0
   29.6796   16.1656   21.5908 C   0  0  0  0  0  0  0  0  0  0  0  0
   31.0654   16.0857   22.2220 C   0  0  0  0  0  0  0  0  0  0  0  0
   31.8651   17.3290   22.0542 N   0  0  0  0  0  0  0  0  0  0  0  0
   25.5068   15.0095   20.4650 O   0  0  0  0  0  0  0  0  0  0  0  0
  2  1  1  6  0  0  0
  2  3  1  0  0  0  0
  2  5  1  0  0  0  0
  3  4  1  0  0  0  0
  3 10  1  0  0  0  0
  5  6  1  0  0  0  0
  6  7  1  0  0  0  0
  7  8  1  0  0  0  0
  8  9  1  0  0  0  0
M  END
>  <CHROM.1>
160.15860603,-135.68126488,-65.45447672,175.37510118,61.58523132,28.46327823
15.66332838,20.63829961,-2.78518615,0.38646092,1.59815110

>  <Name>
ligand

>  <RI>
0

>  <Rbt.Current_Directory>
/home/itssahil/PROJECTS/Mol_Feturizer/New_Systems/rnas/3DIY

>  <Rbt.Executable>
rbdock ($Id: //depot/dev/client3/rdock/2013.1/src/exe/rbdock.cxx#4 $)

>  <Rbt.Library>
libRbt.so (2013.1, Build901 2013/11/27)

>  <Rbt.Parameter_File>
/export/apps/rDock/src/rDock_2013.1_src/data/scripts/dock_solv.prm

>  <Rbt.Receptor>
prm/pocket_docking_2.prm

>  <SCORE>
-7.38663

>  <SCORE.INTER>
-9.21742

>  <SCORE.INTER.CONST>
1

>  <SCORE.INTER.POLAR>
0

>  <SCORE.INTER.ROT>
5

>  <SCORE.INTER.SOLV>
13.8705

>  <SCORE.INTER.VDW>
-17.7018

>  <SCORE.INTER.norm>
-0.921742

>  <SCORE.INTRA>
1.83079

>  <SCORE.INTRA.DIHEDRAL>
3.86432

>  <SCORE.INTRA.DIHEDRAL.0>
2.56603

>  <SCORE.INTRA.POLAR>
0

>  <SCORE.INTRA.POLAR.0>
0

>  <SCORE.INTRA.REPUL>
0

>  <SCORE.INTRA.REPUL.0>
0

>  <SCORE.INTRA.SOLV>
-0.399081

>  <SCORE.INTRA.SOLV.lig_0>
-32.0799

>  <SCORE.INTRA.VDW>
0.0981746

>  <SCORE.INTRA.VDW.0>
-0.618248

>  <SCORE.INTRA.norm>
0.183079

>  <SCORE.RESTR>
0

>  <SCORE.RESTR.CAVITY>
0

>  <SCORE.RESTR.norm>
0

>  <SCORE.SYSTEM>
0

>  <SCORE.SYSTEM.CONST>
0

>  <SCORE.SYSTEM.DIHEDRAL>
0

>  <SCORE.SYSTEM.SOLV>
0

>  <SCORE.SYSTEM.norm>
0

>  <SCORE.heavy>
10

>  <SCORE.norm>
-0.738663

>  <RMSD>
5.336

$$$$
ligand
 OpenBabel11021811473D
libRbt.so/2013.1/901 2013/11/27
 10  9  0  0  0  0  0  0  0  0999 V2000
   28.0894   15.6563   18.5763 N   0  0  0  0  0  0  0  0  0  0  0  0
   28.2412   15.4355   20.0464 C   0  0  2  0  0  0  0  0  0  0  0  0
   26.9059   15.1267   20.7331 C   0  0  0  0  0  0  0  0  0  0  0  0
   26.8334   14.8657   21.9433 O   0  0  0  0  0  0  0  0  0  0  0  0
   28.9427   16.6254   20.7071 C   0  0  0  0  0  0  0  0  0  0  0  0
   30.3233   16.8874   20.1497 C   0  0  0  0  0  0  0  0  0  0  0  0
   31.2588   15.7301   20.4024 C   0  0  0  0  0  0  0  0  0  0  0  0
   32.6608   16.0311   19.8835 C   0  0  0  0  0  0  0  0  0  0  0  0
   33.3287   17.1520   20.5982 N   0  0  0  0  0  0  0  0  0  0  0  0
   25.8438   15.1641   20.1042 O   0  0  0  0  0  0  0  0  0  0  0  0
  2  1  1  6  0  0  0
  2  3  1  0  0  0  0
  2  5  1  0  0  0  0
  3  4  1  0  0  0  0
  3 10  1  0  0  0  0
  5  6  1  0  0  0  0
  6  7  1  0  0  0  0
  7  8  1  0  0  0  0
  8  9  1  0  0  0  0
M  END
>  <CHROM.1>
177.31570337,-59.49904681,-63.10970513,-177.76894574,64.89945007,29.20172594
15.85711421,20.33040311,3.06902136,0.23110014,1.66861724

>  <Name>
ligand

>  <RI>
0

>  <Rbt.Current_Directory>
/home/itssahil/PROJECTS/Mol_Feturizer/New_Systems/rnas/3DIY

>  <Rbt.Executable>
rbdock ($Id: //depot/dev/client3/rdock/2013.1/src/exe/rbdock.cxx#4 $)

>  <Rbt.Library>
libRbt.so (2013.1, Build901 2013/11/27)

>  <Rbt.Parameter_File>
/export/apps/rDock/src/rDock_2013.1_src/data/scripts/dock_solv.prm

>  <Rbt.Receptor>
prm/pocket_docking_3.prm

>  <SCORE>
-8.65923

>  <SCORE.INTER>
-9.00154

>  <SCORE.INTER.CONST>
1

>  <SCORE.INTER.POLAR>
0

>  <SCORE.INTER.ROT>
5

>  <SCORE.INTER.SOLV>
12.9447

>  <SCORE.INTER.VDW>
-17.2493

>  <SCORE.INTER.norm>
-0.900154

>  <SCORE.INTRA>
0.34231

>  <SCORE.INTRA.DIHEDRAL>
-0.891914

>  <SCORE.INTRA.DIHEDRAL.0>
2.56603

>  <SCORE.INTRA.POLAR>
0

>  <SCORE.INTRA.POLAR.0>
0

>  <SCORE.INTRA.REPUL>
0

>  <SCORE.INTRA.REPUL.0>
0

>  <SCORE.INTRA.SOLV>
0.804437

>  <SCORE.INTRA.SOLV.lig_0>
-32.0799

>  <SCORE.INTRA.VDW>
0.386048

>  <SCORE.INTRA.VDW.0>
-0.618248

>  <SCORE.INTRA.norm>
0.034231

>  <SCORE.RESTR>
0

>  <SCORE.RESTR.CAVITY>
0

>  <SCORE.RESTR.norm>
0

>  <SCORE.SYSTEM>
0

>  <SCORE.SYSTEM.CONST>
0

>  <SCORE.SYSTEM.DIHEDRAL>
0

>  <SCORE.SYSTEM.SOLV>
0

>  <SCORE.SYSTEM.norm>
0

>  <SCORE.heavy>
10

>  <SCORE.norm>
-0.865923

>  <RMSD>
5.337

$$$$
ligand
 OpenBabel11021811473D
libRbt.so/2013.1/901 2013/11/27
 10  9  0  0  0  0  0  0  0  0999 V2000
   27.1397   14.3845   18.2574 N   0  0  0  0  0  0  0  0  0  0  0  0
   27.7686   14.8354   19.5358 C   0  0  2  0  0  0  0  0  0  0  0  0
   26.7565   14.9352   20.6829 C   0  0  0  0  0  0  0  0  0  0  0  0
   27.1087   14.9443   21.8719 O   0  0  0  0  0  0  0  0  0  0  0  0
   28.5165   16.1568   19.3393 C   0  0  0  0  0  0  0  0  0  0  0  0
   29.3057   16.5813   20.5569 C   0  0  0  0  0  0  0  0  0  0  0  0
   30.4373   15.6271   20.8522 C   0  0  0  0  0  0  0  0  0  0  0  0
   31.2061   16.0527   22.0985 C   0  0  0  0  0  0  0  0  0  0  0  0
   31.8649   17.3797   21.9634 N   0  0  0  0  0  0  0  0  0  0  0  0
   25.5478   15.0476   20.4566 O   0  0  0  0  0  0  0  0  0  0  0  0
  2  1  1  6  0  0  0
  2  3  1  0  0  0  0
  2  5  1  0  0  0  0
  3  4  1  0  0  0  0
  3 10  1  0  0  0  0
  5  6  1  0  0  0  0
  6  7  1  0  0  0  0
  7  8  1  0  0  0  0
  8  9  1  0  0  0  0
M  END
>  <CHROM.1>
160.68940652,-173.36035669,65.72603942,-178.85348889,-62.60651287,28.53390007
15.59248718,20.58405197,-2.77359202,0.33177230,1.47380658

>  <Name>
ligand

>  <RI>
0

>  <Rbt.Current_Directory>
/home/itssahil/PROJECTS/Mol_Feturizer/New_Systems/rnas/3DIY

>  <Rbt.Executable>
rbdock ($Id: //depot/dev/client3/rdock/2013.1/src/exe/rbdock.cxx#4 $)

>  <Rbt.Library>
libRbt.so (2013.1, Build901 2013/11/27)

>  <Rbt.Parameter_File>
/export/apps/rDock/src/rDock_2013.1_src/data/scripts/dock_solv.prm

>  <Rbt.Receptor>
prm/pocket_docking_6.prm

>  <SCORE>
-9.91094

>  <SCORE.INTER>
-9.55505

>  <SCORE.INTER.CONST>
1

>  <SCORE.INTER.POLAR>
0

>  <SCORE.INTER.ROT>
5

>  <SCORE.INTER.SOLV>
13.7379

>  <SCORE.INTER.VDW>
-17.8827

>  <SCORE.INTER.norm>
-0.955505

>  <SCORE.INTRA>
-0.355889

>  <SCORE.INTRA.DIHEDRAL>
-0.773106

>  <SCORE.INTRA.DIHEDRAL.0>
2.56603

>  <SCORE.INTRA.POLAR>
0

>  <SCORE.INTRA.POLAR.0>
0

>  <SCORE.INTRA.REPUL>
0

>  <SCORE.INTRA.REPUL.0>
0

>  <SCORE.INTRA.SOLV>
-0.408835

>  <SCORE.INTRA.SOLV.lig_0>
-32.0799

>  <SCORE.INTRA.VDW>
0.235081

>  <SCORE.INTRA.VDW.0>
-0.618248

>  <SCORE.INTRA.norm>
-0.0355889

>  <SCORE.RESTR>
0

>  <SCORE.RESTR.CAVITY>
0

>  <SCORE.RESTR.norm>
0

>  <SCORE.SYSTEM>
0

>  <SCORE.SYSTEM.CONST>
0

>  <SCORE.SYSTEM.DIHEDRAL>
0

>  <SCORE.SYSTEM.SOLV>
0

>  <SCORE.SYSTEM.norm>
0

>  <SCORE.heavy>
10

>  <SCORE.norm>
-0.991094

>  <RMSD>
5.339

$$$$
ligand
 OpenBabel11021811473D
libRbt.so/2013.1/901 2013/11/27
 10  9  0  0  0  0  0  0  0  0999 V2000
   29.1697   15.5900   19.8220 N   0  0  0  0  0  0  0  0  0  0  0  0
   27.6967   15.6722   19.5847 C   0  0  2  0  0  0  0  0  0  0  0  0
   26.8845   15.0380   20.7197 C   0  0  0  0  0  0  0  0  0  0  0  0
   27.4095   14.6838   21.7860 O   0  0  0  0  0  0  0  0  0  0  0  0
   27.3275   15.0616   18.2300 C   0  0  0  0  0  0  0  0  0  0  0  0
   27.7818   13.6277   18.0794 C   0  0  0  0  0  0  0  0  0  0  0  0
   26.8152   12.8175   17.2501 C   0  0  0  0  0  0  0  0  0  0  0  0
   27.3422   11.4066   17.0110 C   0  0  0  0  0  0  0  0  0  0  0  0
   26.2686   10.4090   16.7549 N   0  0  0  0  0  0  0  0  0  0  0  0
   25.6623   14.8912   20.6220 O   0  0  0  0  0  0  0  0  0  0  0  0
  2  1  1  1  0  0  0
  2  3  1  0  0  0  0
  2  5  1  0  0  0  0
  3  4  1  0  0  0  0
  3 10  1  0  0  0  0
  5  6  1  0  0  0  0
  6  7  1  0  0  0  0
  7  8  1  0  0  0  0
  8  9  1  0  0  0  0
M  END
>  <CHROM.1>
9.75124455,56.58446322,146.08899076,175.34277581,154.60790805,27.21781704
13.91580145,19.01914679,-1.42825943,-0.70737709,-2.27976771

>  <Name>
ligand

>  <RI>
0

>  <Rbt.Current_Directory>
/home/itssahil/PROJECTS/Mol_Feturizer/New_Systems/rnas/3DIY

>  <Rbt.Executable>
rbdock ($Id: //depot/dev/client3/rdock/2013.1/src/exe/rbdock.cxx#4 $)

>  <Rbt.Library>
libRbt.so (2013.1, Build901 2013/11/27)

>  <Rbt.Parameter_File>
/export/apps/rDock/src/rDock_2013.1_src/data/scripts/dock_solv.prm

>  <Rbt.Receptor>
prm/blind_docking_40.prm

>  <SCORE>
-9.405

>  <SCORE.INTER>
-11.5413

>  <SCORE.INTER.CONST>
1

>  <SCORE.INTER.POLAR>
0

>  <SCORE.INTER.ROT>
5

>  <SCORE.INTER.SOLV>
13.1228

>  <SCORE.INTER.VDW>
-19.0018

>  <SCORE.INTER.norm>
-1.15413

>  <SCORE.INTRA>
2.13625

>  <SCORE.INTRA.DIHEDRAL>
4.87301

>  <SCORE.INTRA.DIHEDRAL.0>
2.56603

>  <SCORE.INTRA.POLAR>
0

>  <SCORE.INTRA.POLAR.0>
0

>  <SCORE.INTRA.REPUL>
0

>  <SCORE.INTRA.REPUL.0>
0

>  <SCORE.INTRA.SOLV>
-0.653276

>  <SCORE.INTRA.SOLV.lig_0>
-32.0799

>  <SCORE.INTRA.VDW>
0.0263814

>  <SCORE.INTRA.VDW.0>
-0.618248

>  <SCORE.INTRA.norm>
0.213625

>  <SCORE.RESTR>
0

>  <SCORE.RESTR.CAVITY>
0

>  <SCORE.RESTR.norm>
0

>  <SCORE.SYSTEM>
0

>  <SCORE.SYSTEM.CONST>
0

>  <SCORE.SYSTEM.DIHEDRAL>
0

>  <SCORE.SYSTEM.SOLV>
0

>  <SCORE.SYSTEM.norm>
0

>  <SCORE.heavy>
10

>  <SCORE.norm>
-0.9405

>  <RMSD>
5.340

$$$$
ligand
 OpenBabel11021811473D
libRbt.so/2013.1/901 2013/11/27
 10  9  0  0  0  0  0  0  0  0999 V2000
   28.7036   16.2237   19.5041 N   0  0  0  0  0  0  0  0  0  0  0  0
   28.1916   15.1933   20.4576 C   0  0  2  0  0  0  0  0  0  0  0  0
   26.6611   15.1077   20.4609 C   0  0  0  0  0  0  0  0  0  0  0  0
   26.0319   14.6131   21.4082 O   0  0  0  0  0  0  0  0  0  0  0  0
   28.7368   15.4361   21.8676 C   0  0  0  0  0  0  0  0  0  0  0  0
   30.2460   15.5077   21.9185 C   0  0  0  0  0  0  0  0  0  0  0  0
   30.7553   16.8781   21.5430 C   0  0  0  0  0  0  0  0  0  0  0  0
   32.2791   16.9043   21.4900 C   0  0  0  0  0  0  0  0  0  0  0  0
   32.8458   16.1216   20.3589 N   0  0  0  0  0  0  0  0  0  0  0  0
   25.9965   15.5664   19.5266 O   0  0  0  0  0  0  0  0  0  0  0  0
  2  1  1  6  0  0  0
  2  3  1  0  0  0  0
  2  5  1  0  0  0  0
  3  4  1  0  0  0  0
  3 10  1  0  0  0  0
  5  6  1  0  0  0  0
  6  7  1  0  0  0  0
  7  8  1  0  0  0  0
  8  9  1  0  0  0  0
M  END
>  <CHROM.1>
-159.46353347,-54.92521483,82.50730618,-175.43945077,69.19244992,28.99969148
15.74975038,20.85145121,-3.08698788,0.25843829,1.84985042

>  <Name>
ligand

>  <RI>
0

>  <Rbt.Current_Directory>
/home/itssahil/PROJECTS/Mol_Feturizer/New_Systems/rnas/3DIY

>  <Rbt.Executable>
rbdock ($Id: //depot/dev/client3/rdock/2013.1/src/exe/rbdock.cxx#4 $)

>  <Rbt.Library>
libRbt.so (2013.1, Build901 2013/11/27)

>  <Rbt.Parameter_File>
/export/apps/rDock/src/rDock_2013.1_src/data/scripts/dock_solv.prm

>  <Rbt.Receptor>
prm/pocket_docking_5.prm

>  <SCORE>
-7.77733

>  <SCORE.INTER>
-9.90473

>  <SCORE.INTER.CONST>
1

>  <SCORE.INTER.POLAR>
0

>  <SCORE.INTER.ROT>
5

>  <SCORE.INTER.SOLV>
12.7356

>  <SCORE.INTER.VDW>
-17.7817

>  <SCORE.INTER.norm>
-0.990473

>  <SCORE.INTRA>
2.1274

>  <SCORE.INTRA.DIHEDRAL>
1.41146

>  <SCORE.INTRA.DIHEDRAL.0>
2.56603

>  <SCORE.INTRA.POLAR>
0

>  <SCORE.INTRA.POLAR.0>
0

>  <SCORE.INTRA.REPUL>
0

>  <SCORE.INTRA.REPUL.0>
0

>  <SCORE.INTRA.SOLV>
1.89919

>  <SCORE.INTRA.SOLV.lig_0>
-32.0799

>  <SCORE.INTRA.VDW>
0.472077

>  <SCORE.INTRA.VDW.0>
-0.618248

>  <SCORE.INTRA.norm>
0.21274

>  <SCORE.RESTR>
0

>  <SCORE.RESTR.CAVITY>
0

>  <SCORE.RESTR.norm>
0

>  <SCORE.SYSTEM>
0

>  <SCORE.SYSTEM.CONST>
0

>  <SCORE.SYSTEM.DIHEDRAL>
0

>  <SCORE.SYSTEM.SOLV>
0

>  <SCORE.SYSTEM.norm>
0

>  <SCORE.heavy>
10

>  <SCORE.norm>
-0.777733

>  <RMSD>
5.340

$$$$
ligand
 OpenBabel11021811473D
libRbt.so/2013.1/901 2013/11/27
 10  9  0  0  0  0  0  0  0  0999 V2000
   28.5935   14.4850   18.9264 N   0  0  0  0  0  0  0  0  0  0  0  0
   27.9269   14.2874   20.2491 C   0  0  2  0  0  0  0  0  0  0  0  0
   26.5894   15.0300   20.3475 C   0  0  0  0  0  0  0  0  0  0  0  0
   26.2783   15.9325   19.5558 O   0  0  0  0  0  0  0  0  0  0  0  0
   28.8637   14.6774   21.3957 C   0  0  0  0  0  0  0  0  0  0  0  0
   29.4506   16.0619   21.2406 C   0  0  0  0  0  0  0  0  0  0  0  0
   30.4277   16.3836   22.3452 C   0  0  0  0  0  0  0  0  0  0  0  0
   31.1828   17.6760   22.0540 C   0  0  0  0  0  0  0  0  0  0  0  0
   32.1102   17.5719   20.8954 N   0  0  0  0  0  0  0  0  0  0  0  0
   25.7545   14.7255   21.2048 O   0  0  0  0  0  0  0  0  0  0  0  0
  2  1  1  6  0  0  0
  2  3  1  0  0  0  0
  2  5  1  0  0  0  0
  3  4  1  0  0  0  0
  3 10  1  0  0  0  0
  5  6  1  0  0  0  0
  6  7  1  0  0  0  0
  7  8  1  0  0  0  0
  8  9  1  0  0  0  0
M  END
>  <CHROM.1>
-16.29398262,52.27631837,-176.78569689,170.49214008,-67.65590159,28.67783374
15.69240931,20.82022295,-2.73664362,0.32772048,1.19319959

>  <Name>
ligand

>  <RI>
0

>  <Rbt.Current_Directory>
/home/itssahil/PROJECTS/Mol_Feturizer/New_Systems/rnas/3DIY

>  <Rbt.Executable>
rbdock ($Id: //depot/dev/client3/rdock/2013.1/src/exe/rbdock.cxx#4 $)

>  <Rbt.Library>
libRbt.so (2013.1, Build901 2013/11/27)

>  <Rbt.Parameter_File>
/export/apps/rDock/src/rDock_2013.1_src/data/scripts/dock_solv.prm

>  <Rbt.Receptor>
prm/pocket_docking_3.prm

>  <SCORE>
-8.74554

>  <SCORE.INTER>
-8.82265

>  <SCORE.INTER.CONST>
1

>  <SCORE.INTER.POLAR>
0

>  <SCORE.INTER.ROT>
5

>  <SCORE.INTER.SOLV>
13.0834

>  <SCORE.INTER.VDW>
-17.1762

>  <SCORE.INTER.norm>
-0.882265

>  <SCORE.INTRA>
0.0771018

>  <SCORE.INTRA.DIHEDRAL>
-0.0812333

>  <SCORE.INTRA.DIHEDRAL.0>
2.56603

>  <SCORE.INTRA.POLAR>
0

>  <SCORE.INTRA.POLAR.0>
0

>  <SCORE.INTRA.REPUL>
0

>  <SCORE.INTRA.REPUL.0>
0

>  <SCORE.INTRA.SOLV>
0.338283

>  <SCORE.INTRA.SOLV.lig_0>
-32.0799

>  <SCORE.INTRA.VDW>
-0.0514232

>  <SCORE.INTRA.VDW.0>
-0.618248

>  <SCORE.INTRA.norm>
0.00771018

>  <SCORE.RESTR>
0

>  <SCORE.RESTR.CAVITY>
0

>  <SCORE.RESTR.norm>
0

>  <SCORE.SYSTEM>
0

>  <SCORE.SYSTEM.CONST>
0

>  <SCORE.SYSTEM.DIHEDRAL>
0

>  <SCORE.SYSTEM.SOLV>
0

>  <SCORE.SYSTEM.norm>
0

>  <SCORE.heavy>
10

>  <SCORE.norm>
-0.874554

>  <RMSD>
5.341

$$$$
ligand
 OpenBabel11021811473D
libRbt.so/2013.1/901 2013/11/27
 10  9  0  0  0  0  0  0  0  0999 V2000
   29.1812   15.3232   19.9458 N   0  0  0  0  0  0  0  0  0  0  0  0
   27.7456   15.6225   19.6583 C   0  0  2  0  0  0  0  0  0  0  0  0
   26.8114   15.1335   20.7709 C   0  0  0  0  0  0  0  0  0  0  0  0
   27.2132   14.9340   21.9270 O   0  0  0  0  0  0  0  0  0  0  0  0
   27.3322   15.0555   18.2975 C   0  0  0  0  0  0  0  0  0  0  0  0
   27.5258   13.5599   18.1917 C   0  0  0  0  0  0  0  0  0  0  0  0
   26.7432   12.9732   17.0421 C   0  0  0  0  0  0  0  0  0  0  0  0
   27.0827   11.5005   16.8388 C   0  0  0  0  0  0  0  0  0  0  0  0
   26.2015   10.5785   17.6047 N   0  0  0  0  0  0  0  0  0  0  0  0
   25.6080   14.9555   20.5584 O   0  0  0  0  0  0  0  0  0  0  0  0
  2  1  1  1  0  0  0
  2  3  1  0  0  0  0
  2  5  1  0  0  0  0
  3  4  1  0  0  0  0
  3 10  1  0  0  0  0
  5  6  1  0  0  0  0
  6  7  1  0  0  0  0
  7  8  1  0  0  0  0
  8  9  1  0  0  0  0
M  END
>  <CHROM.1>
22.17332354,58.55367510,162.65453515,172.86546152,90.80372521,27.12427877
13.96279372,19.11575561,-1.41805009,-0.71749522,-2.25945835

>  <Name>
ligand

>  <RI>
0

>  <Rbt.Current_Directory>
/home/itssahil/PROJECTS/Mol_Feturizer/New_Systems/rnas/3DIY

>  <Rbt.Executable>
rbdock ($Id: //depot/dev/client3/rdock/2013.1/src/exe/rbdock.cxx#4 $)

>  <Rbt.Library>
libRbt.so (2013.1, Build901 2013/11/27)

>  <Rbt.Parameter_File>
/export/apps/rDock/src/rDock_2013.1_src/data/scripts/dock_solv.prm

>  <Rbt.Receptor>
prm/blind_docking_40.prm

>  <SCORE>
-8.83087

>  <SCORE.INTER>
-10.5244

>  <SCORE.INTER.CONST>
1

>  <SCORE.INTER.POLAR>
0

>  <SCORE.INTER.ROT>
5

>  <SCORE.INTER.SOLV>
13.9008

>  <SCORE.INTER.VDW>
-18.5832

>  <SCORE.INTER.norm>
-1.05244

>  <SCORE.INTRA>
1.69353

>  <SCORE.INTRA.DIHEDRAL>
3.18668

>  <SCORE.INTRA.DIHEDRAL.0>
2.56603

>  <SCORE.INTRA.POLAR>
0

>  <SCORE.INTRA.POLAR.0>
0

>  <SCORE.INTRA.REPUL>
0

>  <SCORE.INTRA.REPUL.0>
0

>  <SCORE.INTRA.SOLV>
-0.24625

>  <SCORE.INTRA.SOLV.lig_0>
-32.0799

>  <SCORE.INTRA.VDW>
0.223319

>  <SCORE.INTRA.VDW.0>
-0.618248

>  <SCORE.INTRA.norm>
0.169353

>  <SCORE.RESTR>
0

>  <SCORE.RESTR.CAVITY>
0

>  <SCORE.RESTR.norm>
0

>  <SCORE.SYSTEM>
0

>  <SCORE.SYSTEM.CONST>
0

>  <SCORE.SYSTEM.DIHEDRAL>
0

>  <SCORE.SYSTEM.SOLV>
0

>  <SCORE.SYSTEM.norm>
0

>  <SCORE.heavy>
10

>  <SCORE.norm>
-0.883087

>  <RMSD>
5.342

$$$$
ligand
 OpenBabel11021811473D
libRbt.so/2013.1/901 2013/11/27
 10  9  0  0  0  0  0  0  0  0999 V2000
   27.0817   14.3230   18.3109 N   0  0  0  0  0  0  0  0  0  0  0  0
   27.7336   14.8570   19.5449 C   0  0  2  0  0  0  0  0  0  0  0  0
   26.7571   14.9694   20.7212 C   0  0  0  0  0  0  0  0  0  0  0  0
   25.5277   14.9660   20.5582 O   0  0  0  0  0  0  0  0  0  0  0  0
   28.4195   16.1966   19.2633 C   0  0  0  0  0  0  0  0  0  0  0  0
   29.2821   16.6764   20.4084 C   0  0  0  0  0  0  0  0  0  0  0  0
   30.4360   15.7397   20.6718 C   0  0  0  0  0  0  0  0  0  0  0  0
   31.2554   16.1988   21.8731 C   0  0  0  0  0  0  0  0  0  0  0  0
   31.9132   17.5179   21.6720 N   0  0  0  0  0  0  0  0  0  0  0  0
   27.1670   15.0309   21.8844 O   0  0  0  0  0  0  0  0  0  0  0  0
  2  1  1  6  0  0  0
  2  3  1  0  0  0  0
  2  5  1  0  0  0  0
  3  4  1  0  0  0  0
  3 10  1  0  0  0  0
  5  6  1  0  0  0  0
  6  7  1  0  0  0  0
  7  8  1  0  0  0  0
  8  9  1  0  0  0  0
M  END
>  <CHROM.1>
-18.11525600,-170.68477892,63.63696370,-177.12623522,-63.64605686,28.52687537
15.64468095,20.51486142,-2.83083516,0.35943273,1.46074505

>  <Name>
ligand

>  <RI>
0

>  <Rbt.Current_Directory>
/home/itssahil/PROJECTS/Mol_Feturizer/New_Systems/rnas/3DIY

>  <Rbt.Executable>
rbdock ($Id: //depot/dev/client3/rdock/2013.1/src/exe/rbdock.cxx#4 $)

>  <Rbt.Library>
libRbt.so (2013.1, Build901 2013/11/27)

>  <Rbt.Parameter_File>
/export/apps/rDock/src/rDock_2013.1_src/data/scripts/dock_solv.prm

>  <Rbt.Receptor>
prm/pocket_docking_3.prm

>  <SCORE>
-9.93548

>  <SCORE.INTER>
-9.69016

>  <SCORE.INTER.CONST>
1

>  <SCORE.INTER.POLAR>
0

>  <SCORE.INTER.ROT>
5

>  <SCORE.INTER.SOLV>
13.8677

>  <SCORE.INTER.VDW>
-18.016

>  <SCORE.INTER.norm>
-0.969016

>  <SCORE.INTRA>
-0.245324

>  <SCORE.INTRA.DIHEDRAL>
-0.516171

>  <SCORE.INTRA.DIHEDRAL.0>
2.56603

>  <SCORE.INTRA.POLAR>
0

>  <SCORE.INTRA.POLAR.0>
0

>  <SCORE.INTRA.REPUL>
0

>  <SCORE.INTRA.REPUL.0>
0

>  <SCORE.INTRA.SOLV>
-0.397884

>  <SCORE.INTRA.SOLV.lig_0>
-32.0799

>  <SCORE.INTRA.VDW>
0.211703

>  <SCORE.INTRA.VDW.0>
-0.618248

>  <SCORE.INTRA.norm>
-0.0245324

>  <SCORE.RESTR>
0

>  <SCORE.RESTR.CAVITY>
0

>  <SCORE.RESTR.norm>
0

>  <SCORE.SYSTEM>
0

>  <SCORE.SYSTEM.CONST>
0

>  <SCORE.SYSTEM.DIHEDRAL>
0

>  <SCORE.SYSTEM.SOLV>
0

>  <SCORE.SYSTEM.norm>
0

>  <SCORE.heavy>
10

>  <SCORE.norm>
-0.993548

>  <RMSD>
5.342

$$$$
ligand
 OpenBabel11021811473D
libRbt.so/2013.1/901 2013/11/27
 10  9  0  0  0  0  0  0  0  0999 V2000
   27.0900   14.3220   18.3043 N   0  0  0  0  0  0  0  0  0  0  0  0
   27.7371   14.8554   19.5412 C   0  0  2  0  0  0  0  0  0  0  0  0
   26.7571   14.9627   20.7151 C   0  0  0  0  0  0  0  0  0  0  0  0
   25.5284   14.9749   20.5473 O   0  0  0  0  0  0  0  0  0  0  0  0
   28.4199   16.1976   19.2641 C   0  0  0  0  0  0  0  0  0  0  0  0
   29.2772   16.6780   20.4128 C   0  0  0  0  0  0  0  0  0  0  0  0
   30.4475   15.7579   20.6621 C   0  0  0  0  0  0  0  0  0  0  0  0
   31.2321   16.1862   21.8975 C   0  0  0  0  0  0  0  0  0  0  0  0
   31.8423   17.5372   21.7725 N   0  0  0  0  0  0  0  0  0  0  0  0
   27.1630   15.0040   21.8806 O   0  0  0  0  0  0  0  0  0  0  0  0
  2  1  1  6  0  0  0
  2  3  1  0  0  0  0
  2  5  1  0  0  0  0
  3  4  1  0  0  0  0
  3 10  1  0  0  0  0
  5  6  1  0  0  0  0
  6  7  1  0  0  0  0
  7  8  1  0  0  0  0
  8  9  1  0  0  0  0
M  END
>  <CHROM.1>
-19.14720449,-170.72694869,64.69136632,-175.01355797,-62.62637280,28.51899070
15.64456245,20.52361809,-2.81614540,0.36196773,1.45842512

>  <Name>
ligand

>  <RI>
0

>  <Rbt.Current_Directory>
/home/itssahil/PROJECTS/Mol_Feturizer/New_Systems/rnas/3DIY

>  <Rbt.Executable>
rbdock ($Id: //depot/dev/client3/rdock/2013.1/src/exe/rbdock.cxx#4 $)

>  <Rbt.Library>
libRbt.so (2013.1, Build901 2013/11/27)

>  <Rbt.Parameter_File>
/export/apps/rDock/src/rDock_2013.1_src/data/scripts/dock_solv.prm

>  <Rbt.Receptor>
prm/pocket_docking_5.prm

>  <SCORE>
-9.918

>  <SCORE.INTER>
-9.68101

>  <SCORE.INTER.CONST>
1

>  <SCORE.INTER.POLAR>
0

>  <SCORE.INTER.ROT>
5

>  <SCORE.INTER.SOLV>
13.8813

>  <SCORE.INTER.VDW>
-18.0144

>  <SCORE.INTER.norm>
-0.968101

>  <SCORE.INTRA>
-0.236989

>  <SCORE.INTRA.DIHEDRAL>
-0.435503

>  <SCORE.INTRA.DIHEDRAL.0>
2.56603

>  <SCORE.INTRA.POLAR>
0

>  <SCORE.INTRA.POLAR.0>
0

>  <SCORE.INTRA.REPUL>
0

>  <SCORE.INTRA.REPUL.0>
0

>  <SCORE.INTRA.SOLV>
-0.398177

>  <SCORE.INTRA.SOLV.lig_0>
-32.0799

>  <SCORE.INTRA.VDW>
0.179851

>  <SCORE.INTRA.VDW.0>
-0.618248

>  <SCORE.INTRA.norm>
-0.0236989

>  <SCORE.RESTR>
0

>  <SCORE.RESTR.CAVITY>
0

>  <SCORE.RESTR.norm>
0

>  <SCORE.SYSTEM>
0

>  <SCORE.SYSTEM.CONST>
0

>  <SCORE.SYSTEM.DIHEDRAL>
0

>  <SCORE.SYSTEM.SOLV>
0

>  <SCORE.SYSTEM.norm>
0

>  <SCORE.heavy>
10

>  <SCORE.norm>
-0.9918

>  <RMSD>
5.342

$$$$
ligand
 OpenBabel11021811473D
libRbt.so/2013.1/901 2013/11/27
 10  9  0  0  0  0  0  0  0  0999 V2000
   27.1131   14.3360   18.2767 N   0  0  0  0  0  0  0  0  0  0  0  0
   27.7525   14.8476   19.5266 C   0  0  2  0  0  0  0  0  0  0  0  0
   26.7644   14.9381   20.6951 C   0  0  0  0  0  0  0  0  0  0  0  0
   25.5379   14.9845   20.5173 O   0  0  0  0  0  0  0  0  0  0  0  0
   28.4403   16.1925   19.2764 C   0  0  0  0  0  0  0  0  0  0  0  0
   29.2867   16.6544   20.4407 C   0  0  0  0  0  0  0  0  0  0  0  0
   30.4623   15.7378   20.6778 C   0  0  0  0  0  0  0  0  0  0  0  0
   31.2493   16.1593   21.9140 C   0  0  0  0  0  0  0  0  0  0  0  0
   31.8426   17.5191   21.8031 N   0  0  0  0  0  0  0  0  0  0  0  0
   27.1602   14.9309   21.8648 O   0  0  0  0  0  0  0  0  0  0  0  0
  2  1  1  6  0  0  0
  2  3  1  0  0  0  0
  2  5  1  0  0  0  0
  3  4  1  0  0  0  0
  3 10  1  0  0  0  0
  5  6  1  0  0  0  0
  6  7  1  0  0  0  0
  7  8  1  0  0  0  0
  8  9  1  0  0  0  0
M  END
>  <CHROM.1>
-20.69877375,-170.92555384,65.37951255,-175.96845471,-62.11633432,28.53026116
15.62661342,20.52286883,-2.81289230,0.36271574,1.47183263

>  <Name>
ligand

>  <RI>
0

>  <Rbt.Current_Directory>
/home/itssahil/PROJECTS/Mol_Feturizer/New_Systems/rnas/3DIY

>  <Rbt.Executable>
rbdock ($Id: //depot/dev/client3/rdock/2013.1/src/exe/rbdock.cxx#4 $)

>  <Rbt.Library>
libRbt.so (2013.1, Build901 2013/11/27)

>  <Rbt.Parameter_File>
/export/apps/rDock/src/rDock_2013.1_src/data/scripts/dock_solv.prm

>  <Rbt.Receptor>
prm/pocket_docking_4.prm

>  <SCORE>
-9.855

>  <SCORE.INTER>
-9.58271

>  <SCORE.INTER.CONST>
1

>  <SCORE.INTER.POLAR>
0

>  <SCORE.INTER.ROT>
5

>  <SCORE.INTER.SOLV>
13.8354

>  <SCORE.INTER.VDW>
-17.9336

>  <SCORE.INTER.norm>
-0.958271

>  <SCORE.INTRA>
-0.272291

>  <SCORE.INTRA.DIHEDRAL>
-0.46231

>  <SCORE.INTRA.DIHEDRAL.0>
2.56603

>  <SCORE.INTRA.POLAR>
0

>  <SCORE.INTRA.POLAR.0>
0

>  <SCORE.INTRA.REPUL>
0

>  <SCORE.INTRA.REPUL.0>
0

>  <SCORE.INTRA.SOLV>
-0.39291

>  <SCORE.INTRA.SOLV.lig_0>
-32.0799

>  <SCORE.INTRA.VDW>
0.155318

>  <SCORE.INTRA.VDW.0>
-0.618248

>  <SCORE.INTRA.norm>
-0.0272291

>  <SCORE.RESTR>
0

>  <SCORE.RESTR.CAVITY>
0

>  <SCORE.RESTR.norm>
0

>  <SCORE.SYSTEM>
0

>  <SCORE.SYSTEM.CONST>
0

>  <SCORE.SYSTEM.DIHEDRAL>
0

>  <SCORE.SYSTEM.SOLV>
0

>  <SCORE.SYSTEM.norm>
0

>  <SCORE.heavy>
10

>  <SCORE.norm>
-0.9855

>  <RMSD>
5.343

$$$$
ligand
 OpenBabel11021811473D
libRbt.so/2013.1/901 2013/11/27
 10  9  0  0  0  0  0  0  0  0999 V2000
   28.6190   14.3064   18.8597 N   0  0  0  0  0  0  0  0  0  0  0  0
   28.2025   14.4616   20.2864 C   0  0  2  0  0  0  0  0  0  0  0  0
   26.8171   15.1028   20.4254 C   0  0  0  0  0  0  0  0  0  0  0  0
   26.4216   15.9886   19.6527 O   0  0  0  0  0  0  0  0  0  0  0  0
   29.2558   15.2389   21.0805 C   0  0  0  0  0  0  0  0  0  0  0  0
   29.4740   16.6432   20.5650 C   0  0  0  0  0  0  0  0  0  0  0  0
   30.5777   17.3501   21.3137 C   0  0  0  0  0  0  0  0  0  0  0  0
   31.9454   16.7914   20.9362 C   0  0  0  0  0  0  0  0  0  0  0  0
   33.0767   17.5035   21.5892 N   0  0  0  0  0  0  0  0  0  0  0  0
   26.0277   14.7285   21.2982 O   0  0  0  0  0  0  0  0  0  0  0  0
  2  1  1  6  0  0  0
  2  3  1  0  0  0  0
  2  5  1  0  0  0  0
  3  4  1  0  0  0  0
  3 10  1  0  0  0  0
  5  6  1  0  0  0  0
  6  7  1  0  0  0  0
  7  8  1  0  0  0  0
  8  9  1  0  0  0  0
M  END
>  <CHROM.1>
-35.93108135,61.51306720,-176.41775833,72.47674695,176.80898523,29.00026267
15.81856034,20.60205559,-2.73481712,0.13432807,0.72339533

>  <Name>
ligand

>  <RI>
0

>  <Rbt.Current_Directory>
/home/itssahil/PROJECTS/Mol_Feturizer/New_Systems/rnas/3DIY

>  <Rbt.Executable>
rbdock ($Id: //depot/dev/client3/rdock/2013.1/src/exe/rbdock.cxx#4 $)

>  <Rbt.Library>
libRbt.so (2013.1, Build901 2013/11/27)

>  <Rbt.Parameter_File>
/export/apps/rDock/src/rDock_2013.1_src/data/scripts/dock_solv.prm

>  <Rbt.Receptor>
prm/blind_docking_100.prm

>  <SCORE>
-8.43964

>  <SCORE.INTER>
-8.46652

>  <SCORE.INTER.CONST>
1

>  <SCORE.INTER.POLAR>
0

>  <SCORE.INTER.ROT>
5

>  <SCORE.INTER.SOLV>
13.8232

>  <SCORE.INTER.VDW>
-17.1854

>  <SCORE.INTER.norm>
-0.846652

>  <SCORE.INTRA>
0.0268728

>  <SCORE.INTRA.DIHEDRAL>
-0.23093

>  <SCORE.INTRA.DIHEDRAL.0>
2.56603

>  <SCORE.INTRA.POLAR>
0

>  <SCORE.INTRA.POLAR.0>
0

>  <SCORE.INTRA.REPUL>
0

>  <SCORE.INTRA.REPUL.0>
0

>  <SCORE.INTRA.SOLV>
-0.436395

>  <SCORE.INTRA.SOLV.lig_0>
-32.0799

>  <SCORE.INTRA.VDW>
0.360536

>  <SCORE.INTRA.VDW.0>
-0.618248

>  <SCORE.INTRA.norm>
0.00268728

>  <SCORE.RESTR>
0

>  <SCORE.RESTR.CAVITY>
0

>  <SCORE.RESTR.norm>
0

>  <SCORE.SYSTEM>
0

>  <SCORE.SYSTEM.CONST>
0

>  <SCORE.SYSTEM.DIHEDRAL>
0

>  <SCORE.SYSTEM.SOLV>
0

>  <SCORE.SYSTEM.norm>
0

>  <SCORE.heavy>
10

>  <SCORE.norm>
-0.843964

>  <RMSD>
5.347

$$$$
ligand
 OpenBabel11021811473D
libRbt.so/2013.1/901 2013/11/27
 10  9  0  0  0  0  0  0  0  0999 V2000
   28.3917   16.8531   19.8845 N   0  0  0  0  0  0  0  0  0  0  0  0
   28.3537   15.3726   20.0842 C   0  0  2  0  0  0  0  0  0  0  0  0
   26.9848   14.7711   19.7458 C   0  0  0  0  0  0  0  0  0  0  0  0
   26.8346   13.9547   18.8244 O   0  0  0  0  0  0  0  0  0  0  0  0
   28.7862   15.0026   21.5055 C   0  0  0  0  0  0  0  0  0  0  0  0
   30.2524   15.2608   21.7682 C   0  0  0  0  0  0  0  0  0  0  0  0
   30.5541   16.7370   21.8599 C   0  0  0  0  0  0  0  0  0  0  0  0
   32.0555   16.9881   21.9502 C   0  0  0  0  0  0  0  0  0  0  0  0
   32.7788   16.7164   20.6789 N   0  0  0  0  0  0  0  0  0  0  0  0
   25.9835   15.0555   20.4101 O   0  0  0  0  0  0  0  0  0  0  0  0
  2  1  1  1  0  0  0
  2  3  1  0  0  0  0
  2  5  1  0  0  0  0
  3  4  1  0  0  0  0
  3 10  1  0  0  0  0
  5  6  1  0  0  0  0
  6  7  1  0  0  0  0
  7  8  1  0  0  0  0
  8  9  1  0  0  0  0
M  END
>  <CHROM.1>
116.81636599,-68.76701108,71.57084603,-172.90427856,71.08586728,29.05743456
15.65326716,20.65922252,-2.82638608,0.36748015,1.57546402

>  <Name>
ligand

>  <RI>
0

>  <Rbt.Current_Directory>
/home/itssahil/PROJECTS/Mol_Feturizer/New_Systems/rnas/3DIY

>  <Rbt.Executable>
rbdock ($Id: //depot/dev/client3/rdock/2013.1/src/exe/rbdock.cxx#4 $)

>  <Rbt.Library>
libRbt.so (2013.1, Build901 2013/11/27)

>  <Rbt.Parameter_File>
/export/apps/rDock/src/rDock_2013.1_src/data/scripts/dock_solv.prm

>  <Rbt.Receptor>
prm/blind_docking_60.prm

>  <SCORE>
-7.06972

>  <SCORE.INTER>
-8.25519

>  <SCORE.INTER.CONST>
1

>  <SCORE.INTER.POLAR>
0

>  <SCORE.INTER.ROT>
5

>  <SCORE.INTER.SOLV>
14.5908

>  <SCORE.INTER.VDW>
-17.3004

>  <SCORE.INTER.norm>
-0.825519

>  <SCORE.INTRA>
1.18547

>  <SCORE.INTRA.DIHEDRAL>
0.517454

>  <SCORE.INTRA.DIHEDRAL.0>
2.56603

>  <SCORE.INTRA.POLAR>
0

>  <SCORE.INTRA.POLAR.0>
0

>  <SCORE.INTRA.REPUL>
0

>  <SCORE.INTRA.REPUL.0>
0

>  <SCORE.INTRA.SOLV>
1.52739

>  <SCORE.INTRA.SOLV.lig_0>
-32.0799

>  <SCORE.INTRA.VDW>
0.163051

>  <SCORE.INTRA.VDW.0>
-0.618248

>  <SCORE.INTRA.norm>
0.118547

>  <SCORE.RESTR>
0

>  <SCORE.RESTR.CAVITY>
0

>  <SCORE.RESTR.norm>
0

>  <SCORE.SYSTEM>
0

>  <SCORE.SYSTEM.CONST>
0

>  <SCORE.SYSTEM.DIHEDRAL>
0

>  <SCORE.SYSTEM.SOLV>
0

>  <SCORE.SYSTEM.norm>
0

>  <SCORE.heavy>
10

>  <SCORE.norm>
-0.706972

>  <RMSD>
5.347

$$$$
ligand
 OpenBabel11021811473D
libRbt.so/2013.1/901 2013/11/27
 10  9  0  0  0  0  0  0  0  0999 V2000
   28.7195   15.9726   19.1579 N   0  0  0  0  0  0  0  0  0  0  0  0
   28.4562   15.2258   20.4252 C   0  0  2  0  0  0  0  0  0  0  0  0
   26.9623   15.1493   20.7601 C   0  0  0  0  0  0  0  0  0  0  0  0
   26.5567   14.9093   21.9072 O   0  0  0  0  0  0  0  0  0  0  0  0
   29.2552   15.8234   21.5865 C   0  0  0  0  0  0  0  0  0  0  0  0
   30.7511   15.6982   21.4071 C   0  0  0  0  0  0  0  0  0  0  0  0
   31.2674   16.6299   20.3376 C   0  0  0  0  0  0  0  0  0  0  0  0
   32.7905   16.5996   20.2686 C   0  0  0  0  0  0  0  0  0  0  0  0
   33.4494   17.1609   21.4786 N   0  0  0  0  0  0  0  0  0  0  0  0
   26.1053   15.3624   19.8969 O   0  0  0  0  0  0  0  0  0  0  0  0
  2  1  1  6  0  0  0
  2  3  1  0  0  0  0
  2  5  1  0  0  0  0
  3  4  1  0  0  0  0
  3 10  1  0  0  0  0
  5  6  1  0  0  0  0
  6  7  1  0  0  0  0
  7  8  1  0  0  0  0
  8  9  1  0  0  0  0
M  END
>  <CHROM.1>
-159.99201039,-64.18700034,71.96004846,174.05028613,-66.89467277,29.38645303
15.84741115,20.72928886,3.12681749,0.25853887,1.75428639

>  <Name>
ligand

>  <RI>
0

>  <Rbt.Current_Directory>
/home/itssahil/PROJECTS/Mol_Feturizer/New_Systems/rnas/3DIY

>  <Rbt.Executable>
rbdock ($Id: //depot/dev/client3/rdock/2013.1/src/exe/rbdock.cxx#4 $)

>  <Rbt.Library>
libRbt.so (2013.1, Build901 2013/11/27)

>  <Rbt.Parameter_File>
/export/apps/rDock/src/rDock_2013.1_src/data/scripts/dock_solv.prm

>  <Rbt.Receptor>
prm/blind_docking_60.prm

>  <SCORE>
-7.79637

>  <SCORE.INTER>
-9.35477

>  <SCORE.INTER.CONST>
1

>  <SCORE.INTER.POLAR>
0

>  <SCORE.INTER.ROT>
5

>  <SCORE.INTER.SOLV>
12.1845

>  <SCORE.INTER.VDW>
-17.2314

>  <SCORE.INTER.norm>
-0.935477

>  <SCORE.INTRA>
1.5584

>  <SCORE.INTRA.DIHEDRAL>
0.020373

>  <SCORE.INTRA.DIHEDRAL.0>
2.56603

>  <SCORE.INTRA.POLAR>
0

>  <SCORE.INTRA.POLAR.0>
0

>  <SCORE.INTRA.REPUL>
0

>  <SCORE.INTRA.REPUL.0>
0

>  <SCORE.INTRA.SOLV>
1.63626

>  <SCORE.INTRA.SOLV.lig_0>
-32.0799

>  <SCORE.INTRA.VDW>
0.730079

>  <SCORE.INTRA.VDW.0>
-0.618248

>  <SCORE.INTRA.norm>
0.15584

>  <SCORE.RESTR>
0

>  <SCORE.RESTR.CAVITY>
0

>  <SCORE.RESTR.norm>
0

>  <SCORE.SYSTEM>
0

>  <SCORE.SYSTEM.CONST>
0

>  <SCORE.SYSTEM.DIHEDRAL>
0

>  <SCORE.SYSTEM.SOLV>
0

>  <SCORE.SYSTEM.norm>
0

>  <SCORE.heavy>
10

>  <SCORE.norm>
-0.779637

>  <RMSD>
5.347

$$$$
ligand
 OpenBabel11021811473D
libRbt.so/2013.1/901 2013/11/27
 10  9  0  0  0  0  0  0  0  0999 V2000
   27.0846   14.2873   18.2769 N   0  0  0  0  0  0  0  0  0  0  0  0
   27.7319   14.8298   19.5097 C   0  0  2  0  0  0  0  0  0  0  0  0
   26.7596   14.9163   20.6918 C   0  0  0  0  0  0  0  0  0  0  0  0
   25.5320   14.9847   20.5301 O   0  0  0  0  0  0  0  0  0  0  0  0
   28.3876   16.1849   19.2303 C   0  0  0  0  0  0  0  0  0  0  0  0
   29.2608   16.6693   20.3653 C   0  0  0  0  0  0  0  0  0  0  0  0
   30.4246   15.7406   20.6132 C   0  0  0  0  0  0  0  0  0  0  0  0
   31.2449   16.1937   21.8161 C   0  0  0  0  0  0  0  0  0  0  0  0
   31.9228   17.5020   21.6117 N   0  0  0  0  0  0  0  0  0  0  0  0
   27.1697   14.8837   21.8561 O   0  0  0  0  0  0  0  0  0  0  0  0
  2  1  1  6  0  0  0
  2  3  1  0  0  0  0
  2  5  1  0  0  0  0
  3  4  1  0  0  0  0
  3 10  1  0  0  0  0
  5  6  1  0  0  0  0
  6  7  1  0  0  0  0
  7  8  1  0  0  0  0
  8  9  1  0  0  0  0
M  END
>  <CHROM.1>
-23.42402117,-169.91693140,62.75683559,-176.37947996,-65.38960971,28.52148908
15.61568296,20.47429207,-2.84669802,0.37297573,1.48659321

>  <Name>
ligand

>  <RI>
0

>  <Rbt.Current_Directory>
/home/itssahil/PROJECTS/Mol_Feturizer/New_Systems/rnas/3DIY

>  <Rbt.Executable>
rbdock ($Id: //depot/dev/client3/rdock/2013.1/src/exe/rbdock.cxx#4 $)

>  <Rbt.Library>
libRbt.so (2013.1, Build901 2013/11/27)

>  <Rbt.Parameter_File>
/export/apps/rDock/src/rDock_2013.1_src/data/scripts/dock_solv.prm

>  <Rbt.Receptor>
prm/pocket_docking_8.prm

>  <SCORE>
-9.95111

>  <SCORE.INTER>
-9.67837

>  <SCORE.INTER.CONST>
1

>  <SCORE.INTER.POLAR>
0

>  <SCORE.INTER.ROT>
5

>  <SCORE.INTER.SOLV>
14.0074

>  <SCORE.INTER.VDW>
-18.0547

>  <SCORE.INTER.norm>
-0.967837

>  <SCORE.INTRA>
-0.272745

>  <SCORE.INTRA.DIHEDRAL>
-0.399084

>  <SCORE.INTRA.DIHEDRAL.0>
2.56603

>  <SCORE.INTRA.POLAR>
0

>  <SCORE.INTRA.POLAR.0>
0

>  <SCORE.INTRA.REPUL>
0

>  <SCORE.INTRA.REPUL.0>
0

>  <SCORE.INTRA.SOLV>
-0.415761

>  <SCORE.INTRA.SOLV.lig_0>
-32.0799

>  <SCORE.INTRA.VDW>
0.134677

>  <SCORE.INTRA.VDW.0>
-0.618248

>  <SCORE.INTRA.norm>
-0.0272745

>  <SCORE.RESTR>
0

>  <SCORE.RESTR.CAVITY>
0

>  <SCORE.RESTR.norm>
0

>  <SCORE.SYSTEM>
0

>  <SCORE.SYSTEM.CONST>
0

>  <SCORE.SYSTEM.DIHEDRAL>
0

>  <SCORE.SYSTEM.SOLV>
0

>  <SCORE.SYSTEM.norm>
0

>  <SCORE.heavy>
10

>  <SCORE.norm>
-0.995111

>  <RMSD>
5.348

$$$$
ligand
 OpenBabel11021811473D
libRbt.so/2013.1/901 2013/11/27
 10  9  0  0  0  0  0  0  0  0999 V2000
   27.0892   14.3530   18.2418 N   0  0  0  0  0  0  0  0  0  0  0  0
   27.7304   14.8461   19.4983 C   0  0  2  0  0  0  0  0  0  0  0  0
   26.7438   14.9200   20.6691 C   0  0  0  0  0  0  0  0  0  0  0  0
   27.1212   14.8936   21.8502 O   0  0  0  0  0  0  0  0  0  0  0  0
   28.4186   16.1941   19.2667 C   0  0  0  0  0  0  0  0  0  0  0  0
   29.2511   16.6479   20.4441 C   0  0  0  0  0  0  0  0  0  0  0  0
   30.4107   15.7169   20.7028 C   0  0  0  0  0  0  0  0  0  0  0  0
   31.1941   16.1427   21.9399 C   0  0  0  0  0  0  0  0  0  0  0  0
   31.8368   17.4774   21.8034 N   0  0  0  0  0  0  0  0  0  0  0  0
   25.5313   15.0463   20.4720 O   0  0  0  0  0  0  0  0  0  0  0  0
  2  1  1  6  0  0  0
  2  3  1  0  0  0  0
  2  5  1  0  0  0  0
  3  4  1  0  0  0  0
  3 10  1  0  0  0  0
  5  6  1  0  0  0  0
  6  7  1  0  0  0  0
  7  8  1  0  0  0  0
  8  9  1  0  0  0  0
M  END
>  <CHROM.1>
157.09840114,-171.72785846,64.30273513,-176.77399603,-63.54265735,28.50206667
15.62105488,20.51224027,-2.80671562,0.35975828,1.48640905

>  <Name>
ligand

>  <RI>
0

>  <Rbt.Current_Directory>
/home/itssahil/PROJECTS/Mol_Feturizer/New_Systems/rnas/3DIY

>  <Rbt.Executable>
rbdock ($Id: //depot/dev/client3/rdock/2013.1/src/exe/rbdock.cxx#4 $)

>  <Rbt.Library>
libRbt.so (2013.1, Build901 2013/11/27)

>  <Rbt.Parameter_File>
/export/apps/rDock/src/rDock_2013.1_src/data/scripts/dock_solv.prm

>  <Rbt.Receptor>
prm/blind_docking_100.prm

>  <SCORE>
-9.95189

>  <SCORE.INTER>
-9.5676

>  <SCORE.INTER.CONST>
1

>  <SCORE.INTER.POLAR>
0

>  <SCORE.INTER.ROT>
5

>  <SCORE.INTER.SOLV>
13.9257

>  <SCORE.INTER.VDW>
-17.9536

>  <SCORE.INTER.norm>
-0.95676

>  <SCORE.INTRA>
-0.384292

>  <SCORE.INTRA.DIHEDRAL>
-0.689571

>  <SCORE.INTRA.DIHEDRAL.0>
2.56603

>  <SCORE.INTRA.POLAR>
0

>  <SCORE.INTRA.POLAR.0>
0

>  <SCORE.INTRA.REPUL>
0

>  <SCORE.INTRA.REPUL.0>
0

>  <SCORE.INTRA.SOLV>
-0.413056

>  <SCORE.INTRA.SOLV.lig_0>
-32.0799

>  <SCORE.INTRA.VDW>
0.167022

>  <SCORE.INTRA.VDW.0>
-0.618248

>  <SCORE.INTRA.norm>
-0.0384292

>  <SCORE.RESTR>
0

>  <SCORE.RESTR.CAVITY>
0

>  <SCORE.RESTR.norm>
0

>  <SCORE.SYSTEM>
0

>  <SCORE.SYSTEM.CONST>
0

>  <SCORE.SYSTEM.DIHEDRAL>
0

>  <SCORE.SYSTEM.SOLV>
0

>  <SCORE.SYSTEM.norm>
0

>  <SCORE.heavy>
10

>  <SCORE.norm>
-0.995189

>  <RMSD>
5.349

$$$$
ligand
 OpenBabel11021811473D
libRbt.so/2013.1/901 2013/11/27
 10  9  0  0  0  0  0  0  0  0999 V2000
   28.2015   14.8439   18.5709 N   0  0  0  0  0  0  0  0  0  0  0  0
   28.2140   15.3490   19.9772 C   0  0  2  0  0  0  0  0  0  0  0  0
   26.8588   15.1775   20.6730 C   0  0  0  0  0  0  0  0  0  0  0  0
   25.7880   15.2312   20.0499 O   0  0  0  0  0  0  0  0  0  0  0  0
   28.6842   16.8052   20.0296 C   0  0  0  0  0  0  0  0  0  0  0  0
   30.1805   16.9423   20.1957 C   0  0  0  0  0  0  0  0  0  0  0  0
   30.6498   16.3957   21.5221 C   0  0  0  0  0  0  0  0  0  0  0  0
   32.1550   16.5730   21.6898 C   0  0  0  0  0  0  0  0  0  0  0  0
   32.5763   17.9964   21.7886 N   0  0  0  0  0  0  0  0  0  0  0  0
   26.7907   14.9416   21.8832 O   0  0  0  0  0  0  0  0  0  0  0  0
  2  1  1  6  0  0  0
  2  3  1  0  0  0  0
  2  5  1  0  0  0  0
  3  4  1  0  0  0  0
  3 10  1  0  0  0  0
  5  6  1  0  0  0  0
  6  7  1  0  0  0  0
  7  8  1  0  0  0  0
  8  9  1  0  0  0  0
M  END
>  <CHROM.1>
-31.49250732,-90.13340393,-64.65681003,-178.56471317,66.28612638,28.96983254
16.01614678,20.65153434,-2.91545536,0.37620352,1.53323894

>  <Name>
ligand

>  <RI>
0

>  <Rbt.Current_Directory>
/home/itssahil/PROJECTS/Mol_Feturizer/New_Systems/rnas/3DIY

>  <Rbt.Executable>
rbdock ($Id: //depot/dev/client3/rdock/2013.1/src/exe/rbdock.cxx#4 $)

>  <Rbt.Library>
libRbt.so (2013.1, Build901 2013/11/27)

>  <Rbt.Parameter_File>
/export/apps/rDock/src/rDock_2013.1_src/data/scripts/dock_solv.prm

>  <Rbt.Receptor>
prm/blind_docking_100.prm

>  <SCORE>
-8.07359

>  <SCORE.INTER>
-9.23136

>  <SCORE.INTER.CONST>
1

>  <SCORE.INTER.POLAR>
0

>  <SCORE.INTER.ROT>
5

>  <SCORE.INTER.SOLV>
11.5225

>  <SCORE.INTER.VDW>
-16.9284

>  <SCORE.INTER.norm>
-0.923136

>  <SCORE.INTRA>
1.15777

>  <SCORE.INTRA.DIHEDRAL>
2.20902

>  <SCORE.INTRA.DIHEDRAL.0>
2.56603

>  <SCORE.INTRA.POLAR>
0

>  <SCORE.INTRA.POLAR.0>
0

>  <SCORE.INTRA.REPUL>
0

>  <SCORE.INTRA.REPUL.0>
0

>  <SCORE.INTRA.SOLV>
0.166681

>  <SCORE.INTRA.SOLV.lig_0>
-32.0799

>  <SCORE.INTRA.VDW>
-0.0300779

>  <SCORE.INTRA.VDW.0>
-0.618248

>  <SCORE.INTRA.norm>
0.115777

>  <SCORE.RESTR>
0

>  <SCORE.RESTR.CAVITY>
0

>  <SCORE.RESTR.norm>
0

>  <SCORE.SYSTEM>
0

>  <SCORE.SYSTEM.CONST>
0

>  <SCORE.SYSTEM.DIHEDRAL>
0

>  <SCORE.SYSTEM.SOLV>
0

>  <SCORE.SYSTEM.norm>
0

>  <SCORE.heavy>
10

>  <SCORE.norm>
-0.807359

>  <RMSD>
5.351

$$$$
ligand
 OpenBabel11021811473D
libRbt.so/2013.1/901 2013/11/27
 10  9  0  0  0  0  0  0  0  0999 V2000
   27.1336   14.4604   18.2951 N   0  0  0  0  0  0  0  0  0  0  0  0
   27.7510   14.9300   19.5724 C   0  0  2  0  0  0  0  0  0  0  0  0
   26.7466   14.9650   20.7300 C   0  0  0  0  0  0  0  0  0  0  0  0
   27.1099   15.0111   21.9148 O   0  0  0  0  0  0  0  0  0  0  0  0
   28.4274   16.2905   19.3833 C   0  0  0  0  0  0  0  0  0  0  0  0
   29.2913   16.6943   20.5564 C   0  0  0  0  0  0  0  0  0  0  0  0
   30.4758   15.7737   20.7234 C   0  0  0  0  0  0  0  0  0  0  0  0
   31.3024   16.1556   21.9466 C   0  0  0  0  0  0  0  0  0  0  0  0
   31.8972   17.5163   21.8581 N   0  0  0  0  0  0  0  0  0  0  0  0
   25.5306   14.9855   20.5164 O   0  0  0  0  0  0  0  0  0  0  0  0
  2  1  1  6  0  0  0
  2  3  1  0  0  0  0
  2  5  1  0  0  0  0
  3  4  1  0  0  0  0
  3 10  1  0  0  0  0
  5  6  1  0  0  0  0
  6  7  1  0  0  0  0
  7  8  1  0  0  0  0
  8  9  1  0  0  0  0
M  END
>  <CHROM.1>
162.38491392,-168.95118000,65.39617500,-177.45210932,-62.52640435,28.53531955
15.67468934,20.57280433,-2.81985764,0.35344340,1.48703292

>  <Name>
ligand

>  <RI>
0

>  <Rbt.Current_Directory>
/home/itssahil/PROJECTS/Mol_Feturizer/New_Systems/rnas/3DIY

>  <Rbt.Executable>
rbdock ($Id: //depot/dev/client3/rdock/2013.1/src/exe/rbdock.cxx#4 $)

>  <Rbt.Library>
libRbt.so (2013.1, Build901 2013/11/27)

>  <Rbt.Parameter_File>
/export/apps/rDock/src/rDock_2013.1_src/data/scripts/dock_solv.prm

>  <Rbt.Receptor>
prm/pocket_docking_3.prm

>  <SCORE>
-9.94248

>  <SCORE.INTER>
-9.68037

>  <SCORE.INTER.CONST>
1

>  <SCORE.INTER.POLAR>
0

>  <SCORE.INTER.ROT>
5

>  <SCORE.INTER.SOLV>
13.6738

>  <SCORE.INTER.VDW>
-17.9448

>  <SCORE.INTER.norm>
-0.968037

>  <SCORE.INTRA>
-0.26211

>  <SCORE.INTRA.DIHEDRAL>
-0.484097

>  <SCORE.INTRA.DIHEDRAL.0>
2.56603

>  <SCORE.INTRA.POLAR>
0

>  <SCORE.INTRA.POLAR.0>
0

>  <SCORE.INTRA.REPUL>
0

>  <SCORE.INTRA.REPUL.0>
0

>  <SCORE.INTRA.SOLV>
-0.376608

>  <SCORE.INTRA.SOLV.lig_0>
-32.0799

>  <SCORE.INTRA.VDW>
0.168242

>  <SCORE.INTRA.VDW.0>
-0.618248

>  <SCORE.INTRA.norm>
-0.026211

>  <SCORE.RESTR>
0

>  <SCORE.RESTR.CAVITY>
0

>  <SCORE.RESTR.norm>
0

>  <SCORE.SYSTEM>
0

>  <SCORE.SYSTEM.CONST>
0

>  <SCORE.SYSTEM.DIHEDRAL>
0

>  <SCORE.SYSTEM.SOLV>
0

>  <SCORE.SYSTEM.norm>
0

>  <SCORE.heavy>
10

>  <SCORE.norm>
-0.994248

>  <RMSD>
5.351

$$$$
ligand
 OpenBabel11021811473D
libRbt.so/2013.1/901 2013/11/27
 10  9  0  0  0  0  0  0  0  0999 V2000
   27.8360   15.0581   18.6057 N   0  0  0  0  0  0  0  0  0  0  0  0
   27.9573   14.5757   20.0148 C   0  0  2  0  0  0  0  0  0  0  0  0
   26.7414   14.9521   20.8693 C   0  0  0  0  0  0  0  0  0  0  0  0
   26.8292   15.1387   22.0922 O   0  0  0  0  0  0  0  0  0  0  0  0
   29.2580   15.0728   20.6515 C   0  0  0  0  0  0  0  0  0  0  0  0
   29.3705   16.5801   20.6772 C   0  0  0  0  0  0  0  0  0  0  0  0
   30.6941   17.0340   21.2435 C   0  0  0  0  0  0  0  0  0  0  0  0
   31.8434   16.6903   20.3021 C   0  0  0  0  0  0  0  0  0  0  0  0
   33.1736   17.1224   20.8092 N   0  0  0  0  0  0  0  0  0  0  0  0
   25.6307   15.1191   20.3561 O   0  0  0  0  0  0  0  0  0  0  0  0
  2  1  1  6  0  0  0
  2  3  1  0  0  0  0
  2  5  1  0  0  0  0
  3  4  1  0  0  0  0
  3 10  1  0  0  0  0
  5  6  1  0  0  0  0
  6  7  1  0  0  0  0
  7  8  1  0  0  0  0
  8  9  1  0  0  0  0
M  END
>  <CHROM.1>
-150.87924528,59.16802261,-176.98145373,68.78072234,179.70791568,28.89567044
15.73676423,20.58042735,-3.02672052,0.32253014,1.29630283

>  <Name>
ligand

>  <RI>
0

>  <Rbt.Current_Directory>
/home/itssahil/PROJECTS/Mol_Feturizer/New_Systems/rnas/3DIY

>  <Rbt.Executable>
rbdock ($Id: //depot/dev/client3/rdock/2013.1/src/exe/rbdock.cxx#4 $)

>  <Rbt.Library>
libRbt.so (2013.1, Build901 2013/11/27)

>  <Rbt.Parameter_File>
/export/apps/rDock/src/rDock_2013.1_src/data/scripts/dock_solv.prm

>  <Rbt.Receptor>
prm/pocket_docking_4.prm

>  <SCORE>
-8.87984

>  <SCORE.INTER>
-9.40873

>  <SCORE.INTER.CONST>
1

>  <SCORE.INTER.POLAR>
0

>  <SCORE.INTER.ROT>
5

>  <SCORE.INTER.SOLV>
12.6751

>  <SCORE.INTER.VDW>
-17.4308

>  <SCORE.INTER.norm>
-0.940873

>  <SCORE.INTRA>
0.528891

>  <SCORE.INTRA.DIHEDRAL>
-0.591045

>  <SCORE.INTRA.DIHEDRAL.0>
2.56603

>  <SCORE.INTRA.POLAR>
0

>  <SCORE.INTRA.POLAR.0>
0

>  <SCORE.INTRA.REPUL>
0

>  <SCORE.INTRA.REPUL.0>
0

>  <SCORE.INTRA.SOLV>
-0.367693

>  <SCORE.INTRA.SOLV.lig_0>
-32.0799

>  <SCORE.INTRA.VDW>
1.00826

>  <SCORE.INTRA.VDW.0>
-0.618248

>  <SCORE.INTRA.norm>
0.0528891

>  <SCORE.RESTR>
0

>  <SCORE.RESTR.CAVITY>
0

>  <SCORE.RESTR.norm>
0

>  <SCORE.SYSTEM>
0

>  <SCORE.SYSTEM.CONST>
0

>  <SCORE.SYSTEM.DIHEDRAL>
0

>  <SCORE.SYSTEM.SOLV>
0

>  <SCORE.SYSTEM.norm>
0

>  <SCORE.heavy>
10

>  <SCORE.norm>
-0.887984

>  <RMSD>
5.353

$$$$
ligand
 OpenBabel11021811473D
libRbt.so/2013.1/901 2013/11/27
 10  9  0  0  0  0  0  0  0  0999 V2000
   28.4183   16.9803   19.4856 N   0  0  0  0  0  0  0  0  0  0  0  0
   28.5674   15.5782   19.9806 C   0  0  2  0  0  0  0  0  0  0  0  0
   27.2287   14.8339   20.0431 C   0  0  0  0  0  0  0  0  0  0  0  0
   26.8345   14.1103   19.1163 O   0  0  0  0  0  0  0  0  0  0  0  0
   29.2810   15.5510   21.3350 C   0  0  0  0  0  0  0  0  0  0  0  0
   30.5638   16.3508   21.3485 C   0  0  0  0  0  0  0  0  0  0  0  0
   31.5968   15.7695   20.4140 C   0  0  0  0  0  0  0  0  0  0  0  0
   32.7653   16.7295   20.2182 C   0  0  0  0  0  0  0  0  0  0  0  0
   33.4470   17.0993   21.4878 N   0  0  0  0  0  0  0  0  0  0  0  0
   26.5089   14.9027   21.0441 O   0  0  0  0  0  0  0  0  0  0  0  0
  2  1  1  1  0  0  0
  2  3  1  0  0  0  0
  2  5  1  0  0  0  0
  3  4  1  0  0  0  0
  3 10  1  0  0  0  0
  5  6  1  0  0  0  0
  6  7  1  0  0  0  0
  7  8  1  0  0  0  0
  8  9  1  0  0  0  0
M  END
>  <CHROM.1>
94.80279374,-50.25114039,-64.44216849,168.36151447,57.91109448,29.48066768
15.76949947,20.44614723,-3.00947334,0.32977197,1.62896303

>  <Name>
ligand

>  <RI>
0

>  <Rbt.Current_Directory>
/home/itssahil/PROJECTS/Mol_Feturizer/New_Systems/rnas/3DIY

>  <Rbt.Executable>
rbdock ($Id: //depot/dev/client3/rdock/2013.1/src/exe/rbdock.cxx#4 $)

>  <Rbt.Library>
libRbt.so (2013.1, Build901 2013/11/27)

>  <Rbt.Parameter_File>
/export/apps/rDock/src/rDock_2013.1_src/data/scripts/dock_solv.prm

>  <Rbt.Receptor>
prm/pocket_docking_2.prm

>  <SCORE>
-6.07856

>  <SCORE.INTER>
-7.40915

>  <SCORE.INTER.CONST>
1

>  <SCORE.INTER.POLAR>
0

>  <SCORE.INTER.ROT>
5

>  <SCORE.INTER.SOLV>
15.9964

>  <SCORE.INTER.VDW>
-17.2049

>  <SCORE.INTER.norm>
-0.740915

>  <SCORE.INTRA>
1.33059

>  <SCORE.INTRA.DIHEDRAL>
0.03235

>  <SCORE.INTRA.DIHEDRAL.0>
2.56603

>  <SCORE.INTRA.POLAR>
0

>  <SCORE.INTRA.POLAR.0>
0

>  <SCORE.INTRA.REPUL>
0

>  <SCORE.INTRA.REPUL.0>
0

>  <SCORE.INTRA.SOLV>
1.17304

>  <SCORE.INTRA.SOLV.lig_0>
-32.0799

>  <SCORE.INTRA.VDW>
0.72789

>  <SCORE.INTRA.VDW.0>
-0.618248

>  <SCORE.INTRA.norm>
0.133059

>  <SCORE.RESTR>
0

>  <SCORE.RESTR.CAVITY>
0

>  <SCORE.RESTR.norm>
0

>  <SCORE.SYSTEM>
0

>  <SCORE.SYSTEM.CONST>
0

>  <SCORE.SYSTEM.DIHEDRAL>
0

>  <SCORE.SYSTEM.SOLV>
0

>  <SCORE.SYSTEM.norm>
0

>  <SCORE.heavy>
10

>  <SCORE.norm>
-0.607856

>  <RMSD>
5.354

$$$$
ligand
 OpenBabel11021811473D
libRbt.so/2013.1/901 2013/11/27
 10  9  0  0  0  0  0  0  0  0999 V2000
   27.7664   14.4503   18.4451 N   0  0  0  0  0  0  0  0  0  0  0  0
   28.0246   14.4807   19.9166 C   0  0  2  0  0  0  0  0  0  0  0  0
   26.8138   14.9795   20.7134 C   0  0  0  0  0  0  0  0  0  0  0  0
   26.8396   15.0913   21.9482 O   0  0  0  0  0  0  0  0  0  0  0  0
   29.2754   15.3048   20.2340 C   0  0  0  0  0  0  0  0  0  0  0  0
   29.7267   15.1731   21.6707 C   0  0  0  0  0  0  0  0  0  0  0  0
   31.0777   15.8080   21.8945 C   0  0  0  0  0  0  0  0  0  0  0  0
   31.0013   17.3257   21.7674 C   0  0  0  0  0  0  0  0  0  0  0  0
   32.3112   18.0031   21.9643 N   0  0  0  0  0  0  0  0  0  0  0  0
   25.7747   15.3243   20.1421 O   0  0  0  0  0  0  0  0  0  0  0  0
  2  1  1  6  0  0  0
  2  3  1  0  0  0  0
  2  5  1  0  0  0  0
  3  4  1  0  0  0  0
  3 10  1  0  0  0  0
  5  6  1  0  0  0  0
  6  7  1  0  0  0  0
  7  8  1  0  0  0  0
  8  9  1  0  0  0  0
M  END
>  <CHROM.1>
-179.06662860,-169.85390376,170.61630761,68.65131623,-179.36595890,28.82461819
15.59982588,20.88375921,-2.67545915,0.26856462,1.15389436

>  <Name>
ligand

>  <RI>
0

>  <Rbt.Current_Directory>
/home/itssahil/PROJECTS/Mol_Feturizer/New_Systems/rnas/3DIY

>  <Rbt.Executable>
rbdock ($Id: //depot/dev/client3/rdock/2013.1/src/exe/rbdock.cxx#4 $)

>  <Rbt.Library>
libRbt.so (2013.1, Build901 2013/11/27)

>  <Rbt.Parameter_File>
/export/apps/rDock/src/rDock_2013.1_src/data/scripts/dock_solv.prm

>  <Rbt.Receptor>
prm/pocket_docking_6.prm

>  <SCORE>
-9.29551

>  <SCORE.INTER>
-9.52718

>  <SCORE.INTER.CONST>
1

>  <SCORE.INTER.POLAR>
0

>  <SCORE.INTER.ROT>
5

>  <SCORE.INTER.SOLV>
13.5238

>  <SCORE.INTER.VDW>
-17.7927

>  <SCORE.INTER.norm>
-0.952718

>  <SCORE.INTRA>
0.231675

>  <SCORE.INTRA.DIHEDRAL>
0.00639123

>  <SCORE.INTRA.DIHEDRAL.0>
2.56603

>  <SCORE.INTRA.POLAR>
0

>  <SCORE.INTRA.POLAR.0>
0

>  <SCORE.INTRA.REPUL>
0

>  <SCORE.INTRA.REPUL.0>
0

>  <SCORE.INTRA.SOLV>
-1.33774

>  <SCORE.INTRA.SOLV.lig_0>
-32.0799

>  <SCORE.INTRA.VDW>
0.897351

>  <SCORE.INTRA.VDW.0>
-0.618248

>  <SCORE.INTRA.norm>
0.0231675

>  <SCORE.RESTR>
0

>  <SCORE.RESTR.CAVITY>
0

>  <SCORE.RESTR.norm>
0

>  <SCORE.SYSTEM>
0

>  <SCORE.SYSTEM.CONST>
0

>  <SCORE.SYSTEM.DIHEDRAL>
0

>  <SCORE.SYSTEM.SOLV>
0

>  <SCORE.SYSTEM.norm>
0

>  <SCORE.heavy>
10

>  <SCORE.norm>
-0.929551

>  <RMSD>
5.354

$$$$
ligand
 OpenBabel11021811473D
libRbt.so/2013.1/901 2013/11/27
 10  9  0  0  0  0  0  0  0  0999 V2000
   25.8153   15.5743   19.7015 N   0  0  0  0  0  0  0  0  0  0  0  0
   27.2857   15.3788   19.8827 C   0  0  2  0  0  0  0  0  0  0  0  0
   27.9002   14.5057   18.7827 C   0  0  0  0  0  0  0  0  0  0  0  0
   29.1034   14.5682   18.4886 O   0  0  0  0  0  0  0  0  0  0  0  0
   27.5939   14.8176   21.2736 C   0  0  0  0  0  0  0  0  0  0  0  0
   29.0737   14.7563   21.5766 C   0  0  0  0  0  0  0  0  0  0  0  0
   29.6869   16.1332   21.6575 C   0  0  0  0  0  0  0  0  0  0  0  0
   31.1875   16.0539   21.9168 C   0  0  0  0  0  0  0  0  0  0  0  0
   31.8497   17.3849   21.9744 N   0  0  0  0  0  0  0  0  0  0  0  0
   27.2174   13.6772   18.1726 O   0  0  0  0  0  0  0  0  0  0  0  0
  2  1  1  6  0  0  0
  2  3  1  0  0  0  0
  2  5  1  0  0  0  0
  3  4  1  0  0  0  0
  3 10  1  0  0  0  0
  5  6  1  0  0  0  0
  6  7  1  0  0  0  0
  7  8  1  0  0  0  0
  8  9  1  0  0  0  0
M  END
>  <CHROM.1>
156.16258254,-173.00391057,65.77024102,-178.08448984,178.65615925,28.67796912
15.26262571,20.31186137,2.41112528,-0.11100020,-2.03621095

>  <Name>
ligand

>  <RI>
0

>  <Rbt.Current_Directory>
/home/itssahil/PROJECTS/Mol_Feturizer/New_Systems/rnas/3DIY

>  <Rbt.Executable>
rbdock ($Id: //depot/dev/client3/rdock/2013.1/src/exe/rbdock.cxx#4 $)

>  <Rbt.Library>
libRbt.so (2013.1, Build901 2013/11/27)

>  <Rbt.Parameter_File>
/export/apps/rDock/src/rDock_2013.1_src/data/scripts/dock_solv.prm

>  <Rbt.Receptor>
prm/pocket_docking_8.prm

>  <SCORE>
-8.84864

>  <SCORE.INTER>
-7.86845

>  <SCORE.INTER.CONST>
1

>  <SCORE.INTER.POLAR>
0

>  <SCORE.INTER.ROT>
5

>  <SCORE.INTER.SOLV>
17.0976

>  <SCORE.INTER.VDW>
-17.8782

>  <SCORE.INTER.norm>
-0.786845

>  <SCORE.INTRA>
-0.980191

>  <SCORE.INTRA.DIHEDRAL>
-0.768321

>  <SCORE.INTRA.DIHEDRAL.0>
2.56603

>  <SCORE.INTRA.POLAR>
0

>  <SCORE.INTRA.POLAR.0>
0

>  <SCORE.INTRA.REPUL>
0

>  <SCORE.INTRA.REPUL.0>
0

>  <SCORE.INTRA.SOLV>
-1.31544

>  <SCORE.INTRA.SOLV.lig_0>
-32.0799

>  <SCORE.INTRA.VDW>
0.0616912

>  <SCORE.INTRA.VDW.0>
-0.618248

>  <SCORE.INTRA.norm>
-0.0980191

>  <SCORE.RESTR>
0

>  <SCORE.RESTR.CAVITY>
0

>  <SCORE.RESTR.norm>
0

>  <SCORE.SYSTEM>
0

>  <SCORE.SYSTEM.CONST>
0

>  <SCORE.SYSTEM.DIHEDRAL>
0

>  <SCORE.SYSTEM.SOLV>
0

>  <SCORE.SYSTEM.norm>
0

>  <SCORE.heavy>
10

>  <SCORE.norm>
-0.884864

>  <RMSD>
5.354

$$$$
ligand
 OpenBabel11021811473D
libRbt.so/2013.1/901 2013/11/27
 10  9  0  0  0  0  0  0  0  0999 V2000
   28.6738   15.9950   19.1471 N   0  0  0  0  0  0  0  0  0  0  0  0
   28.4109   15.2337   20.4057 C   0  0  2  0  0  0  0  0  0  0  0  0
   26.9170   15.1524   20.7397 C   0  0  0  0  0  0  0  0  0  0  0  0
   26.0406   15.3051   19.8757 O   0  0  0  0  0  0  0  0  0  0  0  0
   29.2095   15.8186   21.5738 C   0  0  0  0  0  0  0  0  0  0  0  0
   30.7056   15.7112   21.3855 C   0  0  0  0  0  0  0  0  0  0  0  0
   31.2054   16.6539   20.3179 C   0  0  0  0  0  0  0  0  0  0  0  0
   32.7254   16.6046   20.2066 C   0  0  0  0  0  0  0  0  0  0  0  0
   33.4247   17.1433   21.4041 N   0  0  0  0  0  0  0  0  0  0  0  0
   26.5345   14.8934   21.8849 O   0  0  0  0  0  0  0  0  0  0  0  0
  2  1  1  6  0  0  0
  2  3  1  0  0  0  0
  2  5  1  0  0  0  0
  3  4  1  0  0  0  0
  3 10  1  0  0  0  0
  5  6  1  0  0  0  0
  6  7  1  0  0  0  0
  7  8  1  0  0  0  0
  8  9  1  0  0  0  0
M  END
>  <CHROM.1>
21.72025463,-63.49985221,71.22605645,176.06031400,-67.20722122,29.33989855
15.84427133,20.70081615,3.11883942,0.26103835,1.76246478

>  <Name>
ligand

>  <RI>
0

>  <Rbt.Current_Directory>
/home/itssahil/PROJECTS/Mol_Feturizer/New_Systems/rnas/3DIY

>  <Rbt.Executable>
rbdock ($Id: //depot/dev/client3/rdock/2013.1/src/exe/rbdock.cxx#4 $)

>  <Rbt.Library>
libRbt.so (2013.1, Build901 2013/11/27)

>  <Rbt.Parameter_File>
/export/apps/rDock/src/rDock_2013.1_src/data/scripts/dock_solv.prm

>  <Rbt.Receptor>
prm/blind_docking_60.prm

>  <SCORE>
-7.80074

>  <SCORE.INTER>
-9.3207

>  <SCORE.INTER.CONST>
1

>  <SCORE.INTER.POLAR>
0

>  <SCORE.INTER.ROT>
5

>  <SCORE.INTER.SOLV>
12.2158

>  <SCORE.INTER.VDW>
-17.2191

>  <SCORE.INTER.norm>
-0.93207

>  <SCORE.INTRA>
1.51997

>  <SCORE.INTRA.DIHEDRAL>
-0.259299

>  <SCORE.INTRA.DIHEDRAL.0>
2.56603

>  <SCORE.INTRA.POLAR>
0

>  <SCORE.INTRA.POLAR.0>
0

>  <SCORE.INTRA.REPUL>
0

>  <SCORE.INTRA.REPUL.0>
0

>  <SCORE.INTRA.SOLV>
1.65135

>  <SCORE.INTRA.SOLV.lig_0>
-32.0799

>  <SCORE.INTRA.VDW>
0.823943

>  <SCORE.INTRA.VDW.0>
-0.618248

>  <SCORE.INTRA.norm>
0.151997

>  <SCORE.RESTR>
0

>  <SCORE.RESTR.CAVITY>
0

>  <SCORE.RESTR.norm>
0

>  <SCORE.SYSTEM>
0

>  <SCORE.SYSTEM.CONST>
0

>  <SCORE.SYSTEM.DIHEDRAL>
0

>  <SCORE.SYSTEM.SOLV>
0

>  <SCORE.SYSTEM.norm>
0

>  <SCORE.heavy>
10

>  <SCORE.norm>
-0.780074

>  <RMSD>
5.357

$$$$
ligand
 OpenBabel11021811473D
libRbt.so/2013.1/901 2013/11/27
 10  9  0  0  0  0  0  0  0  0999 V2000
   25.7864   15.3226   20.0525 N   0  0  0  0  0  0  0  0  0  0  0  0
   27.2801   15.2905   20.0832 C   0  0  2  0  0  0  0  0  0  0  0  0
   27.8757   14.5787   18.8632 C   0  0  0  0  0  0  0  0  0  0  0  0
   27.2032   13.8159   18.1534 O   0  0  0  0  0  0  0  0  0  0  0  0
   27.7856   14.6706   21.3888 C   0  0  0  0  0  0  0  0  0  0  0  0
   29.2897   14.7254   21.5309 C   0  0  0  0  0  0  0  0  0  0  0  0
   29.7858   16.1411   21.6984 C   0  0  0  0  0  0  0  0  0  0  0  0
   31.3069   16.1840   21.7967 C   0  0  0  0  0  0  0  0  0  0  0  0
   31.8534   17.5619   21.9241 N   0  0  0  0  0  0  0  0  0  0  0  0
   29.0469   14.7724   18.5229 O   0  0  0  0  0  0  0  0  0  0  0  0
  2  1  1  6  0  0  0
  2  3  1  0  0  0  0
  2  5  1  0  0  0  0
  3  4  1  0  0  0  0
  3 10  1  0  0  0  0
  5  6  1  0  0  0  0
  6  7  1  0  0  0  0
  7  8  1  0  0  0  0
  8  9  1  0  0  0  0
M  END
>  <CHROM.1>
-18.43990530,-174.79272491,67.75840960,-178.22474597,178.35282097,28.72705622
15.28819399,20.36779397,2.46356252,-0.23566670,-1.93403153

>  <Name>
ligand

>  <RI>
0

>  <Rbt.Current_Directory>
/home/itssahil/PROJECTS/Mol_Feturizer/New_Systems/rnas/3DIY

>  <Rbt.Executable>
rbdock ($Id: //depot/dev/client3/rdock/2013.1/src/exe/rbdock.cxx#4 $)

>  <Rbt.Library>
libRbt.so (2013.1, Build901 2013/11/27)

>  <Rbt.Parameter_File>
/export/apps/rDock/src/rDock_2013.1_src/data/scripts/dock_solv.prm

>  <Rbt.Receptor>
prm/pocket_docking_8.prm

>  <SCORE>
-8.58082

>  <SCORE.INTER>
-7.74624

>  <SCORE.INTER.CONST>
1

>  <SCORE.INTER.POLAR>
0

>  <SCORE.INTER.ROT>
5

>  <SCORE.INTER.SOLV>
17.1539

>  <SCORE.INTER.VDW>
-17.8155

>  <SCORE.INTER.norm>
-0.774624

>  <SCORE.INTRA>
-0.834578

>  <SCORE.INTRA.DIHEDRAL>
-0.598349

>  <SCORE.INTRA.DIHEDRAL.0>
2.56603

>  <SCORE.INTRA.POLAR>
0

>  <SCORE.INTRA.POLAR.0>
0

>  <SCORE.INTRA.REPUL>
0

>  <SCORE.INTRA.REPUL.0>
0

>  <SCORE.INTRA.SOLV>
-1.33485

>  <SCORE.INTRA.SOLV.lig_0>
-32.0799

>  <SCORE.INTRA.VDW>
0.132021

>  <SCORE.INTRA.VDW.0>
-0.618248

>  <SCORE.INTRA.norm>
-0.0834578

>  <SCORE.RESTR>
0

>  <SCORE.RESTR.CAVITY>
0

>  <SCORE.RESTR.norm>
0

>  <SCORE.SYSTEM>
0

>  <SCORE.SYSTEM.CONST>
0

>  <SCORE.SYSTEM.DIHEDRAL>
0

>  <SCORE.SYSTEM.SOLV>
0

>  <SCORE.SYSTEM.norm>
0

>  <SCORE.heavy>
10

>  <SCORE.norm>
-0.858082

>  <RMSD>
5.357

$$$$
ligand
 OpenBabel11021811473D
libRbt.so/2013.1/901 2013/11/27
 10  9  0  0  0  0  0  0  0  0999 V2000
   28.4700   16.6014   18.5107 N   0  0  0  0  0  0  0  0  0  0  0  0
   28.4335   15.2370   19.1192 C   0  0  2  0  0  0  0  0  0  0  0  0
   27.0390   14.6038   19.0537 C   0  0  0  0  0  0  0  0  0  0  0  0
   26.0850   15.0439   19.7127 O   0  0  0  0  0  0  0  0  0  0  0  0
   28.9627   15.2661   20.5556 C   0  0  0  0  0  0  0  0  0  0  0  0
   30.4703   15.3468   20.6335 C   0  0  0  0  0  0  0  0  0  0  0  0
   30.9407   15.7282   22.0161 C   0  0  0  0  0  0  0  0  0  0  0  0
   30.8985   17.2394   22.2154 C   0  0  0  0  0  0  0  0  0  0  0  0
   31.8716   17.9762   21.3649 N   0  0  0  0  0  0  0  0  0  0  0  0
   26.8092   13.6475   18.3069 O   0  0  0  0  0  0  0  0  0  0  0  0
  2  1  1  1  0  0  0
  2  3  1  0  0  0  0
  2  5  1  0  0  0  0
  3  4  1  0  0  0  0
  3 10  1  0  0  0  0
  5  6  1  0  0  0  0
  6  7  1  0  0  0  0
  7  8  1  0  0  0  0
  8  9  1  0  0  0  0
M  END
>  <CHROM.1>
-68.16236947,-77.04836572,165.32906311,-83.21891006,-66.68484571,28.95840925
15.64987029,20.14008782,3.12994342,0.69933649,2.45374959

>  <Name>
ligand

>  <RI>
0

>  <Rbt.Current_Directory>
/home/itssahil/PROJECTS/Mol_Feturizer/New_Systems/rnas/3DIY

>  <Rbt.Executable>
rbdock ($Id: //depot/dev/client3/rdock/2013.1/src/exe/rbdock.cxx#4 $)

>  <Rbt.Library>
libRbt.so (2013.1, Build901 2013/11/27)

>  <Rbt.Parameter_File>
/export/apps/rDock/src/rDock_2013.1_src/data/scripts/dock_solv.prm

>  <Rbt.Receptor>
prm/pocket_docking_5.prm

>  <SCORE>
-4.03758

>  <SCORE.INTER>
-5.79817

>  <SCORE.INTER.CONST>
1

>  <SCORE.INTER.POLAR>
0

>  <SCORE.INTER.ROT>
5

>  <SCORE.INTER.SOLV>
14.6586

>  <SCORE.INTER.VDW>
-15.685

>  <SCORE.INTER.norm>
-0.579817

>  <SCORE.INTRA>
1.7606

>  <SCORE.INTRA.DIHEDRAL>
3.06111

>  <SCORE.INTRA.DIHEDRAL.0>
2.56603

>  <SCORE.INTRA.POLAR>
0

>  <SCORE.INTRA.POLAR.0>
0

>  <SCORE.INTRA.REPUL>
0

>  <SCORE.INTRA.REPUL.0>
0

>  <SCORE.INTRA.SOLV>
0.521089

>  <SCORE.INTRA.SOLV.lig_0>
-32.0799

>  <SCORE.INTRA.VDW>
-0.0305021

>  <SCORE.INTRA.VDW.0>
-0.618248

>  <SCORE.INTRA.norm>
0.17606

>  <SCORE.RESTR>
0

>  <SCORE.RESTR.CAVITY>
0

>  <SCORE.RESTR.norm>
0

>  <SCORE.SYSTEM>
0

>  <SCORE.SYSTEM.CONST>
0

>  <SCORE.SYSTEM.DIHEDRAL>
0

>  <SCORE.SYSTEM.SOLV>
0

>  <SCORE.SYSTEM.norm>
0

>  <SCORE.heavy>
10

>  <SCORE.norm>
-0.403758

>  <RMSD>
5.359

$$$$
ligand
 OpenBabel11021811473D
libRbt.so/2013.1/901 2013/11/27
 10  9  0  0  0  0  0  0  0  0999 V2000
   25.8765   15.5343   19.7524 N   0  0  0  0  0  0  0  0  0  0  0  0
   27.3520   15.3292   19.8696 C   0  0  2  0  0  0  0  0  0  0  0  0
   27.9205   14.4941   18.7166 C   0  0  0  0  0  0  0  0  0  0  0  0
   27.2135   13.7200   18.0542 O   0  0  0  0  0  0  0  0  0  0  0  0
   27.7116   14.7186   21.2269 C   0  0  0  0  0  0  0  0  0  0  0  0
   29.1979   14.7151   21.5033 C   0  0  0  0  0  0  0  0  0  0  0  0
   29.7454   16.1147   21.6437 C   0  0  0  0  0  0  0  0  0  0  0  0
   31.2513   16.0961   21.8832 C   0  0  0  0  0  0  0  0  0  0  0  0
   31.8475   17.4531   22.0106 N   0  0  0  0  0  0  0  0  0  0  0  0
   29.1053   14.5936   18.3833 O   0  0  0  0  0  0  0  0  0  0  0  0
  2  1  1  6  0  0  0
  2  3  1  0  0  0  0
  2  5  1  0  0  0  0
  3  4  1  0  0  0  0
  3 10  1  0  0  0  0
  5  6  1  0  0  0  0
  6  7  1  0  0  0  0
  7  8  1  0  0  0  0
  8  9  1  0  0  0  0
M  END
>  <CHROM.1>
-22.89668630,-169.74019904,65.89955613,-178.40717996,179.20366270,28.72761310
15.25602408,20.27169910,2.39802347,-0.13963551,-2.00907622

>  <Name>
ligand

>  <RI>
0

>  <Rbt.Current_Directory>
/home/itssahil/PROJECTS/Mol_Feturizer/New_Systems/rnas/3DIY

>  <Rbt.Executable>
rbdock ($Id: //depot/dev/client3/rdock/2013.1/src/exe/rbdock.cxx#4 $)

>  <Rbt.Library>
libRbt.so (2013.1, Build901 2013/11/27)

>  <Rbt.Parameter_File>
/export/apps/rDock/src/rDock_2013.1_src/data/scripts/dock_solv.prm

>  <Rbt.Receptor>
prm/blind_docking_100.prm

>  <SCORE>
-8.76937

>  <SCORE.INTER>
-7.90969

>  <SCORE.INTER.CONST>
1

>  <SCORE.INTER.POLAR>
0

>  <SCORE.INTER.ROT>
5

>  <SCORE.INTER.SOLV>
17.0108

>  <SCORE.INTER.VDW>
-17.8767

>  <SCORE.INTER.norm>
-0.790969

>  <SCORE.INTRA>
-0.859674

>  <SCORE.INTRA.DIHEDRAL>
-0.424652

>  <SCORE.INTRA.DIHEDRAL.0>
2.56603

>  <SCORE.INTRA.POLAR>
0

>  <SCORE.INTRA.POLAR.0>
0

>  <SCORE.INTRA.REPUL>
0

>  <SCORE.INTRA.REPUL.0>
0

>  <SCORE.INTRA.SOLV>
-1.28739

>  <SCORE.INTRA.SOLV.lig_0>
-32.0799

>  <SCORE.INTRA.VDW>
-0.00365324

>  <SCORE.INTRA.VDW.0>
-0.618248

>  <SCORE.INTRA.norm>
-0.0859674

>  <SCORE.RESTR>
0

>  <SCORE.RESTR.CAVITY>
0

>  <SCORE.RESTR.norm>
0

>  <SCORE.SYSTEM>
0

>  <SCORE.SYSTEM.CONST>
0

>  <SCORE.SYSTEM.DIHEDRAL>
0

>  <SCORE.SYSTEM.SOLV>
0

>  <SCORE.SYSTEM.norm>
0

>  <SCORE.heavy>
10

>  <SCORE.norm>
-0.876937

>  <RMSD>
5.362

$$$$
ligand
 OpenBabel11021811473D
libRbt.so/2013.1/901 2013/11/27
 10  9  0  0  0  0  0  0  0  0999 V2000
   27.6771   14.5853   18.4546 N   0  0  0  0  0  0  0  0  0  0  0  0
   27.9957   14.5301   19.9135 C   0  0  2  0  0  0  0  0  0  0  0  0
   26.8102   14.9535   20.7883 C   0  0  0  0  0  0  0  0  0  0  0  0
   26.9141   15.0884   22.0167 O   0  0  0  0  0  0  0  0  0  0  0  0
   29.2434   15.3589   20.2310 C   0  0  0  0  0  0  0  0  0  0  0  0
   29.7672   15.1344   21.6312 C   0  0  0  0  0  0  0  0  0  0  0  0
   31.1172   15.7781   21.8347 C   0  0  0  0  0  0  0  0  0  0  0  0
   31.0098   17.2992   21.8238 C   0  0  0  0  0  0  0  0  0  0  0  0
   32.3222   17.9865   21.9596 N   0  0  0  0  0  0  0  0  0  0  0  0
   25.7112   15.2121   20.2880 O   0  0  0  0  0  0  0  0  0  0  0  0
  2  1  1  6  0  0  0
  2  3  1  0  0  0  0
  2  5  1  0  0  0  0
  3  4  1  0  0  0  0
  3 10  1  0  0  0  0
  5  6  1  0  0  0  0
  6  7  1  0  0  0  0
  7  8  1  0  0  0  0
  8  9  1  0  0  0  0
M  END
>  <CHROM.1>
-173.42998357,-169.08849511,170.34599215,68.76947173,-177.41305999,28.82073823
15.59680504,20.91007191,-2.70843272,0.29421898,1.21290237

>  <Name>
ligand

>  <RI>
0

>  <Rbt.Current_Directory>
/home/itssahil/PROJECTS/Mol_Feturizer/New_Systems/rnas/3DIY

>  <Rbt.Executable>
rbdock ($Id: //depot/dev/client3/rdock/2013.1/src/exe/rbdock.cxx#4 $)

>  <Rbt.Library>
libRbt.so (2013.1, Build901 2013/11/27)

>  <Rbt.Parameter_File>
/export/apps/rDock/src/rDock_2013.1_src/data/scripts/dock_solv.prm

>  <Rbt.Receptor>
prm/blind_docking_80.prm

>  <SCORE>
-9.26615

>  <SCORE.INTER>
-9.65418

>  <SCORE.INTER.CONST>
1

>  <SCORE.INTER.POLAR>
0

>  <SCORE.INTER.ROT>
5

>  <SCORE.INTER.SOLV>
13.4247

>  <SCORE.INTER.VDW>
-17.8444

>  <SCORE.INTER.norm>
-0.965418

>  <SCORE.INTRA>
0.388026

>  <SCORE.INTRA.DIHEDRAL>
0.13859

>  <SCORE.INTRA.DIHEDRAL.0>
2.56603

>  <SCORE.INTRA.POLAR>
0

>  <SCORE.INTRA.POLAR.0>
0

>  <SCORE.INTRA.REPUL>
0

>  <SCORE.INTRA.REPUL.0>
0

>  <SCORE.INTRA.SOLV>
-1.32517

>  <SCORE.INTRA.SOLV.lig_0>
-32.0799

>  <SCORE.INTRA.VDW>
0.981315

>  <SCORE.INTRA.VDW.0>
-0.618248

>  <SCORE.INTRA.norm>
0.0388026

>  <SCORE.RESTR>
0

>  <SCORE.RESTR.CAVITY>
0

>  <SCORE.RESTR.norm>
0

>  <SCORE.SYSTEM>
0

>  <SCORE.SYSTEM.CONST>
0

>  <SCORE.SYSTEM.DIHEDRAL>
0

>  <SCORE.SYSTEM.SOLV>
0

>  <SCORE.SYSTEM.norm>
0

>  <SCORE.heavy>
10

>  <SCORE.norm>
-0.926615

>  <RMSD>
5.362

$$$$
ligand
 OpenBabel11021811473D
libRbt.so/2013.1/901 2013/11/27
 10  9  0  0  0  0  0  0  0  0999 V2000
   28.7074   15.0492   19.1486 N   0  0  0  0  0  0  0  0  0  0  0  0
   28.0527   14.8066   20.4698 C   0  0  2  0  0  0  0  0  0  0  0  0
   26.5357   15.0208   20.4197 C   0  0  0  0  0  0  0  0  0  0  0  0
   25.7874   14.6427   21.3336 O   0  0  0  0  0  0  0  0  0  0  0  0
   28.6980   15.6620   21.5635 C   0  0  0  0  0  0  0  0  0  0  0  0
   30.0565   15.1556   21.9919 C   0  0  0  0  0  0  0  0  0  0  0  0
   31.1021   15.3870   20.9281 C   0  0  0  0  0  0  0  0  0  0  0  0
   31.6440   16.8111   20.9885 C   0  0  0  0  0  0  0  0  0  0  0  0
   32.8161   17.0368   20.1006 N   0  0  0  0  0  0  0  0  0  0  0  0
   26.0082   15.6153   19.4746 O   0  0  0  0  0  0  0  0  0  0  0  0
  2  1  1  6  0  0  0
  2  3  1  0  0  0  0
  2  5  1  0  0  0  0
  3  4  1  0  0  0  0
  3 10  1  0  0  0  0
  5  6  1  0  0  0  0
  6  7  1  0  0  0  0
  7  8  1  0  0  0  0
  8  9  1  0  0  0  0
M  END
>  <CHROM.1>
166.80337298,-74.53054919,71.40275471,82.26236252,171.42092730,28.89592331
15.51986148,20.63993419,3.12948597,0.25050658,1.84599920

>  <Name>
ligand

>  <RI>
0

>  <Rbt.Current_Directory>
/home/itssahil/PROJECTS/Mol_Feturizer/New_Systems/rnas/3DIY

>  <Rbt.Executable>
rbdock ($Id: //depot/dev/client3/rdock/2013.1/src/exe/rbdock.cxx#4 $)

>  <Rbt.Library>
libRbt.so (2013.1, Build901 2013/11/27)

>  <Rbt.Parameter_File>
/export/apps/rDock/src/rDock_2013.1_src/data/scripts/dock_solv.prm

>  <Rbt.Receptor>
prm/blind_docking_80.prm

>  <SCORE>
-7.42399

>  <SCORE.INTER>
-9.43357

>  <SCORE.INTER.CONST>
1

>  <SCORE.INTER.POLAR>
0

>  <SCORE.INTER.ROT>
5

>  <SCORE.INTER.SOLV>
12.7321

>  <SCORE.INTER.VDW>
-17.4664

>  <SCORE.INTER.norm>
-0.943357

>  <SCORE.INTRA>
2.00958

>  <SCORE.INTRA.DIHEDRAL>
2.3998

>  <SCORE.INTRA.DIHEDRAL.0>
2.56603

>  <SCORE.INTRA.POLAR>
0

>  <SCORE.INTRA.POLAR.0>
0

>  <SCORE.INTRA.REPUL>
0

>  <SCORE.INTRA.REPUL.0>
0

>  <SCORE.INTRA.SOLV>
0.949773

>  <SCORE.INTRA.SOLV.lig_0>
-32.0799

>  <SCORE.INTRA.VDW>
0.334791

>  <SCORE.INTRA.VDW.0>
-0.618248

>  <SCORE.INTRA.norm>
0.200958

>  <SCORE.RESTR>
0

>  <SCORE.RESTR.CAVITY>
0

>  <SCORE.RESTR.norm>
0

>  <SCORE.SYSTEM>
0

>  <SCORE.SYSTEM.CONST>
0

>  <SCORE.SYSTEM.DIHEDRAL>
0

>  <SCORE.SYSTEM.SOLV>
0

>  <SCORE.SYSTEM.norm>
0

>  <SCORE.heavy>
10

>  <SCORE.norm>
-0.742399

>  <RMSD>
5.363

$$$$
ligand
 OpenBabel11021811473D
libRbt.so/2013.1/901 2013/11/27
 10  9  0  0  0  0  0  0  0  0999 V2000
   25.8581   15.5343   19.7068 N   0  0  0  0  0  0  0  0  0  0  0  0
   27.3287   15.3183   19.8610 C   0  0  2  0  0  0  0  0  0  0  0  0
   27.9156   14.4598   18.7347 C   0  0  0  0  0  0  0  0  0  0  0  0
   27.2258   13.6502   18.0970 O   0  0  0  0  0  0  0  0  0  0  0  0
   27.6519   14.7266   21.2356 C   0  0  0  0  0  0  0  0  0  0  0  0
   29.1328   14.6963   21.5377 C   0  0  0  0  0  0  0  0  0  0  0  0
   29.7169   16.0857   21.6195 C   0  0  0  0  0  0  0  0  0  0  0  0
   31.2088   16.0390   21.9316 C   0  0  0  0  0  0  0  0  0  0  0  0
   31.8444   17.3829   21.9878 N   0  0  0  0  0  0  0  0  0  0  0  0
   29.0982   14.5741   18.3983 O   0  0  0  0  0  0  0  0  0  0  0  0
  2  1  1  6  0  0  0
  2  3  1  0  0  0  0
  2  5  1  0  0  0  0
  3  4  1  0  0  0  0
  3 10  1  0  0  0  0
  5  6  1  0  0  0  0
  6  7  1  0  0  0  0
  7  8  1  0  0  0  0
  8  9  1  0  0  0  0
M  END
>  <CHROM.1>
-25.23362046,-170.56973904,64.17155070,179.70952801,178.45625505,28.70405745
15.22536841,20.27889456,2.39934969,-0.12958775,-2.01490446

>  <Name>
ligand

>  <RI>
0

>  <Rbt.Current_Directory>
/home/itssahil/PROJECTS/Mol_Feturizer/New_Systems/rnas/3DIY

>  <Rbt.Executable>
rbdock ($Id: //depot/dev/client3/rdock/2013.1/src/exe/rbdock.cxx#4 $)

>  <Rbt.Library>
libRbt.so (2013.1, Build901 2013/11/27)

>  <Rbt.Parameter_File>
/export/apps/rDock/src/rDock_2013.1_src/data/scripts/dock_solv.prm

>  <Rbt.Receptor>
prm/pocket_docking_5.prm

>  <SCORE>
-8.82964

>  <SCORE.INTER>
-7.93508

>  <SCORE.INTER.CONST>
1

>  <SCORE.INTER.POLAR>
0

>  <SCORE.INTER.ROT>
5

>  <SCORE.INTER.SOLV>
17.0604

>  <SCORE.INTER.VDW>
-17.9102

>  <SCORE.INTER.norm>
-0.793508

>  <SCORE.INTRA>
-0.894561

>  <SCORE.INTRA.DIHEDRAL>
-0.557252

>  <SCORE.INTRA.DIHEDRAL.0>
2.56603

>  <SCORE.INTRA.POLAR>
0

>  <SCORE.INTRA.POLAR.0>
0

>  <SCORE.INTRA.REPUL>
0

>  <SCORE.INTRA.REPUL.0>
0

>  <SCORE.INTRA.SOLV>
-1.28611

>  <SCORE.INTRA.SOLV.lig_0>
-32.0799

>  <SCORE.INTRA.VDW>
0.0271202

>  <SCORE.INTRA.VDW.0>
-0.618248

>  <SCORE.INTRA.norm>
-0.0894561

>  <SCORE.RESTR>
0

>  <SCORE.RESTR.CAVITY>
0

>  <SCORE.RESTR.norm>
0

>  <SCORE.SYSTEM>
0

>  <SCORE.SYSTEM.CONST>
0

>  <SCORE.SYSTEM.DIHEDRAL>
0

>  <SCORE.SYSTEM.SOLV>
0

>  <SCORE.SYSTEM.norm>
0

>  <SCORE.heavy>
10

>  <SCORE.norm>
-0.882964

>  <RMSD>
5.363

$$$$
ligand
 OpenBabel11021811473D
libRbt.so/2013.1/901 2013/11/27
 10  9  0  0  0  0  0  0  0  0999 V2000
   28.8627   15.2944   19.0287 N   0  0  0  0  0  0  0  0  0  0  0  0
   28.3971   15.0315   20.4241 C   0  0  2  0  0  0  0  0  0  0  0  0
   26.8715   15.1048   20.5559 C   0  0  0  0  0  0  0  0  0  0  0  0
   26.2769   14.6827   21.5589 O   0  0  0  0  0  0  0  0  0  0  0  0
   29.0855   15.9736   21.4154 C   0  0  0  0  0  0  0  0  0  0  0  0
   30.5924   15.8522   21.4042 C   0  0  0  0  0  0  0  0  0  0  0  0
   31.1983   16.5036   20.1848 C   0  0  0  0  0  0  0  0  0  0  0  0
   32.7210   16.4301   20.2199 C   0  0  0  0  0  0  0  0  0  0  0  0
   33.3214   17.1393   21.3817 N   0  0  0  0  0  0  0  0  0  0  0  0
   26.1814   15.6253   19.6740 O   0  0  0  0  0  0  0  0  0  0  0  0
  2  1  1  6  0  0  0
  2  3  1  0  0  0  0
  2  5  1  0  0  0  0
  3  4  1  0  0  0  0
  3 10  1  0  0  0  0
  5  6  1  0  0  0  0
  6  7  1  0  0  0  0
  7  8  1  0  0  0  0
  8  9  1  0  0  0  0
M  END
>  <CHROM.1>
166.55018799,-58.89095534,74.82453701,177.35231214,-61.58165811,29.30526985
15.76120168,20.58731662,-3.09896148,0.25908613,1.59794084

>  <Name>
ligand

>  <RI>
0

>  <Rbt.Current_Directory>
/home/itssahil/PROJECTS/Mol_Feturizer/New_Systems/rnas/3DIY

>  <Rbt.Executable>
rbdock ($Id: //depot/dev/client3/rdock/2013.1/src/exe/rbdock.cxx#4 $)

>  <Rbt.Library>
libRbt.so (2013.1, Build901 2013/11/27)

>  <Rbt.Parameter_File>
/export/apps/rDock/src/rDock_2013.1_src/data/scripts/dock_solv.prm

>  <Rbt.Receptor>
prm/pocket_docking_2.prm

>  <SCORE>
-7.59892

>  <SCORE.INTER>
-8.88284

>  <SCORE.INTER.CONST>
1

>  <SCORE.INTER.POLAR>
0

>  <SCORE.INTER.ROT>
5

>  <SCORE.INTER.SOLV>
11.9195

>  <SCORE.INTER.VDW>
-16.8284

>  <SCORE.INTER.norm>
-0.888284

>  <SCORE.INTRA>
1.28393

>  <SCORE.INTRA.DIHEDRAL>
-0.161976

>  <SCORE.INTRA.DIHEDRAL.0>
2.56603

>  <SCORE.INTRA.POLAR>
0

>  <SCORE.INTRA.POLAR.0>
0

>  <SCORE.INTRA.REPUL>
0

>  <SCORE.INTRA.REPUL.0>
0

>  <SCORE.INTRA.SOLV>
1.78081

>  <SCORE.INTRA.SOLV.lig_0>
-32.0799

>  <SCORE.INTRA.VDW>
0.47451

>  <SCORE.INTRA.VDW.0>
-0.618248

>  <SCORE.INTRA.norm>
0.128393

>  <SCORE.RESTR>
0

>  <SCORE.RESTR.CAVITY>
0

>  <SCORE.RESTR.norm>
0

>  <SCORE.SYSTEM>
0

>  <SCORE.SYSTEM.CONST>
0

>  <SCORE.SYSTEM.DIHEDRAL>
0

>  <SCORE.SYSTEM.SOLV>
0

>  <SCORE.SYSTEM.norm>
0

>  <SCORE.heavy>
10

>  <SCORE.norm>
-0.759892

>  <RMSD>
5.366

$$$$
ligand
 OpenBabel11021811473D
libRbt.so/2013.1/901 2013/11/27
 10  9  0  0  0  0  0  0  0  0999 V2000
   27.6759   14.5324   18.4678 N   0  0  0  0  0  0  0  0  0  0  0  0
   27.9787   14.5063   19.9309 C   0  0  2  0  0  0  0  0  0  0  0  0
   26.7938   14.9763   20.7824 C   0  0  0  0  0  0  0  0  0  0  0  0
   25.6901   15.2431   20.2838 O   0  0  0  0  0  0  0  0  0  0  0  0
   29.2406   15.3160   20.2411 C   0  0  0  0  0  0  0  0  0  0  0  0
   29.7311   15.1342   21.6595 C   0  0  0  0  0  0  0  0  0  0  0  0
   31.0793   15.7784   21.8734 C   0  0  0  0  0  0  0  0  0  0  0  0
   30.9790   17.2989   21.8158 C   0  0  0  0  0  0  0  0  0  0  0  0
   32.2897   17.9852   21.9726 N   0  0  0  0  0  0  0  0  0  0  0  0
   26.8906   15.0705   22.0099 O   0  0  0  0  0  0  0  0  0  0  0  0
  2  1  1  6  0  0  0
  2  3  1  0  0  0  0
  2  5  1  0  0  0  0
  3  4  1  0  0  0  0
  3 10  1  0  0  0  0
  5  6  1  0  0  0  0
  6  7  1  0  0  0  0
  7  8  1  0  0  0  0
  8  9  1  0  0  0  0
M  END
>  <CHROM.1>
5.06742057,-170.12980455,171.60528394,68.95331040,-177.94844052,28.79868589
15.58835798,20.91938815,-2.69811166,0.28477243,1.19039329

>  <Name>
ligand

>  <RI>
0

>  <Rbt.Current_Directory>
/home/itssahil/PROJECTS/Mol_Feturizer/New_Systems/rnas/3DIY

>  <Rbt.Executable>
rbdock ($Id: //depot/dev/client3/rdock/2013.1/src/exe/rbdock.cxx#4 $)

>  <Rbt.Library>
libRbt.so (2013.1, Build901 2013/11/27)

>  <Rbt.Parameter_File>
/export/apps/rDock/src/rDock_2013.1_src/data/scripts/dock_solv.prm

>  <Rbt.Receptor>
prm/pocket_docking_8.prm

>  <SCORE>
-9.33717

>  <SCORE.INTER>
-9.64728

>  <SCORE.INTER.CONST>
1

>  <SCORE.INTER.POLAR>
0

>  <SCORE.INTER.ROT>
5

>  <SCORE.INTER.SOLV>
13.5365

>  <SCORE.INTER.VDW>
-17.877

>  <SCORE.INTER.norm>
-0.964728

>  <SCORE.INTRA>
0.31011

>  <SCORE.INTRA.DIHEDRAL>
-0.0574449

>  <SCORE.INTRA.DIHEDRAL.0>
2.56603

>  <SCORE.INTRA.POLAR>
0

>  <SCORE.INTRA.POLAR.0>
0

>  <SCORE.INTRA.REPUL>
0

>  <SCORE.INTRA.REPUL.0>
0

>  <SCORE.INTRA.SOLV>
-1.33823

>  <SCORE.INTRA.SOLV.lig_0>
-32.0799

>  <SCORE.INTRA.VDW>
1.00795

>  <SCORE.INTRA.VDW.0>
-0.618248

>  <SCORE.INTRA.norm>
0.031011

>  <SCORE.RESTR>
0

>  <SCORE.RESTR.CAVITY>
0

>  <SCORE.RESTR.norm>
0

>  <SCORE.SYSTEM>
0

>  <SCORE.SYSTEM.CONST>
0

>  <SCORE.SYSTEM.DIHEDRAL>
0

>  <SCORE.SYSTEM.SOLV>
0

>  <SCORE.SYSTEM.norm>
0

>  <SCORE.heavy>
10

>  <SCORE.norm>
-0.933717

>  <RMSD>
5.367

$$$$
ligand
 OpenBabel11021811473D
libRbt.so/2013.1/901 2013/11/27
 10  9  0  0  0  0  0  0  0  0999 V2000
   27.6945   14.5769   18.4966 N   0  0  0  0  0  0  0  0  0  0  0  0
   28.0076   14.5351   19.9572 C   0  0  2  0  0  0  0  0  0  0  0  0
   26.8134   14.9500   20.8241 C   0  0  0  0  0  0  0  0  0  0  0  0
   25.6847   15.1340   20.3444 O   0  0  0  0  0  0  0  0  0  0  0  0
   29.2439   15.3808   20.2744 C   0  0  0  0  0  0  0  0  0  0  0  0
   29.7534   15.1855   21.6842 C   0  0  0  0  0  0  0  0  0  0  0  0
   31.1091   15.8186   21.8832 C   0  0  0  0  0  0  0  0  0  0  0  0
   31.0227   17.3395   21.8139 C   0  0  0  0  0  0  0  0  0  0  0  0
   32.3400   18.0148   21.9622 N   0  0  0  0  0  0  0  0  0  0  0  0
   26.9298   15.0803   22.0466 O   0  0  0  0  0  0  0  0  0  0  0  0
  2  1  1  6  0  0  0
  2  3  1  0  0  0  0
  2  5  1  0  0  0  0
  3  4  1  0  0  0  0
  3 10  1  0  0  0  0
  5  6  1  0  0  0  0
  6  7  1  0  0  0  0
  7  8  1  0  0  0  0
  8  9  1  0  0  0  0
M  END
>  <CHROM.1>
8.15462280,-169.85888220,169.06608505,67.97790222,-178.22620626,28.82355407
15.60447525,20.94476957,-2.71774776,0.31363923,1.22703825

>  <Name>
ligand

>  <RI>
0

>  <Rbt.Current_Directory>
/home/itssahil/PROJECTS/Mol_Feturizer/New_Systems/rnas/3DIY

>  <Rbt.Executable>
rbdock ($Id: //depot/dev/client3/rdock/2013.1/src/exe/rbdock.cxx#4 $)

>  <Rbt.Library>
libRbt.so (2013.1, Build901 2013/11/27)

>  <Rbt.Parameter_File>
/export/apps/rDock/src/rDock_2013.1_src/data/scripts/dock_solv.prm

>  <Rbt.Receptor>
prm/pocket_docking_3.prm

>  <SCORE>
-9.22259

>  <SCORE.INTER>
-9.71312

>  <SCORE.INTER.CONST>
1

>  <SCORE.INTER.POLAR>
0

>  <SCORE.INTER.ROT>
5

>  <SCORE.INTER.SOLV>
13.4447

>  <SCORE.INTER.VDW>
-17.8903

>  <SCORE.INTER.norm>
-0.971312

>  <SCORE.INTRA>
0.490534

>  <SCORE.INTRA.DIHEDRAL>
0.0764556

>  <SCORE.INTRA.DIHEDRAL.0>
2.56603

>  <SCORE.INTRA.POLAR>
0

>  <SCORE.INTRA.POLAR.0>
0

>  <SCORE.INTRA.REPUL>
0

>  <SCORE.INTRA.REPUL.0>
0

>  <SCORE.INTRA.SOLV>
-1.33464

>  <SCORE.INTRA.SOLV.lig_0>
-32.0799

>  <SCORE.INTRA.VDW>
1.11963

>  <SCORE.INTRA.VDW.0>
-0.618248

>  <SCORE.INTRA.norm>
0.0490534

>  <SCORE.RESTR>
0

>  <SCORE.RESTR.CAVITY>
0

>  <SCORE.RESTR.norm>
0

>  <SCORE.SYSTEM>
0

>  <SCORE.SYSTEM.CONST>
0

>  <SCORE.SYSTEM.DIHEDRAL>
0

>  <SCORE.SYSTEM.SOLV>
0

>  <SCORE.SYSTEM.norm>
0

>  <SCORE.heavy>
10

>  <SCORE.norm>
-0.922259

>  <RMSD>
5.368

$$$$
ligand
 OpenBabel11021811473D
libRbt.so/2013.1/901 2013/11/27
 10  9  0  0  0  0  0  0  0  0999 V2000
   27.9491   14.1318   18.3378 N   0  0  0  0  0  0  0  0  0  0  0  0
   28.0031   14.3163   19.8197 C   0  0  2  0  0  0  0  0  0  0  0  0
   26.7406   14.9876   20.3725 C   0  0  0  0  0  0  0  0  0  0  0  0
   25.9662   15.6302   19.6477 O   0  0  0  0  0  0  0  0  0  0  0  0
   29.2636   15.0833   20.2284 C   0  0  0  0  0  0  0  0  0  0  0  0
   29.4445   15.1768   21.7263 C   0  0  0  0  0  0  0  0  0  0  0  0
   30.7880   15.7587   22.0936 C   0  0  0  0  0  0  0  0  0  0  0  0
   30.8747   17.2315   21.7080 C   0  0  0  0  0  0  0  0  0  0  0  0
   32.1933   17.8476   22.0161 N   0  0  0  0  0  0  0  0  0  0  0  0
   26.4317   14.8784   21.5631 O   0  0  0  0  0  0  0  0  0  0  0  0
  2  1  1  6  0  0  0
  2  3  1  0  0  0  0
  2  5  1  0  0  0  0
  3  4  1  0  0  0  0
  3 10  1  0  0  0  0
  5  6  1  0  0  0  0
  6  7  1  0  0  0  0
  7  8  1  0  0  0  0
  8  9  1  0  0  0  0
M  END
>  <CHROM.1>
-19.00111334,-174.09448153,171.73123934,68.43029539,-178.50491712,28.72772880
15.51294906,20.75946563,-2.59382723,0.19446098,1.07120669

>  <Name>
ligand

>  <RI>
0

>  <Rbt.Current_Directory>
/home/itssahil/PROJECTS/Mol_Feturizer/New_Systems/rnas/3DIY

>  <Rbt.Executable>
rbdock ($Id: //depot/dev/client3/rdock/2013.1/src/exe/rbdock.cxx#4 $)

>  <Rbt.Library>
libRbt.so (2013.1, Build901 2013/11/27)

>  <Rbt.Parameter_File>
/export/apps/rDock/src/rDock_2013.1_src/data/scripts/dock_solv.prm

>  <Rbt.Receptor>
prm/pocket_docking_4.prm

>  <SCORE>
-9.11499

>  <SCORE.INTER>
-8.95586

>  <SCORE.INTER.CONST>
1

>  <SCORE.INTER.POLAR>
0

>  <SCORE.INTER.ROT>
5

>  <SCORE.INTER.SOLV>
13.845

>  <SCORE.INTER.VDW>
-17.5189

>  <SCORE.INTER.norm>
-0.895586

>  <SCORE.INTRA>
-0.159134

>  <SCORE.INTRA.DIHEDRAL>
-0.257873

>  <SCORE.INTRA.DIHEDRAL.0>
2.56603

>  <SCORE.INTRA.POLAR>
0

>  <SCORE.INTRA.POLAR.0>
0

>  <SCORE.INTRA.REPUL>
0

>  <SCORE.INTRA.REPUL.0>
0

>  <SCORE.INTRA.SOLV>
-1.34123

>  <SCORE.INTRA.SOLV.lig_0>
-32.0799

>  <SCORE.INTRA.VDW>
0.64042

>  <SCORE.INTRA.VDW.0>
-0.618248

>  <SCORE.INTRA.norm>
-0.0159134

>  <SCORE.RESTR>
0

>  <SCORE.RESTR.CAVITY>
0

>  <SCORE.RESTR.norm>
0

>  <SCORE.SYSTEM>
0

>  <SCORE.SYSTEM.CONST>
0

>  <SCORE.SYSTEM.DIHEDRAL>
0

>  <SCORE.SYSTEM.SOLV>
0

>  <SCORE.SYSTEM.norm>
0

>  <SCORE.heavy>
10

>  <SCORE.norm>
-0.911499

>  <RMSD>
5.370

$$$$
ligand
 OpenBabel11021811473D
libRbt.so/2013.1/901 2013/11/27
 10  9  0  0  0  0  0  0  0  0999 V2000
   28.6949   14.7680   18.8353 N   0  0  0  0  0  0  0  0  0  0  0  0
   28.3630   15.3266   20.1810 C   0  0  2  0  0  0  0  0  0  0  0  0
   26.8747   15.1881   20.5216 C   0  0  0  0  0  0  0  0  0  0  0  0
   25.9856   15.4010   19.6837 O   0  0  0  0  0  0  0  0  0  0  0  0
   28.8255   16.7816   20.2969 C   0  0  0  0  0  0  0  0  0  0  0  0
   30.3281   16.9238   20.3827 C   0  0  0  0  0  0  0  0  0  0  0  0
   30.8742   16.3412   21.6636 C   0  0  0  0  0  0  0  0  0  0  0  0
   32.3700   16.6060   21.7959 C   0  0  0  0  0  0  0  0  0  0  0  0
   32.7065   18.0490   21.9287 N   0  0  0  0  0  0  0  0  0  0  0  0
   26.5105   14.8208   21.6429 O   0  0  0  0  0  0  0  0  0  0  0  0
  2  1  1  6  0  0  0
  2  3  1  0  0  0  0
  2  5  1  0  0  0  0
  3  4  1  0  0  0  0
  3 10  1  0  0  0  0
  5  6  1  0  0  0  0
  6  7  1  0  0  0  0
  7  8  1  0  0  0  0
  8  9  1  0  0  0  0
M  END
>  <CHROM.1>
-41.41278722,-71.33685313,-66.54526060,-174.74352376,65.05333299,29.10982394
16.01190587,20.69860305,-2.85794036,0.34029313,1.43899955

>  <Name>
ligand

>  <RI>
0

>  <Rbt.Current_Directory>
/home/itssahil/PROJECTS/Mol_Feturizer/New_Systems/rnas/3DIY

>  <Rbt.Executable>
rbdock ($Id: //depot/dev/client3/rdock/2013.1/src/exe/rbdock.cxx#4 $)

>  <Rbt.Library>
libRbt.so (2013.1, Build901 2013/11/27)

>  <Rbt.Parameter_File>
/export/apps/rDock/src/rDock_2013.1_src/data/scripts/dock_solv.prm

>  <Rbt.Receptor>
prm/pocket_docking_5.prm

>  <SCORE>
-8.275

>  <SCORE.INTER>
-8.51363

>  <SCORE.INTER.CONST>
1

>  <SCORE.INTER.POLAR>
0

>  <SCORE.INTER.ROT>
5

>  <SCORE.INTER.SOLV>
11.6381

>  <SCORE.INTER.VDW>
-16.4884

>  <SCORE.INTER.norm>
-0.851363

>  <SCORE.INTRA>
0.238626

>  <SCORE.INTRA.DIHEDRAL>
-0.063078

>  <SCORE.INTRA.DIHEDRAL.0>
2.56603

>  <SCORE.INTRA.POLAR>
0

>  <SCORE.INTRA.POLAR.0>
0

>  <SCORE.INTRA.REPUL>
0

>  <SCORE.INTRA.REPUL.0>
0

>  <SCORE.INTRA.SOLV>
0.532048

>  <SCORE.INTRA.SOLV.lig_0>
-32.0799

>  <SCORE.INTRA.VDW>
0.00414148

>  <SCORE.INTRA.VDW.0>
-0.618248

>  <SCORE.INTRA.norm>
0.0238626

>  <SCORE.RESTR>
0

>  <SCORE.RESTR.CAVITY>
0

>  <SCORE.RESTR.norm>
0

>  <SCORE.SYSTEM>
0

>  <SCORE.SYSTEM.CONST>
0

>  <SCORE.SYSTEM.DIHEDRAL>
0

>  <SCORE.SYSTEM.SOLV>
0

>  <SCORE.SYSTEM.norm>
0

>  <SCORE.heavy>
10

>  <SCORE.norm>
-0.8275

>  <RMSD>
5.370

$$$$
ligand
 OpenBabel11021811473D
libRbt.so/2013.1/901 2013/11/27
 10  9  0  0  0  0  0  0  0  0999 V2000
   25.9218   15.1935   20.1524 N   0  0  0  0  0  0  0  0  0  0  0  0
   27.4084   15.1634   20.0028 C   0  0  2  0  0  0  0  0  0  0  0  0
   27.8521   14.4910   18.6986 C   0  0  0  0  0  0  0  0  0  0  0  0
   27.0454   13.9384   17.9358 O   0  0  0  0  0  0  0  0  0  0  0  0
   28.0655   14.5041   21.2184 C   0  0  0  0  0  0  0  0  0  0  0  0
   29.1265   15.3668   21.8629 C   0  0  0  0  0  0  0  0  0  0  0  0
   30.3571   15.4831   20.9966 C   0  0  0  0  0  0  0  0  0  0  0  0
   31.4032   16.3847   21.6432 C   0  0  0  0  0  0  0  0  0  0  0  0
   32.6143   16.5839   20.8025 N   0  0  0  0  0  0  0  0  0  0  0  0
   29.0347   14.5098   18.3438 O   0  0  0  0  0  0  0  0  0  0  0  0
  2  1  1  1  0  0  0
  2  3  1  0  0  0  0
  2  5  1  0  0  0  0
  3  4  1  0  0  0  0
  3 10  1  0  0  0  0
  5  6  1  0  0  0  0
  6  7  1  0  0  0  0
  7  8  1  0  0  0  0
  8  9  1  0  0  0  0
M  END
>  <CHROM.1>
-6.01021736,-125.90236157,-70.46723965,178.53947979,-177.41384954,28.88448280
15.14502956,20.13109875,2.61879591,-0.22039390,-1.85272196

>  <Name>
ligand

>  <RI>
0

>  <Rbt.Current_Directory>
/home/itssahil/PROJECTS/Mol_Feturizer/New_Systems/rnas/3DIY

>  <Rbt.Executable>
rbdock ($Id: //depot/dev/client3/rdock/2013.1/src/exe/rbdock.cxx#4 $)

>  <Rbt.Library>
libRbt.so (2013.1, Build901 2013/11/27)

>  <Rbt.Parameter_File>
/export/apps/rDock/src/rDock_2013.1_src/data/scripts/dock_solv.prm

>  <Rbt.Receptor>
prm/pocket_docking_6.prm

>  <SCORE>
-6.55341

>  <SCORE.INTER>
-8.18846

>  <SCORE.INTER.CONST>
1

>  <SCORE.INTER.POLAR>
0

>  <SCORE.INTER.ROT>
5

>  <SCORE.INTER.SOLV>
17.5614

>  <SCORE.INTER.VDW>
-18.2461

>  <SCORE.INTER.norm>
-0.818846

>  <SCORE.INTRA>
1.63505

>  <SCORE.INTRA.DIHEDRAL>
5.01439

>  <SCORE.INTRA.DIHEDRAL.0>
2.56603

>  <SCORE.INTRA.POLAR>
0

>  <SCORE.INTRA.POLAR.0>
0

>  <SCORE.INTRA.REPUL>
0

>  <SCORE.INTRA.REPUL.0>
0

>  <SCORE.INTRA.SOLV>
-1.25689

>  <SCORE.INTRA.SOLV.lig_0>
-32.0799

>  <SCORE.INTRA.VDW>
-0.243696

>  <SCORE.INTRA.VDW.0>
-0.618248

>  <SCORE.INTRA.norm>
0.163505

>  <SCORE.RESTR>
0

>  <SCORE.RESTR.CAVITY>
0

>  <SCORE.RESTR.norm>
0

>  <SCORE.SYSTEM>
0

>  <SCORE.SYSTEM.CONST>
0

>  <SCORE.SYSTEM.DIHEDRAL>
0

>  <SCORE.SYSTEM.SOLV>
0

>  <SCORE.SYSTEM.norm>
0

>  <SCORE.heavy>
10

>  <SCORE.norm>
-0.655341

>  <RMSD>
5.375

$$$$
ligand
 OpenBabel11021811473D
libRbt.so/2013.1/901 2013/11/27
 10  9  0  0  0  0  0  0  0  0999 V2000
   27.1769   13.7233   18.5050 N   0  0  0  0  0  0  0  0  0  0  0  0
   27.7200   14.6772   19.5189 C   0  0  2  0  0  0  0  0  0  0  0  0
   26.7560   14.8985   20.6901 C   0  0  0  0  0  0  0  0  0  0  0  0
   27.1578   15.0457   21.8541 O   0  0  0  0  0  0  0  0  0  0  0  0
   28.1114   16.0047   18.8640 C   0  0  0  0  0  0  0  0  0  0  0  0
   28.7327   16.9859   19.8319 C   0  0  0  0  0  0  0  0  0  0  0  0
   30.0671   16.5001   20.3436 C   0  0  0  0  0  0  0  0  0  0  0  0
   30.6896   17.5083   21.3035 C   0  0  0  0  0  0  0  0  0  0  0  0
   32.0275   17.0976   21.8079 N   0  0  0  0  0  0  0  0  0  0  0  0
   25.5374   14.9746   20.5051 O   0  0  0  0  0  0  0  0  0  0  0  0
  2  1  1  6  0  0  0
  2  3  1  0  0  0  0
  2  5  1  0  0  0  0
  3  4  1  0  0  0  0
  3 10  1  0  0  0  0
  5  6  1  0  0  0  0
  6  7  1  0  0  0  0
  7  8  1  0  0  0  0
  8  9  1  0  0  0  0
M  END
>  <CHROM.1>
143.24937496,-177.11360241,66.19371381,179.23365932,-178.27787832,28.36827340
15.74086952,20.34689016,-2.80007164,0.46102257,1.36167283

>  <Name>
ligand

>  <RI>
0

>  <Rbt.Current_Directory>
/home/itssahil/PROJECTS/Mol_Feturizer/New_Systems/rnas/3DIY

>  <Rbt.Executable>
rbdock ($Id: //depot/dev/client3/rdock/2013.1/src/exe/rbdock.cxx#4 $)

>  <Rbt.Library>
libRbt.so (2013.1, Build901 2013/11/27)

>  <Rbt.Parameter_File>
/export/apps/rDock/src/rDock_2013.1_src/data/scripts/dock_solv.prm

>  <Rbt.Receptor>
prm/blind_docking_60.prm

>  <SCORE>
-10.3522

>  <SCORE.INTER>
-9.26186

>  <SCORE.INTER.CONST>
1

>  <SCORE.INTER.POLAR>
0

>  <SCORE.INTER.ROT>
5

>  <SCORE.INTER.SOLV>
14.9366

>  <SCORE.INTER.VDW>
-18.0868

>  <SCORE.INTER.norm>
-0.926186

>  <SCORE.INTRA>
-1.09033

>  <SCORE.INTRA.DIHEDRAL>
-0.895035

>  <SCORE.INTRA.DIHEDRAL.0>
2.56603

>  <SCORE.INTRA.POLAR>
0

>  <SCORE.INTRA.POLAR.0>
0

>  <SCORE.INTRA.REPUL>
0

>  <SCORE.INTRA.REPUL.0>
0

>  <SCORE.INTRA.SOLV>
-1.35447

>  <SCORE.INTRA.SOLV.lig_0>
-32.0799

>  <SCORE.INTRA.VDW>
0.034426

>  <SCORE.INTRA.VDW.0>
-0.618248

>  <SCORE.INTRA.norm>
-0.109033

>  <SCORE.RESTR>
0

>  <SCORE.RESTR.CAVITY>
0

>  <SCORE.RESTR.norm>
0

>  <SCORE.SYSTEM>
0

>  <SCORE.SYSTEM.CONST>
0

>  <SCORE.SYSTEM.DIHEDRAL>
0

>  <SCORE.SYSTEM.SOLV>
0

>  <SCORE.SYSTEM.norm>
0

>  <SCORE.heavy>
10

>  <SCORE.norm>
-1.03522

>  <RMSD>
5.381

$$$$
ligand
 OpenBabel11021811473D
libRbt.so/2013.1/901 2013/11/27
 10  9  0  0  0  0  0  0  0  0999 V2000
   26.3189   15.0048   20.0264 N   0  0  0  0  0  0  0  0  0  0  0  0
   27.5248   15.4847   19.2858 C   0  0  2  0  0  0  0  0  0  0  0  0
   27.5874   14.9409   17.8539 C   0  0  0  0  0  0  0  0  0  0  0  0
   28.1510   15.5601   16.9391 O   0  0  0  0  0  0  0  0  0  0  0  0
   28.8053   15.1592   20.0594 C   0  0  0  0  0  0  0  0  0  0  0  0
   28.8275   15.7509   21.4504 C   0  0  0  0  0  0  0  0  0  0  0  0
   30.0982   15.4034   22.1873 C   0  0  0  0  0  0  0  0  0  0  0  0
   31.2695   16.2459   21.6937 C   0  0  0  0  0  0  0  0  0  0  0  0
   31.6847   15.9249   20.3016 N   0  0  0  0  0  0  0  0  0  0  0  0
   27.1053   13.8400   17.5702 O   0  0  0  0  0  0  0  0  0  0  0  0
  2  1  1  1  0  0  0
  2  3  1  0  0  0  0
  2  5  1  0  0  0  0
  3  4  1  0  0  0  0
  3 10  1  0  0  0  0
  5  6  1  0  0  0  0
  6  7  1  0  0  0  0
  7  8  1  0  0  0  0
  8  9  1  0  0  0  0
M  END
>  <CHROM.1>
151.74354359,-57.70477443,179.62519385,76.32638450,-68.31446174,28.73127412
15.31826904,19.69737735,2.33965318,-0.23851836,-1.64245342

>  <Name>
ligand

>  <RI>
0

>  <Rbt.Current_Directory>
/home/itssahil/PROJECTS/Mol_Feturizer/New_Systems/rnas/3DIY

>  <Rbt.Executable>
rbdock ($Id: //depot/dev/client3/rdock/2013.1/src/exe/rbdock.cxx#4 $)

>  <Rbt.Library>
libRbt.so (2013.1, Build901 2013/11/27)

>  <Rbt.Parameter_File>
/export/apps/rDock/src/rDock_2013.1_src/data/scripts/dock_solv.prm

>  <Rbt.Receptor>
prm/pocket_docking_8.prm

>  <SCORE>
-7.56034

>  <SCORE.INTER>
-8.84758

>  <SCORE.INTER.CONST>
1

>  <SCORE.INTER.POLAR>
0

>  <SCORE.INTER.ROT>
5

>  <SCORE.INTER.SOLV>
15.6968

>  <SCORE.INTER.VDW>
-18.064

>  <SCORE.INTER.norm>
-0.884758

>  <SCORE.INTRA>
1.28723

>  <SCORE.INTRA.DIHEDRAL>
0.223832

>  <SCORE.INTRA.DIHEDRAL.0>
2.56603

>  <SCORE.INTRA.POLAR>
0

>  <SCORE.INTRA.POLAR.0>
0

>  <SCORE.INTRA.REPUL>
0

>  <SCORE.INTRA.REPUL.0>
0

>  <SCORE.INTRA.SOLV>
1.56629

>  <SCORE.INTRA.SOLV.lig_0>
-32.0799

>  <SCORE.INTRA.VDW>
0.392174

>  <SCORE.INTRA.VDW.0>
-0.618248

>  <SCORE.INTRA.norm>
0.128723

>  <SCORE.RESTR>
0

>  <SCORE.RESTR.CAVITY>
0

>  <SCORE.RESTR.norm>
0

>  <SCORE.SYSTEM>
0

>  <SCORE.SYSTEM.CONST>
0

>  <SCORE.SYSTEM.DIHEDRAL>
0

>  <SCORE.SYSTEM.SOLV>
0

>  <SCORE.SYSTEM.norm>
0

>  <SCORE.heavy>
10

>  <SCORE.norm>
-0.756034

>  <RMSD>
5.381

$$$$
ligand
 OpenBabel11021811473D
libRbt.so/2013.1/901 2013/11/27
 10  9  0  0  0  0  0  0  0  0999 V2000
   27.1712   13.7433   18.5077 N   0  0  0  0  0  0  0  0  0  0  0  0
   27.7186   14.6865   19.5293 C   0  0  2  0  0  0  0  0  0  0  0  0
   26.7552   14.9034   20.7018 C   0  0  0  0  0  0  0  0  0  0  0  0
   27.1576   15.0459   21.8662 O   0  0  0  0  0  0  0  0  0  0  0  0
   28.1170   16.0171   18.8851 C   0  0  0  0  0  0  0  0  0  0  0  0
   28.7470   16.9858   19.8599 C   0  0  0  0  0  0  0  0  0  0  0  0
   30.0986   16.5071   20.3317 C   0  0  0  0  0  0  0  0  0  0  0  0
   30.7063   17.4776   21.3387 C   0  0  0  0  0  0  0  0  0  0  0  0
   32.0686   17.0861   21.7905 N   0  0  0  0  0  0  0  0  0  0  0  0
   25.5366   14.9805   20.5176 O   0  0  0  0  0  0  0  0  0  0  0  0
  2  1  1  6  0  0  0
  2  3  1  0  0  0  0
  2  5  1  0  0  0  0
  3  4  1  0  0  0  0
  3 10  1  0  0  0  0
  5  6  1  0  0  0  0
  6  7  1  0  0  0  0
  7  8  1  0  0  0  0
  8  9  1  0  0  0  0
M  END
>  <CHROM.1>
143.60809394,-176.92540742,67.94776696,-178.65833187,-177.34787963,28.37823627
15.74256502,20.35739310,-2.80548441,0.45429170,1.36291846

>  <Name>
ligand

>  <RI>
0

>  <Rbt.Current_Directory>
/home/itssahil/PROJECTS/Mol_Feturizer/New_Systems/rnas/3DIY

>  <Rbt.Executable>
rbdock ($Id: //depot/dev/client3/rdock/2013.1/src/exe/rbdock.cxx#4 $)

>  <Rbt.Library>
libRbt.so (2013.1, Build901 2013/11/27)

>  <Rbt.Parameter_File>
/export/apps/rDock/src/rDock_2013.1_src/data/scripts/dock_solv.prm

>  <Rbt.Receptor>
prm/pocket_docking_6.prm

>  <SCORE>
-10.3376

>  <SCORE.INTER>
-9.26659

>  <SCORE.INTER.CONST>
1

>  <SCORE.INTER.POLAR>
0

>  <SCORE.INTER.ROT>
5

>  <SCORE.INTER.SOLV>
14.9937

>  <SCORE.INTER.VDW>
-18.109

>  <SCORE.INTER.norm>
-0.926659

>  <SCORE.INTRA>
-1.07103

>  <SCORE.INTRA.DIHEDRAL>
-0.769725

>  <SCORE.INTRA.DIHEDRAL.0>
2.56603

>  <SCORE.INTRA.POLAR>
0

>  <SCORE.INTRA.POLAR.0>
0

>  <SCORE.INTRA.REPUL>
0

>  <SCORE.INTRA.REPUL.0>
0

>  <SCORE.INTRA.SOLV>
-1.36178

>  <SCORE.INTRA.SOLV.lig_0>
-32.0799

>  <SCORE.INTRA.VDW>
-0.00527177

>  <SCORE.INTRA.VDW.0>
-0.618248

>  <SCORE.INTRA.norm>
-0.107103

>  <SCORE.RESTR>
0

>  <SCORE.RESTR.CAVITY>
0

>  <SCORE.RESTR.norm>
0

>  <SCORE.SYSTEM>
0

>  <SCORE.SYSTEM.CONST>
0

>  <SCORE.SYSTEM.DIHEDRAL>
0

>  <SCORE.SYSTEM.SOLV>
0

>  <SCORE.SYSTEM.norm>
0

>  <SCORE.heavy>
10

>  <SCORE.norm>
-1.03376

>  <RMSD>
5.382

$$$$
ligand
 OpenBabel11021811473D
libRbt.so/2013.1/901 2013/11/27
 10  9  0  0  0  0  0  0  0  0999 V2000
   26.7769   16.0377   19.6186 N   0  0  0  0  0  0  0  0  0  0  0  0
   27.9995   15.1946   19.4533 C   0  0  2  0  0  0  0  0  0  0  0  0
   27.8986   14.2456   18.2536 C   0  0  0  0  0  0  0  0  0  0  0  0
   28.8515   14.0559   17.4829 O   0  0  0  0  0  0  0  0  0  0  0  0
   28.3121   14.4287   20.7417 C   0  0  0  0  0  0  0  0  0  0  0  0
   29.1973   15.2005   21.6935 C   0  0  0  0  0  0  0  0  0  0  0  0
   30.5991   15.3548   21.1553 C   0  0  0  0  0  0  0  0  0  0  0  0
   31.4512   16.2208   22.0769 C   0  0  0  0  0  0  0  0  0  0  0  0
   31.0287   17.6469   22.1072 N   0  0  0  0  0  0  0  0  0  0  0  0
   26.8659   13.6049   18.0346 O   0  0  0  0  0  0  0  0  0  0  0  0
  2  1  1  1  0  0  0
  2  3  1  0  0  0  0
  2  5  1  0  0  0  0
  3  4  1  0  0  0  0
  3 10  1  0  0  0  0
  5  6  1  0  0  0  0
  6  7  1  0  0  0  0
  7  8  1  0  0  0  0
  8  9  1  0  0  0  0
M  END
>  <CHROM.1>
137.88051033,-88.73415381,-68.85043804,175.85598816,-68.25580552,28.88971278
15.17396447,20.02732710,2.22627299,0.09353237,-2.19034682

>  <Name>
ligand

>  <RI>
0

>  <Rbt.Current_Directory>
/home/itssahil/PROJECTS/Mol_Feturizer/New_Systems/rnas/3DIY

>  <Rbt.Executable>
rbdock ($Id: //depot/dev/client3/rdock/2013.1/src/exe/rbdock.cxx#4 $)

>  <Rbt.Library>
libRbt.so (2013.1, Build901 2013/11/27)

>  <Rbt.Parameter_File>
/export/apps/rDock/src/rDock_2013.1_src/data/scripts/dock_solv.prm

>  <Rbt.Receptor>
prm/pocket_docking_7.prm

>  <SCORE>
-6.92142

>  <SCORE.INTER>
-7.96479

>  <SCORE.INTER.CONST>
1

>  <SCORE.INTER.POLAR>
0

>  <SCORE.INTER.ROT>
5

>  <SCORE.INTER.SOLV>
15.7043

>  <SCORE.INTER.VDW>
-17.478

>  <SCORE.INTER.norm>
-0.796479

>  <SCORE.INTRA>
1.04337

>  <SCORE.INTRA.DIHEDRAL>
2.27403

>  <SCORE.INTRA.DIHEDRAL.0>
2.56603

>  <SCORE.INTRA.POLAR>
0

>  <SCORE.INTRA.POLAR.0>
0

>  <SCORE.INTRA.REPUL>
0

>  <SCORE.INTRA.REPUL.0>
0

>  <SCORE.INTRA.SOLV>
0.125348

>  <SCORE.INTRA.SOLV.lig_0>
-32.0799

>  <SCORE.INTRA.VDW>
-0.156314

>  <SCORE.INTRA.VDW.0>
-0.618248

>  <SCORE.INTRA.norm>
0.104337

>  <SCORE.RESTR>
0

>  <SCORE.RESTR.CAVITY>
0

>  <SCORE.RESTR.norm>
0

>  <SCORE.SYSTEM>
0

>  <SCORE.SYSTEM.CONST>
0

>  <SCORE.SYSTEM.DIHEDRAL>
0

>  <SCORE.SYSTEM.SOLV>
0

>  <SCORE.SYSTEM.norm>
0

>  <SCORE.heavy>
10

>  <SCORE.norm>
-0.692142

>  <RMSD>
5.383

$$$$
ligand
 OpenBabel11021811473D
libRbt.so/2013.1/901 2013/11/27
 10  9  0  0  0  0  0  0  0  0999 V2000
   27.1823   13.7343   18.5021 N   0  0  0  0  0  0  0  0  0  0  0  0
   27.7241   14.6812   19.5233 C   0  0  2  0  0  0  0  0  0  0  0  0
   26.7502   14.9096   20.6849 C   0  0  0  0  0  0  0  0  0  0  0  0
   25.5236   14.9706   20.5127 O   0  0  0  0  0  0  0  0  0  0  0  0
   28.1350   16.0060   18.8751 C   0  0  0  0  0  0  0  0  0  0  0  0
   28.7499   16.9818   19.8524 C   0  0  0  0  0  0  0  0  0  0  0  0
   30.0946   16.5073   20.3473 C   0  0  0  0  0  0  0  0  0  0  0  0
   30.7065   17.5062   21.3236 C   0  0  0  0  0  0  0  0  0  0  0  0
   32.0480   17.1007   21.8226 N   0  0  0  0  0  0  0  0  0  0  0  0
   27.1574   15.0049   21.8468 O   0  0  0  0  0  0  0  0  0  0  0  0
  2  1  1  6  0  0  0
  2  3  1  0  0  0  0
  2  5  1  0  0  0  0
  3  4  1  0  0  0  0
  3 10  1  0  0  0  0
  5  6  1  0  0  0  0
  6  7  1  0  0  0  0
  7  8  1  0  0  0  0
  8  9  1  0  0  0  0
M  END
>  <CHROM.1>
-37.08577442,-177.37712403,68.11301113,179.58044314,-178.82612952,28.37757890
15.73874538,20.35358238,-2.80330665,0.46034243,1.36599565

>  <Name>
ligand

>  <RI>
0

>  <Rbt.Current_Directory>
/home/itssahil/PROJECTS/Mol_Feturizer/New_Systems/rnas/3DIY

>  <Rbt.Executable>
rbdock ($Id: //depot/dev/client3/rdock/2013.1/src/exe/rbdock.cxx#4 $)

>  <Rbt.Library>
libRbt.so (2013.1, Build901 2013/11/27)

>  <Rbt.Parameter_File>
/export/apps/rDock/src/rDock_2013.1_src/data/scripts/dock_solv.prm

>  <Rbt.Receptor>
prm/pocket_docking_7.prm

>  <SCORE>
-10.27

>  <SCORE.INTER>
-9.24917

>  <SCORE.INTER.CONST>
1

>  <SCORE.INTER.POLAR>
0

>  <SCORE.INTER.ROT>
5

>  <SCORE.INTER.SOLV>
14.9667

>  <SCORE.INTER.VDW>
-18.0883

>  <SCORE.INTER.norm>
-0.924917

>  <SCORE.INTRA>
-1.02084

>  <SCORE.INTRA.DIHEDRAL>
-0.662438

>  <SCORE.INTRA.DIHEDRAL.0>
2.56603

>  <SCORE.INTRA.POLAR>
0

>  <SCORE.INTRA.POLAR.0>
0

>  <SCORE.INTRA.REPUL>
0

>  <SCORE.INTRA.REPUL.0>
0

>  <SCORE.INTRA.SOLV>
-1.35931

>  <SCORE.INTRA.SOLV.lig_0>
-32.0799

>  <SCORE.INTRA.VDW>
-0.00996671

>  <SCORE.INTRA.VDW.0>
-0.618248

>  <SCORE.INTRA.norm>
-0.102084

>  <SCORE.RESTR>
0

>  <SCORE.RESTR.CAVITY>
0

>  <SCORE.RESTR.norm>
0

>  <SCORE.SYSTEM>
0

>  <SCORE.SYSTEM.CONST>
0

>  <SCORE.SYSTEM.DIHEDRAL>
0

>  <SCORE.SYSTEM.SOLV>
0

>  <SCORE.SYSTEM.norm>
0

>  <SCORE.heavy>
10

>  <SCORE.norm>
-1.027

>  <RMSD>
5.386

$$$$
ligand
 OpenBabel11021811473D
libRbt.so/2013.1/901 2013/11/27
 10  9  0  0  0  0  0  0  0  0999 V2000
   27.1702   13.7447   18.4871 N   0  0  0  0  0  0  0  0  0  0  0  0
   27.7100   14.6879   19.5128 C   0  0  2  0  0  0  0  0  0  0  0  0
   26.7393   14.9020   20.6798 C   0  0  0  0  0  0  0  0  0  0  0  0
   27.1343   15.0370   21.8476 O   0  0  0  0  0  0  0  0  0  0  0  0
   28.1097   16.0198   18.8721 C   0  0  0  0  0  0  0  0  0  0  0  0
   28.7461   16.9830   19.8482 C   0  0  0  0  0  0  0  0  0  0  0  0
   30.0813   16.4808   20.3415 C   0  0  0  0  0  0  0  0  0  0  0  0
   30.7092   17.4611   21.3266 C   0  0  0  0  0  0  0  0  0  0  0  0
   32.0395   17.0247   21.8296 N   0  0  0  0  0  0  0  0  0  0  0  0
   25.5223   14.9842   20.4878 O   0  0  0  0  0  0  0  0  0  0  0  0
  2  1  1  6  0  0  0
  2  3  1  0  0  0  0
  2  5  1  0  0  0  0
  3  4  1  0  0  0  0
  3 10  1  0  0  0  0
  5  6  1  0  0  0  0
  6  7  1  0  0  0  0
  7  8  1  0  0  0  0
  8  9  1  0  0  0  0
M  END
>  <CHROM.1>
143.21821750,-176.29058189,66.40576846,-179.89161504,-179.10608298,28.36660174
15.73176714,20.34766183,-2.80292482,0.44955839,1.37226384

>  <Name>
ligand

>  <RI>
0

>  <Rbt.Current_Directory>
/home/itssahil/PROJECTS/Mol_Feturizer/New_Systems/rnas/3DIY

>  <Rbt.Executable>
rbdock ($Id: //depot/dev/client3/rdock/2013.1/src/exe/rbdock.cxx#4 $)

>  <Rbt.Library>
libRbt.so (2013.1, Build901 2013/11/27)

>  <Rbt.Parameter_File>
/export/apps/rDock/src/rDock_2013.1_src/data/scripts/dock_solv.prm

>  <Rbt.Receptor>
prm/blind_docking_60.prm

>  <SCORE>
-10.3687

>  <SCORE.INTER>
-9.26741

>  <SCORE.INTER.CONST>
1

>  <SCORE.INTER.POLAR>
0

>  <SCORE.INTER.ROT>
5

>  <SCORE.INTER.SOLV>
15.0488

>  <SCORE.INTER.VDW>
-18.1279

>  <SCORE.INTER.norm>
-0.926741

>  <SCORE.INTRA>
-1.10133

>  <SCORE.INTRA.DIHEDRAL>
-0.875891

>  <SCORE.INTRA.DIHEDRAL.0>
2.56603

>  <SCORE.INTRA.POLAR>
0

>  <SCORE.INTRA.POLAR.0>
0

>  <SCORE.INTRA.REPUL>
0

>  <SCORE.INTRA.REPUL.0>
0

>  <SCORE.INTRA.SOLV>
-1.35022

>  <SCORE.INTRA.SOLV.lig_0>
-32.0799

>  <SCORE.INTRA.VDW>
0.0117267

>  <SCORE.INTRA.VDW.0>
-0.618248

>  <SCORE.INTRA.norm>
-0.110133

>  <SCORE.RESTR>
0

>  <SCORE.RESTR.CAVITY>
0

>  <SCORE.RESTR.norm>
0

>  <SCORE.SYSTEM>
0

>  <SCORE.SYSTEM.CONST>
0

>  <SCORE.SYSTEM.DIHEDRAL>
0

>  <SCORE.SYSTEM.SOLV>
0

>  <SCORE.SYSTEM.norm>
0

>  <SCORE.heavy>
10

>  <SCORE.norm>
-1.03687

>  <RMSD>
5.387

$$$$
ligand
 OpenBabel11021811473D
libRbt.so/2013.1/901 2013/11/27
 10  9  0  0  0  0  0  0  0  0999 V2000
   28.6647   15.9807   19.1381 N   0  0  0  0  0  0  0  0  0  0  0  0
   28.3432   15.2150   20.3804 C   0  0  2  0  0  0  0  0  0  0  0  0
   26.8355   15.1372   20.6466 C   0  0  0  0  0  0  0  0  0  0  0  0
   25.9984   15.4070   19.7723 O   0  0  0  0  0  0  0  0  0  0  0  0
   29.0903   15.7923   21.5857 C   0  0  0  0  0  0  0  0  0  0  0  0
   30.5937   15.7115   21.4490 C   0  0  0  0  0  0  0  0  0  0  0  0
   31.1182   16.6976   20.4336 C   0  0  0  0  0  0  0  0  0  0  0  0
   32.6397   16.6431   20.3473 C   0  0  0  0  0  0  0  0  0  0  0  0
   33.3200   17.0996   21.5890 N   0  0  0  0  0  0  0  0  0  0  0  0
   26.4014   14.7643   21.7408 O   0  0  0  0  0  0  0  0  0  0  0  0
  2  1  1  6  0  0  0
  2  3  1  0  0  0  0
  2  5  1  0  0  0  0
  3  4  1  0  0  0  0
  3 10  1  0  0  0  0
  5  6  1  0  0  0  0
  6  7  1  0  0  0  0
  7  8  1  0  0  0  0
  8  9  1  0  0  0  0
M  END
>  <CHROM.1>
15.50785644,-62.08690518,72.26140534,177.73713114,-66.13792510,29.25538875
15.83802139,20.71294440,-3.13660457,0.27204789,1.80292634

>  <Name>
ligand

>  <RI>
0

>  <Rbt.Current_Directory>
/home/itssahil/PROJECTS/Mol_Feturizer/New_Systems/rnas/3DIY

>  <Rbt.Executable>
rbdock ($Id: //depot/dev/client3/rdock/2013.1/src/exe/rbdock.cxx#4 $)

>  <Rbt.Library>
libRbt.so (2013.1, Build901 2013/11/27)

>  <Rbt.Parameter_File>
/export/apps/rDock/src/rDock_2013.1_src/data/scripts/dock_solv.prm

>  <Rbt.Receptor>
prm/blind_docking_80.prm

>  <SCORE>
-7.78901

>  <SCORE.INTER>
-9.23861

>  <SCORE.INTER.CONST>
1

>  <SCORE.INTER.POLAR>
0

>  <SCORE.INTER.ROT>
5

>  <SCORE.INTER.SOLV>
12.2015

>  <SCORE.INTER.VDW>
-17.1596

>  <SCORE.INTER.norm>
-0.923861

>  <SCORE.INTRA>
1.4496

>  <SCORE.INTRA.DIHEDRAL>
-0.279228

>  <SCORE.INTRA.DIHEDRAL.0>
2.56603

>  <SCORE.INTRA.POLAR>
0

>  <SCORE.INTRA.POLAR.0>
0

>  <SCORE.INTRA.REPUL>
0

>  <SCORE.INTRA.REPUL.0>
0

>  <SCORE.INTRA.SOLV>
1.68622

>  <SCORE.INTRA.SOLV.lig_0>
-32.0799

>  <SCORE.INTRA.VDW>
0.746107

>  <SCORE.INTRA.VDW.0>
-0.618248

>  <SCORE.INTRA.norm>
0.14496

>  <SCORE.RESTR>
0

>  <SCORE.RESTR.CAVITY>
0

>  <SCORE.RESTR.norm>
0

>  <SCORE.SYSTEM>
0

>  <SCORE.SYSTEM.CONST>
0

>  <SCORE.SYSTEM.DIHEDRAL>
0

>  <SCORE.SYSTEM.SOLV>
0

>  <SCORE.SYSTEM.norm>
0

>  <SCORE.heavy>
10

>  <SCORE.norm>
-0.778901

>  <RMSD>
5.387

$$$$
ligand
 OpenBabel11021811473D
libRbt.so/2013.1/901 2013/11/27
 10  9  0  0  0  0  0  0  0  0999 V2000
   27.1511   13.7647   18.4916 N   0  0  0  0  0  0  0  0  0  0  0  0
   27.7094   14.6859   19.5273 C   0  0  2  0  0  0  0  0  0  0  0  0
   26.7408   14.9112   20.6939 C   0  0  0  0  0  0  0  0  0  0  0  0
   25.5137   14.9775   20.5267 O   0  0  0  0  0  0  0  0  0  0  0  0
   28.1409   16.0143   18.9000 C   0  0  0  0  0  0  0  0  0  0  0  0
   28.7735   16.9637   19.8919 C   0  0  0  0  0  0  0  0  0  0  0  0
   30.1162   16.4646   20.3678 C   0  0  0  0  0  0  0  0  0  0  0  0
   30.7369   17.4272   21.3745 C   0  0  0  0  0  0  0  0  0  0  0  0
   32.0685   16.9873   21.8712 N   0  0  0  0  0  0  0  0  0  0  0  0
   27.1528   14.9985   21.8547 O   0  0  0  0  0  0  0  0  0  0  0  0
  2  1  1  6  0  0  0
  2  3  1  0  0  0  0
  2  5  1  0  0  0  0
  3  4  1  0  0  0  0
  3 10  1  0  0  0  0
  5  6  1  0  0  0  0
  6  7  1  0  0  0  0
  7  8  1  0  0  0  0
  8  9  1  0  0  0  0
M  END
>  <CHROM.1>
-36.12963700,-177.34243963,68.57435606,-179.60019864,-179.63550158,28.38082372
15.71807227,20.37446701,-2.80688476,0.44421132,1.38413670

>  <Name>
ligand

>  <RI>
0

>  <Rbt.Current_Directory>
/home/itssahil/PROJECTS/Mol_Feturizer/New_Systems/rnas/3DIY

>  <Rbt.Executable>
rbdock ($Id: //depot/dev/client3/rdock/2013.1/src/exe/rbdock.cxx#4 $)

>  <Rbt.Library>
libRbt.so (2013.1, Build901 2013/11/27)

>  <Rbt.Parameter_File>
/export/apps/rDock/src/rDock_2013.1_src/data/scripts/dock_solv.prm

>  <Rbt.Receptor>
prm/pocket_docking_3.prm

>  <SCORE>
-10.25

>  <SCORE.INTER>
-9.23674

>  <SCORE.INTER.CONST>
1

>  <SCORE.INTER.POLAR>
0

>  <SCORE.INTER.ROT>
5

>  <SCORE.INTER.SOLV>
15.2126

>  <SCORE.INTER.VDW>
-18.162

>  <SCORE.INTER.norm>
-0.923674

>  <SCORE.INTRA>
-1.01327

>  <SCORE.INTRA.DIHEDRAL>
-0.633739

>  <SCORE.INTRA.DIHEDRAL.0>
2.56603

>  <SCORE.INTRA.POLAR>
0

>  <SCORE.INTRA.POLAR.0>
0

>  <SCORE.INTRA.REPUL>
0

>  <SCORE.INTRA.REPUL.0>
0

>  <SCORE.INTRA.SOLV>
-1.36121

>  <SCORE.INTRA.SOLV.lig_0>
-32.0799

>  <SCORE.INTRA.VDW>
-0.0157942

>  <SCORE.INTRA.VDW.0>
-0.618248

>  <SCORE.INTRA.norm>
-0.101327

>  <SCORE.RESTR>
0

>  <SCORE.RESTR.CAVITY>
0

>  <SCORE.RESTR.norm>
0

>  <SCORE.SYSTEM>
0

>  <SCORE.SYSTEM.CONST>
0

>  <SCORE.SYSTEM.DIHEDRAL>
0

>  <SCORE.SYSTEM.SOLV>
0

>  <SCORE.SYSTEM.norm>
0

>  <SCORE.heavy>
10

>  <SCORE.norm>
-1.025

>  <RMSD>
5.388

$$$$
ligand
 OpenBabel11021811473D
libRbt.so/2013.1/901 2013/11/27
 10  9  0  0  0  0  0  0  0  0999 V2000
   27.1645   13.7363   18.5032 N   0  0  0  0  0  0  0  0  0  0  0  0
   27.7076   14.6817   19.5251 C   0  0  2  0  0  0  0  0  0  0  0  0
   26.7375   14.9041   20.6910 C   0  0  0  0  0  0  0  0  0  0  0  0
   25.5098   14.9585   20.5241 O   0  0  0  0  0  0  0  0  0  0  0  0
   28.1124   16.0095   18.8791 C   0  0  0  0  0  0  0  0  0  0  0  0
   28.7435   16.9779   19.8534 C   0  0  0  0  0  0  0  0  0  0  0  0
   30.0793   16.4818   20.3512 C   0  0  0  0  0  0  0  0  0  0  0  0
   30.6927   17.4579   21.3493 C   0  0  0  0  0  0  0  0  0  0  0  0
   32.0285   17.0335   21.8481 N   0  0  0  0  0  0  0  0  0  0  0  0
   27.1492   15.0010   21.8512 O   0  0  0  0  0  0  0  0  0  0  0  0
  2  1  1  6  0  0  0
  2  3  1  0  0  0  0
  2  5  1  0  0  0  0
  3  4  1  0  0  0  0
  3 10  1  0  0  0  0
  5  6  1  0  0  0  0
  6  7  1  0  0  0  0
  7  8  1  0  0  0  0
  8  9  1  0  0  0  0
M  END
>  <CHROM.1>
-36.88136419,-176.68631275,66.77494192,-179.09260246,-178.59491584,28.36300146
15.72267537,20.36214657,-2.80683394,0.45624641,1.38059516

>  <Name>
ligand

>  <RI>
0

>  <Rbt.Current_Directory>
/home/itssahil/PROJECTS/Mol_Feturizer/New_Systems/rnas/3DIY

>  <Rbt.Executable>
rbdock ($Id: //depot/dev/client3/rdock/2013.1/src/exe/rbdock.cxx#4 $)

>  <Rbt.Library>
libRbt.so (2013.1, Build901 2013/11/27)

>  <Rbt.Parameter_File>
/export/apps/rDock/src/rDock_2013.1_src/data/scripts/dock_solv.prm

>  <Rbt.Receptor>
prm/pocket_docking_7.prm

>  <SCORE>
-10.2614

>  <SCORE.INTER>
-9.22458

>  <SCORE.INTER.CONST>
1

>  <SCORE.INTER.POLAR>
0

>  <SCORE.INTER.ROT>
5

>  <SCORE.INTER.SOLV>
15.0682

>  <SCORE.INTER.VDW>
-18.1058

>  <SCORE.INTER.norm>
-0.922458

>  <SCORE.INTRA>
-1.0368

>  <SCORE.INTRA.DIHEDRAL>
-0.724626

>  <SCORE.INTRA.DIHEDRAL.0>
2.56603

>  <SCORE.INTRA.POLAR>
0

>  <SCORE.INTRA.POLAR.0>
0

>  <SCORE.INTRA.REPUL>
0

>  <SCORE.INTRA.REPUL.0>
0

>  <SCORE.INTRA.SOLV>
-1.34712

>  <SCORE.INTRA.SOLV.lig_0>
-32.0799

>  <SCORE.INTRA.VDW>
-0.000922177

>  <SCORE.INTRA.VDW.0>
-0.618248

>  <SCORE.INTRA.norm>
-0.10368

>  <SCORE.RESTR>
0

>  <SCORE.RESTR.CAVITY>
0

>  <SCORE.RESTR.norm>
0

>  <SCORE.SYSTEM>
0

>  <SCORE.SYSTEM.CONST>
0

>  <SCORE.SYSTEM.DIHEDRAL>
0

>  <SCORE.SYSTEM.SOLV>
0

>  <SCORE.SYSTEM.norm>
0

>  <SCORE.heavy>
10

>  <SCORE.norm>
-1.02614

>  <RMSD>
5.388

$$$$
ligand
 OpenBabel11021811473D
libRbt.so/2013.1/901 2013/11/27
 10  9  0  0  0  0  0  0  0  0999 V2000
   28.0985   15.0017   18.5563 N   0  0  0  0  0  0  0  0  0  0  0  0
   28.2793   15.1494   20.0323 C   0  0  2  0  0  0  0  0  0  0  0  0
   26.9505   15.0870   20.7941 C   0  0  0  0  0  0  0  0  0  0  0  0
   25.8568   15.0800   20.2095 O   0  0  0  0  0  0  0  0  0  0  0  0
   29.0482   16.4318   20.3620 C   0  0  0  0  0  0  0  0  0  0  0  0
   30.5331   16.2079   20.5360 C   0  0  0  0  0  0  0  0  0  0  0  0
   31.2251   17.4341   21.0800 C   0  0  0  0  0  0  0  0  0  0  0  0
   32.7021   17.1621   21.3438 C   0  0  0  0  0  0  0  0  0  0  0  0
   33.4624   16.7852   20.1218 N   0  0  0  0  0  0  0  0  0  0  0  0
   26.9270   15.0041   22.0260 O   0  0  0  0  0  0  0  0  0  0  0  0
  2  1  1  6  0  0  0
  2  3  1  0  0  0  0
  2  5  1  0  0  0  0
  3  4  1  0  0  0  0
  3 10  1  0  0  0  0
  5  6  1  0  0  0  0
  6  7  1  0  0  0  0
  7  8  1  0  0  0  0
  8  9  1  0  0  0  0
M  END
>  <CHROM.1>
-8.19278553,-95.18003285,-170.58713695,175.94057821,61.24960922,29.26739113
15.92711343,20.52288096,-3.02938688,0.31230091,1.33654710

>  <Name>
ligand

>  <RI>
0

>  <Rbt.Current_Directory>
/home/itssahil/PROJECTS/Mol_Feturizer/New_Systems/rnas/3DIY

>  <Rbt.Executable>
rbdock ($Id: //depot/dev/client3/rdock/2013.1/src/exe/rbdock.cxx#4 $)

>  <Rbt.Library>
libRbt.so (2013.1, Build901 2013/11/27)

>  <Rbt.Parameter_File>
/export/apps/rDock/src/rDock_2013.1_src/data/scripts/dock_solv.prm

>  <Rbt.Receptor>
prm/pocket_docking_2.prm

>  <SCORE>
-7.05317

>  <SCORE.INTER>
-8.2794

>  <SCORE.INTER.CONST>
1

>  <SCORE.INTER.POLAR>
0

>  <SCORE.INTER.ROT>
5

>  <SCORE.INTER.SOLV>
13.5103

>  <SCORE.INTER.VDW>
-16.9564

>  <SCORE.INTER.norm>
-0.82794

>  <SCORE.INTRA>
1.22606

>  <SCORE.INTRA.DIHEDRAL>
3.10388

>  <SCORE.INTRA.DIHEDRAL.0>
2.56603

>  <SCORE.INTRA.POLAR>
0

>  <SCORE.INTRA.POLAR.0>
0

>  <SCORE.INTRA.REPUL>
0

>  <SCORE.INTRA.REPUL.0>
0

>  <SCORE.INTRA.SOLV>
-0.27491

>  <SCORE.INTRA.SOLV.lig_0>
-32.0799

>  <SCORE.INTRA.VDW>
-0.188426

>  <SCORE.INTRA.VDW.0>
-0.618248

>  <SCORE.INTRA.norm>
0.122606

>  <SCORE.RESTR>
0.0001651

>  <SCORE.RESTR.CAVITY>
0.0001651

>  <SCORE.RESTR.norm>
1.651e-05

>  <SCORE.SYSTEM>
0

>  <SCORE.SYSTEM.CONST>
0

>  <SCORE.SYSTEM.DIHEDRAL>
0

>  <SCORE.SYSTEM.SOLV>
0

>  <SCORE.SYSTEM.norm>
0

>  <SCORE.heavy>
10

>  <SCORE.norm>
-0.705317

>  <RMSD>
5.389

$$$$
ligand
 OpenBabel11021811473D
libRbt.so/2013.1/901 2013/11/27
 10  9  0  0  0  0  0  0  0  0999 V2000
   26.2899   15.0026   20.0433 N   0  0  0  0  0  0  0  0  0  0  0  0
   27.5154   15.4561   19.3183 C   0  0  2  0  0  0  0  0  0  0  0  0
   27.5873   14.9064   17.8891 C   0  0  0  0  0  0  0  0  0  0  0  0
   27.0687   13.8250   17.5734 O   0  0  0  0  0  0  0  0  0  0  0  0
   28.7783   15.1078   20.1109 C   0  0  0  0  0  0  0  0  0  0  0  0
   28.8260   15.7622   21.4729 C   0  0  0  0  0  0  0  0  0  0  0  0
   30.1087   15.4449   22.2026 C   0  0  0  0  0  0  0  0  0  0  0  0
   31.2642   16.2915   21.6797 C   0  0  0  0  0  0  0  0  0  0  0  0
   31.6933   15.9226   20.3038 N   0  0  0  0  0  0  0  0  0  0  0  0
   28.1384   15.5467   16.9884 O   0  0  0  0  0  0  0  0  0  0  0  0
  2  1  1  1  0  0  0
  2  3  1  0  0  0  0
  2  5  1  0  0  0  0
  3  4  1  0  0  0  0
  3 10  1  0  0  0  0
  5  6  1  0  0  0  0
  6  7  1  0  0  0  0
  7  8  1  0  0  0  0
  8  9  1  0  0  0  0
M  END
>  <CHROM.1>
-28.78564828,-60.70866075,-177.59982391,78.06824490,-69.90925319,28.72046895
15.31370565,19.71868629,2.34735405,-0.24052569,-1.65309640

>  <Name>
ligand

>  <RI>
0

>  <Rbt.Current_Directory>
/home/itssahil/PROJECTS/Mol_Feturizer/New_Systems/rnas/3DIY

>  <Rbt.Executable>
rbdock ($Id: //depot/dev/client3/rdock/2013.1/src/exe/rbdock.cxx#4 $)

>  <Rbt.Library>
libRbt.so (2013.1, Build901 2013/11/27)

>  <Rbt.Parameter_File>
/export/apps/rDock/src/rDock_2013.1_src/data/scripts/dock_solv.prm

>  <Rbt.Receptor>
prm/pocket_docking_5.prm

>  <SCORE>
-7.53354

>  <SCORE.INTER>
-8.85611

>  <SCORE.INTER.CONST>
1

>  <SCORE.INTER.POLAR>
0

>  <SCORE.INTER.ROT>
5

>  <SCORE.INTER.SOLV>
15.8329

>  <SCORE.INTER.VDW>
-18.115

>  <SCORE.INTER.norm>
-0.885611

>  <SCORE.INTRA>
1.32257

>  <SCORE.INTRA.DIHEDRAL>
0.709973

>  <SCORE.INTRA.DIHEDRAL.0>
2.56603

>  <SCORE.INTRA.POLAR>
0

>  <SCORE.INTRA.POLAR.0>
0

>  <SCORE.INTRA.REPUL>
0

>  <SCORE.INTRA.REPUL.0>
0

>  <SCORE.INTRA.SOLV>
1.46196

>  <SCORE.INTRA.SOLV.lig_0>
-32.0799

>  <SCORE.INTRA.VDW>
0.236604

>  <SCORE.INTRA.VDW.0>
-0.618248

>  <SCORE.INTRA.norm>
0.132257

>  <SCORE.RESTR>
0

>  <SCORE.RESTR.CAVITY>
0

>  <SCORE.RESTR.norm>
0

>  <SCORE.SYSTEM>
0

>  <SCORE.SYSTEM.CONST>
0

>  <SCORE.SYSTEM.DIHEDRAL>
0

>  <SCORE.SYSTEM.SOLV>
0

>  <SCORE.SYSTEM.norm>
0

>  <SCORE.heavy>
10

>  <SCORE.norm>
-0.753354

>  <RMSD>
5.389

$$$$
ligand
 OpenBabel11021811473D
libRbt.so/2013.1/901 2013/11/27
 10  9  0  0  0  0  0  0  0  0999 V2000
   27.7376   15.0257   18.4942 N   0  0  0  0  0  0  0  0  0  0  0  0
   28.0642   14.8805   19.9452 C   0  0  2  0  0  0  0  0  0  0  0  0
   26.8321   15.0457   20.8421 C   0  0  0  0  0  0  0  0  0  0  0  0
   25.6828   15.0940   20.3788 O   0  0  0  0  0  0  0  0  0  0  0  0
   29.1804   15.8462   20.3523 C   0  0  0  0  0  0  0  0  0  0  0  0
   29.8758   15.4466   21.6337 C   0  0  0  0  0  0  0  0  0  0  0  0
   30.9082   16.4650   22.0525 C   0  0  0  0  0  0  0  0  0  0  0  0
   32.0611   16.5228   21.0561 C   0  0  0  0  0  0  0  0  0  0  0  0
   33.0920   17.5383   21.4016 N   0  0  0  0  0  0  0  0  0  0  0  0
   26.9427   15.1001   22.0708 O   0  0  0  0  0  0  0  0  0  0  0  0
  2  1  1  6  0  0  0
  2  3  1  0  0  0  0
  2  5  1  0  0  0  0
  3  4  1  0  0  0  0
  3 10  1  0  0  0  0
  5  6  1  0  0  0  0
  6  7  1  0  0  0  0
  7  8  1  0  0  0  0
  8  9  1  0  0  0  0
M  END
>  <CHROM.1>
9.90451746,-160.37934683,-176.33362558,-66.12353194,178.45458038,28.99957671
15.69470103,20.84020753,-2.93552230,0.30738677,1.48005403

>  <Name>
ligand

>  <RI>
0

>  <Rbt.Current_Directory>
/home/itssahil/PROJECTS/Mol_Feturizer/New_Systems/rnas/3DIY

>  <Rbt.Executable>
rbdock ($Id: //depot/dev/client3/rdock/2013.1/src/exe/rbdock.cxx#4 $)

>  <Rbt.Library>
libRbt.so (2013.1, Build901 2013/11/27)

>  <Rbt.Parameter_File>
/export/apps/rDock/src/rDock_2013.1_src/data/scripts/dock_solv.prm

>  <Rbt.Receptor>
prm/blind_docking_100.prm

>  <SCORE>
-9.23606

>  <SCORE.INTER>
-9.71191

>  <SCORE.INTER.CONST>
1

>  <SCORE.INTER.POLAR>
0

>  <SCORE.INTER.ROT>
5

>  <SCORE.INTER.SOLV>
13.0002

>  <SCORE.INTER.VDW>
-17.7413

>  <SCORE.INTER.norm>
-0.971191

>  <SCORE.INTRA>
0.475845

>  <SCORE.INTRA.DIHEDRAL>
0.48944

>  <SCORE.INTRA.DIHEDRAL.0>
2.56603

>  <SCORE.INTRA.POLAR>
0

>  <SCORE.INTRA.POLAR.0>
0

>  <SCORE.INTRA.REPUL>
0

>  <SCORE.INTRA.REPUL.0>
0

>  <SCORE.INTRA.SOLV>
-1.30589

>  <SCORE.INTRA.SOLV.lig_0>
-32.0799

>  <SCORE.INTRA.VDW>
0.884069

>  <SCORE.INTRA.VDW.0>
-0.618248

>  <SCORE.INTRA.norm>
0.0475845

>  <SCORE.RESTR>
0

>  <SCORE.RESTR.CAVITY>
0

>  <SCORE.RESTR.norm>
0

>  <SCORE.SYSTEM>
0

>  <SCORE.SYSTEM.CONST>
0

>  <SCORE.SYSTEM.DIHEDRAL>
0

>  <SCORE.SYSTEM.SOLV>
0

>  <SCORE.SYSTEM.norm>
0

>  <SCORE.heavy>
10

>  <SCORE.norm>
-0.923606

>  <RMSD>
5.392

$$$$
ligand
 OpenBabel11021811473D
libRbt.so/2013.1/901 2013/11/27
 10  9  0  0  0  0  0  0  0  0999 V2000
   27.7699   15.0302   18.4964 N   0  0  0  0  0  0  0  0  0  0  0  0
   28.0831   14.9003   19.9517 C   0  0  2  0  0  0  0  0  0  0  0  0
   26.8344   15.0219   20.8326 C   0  0  0  0  0  0  0  0  0  0  0  0
   26.9039   15.0637   22.0701 O   0  0  0  0  0  0  0  0  0  0  0  0
   29.1576   15.9075   20.3704 C   0  0  0  0  0  0  0  0  0  0  0  0
   29.8133   15.5653   21.6889 C   0  0  0  0  0  0  0  0  0  0  0  0
   30.8227   16.6093   22.1007 C   0  0  0  0  0  0  0  0  0  0  0  0
   32.0235   16.6159   21.1608 C   0  0  0  0  0  0  0  0  0  0  0  0
   33.0374   17.6496   21.5027 N   0  0  0  0  0  0  0  0  0  0  0  0
   25.7100   15.1198   20.3317 O   0  0  0  0  0  0  0  0  0  0  0  0
  2  1  1  6  0  0  0
  2  3  1  0  0  0  0
  2  5  1  0  0  0  0
  3  4  1  0  0  0  0
  3 10  1  0  0  0  0
  5  6  1  0  0  0  0
  6  7  1  0  0  0  0
  7  8  1  0  0  0  0
  8  9  1  0  0  0  0
M  END
>  <CHROM.1>
-173.25434564,-162.63141588,-177.48643084,-67.50152881,178.67263754,28.97728671
15.74626046,20.86731811,-2.91132357,0.32663083,1.46878534

>  <Name>
ligand

>  <RI>
0

>  <Rbt.Current_Directory>
/home/itssahil/PROJECTS/Mol_Feturizer/New_Systems/rnas/3DIY

>  <Rbt.Executable>
rbdock ($Id: //depot/dev/client3/rdock/2013.1/src/exe/rbdock.cxx#4 $)

>  <Rbt.Library>
libRbt.so (2013.1, Build901 2013/11/27)

>  <Rbt.Parameter_File>
/export/apps/rDock/src/rDock_2013.1_src/data/scripts/dock_solv.prm

>  <Rbt.Receptor>
prm/pocket_docking_8.prm

>  <SCORE>
-9.15598

>  <SCORE.INTER>
-9.48315

>  <SCORE.INTER.CONST>
1

>  <SCORE.INTER.POLAR>
0

>  <SCORE.INTER.ROT>
5

>  <SCORE.INTER.SOLV>
12.8431

>  <SCORE.INTER.VDW>
-17.5365

>  <SCORE.INTER.norm>
-0.948315

>  <SCORE.INTRA>
0.327169

>  <SCORE.INTRA.DIHEDRAL>
0.311363

>  <SCORE.INTRA.DIHEDRAL.0>
2.56603

>  <SCORE.INTRA.POLAR>
0

>  <SCORE.INTRA.POLAR.0>
0

>  <SCORE.INTRA.REPUL>
0

>  <SCORE.INTRA.REPUL.0>
0

>  <SCORE.INTRA.SOLV>
-1.31195

>  <SCORE.INTRA.SOLV.lig_0>
-32.0799

>  <SCORE.INTRA.VDW>
0.827463

>  <SCORE.INTRA.VDW.0>
-0.618248

>  <SCORE.INTRA.norm>
0.0327169

>  <SCORE.RESTR>
0

>  <SCORE.RESTR.CAVITY>
0

>  <SCORE.RESTR.norm>
0

>  <SCORE.SYSTEM>
0

>  <SCORE.SYSTEM.CONST>
0

>  <SCORE.SYSTEM.DIHEDRAL>
0

>  <SCORE.SYSTEM.SOLV>
0

>  <SCORE.SYSTEM.norm>
0

>  <SCORE.heavy>
10

>  <SCORE.norm>
-0.915598

>  <RMSD>
5.395

$$$$
ligand
 OpenBabel11021811473D
libRbt.so/2013.1/901 2013/11/27
 10  9  0  0  0  0  0  0  0  0999 V2000
   27.7069   14.9483   18.5262 N   0  0  0  0  0  0  0  0  0  0  0  0
   28.0496   14.8220   19.9752 C   0  0  2  0  0  0  0  0  0  0  0  0
   26.8271   14.9971   20.8834 C   0  0  0  0  0  0  0  0  0  0  0  0
   25.6720   15.0278   20.4330 O   0  0  0  0  0  0  0  0  0  0  0  0
   29.1687   15.7943   20.3578 C   0  0  0  0  0  0  0  0  0  0  0  0
   29.8493   15.4367   21.6595 C   0  0  0  0  0  0  0  0  0  0  0  0
   30.8718   16.4721   22.0605 C   0  0  0  0  0  0  0  0  0  0  0  0
   32.0366   16.5062   21.0770 C   0  0  0  0  0  0  0  0  0  0  0  0
   33.0652   17.5273   21.4125 N   0  0  0  0  0  0  0  0  0  0  0  0
   26.9518   15.0775   22.1093 O   0  0  0  0  0  0  0  0  0  0  0  0
  2  1  1  6  0  0  0
  2  3  1  0  0  0  0
  2  5  1  0  0  0  0
  3  4  1  0  0  0  0
  3 10  1  0  0  0  0
  5  6  1  0  0  0  0
  6  7  1  0  0  0  0
  7  8  1  0  0  0  0
  8  9  1  0  0  0  0
M  END
>  <CHROM.1>
10.46170181,-162.21941705,-175.56287907,-66.08115582,179.03475378,28.98206142
15.65923788,20.86722364,-2.93232779,0.31314705,1.46130477

>  <Name>
ligand

>  <RI>
0

>  <Rbt.Current_Directory>
/home/itssahil/PROJECTS/Mol_Feturizer/New_Systems/rnas/3DIY

>  <Rbt.Executable>
rbdock ($Id: //depot/dev/client3/rdock/2013.1/src/exe/rbdock.cxx#4 $)

>  <Rbt.Library>
libRbt.so (2013.1, Build901 2013/11/27)

>  <Rbt.Parameter_File>
/export/apps/rDock/src/rDock_2013.1_src/data/scripts/dock_solv.prm

>  <Rbt.Receptor>
prm/pocket_docking_4.prm

>  <SCORE>
-9.14206

>  <SCORE.INTER>
-9.57984

>  <SCORE.INTER.CONST>
1

>  <SCORE.INTER.POLAR>
0

>  <SCORE.INTER.ROT>
5

>  <SCORE.INTER.SOLV>
13.0803

>  <SCORE.INTER.VDW>
-17.68

>  <SCORE.INTER.norm>
-0.957984

>  <SCORE.INTRA>
0.437779

>  <SCORE.INTRA.DIHEDRAL>
0.2818

>  <SCORE.INTRA.DIHEDRAL.0>
2.56603

>  <SCORE.INTRA.POLAR>
0

>  <SCORE.INTRA.POLAR.0>
0

>  <SCORE.INTRA.REPUL>
0

>  <SCORE.INTRA.REPUL.0>
0

>  <SCORE.INTRA.SOLV>
-1.31381

>  <SCORE.INTRA.SOLV.lig_0>
-32.0799

>  <SCORE.INTRA.VDW>
0.953785

>  <SCORE.INTRA.VDW.0>
-0.618248

>  <SCORE.INTRA.norm>
0.0437779

>  <SCORE.RESTR>
0

>  <SCORE.RESTR.CAVITY>
0

>  <SCORE.RESTR.norm>
0

>  <SCORE.SYSTEM>
0

>  <SCORE.SYSTEM.CONST>
0

>  <SCORE.SYSTEM.DIHEDRAL>
0

>  <SCORE.SYSTEM.SOLV>
0

>  <SCORE.SYSTEM.norm>
0

>  <SCORE.heavy>
10

>  <SCORE.norm>
-0.914206

>  <RMSD>
5.397

$$$$
ligand
 OpenBabel11021811473D
libRbt.so/2013.1/901 2013/11/27
 10  9  0  0  0  0  0  0  0  0999 V2000
   26.2784   15.0702   20.0633 N   0  0  0  0  0  0  0  0  0  0  0  0
   27.5149   15.4602   19.3203 C   0  0  2  0  0  0  0  0  0  0  0  0
   27.5527   14.8809   17.9016 C   0  0  0  0  0  0  0  0  0  0  0  0
   26.9711   13.8262   17.6059 O   0  0  0  0  0  0  0  0  0  0  0  0
   28.7694   15.0767   20.1099 C   0  0  0  0  0  0  0  0  0  0  0  0
   28.8321   15.7189   21.4771 C   0  0  0  0  0  0  0  0  0  0  0  0
   30.1295   15.4083   22.1833 C   0  0  0  0  0  0  0  0  0  0  0  0
   31.2563   16.3079   21.6869 C   0  0  0  0  0  0  0  0  0  0  0  0
   31.5740   16.1185   20.2458 N   0  0  0  0  0  0  0  0  0  0  0  0
   28.1394   15.4709   16.9892 O   0  0  0  0  0  0  0  0  0  0  0  0
  2  1  1  1  0  0  0
  2  3  1  0  0  0  0
  2  5  1  0  0  0  0
  3  4  1  0  0  0  0
  3 10  1  0  0  0  0
  5  6  1  0  0  0  0
  6  7  1  0  0  0  0
  7  8  1  0  0  0  0
  8  9  1  0  0  0  0
M  END
>  <CHROM.1>
-27.63075618,-58.81093916,-175.48128915,80.19404434,-63.07104359,28.69455788
15.32021433,19.71906548,2.35545686,-0.26754181,-1.64183786

>  <Name>
ligand

>  <RI>
0

>  <Rbt.Current_Directory>
/home/itssahil/PROJECTS/Mol_Feturizer/New_Systems/rnas/3DIY

>  <Rbt.Executable>
rbdock ($Id: //depot/dev/client3/rdock/2013.1/src/exe/rbdock.cxx#4 $)

>  <Rbt.Library>
libRbt.so (2013.1, Build901 2013/11/27)

>  <Rbt.Parameter_File>
/export/apps/rDock/src/rDock_2013.1_src/data/scripts/dock_solv.prm

>  <Rbt.Receptor>
prm/pocket_docking_7.prm

>  <SCORE>
-7.41786

>  <SCORE.INTER>
-8.90561

>  <SCORE.INTER.CONST>
1

>  <SCORE.INTER.POLAR>
0

>  <SCORE.INTER.ROT>
5

>  <SCORE.INTER.SOLV>
15.4511

>  <SCORE.INTER.VDW>
-18.0208

>  <SCORE.INTER.norm>
-0.890561

>  <SCORE.INTRA>
1.48775

>  <SCORE.INTRA.DIHEDRAL>
0.728326

>  <SCORE.INTRA.DIHEDRAL.0>
2.56603

>  <SCORE.INTRA.POLAR>
0

>  <SCORE.INTRA.POLAR.0>
0

>  <SCORE.INTRA.REPUL>
0

>  <SCORE.INTRA.REPUL.0>
0

>  <SCORE.INTRA.SOLV>
1.63589

>  <SCORE.INTRA.SOLV.lig_0>
-32.0799

>  <SCORE.INTRA.VDW>
0.305645

>  <SCORE.INTRA.VDW.0>
-0.618248

>  <SCORE.INTRA.norm>
0.148775

>  <SCORE.RESTR>
0

>  <SCORE.RESTR.CAVITY>
0

>  <SCORE.RESTR.norm>
0

>  <SCORE.SYSTEM>
0

>  <SCORE.SYSTEM.CONST>
0

>  <SCORE.SYSTEM.DIHEDRAL>
0

>  <SCORE.SYSTEM.SOLV>
0

>  <SCORE.SYSTEM.norm>
0

>  <SCORE.heavy>
10

>  <SCORE.norm>
-0.741786

>  <RMSD>
5.398

$$$$
ligand
 OpenBabel11021811473D
libRbt.so/2013.1/901 2013/11/27
 10  9  0  0  0  0  0  0  0  0999 V2000
   27.6814   15.1174   18.5003 N   0  0  0  0  0  0  0  0  0  0  0  0
   28.0449   14.9091   19.9348 C   0  0  2  0  0  0  0  0  0  0  0  0
   26.8305   15.0015   20.8658 C   0  0  0  0  0  0  0  0  0  0  0  0
   26.9510   15.1070   22.0956 O   0  0  0  0  0  0  0  0  0  0  0  0
   29.1483   15.8798   20.3643 C   0  0  0  0  0  0  0  0  0  0  0  0
   29.8629   15.4490   21.6249 C   0  0  0  0  0  0  0  0  0  0  0  0
   30.8807   16.4712   22.0696 C   0  0  0  0  0  0  0  0  0  0  0  0
   32.0418   16.5574   21.0848 C   0  0  0  0  0  0  0  0  0  0  0  0
   33.0578   17.5791   21.4552 N   0  0  0  0  0  0  0  0  0  0  0  0
   25.6815   15.0104   20.4134 O   0  0  0  0  0  0  0  0  0  0  0  0
  2  1  1  6  0  0  0
  2  3  1  0  0  0  0
  2  5  1  0  0  0  0
  3  4  1  0  0  0  0
  3 10  1  0  0  0  0
  5  6  1  0  0  0  0
  6  7  1  0  0  0  0
  7  8  1  0  0  0  0
  8  9  1  0  0  0  0
M  END
>  <CHROM.1>
-166.25928381,-161.57128765,-176.26602455,-67.66379412,178.37899476,28.98036536
15.70566087,20.85878528,-2.94000007,0.32161785,1.50858062

>  <Name>
ligand

>  <RI>
0

>  <Rbt.Current_Directory>
/home/itssahil/PROJECTS/Mol_Feturizer/New_Systems/rnas/3DIY

>  <Rbt.Executable>
rbdock ($Id: //depot/dev/client3/rdock/2013.1/src/exe/rbdock.cxx#4 $)

>  <Rbt.Library>
libRbt.so (2013.1, Build901 2013/11/27)

>  <Rbt.Parameter_File>
/export/apps/rDock/src/rDock_2013.1_src/data/scripts/dock_solv.prm

>  <Rbt.Receptor>
prm/pocket_docking_8.prm

>  <SCORE>
-9.09113

>  <SCORE.INTER>
-9.58135

>  <SCORE.INTER.CONST>
1

>  <SCORE.INTER.POLAR>
0

>  <SCORE.INTER.ROT>
5

>  <SCORE.INTER.SOLV>
13.048

>  <SCORE.INTER.VDW>
-17.6702

>  <SCORE.INTER.norm>
-0.958135

>  <SCORE.INTRA>
0.490214

>  <SCORE.INTRA.DIHEDRAL>
0.50614

>  <SCORE.INTRA.DIHEDRAL.0>
2.56603

>  <SCORE.INTRA.POLAR>
0

>  <SCORE.INTRA.POLAR.0>
0

>  <SCORE.INTRA.REPUL>
0

>  <SCORE.INTRA.REPUL.0>
0

>  <SCORE.INTRA.SOLV>
-1.30938

>  <SCORE.INTRA.SOLV.lig_0>
-32.0799

>  <SCORE.INTRA.VDW>
0.891836

>  <SCORE.INTRA.VDW.0>
-0.618248

>  <SCORE.INTRA.norm>
0.0490214

>  <SCORE.RESTR>
0

>  <SCORE.RESTR.CAVITY>
0

>  <SCORE.RESTR.norm>
0

>  <SCORE.SYSTEM>
0

>  <SCORE.SYSTEM.CONST>
0

>  <SCORE.SYSTEM.DIHEDRAL>
0

>  <SCORE.SYSTEM.SOLV>
0

>  <SCORE.SYSTEM.norm>
0

>  <SCORE.heavy>
10

>  <SCORE.norm>
-0.909113

>  <RMSD>
5.398

$$$$
ligand
 OpenBabel11021811473D
libRbt.so/2013.1/901 2013/11/27
 10  9  0  0  0  0  0  0  0  0999 V2000
   26.3063   15.0206   20.0102 N   0  0  0  0  0  0  0  0  0  0  0  0
   27.5224   15.4719   19.2683 C   0  0  2  0  0  0  0  0  0  0  0  0
   27.5794   14.9125   17.8422 C   0  0  0  0  0  0  0  0  0  0  0  0
   27.0405   13.8387   17.5347 O   0  0  0  0  0  0  0  0  0  0  0  0
   28.7950   15.1322   20.0489 C   0  0  0  0  0  0  0  0  0  0  0  0
   28.8204   15.7315   21.4365 C   0  0  0  0  0  0  0  0  0  0  0  0
   30.0806   15.3654   22.1824 C   0  0  0  0  0  0  0  0  0  0  0  0
   31.2582   16.2211   21.7281 C   0  0  0  0  0  0  0  0  0  0  0  0
   31.6835   15.9482   20.3289 N   0  0  0  0  0  0  0  0  0  0  0  0
   28.1387   15.5375   16.9358 O   0  0  0  0  0  0  0  0  0  0  0  0
  2  1  1  1  0  0  0
  2  3  1  0  0  0  0
  2  5  1  0  0  0  0
  3  4  1  0  0  0  0
  3 10  1  0  0  0  0
  5  6  1  0  0  0  0
  6  7  1  0  0  0  0
  7  8  1  0  0  0  0
  8  9  1  0  0  0  0
M  END
>  <CHROM.1>
-27.53873410,-57.40266896,179.40797178,78.52199561,-67.63554544,28.71564266
15.30498291,19.69197784,2.33929784,-0.23936569,-1.63970765

>  <Name>
ligand

>  <RI>
0

>  <Rbt.Current_Directory>
/home/itssahil/PROJECTS/Mol_Feturizer/New_Systems/rnas/3DIY

>  <Rbt.Executable>
rbdock ($Id: //depot/dev/client3/rdock/2013.1/src/exe/rbdock.cxx#4 $)

>  <Rbt.Library>
libRbt.so (2013.1, Build901 2013/11/27)

>  <Rbt.Parameter_File>
/export/apps/rDock/src/rDock_2013.1_src/data/scripts/dock_solv.prm

>  <Rbt.Receptor>
prm/pocket_docking_8.prm

>  <SCORE>
-7.50441

>  <SCORE.INTER>
-8.91059

>  <SCORE.INTER.CONST>
1

>  <SCORE.INTER.POLAR>
0

>  <SCORE.INTER.ROT>
5

>  <SCORE.INTER.SOLV>
15.6774

>  <SCORE.INTER.VDW>
-18.0995

>  <SCORE.INTER.norm>
-0.891059

>  <SCORE.INTRA>
1.40618

>  <SCORE.INTRA.DIHEDRAL>
0.615966

>  <SCORE.INTRA.DIHEDRAL.0>
2.56603

>  <SCORE.INTRA.POLAR>
0

>  <SCORE.INTRA.POLAR.0>
0

>  <SCORE.INTRA.REPUL>
0

>  <SCORE.INTRA.REPUL.0>
0

>  <SCORE.INTRA.SOLV>
1.54846

>  <SCORE.INTRA.SOLV.lig_0>
-32.0799

>  <SCORE.INTRA.VDW>
0.323963

>  <SCORE.INTRA.VDW.0>
-0.618248

>  <SCORE.INTRA.norm>
0.140618

>  <SCORE.RESTR>
0

>  <SCORE.RESTR.CAVITY>
0

>  <SCORE.RESTR.norm>
0

>  <SCORE.SYSTEM>
0

>  <SCORE.SYSTEM.CONST>
0

>  <SCORE.SYSTEM.DIHEDRAL>
0

>  <SCORE.SYSTEM.SOLV>
0

>  <SCORE.SYSTEM.norm>
0

>  <SCORE.heavy>
10

>  <SCORE.norm>
-0.750441

>  <RMSD>
5.398

$$$$
ligand
 OpenBabel11021811473D
libRbt.so/2013.1/901 2013/11/27
 10  9  0  0  0  0  0  0  0  0999 V2000
   27.1362   13.7278   18.4964 N   0  0  0  0  0  0  0  0  0  0  0  0
   27.6815   14.6789   19.5117 C   0  0  2  0  0  0  0  0  0  0  0  0
   26.7180   14.9007   20.6832 C   0  0  0  0  0  0  0  0  0  0  0  0
   27.1195   15.0348   21.8489 O   0  0  0  0  0  0  0  0  0  0  0  0
   28.0760   16.0065   18.8589 C   0  0  0  0  0  0  0  0  0  0  0  0
   28.7131   16.9792   19.8250 C   0  0  0  0  0  0  0  0  0  0  0  0
   30.0653   16.4994   20.2937 C   0  0  0  0  0  0  0  0  0  0  0  0
   30.6739   17.4667   21.3032 C   0  0  0  0  0  0  0  0  0  0  0  0
   32.0380   17.0757   21.7501 N   0  0  0  0  0  0  0  0  0  0  0  0
   25.5005   14.9904   20.4970 O   0  0  0  0  0  0  0  0  0  0  0  0
  2  1  1  6  0  0  0
  2  3  1  0  0  0  0
  2  5  1  0  0  0  0
  3  4  1  0  0  0  0
  3 10  1  0  0  0  0
  5  6  1  0  0  0  0
  6  7  1  0  0  0  0
  7  8  1  0  0  0  0
  8  9  1  0  0  0  0
M  END
>  <CHROM.1>
142.67412693,-176.49560034,67.71958433,-178.05924281,-177.22430231,28.34275519
15.73535742,20.33137199,-2.80993850,0.45326384,1.36197882

>  <Name>
ligand

>  <RI>
0

>  <Rbt.Current_Directory>
/home/itssahil/PROJECTS/Mol_Feturizer/New_Systems/rnas/3DIY

>  <Rbt.Executable>
rbdock ($Id: //depot/dev/client3/rdock/2013.1/src/exe/rbdock.cxx#4 $)

>  <Rbt.Library>
libRbt.so (2013.1, Build901 2013/11/27)

>  <Rbt.Parameter_File>
/export/apps/rDock/src/rDock_2013.1_src/data/scripts/dock_solv.prm

>  <Rbt.Receptor>
prm/pocket_docking_3.prm

>  <SCORE>
-10.3163

>  <SCORE.INTER>
-9.24104

>  <SCORE.INTER.CONST>
1

>  <SCORE.INTER.POLAR>
0

>  <SCORE.INTER.ROT>
5

>  <SCORE.INTER.SOLV>
15.0136

>  <SCORE.INTER.VDW>
-18.0986

>  <SCORE.INTER.norm>
-0.924104

>  <SCORE.INTRA>
-1.07527

>  <SCORE.INTRA.DIHEDRAL>
-0.762208

>  <SCORE.INTRA.DIHEDRAL.0>
2.56603

>  <SCORE.INTRA.POLAR>
0

>  <SCORE.INTRA.POLAR.0>
0

>  <SCORE.INTRA.REPUL>
0

>  <SCORE.INTRA.REPUL.0>
0

>  <SCORE.INTRA.SOLV>
-1.3581

>  <SCORE.INTRA.SOLV.lig_0>
-32.0799

>  <SCORE.INTRA.VDW>
-0.0151108

>  <SCORE.INTRA.VDW.0>
-0.618248

>  <SCORE.INTRA.norm>
-0.107527

>  <SCORE.RESTR>
0

>  <SCORE.RESTR.CAVITY>
0

>  <SCORE.RESTR.norm>
0

>  <SCORE.SYSTEM>
0

>  <SCORE.SYSTEM.CONST>
0

>  <SCORE.SYSTEM.DIHEDRAL>
0

>  <SCORE.SYSTEM.SOLV>
0

>  <SCORE.SYSTEM.norm>
0

>  <SCORE.heavy>
10

>  <SCORE.norm>
-1.03163

>  <RMSD>
5.399

$$$$
ligand
 OpenBabel11021811473D
libRbt.so/2013.1/901 2013/11/27
 10  9  0  0  0  0  0  0  0  0999 V2000
   28.7281   14.6770   18.9284 N   0  0  0  0  0  0  0  0  0  0  0  0
   28.3135   15.2724   20.2347 C   0  0  2  0  0  0  0  0  0  0  0  0
   26.8052   15.1515   20.4809 C   0  0  0  0  0  0  0  0  0  0  0  0
   25.9717   15.4203   19.6028 O   0  0  0  0  0  0  0  0  0  0  0  0
   28.7784   16.7272   20.3431 C   0  0  0  0  0  0  0  0  0  0  0  0
   30.2824   16.8691   20.4005 C   0  0  0  0  0  0  0  0  0  0  0  0
   30.8490   16.3171   21.6860 C   0  0  0  0  0  0  0  0  0  0  0  0
   32.3433   16.6004   21.7962 C   0  0  0  0  0  0  0  0  0  0  0  0
   32.6635   18.0470   21.9308 N   0  0  0  0  0  0  0  0  0  0  0  0
   26.3679   14.7433   21.5612 O   0  0  0  0  0  0  0  0  0  0  0  0
  2  1  1  6  0  0  0
  2  3  1  0  0  0  0
  2  5  1  0  0  0  0
  3  4  1  0  0  0  0
  3 10  1  0  0  0  0
  5  6  1  0  0  0  0
  6  7  1  0  0  0  0
  7  8  1  0  0  0  0
  8  9  1  0  0  0  0
M  END
>  <CHROM.1>
-45.54361364,-66.25550146,-68.00888371,-173.92508482,66.46031039,29.06625447
15.97419175,20.69970425,-2.84217188,0.33000574,1.39818547

>  <Name>
ligand

>  <RI>
0

>  <Rbt.Current_Directory>
/home/itssahil/PROJECTS/Mol_Feturizer/New_Systems/rnas/3DIY

>  <Rbt.Executable>
rbdock ($Id: //depot/dev/client3/rdock/2013.1/src/exe/rbdock.cxx#4 $)

>  <Rbt.Library>
libRbt.so (2013.1, Build901 2013/11/27)

>  <Rbt.Parameter_File>
/export/apps/rDock/src/rDock_2013.1_src/data/scripts/dock_solv.prm

>  <Rbt.Receptor>
prm/pocket_docking_4.prm

>  <SCORE>
-8.37682

>  <SCORE.INTER>
-8.55893

>  <SCORE.INTER.CONST>
1

>  <SCORE.INTER.POLAR>
0

>  <SCORE.INTER.ROT>
5

>  <SCORE.INTER.SOLV>
11.8877

>  <SCORE.INTER.VDW>
-16.6018

>  <SCORE.INTER.norm>
-0.855893

>  <SCORE.INTRA>
0.182107

>  <SCORE.INTRA.DIHEDRAL>
-0.236582

>  <SCORE.INTRA.DIHEDRAL.0>
2.56603

>  <SCORE.INTRA.POLAR>
0

>  <SCORE.INTRA.POLAR.0>
0

>  <SCORE.INTRA.REPUL>
0

>  <SCORE.INTRA.REPUL.0>
0

>  <SCORE.INTRA.SOLV>
0.59814

>  <SCORE.INTRA.SOLV.lig_0>
-32.0799

>  <SCORE.INTRA.VDW>
0.00132814

>  <SCORE.INTRA.VDW.0>
-0.618248

>  <SCORE.INTRA.norm>
0.0182107

>  <SCORE.RESTR>
0

>  <SCORE.RESTR.CAVITY>
0

>  <SCORE.RESTR.norm>
0

>  <SCORE.SYSTEM>
0

>  <SCORE.SYSTEM.CONST>
0

>  <SCORE.SYSTEM.DIHEDRAL>
0

>  <SCORE.SYSTEM.SOLV>
0

>  <SCORE.SYSTEM.norm>
0

>  <SCORE.heavy>
10

>  <SCORE.norm>
-0.837682

>  <RMSD>
5.399

$$$$
ligand
 OpenBabel11021811473D
libRbt.so/2013.1/901 2013/11/27
 10  9  0  0  0  0  0  0  0  0999 V2000
   25.6521   15.2325   20.2541 N   0  0  0  0  0  0  0  0  0  0  0  0
   27.1438   15.3081   20.2091 C   0  0  2  0  0  0  0  0  0  0  0  0
   27.7214   14.7169   18.9180 C   0  0  0  0  0  0  0  0  0  0  0  0
   28.7437   15.1739   18.3850 O   0  0  0  0  0  0  0  0  0  0  0  0
   27.7609   14.6490   21.4456 C   0  0  0  0  0  0  0  0  0  0  0  0
   29.2697   14.7386   21.4779 C   0  0  0  0  0  0  0  0  0  0  0  0
   29.7425   16.1540   21.7054 C   0  0  0  0  0  0  0  0  0  0  0  0
   31.2638   16.2207   21.7852 C   0  0  0  0  0  0  0  0  0  0  0  0
   31.7855   17.5967   22.0041 N   0  0  0  0  0  0  0  0  0  0  0  0
   27.2025   13.7333   18.3812 O   0  0  0  0  0  0  0  0  0  0  0  0
  2  1  1  6  0  0  0
  2  3  1  0  0  0  0
  2  5  1  0  0  0  0
  3  4  1  0  0  0  0
  3 10  1  0  0  0  0
  5  6  1  0  0  0  0
  6  7  1  0  0  0  0
  7  8  1  0  0  0  0
  8  9  1  0  0  0  0
M  END
>  <CHROM.1>
146.31645000,-177.97711453,69.27197902,177.97520679,179.79222317,28.63379305
15.33633972,20.42213800,2.51449489,-0.30902872,-1.84198188

>  <Name>
ligand

>  <RI>
0

>  <Rbt.Current_Directory>
/home/itssahil/PROJECTS/Mol_Feturizer/New_Systems/rnas/3DIY

>  <Rbt.Executable>
rbdock ($Id: //depot/dev/client3/rdock/2013.1/src/exe/rbdock.cxx#4 $)

>  <Rbt.Library>
libRbt.so (2013.1, Build901 2013/11/27)

>  <Rbt.Parameter_File>
/export/apps/rDock/src/rDock_2013.1_src/data/scripts/dock_solv.prm

>  <Rbt.Receptor>
prm/blind_docking_80.prm

>  <SCORE>
-8.40978

>  <SCORE.INTER>
-7.38143

>  <SCORE.INTER.CONST>
1

>  <SCORE.INTER.POLAR>
0

>  <SCORE.INTER.ROT>
5

>  <SCORE.INTER.SOLV>
17.4583

>  <SCORE.INTER.VDW>
-17.6737

>  <SCORE.INTER.norm>
-0.738143

>  <SCORE.INTRA>
-1.02834

>  <SCORE.INTRA.DIHEDRAL>
-0.715586

>  <SCORE.INTRA.DIHEDRAL.0>
2.56603

>  <SCORE.INTRA.POLAR>
0

>  <SCORE.INTRA.POLAR.0>
0

>  <SCORE.INTRA.REPUL>
0

>  <SCORE.INTRA.REPUL.0>
0

>  <SCORE.INTRA.SOLV>
-1.37542

>  <SCORE.INTRA.SOLV.lig_0>
-32.0799

>  <SCORE.INTRA.VDW>
0.0171578

>  <SCORE.INTRA.VDW.0>
-0.618248

>  <SCORE.INTRA.norm>
-0.102834

>  <SCORE.RESTR>
0

>  <SCORE.RESTR.CAVITY>
0

>  <SCORE.RESTR.norm>
0

>  <SCORE.SYSTEM>
0

>  <SCORE.SYSTEM.CONST>
0

>  <SCORE.SYSTEM.DIHEDRAL>
0

>  <SCORE.SYSTEM.SOLV>
0

>  <SCORE.SYSTEM.norm>
0

>  <SCORE.heavy>
10

>  <SCORE.norm>
-0.840978

>  <RMSD>
5.401

$$$$
ligand
 OpenBabel11021811473D
libRbt.so/2013.1/901 2013/11/27
 10  9  0  0  0  0  0  0  0  0999 V2000
   27.6847   15.1871   18.5360 N   0  0  0  0  0  0  0  0  0  0  0  0
   28.0392   14.9776   19.9724 C   0  0  2  0  0  0  0  0  0  0  0  0
   26.8120   15.0182   20.8903 C   0  0  0  0  0  0  0  0  0  0  0  0
   26.9153   15.0990   22.1235 O   0  0  0  0  0  0  0  0  0  0  0  0
   29.1031   15.9819   20.4238 C   0  0  0  0  0  0  0  0  0  0  0  0
   29.7857   15.5872   21.7136 C   0  0  0  0  0  0  0  0  0  0  0  0
   30.8448   16.5848   22.1156 C   0  0  0  0  0  0  0  0  0  0  0  0
   32.0061   16.5841   21.1273 C   0  0  0  0  0  0  0  0  0  0  0  0
   33.0640   17.5770   21.4561 N   0  0  0  0  0  0  0  0  0  0  0  0
   25.6686   15.0083   20.4241 O   0  0  0  0  0  0  0  0  0  0  0  0
  2  1  1  6  0  0  0
  2  3  1  0  0  0  0
  2  5  1  0  0  0  0
  3  4  1  0  0  0  0
  3 10  1  0  0  0  0
  5  6  1  0  0  0  0
  6  7  1  0  0  0  0
  7  8  1  0  0  0  0
  8  9  1  0  0  0  0
M  END
>  <CHROM.1>
-167.17534002,-163.51893649,178.94748447,-66.64283682,178.45621130,28.95442135
15.75676605,20.89586672,-2.94440340,0.32785873,1.51906930

>  <Name>
ligand

>  <RI>
0

>  <Rbt.Current_Directory>
/home/itssahil/PROJECTS/Mol_Feturizer/New_Systems/rnas/3DIY

>  <Rbt.Executable>
rbdock ($Id: //depot/dev/client3/rdock/2013.1/src/exe/rbdock.cxx#4 $)

>  <Rbt.Library>
libRbt.so (2013.1, Build901 2013/11/27)

>  <Rbt.Parameter_File>
/export/apps/rDock/src/rDock_2013.1_src/data/scripts/dock_solv.prm

>  <Rbt.Receptor>
prm/blind_docking_60.prm

>  <SCORE>
-9.15781

>  <SCORE.INTER>
-9.58144

>  <SCORE.INTER.CONST>
1

>  <SCORE.INTER.POLAR>
0

>  <SCORE.INTER.ROT>
5

>  <SCORE.INTER.SOLV>
12.8946

>  <SCORE.INTER.VDW>
-17.6192

>  <SCORE.INTER.norm>
-0.958144

>  <SCORE.INTRA>
0.423622

>  <SCORE.INTRA.DIHEDRAL>
0.162991

>  <SCORE.INTRA.DIHEDRAL.0>
2.56603

>  <SCORE.INTRA.POLAR>
0

>  <SCORE.INTRA.POLAR.0>
0

>  <SCORE.INTRA.REPUL>
0

>  <SCORE.INTRA.REPUL.0>
0

>  <SCORE.INTRA.SOLV>
-1.30629

>  <SCORE.INTRA.SOLV.lig_0>
-32.0799

>  <SCORE.INTRA.VDW>
0.995272

>  <SCORE.INTRA.VDW.0>
-0.618248

>  <SCORE.INTRA.norm>
0.0423622

>  <SCORE.RESTR>
0

>  <SCORE.RESTR.CAVITY>
0

>  <SCORE.RESTR.norm>
0

>  <SCORE.SYSTEM>
0

>  <SCORE.SYSTEM.CONST>
0

>  <SCORE.SYSTEM.DIHEDRAL>
0

>  <SCORE.SYSTEM.SOLV>
0

>  <SCORE.SYSTEM.norm>
0

>  <SCORE.heavy>
10

>  <SCORE.norm>
-0.915781

>  <RMSD>
5.402

$$$$
ligand
 OpenBabel11021811473D
libRbt.so/2013.1/901 2013/11/27
 10  9  0  0  0  0  0  0  0  0999 V2000
   26.9150   14.5347   21.5757 N   0  0  0  0  0  0  0  0  0  0  0  0
   27.7568   15.6499   21.0458 C   0  0  2  0  0  0  0  0  0  0  0  0
   27.7586   15.7053   19.5139 C   0  0  0  0  0  0  0  0  0  0  0  0
   27.0031   14.9993   18.8292 O   0  0  0  0  0  0  0  0  0  0  0  0
   29.1819   15.5682   21.5997 C   0  0  0  0  0  0  0  0  0  0  0  0
   30.0120   16.7935   21.2911 C   0  0  0  0  0  0  0  0  0  0  0  0
   31.4394   16.6351   21.7557 C   0  0  0  0  0  0  0  0  0  0  0  0
   32.2420   17.9091   21.5144 C   0  0  0  0  0  0  0  0  0  0  0  0
   33.6898   17.7645   21.8247 N   0  0  0  0  0  0  0  0  0  0  0  0
   28.4945   16.4893   18.9067 O   0  0  0  0  0  0  0  0  0  0  0  0
  2  1  1  6  0  0  0
  2  3  1  0  0  0  0
  2  5  1  0  0  0  0
  3  4  1  0  0  0  0
  3 10  1  0  0  0  0
  5  6  1  0  0  0  0
  6  7  1  0  0  0  0
  7  8  1  0  0  0  0
  8  9  1  0  0  0  0
M  END
>  <CHROM.1>
8.48129547,-170.15420635,-175.52713971,-176.55272336,-174.09282664,29.43777491
16.20313855,20.74812471,2.97074903,-0.47889987,-1.26311045

>  <Name>
ligand

>  <RI>
0

>  <Rbt.Current_Directory>
/home/itssahil/PROJECTS/Mol_Feturizer/New_Systems/rnas/3DIY

>  <Rbt.Executable>
rbdock ($Id: //depot/dev/client3/rdock/2013.1/src/exe/rbdock.cxx#4 $)

>  <Rbt.Library>
libRbt.so (2013.1, Build901 2013/11/27)

>  <Rbt.Parameter_File>
/export/apps/rDock/src/rDock_2013.1_src/data/scripts/dock_solv.prm

>  <Rbt.Receptor>
prm/pocket_docking_2.prm

>  <SCORE>
-5.36868

>  <SCORE.INTER>
-4.79125

>  <SCORE.INTER.CONST>
1

>  <SCORE.INTER.POLAR>
0

>  <SCORE.INTER.ROT>
5

>  <SCORE.INTER.SOLV>
18.5515

>  <SCORE.INTER.VDW>
-16.3113

>  <SCORE.INTER.norm>
-0.479125

>  <SCORE.INTRA>
-0.580674

>  <SCORE.INTRA.DIHEDRAL>
-0.444651

>  <SCORE.INTRA.DIHEDRAL.0>
2.56603

>  <SCORE.INTRA.POLAR>
0

>  <SCORE.INTRA.POLAR.0>
0

>  <SCORE.INTRA.REPUL>
0

>  <SCORE.INTRA.REPUL.0>
0

>  <SCORE.INTRA.SOLV>
-1.5867

>  <SCORE.INTRA.SOLV.lig_0>
-32.0799

>  <SCORE.INTRA.VDW>
0.435002

>  <SCORE.INTRA.VDW.0>
-0.618248

>  <SCORE.INTRA.norm>
-0.0580674

>  <SCORE.RESTR>
0.0032448

>  <SCORE.RESTR.CAVITY>
0.0032448

>  <SCORE.RESTR.norm>
0.00032448

>  <SCORE.SYSTEM>
0

>  <SCORE.SYSTEM.CONST>
0

>  <SCORE.SYSTEM.DIHEDRAL>
0

>  <SCORE.SYSTEM.SOLV>
0

>  <SCORE.SYSTEM.norm>
0

>  <SCORE.heavy>
10

>  <SCORE.norm>
-0.536868

>  <RMSD>
5.403

$$$$
ligand
 OpenBabel11021811473D
libRbt.so/2013.1/901 2013/11/27
 10  9  0  0  0  0  0  0  0  0999 V2000
   28.6498   14.6506   18.9175 N   0  0  0  0  0  0  0  0  0  0  0  0
   28.2711   15.2441   20.2356 C   0  0  2  0  0  0  0  0  0  0  0  0
   26.7700   15.1241   20.5221 C   0  0  0  0  0  0  0  0  0  0  0  0
   26.3378   14.7718   21.6299 O   0  0  0  0  0  0  0  0  0  0  0  0
   28.7402   16.6982   20.3340 C   0  0  0  0  0  0  0  0  0  0  0  0
   30.2451   16.8372   20.3742 C   0  0  0  0  0  0  0  0  0  0  0  0
   30.8266   16.2706   21.6466 C   0  0  0  0  0  0  0  0  0  0  0  0
   32.3131   16.5903   21.7635 C   0  0  0  0  0  0  0  0  0  0  0  0
   32.5964   18.0432   21.9118 N   0  0  0  0  0  0  0  0  0  0  0  0
   25.9332   15.4125   19.6611 O   0  0  0  0  0  0  0  0  0  0  0  0
  2  1  1  6  0  0  0
  2  3  1  0  0  0  0
  2  5  1  0  0  0  0
  3  4  1  0  0  0  0
  3 10  1  0  0  0  0
  5  6  1  0  0  0  0
  6  7  1  0  0  0  0
  7  8  1  0  0  0  0
  8  9  1  0  0  0  0
M  END
>  <CHROM.1>
135.70970117,-67.21178386,-67.20619336,-172.03992817,65.61997095,29.02442047
15.95689659,20.70403761,-2.84634977,0.32444187,1.37661203

>  <Name>
ligand

>  <RI>
0

>  <Rbt.Current_Directory>
/home/itssahil/PROJECTS/Mol_Feturizer/New_Systems/rnas/3DIY

>  <Rbt.Executable>
rbdock ($Id: //depot/dev/client3/rdock/2013.1/src/exe/rbdock.cxx#4 $)

>  <Rbt.Library>
libRbt.so (2013.1, Build901 2013/11/27)

>  <Rbt.Parameter_File>
/export/apps/rDock/src/rDock_2013.1_src/data/scripts/dock_solv.prm

>  <Rbt.Receptor>
prm/pocket_docking_4.prm

>  <SCORE>
-8.47096

>  <SCORE.INTER>
-8.67501

>  <SCORE.INTER.CONST>
1

>  <SCORE.INTER.POLAR>
0

>  <SCORE.INTER.ROT>
5

>  <SCORE.INTER.SOLV>
11.7804

>  <SCORE.INTER.VDW>
-16.6435

>  <SCORE.INTER.norm>
-0.867501

>  <SCORE.INTRA>
0.204054

>  <SCORE.INTRA.DIHEDRAL>
-0.258606

>  <SCORE.INTRA.DIHEDRAL.0>
2.56603

>  <SCORE.INTRA.POLAR>
0

>  <SCORE.INTRA.POLAR.0>
0

>  <SCORE.INTRA.REPUL>
0

>  <SCORE.INTRA.REPUL.0>
0

>  <SCORE.INTRA.SOLV>
0.603505

>  <SCORE.INTRA.SOLV.lig_0>
-32.0799

>  <SCORE.INTRA.VDW>
0.0316038

>  <SCORE.INTRA.VDW.0>
-0.618248

>  <SCORE.INTRA.norm>
0.0204054

>  <SCORE.RESTR>
0

>  <SCORE.RESTR.CAVITY>
0

>  <SCORE.RESTR.norm>
0

>  <SCORE.SYSTEM>
0

>  <SCORE.SYSTEM.CONST>
0

>  <SCORE.SYSTEM.DIHEDRAL>
0

>  <SCORE.SYSTEM.SOLV>
0

>  <SCORE.SYSTEM.norm>
0

>  <SCORE.heavy>
10

>  <SCORE.norm>
-0.847096

>  <RMSD>
5.403

$$$$
ligand
 OpenBabel11021811473D
libRbt.so/2013.1/901 2013/11/27
 10  9  0  0  0  0  0  0  0  0999 V2000
   28.6362   15.8439   19.0648 N   0  0  0  0  0  0  0  0  0  0  0  0
   28.2761   15.1533   20.3402 C   0  0  2  0  0  0  0  0  0  0  0  0
   26.7615   15.1019   20.5708 C   0  0  0  0  0  0  0  0  0  0  0  0
   26.2720   14.7158   21.6429 O   0  0  0  0  0  0  0  0  0  0  0  0
   28.9970   15.7937   21.5295 C   0  0  0  0  0  0  0  0  0  0  0  0
   30.5027   15.6961   21.4362 C   0  0  0  0  0  0  0  0  0  0  0  0
   31.0590   16.6113   20.3726 C   0  0  0  0  0  0  0  0  0  0  0  0
   32.5815   16.5403   20.3255 C   0  0  0  0  0  0  0  0  0  0  0  0
   33.2383   17.1061   21.5346 N   0  0  0  0  0  0  0  0  0  0  0  0
   25.9724   15.4817   19.7001 O   0  0  0  0  0  0  0  0  0  0  0  0
  2  1  1  6  0  0  0
  2  3  1  0  0  0  0
  2  5  1  0  0  0  0
  3  4  1  0  0  0  0
  3 10  1  0  0  0  0
  5  6  1  0  0  0  0
  6  7  1  0  0  0  0
  7  8  1  0  0  0  0
  8  9  1  0  0  0  0
M  END
>  <CHROM.1>
-171.16091662,-62.00007166,71.79604572,177.89534377,-67.79917590,29.18436842
15.79917344,20.65574374,-3.12383273,0.26753440,1.77434195

>  <Name>
ligand

>  <RI>
0

>  <Rbt.Current_Directory>
/home/itssahil/PROJECTS/Mol_Feturizer/New_Systems/rnas/3DIY

>  <Rbt.Executable>
rbdock ($Id: //depot/dev/client3/rdock/2013.1/src/exe/rbdock.cxx#4 $)

>  <Rbt.Library>
libRbt.so (2013.1, Build901 2013/11/27)

>  <Rbt.Parameter_File>
/export/apps/rDock/src/rDock_2013.1_src/data/scripts/dock_solv.prm

>  <Rbt.Receptor>
prm/blind_docking_80.prm

>  <SCORE>
-7.81303

>  <SCORE.INTER>
-9.25712

>  <SCORE.INTER.CONST>
1

>  <SCORE.INTER.POLAR>
0

>  <SCORE.INTER.ROT>
5

>  <SCORE.INTER.SOLV>
11.9319

>  <SCORE.INTER.VDW>
-17.0821

>  <SCORE.INTER.norm>
-0.925712

>  <SCORE.INTRA>
1.44409

>  <SCORE.INTRA.DIHEDRAL>
-0.167019

>  <SCORE.INTRA.DIHEDRAL.0>
2.56603

>  <SCORE.INTRA.POLAR>
0

>  <SCORE.INTRA.POLAR.0>
0

>  <SCORE.INTRA.REPUL>
0

>  <SCORE.INTRA.REPUL.0>
0

>  <SCORE.INTRA.SOLV>
1.68297

>  <SCORE.INTRA.SOLV.lig_0>
-32.0799

>  <SCORE.INTRA.VDW>
0.686116

>  <SCORE.INTRA.VDW.0>
-0.618248

>  <SCORE.INTRA.norm>
0.144409

>  <SCORE.RESTR>
0

>  <SCORE.RESTR.CAVITY>
0

>  <SCORE.RESTR.norm>
0

>  <SCORE.SYSTEM>
0

>  <SCORE.SYSTEM.CONST>
0

>  <SCORE.SYSTEM.DIHEDRAL>
0

>  <SCORE.SYSTEM.SOLV>
0

>  <SCORE.SYSTEM.norm>
0

>  <SCORE.heavy>
10

>  <SCORE.norm>
-0.781303

>  <RMSD>
5.405

$$$$
ligand
 OpenBabel11021811473D
libRbt.so/2013.1/901 2013/11/27
 10  9  0  0  0  0  0  0  0  0999 V2000
   27.8101   14.6465   18.4789 N   0  0  0  0  0  0  0  0  0  0  0  0
   28.0639   14.6924   19.9508 C   0  0  2  0  0  0  0  0  0  0  0  0
   26.7875   14.9582   20.7571 C   0  0  0  0  0  0  0  0  0  0  0  0
   26.7895   15.0023   21.9964 O   0  0  0  0  0  0  0  0  0  0  0  0
   29.1540   15.7144   20.2847 C   0  0  0  0  0  0  0  0  0  0  0  0
   29.6591   15.6040   21.7053 C   0  0  0  0  0  0  0  0  0  0  0  0
   30.6413   16.7007   22.0380 C   0  0  0  0  0  0  0  0  0  0  0  0
   31.9145   16.5706   21.2089 C   0  0  0  0  0  0  0  0  0  0  0  0
   32.9345   17.6069   21.5236 N   0  0  0  0  0  0  0  0  0  0  0  0
   25.7116   15.1755   20.1913 O   0  0  0  0  0  0  0  0  0  0  0  0
  2  1  1  6  0  0  0
  2  3  1  0  0  0  0
  2  5  1  0  0  0  0
  3  4  1  0  0  0  0
  3 10  1  0  0  0  0
  5  6  1  0  0  0  0
  6  7  1  0  0  0  0
  7  8  1  0  0  0  0
  8  9  1  0  0  0  0
M  END
>  <CHROM.1>
178.36168327,-167.90394194,-174.93948107,-65.42853470,-178.43215770,28.90796481
15.66794315,20.82852701,-2.84741206,0.31122403,1.33607304

>  <Name>
ligand

>  <RI>
0

>  <Rbt.Current_Directory>
/home/itssahil/PROJECTS/Mol_Feturizer/New_Systems/rnas/3DIY

>  <Rbt.Executable>
rbdock ($Id: //depot/dev/client3/rdock/2013.1/src/exe/rbdock.cxx#4 $)

>  <Rbt.Library>
libRbt.so (2013.1, Build901 2013/11/27)

>  <Rbt.Parameter_File>
/export/apps/rDock/src/rDock_2013.1_src/data/scripts/dock_solv.prm

>  <Rbt.Receptor>
prm/pocket_docking_3.prm

>  <SCORE>
-9.08138

>  <SCORE.INTER>
-9.21119

>  <SCORE.INTER.CONST>
1

>  <SCORE.INTER.POLAR>
0

>  <SCORE.INTER.ROT>
5

>  <SCORE.INTER.SOLV>
13.1366

>  <SCORE.INTER.VDW>
-17.453

>  <SCORE.INTER.norm>
-0.921119

>  <SCORE.INTRA>
0.129802

>  <SCORE.INTRA.DIHEDRAL>
-0.282066

>  <SCORE.INTRA.DIHEDRAL.0>
2.56603

>  <SCORE.INTRA.POLAR>
0

>  <SCORE.INTRA.POLAR.0>
0

>  <SCORE.INTRA.REPUL>
0

>  <SCORE.INTRA.REPUL.0>
0

>  <SCORE.INTRA.SOLV>
-1.32633

>  <SCORE.INTRA.SOLV.lig_0>
-32.0799

>  <SCORE.INTRA.VDW>
0.934001

>  <SCORE.INTRA.VDW.0>
-0.618248

>  <SCORE.INTRA.norm>
0.0129802

>  <SCORE.RESTR>
0

>  <SCORE.RESTR.CAVITY>
0

>  <SCORE.RESTR.norm>
0

>  <SCORE.SYSTEM>
0

>  <SCORE.SYSTEM.CONST>
0

>  <SCORE.SYSTEM.DIHEDRAL>
0

>  <SCORE.SYSTEM.SOLV>
0

>  <SCORE.SYSTEM.norm>
0

>  <SCORE.heavy>
10

>  <SCORE.norm>
-0.908138

>  <RMSD>
5.405

$$$$
ligand
 OpenBabel11021811473D
libRbt.so/2013.1/901 2013/11/27
 10  9  0  0  0  0  0  0  0  0999 V2000
   27.1818   13.7323   18.4887 N   0  0  0  0  0  0  0  0  0  0  0  0
   27.7012   14.6880   19.5134 C   0  0  2  0  0  0  0  0  0  0  0  0
   26.7129   14.9063   20.6647 C   0  0  0  0  0  0  0  0  0  0  0  0
   25.4890   14.9754   20.4768 O   0  0  0  0  0  0  0  0  0  0  0  0
   28.1018   16.0166   18.8666 C   0  0  0  0  0  0  0  0  0  0  0  0
   28.7377   16.9844   19.8385 C   0  0  0  0  0  0  0  0  0  0  0  0
   30.0891   16.5018   20.3069 C   0  0  0  0  0  0  0  0  0  0  0  0
   30.7180   17.4884   21.2848 C   0  0  0  0  0  0  0  0  0  0  0  0
   32.0641   17.0721   21.7625 N   0  0  0  0  0  0  0  0  0  0  0  0
   27.1048   14.9848   21.8330 O   0  0  0  0  0  0  0  0  0  0  0  0
  2  1  1  6  0  0  0
  2  3  1  0  0  0  0
  2  5  1  0  0  0  0
  3  4  1  0  0  0  0
  3 10  1  0  0  0  0
  5  6  1  0  0  0  0
  6  7  1  0  0  0  0
  7  8  1  0  0  0  0
  8  9  1  0  0  0  0
M  END
>  <CHROM.1>
-38.40990605,-175.40987450,67.93134912,179.94424377,-179.06140492,28.36004523
15.73332410,20.32791991,-2.81506897,0.45431740,1.36611448

>  <Name>
ligand

>  <RI>
0

>  <Rbt.Current_Directory>
/home/itssahil/PROJECTS/Mol_Feturizer/New_Systems/rnas/3DIY

>  <Rbt.Executable>
rbdock ($Id: //depot/dev/client3/rdock/2013.1/src/exe/rbdock.cxx#4 $)

>  <Rbt.Library>
libRbt.so (2013.1, Build901 2013/11/27)

>  <Rbt.Parameter_File>
/export/apps/rDock/src/rDock_2013.1_src/data/scripts/dock_solv.prm

>  <Rbt.Receptor>
prm/pocket_docking_5.prm

>  <SCORE>
-10.2163

>  <SCORE.INTER>
-9.178

>  <SCORE.INTER.CONST>
1

>  <SCORE.INTER.POLAR>
0

>  <SCORE.INTER.ROT>
5

>  <SCORE.INTER.SOLV>
14.9874

>  <SCORE.INTER.VDW>
-18.0478

>  <SCORE.INTER.norm>
-0.9178

>  <SCORE.INTRA>
-1.03825

>  <SCORE.INTRA.DIHEDRAL>
-0.630066

>  <SCORE.INTRA.DIHEDRAL.0>
2.56603

>  <SCORE.INTRA.POLAR>
0

>  <SCORE.INTRA.POLAR.0>
0

>  <SCORE.INTRA.REPUL>
0

>  <SCORE.INTRA.REPUL.0>
0

>  <SCORE.INTRA.SOLV>
-1.34566

>  <SCORE.INTRA.SOLV.lig_0>
-32.0799

>  <SCORE.INTRA.VDW>
-0.0503914

>  <SCORE.INTRA.VDW.0>
-0.618248

>  <SCORE.INTRA.norm>
-0.103825

>  <SCORE.RESTR>
0

>  <SCORE.RESTR.CAVITY>
0

>  <SCORE.RESTR.norm>
0

>  <SCORE.SYSTEM>
0

>  <SCORE.SYSTEM.CONST>
0

>  <SCORE.SYSTEM.DIHEDRAL>
0

>  <SCORE.SYSTEM.SOLV>
0

>  <SCORE.SYSTEM.norm>
0

>  <SCORE.heavy>
10

>  <SCORE.norm>
-1.02163

>  <RMSD>
5.405

$$$$
ligand
 OpenBabel11021811473D
libRbt.so/2013.1/901 2013/11/27
 10  9  0  0  0  0  0  0  0  0999 V2000
   28.6657   14.6736   18.9040 N   0  0  0  0  0  0  0  0  0  0  0  0
   28.2769   15.2659   20.2197 C   0  0  2  0  0  0  0  0  0  0  0  0
   26.7735   15.1465   20.4941 C   0  0  0  0  0  0  0  0  0  0  0  0
   25.9235   15.4404   19.6402 O   0  0  0  0  0  0  0  0  0  0  0  0
   28.7461   16.7197   20.3233 C   0  0  0  0  0  0  0  0  0  0  0  0
   30.2506   16.8578   20.3738 C   0  0  0  0  0  0  0  0  0  0  0  0
   30.8246   16.2780   21.6437 C   0  0  0  0  0  0  0  0  0  0  0  0
   32.3136   16.5837   21.7654 C   0  0  0  0  0  0  0  0  0  0  0  0
   32.6102   18.0340   21.9142 N   0  0  0  0  0  0  0  0  0  0  0  0
   26.3563   14.7146   21.5732 O   0  0  0  0  0  0  0  0  0  0  0  0
  2  1  1  6  0  0  0
  2  3  1  0  0  0  0
  2  5  1  0  0  0  0
  3  4  1  0  0  0  0
  3 10  1  0  0  0  0
  5  6  1  0  0  0  0
  6  7  1  0  0  0  0
  7  8  1  0  0  0  0
  8  9  1  0  0  0  0
M  END
>  <CHROM.1>
-46.77423765,-67.13635443,-66.69863109,-172.63271160,65.23214386,29.03018017
15.96316372,20.68910527,-2.85388381,0.33342923,1.41420496

>  <Name>
ligand

>  <RI>
0

>  <Rbt.Current_Directory>
/home/itssahil/PROJECTS/Mol_Feturizer/New_Systems/rnas/3DIY

>  <Rbt.Executable>
rbdock ($Id: //depot/dev/client3/rdock/2013.1/src/exe/rbdock.cxx#4 $)

>  <Rbt.Library>
libRbt.so (2013.1, Build901 2013/11/27)

>  <Rbt.Parameter_File>
/export/apps/rDock/src/rDock_2013.1_src/data/scripts/dock_solv.prm

>  <Rbt.Receptor>
prm/pocket_docking_6.prm

>  <SCORE>
-8.41791

>  <SCORE.INTER>
-8.63505

>  <SCORE.INTER.CONST>
1

>  <SCORE.INTER.POLAR>
0

>  <SCORE.INTER.ROT>
5

>  <SCORE.INTER.SOLV>
11.7632

>  <SCORE.INTER.VDW>
-16.6111

>  <SCORE.INTER.norm>
-0.863505

>  <SCORE.INTRA>
0.21714

>  <SCORE.INTRA.DIHEDRAL>
-0.254034

>  <SCORE.INTRA.DIHEDRAL.0>
2.56603

>  <SCORE.INTRA.POLAR>
0

>  <SCORE.INTRA.POLAR.0>
0

>  <SCORE.INTRA.REPUL>
0

>  <SCORE.INTRA.REPUL.0>
0

>  <SCORE.INTRA.SOLV>
0.620935

>  <SCORE.INTRA.SOLV.lig_0>
-32.0799

>  <SCORE.INTRA.VDW>
0.0336898

>  <SCORE.INTRA.VDW.0>
-0.618248

>  <SCORE.INTRA.norm>
0.021714

>  <SCORE.RESTR>
0

>  <SCORE.RESTR.CAVITY>
0

>  <SCORE.RESTR.norm>
0

>  <SCORE.SYSTEM>
0

>  <SCORE.SYSTEM.CONST>
0

>  <SCORE.SYSTEM.DIHEDRAL>
0

>  <SCORE.SYSTEM.SOLV>
0

>  <SCORE.SYSTEM.norm>
0

>  <SCORE.heavy>
10

>  <SCORE.norm>
-0.841791

>  <RMSD>
5.405

$$$$
ligand
 OpenBabel11021811473D
libRbt.so/2013.1/901 2013/11/27
 10  9  0  0  0  0  0  0  0  0999 V2000
   27.8310   14.3203   18.2843 N   0  0  0  0  0  0  0  0  0  0  0  0
   27.9183   14.3972   19.7741 C   0  0  2  0  0  0  0  0  0  0  0  0
   26.6486   14.9793   20.4057 C   0  0  0  0  0  0  0  0  0  0  0  0
   25.7729   15.5374   19.7277 O   0  0  0  0  0  0  0  0  0  0  0  0
   29.1619   15.1778   20.2080 C   0  0  0  0  0  0  0  0  0  0  0  0
   29.3921   15.1488   21.7018 C   0  0  0  0  0  0  0  0  0  0  0  0
   30.7484   15.6990   22.0709 C   0  0  0  0  0  0  0  0  0  0  0  0
   30.8489   17.1845   21.7415 C   0  0  0  0  0  0  0  0  0  0  0  0
   32.1912   17.7631   22.0185 N   0  0  0  0  0  0  0  0  0  0  0  0
   26.4375   14.8779   21.6182 O   0  0  0  0  0  0  0  0  0  0  0  0
  2  1  1  6  0  0  0
  2  3  1  0  0  0  0
  2  5  1  0  0  0  0
  3  4  1  0  0  0  0
  3 10  1  0  0  0  0
  5  6  1  0  0  0  0
  6  7  1  0  0  0  0
  7  8  1  0  0  0  0
  8  9  1  0  0  0  0
M  END
>  <CHROM.1>
-12.19570354,-173.16168841,169.33315645,65.69286551,-176.94050162,28.65708662
15.51546277,20.76493544,-2.63512960,0.23663452,1.18441225

>  <Name>
ligand

>  <RI>
0

>  <Rbt.Current_Directory>
/home/itssahil/PROJECTS/Mol_Feturizer/New_Systems/rnas/3DIY

>  <Rbt.Executable>
rbdock ($Id: //depot/dev/client3/rdock/2013.1/src/exe/rbdock.cxx#4 $)

>  <Rbt.Library>
libRbt.so (2013.1, Build901 2013/11/27)

>  <Rbt.Parameter_File>
/export/apps/rDock/src/rDock_2013.1_src/data/scripts/dock_solv.prm

>  <Rbt.Receptor>
prm/blind_docking_80.prm

>  <SCORE>
-9.10068

>  <SCORE.INTER>
-9.21576

>  <SCORE.INTER.CONST>
1

>  <SCORE.INTER.POLAR>
0

>  <SCORE.INTER.ROT>
5

>  <SCORE.INTER.SOLV>
13.5186

>  <SCORE.INTER.VDW>
-17.5834

>  <SCORE.INTER.norm>
-0.921576

>  <SCORE.INTRA>
0.115081

>  <SCORE.INTRA.DIHEDRAL>
-0.179853

>  <SCORE.INTRA.DIHEDRAL.0>
2.56603

>  <SCORE.INTRA.POLAR>
0

>  <SCORE.INTRA.POLAR.0>
0

>  <SCORE.INTRA.REPUL>
0

>  <SCORE.INTRA.REPUL.0>
0

>  <SCORE.INTRA.SOLV>
-1.31337

>  <SCORE.INTRA.SOLV.lig_0>
-32.0799

>  <SCORE.INTRA.VDW>
0.861694

>  <SCORE.INTRA.VDW.0>
-0.618248

>  <SCORE.INTRA.norm>
0.0115081

>  <SCORE.RESTR>
0

>  <SCORE.RESTR.CAVITY>
0

>  <SCORE.RESTR.norm>
0

>  <SCORE.SYSTEM>
0

>  <SCORE.SYSTEM.CONST>
0

>  <SCORE.SYSTEM.DIHEDRAL>
0

>  <SCORE.SYSTEM.SOLV>
0

>  <SCORE.SYSTEM.norm>
0

>  <SCORE.heavy>
10

>  <SCORE.norm>
-0.910068

>  <RMSD>
5.407

$$$$
ligand
 OpenBabel11021811473D
libRbt.so/2013.1/901 2013/11/27
 10  9  0  0  0  0  0  0  0  0999 V2000
   27.7793   14.5216   18.4724 N   0  0  0  0  0  0  0  0  0  0  0  0
   28.0435   14.6389   19.9385 C   0  0  2  0  0  0  0  0  0  0  0  0
   26.7724   14.9416   20.7401 C   0  0  0  0  0  0  0  0  0  0  0  0
   26.7655   14.9604   21.9801 O   0  0  0  0  0  0  0  0  0  0  0  0
   29.1342   15.6773   20.2148 C   0  0  0  0  0  0  0  0  0  0  0  0
   29.6283   15.6564   21.6434 C   0  0  0  0  0  0  0  0  0  0  0  0
   30.6365   16.7492   21.9040 C   0  0  0  0  0  0  0  0  0  0  0  0
   31.9246   16.5080   21.1244 C   0  0  0  0  0  0  0  0  0  0  0  0
   32.9548   17.5588   21.3433 N   0  0  0  0  0  0  0  0  0  0  0  0
   25.7115   15.2153   20.1706 O   0  0  0  0  0  0  0  0  0  0  0  0
  2  1  1  6  0  0  0
  2  3  1  0  0  0  0
  2  5  1  0  0  0  0
  3  4  1  0  0  0  0
  3 10  1  0  0  0  0
  5  6  1  0  0  0  0
  6  7  1  0  0  0  0
  7  8  1  0  0  0  0
  8  9  1  0  0  0  0
M  END
>  <CHROM.1>
173.61515572,-169.15339794,-176.31438804,-66.94308132,179.91367230,28.89653239
15.64430913,20.76839135,-2.85928188,0.30625158,1.30167171

>  <Name>
ligand

>  <RI>
0

>  <Rbt.Current_Directory>
/home/itssahil/PROJECTS/Mol_Feturizer/New_Systems/rnas/3DIY

>  <Rbt.Executable>
rbdock ($Id: //depot/dev/client3/rdock/2013.1/src/exe/rbdock.cxx#4 $)

>  <Rbt.Library>
libRbt.so (2013.1, Build901 2013/11/27)

>  <Rbt.Parameter_File>
/export/apps/rDock/src/rDock_2013.1_src/data/scripts/dock_solv.prm

>  <Rbt.Receptor>
prm/pocket_docking_5.prm

>  <SCORE>
-9.14052

>  <SCORE.INTER>
-9.09905

>  <SCORE.INTER.CONST>
1

>  <SCORE.INTER.POLAR>
0

>  <SCORE.INTER.ROT>
5

>  <SCORE.INTER.SOLV>
13.4557

>  <SCORE.INTER.VDW>
-17.4846

>  <SCORE.INTER.norm>
-0.909905

>  <SCORE.INTRA>
-0.0414694

>  <SCORE.INTRA.DIHEDRAL>
-0.383619

>  <SCORE.INTRA.DIHEDRAL.0>
2.56603

>  <SCORE.INTRA.POLAR>
0

>  <SCORE.INTRA.POLAR.0>
0

>  <SCORE.INTRA.REPUL>
0

>  <SCORE.INTRA.REPUL.0>
0

>  <SCORE.INTRA.SOLV>
-1.3298

>  <SCORE.INTRA.SOLV.lig_0>
-32.0799

>  <SCORE.INTRA.VDW>
0.815238

>  <SCORE.INTRA.VDW.0>
-0.618248

>  <SCORE.INTRA.norm>
-0.00414694

>  <SCORE.RESTR>
0

>  <SCORE.RESTR.CAVITY>
0

>  <SCORE.RESTR.norm>
0

>  <SCORE.SYSTEM>
0

>  <SCORE.SYSTEM.CONST>
0

>  <SCORE.SYSTEM.DIHEDRAL>
0

>  <SCORE.SYSTEM.SOLV>
0

>  <SCORE.SYSTEM.norm>
0

>  <SCORE.heavy>
10

>  <SCORE.norm>
-0.914052

>  <RMSD>
5.408

$$$$
ligand
 OpenBabel11021811473D
libRbt.so/2013.1/901 2013/11/27
 10  9  0  0  0  0  0  0  0  0999 V2000
   27.4475   16.6589   19.1810 N   0  0  0  0  0  0  0  0  0  0  0  0
   27.4978   15.2502   19.6773 C   0  0  2  0  0  0  0  0  0  0  0  0
   26.5710   15.0183   20.8761 C   0  0  0  0  0  0  0  0  0  0  0  0
   26.9761   15.0970   22.0456 O   0  0  0  0  0  0  0  0  0  0  0  0
   28.9362   14.8366   19.9998 C   0  0  0  0  0  0  0  0  0  0  0  0
   29.6366   15.7964   20.9346 C   0  0  0  0  0  0  0  0  0  0  0  0
   31.0635   15.3810   21.1987 C   0  0  0  0  0  0  0  0  0  0  0  0
   31.7870   16.4110   22.0596 C   0  0  0  0  0  0  0  0  0  0  0  0
   31.9644   17.7257   21.3864 N   0  0  0  0  0  0  0  0  0  0  0  0
   25.3704   14.7791   20.7149 O   0  0  0  0  0  0  0  0  0  0  0  0
  2  1  1  1  0  0  0
  2  3  1  0  0  0  0
  2  5  1  0  0  0  0
  3  4  1  0  0  0  0
  3 10  1  0  0  0  0
  5  6  1  0  0  0  0
  6  7  1  0  0  0  0
  7  8  1  0  0  0  0
  8  9  1  0  0  0  0
M  END
>  <CHROM.1>
-94.52051755,52.91178703,-178.31736073,175.84578725,-65.58776330,28.69297101
15.68668719,20.83065379,-3.10886650,0.32098500,2.00422357

>  <Name>
ligand

>  <RI>
0

>  <Rbt.Current_Directory>
/home/itssahil/PROJECTS/Mol_Feturizer/New_Systems/rnas/3DIY

>  <Rbt.Executable>
rbdock ($Id: //depot/dev/client3/rdock/2013.1/src/exe/rbdock.cxx#4 $)

>  <Rbt.Library>
libRbt.so (2013.1, Build901 2013/11/27)

>  <Rbt.Parameter_File>
/export/apps/rDock/src/rDock_2013.1_src/data/scripts/dock_solv.prm

>  <Rbt.Receptor>
prm/pocket_docking_8.prm

>  <SCORE>
-7.25439

>  <SCORE.INTER>
-7.55235

>  <SCORE.INTER.CONST>
1

>  <SCORE.INTER.POLAR>
0

>  <SCORE.INTER.ROT>
5

>  <SCORE.INTER.SOLV>
15.7224

>  <SCORE.INTER.VDW>
-17.209

>  <SCORE.INTER.norm>
-0.755235

>  <SCORE.INTRA>
0.297965

>  <SCORE.INTRA.DIHEDRAL>
-0.681077

>  <SCORE.INTRA.DIHEDRAL.0>
2.56603

>  <SCORE.INTRA.POLAR>
0

>  <SCORE.INTRA.POLAR.0>
0

>  <SCORE.INTRA.REPUL>
0

>  <SCORE.INTRA.REPUL.0>
0

>  <SCORE.INTRA.SOLV>
0.301434

>  <SCORE.INTRA.SOLV.lig_0>
-32.0799

>  <SCORE.INTRA.VDW>
0.487787

>  <SCORE.INTRA.VDW.0>
-0.618248

>  <SCORE.INTRA.norm>
0.0297965

>  <SCORE.RESTR>
0

>  <SCORE.RESTR.CAVITY>
0

>  <SCORE.RESTR.norm>
0

>  <SCORE.SYSTEM>
0

>  <SCORE.SYSTEM.CONST>
0

>  <SCORE.SYSTEM.DIHEDRAL>
0

>  <SCORE.SYSTEM.SOLV>
0

>  <SCORE.SYSTEM.norm>
0

>  <SCORE.heavy>
10

>  <SCORE.norm>
-0.725439

>  <RMSD>
5.410

$$$$
ligand
 OpenBabel11021811473D
libRbt.so/2013.1/901 2013/11/27
 10  9  0  0  0  0  0  0  0  0999 V2000
   27.7726   14.6011   18.4743 N   0  0  0  0  0  0  0  0  0  0  0  0
   28.0366   14.6596   19.9440 C   0  0  2  0  0  0  0  0  0  0  0  0
   26.7686   14.9486   20.7555 C   0  0  0  0  0  0  0  0  0  0  0  0
   26.7775   14.9971   21.9947 O   0  0  0  0  0  0  0  0  0  0  0  0
   29.1405   15.6724   20.2599 C   0  0  0  0  0  0  0  0  0  0  0  0
   29.6488   15.5756   21.6804 C   0  0  0  0  0  0  0  0  0  0  0  0
   30.6579   16.6548   21.9895 C   0  0  0  0  0  0  0  0  0  0  0  0
   31.9425   16.4526   21.1932 C   0  0  0  0  0  0  0  0  0  0  0  0
   32.9577   17.5147   21.4271 N   0  0  0  0  0  0  0  0  0  0  0  0
   25.6935   15.1810   20.1943 O   0  0  0  0  0  0  0  0  0  0  0  0
  2  1  1  6  0  0  0
  2  3  1  0  0  0  0
  2  5  1  0  0  0  0
  3  4  1  0  0  0  0
  3 10  1  0  0  0  0
  5  6  1  0  0  0  0
  6  7  1  0  0  0  0
  7  8  1  0  0  0  0
  8  9  1  0  0  0  0
M  END
>  <CHROM.1>
177.88093267,-168.18586728,-175.60785258,-67.36413976,178.15559110,28.90109117
15.62720140,20.80656935,-2.85948513,0.29722367,1.33074359

>  <Name>
ligand

>  <RI>
0

>  <Rbt.Current_Directory>
/home/itssahil/PROJECTS/Mol_Feturizer/New_Systems/rnas/3DIY

>  <Rbt.Executable>
rbdock ($Id: //depot/dev/client3/rdock/2013.1/src/exe/rbdock.cxx#4 $)

>  <Rbt.Library>
libRbt.so (2013.1, Build901 2013/11/27)

>  <Rbt.Parameter_File>
/export/apps/rDock/src/rDock_2013.1_src/data/scripts/dock_solv.prm

>  <Rbt.Receptor>
prm/pocket_docking_3.prm

>  <SCORE>
-9.09656

>  <SCORE.INTER>
-9.18617

>  <SCORE.INTER.CONST>
1

>  <SCORE.INTER.POLAR>
0

>  <SCORE.INTER.ROT>
5

>  <SCORE.INTER.SOLV>
13.3532

>  <SCORE.INTER.VDW>
-17.5085

>  <SCORE.INTER.norm>
-0.918617

>  <SCORE.INTRA>
0.0896131

>  <SCORE.INTRA.DIHEDRAL>
-0.228569

>  <SCORE.INTRA.DIHEDRAL.0>
2.56603

>  <SCORE.INTRA.POLAR>
0

>  <SCORE.INTRA.POLAR.0>
0

>  <SCORE.INTRA.REPUL>
0

>  <SCORE.INTRA.REPUL.0>
0

>  <SCORE.INTRA.SOLV>
-1.32001

>  <SCORE.INTRA.SOLV.lig_0>
-32.0799

>  <SCORE.INTRA.VDW>
0.863905

>  <SCORE.INTRA.VDW.0>
-0.618248

>  <SCORE.INTRA.norm>
0.00896131

>  <SCORE.RESTR>
0

>  <SCORE.RESTR.CAVITY>
0

>  <SCORE.RESTR.norm>
0

>  <SCORE.SYSTEM>
0

>  <SCORE.SYSTEM.CONST>
0

>  <SCORE.SYSTEM.DIHEDRAL>
0

>  <SCORE.SYSTEM.SOLV>
0

>  <SCORE.SYSTEM.norm>
0

>  <SCORE.heavy>
10

>  <SCORE.norm>
-0.909656

>  <RMSD>
5.411

$$$$
ligand
 OpenBabel11021811473D
libRbt.so/2013.1/901 2013/11/27
 10  9  0  0  0  0  0  0  0  0999 V2000
   27.6996   15.2017   18.5395 N   0  0  0  0  0  0  0  0  0  0  0  0
   28.0279   14.9722   19.9791 C   0  0  2  0  0  0  0  0  0  0  0  0
   26.7892   15.0378   20.8798 C   0  0  0  0  0  0  0  0  0  0  0  0
   26.8767   15.0964   22.1155 O   0  0  0  0  0  0  0  0  0  0  0  0
   29.1109   15.9450   20.4534 C   0  0  0  0  0  0  0  0  0  0  0  0
   29.7730   15.5166   21.7432 C   0  0  0  0  0  0  0  0  0  0  0  0
   30.7732   16.5386   22.2263 C   0  0  0  0  0  0  0  0  0  0  0  0
   31.9684   16.6286   21.2836 C   0  0  0  0  0  0  0  0  0  0  0  0
   32.9538   17.6724   21.6746 N   0  0  0  0  0  0  0  0  0  0  0  0
   25.6530   15.0715   20.3971 O   0  0  0  0  0  0  0  0  0  0  0  0
  2  1  1  6  0  0  0
  2  3  1  0  0  0  0
  2  5  1  0  0  0  0
  3  4  1  0  0  0  0
  3 10  1  0  0  0  0
  5  6  1  0  0  0  0
  6  7  1  0  0  0  0
  7  8  1  0  0  0  0
  8  9  1  0  0  0  0
M  END
>  <CHROM.1>
-167.73202942,-163.00492101,-176.47015489,-67.22269523,177.01625206,28.92447985
15.76486092,20.94608389,-2.91051098,0.33144989,1.51957464

>  <Name>
ligand

>  <RI>
0

>  <Rbt.Current_Directory>
/home/itssahil/PROJECTS/Mol_Feturizer/New_Systems/rnas/3DIY

>  <Rbt.Executable>
rbdock ($Id: //depot/dev/client3/rdock/2013.1/src/exe/rbdock.cxx#4 $)

>  <Rbt.Library>
libRbt.so (2013.1, Build901 2013/11/27)

>  <Rbt.Parameter_File>
/export/apps/rDock/src/rDock_2013.1_src/data/scripts/dock_solv.prm

>  <Rbt.Receptor>
prm/pocket_docking_4.prm

>  <SCORE>
-9.13485

>  <SCORE.INTER>
-9.58412

>  <SCORE.INTER.CONST>
1

>  <SCORE.INTER.POLAR>
0

>  <SCORE.INTER.ROT>
5

>  <SCORE.INTER.SOLV>
12.7242

>  <SCORE.INTER.VDW>
-17.5642

>  <SCORE.INTER.norm>
-0.958412

>  <SCORE.INTRA>
0.449262

>  <SCORE.INTRA.DIHEDRAL>
0.324

>  <SCORE.INTRA.DIHEDRAL.0>
2.56603

>  <SCORE.INTRA.POLAR>
0

>  <SCORE.INTRA.POLAR.0>
0

>  <SCORE.INTRA.REPUL>
0

>  <SCORE.INTRA.REPUL.0>
0

>  <SCORE.INTRA.SOLV>
-1.30126

>  <SCORE.INTRA.SOLV.lig_0>
-32.0799

>  <SCORE.INTRA.VDW>
0.937892

>  <SCORE.INTRA.VDW.0>
-0.618248

>  <SCORE.INTRA.norm>
0.0449262

>  <SCORE.RESTR>
0

>  <SCORE.RESTR.CAVITY>
0

>  <SCORE.RESTR.norm>
0

>  <SCORE.SYSTEM>
0

>  <SCORE.SYSTEM.CONST>
0

>  <SCORE.SYSTEM.DIHEDRAL>
0

>  <SCORE.SYSTEM.SOLV>
0

>  <SCORE.SYSTEM.norm>
0

>  <SCORE.heavy>
10

>  <SCORE.norm>
-0.913485

>  <RMSD>
5.411

$$$$
ligand
 OpenBabel11021811473D
libRbt.so/2013.1/901 2013/11/27
 10  9  0  0  0  0  0  0  0  0999 V2000
   27.6994   15.1978   18.5487 N   0  0  0  0  0  0  0  0  0  0  0  0
   28.0363   14.9702   19.9867 C   0  0  2  0  0  0  0  0  0  0  0  0
   26.8009   15.0227   20.8928 C   0  0  0  0  0  0  0  0  0  0  0  0
   26.8932   15.1008   22.1271 O   0  0  0  0  0  0  0  0  0  0  0  0
   29.1116   15.9534   20.4572 C   0  0  0  0  0  0  0  0  0  0  0  0
   29.7712   15.5395   21.7529 C   0  0  0  0  0  0  0  0  0  0  0  0
   30.7656   16.5700   22.2301 C   0  0  0  0  0  0  0  0  0  0  0  0
   31.9739   16.6408   21.3027 C   0  0  0  0  0  0  0  0  0  0  0  0
   32.9673   17.6737   21.7021 N   0  0  0  0  0  0  0  0  0  0  0  0
   25.6619   15.0257   20.4157 O   0  0  0  0  0  0  0  0  0  0  0  0
  2  1  1  6  0  0  0
  2  3  1  0  0  0  0
  2  5  1  0  0  0  0
  3  4  1  0  0  0  0
  3 10  1  0  0  0  0
  5  6  1  0  0  0  0
  6  7  1  0  0  0  0
  7  8  1  0  0  0  0
  8  9  1  0  0  0  0
M  END
>  <CHROM.1>
-166.65652298,-163.74497195,-176.58831992,-68.12945138,178.12331644,28.93013714
15.76590791,20.95856380,-2.90718060,0.33578386,1.51419138

>  <Name>
ligand

>  <RI>
0

>  <Rbt.Current_Directory>
/home/itssahil/PROJECTS/Mol_Feturizer/New_Systems/rnas/3DIY

>  <Rbt.Executable>
rbdock ($Id: //depot/dev/client3/rdock/2013.1/src/exe/rbdock.cxx#4 $)

>  <Rbt.Library>
libRbt.so (2013.1, Build901 2013/11/27)

>  <Rbt.Parameter_File>
/export/apps/rDock/src/rDock_2013.1_src/data/scripts/dock_solv.prm

>  <Rbt.Receptor>
prm/pocket_docking_3.prm

>  <SCORE>
-9.13008

>  <SCORE.INTER>
-9.55524

>  <SCORE.INTER.CONST>
1

>  <SCORE.INTER.POLAR>
0

>  <SCORE.INTER.ROT>
5

>  <SCORE.INTER.SOLV>
12.7356

>  <SCORE.INTER.VDW>
-17.5487

>  <SCORE.INTER.norm>
-0.955524

>  <SCORE.INTRA>
0.425161

>  <SCORE.INTRA.DIHEDRAL>
0.277852

>  <SCORE.INTRA.DIHEDRAL.0>
2.56603

>  <SCORE.INTRA.POLAR>
0

>  <SCORE.INTRA.POLAR.0>
0

>  <SCORE.INTRA.REPUL>
0

>  <SCORE.INTRA.REPUL.0>
0

>  <SCORE.INTRA.SOLV>
-1.31548

>  <SCORE.INTRA.SOLV.lig_0>
-32.0799

>  <SCORE.INTRA.VDW>
0.943973

>  <SCORE.INTRA.VDW.0>
-0.618248

>  <SCORE.INTRA.norm>
0.0425161

>  <SCORE.RESTR>
0

>  <SCORE.RESTR.CAVITY>
0

>  <SCORE.RESTR.norm>
0

>  <SCORE.SYSTEM>
0

>  <SCORE.SYSTEM.CONST>
0

>  <SCORE.SYSTEM.DIHEDRAL>
0

>  <SCORE.SYSTEM.SOLV>
0

>  <SCORE.SYSTEM.norm>
0

>  <SCORE.heavy>
10

>  <SCORE.norm>
-0.913008

>  <RMSD>
5.412

$$$$
ligand
 OpenBabel11021811473D
libRbt.so/2013.1/901 2013/11/27
 10  9  0  0  0  0  0  0  0  0999 V2000
   27.7216   15.2021   18.5289 N   0  0  0  0  0  0  0  0  0  0  0  0
   28.0379   14.9773   19.9720 C   0  0  2  0  0  0  0  0  0  0  0  0
   26.7909   15.0393   20.8614 C   0  0  0  0  0  0  0  0  0  0  0  0
   26.8667   15.0868   22.0983 O   0  0  0  0  0  0  0  0  0  0  0  0
   29.1122   15.9561   20.4538 C   0  0  0  0  0  0  0  0  0  0  0  0
   29.7633   15.5346   21.7513 C   0  0  0  0  0  0  0  0  0  0  0  0
   30.7690   16.5529   22.2307 C   0  0  0  0  0  0  0  0  0  0  0  0
   31.9778   16.6129   21.3030 C   0  0  0  0  0  0  0  0  0  0  0  0
   32.9671   17.6558   21.6861 N   0  0  0  0  0  0  0  0  0  0  0  0
   25.6595   15.0811   20.3682 O   0  0  0  0  0  0  0  0  0  0  0  0
  2  1  1  6  0  0  0
  2  3  1  0  0  0  0
  2  5  1  0  0  0  0
  3  4  1  0  0  0  0
  3 10  1  0  0  0  0
  5  6  1  0  0  0  0
  6  7  1  0  0  0  0
  7  8  1  0  0  0  0
  8  9  1  0  0  0  0
M  END
>  <CHROM.1>
-168.50996985,-163.08325444,-177.28895180,-67.87756560,176.75335176,28.92834770
15.76662353,20.94192880,-2.90508710,0.32908195,1.51765424

>  <Name>
ligand

>  <RI>
0

>  <Rbt.Current_Directory>
/home/itssahil/PROJECTS/Mol_Feturizer/New_Systems/rnas/3DIY

>  <Rbt.Executable>
rbdock ($Id: //depot/dev/client3/rdock/2013.1/src/exe/rbdock.cxx#4 $)

>  <Rbt.Library>
libRbt.so (2013.1, Build901 2013/11/27)

>  <Rbt.Parameter_File>
/export/apps/rDock/src/rDock_2013.1_src/data/scripts/dock_solv.prm

>  <Rbt.Receptor>
prm/pocket_docking_8.prm

>  <SCORE>
-9.17874

>  <SCORE.INTER>
-9.59679

>  <SCORE.INTER.CONST>
1

>  <SCORE.INTER.POLAR>
0

>  <SCORE.INTER.ROT>
5

>  <SCORE.INTER.SOLV>
12.7216

>  <SCORE.INTER.VDW>
-17.5717

>  <SCORE.INTER.norm>
-0.959679

>  <SCORE.INTRA>
0.418046

>  <SCORE.INTRA.DIHEDRAL>
0.337734

>  <SCORE.INTRA.DIHEDRAL.0>
2.56603

>  <SCORE.INTRA.POLAR>
0

>  <SCORE.INTRA.POLAR.0>
0

>  <SCORE.INTRA.REPUL>
0

>  <SCORE.INTRA.REPUL.0>
0

>  <SCORE.INTRA.SOLV>
-1.30355

>  <SCORE.INTRA.SOLV.lig_0>
-32.0799

>  <SCORE.INTRA.VDW>
0.900954

>  <SCORE.INTRA.VDW.0>
-0.618248

>  <SCORE.INTRA.norm>
0.0418046

>  <SCORE.RESTR>
0

>  <SCORE.RESTR.CAVITY>
0

>  <SCORE.RESTR.norm>
0

>  <SCORE.SYSTEM>
0

>  <SCORE.SYSTEM.CONST>
0

>  <SCORE.SYSTEM.DIHEDRAL>
0

>  <SCORE.SYSTEM.SOLV>
0

>  <SCORE.SYSTEM.norm>
0

>  <SCORE.heavy>
10

>  <SCORE.norm>
-0.917874

>  <RMSD>
5.412

$$$$
ligand
 OpenBabel11021811473D
libRbt.so/2013.1/901 2013/11/27
 10  9  0  0  0  0  0  0  0  0999 V2000
   28.5944   14.4139   18.7220 N   0  0  0  0  0  0  0  0  0  0  0  0
   28.0250   14.3071   20.0995 C   0  0  2  0  0  0  0  0  0  0  0  0
   26.7309   15.1126   20.2622 C   0  0  0  0  0  0  0  0  0  0  0  0
   25.8608   14.7997   21.0886 O   0  0  0  0  0  0  0  0  0  0  0  0
   29.0634   14.7070   21.1513 C   0  0  0  0  0  0  0  0  0  0  0  0
   29.5820   16.1155   20.9709 C   0  0  0  0  0  0  0  0  0  0  0  0
   30.7740   16.3915   21.8549 C   0  0  0  0  0  0  0  0  0  0  0  0
   31.3356   17.7867   21.6030 C   0  0  0  0  0  0  0  0  0  0  0  0
   32.6044   18.0548   22.3320 N   0  0  0  0  0  0  0  0  0  0  0  0
   26.5274   16.1309   19.5939 O   0  0  0  0  0  0  0  0  0  0  0  0
  2  1  1  6  0  0  0
  2  3  1  0  0  0  0
  2  5  1  0  0  0  0
  3  4  1  0  0  0  0
  3 10  1  0  0  0  0
  5  6  1  0  0  0  0
  6  7  1  0  0  0  0
  7  8  1  0  0  0  0
  8  9  1  0  0  0  0
M  END
>  <CHROM.1>
152.83097790,58.58967381,-169.56387394,176.67984635,-173.33022620,28.87083663
15.79307549,20.76798533,-2.57491495,0.04266271,0.69460088

>  <Name>
ligand

>  <RI>
0

>  <Rbt.Current_Directory>
/home/itssahil/PROJECTS/Mol_Feturizer/New_Systems/rnas/3DIY

>  <Rbt.Executable>
rbdock ($Id: //depot/dev/client3/rdock/2013.1/src/exe/rbdock.cxx#4 $)

>  <Rbt.Library>
libRbt.so (2013.1, Build901 2013/11/27)

>  <Rbt.Parameter_File>
/export/apps/rDock/src/rDock_2013.1_src/data/scripts/dock_solv.prm

>  <Rbt.Receptor>
prm/pocket_docking_8.prm

>  <SCORE>
-9.12147

>  <SCORE.INTER>
-8.47079

>  <SCORE.INTER.CONST>
1

>  <SCORE.INTER.POLAR>
0

>  <SCORE.INTER.ROT>
5

>  <SCORE.INTER.SOLV>
13.8113

>  <SCORE.INTER.VDW>
-17.1843

>  <SCORE.INTER.norm>
-0.847079

>  <SCORE.INTRA>
-0.650687

>  <SCORE.INTRA.DIHEDRAL>
-0.429502

>  <SCORE.INTRA.DIHEDRAL.0>
2.56603

>  <SCORE.INTRA.POLAR>
0

>  <SCORE.INTRA.POLAR.0>
0

>  <SCORE.INTRA.REPUL>
0

>  <SCORE.INTRA.REPUL.0>
0

>  <SCORE.INTRA.SOLV>
-0.599407

>  <SCORE.INTRA.SOLV.lig_0>
-32.0799

>  <SCORE.INTRA.VDW>
-0.136232

>  <SCORE.INTRA.VDW.0>
-0.618248

>  <SCORE.INTRA.norm>
-0.0650687

>  <SCORE.RESTR>
0

>  <SCORE.RESTR.CAVITY>
0

>  <SCORE.RESTR.norm>
0

>  <SCORE.SYSTEM>
0

>  <SCORE.SYSTEM.CONST>
0

>  <SCORE.SYSTEM.DIHEDRAL>
0

>  <SCORE.SYSTEM.SOLV>
0

>  <SCORE.SYSTEM.norm>
0

>  <SCORE.heavy>
10

>  <SCORE.norm>
-0.912147

>  <RMSD>
5.412

$$$$
ligand
 OpenBabel11021811473D
libRbt.so/2013.1/901 2013/11/27
 10  9  0  0  0  0  0  0  0  0999 V2000
   27.0779   13.6828   18.4989 N   0  0  0  0  0  0  0  0  0  0  0  0
   27.6296   14.6484   19.4970 C   0  0  2  0  0  0  0  0  0  0  0  0
   26.6757   14.8830   20.6739 C   0  0  0  0  0  0  0  0  0  0  0  0
   27.0875   15.0414   21.8329 O   0  0  0  0  0  0  0  0  0  0  0  0
   28.0152   15.9683   18.8236 C   0  0  0  0  0  0  0  0  0  0  0  0
   28.6590   16.9546   19.7713 C   0  0  0  0  0  0  0  0  0  0  0  0
   29.9871   16.4537   20.2848 C   0  0  0  0  0  0  0  0  0  0  0  0
   30.6152   17.4504   21.2529 C   0  0  0  0  0  0  0  0  0  0  0  0
   31.9317   17.0085   21.7866 N   0  0  0  0  0  0  0  0  0  0  0  0
   25.4558   14.9591   20.4982 O   0  0  0  0  0  0  0  0  0  0  0  0
  2  1  1  6  0  0  0
  2  3  1  0  0  0  0
  2  5  1  0  0  0  0
  3  4  1  0  0  0  0
  3 10  1  0  0  0  0
  5  6  1  0  0  0  0
  6  7  1  0  0  0  0
  7  8  1  0  0  0  0
  8  9  1  0  0  0  0
M  END
>  <CHROM.1>
143.12818952,-176.45968073,65.01127237,-179.25545455,-179.76030369,28.28432795
15.70470441,20.31669918,-2.80820007,0.45648123,1.36991543

>  <Name>
ligand

>  <RI>
0

>  <Rbt.Current_Directory>
/home/itssahil/PROJECTS/Mol_Feturizer/New_Systems/rnas/3DIY

>  <Rbt.Executable>
rbdock ($Id: //depot/dev/client3/rdock/2013.1/src/exe/rbdock.cxx#4 $)

>  <Rbt.Library>
libRbt.so (2013.1, Build901 2013/11/27)

>  <Rbt.Parameter_File>
/export/apps/rDock/src/rDock_2013.1_src/data/scripts/dock_solv.prm

>  <Rbt.Receptor>
prm/pocket_docking_4.prm

>  <SCORE>
-10.2867

>  <SCORE.INTER>
-9.18388

>  <SCORE.INTER.CONST>
1

>  <SCORE.INTER.POLAR>
0

>  <SCORE.INTER.ROT>
5

>  <SCORE.INTER.SOLV>
15.1128

>  <SCORE.INTER.VDW>
-18.0935

>  <SCORE.INTER.norm>
-0.918388

>  <SCORE.INTRA>
-1.10279

>  <SCORE.INTRA.DIHEDRAL>
-0.94631

>  <SCORE.INTRA.DIHEDRAL.0>
2.56603

>  <SCORE.INTRA.POLAR>
0

>  <SCORE.INTRA.POLAR.0>
0

>  <SCORE.INTRA.REPUL>
0

>  <SCORE.INTRA.REPUL.0>
0

>  <SCORE.INTRA.SOLV>
-1.34376

>  <SCORE.INTRA.SOLV.lig_0>
-32.0799

>  <SCORE.INTRA.VDW>
0.0422458

>  <SCORE.INTRA.VDW.0>
-0.618248

>  <SCORE.INTRA.norm>
-0.110279

>  <SCORE.RESTR>
0

>  <SCORE.RESTR.CAVITY>
0

>  <SCORE.RESTR.norm>
0

>  <SCORE.SYSTEM>
0

>  <SCORE.SYSTEM.CONST>
0

>  <SCORE.SYSTEM.DIHEDRAL>
0

>  <SCORE.SYSTEM.SOLV>
0

>  <SCORE.SYSTEM.norm>
0

>  <SCORE.heavy>
10

>  <SCORE.norm>
-1.02867

>  <RMSD>
5.414

$$$$
ligand
 OpenBabel11021811473D
libRbt.so/2013.1/901 2013/11/27
 10  9  0  0  0  0  0  0  0  0999 V2000
   27.7513   14.5381   18.4766 N   0  0  0  0  0  0  0  0  0  0  0  0
   28.0259   14.6494   19.9412 C   0  0  2  0  0  0  0  0  0  0  0  0
   26.7607   14.9495   20.7530 C   0  0  0  0  0  0  0  0  0  0  0  0
   26.7697   14.9955   21.9923 O   0  0  0  0  0  0  0  0  0  0  0  0
   29.1190   15.6862   20.2140 C   0  0  0  0  0  0  0  0  0  0  0  0
   29.6376   15.6456   21.6334 C   0  0  0  0  0  0  0  0  0  0  0  0
   30.6473   16.7372   21.8929 C   0  0  0  0  0  0  0  0  0  0  0  0
   31.9311   16.4991   21.1052 C   0  0  0  0  0  0  0  0  0  0  0  0
   32.9700   17.5383   21.3379 N   0  0  0  0  0  0  0  0  0  0  0  0
   25.6881   15.1936   20.1919 O   0  0  0  0  0  0  0  0  0  0  0  0
  2  1  1  6  0  0  0
  2  3  1  0  0  0  0
  2  5  1  0  0  0  0
  3  4  1  0  0  0  0
  3 10  1  0  0  0  0
  5  6  1  0  0  0  0
  6  7  1  0  0  0  0
  7  8  1  0  0  0  0
  8  9  1  0  0  0  0
M  END
>  <CHROM.1>
175.41678428,-168.30094362,-176.28428759,-67.85822929,-179.24580740,28.89160998
15.64480474,20.76935493,-2.86546738,0.30293166,1.30452510

>  <Name>
ligand

>  <RI>
0

>  <Rbt.Current_Directory>
/home/itssahil/PROJECTS/Mol_Feturizer/New_Systems/rnas/3DIY

>  <Rbt.Executable>
rbdock ($Id: //depot/dev/client3/rdock/2013.1/src/exe/rbdock.cxx#4 $)

>  <Rbt.Library>
libRbt.so (2013.1, Build901 2013/11/27)

>  <Rbt.Parameter_File>
/export/apps/rDock/src/rDock_2013.1_src/data/scripts/dock_solv.prm

>  <Rbt.Receptor>
prm/pocket_docking_7.prm

>  <SCORE>
-9.14552

>  <SCORE.INTER>
-9.15075

>  <SCORE.INTER.CONST>
1

>  <SCORE.INTER.POLAR>
0

>  <SCORE.INTER.ROT>
5

>  <SCORE.INTER.SOLV>
13.4863

>  <SCORE.INTER.VDW>
-17.5293

>  <SCORE.INTER.norm>
-0.915075

>  <SCORE.INTRA>
0.0052235

>  <SCORE.INTRA.DIHEDRAL>
-0.250195

>  <SCORE.INTRA.DIHEDRAL.0>
2.56603

>  <SCORE.INTRA.POLAR>
0

>  <SCORE.INTRA.POLAR.0>
0

>  <SCORE.INTRA.REPUL>
0

>  <SCORE.INTRA.REPUL.0>
0

>  <SCORE.INTRA.SOLV>
-1.33842

>  <SCORE.INTRA.SOLV.lig_0>
-32.0799

>  <SCORE.INTRA.VDW>
0.799532

>  <SCORE.INTRA.VDW.0>
-0.618248

>  <SCORE.INTRA.norm>
0.00052235

>  <SCORE.RESTR>
0

>  <SCORE.RESTR.CAVITY>
0

>  <SCORE.RESTR.norm>
0

>  <SCORE.SYSTEM>
0

>  <SCORE.SYSTEM.CONST>
0

>  <SCORE.SYSTEM.DIHEDRAL>
0

>  <SCORE.SYSTEM.SOLV>
0

>  <SCORE.SYSTEM.norm>
0

>  <SCORE.heavy>
10

>  <SCORE.norm>
-0.914552

>  <RMSD>
5.414

$$$$
ligand
 OpenBabel11021811473D
libRbt.so/2013.1/901 2013/11/27
 10  9  0  0  0  0  0  0  0  0999 V2000
   28.0454   15.4095   18.7595 N   0  0  0  0  0  0  0  0  0  0  0  0
   28.0653   14.6530   20.0481 C   0  0  2  0  0  0  0  0  0  0  0  0
   26.8516   14.9670   20.9302 C   0  0  0  0  0  0  0  0  0  0  0  0
   26.9553   15.1425   22.1535 O   0  0  0  0  0  0  0  0  0  0  0  0
   29.3761   14.8939   20.8017 C   0  0  0  0  0  0  0  0  0  0  0  0
   29.6620   16.3580   21.0466 C   0  0  0  0  0  0  0  0  0  0  0  0
   31.0040   16.5646   21.7059 C   0  0  0  0  0  0  0  0  0  0  0  0
   31.3015   18.0479   21.8975 C   0  0  0  0  0  0  0  0  0  0  0  0
   32.6675   18.3149   22.4227 N   0  0  0  0  0  0  0  0  0  0  0  0
   25.7250   15.0926   20.4405 O   0  0  0  0  0  0  0  0  0  0  0  0
  2  1  1  6  0  0  0
  2  3  1  0  0  0  0
  2  5  1  0  0  0  0
  3  4  1  0  0  0  0
  3 10  1  0  0  0  0
  5  6  1  0  0  0  0
  6  7  1  0  0  0  0
  7  8  1  0  0  0  0
  8  9  1  0  0  0  0
M  END
>  <CHROM.1>
-137.47856876,55.33465297,-176.08491125,177.81773835,-174.41532709,28.92821136
15.94421376,21.03670818,-2.73704216,0.40146257,1.24223295

>  <Name>
ligand

>  <RI>
0

>  <Rbt.Current_Directory>
/home/itssahil/PROJECTS/Mol_Feturizer/New_Systems/rnas/3DIY

>  <Rbt.Executable>
rbdock ($Id: //depot/dev/client3/rdock/2013.1/src/exe/rbdock.cxx#4 $)

>  <Rbt.Library>
libRbt.so (2013.1, Build901 2013/11/27)

>  <Rbt.Parameter_File>
/export/apps/rDock/src/rDock_2013.1_src/data/scripts/dock_solv.prm

>  <Rbt.Receptor>
prm/blind_docking_100.prm

>  <SCORE>
-9.46427

>  <SCORE.INTER>
-9.35007

>  <SCORE.INTER.CONST>
1

>  <SCORE.INTER.POLAR>
0

>  <SCORE.INTER.ROT>
5

>  <SCORE.INTER.SOLV>
12.6942

>  <SCORE.INTER.VDW>
-17.3981

>  <SCORE.INTER.norm>
-0.935007

>  <SCORE.INTRA>
-0.114196

>  <SCORE.INTRA.DIHEDRAL>
-0.664049

>  <SCORE.INTRA.DIHEDRAL.0>
2.56603

>  <SCORE.INTRA.POLAR>
0

>  <SCORE.INTRA.POLAR.0>
0

>  <SCORE.INTRA.REPUL>
0

>  <SCORE.INTRA.REPUL.0>
0

>  <SCORE.INTRA.SOLV>
-0.594511

>  <SCORE.INTRA.SOLV.lig_0>
-32.0799

>  <SCORE.INTRA.VDW>
0.515084

>  <SCORE.INTRA.VDW.0>
-0.618248

>  <SCORE.INTRA.norm>
-0.0114196

>  <SCORE.RESTR>
0

>  <SCORE.RESTR.CAVITY>
0

>  <SCORE.RESTR.norm>
0

>  <SCORE.SYSTEM>
0

>  <SCORE.SYSTEM.CONST>
0

>  <SCORE.SYSTEM.DIHEDRAL>
0

>  <SCORE.SYSTEM.SOLV>
0

>  <SCORE.SYSTEM.norm>
0

>  <SCORE.heavy>
10

>  <SCORE.norm>
-0.946427

>  <RMSD>
5.415

$$$$
ligand
 OpenBabel11021811473D
libRbt.so/2013.1/901 2013/11/27
 10  9  0  0  0  0  0  0  0  0999 V2000
   27.6444   15.2643   18.5500 N   0  0  0  0  0  0  0  0  0  0  0  0
   28.0034   14.9951   19.9754 C   0  0  2  0  0  0  0  0  0  0  0  0
   26.7844   15.0356   20.9039 C   0  0  0  0  0  0  0  0  0  0  0  0
   25.6241   14.9845   20.4689 O   0  0  0  0  0  0  0  0  0  0  0  0
   29.0968   15.9547   20.4530 C   0  0  0  0  0  0  0  0  0  0  0  0
   29.8504   15.4453   21.6604 C   0  0  0  0  0  0  0  0  0  0  0  0
   30.8827   16.4382   22.1369 C   0  0  0  0  0  0  0  0  0  0  0  0
   32.0006   16.6051   21.1134 C   0  0  0  0  0  0  0  0  0  0  0  0
   33.0249   17.6072   21.5133 N   0  0  0  0  0  0  0  0  0  0  0  0
   26.9204   15.0844   22.1303 O   0  0  0  0  0  0  0  0  0  0  0  0
  2  1  1  6  0  0  0
  2  3  1  0  0  0  0
  2  5  1  0  0  0  0
  3  4  1  0  0  0  0
  3 10  1  0  0  0  0
  5  6  1  0  0  0  0
  6  7  1  0  0  0  0
  7  8  1  0  0  0  0
  8  9  1  0  0  0  0
M  END
>  <CHROM.1>
15.62340267,-159.03721419,-177.76577149,-66.74345353,178.13710869,28.94543436
15.73688869,20.90857075,-2.95958180,0.32924385,1.56431346

>  <Name>
ligand

>  <RI>
0

>  <Rbt.Current_Directory>
/home/itssahil/PROJECTS/Mol_Feturizer/New_Systems/rnas/3DIY

>  <Rbt.Executable>
rbdock ($Id: //depot/dev/client3/rdock/2013.1/src/exe/rbdock.cxx#4 $)

>  <Rbt.Library>
libRbt.so (2013.1, Build901 2013/11/27)

>  <Rbt.Parameter_File>
/export/apps/rDock/src/rDock_2013.1_src/data/scripts/dock_solv.prm

>  <Rbt.Receptor>
prm/pocket_docking_6.prm

>  <SCORE>
-9.1391

>  <SCORE.INTER>
-9.71752

>  <SCORE.INTER.CONST>
1

>  <SCORE.INTER.POLAR>
0

>  <SCORE.INTER.ROT>
5

>  <SCORE.INTER.SOLV>
13.0209

>  <SCORE.INTER.VDW>
-17.752

>  <SCORE.INTER.norm>
-0.971752

>  <SCORE.INTRA>
0.578416

>  <SCORE.INTRA.DIHEDRAL>
0.644874

>  <SCORE.INTRA.DIHEDRAL.0>
2.56603

>  <SCORE.INTRA.POLAR>
0

>  <SCORE.INTRA.POLAR.0>
0

>  <SCORE.INTRA.REPUL>
0

>  <SCORE.INTRA.REPUL.0>
0

>  <SCORE.INTRA.SOLV>
-1.30624

>  <SCORE.INTRA.SOLV.lig_0>
-32.0799

>  <SCORE.INTRA.VDW>
0.909098

>  <SCORE.INTRA.VDW.0>
-0.618248

>  <SCORE.INTRA.norm>
0.0578416

>  <SCORE.RESTR>
0

>  <SCORE.RESTR.CAVITY>
0

>  <SCORE.RESTR.norm>
0

>  <SCORE.SYSTEM>
0

>  <SCORE.SYSTEM.CONST>
0

>  <SCORE.SYSTEM.DIHEDRAL>
0

>  <SCORE.SYSTEM.SOLV>
0

>  <SCORE.SYSTEM.norm>
0

>  <SCORE.heavy>
10

>  <SCORE.norm>
-0.91391

>  <RMSD>
5.415

$$$$
ligand
 OpenBabel11021811473D
libRbt.so/2013.1/901 2013/11/27
 10  9  0  0  0  0  0  0  0  0999 V2000
   27.7457   14.5678   18.4985 N   0  0  0  0  0  0  0  0  0  0  0  0
   28.0177   14.6700   19.9643 C   0  0  2  0  0  0  0  0  0  0  0  0
   26.7520   14.9707   20.7751 C   0  0  0  0  0  0  0  0  0  0  0  0
   25.6528   15.1597   20.2329 O   0  0  0  0  0  0  0  0  0  0  0  0
   29.1144   15.7010   20.2449 C   0  0  0  0  0  0  0  0  0  0  0  0
   29.6431   15.6380   21.6598 C   0  0  0  0  0  0  0  0  0  0  0  0
   30.6540   16.7260   21.9295 C   0  0  0  0  0  0  0  0  0  0  0  0
   31.9288   16.5064   21.1220 C   0  0  0  0  0  0  0  0  0  0  0  0
   32.9509   17.5674   21.3287 N   0  0  0  0  0  0  0  0  0  0  0  0
   26.7792   14.9988   22.0094 O   0  0  0  0  0  0  0  0  0  0  0  0
  2  1  1  6  0  0  0
  2  3  1  0  0  0  0
  2  5  1  0  0  0  0
  3  4  1  0  0  0  0
  3 10  1  0  0  0  0
  5  6  1  0  0  0  0
  6  7  1  0  0  0  0
  7  8  1  0  0  0  0
  8  9  1  0  0  0  0
M  END
>  <CHROM.1>
-2.91747760,-167.52031195,-176.15627249,-67.48307905,178.80333928,28.88524896
15.65119184,20.79219704,-2.87211983,0.30767122,1.31605773

>  <Name>
ligand

>  <RI>
0

>  <Rbt.Current_Directory>
/home/itssahil/PROJECTS/Mol_Feturizer/New_Systems/rnas/3DIY

>  <Rbt.Executable>
rbdock ($Id: //depot/dev/client3/rdock/2013.1/src/exe/rbdock.cxx#4 $)

>  <Rbt.Library>
libRbt.so (2013.1, Build901 2013/11/27)

>  <Rbt.Parameter_File>
/export/apps/rDock/src/rDock_2013.1_src/data/scripts/dock_solv.prm

>  <Rbt.Receptor>
prm/pocket_docking_6.prm

>  <SCORE>
-9.10861

>  <SCORE.INTER>
-9.1854

>  <SCORE.INTER.CONST>
1

>  <SCORE.INTER.POLAR>
0

>  <SCORE.INTER.ROT>
5

>  <SCORE.INTER.SOLV>
13.409

>  <SCORE.INTER.VDW>
-17.5266

>  <SCORE.INTER.norm>
-0.91854

>  <SCORE.INTRA>
0.0767939

>  <SCORE.INTRA.DIHEDRAL>
-0.156712

>  <SCORE.INTRA.DIHEDRAL.0>
2.56603

>  <SCORE.INTRA.POLAR>
0

>  <SCORE.INTRA.POLAR.0>
0

>  <SCORE.INTRA.REPUL>
0

>  <SCORE.INTRA.REPUL.0>
0

>  <SCORE.INTRA.SOLV>
-1.32797

>  <SCORE.INTRA.SOLV.lig_0>
-32.0799

>  <SCORE.INTRA.VDW>
0.819133

>  <SCORE.INTRA.VDW.0>
-0.618248

>  <SCORE.INTRA.norm>
0.00767939

>  <SCORE.RESTR>
0

>  <SCORE.RESTR.CAVITY>
0

>  <SCORE.RESTR.norm>
0

>  <SCORE.SYSTEM>
0

>  <SCORE.SYSTEM.CONST>
0

>  <SCORE.SYSTEM.DIHEDRAL>
0

>  <SCORE.SYSTEM.SOLV>
0

>  <SCORE.SYSTEM.norm>
0

>  <SCORE.heavy>
10

>  <SCORE.norm>
-0.910861

>  <RMSD>
5.417

$$$$
ligand
 OpenBabel11021811473D
libRbt.so/2013.1/901 2013/11/27
 10  9  0  0  0  0  0  0  0  0999 V2000
   28.5467   14.5077   18.7015 N   0  0  0  0  0  0  0  0  0  0  0  0
   28.0419   14.2925   20.0915 C   0  0  2  0  0  0  0  0  0  0  0  0
   26.7264   15.0331   20.3579 C   0  0  0  0  0  0  0  0  0  0  0  0
   25.9923   14.7463   21.3154 O   0  0  0  0  0  0  0  0  0  0  0  0
   29.1089   14.6681   21.1234 C   0  0  0  0  0  0  0  0  0  0  0  0
   29.5798   16.0993   20.9993 C   0  0  0  0  0  0  0  0  0  0  0  0
   30.7997   16.3637   21.8480 C   0  0  0  0  0  0  0  0  0  0  0  0
   31.2969   17.7940   21.6681 C   0  0  0  0  0  0  0  0  0  0  0  0
   32.6047   18.0538   22.3280 N   0  0  0  0  0  0  0  0  0  0  0  0
   26.3695   15.9732   19.6412 O   0  0  0  0  0  0  0  0  0  0  0  0
  2  1  1  6  0  0  0
  2  3  1  0  0  0  0
  2  5  1  0  0  0  0
  3  4  1  0  0  0  0
  3 10  1  0  0  0  0
  5  6  1  0  0  0  0
  6  7  1  0  0  0  0
  7  8  1  0  0  0  0
  8  9  1  0  0  0  0
M  END
>  <CHROM.1>
162.89538740,57.75517732,-169.38758107,177.64630320,-171.78378106,28.86730390
15.76272887,20.80984586,-2.58869751,0.13858371,0.83006434

>  <Name>
ligand

>  <RI>
0

>  <Rbt.Current_Directory>
/home/itssahil/PROJECTS/Mol_Feturizer/New_Systems/rnas/3DIY

>  <Rbt.Executable>
rbdock ($Id: //depot/dev/client3/rdock/2013.1/src/exe/rbdock.cxx#4 $)

>  <Rbt.Library>
libRbt.so (2013.1, Build901 2013/11/27)

>  <Rbt.Parameter_File>
/export/apps/rDock/src/rDock_2013.1_src/data/scripts/dock_solv.prm

>  <Rbt.Receptor>
prm/pocket_docking_8.prm

>  <SCORE>
-9.09722

>  <SCORE.INTER>
-8.53101

>  <SCORE.INTER.CONST>
1

>  <SCORE.INTER.POLAR>
0

>  <SCORE.INTER.ROT>
5

>  <SCORE.INTER.SOLV>
13.5918

>  <SCORE.INTER.VDW>
-17.1513

>  <SCORE.INTER.norm>
-0.853101

>  <SCORE.INTRA>
-0.566214

>  <SCORE.INTRA.DIHEDRAL>
-0.32657

>  <SCORE.INTRA.DIHEDRAL.0>
2.56603

>  <SCORE.INTRA.POLAR>
0

>  <SCORE.INTRA.POLAR.0>
0

>  <SCORE.INTRA.REPUL>
0

>  <SCORE.INTRA.REPUL.0>
0

>  <SCORE.INTRA.SOLV>
-0.581425

>  <SCORE.INTRA.SOLV.lig_0>
-32.0799

>  <SCORE.INTRA.VDW>
-0.112216

>  <SCORE.INTRA.VDW.0>
-0.618248

>  <SCORE.INTRA.norm>
-0.0566214

>  <SCORE.RESTR>
0

>  <SCORE.RESTR.CAVITY>
0

>  <SCORE.RESTR.norm>
0

>  <SCORE.SYSTEM>
0

>  <SCORE.SYSTEM.CONST>
0

>  <SCORE.SYSTEM.DIHEDRAL>
0

>  <SCORE.SYSTEM.SOLV>
0

>  <SCORE.SYSTEM.norm>
0

>  <SCORE.heavy>
10

>  <SCORE.norm>
-0.909722

>  <RMSD>
5.418

$$$$
ligand
 OpenBabel11021811473D
libRbt.so/2013.1/901 2013/11/27
 10  9  0  0  0  0  0  0  0  0999 V2000
   28.5729   13.9412   21.5767 N   0  0  0  0  0  0  0  0  0  0  0  0
   27.9981   15.3017   21.3489 C   0  0  2  0  0  0  0  0  0  0  0  0
   26.8848   15.2980   20.2951 C   0  0  0  0  0  0  0  0  0  0  0  0
   27.1153   15.5035   19.0939 O   0  0  0  0  0  0  0  0  0  0  0  0
   29.0976   16.3053   20.9909 C   0  0  0  0  0  0  0  0  0  0  0  0
   30.1149   16.4926   22.0933 C   0  0  0  0  0  0  0  0  0  0  0  0
   31.2922   17.3189   21.6354 C   0  0  0  0  0  0  0  0  0  0  0  0
   32.1735   16.5347   20.6691 C   0  0  0  0  0  0  0  0  0  0  0  0
   33.4210   17.2514   20.2906 N   0  0  0  0  0  0  0  0  0  0  0  0
   25.7155   15.0517   20.6062 O   0  0  0  0  0  0  0  0  0  0  0  0
  2  1  1  6  0  0  0
  2  3  1  0  0  0  0
  2  5  1  0  0  0  0
  3  4  1  0  0  0  0
  3 10  1  0  0  0  0
  5  6  1  0  0  0  0
  6  7  1  0  0  0  0
  7  8  1  0  0  0  0
  8  9  1  0  0  0  0
M  END
>  <CHROM.1>
-91.78380369,-62.42567708,171.27325536,-71.74820209,-174.25983285,29.20163009
15.89546824,20.83633619,-3.11807529,-0.34295932,-1.23521453

>  <Name>
ligand

>  <RI>
0

>  <Rbt.Current_Directory>
/home/itssahil/PROJECTS/Mol_Feturizer/New_Systems/rnas/3DIY

>  <Rbt.Executable>
rbdock ($Id: //depot/dev/client3/rdock/2013.1/src/exe/rbdock.cxx#4 $)

>  <Rbt.Library>
libRbt.so (2013.1, Build901 2013/11/27)

>  <Rbt.Parameter_File>
/export/apps/rDock/src/rDock_2013.1_src/data/scripts/dock_solv.prm

>  <Rbt.Receptor>
prm/pocket_docking_2.prm

>  <SCORE>
-6.44632

>  <SCORE.INTER>
-6.86328

>  <SCORE.INTER.CONST>
1

>  <SCORE.INTER.POLAR>
0

>  <SCORE.INTER.ROT>
5

>  <SCORE.INTER.SOLV>
18.1042

>  <SCORE.INTER.VDW>
-17.5436

>  <SCORE.INTER.norm>
-0.686328

>  <SCORE.INTRA>
0.416958

>  <SCORE.INTRA.DIHEDRAL>
-0.0699678

>  <SCORE.INTRA.DIHEDRAL.0>
2.56603

>  <SCORE.INTRA.POLAR>
0

>  <SCORE.INTRA.POLAR.0>
0

>  <SCORE.INTRA.REPUL>
0

>  <SCORE.INTRA.REPUL.0>
0

>  <SCORE.INTRA.SOLV>
-0.345737

>  <SCORE.INTRA.SOLV.lig_0>
-32.0799

>  <SCORE.INTRA.VDW>
0.624811

>  <SCORE.INTRA.VDW.0>
-0.618248

>  <SCORE.INTRA.norm>
0.0416958

>  <SCORE.RESTR>
0

>  <SCORE.RESTR.CAVITY>
0

>  <SCORE.RESTR.norm>
0

>  <SCORE.SYSTEM>
0

>  <SCORE.SYSTEM.CONST>
0

>  <SCORE.SYSTEM.DIHEDRAL>
0

>  <SCORE.SYSTEM.SOLV>
0

>  <SCORE.SYSTEM.norm>
0

>  <SCORE.heavy>
10

>  <SCORE.norm>
-0.644632

>  <RMSD>
5.419

$$$$
ligand
 OpenBabel11021811473D
libRbt.so/2013.1/901 2013/11/27
 10  9  0  0  0  0  0  0  0  0999 V2000
   28.7056   15.5592   19.0150 N   0  0  0  0  0  0  0  0  0  0  0  0
   28.2532   15.0146   20.3310 C   0  0  2  0  0  0  0  0  0  0  0  0
   26.7286   15.0511   20.4869 C   0  0  0  0  0  0  0  0  0  0  0  0
   26.1624   14.6458   21.5131 O   0  0  0  0  0  0  0  0  0  0  0  0
   28.9467   15.7385   21.4883 C   0  0  0  0  0  0  0  0  0  0  0  0
   30.4544   15.6431   21.4324 C   0  0  0  0  0  0  0  0  0  0  0  0
   31.0340   16.5415   20.3668 C   0  0  0  0  0  0  0  0  0  0  0  0
   32.5583   16.5026   20.3823 C   0  0  0  0  0  0  0  0  0  0  0  0
   33.1532   17.0913   21.6123 N   0  0  0  0  0  0  0  0  0  0  0  0
   26.0099   15.5240   19.6010 O   0  0  0  0  0  0  0  0  0  0  0  0
  2  1  1  6  0  0  0
  2  3  1  0  0  0  0
  2  5  1  0  0  0  0
  3  4  1  0  0  0  0
  3 10  1  0  0  0  0
  5  6  1  0  0  0  0
  6  7  1  0  0  0  0
  7  8  1  0  0  0  0
  8  9  1  0  0  0  0
M  END
>  <CHROM.1>
-179.76714521,-58.25890717,74.73959749,176.34287257,-66.68779092,29.15515620
15.72775782,20.62520088,-3.08890964,0.27315564,1.72067531

>  <Name>
ligand

>  <RI>
0

>  <Rbt.Current_Directory>
/home/itssahil/PROJECTS/Mol_Feturizer/New_Systems/rnas/3DIY

>  <Rbt.Executable>
rbdock ($Id: //depot/dev/client3/rdock/2013.1/src/exe/rbdock.cxx#4 $)

>  <Rbt.Library>
libRbt.so (2013.1, Build901 2013/11/27)

>  <Rbt.Parameter_File>
/export/apps/rDock/src/rDock_2013.1_src/data/scripts/dock_solv.prm

>  <Rbt.Receptor>
prm/pocket_docking_3.prm

>  <SCORE>
-7.77491

>  <SCORE.INTER>
-9.25531

>  <SCORE.INTER.CONST>
1

>  <SCORE.INTER.POLAR>
0

>  <SCORE.INTER.ROT>
5

>  <SCORE.INTER.SOLV>
11.8324

>  <SCORE.INTER.VDW>
-17.0477

>  <SCORE.INTER.norm>
-0.925531

>  <SCORE.INTRA>
1.4804

>  <SCORE.INTRA.DIHEDRAL>
0.065219

>  <SCORE.INTRA.DIHEDRAL.0>
2.56603

>  <SCORE.INTRA.POLAR>
0

>  <SCORE.INTRA.POLAR.0>
0

>  <SCORE.INTRA.REPUL>
0

>  <SCORE.INTRA.REPUL.0>
0

>  <SCORE.INTRA.SOLV>
1.72905

>  <SCORE.INTRA.SOLV.lig_0>
-32.0799

>  <SCORE.INTRA.VDW>
0.583269

>  <SCORE.INTRA.VDW.0>
-0.618248

>  <SCORE.INTRA.norm>
0.14804

>  <SCORE.RESTR>
0

>  <SCORE.RESTR.CAVITY>
0

>  <SCORE.RESTR.norm>
0

>  <SCORE.SYSTEM>
0

>  <SCORE.SYSTEM.CONST>
0

>  <SCORE.SYSTEM.DIHEDRAL>
0

>  <SCORE.SYSTEM.SOLV>
0

>  <SCORE.SYSTEM.norm>
0

>  <SCORE.heavy>
10

>  <SCORE.norm>
-0.777491

>  <RMSD>
5.419

$$$$
ligand
 OpenBabel11021811473D
libRbt.so/2013.1/901 2013/11/27
 10  9  0  0  0  0  0  0  0  0999 V2000
   28.6003   14.2630   18.8122 N   0  0  0  0  0  0  0  0  0  0  0  0
   27.9551   14.3437   20.1576 C   0  0  2  0  0  0  0  0  0  0  0  0
   26.7181   15.2491   20.1604 C   0  0  0  0  0  0  0  0  0  0  0  0
   26.6889   16.3250   19.5445 O   0  0  0  0  0  0  0  0  0  0  0  0
   28.9654   14.7815   21.2216 C   0  0  0  0  0  0  0  0  0  0  0  0
   29.5872   16.1291   20.9337 C   0  0  0  0  0  0  0  0  0  0  0  0
   30.7160   16.4406   21.8862 C   0  0  0  0  0  0  0  0  0  0  0  0
   31.3978   17.7550   21.5218 C   0  0  0  0  0  0  0  0  0  0  0  0
   32.5981   18.0490   22.3500 N   0  0  0  0  0  0  0  0  0  0  0  0
   25.6871   14.9153   20.7525 O   0  0  0  0  0  0  0  0  0  0  0  0
  2  1  1  6  0  0  0
  2  3  1  0  0  0  0
  2  5  1  0  0  0  0
  3  4  1  0  0  0  0
  3 10  1  0  0  0  0
  5  6  1  0  0  0  0
  6  7  1  0  0  0  0
  7  8  1  0  0  0  0
  8  9  1  0  0  0  0
M  END
>  <CHROM.1>
-40.83067247,59.09126937,-171.77814413,175.91545043,-174.62653754,28.85306117
15.83811469,20.73003038,-2.58662135,-0.10159245,0.49740031

>  <Name>
ligand

>  <RI>
0

>  <Rbt.Current_Directory>
/home/itssahil/PROJECTS/Mol_Feturizer/New_Systems/rnas/3DIY

>  <Rbt.Executable>
rbdock ($Id: //depot/dev/client3/rdock/2013.1/src/exe/rbdock.cxx#4 $)

>  <Rbt.Library>
libRbt.so (2013.1, Build901 2013/11/27)

>  <Rbt.Parameter_File>
/export/apps/rDock/src/rDock_2013.1_src/data/scripts/dock_solv.prm

>  <Rbt.Receptor>
prm/pocket_docking_4.prm

>  <SCORE>
-9.07178

>  <SCORE.INTER>
-8.35957

>  <SCORE.INTER.CONST>
1

>  <SCORE.INTER.POLAR>
0

>  <SCORE.INTER.ROT>
5

>  <SCORE.INTER.SOLV>
14.1331

>  <SCORE.INTER.VDW>
-17.2174

>  <SCORE.INTER.norm>
-0.835957

>  <SCORE.INTRA>
-0.712209

>  <SCORE.INTRA.DIHEDRAL>
-0.504078

>  <SCORE.INTRA.DIHEDRAL.0>
2.56603

>  <SCORE.INTRA.POLAR>
0

>  <SCORE.INTRA.POLAR.0>
0

>  <SCORE.INTRA.REPUL>
0

>  <SCORE.INTRA.REPUL.0>
0

>  <SCORE.INTRA.SOLV>
-0.620496

>  <SCORE.INTRA.SOLV.lig_0>
-32.0799

>  <SCORE.INTRA.VDW>
-0.149921

>  <SCORE.INTRA.VDW.0>
-0.618248

>  <SCORE.INTRA.norm>
-0.0712209

>  <SCORE.RESTR>
0

>  <SCORE.RESTR.CAVITY>
0

>  <SCORE.RESTR.norm>
0

>  <SCORE.SYSTEM>
0

>  <SCORE.SYSTEM.CONST>
0

>  <SCORE.SYSTEM.DIHEDRAL>
0

>  <SCORE.SYSTEM.SOLV>
0

>  <SCORE.SYSTEM.norm>
0

>  <SCORE.heavy>
10

>  <SCORE.norm>
-0.907178

>  <RMSD>
5.420

$$$$
ligand
 OpenBabel11021811473D
libRbt.so/2013.1/901 2013/11/27
 10  9  0  0  0  0  0  0  0  0999 V2000
   25.6369   14.9670   20.4192 N   0  0  0  0  0  0  0  0  0  0  0  0
   26.9570   15.5832   20.0866 C   0  0  2  0  0  0  0  0  0  0  0  0
   27.4299   15.2269   18.6726 C   0  0  0  0  0  0  0  0  0  0  0  0
   28.1345   15.9957   18.0014 O   0  0  0  0  0  0  0  0  0  0  0  0
   28.0109   15.2132   21.1338 C   0  0  0  0  0  0  0  0  0  0  0  0
   29.2805   16.0250   21.0138 C   0  0  0  0  0  0  0  0  0  0  0  0
   30.3354   15.5636   21.9898 C   0  0  0  0  0  0  0  0  0  0  0  0
   31.5845   16.4341   21.9037 C   0  0  0  0  0  0  0  0  0  0  0  0
   32.2477   16.3881   20.5728 N   0  0  0  0  0  0  0  0  0  0  0  0
   27.1520   14.1360   18.1652 O   0  0  0  0  0  0  0  0  0  0  0  0
  2  1  1  1  0  0  0
  2  3  1  0  0  0  0
  2  5  1  0  0  0  0
  3  4  1  0  0  0  0
  3 10  1  0  0  0  0
  5  6  1  0  0  0  0
  6  7  1  0  0  0  0
  7  8  1  0  0  0  0
  8  9  1  0  0  0  0
M  END
>  <CHROM.1>
149.54309737,-168.20699410,-175.61099865,-177.25495809,-62.01388686,28.67804394
15.54405505,20.15929100,2.67115251,-0.24834626,-1.59961074

>  <Name>
ligand

>  <RI>
0

>  <Rbt.Current_Directory>
/home/itssahil/PROJECTS/Mol_Feturizer/New_Systems/rnas/3DIY

>  <Rbt.Executable>
rbdock ($Id: //depot/dev/client3/rdock/2013.1/src/exe/rbdock.cxx#4 $)

>  <Rbt.Library>
libRbt.so (2013.1, Build901 2013/11/27)

>  <Rbt.Parameter_File>
/export/apps/rDock/src/rDock_2013.1_src/data/scripts/dock_solv.prm

>  <Rbt.Receptor>
prm/pocket_docking_7.prm

>  <SCORE>
-8.74843

>  <SCORE.INTER>
-8.00129

>  <SCORE.INTER.CONST>
1

>  <SCORE.INTER.POLAR>
0

>  <SCORE.INTER.ROT>
5

>  <SCORE.INTER.SOLV>
17.8523

>  <SCORE.INTER.VDW>
-18.2183

>  <SCORE.INTER.norm>
-0.800129

>  <SCORE.INTRA>
-0.747138

>  <SCORE.INTRA.DIHEDRAL>
-0.479304

>  <SCORE.INTRA.DIHEDRAL.0>
2.56603

>  <SCORE.INTRA.POLAR>
0

>  <SCORE.INTRA.POLAR.0>
0

>  <SCORE.INTRA.REPUL>
0

>  <SCORE.INTRA.REPUL.0>
0

>  <SCORE.INTRA.SOLV>
-0.683756

>  <SCORE.INTRA.SOLV.lig_0>
-32.0799

>  <SCORE.INTRA.VDW>
-0.165609

>  <SCORE.INTRA.VDW.0>
-0.618248

>  <SCORE.INTRA.norm>
-0.0747138

>  <SCORE.RESTR>
0

>  <SCORE.RESTR.CAVITY>
0

>  <SCORE.RESTR.norm>
0

>  <SCORE.SYSTEM>
0

>  <SCORE.SYSTEM.CONST>
0

>  <SCORE.SYSTEM.DIHEDRAL>
0

>  <SCORE.SYSTEM.SOLV>
0

>  <SCORE.SYSTEM.norm>
0

>  <SCORE.heavy>
10

>  <SCORE.norm>
-0.874843

>  <RMSD>
5.423

$$$$
ligand
 OpenBabel11021811473D
libRbt.so/2013.1/901 2013/11/27
 10  9  0  0  0  0  0  0  0  0999 V2000
   27.9484   14.6029   18.6051 N   0  0  0  0  0  0  0  0  0  0  0  0
   28.1470   14.7500   20.0788 C   0  0  2  0  0  0  0  0  0  0  0  0
   26.8335   15.0160   20.8230 C   0  0  0  0  0  0  0  0  0  0  0  0
   26.7906   15.1473   22.0555 O   0  0  0  0  0  0  0  0  0  0  0  0
   29.1864   15.8321   20.3838 C   0  0  0  0  0  0  0  0  0  0  0  0
   30.5972   15.4191   20.0310 C   0  0  0  0  0  0  0  0  0  0  0  0
   31.5877   16.5281   20.2910 C   0  0  0  0  0  0  0  0  0  0  0  0
   31.7766   16.7591   21.7864 C   0  0  0  0  0  0  0  0  0  0  0  0
   32.7204   17.8654   22.1001 N   0  0  0  0  0  0  0  0  0  0  0  0
   25.7699   15.1457   20.2093 O   0  0  0  0  0  0  0  0  0  0  0  0
  2  1  1  6  0  0  0
  2  3  1  0  0  0  0
  2  5  1  0  0  0  0
  3  4  1  0  0  0  0
  3 10  1  0  0  0  0
  5  6  1  0  0  0  0
  6  7  1  0  0  0  0
  7  8  1  0  0  0  0
  8  9  1  0  0  0  0
M  END
>  <CHROM.1>
178.92533129,-71.44342343,177.65478152,70.50681916,-178.63959272,29.09554888
15.70745548,20.65166737,-2.84834622,0.27983147,1.17833557

>  <Name>
ligand

>  <RI>
0

>  <Rbt.Current_Directory>
/home/itssahil/PROJECTS/Mol_Feturizer/New_Systems/rnas/3DIY

>  <Rbt.Executable>
rbdock ($Id: //depot/dev/client3/rdock/2013.1/src/exe/rbdock.cxx#4 $)

>  <Rbt.Library>
libRbt.so (2013.1, Build901 2013/11/27)

>  <Rbt.Parameter_File>
/export/apps/rDock/src/rDock_2013.1_src/data/scripts/dock_solv.prm

>  <Rbt.Receptor>
prm/pocket_docking_6.prm

>  <SCORE>
-8.63373

>  <SCORE.INTER>
-8.80076

>  <SCORE.INTER.CONST>
1

>  <SCORE.INTER.POLAR>
0

>  <SCORE.INTER.ROT>
5

>  <SCORE.INTER.SOLV>
12.5459

>  <SCORE.INTER.VDW>
-16.9825

>  <SCORE.INTER.norm>
-0.880076

>  <SCORE.INTRA>
0.167034

>  <SCORE.INTRA.DIHEDRAL>
-0.0297743

>  <SCORE.INTRA.DIHEDRAL.0>
2.56603

>  <SCORE.INTRA.POLAR>
0

>  <SCORE.INTRA.POLAR.0>
0

>  <SCORE.INTRA.REPUL>
0

>  <SCORE.INTRA.REPUL.0>
0

>  <SCORE.INTRA.SOLV>
-0.564285

>  <SCORE.INTRA.SOLV.lig_0>
-32.0799

>  <SCORE.INTRA.VDW>
0.464064

>  <SCORE.INTRA.VDW.0>
-0.618248

>  <SCORE.INTRA.norm>
0.0167034

>  <SCORE.RESTR>
0

>  <SCORE.RESTR.CAVITY>
0

>  <SCORE.RESTR.norm>
0

>  <SCORE.SYSTEM>
0

>  <SCORE.SYSTEM.CONST>
0

>  <SCORE.SYSTEM.DIHEDRAL>
0

>  <SCORE.SYSTEM.SOLV>
0

>  <SCORE.SYSTEM.norm>
0

>  <SCORE.heavy>
10

>  <SCORE.norm>
-0.863373

>  <RMSD>
5.425

$$$$
ligand
 OpenBabel11021811473D
libRbt.so/2013.1/901 2013/11/27
 10  9  0  0  0  0  0  0  0  0999 V2000
   27.9363   14.7523   18.5841 N   0  0  0  0  0  0  0  0  0  0  0  0
   28.1437   14.7926   20.0635 C   0  0  2  0  0  0  0  0  0  0  0  0
   26.8386   15.0316   20.8313 C   0  0  0  0  0  0  0  0  0  0  0  0
   25.7449   15.1306   20.2550 O   0  0  0  0  0  0  0  0  0  0  0  0
   29.2053   15.8306   20.4373 C   0  0  0  0  0  0  0  0  0  0  0  0
   30.6032   15.4274   20.0264 C   0  0  0  0  0  0  0  0  0  0  0  0
   31.6032   16.5279   20.2858 C   0  0  0  0  0  0  0  0  0  0  0  0
   31.8171   16.7372   21.7810 C   0  0  0  0  0  0  0  0  0  0  0  0
   32.7347   17.8651   22.0959 N   0  0  0  0  0  0  0  0  0  0  0  0
   26.8292   15.0975   22.0644 O   0  0  0  0  0  0  0  0  0  0  0  0
  2  1  1  6  0  0  0
  2  3  1  0  0  0  0
  2  5  1  0  0  0  0
  3  4  1  0  0  0  0
  3 10  1  0  0  0  0
  5  6  1  0  0  0  0
  6  7  1  0  0  0  0
  7  8  1  0  0  0  0
  8  9  1  0  0  0  0
M  END
>  <CHROM.1>
2.23512931,-70.38675781,174.38063811,69.18087115,-176.63351333,29.10546633
15.71862516,20.65845178,-2.86670970,0.28762219,1.21955110

>  <Name>
ligand

>  <RI>
0

>  <Rbt.Current_Directory>
/home/itssahil/PROJECTS/Mol_Feturizer/New_Systems/rnas/3DIY

>  <Rbt.Executable>
rbdock ($Id: //depot/dev/client3/rdock/2013.1/src/exe/rbdock.cxx#4 $)

>  <Rbt.Library>
libRbt.so (2013.1, Build901 2013/11/27)

>  <Rbt.Parameter_File>
/export/apps/rDock/src/rDock_2013.1_src/data/scripts/dock_solv.prm

>  <Rbt.Receptor>
prm/pocket_docking_6.prm

>  <SCORE>
-8.68886

>  <SCORE.INTER>
-8.94014

>  <SCORE.INTER.CONST>
1

>  <SCORE.INTER.POLAR>
0

>  <SCORE.INTER.ROT>
5

>  <SCORE.INTER.SOLV>
12.2942

>  <SCORE.INTER.VDW>
-16.9915

>  <SCORE.INTER.norm>
-0.894014

>  <SCORE.INTRA>
0.251284

>  <SCORE.INTRA.DIHEDRAL>
-0.0678968

>  <SCORE.INTRA.DIHEDRAL.0>
2.56603

>  <SCORE.INTRA.POLAR>
0

>  <SCORE.INTRA.POLAR.0>
0

>  <SCORE.INTRA.REPUL>
0

>  <SCORE.INTRA.REPUL.0>
0

>  <SCORE.INTRA.SOLV>
-0.516145

>  <SCORE.INTRA.SOLV.lig_0>
-32.0799

>  <SCORE.INTRA.VDW>
0.543305

>  <SCORE.INTRA.VDW.0>
-0.618248

>  <SCORE.INTRA.norm>
0.0251284

>  <SCORE.RESTR>
0

>  <SCORE.RESTR.CAVITY>
0

>  <SCORE.RESTR.norm>
0

>  <SCORE.SYSTEM>
0

>  <SCORE.SYSTEM.CONST>
0

>  <SCORE.SYSTEM.DIHEDRAL>
0

>  <SCORE.SYSTEM.SOLV>
0

>  <SCORE.SYSTEM.norm>
0

>  <SCORE.heavy>
10

>  <SCORE.norm>
-0.868886

>  <RMSD>
5.426

$$$$
ligand
 OpenBabel11021811473D
libRbt.so/2013.1/901 2013/11/27
 10  9  0  0  0  0  0  0  0  0999 V2000
   25.6094   15.0281   20.3769 N   0  0  0  0  0  0  0  0  0  0  0  0
   26.9499   15.6001   20.0467 C   0  0  2  0  0  0  0  0  0  0  0  0
   27.4563   15.1492   18.6719 C   0  0  0  0  0  0  0  0  0  0  0  0
   27.1483   14.0510   18.1850 O   0  0  0  0  0  0  0  0  0  0  0  0
   27.9662   15.2775   21.1455 C   0  0  0  0  0  0  0  0  0  0  0  0
   29.2617   16.0433   21.0020 C   0  0  0  0  0  0  0  0  0  0  0  0
   30.2679   15.6450   22.0542 C   0  0  0  0  0  0  0  0  0  0  0  0
   31.5454   16.4692   21.9353 C   0  0  0  0  0  0  0  0  0  0  0  0
   32.2487   16.2874   20.6370 N   0  0  0  0  0  0  0  0  0  0  0  0
   28.1653   15.8880   17.9817 O   0  0  0  0  0  0  0  0  0  0  0  0
  2  1  1  1  0  0  0
  2  3  1  0  0  0  0
  2  5  1  0  0  0  0
  3  4  1  0  0  0  0
  3 10  1  0  0  0  0
  5  6  1  0  0  0  0
  6  7  1  0  0  0  0
  7  8  1  0  0  0  0
  8  9  1  0  0  0  0
M  END
>  <CHROM.1>
-30.12054327,-169.07013773,-176.79797004,-177.46564145,-61.75326369,28.66318125
15.53301681,20.16725866,2.64135949,-0.22219598,-1.66518156

>  <Name>
ligand

>  <RI>
0

>  <Rbt.Current_Directory>
/home/itssahil/PROJECTS/Mol_Feturizer/New_Systems/rnas/3DIY

>  <Rbt.Executable>
rbdock ($Id: //depot/dev/client3/rdock/2013.1/src/exe/rbdock.cxx#4 $)

>  <Rbt.Library>
libRbt.so (2013.1, Build901 2013/11/27)

>  <Rbt.Parameter_File>
/export/apps/rDock/src/rDock_2013.1_src/data/scripts/dock_solv.prm

>  <Rbt.Receptor>
prm/blind_docking_60.prm

>  <SCORE>
-8.77375

>  <SCORE.INTER>
-8.05776

>  <SCORE.INTER.CONST>
1

>  <SCORE.INTER.POLAR>
0

>  <SCORE.INTER.ROT>
5

>  <SCORE.INTER.SOLV>
17.7968

>  <SCORE.INTER.VDW>
-18.2375

>  <SCORE.INTER.norm>
-0.805776

>  <SCORE.INTRA>
-0.715997

>  <SCORE.INTRA.DIHEDRAL>
-0.447881

>  <SCORE.INTRA.DIHEDRAL.0>
2.56603

>  <SCORE.INTRA.POLAR>
0

>  <SCORE.INTRA.POLAR.0>
0

>  <SCORE.INTRA.REPUL>
0

>  <SCORE.INTRA.REPUL.0>
0

>  <SCORE.INTRA.SOLV>
-0.675046

>  <SCORE.INTRA.SOLV.lig_0>
-32.0799

>  <SCORE.INTRA.VDW>
-0.154533

>  <SCORE.INTRA.VDW.0>
-0.618248

>  <SCORE.INTRA.norm>
-0.0715997

>  <SCORE.RESTR>
0

>  <SCORE.RESTR.CAVITY>
0

>  <SCORE.RESTR.norm>
0

>  <SCORE.SYSTEM>
0

>  <SCORE.SYSTEM.CONST>
0

>  <SCORE.SYSTEM.DIHEDRAL>
0

>  <SCORE.SYSTEM.SOLV>
0

>  <SCORE.SYSTEM.norm>
0

>  <SCORE.heavy>
10

>  <SCORE.norm>
-0.877375

>  <RMSD>
5.427

$$$$
ligand
 OpenBabel11021811473D
libRbt.so/2013.1/901 2013/11/27
 10  9  0  0  0  0  0  0  0  0999 V2000
   27.9430   14.7272   18.5961 N   0  0  0  0  0  0  0  0  0  0  0  0
   28.1465   14.7872   20.0753 C   0  0  2  0  0  0  0  0  0  0  0  0
   26.8395   15.0372   20.8365 C   0  0  0  0  0  0  0  0  0  0  0  0
   25.7469   15.1253   20.2563 O   0  0  0  0  0  0  0  0  0  0  0  0
   29.2078   15.8294   20.4381 C   0  0  0  0  0  0  0  0  0  0  0  0
   30.6081   15.4141   20.0483 C   0  0  0  0  0  0  0  0  0  0  0  0
   31.6086   16.5177   20.2922 C   0  0  0  0  0  0  0  0  0  0  0  0
   31.8317   16.7396   21.7843 C   0  0  0  0  0  0  0  0  0  0  0  0
   32.7500   17.8710   22.0840 N   0  0  0  0  0  0  0  0  0  0  0  0
   26.8274   15.1234   22.0682 O   0  0  0  0  0  0  0  0  0  0  0  0
  2  1  1  6  0  0  0
  2  3  1  0  0  0  0
  2  5  1  0  0  0  0
  3  4  1  0  0  0  0
  3 10  1  0  0  0  0
  5  6  1  0  0  0  0
  6  7  1  0  0  0  0
  7  8  1  0  0  0  0
  8  9  1  0  0  0  0
M  END
>  <CHROM.1>
2.44921108,-70.93615823,174.26471922,70.35618894,-176.62688482,29.11073839
15.71683959,20.66379272,-2.86428881,0.28392650,1.20739736

>  <Name>
ligand

>  <RI>
0

>  <Rbt.Current_Directory>
/home/itssahil/PROJECTS/Mol_Feturizer/New_Systems/rnas/3DIY

>  <Rbt.Executable>
rbdock ($Id: //depot/dev/client3/rdock/2013.1/src/exe/rbdock.cxx#4 $)

>  <Rbt.Library>
libRbt.so (2013.1, Build901 2013/11/27)

>  <Rbt.Parameter_File>
/export/apps/rDock/src/rDock_2013.1_src/data/scripts/dock_solv.prm

>  <Rbt.Receptor>
prm/pocket_docking_4.prm

>  <SCORE>
-8.69934

>  <SCORE.INTER>
-8.96762

>  <SCORE.INTER.CONST>
1

>  <SCORE.INTER.POLAR>
0

>  <SCORE.INTER.ROT>
5

>  <SCORE.INTER.SOLV>
12.3378

>  <SCORE.INTER.VDW>
-17.0244

>  <SCORE.INTER.norm>
-0.896762

>  <SCORE.INTRA>
0.268278

>  <SCORE.INTRA.DIHEDRAL>
0.0736472

>  <SCORE.INTRA.DIHEDRAL.0>
2.56603

>  <SCORE.INTRA.POLAR>
0

>  <SCORE.INTRA.POLAR.0>
0

>  <SCORE.INTRA.REPUL>
0

>  <SCORE.INTRA.REPUL.0>
0

>  <SCORE.INTRA.SOLV>
-0.530269

>  <SCORE.INTRA.SOLV.lig_0>
-32.0799

>  <SCORE.INTRA.VDW>
0.496589

>  <SCORE.INTRA.VDW.0>
-0.618248

>  <SCORE.INTRA.norm>
0.0268278

>  <SCORE.RESTR>
0

>  <SCORE.RESTR.CAVITY>
0

>  <SCORE.RESTR.norm>
0

>  <SCORE.SYSTEM>
0

>  <SCORE.SYSTEM.CONST>
0

>  <SCORE.SYSTEM.DIHEDRAL>
0

>  <SCORE.SYSTEM.SOLV>
0

>  <SCORE.SYSTEM.norm>
0

>  <SCORE.heavy>
10

>  <SCORE.norm>
-0.869934

>  <RMSD>
5.427

$$$$
ligand
 OpenBabel11021811473D
libRbt.so/2013.1/901 2013/11/27
 10  9  0  0  0  0  0  0  0  0999 V2000
   28.6347   14.3011   18.9033 N   0  0  0  0  0  0  0  0  0  0  0  0
   27.9769   14.3201   20.2449 C   0  0  2  0  0  0  0  0  0  0  0  0
   26.7081   15.1801   20.2627 C   0  0  0  0  0  0  0  0  0  0  0  0
   26.6112   16.2235   19.5994 O   0  0  0  0  0  0  0  0  0  0  0  0
   28.9627   14.7631   21.3294 C   0  0  0  0  0  0  0  0  0  0  0  0
   29.5602   16.1273   21.0700 C   0  0  0  0  0  0  0  0  0  0  0  0
   30.7193   16.4165   21.9926 C   0  0  0  0  0  0  0  0  0  0  0  0
   31.3460   17.7716   21.6822 C   0  0  0  0  0  0  0  0  0  0  0  0
   32.6067   18.0261   22.4301 N   0  0  0  0  0  0  0  0  0  0  0  0
   25.7177   14.8389   20.9166 O   0  0  0  0  0  0  0  0  0  0  0  0
  2  1  1  6  0  0  0
  2  3  1  0  0  0  0
  2  5  1  0  0  0  0
  3  4  1  0  0  0  0
  3 10  1  0  0  0  0
  5  6  1  0  0  0  0
  6  7  1  0  0  0  0
  7  8  1  0  0  0  0
  8  9  1  0  0  0  0
M  END
>  <CHROM.1>
-35.51668948,57.85798246,-168.58182968,177.74398357,-171.92454576,28.84539542
15.80865500,20.83937879,-2.57818232,-0.07240997,0.54202151

>  <Name>
ligand

>  <RI>
0

>  <Rbt.Current_Directory>
/home/itssahil/PROJECTS/Mol_Feturizer/New_Systems/rnas/3DIY

>  <Rbt.Executable>
rbdock ($Id: //depot/dev/client3/rdock/2013.1/src/exe/rbdock.cxx#4 $)

>  <Rbt.Library>
libRbt.so (2013.1, Build901 2013/11/27)

>  <Rbt.Parameter_File>
/export/apps/rDock/src/rDock_2013.1_src/data/scripts/dock_solv.prm

>  <Rbt.Receptor>
prm/blind_docking_60.prm

>  <SCORE>
-9.08463

>  <SCORE.INTER>
-8.56461

>  <SCORE.INTER.CONST>
1

>  <SCORE.INTER.POLAR>
0

>  <SCORE.INTER.ROT>
5

>  <SCORE.INTER.SOLV>
14.2522

>  <SCORE.INTER.VDW>
-17.3938

>  <SCORE.INTER.norm>
-0.856461

>  <SCORE.INTRA>
-0.520025

>  <SCORE.INTRA.DIHEDRAL>
-0.137881

>  <SCORE.INTRA.DIHEDRAL.0>
2.56603

>  <SCORE.INTRA.POLAR>
0

>  <SCORE.INTRA.POLAR.0>
0

>  <SCORE.INTRA.REPUL>
0

>  <SCORE.INTRA.REPUL.0>
0

>  <SCORE.INTRA.SOLV>
-0.580922

>  <SCORE.INTRA.SOLV.lig_0>
-32.0799

>  <SCORE.INTRA.VDW>
-0.160623

>  <SCORE.INTRA.VDW.0>
-0.618248

>  <SCORE.INTRA.norm>
-0.0520025

>  <SCORE.RESTR>
0

>  <SCORE.RESTR.CAVITY>
0

>  <SCORE.RESTR.norm>
0

>  <SCORE.SYSTEM>
0

>  <SCORE.SYSTEM.CONST>
0

>  <SCORE.SYSTEM.DIHEDRAL>
0

>  <SCORE.SYSTEM.SOLV>
0

>  <SCORE.SYSTEM.norm>
0

>  <SCORE.heavy>
10

>  <SCORE.norm>
-0.908463

>  <RMSD>
5.430

$$$$
ligand
 OpenBabel11021811473D
libRbt.so/2013.1/901 2013/11/27
 10  9  0  0  0  0  0  0  0  0999 V2000
   28.3219   14.0164   19.9841 N   0  0  0  0  0  0  0  0  0  0  0  0
   28.2445   14.7685   18.6952 C   0  0  2  0  0  0  0  0  0  0  0  0
   27.9685   16.2619   18.9043 C   0  0  0  0  0  0  0  0  0  0  0  0
   28.5361   17.1362   18.2324 O   0  0  0  0  0  0  0  0  0  0  0  0
   27.2104   14.1392   17.7577 C   0  0  0  0  0  0  0  0  0  0  0  0
   27.5011   12.6908   17.4366 C   0  0  0  0  0  0  0  0  0  0  0  0
   26.2993   11.9957   16.8443 C   0  0  0  0  0  0  0  0  0  0  0  0
   26.3802   10.4865   17.0465 C   0  0  0  0  0  0  0  0  0  0  0  0
   27.5425    9.8588   16.3621 N   0  0  0  0  0  0  0  0  0  0  0  0
   27.1364   16.6449   19.7324 O   0  0  0  0  0  0  0  0  0  0  0  0
  2  1  1  1  0  0  0
  2  3  1  0  0  0  0
  2  5  1  0  0  0  0
  3  4  1  0  0  0  0
  3 10  1  0  0  0  0
  5  6  1  0  0  0  0
  6  7  1  0  0  0  0
  7  8  1  0  0  0  0
  8  9  1  0  0  0  0
M  END
>  <CHROM.1>
139.51473817,-58.44906462,164.16357567,-156.86232726,-62.78960743,27.51126194
13.84473984,18.10847204,-0.90394039,1.29080643,2.87599864

>  <Name>
ligand

>  <RI>
0

>  <Rbt.Current_Directory>
/home/itssahil/PROJECTS/Mol_Feturizer/New_Systems/rnas/3DIY

>  <Rbt.Executable>
rbdock ($Id: //depot/dev/client3/rdock/2013.1/src/exe/rbdock.cxx#4 $)

>  <Rbt.Library>
libRbt.so (2013.1, Build901 2013/11/27)

>  <Rbt.Parameter_File>
/export/apps/rDock/src/rDock_2013.1_src/data/scripts/dock_solv.prm

>  <Rbt.Receptor>
prm/blind_docking_40.prm

>  <SCORE>
-5.99942

>  <SCORE.INTER>
-6.97067

>  <SCORE.INTER.CONST>
1

>  <SCORE.INTER.POLAR>
0

>  <SCORE.INTER.ROT>
5

>  <SCORE.INTER.SOLV>
19.6591

>  <SCORE.INTER.VDW>
-18.1335

>  <SCORE.INTER.norm>
-0.697067

>  <SCORE.INTRA>
0.971247

>  <SCORE.INTRA.DIHEDRAL>
1.92659

>  <SCORE.INTRA.DIHEDRAL.0>
2.56603

>  <SCORE.INTRA.POLAR>
0

>  <SCORE.INTRA.POLAR.0>
0

>  <SCORE.INTRA.REPUL>
0

>  <SCORE.INTRA.REPUL.0>
0

>  <SCORE.INTRA.SOLV>
0.274444

>  <SCORE.INTRA.SOLV.lig_0>
-32.0799

>  <SCORE.INTRA.VDW>
-0.129271

>  <SCORE.INTRA.VDW.0>
-0.618248

>  <SCORE.INTRA.norm>
0.0971247

>  <SCORE.RESTR>
0

>  <SCORE.RESTR.CAVITY>
0

>  <SCORE.RESTR.norm>
0

>  <SCORE.SYSTEM>
0

>  <SCORE.SYSTEM.CONST>
0

>  <SCORE.SYSTEM.DIHEDRAL>
0

>  <SCORE.SYSTEM.SOLV>
0

>  <SCORE.SYSTEM.norm>
0

>  <SCORE.heavy>
10

>  <SCORE.norm>
-0.599942

>  <RMSD>
5.431

$$$$
ligand
 OpenBabel11021811473D
libRbt.so/2013.1/901 2013/11/27
 10  9  0  0  0  0  0  0  0  0999 V2000
   26.9245   14.4792   20.1361 N   0  0  0  0  0  0  0  0  0  0  0  0
   27.2318   15.4578   19.0494 C   0  0  2  0  0  0  0  0  0  0  0  0
   27.8539   14.7893   17.8181 C   0  0  0  0  0  0  0  0  0  0  0  0
   28.0716   13.5693   17.7715 O   0  0  0  0  0  0  0  0  0  0  0  0
   28.1175   16.5924   19.5715 C   0  0  0  0  0  0  0  0  0  0  0  0
   29.4565   16.1145   20.0852 C   0  0  0  0  0  0  0  0  0  0  0  0
   30.3356   17.2644   20.5134 C   0  0  0  0  0  0  0  0  0  0  0  0
   31.7029   16.7710   20.9742 C   0  0  0  0  0  0  0  0  0  0  0  0
   31.6438   15.9064   22.1835 N   0  0  0  0  0  0  0  0  0  0  0  0
   28.1276   15.4454   16.8084 O   0  0  0  0  0  0  0  0  0  0  0  0
  2  1  1  1  0  0  0
  2  3  1  0  0  0  0
  2  5  1  0  0  0  0
  3  4  1  0  0  0  0
  3 10  1  0  0  0  0
  5  6  1  0  0  0  0
  6  7  1  0  0  0  0
  7  8  1  0  0  0  0
  8  9  1  0  0  0  0
M  END
>  <CHROM.1>
-0.49818255,61.30704108,176.52030811,-177.63618598,-63.68586226,28.95066665
15.62088434,19.45617250,2.45612610,-0.49761075,-1.55680168

>  <Name>
ligand

>  <RI>
0

>  <Rbt.Current_Directory>
/home/itssahil/PROJECTS/Mol_Feturizer/New_Systems/rnas/3DIY

>  <Rbt.Executable>
rbdock ($Id: //depot/dev/client3/rdock/2013.1/src/exe/rbdock.cxx#4 $)

>  <Rbt.Library>
libRbt.so (2013.1, Build901 2013/11/27)

>  <Rbt.Parameter_File>
/export/apps/rDock/src/rDock_2013.1_src/data/scripts/dock_solv.prm

>  <Rbt.Receptor>
prm/pocket_docking_6.prm

>  <SCORE>
-7.69438

>  <SCORE.INTER>
-7.41592

>  <SCORE.INTER.CONST>
1

>  <SCORE.INTER.POLAR>
0

>  <SCORE.INTER.ROT>
5

>  <SCORE.INTER.SOLV>
16.3152

>  <SCORE.INTER.VDW>
-17.3157

>  <SCORE.INTER.norm>
-0.741592

>  <SCORE.INTRA>
-0.278459

>  <SCORE.INTRA.DIHEDRAL>
-0.888346

>  <SCORE.INTRA.DIHEDRAL.0>
2.56603

>  <SCORE.INTRA.POLAR>
0

>  <SCORE.INTRA.POLAR.0>
0

>  <SCORE.INTRA.REPUL>
0

>  <SCORE.INTRA.REPUL.0>
0

>  <SCORE.INTRA.SOLV>
0.179676

>  <SCORE.INTRA.SOLV.lig_0>
-32.0799

>  <SCORE.INTRA.VDW>
0.0758759

>  <SCORE.INTRA.VDW.0>
-0.618248

>  <SCORE.INTRA.norm>
-0.0278459

>  <SCORE.RESTR>
0

>  <SCORE.RESTR.CAVITY>
0

>  <SCORE.RESTR.norm>
0

>  <SCORE.SYSTEM>
0

>  <SCORE.SYSTEM.CONST>
0

>  <SCORE.SYSTEM.DIHEDRAL>
0

>  <SCORE.SYSTEM.SOLV>
0

>  <SCORE.SYSTEM.norm>
0

>  <SCORE.heavy>
10

>  <SCORE.norm>
-0.769438

>  <RMSD>
5.431

$$$$
ligand
 OpenBabel11021811473D
libRbt.so/2013.1/901 2013/11/27
 10  9  0  0  0  0  0  0  0  0999 V2000
   28.6125   14.3395   18.8837 N   0  0  0  0  0  0  0  0  0  0  0  0
   27.9758   14.2968   20.2349 C   0  0  2  0  0  0  0  0  0  0  0  0
   26.6829   15.1179   20.2991 C   0  0  0  0  0  0  0  0  0  0  0  0
   25.7427   14.8073   21.0459 O   0  0  0  0  0  0  0  0  0  0  0  0
   28.9653   14.7345   21.3182 C   0  0  0  0  0  0  0  0  0  0  0  0
   29.5205   16.1223   21.0922 C   0  0  0  0  0  0  0  0  0  0  0  0
   30.7282   16.3908   21.9570 C   0  0  0  0  0  0  0  0  0  0  0  0
   31.3277   17.7603   21.6566 C   0  0  0  0  0  0  0  0  0  0  0  0
   32.6095   18.0145   22.3677 N   0  0  0  0  0  0  0  0  0  0  0  0
   26.5488   16.1465   19.6291 O   0  0  0  0  0  0  0  0  0  0  0  0
  2  1  1  6  0  0  0
  2  3  1  0  0  0  0
  2  5  1  0  0  0  0
  3  4  1  0  0  0  0
  3 10  1  0  0  0  0
  5  6  1  0  0  0  0
  6  7  1  0  0  0  0
  7  8  1  0  0  0  0
  8  9  1  0  0  0  0
M  END
>  <CHROM.1>
149.07356291,57.75524599,-165.70281041,176.50988034,-173.41946723,28.83235482
15.78454549,20.84643577,-2.58106722,-0.01052520,0.61362318

>  <Name>
ligand

>  <RI>
0

>  <Rbt.Current_Directory>
/home/itssahil/PROJECTS/Mol_Feturizer/New_Systems/rnas/3DIY

>  <Rbt.Executable>
rbdock ($Id: //depot/dev/client3/rdock/2013.1/src/exe/rbdock.cxx#4 $)

>  <Rbt.Library>
libRbt.so (2013.1, Build901 2013/11/27)

>  <Rbt.Parameter_File>
/export/apps/rDock/src/rDock_2013.1_src/data/scripts/dock_solv.prm

>  <Rbt.Receptor>
prm/blind_docking_80.prm

>  <SCORE>
-9.12603

>  <SCORE.INTER>
-8.66033

>  <SCORE.INTER.CONST>
1

>  <SCORE.INTER.POLAR>
0

>  <SCORE.INTER.ROT>
5

>  <SCORE.INTER.SOLV>
14.0704

>  <SCORE.INTER.VDW>
-17.397

>  <SCORE.INTER.norm>
-0.866033

>  <SCORE.INTRA>
-0.465695

>  <SCORE.INTRA.DIHEDRAL>
-0.0415989

>  <SCORE.INTRA.DIHEDRAL.0>
2.56603

>  <SCORE.INTRA.POLAR>
0

>  <SCORE.INTRA.POLAR.0>
0

>  <SCORE.INTRA.REPUL>
0

>  <SCORE.INTRA.REPUL.0>
0

>  <SCORE.INTRA.SOLV>
-0.565364

>  <SCORE.INTRA.SOLV.lig_0>
-32.0799

>  <SCORE.INTRA.VDW>
-0.162214

>  <SCORE.INTRA.VDW.0>
-0.618248

>  <SCORE.INTRA.norm>
-0.0465695

>  <SCORE.RESTR>
0

>  <SCORE.RESTR.CAVITY>
0

>  <SCORE.RESTR.norm>
0

>  <SCORE.SYSTEM>
0

>  <SCORE.SYSTEM.CONST>
0

>  <SCORE.SYSTEM.DIHEDRAL>
0

>  <SCORE.SYSTEM.SOLV>
0

>  <SCORE.SYSTEM.norm>
0

>  <SCORE.heavy>
10

>  <SCORE.norm>
-0.912603

>  <RMSD>
5.433

$$$$
ligand
 OpenBabel11021811473D
libRbt.so/2013.1/901 2013/11/27
 10  9  0  0  0  0  0  0  0  0999 V2000
   28.9678   16.3673   19.4563 N   0  0  0  0  0  0  0  0  0  0  0  0
   27.7782   15.5482   19.0730 C   0  0  2  0  0  0  0  0  0  0  0  0
   26.9723   15.0808   20.2904 C   0  0  0  0  0  0  0  0  0  0  0  0
   25.7331   15.1244   20.3151 O   0  0  0  0  0  0  0  0  0  0  0  0
   28.1911   14.3650   18.1934 C   0  0  0  0  0  0  0  0  0  0  0  0
   27.0168   13.5485   17.7037 C   0  0  0  0  0  0  0  0  0  0  0  0
   27.4539   12.2145   17.1488 C   0  0  0  0  0  0  0  0  0  0  0  0
   26.2696   11.2660   16.9968 C   0  0  0  0  0  0  0  0  0  0  0  0
   26.6661    9.8740   16.6528 N   0  0  0  0  0  0  0  0  0  0  0  0
   27.5353   14.6069   21.2820 O   0  0  0  0  0  0  0  0  0  0  0  0
  2  1  1  1  0  0  0
  2  3  1  0  0  0  0
  2  5  1  0  0  0  0
  3  4  1  0  0  0  0
  3 10  1  0  0  0  0
  5  6  1  0  0  0  0
  6  7  1  0  0  0  0
  7  8  1  0  0  0  0
  8  9  1  0  0  0  0
M  END
>  <CHROM.1>
136.52104106,-176.43482617,-165.42978505,165.27611101,-171.17302336,27.24117205
13.79878400,18.74462820,-1.37406725,-0.71645582,-2.38026925

>  <Name>
ligand

>  <RI>
0

>  <Rbt.Current_Directory>
/home/itssahil/PROJECTS/Mol_Feturizer/New_Systems/rnas/3DIY

>  <Rbt.Executable>
rbdock ($Id: //depot/dev/client3/rdock/2013.1/src/exe/rbdock.cxx#4 $)

>  <Rbt.Library>
libRbt.so (2013.1, Build901 2013/11/27)

>  <Rbt.Parameter_File>
/export/apps/rDock/src/rDock_2013.1_src/data/scripts/dock_solv.prm

>  <Rbt.Receptor>
prm/pocket_docking_6.prm

>  <SCORE>
-11.2925

>  <SCORE.INTER>
-10.7485

>  <SCORE.INTER.CONST>
1

>  <SCORE.INTER.POLAR>
0

>  <SCORE.INTER.ROT>
5

>  <SCORE.INTER.SOLV>
14.9891

>  <SCORE.INTER.VDW>
-19.0954

>  <SCORE.INTER.norm>
-1.07485

>  <SCORE.INTRA>
-0.544039

>  <SCORE.INTRA.DIHEDRAL>
0.964931

>  <SCORE.INTRA.DIHEDRAL.0>
2.56603

>  <SCORE.INTRA.POLAR>
0

>  <SCORE.INTRA.POLAR.0>
0

>  <SCORE.INTRA.REPUL>
0

>  <SCORE.INTRA.REPUL.0>
0

>  <SCORE.INTRA.SOLV>
-1.60289

>  <SCORE.INTRA.SOLV.lig_0>
-32.0799

>  <SCORE.INTRA.VDW>
-0.225062

>  <SCORE.INTRA.VDW.0>
-0.618248

>  <SCORE.INTRA.norm>
-0.0544039

>  <SCORE.RESTR>
0

>  <SCORE.RESTR.CAVITY>
0

>  <SCORE.RESTR.norm>
0

>  <SCORE.SYSTEM>
0

>  <SCORE.SYSTEM.CONST>
0

>  <SCORE.SYSTEM.DIHEDRAL>
0

>  <SCORE.SYSTEM.SOLV>
0

>  <SCORE.SYSTEM.norm>
0

>  <SCORE.heavy>
10

>  <SCORE.norm>
-1.12925

>  <RMSD>
5.434

$$$$
ligand
 OpenBabel11021811473D
libRbt.so/2013.1/901 2013/11/27
 10  9  0  0  0  0  0  0  0  0999 V2000
   26.5975   15.9758   19.5534 N   0  0  0  0  0  0  0  0  0  0  0  0
   27.9133   15.2926   19.3666 C   0  0  2  0  0  0  0  0  0  0  0  0
   27.9161   14.3472   18.1599 C   0  0  0  0  0  0  0  0  0  0  0  0
   26.9342   13.6471   17.8705 O   0  0  0  0  0  0  0  0  0  0  0  0
   28.3349   14.5623   20.6446 C   0  0  0  0  0  0  0  0  0  0  0  0
   28.9423   15.4792   21.6818 C   0  0  0  0  0  0  0  0  0  0  0  0
   30.2443   16.0777   21.2075 C   0  0  0  0  0  0  0  0  0  0  0  0
   30.8239   17.0307   22.2473 C   0  0  0  0  0  0  0  0  0  0  0  0
   32.1184   17.6384   21.8371 N   0  0  0  0  0  0  0  0  0  0  0  0
   28.8933   14.2785   17.4081 O   0  0  0  0  0  0  0  0  0  0  0  0
  2  1  1  1  0  0  0
  2  3  1  0  0  0  0
  2  5  1  0  0  0  0
  3  4  1  0  0  0  0
  3 10  1  0  0  0  0
  5  6  1  0  0  0  0
  6  7  1  0  0  0  0
  7  8  1  0  0  0  0
  8  9  1  0  0  0  0
M  END
>  <CHROM.1>
-38.57147569,-79.96447662,-65.03335601,178.35940508,179.32825429,28.86538703
15.40799221,19.96231125,2.24557229,-0.22673396,-2.00720650

>  <Name>
ligand

>  <RI>
0

>  <Rbt.Current_Directory>
/home/itssahil/PROJECTS/Mol_Feturizer/New_Systems/rnas/3DIY

>  <Rbt.Executable>
rbdock ($Id: //depot/dev/client3/rdock/2013.1/src/exe/rbdock.cxx#4 $)

>  <Rbt.Library>
libRbt.so (2013.1, Build901 2013/11/27)

>  <Rbt.Parameter_File>
/export/apps/rDock/src/rDock_2013.1_src/data/scripts/dock_solv.prm

>  <Rbt.Receptor>
prm/blind_docking_60.prm

>  <SCORE>
-7.41188

>  <SCORE.INTER>
-7.37305

>  <SCORE.INTER.CONST>
1

>  <SCORE.INTER.POLAR>
0

>  <SCORE.INTER.ROT>
5

>  <SCORE.INTER.SOLV>
14.957

>  <SCORE.INTER.VDW>
-16.8344

>  <SCORE.INTER.norm>
-0.737305

>  <SCORE.INTRA>
-0.0388263

>  <SCORE.INTRA.DIHEDRAL>
0.619092

>  <SCORE.INTRA.DIHEDRAL.0>
2.56603

>  <SCORE.INTRA.POLAR>
0

>  <SCORE.INTRA.POLAR.0>
0

>  <SCORE.INTRA.REPUL>
0

>  <SCORE.INTRA.REPUL.0>
0

>  <SCORE.INTRA.SOLV>
-0.521613

>  <SCORE.INTRA.SOLV.lig_0>
-32.0799

>  <SCORE.INTRA.VDW>
-0.0875657

>  <SCORE.INTRA.VDW.0>
-0.618248

>  <SCORE.INTRA.norm>
-0.00388263

>  <SCORE.RESTR>
0

>  <SCORE.RESTR.CAVITY>
0

>  <SCORE.RESTR.norm>
0

>  <SCORE.SYSTEM>
0

>  <SCORE.SYSTEM.CONST>
0

>  <SCORE.SYSTEM.DIHEDRAL>
0

>  <SCORE.SYSTEM.SOLV>
0

>  <SCORE.SYSTEM.norm>
0

>  <SCORE.heavy>
10

>  <SCORE.norm>
-0.741188

>  <RMSD>
5.436

$$$$
ligand
 OpenBabel11021811473D
libRbt.so/2013.1/901 2013/11/27
 10  9  0  0  0  0  0  0  0  0999 V2000
   28.8021   16.4769   19.4151 N   0  0  0  0  0  0  0  0  0  0  0  0
   28.4525   15.1395   19.9825 C   0  0  2  0  0  0  0  0  0  0  0  0
   27.0305   14.7009   19.6145 C   0  0  0  0  0  0  0  0  0  0  0  0
   26.0298   15.1853   20.1639 O   0  0  0  0  0  0  0  0  0  0  0  0
   28.6649   15.1178   21.4987 C   0  0  0  0  0  0  0  0  0  0  0  0
   30.1200   15.2126   21.8977 C   0  0  0  0  0  0  0  0  0  0  0  0
   30.6881   16.5841   21.6241 C   0  0  0  0  0  0  0  0  0  0  0  0
   32.1821   16.6320   21.9258 C   0  0  0  0  0  0  0  0  0  0  0  0
   32.7957   17.9627   21.6689 N   0  0  0  0  0  0  0  0  0  0  0  0
   26.8321   13.8686   18.7241 O   0  0  0  0  0  0  0  0  0  0  0  0
  2  1  1  1  0  0  0
  2  3  1  0  0  0  0
  2  5  1  0  0  0  0
  3  4  1  0  0  0  0
  3 10  1  0  0  0  0
  5  6  1  0  0  0  0
  6  7  1  0  0  0  0
  7  8  1  0  0  0  0
  8  9  1  0  0  0  0
M  END
>  <CHROM.1>
-75.57130722,-68.01706033,70.38454336,-175.41887619,179.81591386,29.11847978
15.67315266,20.63740432,-3.02450237,0.55590848,2.11192518

>  <Name>
ligand

>  <RI>
0

>  <Rbt.Current_Directory>
/home/itssahil/PROJECTS/Mol_Feturizer/New_Systems/rnas/3DIY

>  <Rbt.Executable>
rbdock ($Id: //depot/dev/client3/rdock/2013.1/src/exe/rbdock.cxx#4 $)

>  <Rbt.Library>
libRbt.so (2013.1, Build901 2013/11/27)

>  <Rbt.Parameter_File>
/export/apps/rDock/src/rDock_2013.1_src/data/scripts/dock_solv.prm

>  <Rbt.Receptor>
prm/pocket_docking_2.prm

>  <SCORE>
-8.08026

>  <SCORE.INTER>
-8.62212

>  <SCORE.INTER.CONST>
1

>  <SCORE.INTER.POLAR>
0

>  <SCORE.INTER.ROT>
5

>  <SCORE.INTER.SOLV>
12.7148

>  <SCORE.INTER.VDW>
-16.9197

>  <SCORE.INTER.norm>
-0.862212

>  <SCORE.INTRA>
0.541866

>  <SCORE.INTRA.DIHEDRAL>
-0.286256

>  <SCORE.INTRA.DIHEDRAL.0>
2.56603

>  <SCORE.INTRA.POLAR>
0

>  <SCORE.INTRA.POLAR.0>
0

>  <SCORE.INTRA.REPUL>
0

>  <SCORE.INTRA.REPUL.0>
0

>  <SCORE.INTRA.SOLV>
0.723459

>  <SCORE.INTRA.SOLV.lig_0>
-32.0799

>  <SCORE.INTRA.VDW>
0.323265

>  <SCORE.INTRA.VDW.0>
-0.618248

>  <SCORE.INTRA.norm>
0.0541866

>  <SCORE.RESTR>
0

>  <SCORE.RESTR.CAVITY>
0

>  <SCORE.RESTR.norm>
0

>  <SCORE.SYSTEM>
0

>  <SCORE.SYSTEM.CONST>
0

>  <SCORE.SYSTEM.DIHEDRAL>
0

>  <SCORE.SYSTEM.SOLV>
0

>  <SCORE.SYSTEM.norm>
0

>  <SCORE.heavy>
10

>  <SCORE.norm>
-0.808026

>  <RMSD>
5.436

$$$$
ligand
 OpenBabel11021811473D
libRbt.so/2013.1/901 2013/11/27
 10  9  0  0  0  0  0  0  0  0999 V2000
   28.8193   16.4345   19.3944 N   0  0  0  0  0  0  0  0  0  0  0  0
   28.4431   15.1229   20.0037 C   0  0  2  0  0  0  0  0  0  0  0  0
   27.0164   14.6961   19.6400 C   0  0  0  0  0  0  0  0  0  0  0  0
   26.0285   15.0943   20.2752 O   0  0  0  0  0  0  0  0  0  0  0  0
   28.6446   15.1486   21.5212 C   0  0  0  0  0  0  0  0  0  0  0  0
   30.0981   15.2358   21.9276 C   0  0  0  0  0  0  0  0  0  0  0  0
   30.6861   16.5915   21.6196 C   0  0  0  0  0  0  0  0  0  0  0  0
   32.1801   16.6261   21.9230 C   0  0  0  0  0  0  0  0  0  0  0  0
   32.8089   17.9469   21.6519 N   0  0  0  0  0  0  0  0  0  0  0  0
   26.7995   13.9633   18.6700 O   0  0  0  0  0  0  0  0  0  0  0  0
  2  1  1  1  0  0  0
  2  3  1  0  0  0  0
  2  5  1  0  0  0  0
  3  4  1  0  0  0  0
  3 10  1  0  0  0  0
  5  6  1  0  0  0  0
  6  7  1  0  0  0  0
  7  8  1  0  0  0  0
  8  9  1  0  0  0  0
M  END
>  <CHROM.1>
-84.50360752,-67.87830688,70.68796680,-175.10092748,-179.32097638,29.11101191
15.67137249,20.64875806,-2.95037197,0.53192978,1.96179741

>  <Name>
ligand

>  <RI>
0

>  <Rbt.Current_Directory>
/home/itssahil/PROJECTS/Mol_Feturizer/New_Systems/rnas/3DIY

>  <Rbt.Executable>
rbdock ($Id: //depot/dev/client3/rdock/2013.1/src/exe/rbdock.cxx#4 $)

>  <Rbt.Library>
libRbt.so (2013.1, Build901 2013/11/27)

>  <Rbt.Parameter_File>
/export/apps/rDock/src/rDock_2013.1_src/data/scripts/dock_solv.prm

>  <Rbt.Receptor>
prm/pocket_docking_8.prm

>  <SCORE>
-8.04205

>  <SCORE.INTER>
-8.68506

>  <SCORE.INTER.CONST>
1

>  <SCORE.INTER.POLAR>
0

>  <SCORE.INTER.ROT>
5

>  <SCORE.INTER.SOLV>
12.565

>  <SCORE.INTER.VDW>
-16.9117

>  <SCORE.INTER.norm>
-0.868506

>  <SCORE.INTRA>
0.643011

>  <SCORE.INTRA.DIHEDRAL>
-0.269481

>  <SCORE.INTRA.DIHEDRAL.0>
2.56603

>  <SCORE.INTRA.POLAR>
0

>  <SCORE.INTRA.POLAR.0>
0

>  <SCORE.INTRA.REPUL>
0

>  <SCORE.INTRA.REPUL.0>
0

>  <SCORE.INTRA.SOLV>
0.7242

>  <SCORE.INTRA.SOLV.lig_0>
-32.0799

>  <SCORE.INTRA.VDW>
0.415652

>  <SCORE.INTRA.VDW.0>
-0.618248

>  <SCORE.INTRA.norm>
0.0643011

>  <SCORE.RESTR>
0

>  <SCORE.RESTR.CAVITY>
0

>  <SCORE.RESTR.norm>
0

>  <SCORE.SYSTEM>
0

>  <SCORE.SYSTEM.CONST>
0

>  <SCORE.SYSTEM.DIHEDRAL>
0

>  <SCORE.SYSTEM.SOLV>
0

>  <SCORE.SYSTEM.norm>
0

>  <SCORE.heavy>
10

>  <SCORE.norm>
-0.804205

>  <RMSD>
5.437

$$$$
ligand
 OpenBabel11021811473D
libRbt.so/2013.1/901 2013/11/27
 10  9  0  0  0  0  0  0  0  0999 V2000
   28.8438   16.4418   19.3952 N   0  0  0  0  0  0  0  0  0  0  0  0
   28.4577   15.1288   19.9952 C   0  0  2  0  0  0  0  0  0  0  0  0
   27.0330   14.7083   19.6166 C   0  0  0  0  0  0  0  0  0  0  0  0
   26.0442   15.0707   20.2716 O   0  0  0  0  0  0  0  0  0  0  0  0
   28.6454   15.1472   21.5147 C   0  0  0  0  0  0  0  0  0  0  0  0
   30.0949   15.2377   21.9347 C   0  0  0  0  0  0  0  0  0  0  0  0
   30.6683   16.6102   21.6781 C   0  0  0  0  0  0  0  0  0  0  0  0
   32.1634   16.6474   21.9758 C   0  0  0  0  0  0  0  0  0  0  0  0
   32.7646   17.9994   21.8213 N   0  0  0  0  0  0  0  0  0  0  0  0
   26.8186   14.0179   18.6155 O   0  0  0  0  0  0  0  0  0  0  0  0
  2  1  1  1  0  0  0
  2  3  1  0  0  0  0
  2  5  1  0  0  0  0
  3  4  1  0  0  0  0
  3 10  1  0  0  0  0
  5  6  1  0  0  0  0
  6  7  1  0  0  0  0
  7  8  1  0  0  0  0
  8  9  1  0  0  0  0
M  END
>  <CHROM.1>
-86.97967460,-67.47047869,72.43859387,-174.34088780,-176.39416612,29.11207130
15.68644466,20.66740538,-2.92734328,0.54337990,1.95175151

>  <Name>
ligand

>  <RI>
0

>  <Rbt.Current_Directory>
/home/itssahil/PROJECTS/Mol_Feturizer/New_Systems/rnas/3DIY

>  <Rbt.Executable>
rbdock ($Id: //depot/dev/client3/rdock/2013.1/src/exe/rbdock.cxx#4 $)

>  <Rbt.Library>
libRbt.so (2013.1, Build901 2013/11/27)

>  <Rbt.Parameter_File>
/export/apps/rDock/src/rDock_2013.1_src/data/scripts/dock_solv.prm

>  <Rbt.Receptor>
prm/pocket_docking_3.prm

>  <SCORE>
-7.96216

>  <SCORE.INTER>
-8.67289

>  <SCORE.INTER.CONST>
1

>  <SCORE.INTER.POLAR>
0

>  <SCORE.INTER.ROT>
5

>  <SCORE.INTER.SOLV>
12.4901

>  <SCORE.INTER.VDW>
-16.8786

>  <SCORE.INTER.norm>
-0.867289

>  <SCORE.INTRA>
0.710728

>  <SCORE.INTRA.DIHEDRAL>
-0.0553678

>  <SCORE.INTRA.DIHEDRAL.0>
2.56603

>  <SCORE.INTRA.POLAR>
0

>  <SCORE.INTRA.POLAR.0>
0

>  <SCORE.INTRA.REPUL>
0

>  <SCORE.INTRA.REPUL.0>
0

>  <SCORE.INTRA.SOLV>
0.713527

>  <SCORE.INTRA.SOLV.lig_0>
-32.0799

>  <SCORE.INTRA.VDW>
0.381648

>  <SCORE.INTRA.VDW.0>
-0.618248

>  <SCORE.INTRA.norm>
0.0710728

>  <SCORE.RESTR>
0

>  <SCORE.RESTR.CAVITY>
0

>  <SCORE.RESTR.norm>
0

>  <SCORE.SYSTEM>
0

>  <SCORE.SYSTEM.CONST>
0

>  <SCORE.SYSTEM.DIHEDRAL>
0

>  <SCORE.SYSTEM.SOLV>
0

>  <SCORE.SYSTEM.norm>
0

>  <SCORE.heavy>
10

>  <SCORE.norm>
-0.796216

>  <RMSD>
5.438

$$$$
ligand
 OpenBabel11021811473D
libRbt.so/2013.1/901 2013/11/27
 10  9  0  0  0  0  0  0  0  0999 V2000
   26.6900   15.9382   19.6075 N   0  0  0  0  0  0  0  0  0  0  0  0
   27.9773   15.2025   19.4208 C   0  0  2  0  0  0  0  0  0  0  0  0
   27.9175   14.2031   18.2599 C   0  0  0  0  0  0  0  0  0  0  0  0
   26.9045   13.5273   18.0252 O   0  0  0  0  0  0  0  0  0  0  0  0
   28.4076   14.5177   20.7209 C   0  0  0  0  0  0  0  0  0  0  0  0
   29.0179   15.4713   21.7226 C   0  0  0  0  0  0  0  0  0  0  0  0
   30.3289   16.0362   21.2322 C   0  0  0  0  0  0  0  0  0  0  0  0
   30.8704   17.0878   22.1947 C   0  0  0  0  0  0  0  0  0  0  0  0
   32.1631   17.6807   21.7579 N   0  0  0  0  0  0  0  0  0  0  0  0
   28.8736   14.0639   17.4909 O   0  0  0  0  0  0  0  0  0  0  0  0
  2  1  1  1  0  0  0
  2  3  1  0  0  0  0
  2  5  1  0  0  0  0
  3  4  1  0  0  0  0
  3 10  1  0  0  0  0
  5  6  1  0  0  0  0
  6  7  1  0  0  0  0
  7  8  1  0  0  0  0
  8  9  1  0  0  0  0
M  END
>  <CHROM.1>
-38.36005150,-77.50218965,-66.11553106,174.95925019,-179.90758638,28.90719452
15.34629259,20.00910674,2.25216854,-0.22905467,-2.05137444

>  <Name>
ligand

>  <RI>
0

>  <Rbt.Current_Directory>
/home/itssahil/PROJECTS/Mol_Feturizer/New_Systems/rnas/3DIY

>  <Rbt.Executable>
rbdock ($Id: //depot/dev/client3/rdock/2013.1/src/exe/rbdock.cxx#4 $)

>  <Rbt.Library>
libRbt.so (2013.1, Build901 2013/11/27)

>  <Rbt.Parameter_File>
/export/apps/rDock/src/rDock_2013.1_src/data/scripts/dock_solv.prm

>  <Rbt.Receptor>
prm/pocket_docking_8.prm

>  <SCORE>
-7.46188

>  <SCORE.INTER>
-7.34279

>  <SCORE.INTER.CONST>
1

>  <SCORE.INTER.POLAR>
0

>  <SCORE.INTER.ROT>
5

>  <SCORE.INTER.SOLV>
14.8034

>  <SCORE.INTER.VDW>
-16.763

>  <SCORE.INTER.norm>
-0.734279

>  <SCORE.INTRA>
-0.119087

>  <SCORE.INTRA.DIHEDRAL>
0.454453

>  <SCORE.INTRA.DIHEDRAL.0>
2.56603

>  <SCORE.INTRA.POLAR>
0

>  <SCORE.INTRA.POLAR.0>
0

>  <SCORE.INTRA.REPUL>
0

>  <SCORE.INTRA.REPUL.0>
0

>  <SCORE.INTRA.SOLV>
-0.486161

>  <SCORE.INTRA.SOLV.lig_0>
-32.0799

>  <SCORE.INTRA.VDW>
-0.103233

>  <SCORE.INTRA.VDW.0>
-0.618248

>  <SCORE.INTRA.norm>
-0.0119087

>  <SCORE.RESTR>
0

>  <SCORE.RESTR.CAVITY>
0

>  <SCORE.RESTR.norm>
0

>  <SCORE.SYSTEM>
0

>  <SCORE.SYSTEM.CONST>
0

>  <SCORE.SYSTEM.DIHEDRAL>
0

>  <SCORE.SYSTEM.SOLV>
0

>  <SCORE.SYSTEM.norm>
0

>  <SCORE.heavy>
10

>  <SCORE.norm>
-0.746188

>  <RMSD>
5.438

$$$$
ligand
 OpenBabel11021811473D
libRbt.so/2013.1/901 2013/11/27
 10  9  0  0  0  0  0  0  0  0999 V2000
   28.7598   14.7739   18.8861 N   0  0  0  0  0  0  0  0  0  0  0  0
   28.2822   14.9023   20.2962 C   0  0  2  0  0  0  0  0  0  0  0  0
   26.7573   15.0295   20.3886 C   0  0  0  0  0  0  0  0  0  0  0  0
   26.1293   14.6918   21.4033 O   0  0  0  0  0  0  0  0  0  0  0  0
   28.9800   16.0666   21.0045 C   0  0  0  0  0  0  0  0  0  0  0  0
   30.4774   15.8878   21.1107 C   0  0  0  0  0  0  0  0  0  0  0  0
   31.1369   17.0686   21.7807 C   0  0  0  0  0  0  0  0  0  0  0  0
   32.6547   16.9211   21.7884 C   0  0  0  0  0  0  0  0  0  0  0  0
   33.2604   16.9600   20.4302 N   0  0  0  0  0  0  0  0  0  0  0  0
   26.1019   15.5114   19.4596 O   0  0  0  0  0  0  0  0  0  0  0  0
  2  1  1  6  0  0  0
  2  3  1  0  0  0  0
  2  5  1  0  0  0  0
  3  4  1  0  0  0  0
  3 10  1  0  0  0  0
  5  6  1  0  0  0  0
  6  7  1  0  0  0  0
  7  8  1  0  0  0  0
  8  9  1  0  0  0  0
M  END
>  <CHROM.1>
154.63502130,-62.18162579,178.49407971,-175.81417891,65.79042836,29.20833949
15.77928751,20.65524781,-2.90509540,0.25734867,1.30087114

>  <Name>
ligand

>  <RI>
0

>  <Rbt.Current_Directory>
/home/itssahil/PROJECTS/Mol_Feturizer/New_Systems/rnas/3DIY

>  <Rbt.Executable>
rbdock ($Id: //depot/dev/client3/rdock/2013.1/src/exe/rbdock.cxx#4 $)

>  <Rbt.Library>
libRbt.so (2013.1, Build901 2013/11/27)

>  <Rbt.Parameter_File>
/export/apps/rDock/src/rDock_2013.1_src/data/scripts/dock_solv.prm

>  <Rbt.Receptor>
prm/pocket_docking_3.prm

>  <SCORE>
-9.2935

>  <SCORE.INTER>
-8.82155

>  <SCORE.INTER.CONST>
1

>  <SCORE.INTER.POLAR>
0

>  <SCORE.INTER.ROT>
5

>  <SCORE.INTER.SOLV>
13.0486

>  <SCORE.INTER.VDW>
-17.1639

>  <SCORE.INTER.norm>
-0.882155

>  <SCORE.INTRA>
-0.471947

>  <SCORE.INTRA.DIHEDRAL>
-0.865561

>  <SCORE.INTRA.DIHEDRAL.0>
2.56603

>  <SCORE.INTRA.POLAR>
0

>  <SCORE.INTRA.POLAR.0>
0

>  <SCORE.INTRA.REPUL>
0

>  <SCORE.INTRA.REPUL.0>
0

>  <SCORE.INTRA.SOLV>
0.199654

>  <SCORE.INTRA.SOLV.lig_0>
-32.0799

>  <SCORE.INTRA.VDW>
-0.138993

>  <SCORE.INTRA.VDW.0>
-0.618248

>  <SCORE.INTRA.norm>
-0.0471947

>  <SCORE.RESTR>
0

>  <SCORE.RESTR.CAVITY>
0

>  <SCORE.RESTR.norm>
0

>  <SCORE.SYSTEM>
0

>  <SCORE.SYSTEM.CONST>
0

>  <SCORE.SYSTEM.DIHEDRAL>
0

>  <SCORE.SYSTEM.SOLV>
0

>  <SCORE.SYSTEM.norm>
0

>  <SCORE.heavy>
10

>  <SCORE.norm>
-0.92935

>  <RMSD>
5.440

$$$$
ligand
 OpenBabel11021811473D
libRbt.so/2013.1/901 2013/11/27
 10  9  0  0  0  0  0  0  0  0999 V2000
   29.0500   14.5646   21.3316 N   0  0  0  0  0  0  0  0  0  0  0  0
   28.0896   15.6156   20.8777 C   0  0  2  0  0  0  0  0  0  0  0  0
   26.7777   15.0221   20.3518 C   0  0  0  0  0  0  0  0  0  0  0  0
   26.6196   14.7318   19.1565 O   0  0  0  0  0  0  0  0  0  0  0  0
   28.7381   16.5353   19.8395 C   0  0  0  0  0  0  0  0  0  0  0  0
   29.9772   17.2328   20.3530 C   0  0  0  0  0  0  0  0  0  0  0  0
   31.1584   16.2959   20.4258 C   0  0  0  0  0  0  0  0  0  0  0  0
   32.4389   17.0492   20.7696 C   0  0  0  0  0  0  0  0  0  0  0  0
   32.3856   17.7371   22.0877 N   0  0  0  0  0  0  0  0  0  0  0  0
   25.8389   14.7776   21.1158 O   0  0  0  0  0  0  0  0  0  0  0  0
  2  1  1  6  0  0  0
  2  3  1  0  0  0  0
  2  5  1  0  0  0  0
  3  4  1  0  0  0  0
  3 10  1  0  0  0  0
  5  6  1  0  0  0  0
  6  7  1  0  0  0  0
  7  8  1  0  0  0  0
  8  9  1  0  0  0  0
M  END
>  <CHROM.1>
-90.54130301,-58.73329025,75.03357734,172.60979599,60.88581109,29.06702997
15.93832364,20.61898441,-3.12609453,-0.43164600,-1.19446603

>  <Name>
ligand

>  <RI>
0

>  <Rbt.Current_Directory>
/home/itssahil/PROJECTS/Mol_Feturizer/New_Systems/rnas/3DIY

>  <Rbt.Executable>
rbdock ($Id: //depot/dev/client3/rdock/2013.1/src/exe/rbdock.cxx#4 $)

>  <Rbt.Library>
libRbt.so (2013.1, Build901 2013/11/27)

>  <Rbt.Parameter_File>
/export/apps/rDock/src/rDock_2013.1_src/data/scripts/dock_solv.prm

>  <Rbt.Receptor>
prm/pocket_docking_5.prm

>  <SCORE>
-7.66267

>  <SCORE.INTER>
-9.22139

>  <SCORE.INTER.CONST>
1

>  <SCORE.INTER.POLAR>
0

>  <SCORE.INTER.ROT>
5

>  <SCORE.INTER.SOLV>
12.1665

>  <SCORE.INTER.VDW>
-17.1364

>  <SCORE.INTER.norm>
-0.922139

>  <SCORE.INTRA>
1.55872

>  <SCORE.INTRA.DIHEDRAL>
0.0327494

>  <SCORE.INTRA.DIHEDRAL.0>
2.56603

>  <SCORE.INTRA.POLAR>
0

>  <SCORE.INTRA.POLAR.0>
0

>  <SCORE.INTRA.REPUL>
0

>  <SCORE.INTRA.REPUL.0>
0

>  <SCORE.INTRA.SOLV>
1.69733

>  <SCORE.INTRA.SOLV.lig_0>
-32.0799

>  <SCORE.INTRA.VDW>
0.693675

>  <SCORE.INTRA.VDW.0>
-0.618248

>  <SCORE.INTRA.norm>
0.155872

>  <SCORE.RESTR>
0

>  <SCORE.RESTR.CAVITY>
0

>  <SCORE.RESTR.norm>
0

>  <SCORE.SYSTEM>
0

>  <SCORE.SYSTEM.CONST>
0

>  <SCORE.SYSTEM.DIHEDRAL>
0

>  <SCORE.SYSTEM.SOLV>
0

>  <SCORE.SYSTEM.norm>
0

>  <SCORE.heavy>
10

>  <SCORE.norm>
-0.766267

>  <RMSD>
5.440

$$$$
ligand
 OpenBabel11021811473D
libRbt.so/2013.1/901 2013/11/27
 10  9  0  0  0  0  0  0  0  0999 V2000
   28.5862   15.8660   19.0520 N   0  0  0  0  0  0  0  0  0  0  0  0
   28.1775   15.1394   20.2922 C   0  0  2  0  0  0  0  0  0  0  0  0
   26.6562   15.1100   20.4791 C   0  0  0  0  0  0  0  0  0  0  0  0
   26.1285   14.6638   21.5088 O   0  0  0  0  0  0  0  0  0  0  0  0
   28.8764   15.7243   21.5225 C   0  0  0  0  0  0  0  0  0  0  0  0
   30.3840   15.6418   21.4465 C   0  0  0  0  0  0  0  0  0  0  0  0
   30.9508   16.6341   20.4603 C   0  0  0  0  0  0  0  0  0  0  0  0
   32.4749   16.5872   20.4456 C   0  0  0  0  0  0  0  0  0  0  0  0
   33.0940   17.0540   21.7153 N   0  0  0  0  0  0  0  0  0  0  0  0
   25.9006   15.5679   19.6165 O   0  0  0  0  0  0  0  0  0  0  0  0
  2  1  1  6  0  0  0
  2  3  1  0  0  0  0
  2  5  1  0  0  0  0
  3  4  1  0  0  0  0
  3 10  1  0  0  0  0
  5  6  1  0  0  0  0
  6  7  1  0  0  0  0
  7  8  1  0  0  0  0
  8  9  1  0  0  0  0
M  END
>  <CHROM.1>
-173.14274332,-60.08664502,73.05345329,177.17153141,-66.65320581,29.07751428
15.79411369,20.65649545,-3.09907225,0.27432156,1.81634522

>  <Name>
ligand

>  <RI>
0

>  <Rbt.Current_Directory>
/home/itssahil/PROJECTS/Mol_Feturizer/New_Systems/rnas/3DIY

>  <Rbt.Executable>
rbdock ($Id: //depot/dev/client3/rdock/2013.1/src/exe/rbdock.cxx#4 $)

>  <Rbt.Library>
libRbt.so (2013.1, Build901 2013/11/27)

>  <Rbt.Parameter_File>
/export/apps/rDock/src/rDock_2013.1_src/data/scripts/dock_solv.prm

>  <Rbt.Receptor>
prm/pocket_docking_8.prm

>  <SCORE>
-7.84074

>  <SCORE.INTER>
-9.31724

>  <SCORE.INTER.CONST>
1

>  <SCORE.INTER.POLAR>
0

>  <SCORE.INTER.ROT>
5

>  <SCORE.INTER.SOLV>
12.0523

>  <SCORE.INTER.VDW>
-17.1623

>  <SCORE.INTER.norm>
-0.931724

>  <SCORE.INTRA>
1.4765

>  <SCORE.INTRA.DIHEDRAL>
-0.119593

>  <SCORE.INTRA.DIHEDRAL.0>
2.56603

>  <SCORE.INTRA.POLAR>
0

>  <SCORE.INTRA.POLAR.0>
0

>  <SCORE.INTRA.REPUL>
0

>  <SCORE.INTRA.REPUL.0>
0

>  <SCORE.INTRA.SOLV>
1.72134

>  <SCORE.INTRA.SOLV.lig_0>
-32.0799

>  <SCORE.INTRA.VDW>
0.67563

>  <SCORE.INTRA.VDW.0>
-0.618248

>  <SCORE.INTRA.norm>
0.14765

>  <SCORE.RESTR>
0

>  <SCORE.RESTR.CAVITY>
0

>  <SCORE.RESTR.norm>
0

>  <SCORE.SYSTEM>
0

>  <SCORE.SYSTEM.CONST>
0

>  <SCORE.SYSTEM.DIHEDRAL>
0

>  <SCORE.SYSTEM.SOLV>
0

>  <SCORE.SYSTEM.norm>
0

>  <SCORE.heavy>
10

>  <SCORE.norm>
-0.784074

>  <RMSD>
5.440

$$$$
ligand
 OpenBabel11021811473D
libRbt.so/2013.1/901 2013/11/27
 10  9  0  0  0  0  0  0  0  0999 V2000
   27.0201   14.3153   20.5254 N   0  0  0  0  0  0  0  0  0  0  0  0
   27.0181   15.0687   19.2349 C   0  0  2  0  0  0  0  0  0  0  0  0
   27.5799   14.2414   18.0730 C   0  0  0  0  0  0  0  0  0  0  0  0
   28.7966   14.1706   17.8438 O   0  0  0  0  0  0  0  0  0  0  0  0
   27.7617   16.3993   19.3790 C   0  0  0  0  0  0  0  0  0  0  0  0
   29.1727   16.2400   19.8976 C   0  0  0  0  0  0  0  0  0  0  0  0
   29.1962   15.9489   21.3785 C   0  0  0  0  0  0  0  0  0  0  0  0
   30.6258   15.8047   21.8893 C   0  0  0  0  0  0  0  0  0  0  0  0
   31.4417   17.0374   21.7218 N   0  0  0  0  0  0  0  0  0  0  0  0
   26.8337   13.5825   17.3423 O   0  0  0  0  0  0  0  0  0  0  0  0
  2  1  1  1  0  0  0
  2  3  1  0  0  0  0
  2  5  1  0  0  0  0
  3  4  1  0  0  0  0
  3 10  1  0  0  0  0
  5  6  1  0  0  0  0
  6  7  1  0  0  0  0
  7  8  1  0  0  0  0
  8  9  1  0  0  0  0
M  END
>  <CHROM.1>
-84.64839587,55.12754403,-75.47716323,-179.43367287,61.69616614,28.54875622
15.25787295,19.69563038,2.25047767,-0.24003479,-1.96445172

>  <Name>
ligand

>  <RI>
0

>  <Rbt.Current_Directory>
/home/itssahil/PROJECTS/Mol_Feturizer/New_Systems/rnas/3DIY

>  <Rbt.Executable>
rbdock ($Id: //depot/dev/client3/rdock/2013.1/src/exe/rbdock.cxx#4 $)

>  <Rbt.Library>
libRbt.so (2013.1, Build901 2013/11/27)

>  <Rbt.Parameter_File>
/export/apps/rDock/src/rDock_2013.1_src/data/scripts/dock_solv.prm

>  <Rbt.Receptor>
prm/pocket_docking_4.prm

>  <SCORE>
-7.45718

>  <SCORE.INTER>
-9.25545

>  <SCORE.INTER.CONST>
1

>  <SCORE.INTER.POLAR>
0

>  <SCORE.INTER.ROT>
5

>  <SCORE.INTER.SOLV>
13.1714

>  <SCORE.INTER.VDW>
-17.4941

>  <SCORE.INTER.norm>
-0.925545

>  <SCORE.INTRA>
1.79827

>  <SCORE.INTRA.DIHEDRAL>
-0.0294788

>  <SCORE.INTRA.DIHEDRAL.0>
2.56603

>  <SCORE.INTRA.POLAR>
0

>  <SCORE.INTRA.POLAR.0>
0

>  <SCORE.INTRA.REPUL>
0

>  <SCORE.INTRA.REPUL.0>
0

>  <SCORE.INTRA.SOLV>
1.82966

>  <SCORE.INTRA.SOLV.lig_0>
-32.0799

>  <SCORE.INTRA.VDW>
0.898179

>  <SCORE.INTRA.VDW.0>
-0.618248

>  <SCORE.INTRA.norm>
0.179827

>  <SCORE.RESTR>
0

>  <SCORE.RESTR.CAVITY>
0

>  <SCORE.RESTR.norm>
0

>  <SCORE.SYSTEM>
0

>  <SCORE.SYSTEM.CONST>
0

>  <SCORE.SYSTEM.DIHEDRAL>
0

>  <SCORE.SYSTEM.SOLV>
0

>  <SCORE.SYSTEM.norm>
0

>  <SCORE.heavy>
10

>  <SCORE.norm>
-0.745718

>  <RMSD>
5.441

$$$$
ligand
 OpenBabel11021811473D
libRbt.so/2013.1/901 2013/11/27
 10  9  0  0  0  0  0  0  0  0999 V2000
   25.5963   15.0151   20.3630 N   0  0  0  0  0  0  0  0  0  0  0  0
   26.9389   15.5814   20.0318 C   0  0  2  0  0  0  0  0  0  0  0  0
   27.4317   15.1477   18.6465 C   0  0  0  0  0  0  0  0  0  0  0  0
   27.1090   14.0608   18.1440 O   0  0  0  0  0  0  0  0  0  0  0  0
   27.9605   15.2337   21.1180 C   0  0  0  0  0  0  0  0  0  0  0  0
   29.2390   16.0335   21.0110 C   0  0  0  0  0  0  0  0  0  0  0  0
   30.2631   15.5921   22.0282 C   0  0  0  0  0  0  0  0  0  0  0  0
   31.5224   16.4484   21.9498 C   0  0  0  0  0  0  0  0  0  0  0  0
   32.1991   16.3865   20.6263 N   0  0  0  0  0  0  0  0  0  0  0  0
   28.1439   15.8903   17.9637 O   0  0  0  0  0  0  0  0  0  0  0  0
  2  1  1  1  0  0  0
  2  3  1  0  0  0  0
  2  5  1  0  0  0  0
  3  4  1  0  0  0  0
  3 10  1  0  0  0  0
  5  6  1  0  0  0  0
  6  7  1  0  0  0  0
  7  8  1  0  0  0  0
  8  9  1  0  0  0  0
M  END
>  <CHROM.1>
-29.97084679,-166.64758013,-175.58371754,-177.45505580,-60.39321504,28.64139714
15.52844618,20.15161187,2.64021775,-0.23859518,-1.64297914

>  <Name>
ligand

>  <RI>
0

>  <Rbt.Current_Directory>
/home/itssahil/PROJECTS/Mol_Feturizer/New_Systems/rnas/3DIY

>  <Rbt.Executable>
rbdock ($Id: //depot/dev/client3/rdock/2013.1/src/exe/rbdock.cxx#4 $)

>  <Rbt.Library>
libRbt.so (2013.1, Build901 2013/11/27)

>  <Rbt.Parameter_File>
/export/apps/rDock/src/rDock_2013.1_src/data/scripts/dock_solv.prm

>  <Rbt.Receptor>
prm/pocket_docking_7.prm

>  <SCORE>
-8.74015

>  <SCORE.INTER>
-8.14514

>  <SCORE.INTER.CONST>
1

>  <SCORE.INTER.POLAR>
0

>  <SCORE.INTER.ROT>
5

>  <SCORE.INTER.SOLV>
17.6078

>  <SCORE.INTER.VDW>
-18.2327

>  <SCORE.INTER.norm>
-0.814514

>  <SCORE.INTRA>
-0.595017

>  <SCORE.INTRA.DIHEDRAL>
-0.211985

>  <SCORE.INTRA.DIHEDRAL.0>
2.56603

>  <SCORE.INTRA.POLAR>
0

>  <SCORE.INTRA.POLAR.0>
0

>  <SCORE.INTRA.REPUL>
0

>  <SCORE.INTRA.REPUL.0>
0

>  <SCORE.INTRA.SOLV>
-0.652565

>  <SCORE.INTRA.SOLV.lig_0>
-32.0799

>  <SCORE.INTRA.VDW>
-0.162742

>  <SCORE.INTRA.VDW.0>
-0.618248

>  <SCORE.INTRA.norm>
-0.0595017

>  <SCORE.RESTR>
0

>  <SCORE.RESTR.CAVITY>
0

>  <SCORE.RESTR.norm>
0

>  <SCORE.SYSTEM>
0

>  <SCORE.SYSTEM.CONST>
0

>  <SCORE.SYSTEM.DIHEDRAL>
0

>  <SCORE.SYSTEM.SOLV>
0

>  <SCORE.SYSTEM.norm>
0

>  <SCORE.heavy>
10

>  <SCORE.norm>
-0.874015

>  <RMSD>
5.441

$$$$
ligand
 OpenBabel11021811473D
libRbt.so/2013.1/901 2013/11/27
 10  9  0  0  0  0  0  0  0  0999 V2000
   25.5703   14.9464   20.4419 N   0  0  0  0  0  0  0  0  0  0  0  0
   26.8868   15.5703   20.1093 C   0  0  2  0  0  0  0  0  0  0  0  0
   27.3715   15.2003   18.7029 C   0  0  0  0  0  0  0  0  0  0  0  0
   28.0310   15.9863   18.0063 O   0  0  0  0  0  0  0  0  0  0  0  0
   27.9376   15.2233   21.1675 C   0  0  0  0  0  0  0  0  0  0  0  0
   29.2181   16.0126   21.0165 C   0  0  0  0  0  0  0  0  0  0  0  0
   30.2712   15.5664   22.0015 C   0  0  0  0  0  0  0  0  0  0  0  0
   31.5247   16.4284   21.8965 C   0  0  0  0  0  0  0  0  0  0  0  0
   32.1901   16.3465   20.5683 N   0  0  0  0  0  0  0  0  0  0  0  0
   27.1496   14.0824   18.2274 O   0  0  0  0  0  0  0  0  0  0  0  0
  2  1  1  1  0  0  0
  2  3  1  0  0  0  0
  2  5  1  0  0  0  0
  3  4  1  0  0  0  0
  3 10  1  0  0  0  0
  5  6  1  0  0  0  0
  6  7  1  0  0  0  0
  7  8  1  0  0  0  0
  8  9  1  0  0  0  0
M  END
>  <CHROM.1>
146.79692362,-170.11291983,-175.28500584,-176.45007347,-62.25760787,28.61648170
15.52679088,20.17744373,2.67579492,-0.24431516,-1.60929453

>  <Name>
ligand

>  <RI>
0

>  <Rbt.Current_Directory>
/home/itssahil/PROJECTS/Mol_Feturizer/New_Systems/rnas/3DIY

>  <Rbt.Executable>
rbdock ($Id: //depot/dev/client3/rdock/2013.1/src/exe/rbdock.cxx#4 $)

>  <Rbt.Library>
libRbt.so (2013.1, Build901 2013/11/27)

>  <Rbt.Parameter_File>
/export/apps/rDock/src/rDock_2013.1_src/data/scripts/dock_solv.prm

>  <Rbt.Receptor>
prm/blind_docking_100.prm

>  <SCORE>
-8.8202

>  <SCORE.INTER>
-8.00973

>  <SCORE.INTER.CONST>
1

>  <SCORE.INTER.POLAR>
0

>  <SCORE.INTER.ROT>
5

>  <SCORE.INTER.SOLV>
17.9792

>  <SCORE.INTER.VDW>
-18.2662

>  <SCORE.INTER.norm>
-0.800973

>  <SCORE.INTRA>
-0.810475

>  <SCORE.INTRA.DIHEDRAL>
-0.587499

>  <SCORE.INTRA.DIHEDRAL.0>
2.56603

>  <SCORE.INTRA.POLAR>
0

>  <SCORE.INTRA.POLAR.0>
0

>  <SCORE.INTRA.REPUL>
0

>  <SCORE.INTRA.REPUL.0>
0

>  <SCORE.INTRA.SOLV>
-0.695201

>  <SCORE.INTRA.SOLV.lig_0>
-32.0799

>  <SCORE.INTRA.VDW>
-0.169126

>  <SCORE.INTRA.VDW.0>
-0.618248

>  <SCORE.INTRA.norm>
-0.0810475

>  <SCORE.RESTR>
0

>  <SCORE.RESTR.CAVITY>
0

>  <SCORE.RESTR.norm>
0

>  <SCORE.SYSTEM>
0

>  <SCORE.SYSTEM.CONST>
0

>  <SCORE.SYSTEM.DIHEDRAL>
0

>  <SCORE.SYSTEM.SOLV>
0

>  <SCORE.SYSTEM.norm>
0

>  <SCORE.heavy>
10

>  <SCORE.norm>
-0.88202

>  <RMSD>
5.444

$$$$
ligand
 OpenBabel11021811473D
libRbt.so/2013.1/901 2013/11/27
 10  9  0  0  0  0  0  0  0  0999 V2000
   25.5797   15.0298   20.3818 N   0  0  0  0  0  0  0  0  0  0  0  0
   26.9216   15.5962   20.0479 C   0  0  2  0  0  0  0  0  0  0  0  0
   27.4130   15.1602   18.6629 C   0  0  0  0  0  0  0  0  0  0  0  0
   27.1469   14.0444   18.1916 O   0  0  0  0  0  0  0  0  0  0  0  0
   27.9447   15.2513   21.1336 C   0  0  0  0  0  0  0  0  0  0  0  0
   29.2353   16.0276   21.0040 C   0  0  0  0  0  0  0  0  0  0  0  0
   30.2580   15.5896   22.0241 C   0  0  0  0  0  0  0  0  0  0  0  0
   31.5328   16.4197   21.9182 C   0  0  0  0  0  0  0  0  0  0  0  0
   32.2267   16.2748   20.6102 N   0  0  0  0  0  0  0  0  0  0  0  0
   28.0659   15.9277   17.9491 O   0  0  0  0  0  0  0  0  0  0  0  0
  2  1  1  1  0  0  0
  2  3  1  0  0  0  0
  2  5  1  0  0  0  0
  3  4  1  0  0  0  0
  3 10  1  0  0  0  0
  5  6  1  0  0  0  0
  6  7  1  0  0  0  0
  7  8  1  0  0  0  0
  8  9  1  0  0  0  0
M  END
>  <CHROM.1>
-33.74763953,-168.02644568,-175.70062034,-177.68711260,-62.58676264,28.63330978
15.52169507,20.15581419,2.64881523,-0.22101742,-1.64592124

>  <Name>
ligand

>  <RI>
0

>  <Rbt.Current_Directory>
/home/itssahil/PROJECTS/Mol_Feturizer/New_Systems/rnas/3DIY

>  <Rbt.Executable>
rbdock ($Id: //depot/dev/client3/rdock/2013.1/src/exe/rbdock.cxx#4 $)

>  <Rbt.Library>
libRbt.so (2013.1, Build901 2013/11/27)

>  <Rbt.Parameter_File>
/export/apps/rDock/src/rDock_2013.1_src/data/scripts/dock_solv.prm

>  <Rbt.Receptor>
prm/pocket_docking_8.prm

>  <SCORE>
-8.71406

>  <SCORE.INTER>
-8.00903

>  <SCORE.INTER.CONST>
1

>  <SCORE.INTER.POLAR>
0

>  <SCORE.INTER.ROT>
5

>  <SCORE.INTER.SOLV>
17.912

>  <SCORE.INTER.VDW>
-18.2434

>  <SCORE.INTER.norm>
-0.800903

>  <SCORE.INTRA>
-0.705029

>  <SCORE.INTRA.DIHEDRAL>
-0.322106

>  <SCORE.INTRA.DIHEDRAL.0>
2.56603

>  <SCORE.INTRA.POLAR>
0

>  <SCORE.INTRA.POLAR.0>
0

>  <SCORE.INTRA.REPUL>
0

>  <SCORE.INTRA.REPUL.0>
0

>  <SCORE.INTRA.SOLV>
-0.684964

>  <SCORE.INTRA.SOLV.lig_0>
-32.0799

>  <SCORE.INTRA.VDW>
-0.201494

>  <SCORE.INTRA.VDW.0>
-0.618248

>  <SCORE.INTRA.norm>
-0.0705029

>  <SCORE.RESTR>
0

>  <SCORE.RESTR.CAVITY>
0

>  <SCORE.RESTR.norm>
0

>  <SCORE.SYSTEM>
0

>  <SCORE.SYSTEM.CONST>
0

>  <SCORE.SYSTEM.DIHEDRAL>
0

>  <SCORE.SYSTEM.SOLV>
0

>  <SCORE.SYSTEM.norm>
0

>  <SCORE.heavy>
10

>  <SCORE.norm>
-0.871406

>  <RMSD>
5.445

$$$$
ligand
 OpenBabel11021811473D
libRbt.so/2013.1/901 2013/11/27
 10  9  0  0  0  0  0  0  0  0999 V2000
   25.5635   14.9621   20.4390 N   0  0  0  0  0  0  0  0  0  0  0  0
   26.8849   15.5766   20.1082 C   0  0  2  0  0  0  0  0  0  0  0  0
   27.3833   15.1784   18.7143 C   0  0  0  0  0  0  0  0  0  0  0  0
   27.1291   14.0714   18.2162 O   0  0  0  0  0  0  0  0  0  0  0  0
   27.9238   15.2479   21.1838 C   0  0  0  0  0  0  0  0  0  0  0  0
   29.2087   16.0293   21.0294 C   0  0  0  0  0  0  0  0  0  0  0  0
   30.2572   15.5858   22.0204 C   0  0  0  0  0  0  0  0  0  0  0  0
   31.5194   16.4335   21.9038 C   0  0  0  0  0  0  0  0  0  0  0  0
   32.1872   16.3222   20.5791 N   0  0  0  0  0  0  0  0  0  0  0  0
   28.0299   15.9690   18.0203 O   0  0  0  0  0  0  0  0  0  0  0  0
  2  1  1  1  0  0  0
  2  3  1  0  0  0  0
  2  5  1  0  0  0  0
  3  4  1  0  0  0  0
  3 10  1  0  0  0  0
  5  6  1  0  0  0  0
  6  7  1  0  0  0  0
  7  8  1  0  0  0  0
  8  9  1  0  0  0  0
M  END
>  <CHROM.1>
-32.33520120,-170.23110948,-174.43723759,-176.88616822,-62.51743179,28.60966648
15.52796726,20.18490449,2.66856968,-0.23720842,-1.62619716

>  <Name>
ligand

>  <RI>
0

>  <Rbt.Current_Directory>
/home/itssahil/PROJECTS/Mol_Feturizer/New_Systems/rnas/3DIY

>  <Rbt.Executable>
rbdock ($Id: //depot/dev/client3/rdock/2013.1/src/exe/rbdock.cxx#4 $)

>  <Rbt.Library>
libRbt.so (2013.1, Build901 2013/11/27)

>  <Rbt.Parameter_File>
/export/apps/rDock/src/rDock_2013.1_src/data/scripts/dock_solv.prm

>  <Rbt.Receptor>
prm/pocket_docking_7.prm

>  <SCORE>
-8.74951

>  <SCORE.INTER>
-8.0356

>  <SCORE.INTER.CONST>
1

>  <SCORE.INTER.POLAR>
0

>  <SCORE.INTER.ROT>
5

>  <SCORE.INTER.SOLV>
17.9728

>  <SCORE.INTER.VDW>
-18.2813

>  <SCORE.INTER.norm>
-0.80356

>  <SCORE.INTRA>
-0.713909

>  <SCORE.INTRA.DIHEDRAL>
-0.423437

>  <SCORE.INTRA.DIHEDRAL.0>
2.56603

>  <SCORE.INTRA.POLAR>
0

>  <SCORE.INTRA.POLAR.0>
0

>  <SCORE.INTRA.REPUL>
0

>  <SCORE.INTRA.REPUL.0>
0

>  <SCORE.INTRA.SOLV>
-0.690407

>  <SCORE.INTRA.SOLV.lig_0>
-32.0799

>  <SCORE.INTRA.VDW>
-0.156987

>  <SCORE.INTRA.VDW.0>
-0.618248

>  <SCORE.INTRA.norm>
-0.0713909

>  <SCORE.RESTR>
0

>  <SCORE.RESTR.CAVITY>
0

>  <SCORE.RESTR.norm>
0

>  <SCORE.SYSTEM>
0

>  <SCORE.SYSTEM.CONST>
0

>  <SCORE.SYSTEM.DIHEDRAL>
0

>  <SCORE.SYSTEM.SOLV>
0

>  <SCORE.SYSTEM.norm>
0

>  <SCORE.heavy>
10

>  <SCORE.norm>
-0.874951

>  <RMSD>
5.446

$$$$
ligand
 OpenBabel11021811473D
libRbt.so/2013.1/901 2013/11/27
 10  9  0  0  0  0  0  0  0  0999 V2000
   28.0126   15.3853   18.7737 N   0  0  0  0  0  0  0  0  0  0  0  0
   27.9768   14.6129   20.0525 C   0  0  2  0  0  0  0  0  0  0  0  0
   26.7562   14.9602   20.9123 C   0  0  0  0  0  0  0  0  0  0  0  0
   25.6143   15.0347   20.4341 O   0  0  0  0  0  0  0  0  0  0  0  0
   29.2786   14.7966   20.8372 C   0  0  0  0  0  0  0  0  0  0  0  0
   29.6172   16.2466   21.0982 C   0  0  0  0  0  0  0  0  0  0  0  0
   30.9850   16.4002   21.7178 C   0  0  0  0  0  0  0  0  0  0  0  0
   31.3711   17.8701   21.8438 C   0  0  0  0  0  0  0  0  0  0  0  0
   32.7571   18.0775   22.3431 N   0  0  0  0  0  0  0  0  0  0  0  0
   26.8663   15.1431   22.1286 O   0  0  0  0  0  0  0  0  0  0  0  0
  2  1  1  6  0  0  0
  2  3  1  0  0  0  0
  2  5  1  0  0  0  0
  3  4  1  0  0  0  0
  3 10  1  0  0  0  0
  5  6  1  0  0  0  0
  6  7  1  0  0  0  0
  7  8  1  0  0  0  0
  8  9  1  0  0  0  0
M  END
>  <CHROM.1>
46.27013123,54.90491194,-172.84835573,174.20041784,-175.15194860,28.88583016
15.85271994,21.03005396,-2.76951862,0.37569202,1.26797159

>  <Name>
ligand

>  <RI>
0

>  <Rbt.Current_Directory>
/home/itssahil/PROJECTS/Mol_Feturizer/New_Systems/rnas/3DIY

>  <Rbt.Executable>
rbdock ($Id: //depot/dev/client3/rdock/2013.1/src/exe/rbdock.cxx#4 $)

>  <Rbt.Library>
libRbt.so (2013.1, Build901 2013/11/27)

>  <Rbt.Parameter_File>
/export/apps/rDock/src/rDock_2013.1_src/data/scripts/dock_solv.prm

>  <Rbt.Receptor>
prm/pocket_docking_6.prm

>  <SCORE>
-9.46674

>  <SCORE.INTER>
-9.54091

>  <SCORE.INTER.CONST>
1

>  <SCORE.INTER.POLAR>
0

>  <SCORE.INTER.ROT>
5

>  <SCORE.INTER.SOLV>
12.3099

>  <SCORE.INTER.VDW>
-17.3973

>  <SCORE.INTER.norm>
-0.954091

>  <SCORE.INTRA>
0.0741743

>  <SCORE.INTRA.DIHEDRAL>
-0.524166

>  <SCORE.INTRA.DIHEDRAL.0>
2.56603

>  <SCORE.INTRA.POLAR>
0

>  <SCORE.INTRA.POLAR.0>
0

>  <SCORE.INTRA.REPUL>
0

>  <SCORE.INTRA.REPUL.0>
0

>  <SCORE.INTRA.SOLV>
-0.590125

>  <SCORE.INTRA.SOLV.lig_0>
-32.0799

>  <SCORE.INTRA.VDW>
0.63132

>  <SCORE.INTRA.VDW.0>
-0.618248

>  <SCORE.INTRA.norm>
0.00741743

>  <SCORE.RESTR>
0

>  <SCORE.RESTR.CAVITY>
0

>  <SCORE.RESTR.norm>
0

>  <SCORE.SYSTEM>
0

>  <SCORE.SYSTEM.CONST>
0

>  <SCORE.SYSTEM.DIHEDRAL>
0

>  <SCORE.SYSTEM.SOLV>
0

>  <SCORE.SYSTEM.norm>
0

>  <SCORE.heavy>
10

>  <SCORE.norm>
-0.946674

>  <RMSD>
5.448

$$$$
ligand
 OpenBabel11021811473D
libRbt.so/2013.1/901 2013/11/27
 10  9  0  0  0  0  0  0  0  0999 V2000
   28.8005   14.2590   22.0295 N   0  0  0  0  0  0  0  0  0  0  0  0
   28.5006   15.3962   21.1077 C   0  0  2  0  0  0  0  0  0  0  0  0
   27.0496   15.3821   20.6133 C   0  0  0  0  0  0  0  0  0  0  0  0
   26.6931   16.0056   19.6022 O   0  0  0  0  0  0  0  0  0  0  0  0
   29.4858   15.4230   19.9360 C   0  0  0  0  0  0  0  0  0  0  0  0
   30.9242   15.5884   20.3710 C   0  0  0  0  0  0  0  0  0  0  0  0
   31.1603   16.9254   21.0306 C   0  0  0  0  0  0  0  0  0  0  0  0
   32.6050   17.0612   21.4993 C   0  0  0  0  0  0  0  0  0  0  0  0
   32.8907   18.3585   22.1692 N   0  0  0  0  0  0  0  0  0  0  0  0
   26.1874   14.7131   21.1910 O   0  0  0  0  0  0  0  0  0  0  0  0
  2  1  1  6  0  0  0
  2  3  1  0  0  0  0
  2  5  1  0  0  0  0
  3  4  1  0  0  0  0
  3 10  1  0  0  0  0
  5  6  1  0  0  0  0
  6  7  1  0  0  0  0
  7  8  1  0  0  0  0
  8  9  1  0  0  0  0
M  END
>  <CHROM.1>
-160.95778380,-60.29679935,-64.70706079,178.36966806,-179.48450772,29.38639100
15.90693090,20.94283847,-2.95996252,-0.37510880,-0.72721587

>  <Name>
ligand

>  <RI>
0

>  <Rbt.Current_Directory>
/home/itssahil/PROJECTS/Mol_Feturizer/New_Systems/rnas/3DIY

>  <Rbt.Executable>
rbdock ($Id: //depot/dev/client3/rdock/2013.1/src/exe/rbdock.cxx#4 $)

>  <Rbt.Library>
libRbt.so (2013.1, Build901 2013/11/27)

>  <Rbt.Parameter_File>
/export/apps/rDock/src/rDock_2013.1_src/data/scripts/dock_solv.prm

>  <Rbt.Receptor>
prm/pocket_docking_4.prm

>  <SCORE>
-7.34001

>  <SCORE.INTER>
-7.32751

>  <SCORE.INTER.CONST>
1

>  <SCORE.INTER.POLAR>
0

>  <SCORE.INTER.ROT>
5

>  <SCORE.INTER.SOLV>
16.8653

>  <SCORE.INTER.VDW>
-17.4401

>  <SCORE.INTER.norm>
-0.732751

>  <SCORE.INTRA>
-0.0125023

>  <SCORE.INTRA.DIHEDRAL>
-0.861834

>  <SCORE.INTRA.DIHEDRAL.0>
2.56603

>  <SCORE.INTRA.POLAR>
0

>  <SCORE.INTRA.POLAR.0>
0

>  <SCORE.INTRA.REPUL>
0

>  <SCORE.INTRA.REPUL.0>
0

>  <SCORE.INTRA.SOLV>
-0.12279

>  <SCORE.INTRA.SOLV.lig_0>
-32.0799

>  <SCORE.INTRA.VDW>
0.479809

>  <SCORE.INTRA.VDW.0>
-0.618248

>  <SCORE.INTRA.norm>
-0.00125023

>  <SCORE.RESTR>
0

>  <SCORE.RESTR.CAVITY>
0

>  <SCORE.RESTR.norm>
0

>  <SCORE.SYSTEM>
0

>  <SCORE.SYSTEM.CONST>
0

>  <SCORE.SYSTEM.DIHEDRAL>
0

>  <SCORE.SYSTEM.SOLV>
0

>  <SCORE.SYSTEM.norm>
0

>  <SCORE.heavy>
10

>  <SCORE.norm>
-0.734001

>  <RMSD>
5.449

$$$$
ligand
 OpenBabel11021811473D
libRbt.so/2013.1/901 2013/11/27
 10  9  0  0  0  0  0  0  0  0999 V2000
   28.6479   14.8571   18.9422 N   0  0  0  0  0  0  0  0  0  0  0  0
   28.1855   14.9331   20.3612 C   0  0  2  0  0  0  0  0  0  0  0  0
   26.6629   15.0700   20.4743 C   0  0  0  0  0  0  0  0  0  0  0  0
   26.0401   14.6827   21.4743 O   0  0  0  0  0  0  0  0  0  0  0  0
   28.9011   16.0618   21.1083 C   0  0  0  0  0  0  0  0  0  0  0  0
   30.4042   15.9021   21.1306 C   0  0  0  0  0  0  0  0  0  0  0  0
   31.0831   17.0761   21.7933 C   0  0  0  0  0  0  0  0  0  0  0  0
   32.6006   16.9332   21.7475 C   0  0  0  0  0  0  0  0  0  0  0  0
   33.1504   16.8951   20.3656 N   0  0  0  0  0  0  0  0  0  0  0  0
   26.0046   15.6092   19.5794 O   0  0  0  0  0  0  0  0  0  0  0  0
  2  1  1  6  0  0  0
  2  3  1  0  0  0  0
  2  5  1  0  0  0  0
  3  4  1  0  0  0  0
  3 10  1  0  0  0  0
  5  6  1  0  0  0  0
  6  7  1  0  0  0  0
  7  8  1  0  0  0  0
  8  9  1  0  0  0  0
M  END
>  <CHROM.1>
153.74348511,-59.23070896,176.19643656,-177.22437636,61.71137135,29.12240002
15.80033291,20.69878206,-2.93401988,0.25698980,1.32374314

>  <Name>
ligand

>  <RI>
0

>  <Rbt.Current_Directory>
/home/itssahil/PROJECTS/Mol_Feturizer/New_Systems/rnas/3DIY

>  <Rbt.Executable>
rbdock ($Id: //depot/dev/client3/rdock/2013.1/src/exe/rbdock.cxx#4 $)

>  <Rbt.Library>
libRbt.so (2013.1, Build901 2013/11/27)

>  <Rbt.Parameter_File>
/export/apps/rDock/src/rDock_2013.1_src/data/scripts/dock_solv.prm

>  <Rbt.Receptor>
prm/blind_docking_100.prm

>  <SCORE>
-9.32546

>  <SCORE.INTER>
-8.90467

>  <SCORE.INTER.CONST>
1

>  <SCORE.INTER.POLAR>
0

>  <SCORE.INTER.ROT>
5

>  <SCORE.INTER.SOLV>
12.62

>  <SCORE.INTER.VDW>
-17.0764

>  <SCORE.INTER.norm>
-0.890467

>  <SCORE.INTRA>
-0.420796

>  <SCORE.INTRA.DIHEDRAL>
-0.995442

>  <SCORE.INTRA.DIHEDRAL.0>
2.56603

>  <SCORE.INTRA.POLAR>
0

>  <SCORE.INTRA.POLAR.0>
0

>  <SCORE.INTRA.REPUL>
0

>  <SCORE.INTRA.REPUL.0>
0

>  <SCORE.INTRA.SOLV>
0.296816

>  <SCORE.INTRA.SOLV.lig_0>
-32.0799

>  <SCORE.INTRA.VDW>
-0.071483

>  <SCORE.INTRA.VDW.0>
-0.618248

>  <SCORE.INTRA.norm>
-0.0420796

>  <SCORE.RESTR>
0

>  <SCORE.RESTR.CAVITY>
0

>  <SCORE.RESTR.norm>
0

>  <SCORE.SYSTEM>
0

>  <SCORE.SYSTEM.CONST>
0

>  <SCORE.SYSTEM.DIHEDRAL>
0

>  <SCORE.SYSTEM.SOLV>
0

>  <SCORE.SYSTEM.norm>
0

>  <SCORE.heavy>
10

>  <SCORE.norm>
-0.932546

>  <RMSD>
5.451

$$$$
ligand
 OpenBabel11021811473D
libRbt.so/2013.1/901 2013/11/27
 10  9  0  0  0  0  0  0  0  0999 V2000
   25.5796   15.0072   20.3920 N   0  0  0  0  0  0  0  0  0  0  0  0
   26.9216   15.5621   20.0397 C   0  0  2  0  0  0  0  0  0  0  0  0
   27.3969   15.1097   18.6543 C   0  0  0  0  0  0  0  0  0  0  0  0
   28.0986   15.8326   17.9311 O   0  0  0  0  0  0  0  0  0  0  0  0
   27.9531   15.2215   21.1187 C   0  0  0  0  0  0  0  0  0  0  0  0
   29.2549   15.9726   20.9565 C   0  0  0  0  0  0  0  0  0  0  0  0
   30.2778   15.5498   21.9828 C   0  0  0  0  0  0  0  0  0  0  0  0
   31.5380   16.4033   21.8891 C   0  0  0  0  0  0  0  0  0  0  0  0
   32.2380   16.2843   20.5818 N   0  0  0  0  0  0  0  0  0  0  0  0
   27.1240   13.9848   18.2244 O   0  0  0  0  0  0  0  0  0  0  0  0
  2  1  1  1  0  0  0
  2  3  1  0  0  0  0
  2  5  1  0  0  0  0
  3  4  1  0  0  0  0
  3 10  1  0  0  0  0
  5  6  1  0  0  0  0
  6  7  1  0  0  0  0
  7  8  1  0  0  0  0
  8  9  1  0  0  0  0
M  END
>  <CHROM.1>
147.32642821,-168.93013926,-176.40523228,-174.79266685,-62.10879864,28.63945224
15.48140983,20.14100975,2.65794337,-0.22445357,-1.65438267

>  <Name>
ligand

>  <RI>
0

>  <Rbt.Current_Directory>
/home/itssahil/PROJECTS/Mol_Feturizer/New_Systems/rnas/3DIY

>  <Rbt.Executable>
rbdock ($Id: //depot/dev/client3/rdock/2013.1/src/exe/rbdock.cxx#4 $)

>  <Rbt.Library>
libRbt.so (2013.1, Build901 2013/11/27)

>  <Rbt.Parameter_File>
/export/apps/rDock/src/rDock_2013.1_src/data/scripts/dock_solv.prm

>  <Rbt.Receptor>
prm/pocket_docking_7.prm

>  <SCORE>
-8.80788

>  <SCORE.INTER>
-8.07138

>  <SCORE.INTER.CONST>
1

>  <SCORE.INTER.POLAR>
0

>  <SCORE.INTER.ROT>
5

>  <SCORE.INTER.SOLV>
17.9927

>  <SCORE.INTER.VDW>
-18.3118

>  <SCORE.INTER.norm>
-0.807138

>  <SCORE.INTRA>
-0.736504

>  <SCORE.INTRA.DIHEDRAL>
-0.480068

>  <SCORE.INTRA.DIHEDRAL.0>
2.56603

>  <SCORE.INTRA.POLAR>
0

>  <SCORE.INTRA.POLAR.0>
0

>  <SCORE.INTRA.REPUL>
0

>  <SCORE.INTRA.REPUL.0>
0

>  <SCORE.INTRA.SOLV>
-0.69831

>  <SCORE.INTRA.SOLV.lig_0>
-32.0799

>  <SCORE.INTRA.VDW>
-0.147315

>  <SCORE.INTRA.VDW.0>
-0.618248

>  <SCORE.INTRA.norm>
-0.0736504

>  <SCORE.RESTR>
0

>  <SCORE.RESTR.CAVITY>
0

>  <SCORE.RESTR.norm>
0

>  <SCORE.SYSTEM>
0

>  <SCORE.SYSTEM.CONST>
0

>  <SCORE.SYSTEM.DIHEDRAL>
0

>  <SCORE.SYSTEM.SOLV>
0

>  <SCORE.SYSTEM.norm>
0

>  <SCORE.heavy>
10

>  <SCORE.norm>
-0.880788

>  <RMSD>
5.452

$$$$
ligand
 OpenBabel11021811473D
libRbt.so/2013.1/901 2013/11/27
 10  9  0  0  0  0  0  0  0  0999 V2000
   28.7001   14.8363   18.8981 N   0  0  0  0  0  0  0  0  0  0  0  0
   28.2376   14.9304   20.3159 C   0  0  2  0  0  0  0  0  0  0  0  0
   26.7133   15.0489   20.4278 C   0  0  0  0  0  0  0  0  0  0  0  0
   26.0957   14.6652   21.4325 O   0  0  0  0  0  0  0  0  0  0  0  0
   28.9384   16.0812   21.0430 C   0  0  0  0  0  0  0  0  0  0  0  0
   30.4394   15.9155   21.1127 C   0  0  0  0  0  0  0  0  0  0  0  0
   31.1040   17.0983   21.7742 C   0  0  0  0  0  0  0  0  0  0  0  0
   32.6199   16.9351   21.8010 C   0  0  0  0  0  0  0  0  0  0  0  0
   33.2444   16.9814   20.4515 N   0  0  0  0  0  0  0  0  0  0  0  0
   26.0480   15.5691   19.5269 O   0  0  0  0  0  0  0  0  0  0  0  0
  2  1  1  6  0  0  0
  2  3  1  0  0  0  0
  2  5  1  0  0  0  0
  3  4  1  0  0  0  0
  3 10  1  0  0  0  0
  5  6  1  0  0  0  0
  6  7  1  0  0  0  0
  7  8  1  0  0  0  0
  8  9  1  0  0  0  0
M  END
>  <CHROM.1>
153.42763749,-61.41737023,177.17383469,-178.36268217,67.14520414,29.16842893
15.80392492,20.67925269,-2.91621373,0.26230338,1.31955676

>  <Name>
ligand

>  <RI>
0

>  <Rbt.Current_Directory>
/home/itssahil/PROJECTS/Mol_Feturizer/New_Systems/rnas/3DIY

>  <Rbt.Executable>
rbdock ($Id: //depot/dev/client3/rdock/2013.1/src/exe/rbdock.cxx#4 $)

>  <Rbt.Library>
libRbt.so (2013.1, Build901 2013/11/27)

>  <Rbt.Parameter_File>
/export/apps/rDock/src/rDock_2013.1_src/data/scripts/dock_solv.prm

>  <Rbt.Receptor>
prm/pocket_docking_5.prm

>  <SCORE>
-9.31585

>  <SCORE.INTER>
-8.83517

>  <SCORE.INTER.CONST>
1

>  <SCORE.INTER.POLAR>
0

>  <SCORE.INTER.ROT>
5

>  <SCORE.INTER.SOLV>
12.7756

>  <SCORE.INTER.VDW>
-17.082

>  <SCORE.INTER.norm>
-0.883517

>  <SCORE.INTRA>
-0.48068

>  <SCORE.INTRA.DIHEDRAL>
-0.851971

>  <SCORE.INTRA.DIHEDRAL.0>
2.56603

>  <SCORE.INTRA.POLAR>
0

>  <SCORE.INTRA.POLAR.0>
0

>  <SCORE.INTRA.REPUL>
0

>  <SCORE.INTRA.REPUL.0>
0

>  <SCORE.INTRA.SOLV>
0.182417

>  <SCORE.INTRA.SOLV.lig_0>
-32.0799

>  <SCORE.INTRA.VDW>
-0.145903

>  <SCORE.INTRA.VDW.0>
-0.618248

>  <SCORE.INTRA.norm>
-0.048068

>  <SCORE.RESTR>
0

>  <SCORE.RESTR.CAVITY>
0

>  <SCORE.RESTR.norm>
0

>  <SCORE.SYSTEM>
0

>  <SCORE.SYSTEM.CONST>
0

>  <SCORE.SYSTEM.DIHEDRAL>
0

>  <SCORE.SYSTEM.SOLV>
0

>  <SCORE.SYSTEM.norm>
0

>  <SCORE.heavy>
10

>  <SCORE.norm>
-0.931585

>  <RMSD>
5.454

$$$$
ligand
 OpenBabel11021811473D
libRbt.so/2013.1/901 2013/11/27
 10  9  0  0  0  0  0  0  0  0999 V2000
   28.7506   15.3959   19.1530 N   0  0  0  0  0  0  0  0  0  0  0  0
   28.1606   14.9653   20.4566 C   0  0  2  0  0  0  0  0  0  0  0  0
   26.6306   15.0598   20.4665 C   0  0  0  0  0  0  0  0  0  0  0  0
   25.9529   14.6577   21.4241 O   0  0  0  0  0  0  0  0  0  0  0  0
   28.7727   15.7521   21.6187 C   0  0  0  0  0  0  0  0  0  0  0  0
   30.2811   15.6651   21.6679 C   0  0  0  0  0  0  0  0  0  0  0  0
   30.9274   16.5346   20.6169 C   0  0  0  0  0  0  0  0  0  0  0  0
   32.4444   16.5503   20.7712 C   0  0  0  0  0  0  0  0  0  0  0  0
   32.9059   17.2172   22.0185 N   0  0  0  0  0  0  0  0  0  0  0  0
   26.0194   15.5782   19.5271 O   0  0  0  0  0  0  0  0  0  0  0  0
  2  1  1  6  0  0  0
  2  3  1  0  0  0  0
  2  5  1  0  0  0  0
  3  4  1  0  0  0  0
  3 10  1  0  0  0  0
  5  6  1  0  0  0  0
  6  7  1  0  0  0  0
  7  8  1  0  0  0  0
  8  9  1  0  0  0  0
M  END
>  <CHROM.1>
174.79530331,-55.26486900,75.91924901,174.08739404,-66.82865796,29.03910210
15.73533385,20.77044929,-3.00672924,0.28756553,1.65050516

>  <Name>
ligand

>  <RI>
0

>  <Rbt.Current_Directory>
/home/itssahil/PROJECTS/Mol_Feturizer/New_Systems/rnas/3DIY

>  <Rbt.Executable>
rbdock ($Id: //depot/dev/client3/rdock/2013.1/src/exe/rbdock.cxx#4 $)

>  <Rbt.Library>
libRbt.so (2013.1, Build901 2013/11/27)

>  <Rbt.Parameter_File>
/export/apps/rDock/src/rDock_2013.1_src/data/scripts/dock_solv.prm

>  <Rbt.Receptor>
prm/pocket_docking_2.prm

>  <SCORE>
-7.78915

>  <SCORE.INTER>
-9.39924

>  <SCORE.INTER.CONST>
1

>  <SCORE.INTER.POLAR>
0

>  <SCORE.INTER.ROT>
5

>  <SCORE.INTER.SOLV>
11.5289

>  <SCORE.INTER.VDW>
-17.0425

>  <SCORE.INTER.norm>
-0.939924

>  <SCORE.INTRA>
1.61009

>  <SCORE.INTRA.DIHEDRAL>
0.343802

>  <SCORE.INTRA.DIHEDRAL.0>
2.56603

>  <SCORE.INTRA.POLAR>
0

>  <SCORE.INTRA.POLAR.0>
0

>  <SCORE.INTRA.REPUL>
0

>  <SCORE.INTRA.REPUL.0>
0

>  <SCORE.INTRA.SOLV>
1.76524

>  <SCORE.INTRA.SOLV.lig_0>
-32.0799

>  <SCORE.INTRA.VDW>
0.555568

>  <SCORE.INTRA.VDW.0>
-0.618248

>  <SCORE.INTRA.norm>
0.161009

>  <SCORE.RESTR>
0

>  <SCORE.RESTR.CAVITY>
0

>  <SCORE.RESTR.norm>
0

>  <SCORE.SYSTEM>
0

>  <SCORE.SYSTEM.CONST>
0

>  <SCORE.SYSTEM.DIHEDRAL>
0

>  <SCORE.SYSTEM.SOLV>
0

>  <SCORE.SYSTEM.norm>
0

>  <SCORE.heavy>
10

>  <SCORE.norm>
-0.778915

>  <RMSD>
5.455

$$$$
ligand
 OpenBabel11021811473D
libRbt.so/2013.1/901 2013/11/27
 10  9  0  0  0  0  0  0  0  0999 V2000
   28.6845   16.5801   19.5241 N   0  0  0  0  0  0  0  0  0  0  0  0
   28.4014   15.1991   20.0197 C   0  0  2  0  0  0  0  0  0  0  0  0
   26.9856   14.7291   19.6669 C   0  0  0  0  0  0  0  0  0  0  0  0
   25.9902   15.1027   20.3053 O   0  0  0  0  0  0  0  0  0  0  0  0
   28.6611   15.0959   21.5251 C   0  0  0  0  0  0  0  0  0  0  0  0
   30.1254   15.2032   21.8856 C   0  0  0  0  0  0  0  0  0  0  0  0
   30.6466   16.6078   21.7017 C   0  0  0  0  0  0  0  0  0  0  0  0
   32.1510   16.6732   21.9420 C   0  0  0  0  0  0  0  0  0  0  0  0
   32.7071   18.0496   21.8438 N   0  0  0  0  0  0  0  0  0  0  0  0
   26.7846   13.9843   18.7026 O   0  0  0  0  0  0  0  0  0  0  0  0
  2  1  1  1  0  0  0
  2  3  1  0  0  0  0
  2  5  1  0  0  0  0
  3  4  1  0  0  0  0
  3 10  1  0  0  0  0
  5  6  1  0  0  0  0
  6  7  1  0  0  0  0
  7  8  1  0  0  0  0
  8  9  1  0  0  0  0
M  END
>  <CHROM.1>
-78.35018530,-68.81867929,71.53653748,-174.65183771,-176.97058901,29.07256344
15.70702418,20.69780504,-3.05092856,0.56662948,2.16653710

>  <Name>
ligand

>  <RI>
0

>  <Rbt.Current_Directory>
/home/itssahil/PROJECTS/Mol_Feturizer/New_Systems/rnas/3DIY

>  <Rbt.Executable>
rbdock ($Id: //depot/dev/client3/rdock/2013.1/src/exe/rbdock.cxx#4 $)

>  <Rbt.Library>
libRbt.so (2013.1, Build901 2013/11/27)

>  <Rbt.Parameter_File>
/export/apps/rDock/src/rDock_2013.1_src/data/scripts/dock_solv.prm

>  <Rbt.Receptor>
prm/pocket_docking_5.prm

>  <SCORE>
-8.03515

>  <SCORE.INTER>
-8.62017

>  <SCORE.INTER.CONST>
1

>  <SCORE.INTER.POLAR>
0

>  <SCORE.INTER.ROT>
5

>  <SCORE.INTER.SOLV>
13.216

>  <SCORE.INTER.VDW>
-17.0855

>  <SCORE.INTER.norm>
-0.862017

>  <SCORE.INTRA>
0.585016

>  <SCORE.INTRA.DIHEDRAL>
-0.072976

>  <SCORE.INTRA.DIHEDRAL.0>
2.56603

>  <SCORE.INTRA.POLAR>
0

>  <SCORE.INTRA.POLAR.0>
0

>  <SCORE.INTRA.REPUL>
0

>  <SCORE.INTRA.REPUL.0>
0

>  <SCORE.INTRA.SOLV>
0.688564

>  <SCORE.INTRA.SOLV.lig_0>
-32.0799

>  <SCORE.INTRA.VDW>
0.277222

>  <SCORE.INTRA.VDW.0>
-0.618248

>  <SCORE.INTRA.norm>
0.0585016

>  <SCORE.RESTR>
0

>  <SCORE.RESTR.CAVITY>
0

>  <SCORE.RESTR.norm>
0

>  <SCORE.SYSTEM>
0

>  <SCORE.SYSTEM.CONST>
0

>  <SCORE.SYSTEM.DIHEDRAL>
0

>  <SCORE.SYSTEM.SOLV>
0

>  <SCORE.SYSTEM.norm>
0

>  <SCORE.heavy>
10

>  <SCORE.norm>
-0.803515

>  <RMSD>
5.456

$$$$
ligand
 OpenBabel11021811473D
libRbt.so/2013.1/901 2013/11/27
 10  9  0  0  0  0  0  0  0  0999 V2000
   28.8169   16.2845   19.3386 N   0  0  0  0  0  0  0  0  0  0  0  0
   28.4127   14.9838   19.9534 C   0  0  2  0  0  0  0  0  0  0  0  0
   26.9967   14.5593   19.5474 C   0  0  0  0  0  0  0  0  0  0  0  0
   25.9902   14.9718   20.1430 O   0  0  0  0  0  0  0  0  0  0  0  0
   28.5628   15.0305   21.4764 C   0  0  0  0  0  0  0  0  0  0  0  0
   29.9990   15.1621   21.9296 C   0  0  0  0  0  0  0  0  0  0  0  0
   30.5534   16.5366   21.6437 C   0  0  0  0  0  0  0  0  0  0  0  0
   32.0385   16.6130   21.9812 C   0  0  0  0  0  0  0  0  0  0  0  0
   32.6270   17.9617   21.7619 N   0  0  0  0  0  0  0  0  0  0  0  0
   26.8088   13.8138   18.5812 O   0  0  0  0  0  0  0  0  0  0  0  0
  2  1  1  6  0  0  0
  2  3  1  0  0  0  0
  2  5  1  0  0  0  0
  3  4  1  0  0  0  0
  3 10  1  0  0  0  0
  5  6  1  0  0  0  0
  6  7  1  0  0  0  0
  7  8  1  0  0  0  0
  8  9  1  0  0  0  0
M  END
>  <CHROM.1>
-84.50981286,-65.96846385,71.48097347,-174.49914125,-178.02454362,29.03970532
15.57684024,20.62047050,-2.92065277,0.56599440,1.94028057

>  <Name>
ligand

>  <RI>
0

>  <Rbt.Current_Directory>
/home/itssahil/PROJECTS/Mol_Feturizer/New_Systems/rnas/3DIY

>  <Rbt.Executable>
rbdock ($Id: //depot/dev/client3/rdock/2013.1/src/exe/rbdock.cxx#4 $)

>  <Rbt.Library>
libRbt.so (2013.1, Build901 2013/11/27)

>  <Rbt.Parameter_File>
/export/apps/rDock/src/rDock_2013.1_src/data/scripts/dock_solv.prm

>  <Rbt.Receptor>
prm/pocket_docking_2.prm

>  <SCORE>
-8.03987

>  <SCORE.INTER>
-8.72969

>  <SCORE.INTER.CONST>
1

>  <SCORE.INTER.POLAR>
0

>  <SCORE.INTER.ROT>
5

>  <SCORE.INTER.SOLV>
11.9672

>  <SCORE.INTER.VDW>
-16.7422

>  <SCORE.INTER.norm>
-0.872969

>  <SCORE.INTRA>
0.689819

>  <SCORE.INTRA.DIHEDRAL>
-0.26668

>  <SCORE.INTRA.DIHEDRAL.0>
2.56603

>  <SCORE.INTRA.POLAR>
0

>  <SCORE.INTRA.POLAR.0>
0

>  <SCORE.INTRA.REPUL>
0

>  <SCORE.INTRA.REPUL.0>
0

>  <SCORE.INTRA.SOLV>
0.768367

>  <SCORE.INTRA.SOLV.lig_0>
-32.0799

>  <SCORE.INTRA.VDW>
0.438975

>  <SCORE.INTRA.VDW.0>
-0.618248

>  <SCORE.INTRA.norm>
0.0689819

>  <SCORE.RESTR>
0

>  <SCORE.RESTR.CAVITY>
0

>  <SCORE.RESTR.norm>
0

>  <SCORE.SYSTEM>
0

>  <SCORE.SYSTEM.CONST>
0

>  <SCORE.SYSTEM.DIHEDRAL>
0

>  <SCORE.SYSTEM.SOLV>
0

>  <SCORE.SYSTEM.norm>
0

>  <SCORE.heavy>
10

>  <SCORE.norm>
-0.803987

>  <RMSD>
5.457

$$$$
ligand
 OpenBabel11021811473D
libRbt.so/2013.1/901 2013/11/27
 10  9  0  0  0  0  0  0  0  0999 V2000
   27.0949   14.2168   18.3305 N   0  0  0  0  0  0  0  0  0  0  0  0
   27.7004   14.6059   19.6401 C   0  0  2  0  0  0  0  0  0  0  0  0
   26.6425   14.9058   20.7082 C   0  0  0  0  0  0  0  0  0  0  0  0
   25.4435   15.0480   20.4249 O   0  0  0  0  0  0  0  0  0  0  0  0
   28.6636   15.7834   19.4673 C   0  0  0  0  0  0  0  0  0  0  0  0
   29.4454   16.1024   20.7213 C   0  0  0  0  0  0  0  0  0  0  0  0
   30.3878   17.2632   20.5144 C   0  0  0  0  0  0  0  0  0  0  0  0
   31.1835   17.5596   21.7810 C   0  0  0  0  0  0  0  0  0  0  0  0
   32.1156   16.4653   22.1645 N   0  0  0  0  0  0  0  0  0  0  0  0
   26.9477   14.9800   21.9024 O   0  0  0  0  0  0  0  0  0  0  0  0
  2  1  1  6  0  0  0
  2  3  1  0  0  0  0
  2  5  1  0  0  0  0
  3  4  1  0  0  0  0
  3 10  1  0  0  0  0
  5  6  1  0  0  0  0
  6  7  1  0  0  0  0
  7  8  1  0  0  0  0
  8  9  1  0  0  0  0
M  END
>  <CHROM.1>
-12.57423485,-172.29244501,179.78153351,-179.16539631,65.57008078,28.52960430
15.69317277,20.58684066,-2.77549368,0.37488484,1.35902879

>  <Name>
ligand

>  <RI>
0

>  <Rbt.Current_Directory>
/home/itssahil/PROJECTS/Mol_Feturizer/New_Systems/rnas/3DIY

>  <Rbt.Executable>
rbdock ($Id: //depot/dev/client3/rdock/2013.1/src/exe/rbdock.cxx#4 $)

>  <Rbt.Library>
libRbt.so (2013.1, Build901 2013/11/27)

>  <Rbt.Parameter_File>
/export/apps/rDock/src/rDock_2013.1_src/data/scripts/dock_solv.prm

>  <Rbt.Receptor>
prm/pocket_docking_7.prm

>  <SCORE>
-8.39703

>  <SCORE.INTER>
-7.80564

>  <SCORE.INTER.CONST>
1

>  <SCORE.INTER.POLAR>
0

>  <SCORE.INTER.ROT>
5

>  <SCORE.INTER.SOLV>
16.3165

>  <SCORE.INTER.VDW>
-17.5759

>  <SCORE.INTER.norm>
-0.780564

>  <SCORE.INTRA>
-0.591385

>  <SCORE.INTRA.DIHEDRAL>
-0.648657

>  <SCORE.INTRA.DIHEDRAL.0>
2.56603

>  <SCORE.INTRA.POLAR>
0

>  <SCORE.INTRA.POLAR.0>
0

>  <SCORE.INTRA.REPUL>
0

>  <SCORE.INTRA.REPUL.0>
0

>  <SCORE.INTRA.SOLV>
-0.712207

>  <SCORE.INTRA.SOLV.lig_0>
-32.0799

>  <SCORE.INTRA.VDW>
0.0890476

>  <SCORE.INTRA.VDW.0>
-0.618248

>  <SCORE.INTRA.norm>
-0.0591385

>  <SCORE.RESTR>
0

>  <SCORE.RESTR.CAVITY>
0

>  <SCORE.RESTR.norm>
0

>  <SCORE.SYSTEM>
0

>  <SCORE.SYSTEM.CONST>
0

>  <SCORE.SYSTEM.DIHEDRAL>
0

>  <SCORE.SYSTEM.SOLV>
0

>  <SCORE.SYSTEM.norm>
0

>  <SCORE.heavy>
10

>  <SCORE.norm>
-0.839703

>  <RMSD>
5.457

$$$$
ligand
 OpenBabel11021811473D
libRbt.so/2013.1/901 2013/11/27
 10  9  0  0  0  0  0  0  0  0999 V2000
   28.6620   14.8808   18.9658 N   0  0  0  0  0  0  0  0  0  0  0  0
   28.2052   14.9515   20.3869 C   0  0  2  0  0  0  0  0  0  0  0  0
   26.6829   15.0855   20.5066 C   0  0  0  0  0  0  0  0  0  0  0  0
   25.9919   15.5721   19.5990 O   0  0  0  0  0  0  0  0  0  0  0  0
   28.9219   16.0791   21.1347 C   0  0  0  0  0  0  0  0  0  0  0  0
   30.4227   15.9030   21.1813 C   0  0  0  0  0  0  0  0  0  0  0  0
   31.1022   17.0630   21.8676 C   0  0  0  0  0  0  0  0  0  0  0  0
   32.6189   16.9072   21.8416 C   0  0  0  0  0  0  0  0  0  0  0  0
   33.1962   16.9598   20.4715 N   0  0  0  0  0  0  0  0  0  0  0  0
   26.0851   14.6754   21.5063 O   0  0  0  0  0  0  0  0  0  0  0  0
  2  1  1  6  0  0  0
  2  3  1  0  0  0  0
  2  5  1  0  0  0  0
  3  4  1  0  0  0  0
  3 10  1  0  0  0  0
  5  6  1  0  0  0  0
  6  7  1  0  0  0  0
  7  8  1  0  0  0  0
  8  9  1  0  0  0  0
M  END
>  <CHROM.1>
-25.05499512,-60.72756205,177.30509766,-176.99189479,65.05374455,29.14315120
15.80501649,20.74699453,-2.92784127,0.26071745,1.34476596

>  <Name>
ligand

>  <RI>
0

>  <Rbt.Current_Directory>
/home/itssahil/PROJECTS/Mol_Feturizer/New_Systems/rnas/3DIY

>  <Rbt.Executable>
rbdock ($Id: //depot/dev/client3/rdock/2013.1/src/exe/rbdock.cxx#4 $)

>  <Rbt.Library>
libRbt.so (2013.1, Build901 2013/11/27)

>  <Rbt.Parameter_File>
/export/apps/rDock/src/rDock_2013.1_src/data/scripts/dock_solv.prm

>  <Rbt.Receptor>
prm/pocket_docking_3.prm

>  <SCORE>
-9.19243

>  <SCORE.INTER>
-8.79076

>  <SCORE.INTER.CONST>
1

>  <SCORE.INTER.POLAR>
0

>  <SCORE.INTER.ROT>
5

>  <SCORE.INTER.SOLV>
12.4677

>  <SCORE.INTER.VDW>
-16.9497

>  <SCORE.INTER.norm>
-0.879076

>  <SCORE.INTRA>
-0.40167

>  <SCORE.INTRA.DIHEDRAL>
-0.784041

>  <SCORE.INTRA.DIHEDRAL.0>
2.56603

>  <SCORE.INTRA.POLAR>
0

>  <SCORE.INTRA.POLAR.0>
0

>  <SCORE.INTRA.REPUL>
0

>  <SCORE.INTRA.REPUL.0>
0

>  <SCORE.INTRA.SOLV>
0.231328

>  <SCORE.INTRA.SOLV.lig_0>
-32.0799

>  <SCORE.INTRA.VDW>
-0.125314

>  <SCORE.INTRA.VDW.0>
-0.618248

>  <SCORE.INTRA.norm>
-0.040167

>  <SCORE.RESTR>
0

>  <SCORE.RESTR.CAVITY>
0

>  <SCORE.RESTR.norm>
0

>  <SCORE.SYSTEM>
0

>  <SCORE.SYSTEM.CONST>
0

>  <SCORE.SYSTEM.DIHEDRAL>
0

>  <SCORE.SYSTEM.SOLV>
0

>  <SCORE.SYSTEM.norm>
0

>  <SCORE.heavy>
10

>  <SCORE.norm>
-0.919243

>  <RMSD>
5.458

$$$$
ligand
 OpenBabel11021811473D
libRbt.so/2013.1/901 2013/11/27
 10  9  0  0  0  0  0  0  0  0999 V2000
   28.6231   16.7184   19.5120 N   0  0  0  0  0  0  0  0  0  0  0  0
   28.3503   15.2838   19.8294 C   0  0  2  0  0  0  0  0  0  0  0  0
   26.9591   14.8361   19.3668 C   0  0  0  0  0  0  0  0  0  0  0  0
   26.8004   14.0756   18.4002 O   0  0  0  0  0  0  0  0  0  0  0  0
   28.5547   15.0069   21.3213 C   0  0  0  0  0  0  0  0  0  0  0  0
   30.0008   15.1011   21.7519 C   0  0  0  0  0  0  0  0  0  0  0  0
   30.5191   16.5164   21.6700 C   0  0  0  0  0  0  0  0  0  0  0  0
   32.0164   16.5722   21.9535 C   0  0  0  0  0  0  0  0  0  0  0  0
   32.5702   17.9530   21.9419 N   0  0  0  0  0  0  0  0  0  0  0  0
   25.9428   15.1930   19.9706 O   0  0  0  0  0  0  0  0  0  0  0  0
  2  1  1  1  0  0  0
  2  3  1  0  0  0  0
  2  5  1  0  0  0  0
  3  4  1  0  0  0  0
  3 10  1  0  0  0  0
  5  6  1  0  0  0  0
  6  7  1  0  0  0  0
  7  8  1  0  0  0  0
  8  9  1  0  0  0  0
M  END
>  <CHROM.1>
108.13861694,-68.53580019,67.76090767,-173.54487305,-177.58745402,28.99333283
15.71055059,20.55546797,-3.09035209,0.59475936,2.34749691

>  <Name>
ligand

>  <RI>
0

>  <Rbt.Current_Directory>
/home/itssahil/PROJECTS/Mol_Feturizer/New_Systems/rnas/3DIY

>  <Rbt.Executable>
rbdock ($Id: //depot/dev/client3/rdock/2013.1/src/exe/rbdock.cxx#4 $)

>  <Rbt.Library>
libRbt.so (2013.1, Build901 2013/11/27)

>  <Rbt.Parameter_File>
/export/apps/rDock/src/rDock_2013.1_src/data/scripts/dock_solv.prm

>  <Rbt.Receptor>
prm/pocket_docking_3.prm

>  <SCORE>
-7.78815

>  <SCORE.INTER>
-8.49394

>  <SCORE.INTER.CONST>
1

>  <SCORE.INTER.POLAR>
0

>  <SCORE.INTER.ROT>
5

>  <SCORE.INTER.SOLV>
13.3254

>  <SCORE.INTER.VDW>
-17.0378

>  <SCORE.INTER.norm>
-0.849394

>  <SCORE.INTRA>
0.705791

>  <SCORE.INTRA.DIHEDRAL>
-0.229914

>  <SCORE.INTRA.DIHEDRAL.0>
2.56603

>  <SCORE.INTRA.POLAR>
0

>  <SCORE.INTRA.POLAR.0>
0

>  <SCORE.INTRA.REPUL>
0

>  <SCORE.INTRA.REPUL.0>
0

>  <SCORE.INTRA.SOLV>
0.749025

>  <SCORE.INTRA.SOLV.lig_0>
-32.0799

>  <SCORE.INTRA.VDW>
0.446236

>  <SCORE.INTRA.VDW.0>
-0.618248

>  <SCORE.INTRA.norm>
0.0705791

>  <SCORE.RESTR>
0

>  <SCORE.RESTR.CAVITY>
0

>  <SCORE.RESTR.norm>
0

>  <SCORE.SYSTEM>
0

>  <SCORE.SYSTEM.CONST>
0

>  <SCORE.SYSTEM.DIHEDRAL>
0

>  <SCORE.SYSTEM.SOLV>
0

>  <SCORE.SYSTEM.norm>
0

>  <SCORE.heavy>
10

>  <SCORE.norm>
-0.778815

>  <RMSD>
5.462

$$$$
ligand
 OpenBabel11021811473D
libRbt.so/2013.1/901 2013/11/27
 10  9  0  0  0  0  0  0  0  0999 V2000
   28.6430   14.8873   18.9662 N   0  0  0  0  0  0  0  0  0  0  0  0
   28.1684   14.9120   20.3829 C   0  0  2  0  0  0  0  0  0  0  0  0
   26.6450   15.0471   20.4877 C   0  0  0  0  0  0  0  0  0  0  0  0
   26.0162   14.6506   21.4804 O   0  0  0  0  0  0  0  0  0  0  0  0
   28.8787   16.0116   21.1770 C   0  0  0  0  0  0  0  0  0  0  0  0
   30.3812   15.8470   21.2093 C   0  0  0  0  0  0  0  0  0  0  0  0
   31.0529   16.9748   21.9544 C   0  0  0  0  0  0  0  0  0  0  0  0
   32.5712   16.8455   21.8979 C   0  0  0  0  0  0  0  0  0  0  0  0
   33.1244   16.9591   20.5216 N   0  0  0  0  0  0  0  0  0  0  0  0
   25.9920   15.5938   19.5935 O   0  0  0  0  0  0  0  0  0  0  0  0
  2  1  1  6  0  0  0
  2  3  1  0  0  0  0
  2  5  1  0  0  0  0
  3  4  1  0  0  0  0
  3 10  1  0  0  0  0
  5  6  1  0  0  0  0
  6  7  1  0  0  0  0
  7  8  1  0  0  0  0
  8  9  1  0  0  0  0
M  END
>  <CHROM.1>
155.34530024,-59.36907498,177.82232945,-176.16325898,63.76732407,29.10165684
15.77115418,20.76767713,-2.92429891,0.26016998,1.37195490

>  <Name>
ligand

>  <RI>
0

>  <Rbt.Current_Directory>
/home/itssahil/PROJECTS/Mol_Feturizer/New_Systems/rnas/3DIY

>  <Rbt.Executable>
rbdock ($Id: //depot/dev/client3/rdock/2013.1/src/exe/rbdock.cxx#4 $)

>  <Rbt.Library>
libRbt.so (2013.1, Build901 2013/11/27)

>  <Rbt.Parameter_File>
/export/apps/rDock/src/rDock_2013.1_src/data/scripts/dock_solv.prm

>  <Rbt.Receptor>
prm/pocket_docking_6.prm

>  <SCORE>
-9.33555

>  <SCORE.INTER>
-8.8998

>  <SCORE.INTER.CONST>
1

>  <SCORE.INTER.POLAR>
0

>  <SCORE.INTER.ROT>
5

>  <SCORE.INTER.SOLV>
12.3263

>  <SCORE.INTER.VDW>
-16.9753

>  <SCORE.INTER.norm>
-0.88998

>  <SCORE.INTRA>
-0.435751

>  <SCORE.INTRA.DIHEDRAL>
-0.963811

>  <SCORE.INTRA.DIHEDRAL.0>
2.56603

>  <SCORE.INTRA.POLAR>
0

>  <SCORE.INTRA.POLAR.0>
0

>  <SCORE.INTRA.REPUL>
0

>  <SCORE.INTRA.REPUL.0>
0

>  <SCORE.INTRA.SOLV>
0.265326

>  <SCORE.INTRA.SOLV.lig_0>
-32.0799

>  <SCORE.INTRA.VDW>
-0.0865088

>  <SCORE.INTRA.VDW.0>
-0.618248

>  <SCORE.INTRA.norm>
-0.0435751

>  <SCORE.RESTR>
0

>  <SCORE.RESTR.CAVITY>
0

>  <SCORE.RESTR.norm>
0

>  <SCORE.SYSTEM>
0

>  <SCORE.SYSTEM.CONST>
0

>  <SCORE.SYSTEM.DIHEDRAL>
0

>  <SCORE.SYSTEM.SOLV>
0

>  <SCORE.SYSTEM.norm>
0

>  <SCORE.heavy>
10

>  <SCORE.norm>
-0.933555

>  <RMSD>
5.464

$$$$
ligand
 OpenBabel11021811473D
libRbt.so/2013.1/901 2013/11/27
 10  9  0  0  0  0  0  0  0  0999 V2000
   28.7369   15.2483   18.8063 N   0  0  0  0  0  0  0  0  0  0  0  0
   28.3781   15.2623   20.2569 C   0  0  2  0  0  0  0  0  0  0  0  0
   26.8698   15.1158   20.4884 C   0  0  0  0  0  0  0  0  0  0  0  0
   26.4058   14.7103   21.5646 O   0  0  0  0  0  0  0  0  0  0  0  0
   28.9252   16.5176   20.9419 C   0  0  0  0  0  0  0  0  0  0  0  0
   30.4336   16.6087   20.9015 C   0  0  0  0  0  0  0  0  0  0  0  0
   30.9401   17.8411   21.6108 C   0  0  0  0  0  0  0  0  0  0  0  0
   32.4600   17.9368   21.5323 C   0  0  0  0  0  0  0  0  0  0  0  0
   33.1602   16.8276   22.2342 N   0  0  0  0  0  0  0  0  0  0  0  0
   26.0583   15.4348   19.6140 O   0  0  0  0  0  0  0  0  0  0  0  0
  2  1  1  6  0  0  0
  2  3  1  0  0  0  0
  2  5  1  0  0  0  0
  3  4  1  0  0  0  0
  3 10  1  0  0  0  0
  5  6  1  0  0  0  0
  6  7  1  0  0  0  0
  7  8  1  0  0  0  0
  8  9  1  0  0  0  0
M  END
>  <CHROM.1>
158.02841465,-61.83904692,-178.76572778,-178.61410771,-64.15031234,29.19224385
16.14135070,20.79764494,-2.85428092,0.36333661,1.44490193

>  <Name>
ligand

>  <RI>
0

>  <Rbt.Current_Directory>
/home/itssahil/PROJECTS/Mol_Feturizer/New_Systems/rnas/3DIY

>  <Rbt.Executable>
rbdock ($Id: //depot/dev/client3/rdock/2013.1/src/exe/rbdock.cxx#4 $)

>  <Rbt.Library>
libRbt.so (2013.1, Build901 2013/11/27)

>  <Rbt.Parameter_File>
/export/apps/rDock/src/rDock_2013.1_src/data/scripts/dock_solv.prm

>  <Rbt.Receptor>
prm/pocket_docking_7.prm

>  <SCORE>
-7.60009

>  <SCORE.INTER>
-7.09071

>  <SCORE.INTER.CONST>
1

>  <SCORE.INTER.POLAR>
0

>  <SCORE.INTER.ROT>
5

>  <SCORE.INTER.SOLV>
13.5538

>  <SCORE.INTER.VDW>
-16.1784

>  <SCORE.INTER.norm>
-0.709071

>  <SCORE.INTRA>
-0.509376

>  <SCORE.INTRA.DIHEDRAL>
-0.998081

>  <SCORE.INTRA.DIHEDRAL.0>
2.56603

>  <SCORE.INTRA.POLAR>
0

>  <SCORE.INTRA.POLAR.0>
0

>  <SCORE.INTRA.REPUL>
0

>  <SCORE.INTRA.REPUL.0>
0

>  <SCORE.INTRA.SOLV>
0.185007

>  <SCORE.INTRA.SOLV.lig_0>
-32.0799

>  <SCORE.INTRA.VDW>
-0.102839

>  <SCORE.INTRA.VDW.0>
-0.618248

>  <SCORE.INTRA.norm>
-0.0509376

>  <SCORE.RESTR>
0

>  <SCORE.RESTR.CAVITY>
0

>  <SCORE.RESTR.norm>
0

>  <SCORE.SYSTEM>
0

>  <SCORE.SYSTEM.CONST>
0

>  <SCORE.SYSTEM.DIHEDRAL>
0

>  <SCORE.SYSTEM.SOLV>
0

>  <SCORE.SYSTEM.norm>
0

>  <SCORE.heavy>
10

>  <SCORE.norm>
-0.760009

>  <RMSD>
5.464

$$$$
ligand
 OpenBabel11021811473D
libRbt.so/2013.1/901 2013/11/27
 10  9  0  0  0  0  0  0  0  0999 V2000
   28.9429   16.3342   19.4794 N   0  0  0  0  0  0  0  0  0  0  0  0
   27.7514   15.5221   19.0872 C   0  0  2  0  0  0  0  0  0  0  0  0
   26.9255   15.0719   20.2977 C   0  0  0  0  0  0  0  0  0  0  0  0
   27.4567   14.6694   21.3435 O   0  0  0  0  0  0  0  0  0  0  0  0
   28.1656   14.3280   18.2231 C   0  0  0  0  0  0  0  0  0  0  0  0
   26.9912   13.5144   17.7290 C   0  0  0  0  0  0  0  0  0  0  0  0
   27.4287   12.1863   17.1607 C   0  0  0  0  0  0  0  0  0  0  0  0
   26.2422   11.2450   16.9832 C   0  0  0  0  0  0  0  0  0  0  0  0
   26.6380    9.8471   16.6628 N   0  0  0  0  0  0  0  0  0  0  0  0
   25.6921   15.1304   20.2833 O   0  0  0  0  0  0  0  0  0  0  0  0
  2  1  1  1  0  0  0
  2  3  1  0  0  0  0
  2  5  1  0  0  0  0
  3  4  1  0  0  0  0
  3 10  1  0  0  0  0
  5  6  1  0  0  0  0
  6  7  1  0  0  0  0
  7  8  1  0  0  0  0
  8  9  1  0  0  0  0
M  END
>  <CHROM.1>
-41.23895453,-176.65222526,-166.80342993,166.13604330,-169.52232471,27.20559775
13.78548040,18.75851028,-1.38352530,-0.69649033,-2.38701472

>  <Name>
ligand

>  <RI>
0

>  <Rbt.Current_Directory>
/home/itssahil/PROJECTS/Mol_Feturizer/New_Systems/rnas/3DIY

>  <Rbt.Executable>
rbdock ($Id: //depot/dev/client3/rdock/2013.1/src/exe/rbdock.cxx#4 $)

>  <Rbt.Library>
libRbt.so (2013.1, Build901 2013/11/27)

>  <Rbt.Parameter_File>
/export/apps/rDock/src/rDock_2013.1_src/data/scripts/dock_solv.prm

>  <Rbt.Receptor>
prm/blind_docking_40.prm

>  <SCORE>
-11.2591

>  <SCORE.INTER>
-10.7125

>  <SCORE.INTER.CONST>
1

>  <SCORE.INTER.POLAR>
0

>  <SCORE.INTER.ROT>
5

>  <SCORE.INTER.SOLV>
14.8078

>  <SCORE.INTER.VDW>
-19.0109

>  <SCORE.INTER.norm>
-1.07125

>  <SCORE.INTRA>
-0.546605

>  <SCORE.INTRA.DIHEDRAL>
0.943952

>  <SCORE.INTRA.DIHEDRAL.0>
2.56603

>  <SCORE.INTRA.POLAR>
0

>  <SCORE.INTRA.POLAR.0>
0

>  <SCORE.INTRA.REPUL>
0

>  <SCORE.INTRA.REPUL.0>
0

>  <SCORE.INTRA.SOLV>
-1.59054

>  <SCORE.INTRA.SOLV.lig_0>
-32.0799

>  <SCORE.INTRA.VDW>
-0.223312

>  <SCORE.INTRA.VDW.0>
-0.618248

>  <SCORE.INTRA.norm>
-0.0546605

>  <SCORE.RESTR>
0

>  <SCORE.RESTR.CAVITY>
0

>  <SCORE.RESTR.norm>
0

>  <SCORE.SYSTEM>
0

>  <SCORE.SYSTEM.CONST>
0

>  <SCORE.SYSTEM.DIHEDRAL>
0

>  <SCORE.SYSTEM.SOLV>
0

>  <SCORE.SYSTEM.norm>
0

>  <SCORE.heavy>
10

>  <SCORE.norm>
-1.12591

>  <RMSD>
5.465

$$$$
ligand
 OpenBabel11021811473D
libRbt.so/2013.1/901 2013/11/27
 10  9  0  0  0  0  0  0  0  0999 V2000
   28.6426   14.9093   18.9437 N   0  0  0  0  0  0  0  0  0  0  0  0
   28.1750   14.9200   20.3630 C   0  0  2  0  0  0  0  0  0  0  0  0
   26.6516   15.0475   20.4766 C   0  0  0  0  0  0  0  0  0  0  0  0
   26.0321   14.6608   21.4789 O   0  0  0  0  0  0  0  0  0  0  0  0
   28.8847   16.0159   21.1628 C   0  0  0  0  0  0  0  0  0  0  0  0
   30.3872   15.8518   21.1947 C   0  0  0  0  0  0  0  0  0  0  0  0
   31.0581   16.9753   21.9470 C   0  0  0  0  0  0  0  0  0  0  0  0
   32.5756   16.8286   21.9187 C   0  0  0  0  0  0  0  0  0  0  0  0
   33.1563   16.9427   20.5537 N   0  0  0  0  0  0  0  0  0  0  0  0
   25.9892   15.5783   19.5798 O   0  0  0  0  0  0  0  0  0  0  0  0
  2  1  1  6  0  0  0
  2  3  1  0  0  0  0
  2  5  1  0  0  0  0
  3  4  1  0  0  0  0
  3 10  1  0  0  0  0
  5  6  1  0  0  0  0
  6  7  1  0  0  0  0
  7  8  1  0  0  0  0
  8  9  1  0  0  0  0
M  END
>  <CHROM.1>
156.60775821,-59.79724525,177.88858717,-177.52676444,64.32104629,29.10959763
15.77116297,20.76259620,-2.92083177,0.25728005,1.37451391

>  <Name>
ligand

>  <RI>
0

>  <Rbt.Current_Directory>
/home/itssahil/PROJECTS/Mol_Feturizer/New_Systems/rnas/3DIY

>  <Rbt.Executable>
rbdock ($Id: //depot/dev/client3/rdock/2013.1/src/exe/rbdock.cxx#4 $)

>  <Rbt.Library>
libRbt.so (2013.1, Build901 2013/11/27)

>  <Rbt.Parameter_File>
/export/apps/rDock/src/rDock_2013.1_src/data/scripts/dock_solv.prm

>  <Rbt.Receptor>
prm/pocket_docking_4.prm

>  <SCORE>
-9.34612

>  <SCORE.INTER>
-8.88648

>  <SCORE.INTER.CONST>
1

>  <SCORE.INTER.POLAR>
0

>  <SCORE.INTER.ROT>
5

>  <SCORE.INTER.SOLV>
12.3029

>  <SCORE.INTER.VDW>
-16.9586

>  <SCORE.INTER.norm>
-0.888648

>  <SCORE.INTRA>
-0.459639

>  <SCORE.INTRA.DIHEDRAL>
-0.98321

>  <SCORE.INTRA.DIHEDRAL.0>
2.56603

>  <SCORE.INTRA.POLAR>
0

>  <SCORE.INTRA.POLAR.0>
0

>  <SCORE.INTRA.REPUL>
0

>  <SCORE.INTRA.REPUL.0>
0

>  <SCORE.INTRA.SOLV>
0.24491

>  <SCORE.INTRA.SOLV.lig_0>
-32.0799

>  <SCORE.INTRA.VDW>
-0.090489

>  <SCORE.INTRA.VDW.0>
-0.618248

>  <SCORE.INTRA.norm>
-0.0459639

>  <SCORE.RESTR>
0

>  <SCORE.RESTR.CAVITY>
0

>  <SCORE.RESTR.norm>
0

>  <SCORE.SYSTEM>
0

>  <SCORE.SYSTEM.CONST>
0

>  <SCORE.SYSTEM.DIHEDRAL>
0

>  <SCORE.SYSTEM.SOLV>
0

>  <SCORE.SYSTEM.norm>
0

>  <SCORE.heavy>
10

>  <SCORE.norm>
-0.934612

>  <RMSD>
5.466

$$$$
ligand
 OpenBabel11021811473D
libRbt.so/2013.1/901 2013/11/27
 10  9  0  0  0  0  0  0  0  0999 V2000
   28.6422   14.9006   18.9524 N   0  0  0  0  0  0  0  0  0  0  0  0
   28.1682   14.9241   20.3694 C   0  0  2  0  0  0  0  0  0  0  0  0
   26.6456   15.0672   20.4752 C   0  0  0  0  0  0  0  0  0  0  0  0
   25.9674   15.5695   19.5666 O   0  0  0  0  0  0  0  0  0  0  0  0
   28.8849   16.0175   21.1662 C   0  0  0  0  0  0  0  0  0  0  0  0
   30.3853   15.8371   21.2088 C   0  0  0  0  0  0  0  0  0  0  0  0
   31.0663   16.9734   21.9322 C   0  0  0  0  0  0  0  0  0  0  0  0
   32.5832   16.8227   21.8910 C   0  0  0  0  0  0  0  0  0  0  0  0
   33.1496   16.9076   20.5179 N   0  0  0  0  0  0  0  0  0  0  0  0
   26.0348   14.6492   21.4637 O   0  0  0  0  0  0  0  0  0  0  0  0
  2  1  1  6  0  0  0
  2  3  1  0  0  0  0
  2  5  1  0  0  0  0
  3  4  1  0  0  0  0
  3 10  1  0  0  0  0
  5  6  1  0  0  0  0
  6  7  1  0  0  0  0
  7  8  1  0  0  0  0
  8  9  1  0  0  0  0
M  END
>  <CHROM.1>
-23.67385436,-59.93393606,176.67273306,-176.42701583,64.26124809,29.10697174
15.76447991,20.75469761,-2.92359430,0.25472050,1.37401143

>  <Name>
ligand

>  <RI>
0

>  <Rbt.Current_Directory>
/home/itssahil/PROJECTS/Mol_Feturizer/New_Systems/rnas/3DIY

>  <Rbt.Executable>
rbdock ($Id: //depot/dev/client3/rdock/2013.1/src/exe/rbdock.cxx#4 $)

>  <Rbt.Library>
libRbt.so (2013.1, Build901 2013/11/27)

>  <Rbt.Parameter_File>
/export/apps/rDock/src/rDock_2013.1_src/data/scripts/dock_solv.prm

>  <Rbt.Receptor>
prm/blind_docking_60.prm

>  <SCORE>
-9.26751

>  <SCORE.INTER>
-8.90069

>  <SCORE.INTER.CONST>
1

>  <SCORE.INTER.POLAR>
0

>  <SCORE.INTER.ROT>
5

>  <SCORE.INTER.SOLV>
12.362

>  <SCORE.INTER.VDW>
-16.9878

>  <SCORE.INTER.norm>
-0.890069

>  <SCORE.INTRA>
-0.366822

>  <SCORE.INTRA.DIHEDRAL>
-0.785649

>  <SCORE.INTRA.DIHEDRAL.0>
2.56603

>  <SCORE.INTRA.POLAR>
0

>  <SCORE.INTRA.POLAR.0>
0

>  <SCORE.INTRA.REPUL>
0

>  <SCORE.INTRA.REPUL.0>
0

>  <SCORE.INTRA.SOLV>
0.259216

>  <SCORE.INTRA.SOLV.lig_0>
-32.0799

>  <SCORE.INTRA.VDW>
-0.103606

>  <SCORE.INTRA.VDW.0>
-0.618248

>  <SCORE.INTRA.norm>
-0.0366822

>  <SCORE.RESTR>
0

>  <SCORE.RESTR.CAVITY>
0

>  <SCORE.RESTR.norm>
0

>  <SCORE.SYSTEM>
0

>  <SCORE.SYSTEM.CONST>
0

>  <SCORE.SYSTEM.DIHEDRAL>
0

>  <SCORE.SYSTEM.SOLV>
0

>  <SCORE.SYSTEM.norm>
0

>  <SCORE.heavy>
10

>  <SCORE.norm>
-0.926751

>  <RMSD>
5.467

$$$$
ligand
 OpenBabel11021811473D
libRbt.so/2013.1/901 2013/11/27
 10  9  0  0  0  0  0  0  0  0999 V2000
   28.6461   14.9013   18.9586 N   0  0  0  0  0  0  0  0  0  0  0  0
   28.1673   14.9209   20.3741 C   0  0  2  0  0  0  0  0  0  0  0  0
   26.6444   15.0646   20.4751 C   0  0  0  0  0  0  0  0  0  0  0  0
   25.9690   15.5654   19.5635 O   0  0  0  0  0  0  0  0  0  0  0  0
   28.8819   16.0115   21.1765 C   0  0  0  0  0  0  0  0  0  0  0  0
   30.3853   15.8532   21.1892 C   0  0  0  0  0  0  0  0  0  0  0  0
   31.0610   16.9763   21.9379 C   0  0  0  0  0  0  0  0  0  0  0  0
   32.5784   16.8293   21.9002 C   0  0  0  0  0  0  0  0  0  0  0  0
   33.1512   16.9496   20.5325 N   0  0  0  0  0  0  0  0  0  0  0  0
   26.0305   14.6486   21.4625 O   0  0  0  0  0  0  0  0  0  0  0  0
  2  1  1  6  0  0  0
  2  3  1  0  0  0  0
  2  5  1  0  0  0  0
  3  4  1  0  0  0  0
  3 10  1  0  0  0  0
  5  6  1  0  0  0  0
  6  7  1  0  0  0  0
  7  8  1  0  0  0  0
  8  9  1  0  0  0  0
M  END
>  <CHROM.1>
-23.39460117,-58.21435389,177.54547754,-178.00510884,64.56755967,29.10575002
15.76961223,20.75726573,-2.92275908,0.25863858,1.37628958

>  <Name>
ligand

>  <RI>
0

>  <Rbt.Current_Directory>
/home/itssahil/PROJECTS/Mol_Feturizer/New_Systems/rnas/3DIY

>  <Rbt.Executable>
rbdock ($Id: //depot/dev/client3/rdock/2013.1/src/exe/rbdock.cxx#4 $)

>  <Rbt.Library>
libRbt.so (2013.1, Build901 2013/11/27)

>  <Rbt.Parameter_File>
/export/apps/rDock/src/rDock_2013.1_src/data/scripts/dock_solv.prm

>  <Rbt.Receptor>
prm/blind_docking_80.prm

>  <SCORE>
-9.26961

>  <SCORE.INTER>
-8.90521

>  <SCORE.INTER.CONST>
1

>  <SCORE.INTER.POLAR>
0

>  <SCORE.INTER.ROT>
5

>  <SCORE.INTER.SOLV>
12.321

>  <SCORE.INTER.VDW>
-16.9771

>  <SCORE.INTER.norm>
-0.890521

>  <SCORE.INTRA>
-0.3644

>  <SCORE.INTRA.DIHEDRAL>
-0.826124

>  <SCORE.INTRA.DIHEDRAL.0>
2.56603

>  <SCORE.INTRA.POLAR>
0

>  <SCORE.INTRA.POLAR.0>
0

>  <SCORE.INTRA.REPUL>
0

>  <SCORE.INTRA.REPUL.0>
0

>  <SCORE.INTRA.SOLV>
0.263251

>  <SCORE.INTRA.SOLV.lig_0>
-32.0799

>  <SCORE.INTRA.VDW>
-0.0829636

>  <SCORE.INTRA.VDW.0>
-0.618248

>  <SCORE.INTRA.norm>
-0.03644

>  <SCORE.RESTR>
0

>  <SCORE.RESTR.CAVITY>
0

>  <SCORE.RESTR.norm>
0

>  <SCORE.SYSTEM>
0

>  <SCORE.SYSTEM.CONST>
0

>  <SCORE.SYSTEM.DIHEDRAL>
0

>  <SCORE.SYSTEM.SOLV>
0

>  <SCORE.SYSTEM.norm>
0

>  <SCORE.heavy>
10

>  <SCORE.norm>
-0.926961

>  <RMSD>
5.470

$$$$
ligand
 OpenBabel11021811473D
libRbt.so/2013.1/901 2013/11/27
 10  9  0  0  0  0  0  0  0  0999 V2000
   28.6667   16.5810   19.3284 N   0  0  0  0  0  0  0  0  0  0  0  0
   28.3561   15.1857   19.7642 C   0  0  2  0  0  0  0  0  0  0  0  0
   26.9637   14.7283   19.3149 C   0  0  0  0  0  0  0  0  0  0  0  0
   26.8049   13.8055   18.5018 O   0  0  0  0  0  0  0  0  0  0  0  0
   28.5275   15.0364   21.2783 C   0  0  0  0  0  0  0  0  0  0  0  0
   29.9685   15.1264   21.7264 C   0  0  0  0  0  0  0  0  0  0  0  0
   30.4985   16.5365   21.6302 C   0  0  0  0  0  0  0  0  0  0  0  0
   31.9900   16.5873   21.9433 C   0  0  0  0  0  0  0  0  0  0  0  0
   32.5719   17.9522   21.8340 N   0  0  0  0  0  0  0  0  0  0  0  0
   25.9435   15.2451   19.7808 O   0  0  0  0  0  0  0  0  0  0  0  0
  2  1  1  1  0  0  0
  2  3  1  0  0  0  0
  2  5  1  0  0  0  0
  3  4  1  0  0  0  0
  3 10  1  0  0  0  0
  5  6  1  0  0  0  0
  6  7  1  0  0  0  0
  7  8  1  0  0  0  0
  8  9  1  0  0  0  0
M  END
>  <CHROM.1>
114.71455537,-69.00667741,72.17527191,-173.99788957,178.74270753,28.98875599
15.66284505,20.49433646,-3.13649759,0.60896504,2.40179196

>  <Name>
ligand

>  <RI>
0

>  <Rbt.Current_Directory>
/home/itssahil/PROJECTS/Mol_Feturizer/New_Systems/rnas/3DIY

>  <Rbt.Executable>
rbdock ($Id: //depot/dev/client3/rdock/2013.1/src/exe/rbdock.cxx#4 $)

>  <Rbt.Library>
libRbt.so (2013.1, Build901 2013/11/27)

>  <Rbt.Parameter_File>
/export/apps/rDock/src/rDock_2013.1_src/data/scripts/dock_solv.prm

>  <Rbt.Receptor>
prm/pocket_docking_5.prm

>  <SCORE>
-7.81474

>  <SCORE.INTER>
-8.3602

>  <SCORE.INTER.CONST>
1

>  <SCORE.INTER.POLAR>
0

>  <SCORE.INTER.ROT>
5

>  <SCORE.INTER.SOLV>
12.8702

>  <SCORE.INTER.VDW>
-16.7969

>  <SCORE.INTER.norm>
-0.83602

>  <SCORE.INTRA>
0.545462

>  <SCORE.INTRA.DIHEDRAL>
0.0932158

>  <SCORE.INTRA.DIHEDRAL.0>
2.56603

>  <SCORE.INTRA.POLAR>
0

>  <SCORE.INTRA.POLAR.0>
0

>  <SCORE.INTRA.REPUL>
0

>  <SCORE.INTRA.REPUL.0>
0

>  <SCORE.INTRA.SOLV>
0.666223

>  <SCORE.INTRA.SOLV.lig_0>
-32.0799

>  <SCORE.INTRA.VDW>
0.165743

>  <SCORE.INTRA.VDW.0>
-0.618248

>  <SCORE.INTRA.norm>
0.0545462

>  <SCORE.RESTR>
0

>  <SCORE.RESTR.CAVITY>
0

>  <SCORE.RESTR.norm>
0

>  <SCORE.SYSTEM>
0

>  <SCORE.SYSTEM.CONST>
0

>  <SCORE.SYSTEM.DIHEDRAL>
0

>  <SCORE.SYSTEM.SOLV>
0

>  <SCORE.SYSTEM.norm>
0

>  <SCORE.heavy>
10

>  <SCORE.norm>
-0.781474

>  <RMSD>
5.472

$$$$
ligand
 OpenBabel11021811473D
libRbt.so/2013.1/901 2013/11/27
 10  9  0  0  0  0  0  0  0  0999 V2000
   26.7777   14.4999   20.5823 N   0  0  0  0  0  0  0  0  0  0  0  0
   26.9460   15.1190   19.2327 C   0  0  2  0  0  0  0  0  0  0  0  0
   27.5498   14.1461   18.2134 C   0  0  0  0  0  0  0  0  0  0  0  0
   28.7414   14.2039   17.8747 O   0  0  0  0  0  0  0  0  0  0  0  0
   27.7669   16.4084   19.3226 C   0  0  0  0  0  0  0  0  0  0  0  0
   28.7765   16.3944   20.4477 C   0  0  0  0  0  0  0  0  0  0  0  0
   29.9206   15.4520   20.1627 C   0  0  0  0  0  0  0  0  0  0  0  0
   30.9408   15.4649   21.2960 C   0  0  0  0  0  0  0  0  0  0  0  0
   31.5962   16.7867   21.4878 N   0  0  0  0  0  0  0  0  0  0  0  0
   26.8708   13.2410   17.7188 O   0  0  0  0  0  0  0  0  0  0  0  0
  2  1  1  1  0  0  0
  2  3  1  0  0  0  0
  2  5  1  0  0  0  0
  3  4  1  0  0  0  0
  3 10  1  0  0  0  0
  5  6  1  0  0  0  0
  6  7  1  0  0  0  0
  7  8  1  0  0  0  0
  8  9  1  0  0  0  0
M  END
>  <CHROM.1>
-102.65189978,30.35347456,71.07141435,179.12753341,-62.94903566,28.59318403
15.14602137,19.60528172,2.36664039,0.02227148,-2.25680926

>  <Name>
ligand

>  <RI>
0

>  <Rbt.Current_Directory>
/home/itssahil/PROJECTS/Mol_Feturizer/New_Systems/rnas/3DIY

>  <Rbt.Executable>
rbdock ($Id: //depot/dev/client3/rdock/2013.1/src/exe/rbdock.cxx#4 $)

>  <Rbt.Library>
libRbt.so (2013.1, Build901 2013/11/27)

>  <Rbt.Parameter_File>
/export/apps/rDock/src/rDock_2013.1_src/data/scripts/dock_solv.prm

>  <Rbt.Receptor>
prm/blind_docking_100.prm

>  <SCORE>
-5.52241

>  <SCORE.INTER>
-8.67282

>  <SCORE.INTER.CONST>
1

>  <SCORE.INTER.POLAR>
0

>  <SCORE.INTER.ROT>
5

>  <SCORE.INTER.SOLV>
14.0075

>  <SCORE.INTER.VDW>
-17.3844

>  <SCORE.INTER.norm>
-0.867282

>  <SCORE.INTRA>
3.15041

>  <SCORE.INTRA.DIHEDRAL>
2.29865

>  <SCORE.INTRA.DIHEDRAL.0>
2.56603

>  <SCORE.INTRA.POLAR>
0

>  <SCORE.INTRA.POLAR.0>
0

>  <SCORE.INTRA.REPUL>
0

>  <SCORE.INTRA.REPUL.0>
0

>  <SCORE.INTRA.SOLV>
1.48969

>  <SCORE.INTRA.SOLV.lig_0>
-32.0799

>  <SCORE.INTRA.VDW>
1.25624

>  <SCORE.INTRA.VDW.0>
-0.618248

>  <SCORE.INTRA.norm>
0.315041

>  <SCORE.RESTR>
0

>  <SCORE.RESTR.CAVITY>
0

>  <SCORE.RESTR.norm>
0

>  <SCORE.SYSTEM>
0

>  <SCORE.SYSTEM.CONST>
0

>  <SCORE.SYSTEM.DIHEDRAL>
0

>  <SCORE.SYSTEM.SOLV>
0

>  <SCORE.SYSTEM.norm>
0

>  <SCORE.heavy>
10

>  <SCORE.norm>
-0.552241

>  <RMSD>
5.473

$$$$
ligand
 OpenBabel11021811473D
libRbt.so/2013.1/901 2013/11/27
 10  9  0  0  0  0  0  0  0  0999 V2000
   28.5502   15.0567   18.8210 N   0  0  0  0  0  0  0  0  0  0  0  0
   28.1458   14.9778   20.2575 C   0  0  2  0  0  0  0  0  0  0  0  0
   26.6270   15.0686   20.4440 C   0  0  0  0  0  0  0  0  0  0  0  0
   26.0668   14.6770   21.4789 O   0  0  0  0  0  0  0  0  0  0  0  0
   28.8712   16.0405   21.0874 C   0  0  0  0  0  0  0  0  0  0  0  0
   30.3740   15.8756   21.0839 C   0  0  0  0  0  0  0  0  0  0  0  0
   31.0574   16.9464   21.8993 C   0  0  0  0  0  0  0  0  0  0  0  0
   32.5743   16.8042   21.8350 C   0  0  0  0  0  0  0  0  0  0  0  0
   33.1320   17.0194   20.4727 N   0  0  0  0  0  0  0  0  0  0  0  0
   25.9086   15.5732   19.5756 O   0  0  0  0  0  0  0  0  0  0  0  0
  2  1  1  6  0  0  0
  2  3  1  0  0  0  0
  2  5  1  0  0  0  0
  3  4  1  0  0  0  0
  3 10  1  0  0  0  0
  5  6  1  0  0  0  0
  6  7  1  0  0  0  0
  7  8  1  0  0  0  0
  8  9  1  0  0  0  0
M  END
>  <CHROM.1>
160.47188985,-61.80425978,179.43322787,-177.44400504,64.65187573,29.08516587
15.80129876,20.69784130,-2.94355235,0.26784014,1.43558382

>  <Name>
ligand

>  <RI>
0

>  <Rbt.Current_Directory>
/home/itssahil/PROJECTS/Mol_Feturizer/New_Systems/rnas/3DIY

>  <Rbt.Executable>
rbdock ($Id: //depot/dev/client3/rdock/2013.1/src/exe/rbdock.cxx#4 $)

>  <Rbt.Library>
libRbt.so (2013.1, Build901 2013/11/27)

>  <Rbt.Parameter_File>
/export/apps/rDock/src/rDock_2013.1_src/data/scripts/dock_solv.prm

>  <Rbt.Receptor>
prm/pocket_docking_5.prm

>  <SCORE>
-9.31429

>  <SCORE.INTER>
-8.8406

>  <SCORE.INTER.CONST>
1

>  <SCORE.INTER.POLAR>
0

>  <SCORE.INTER.ROT>
5

>  <SCORE.INTER.SOLV>
12.2156

>  <SCORE.INTER.VDW>
-16.8989

>  <SCORE.INTER.norm>
-0.88406

>  <SCORE.INTRA>
-0.473688

>  <SCORE.INTRA.DIHEDRAL>
-0.964275

>  <SCORE.INTRA.DIHEDRAL.0>
2.56603

>  <SCORE.INTRA.POLAR>
0

>  <SCORE.INTRA.POLAR.0>
0

>  <SCORE.INTRA.REPUL>
0

>  <SCORE.INTRA.REPUL.0>
0

>  <SCORE.INTRA.SOLV>
0.20914

>  <SCORE.INTRA.SOLV.lig_0>
-32.0799

>  <SCORE.INTRA.VDW>
-0.096121

>  <SCORE.INTRA.VDW.0>
-0.618248

>  <SCORE.INTRA.norm>
-0.0473688

>  <SCORE.RESTR>
0

>  <SCORE.RESTR.CAVITY>
0

>  <SCORE.RESTR.norm>
0

>  <SCORE.SYSTEM>
0

>  <SCORE.SYSTEM.CONST>
0

>  <SCORE.SYSTEM.DIHEDRAL>
0

>  <SCORE.SYSTEM.SOLV>
0

>  <SCORE.SYSTEM.norm>
0

>  <SCORE.heavy>
10

>  <SCORE.norm>
-0.931429

>  <RMSD>
5.473

$$$$
ligand
 OpenBabel11021811473D
libRbt.so/2013.1/901 2013/11/27
 10  9  0  0  0  0  0  0  0  0999 V2000
   28.8278   14.8803   18.9898 N   0  0  0  0  0  0  0  0  0  0  0  0
   28.3481   15.1656   20.3760 C   0  0  2  0  0  0  0  0  0  0  0  0
   26.8189   15.1453   20.4822 C   0  0  0  0  0  0  0  0  0  0  0  0
   26.0900   15.5302   19.5557 O   0  0  0  0  0  0  0  0  0  0  0  0
   28.9225   16.4883   20.8906 C   0  0  0  0  0  0  0  0  0  0  0  0
   30.4324   16.4935   20.9638 C   0  0  0  0  0  0  0  0  0  0  0  0
   30.9613   17.7838   21.5418 C   0  0  0  0  0  0  0  0  0  0  0  0
   32.4860   17.8072   21.5338 C   0  0  0  0  0  0  0  0  0  0  0  0
   33.0991   16.7314   22.3583 N   0  0  0  0  0  0  0  0  0  0  0  0
   26.2572   14.7064   21.4906 O   0  0  0  0  0  0  0  0  0  0  0  0
  2  1  1  6  0  0  0
  2  3  1  0  0  0  0
  2  5  1  0  0  0  0
  3  4  1  0  0  0  0
  3 10  1  0  0  0  0
  5  6  1  0  0  0  0
  6  7  1  0  0  0  0
  7  8  1  0  0  0  0
  8  9  1  0  0  0  0
M  END
>  <CHROM.1>
-34.22856803,-61.07767715,-177.02835968,-176.67592682,-61.70486109,29.17915561
16.06629776,20.81801384,-2.79951754,0.29655161,1.28040229

>  <Name>
ligand

>  <RI>
0

>  <Rbt.Current_Directory>
/home/itssahil/PROJECTS/Mol_Feturizer/New_Systems/rnas/3DIY

>  <Rbt.Executable>
rbdock ($Id: //depot/dev/client3/rdock/2013.1/src/exe/rbdock.cxx#4 $)

>  <Rbt.Library>
libRbt.so (2013.1, Build901 2013/11/27)

>  <Rbt.Parameter_File>
/export/apps/rDock/src/rDock_2013.1_src/data/scripts/dock_solv.prm

>  <Rbt.Receptor>
prm/pocket_docking_5.prm

>  <SCORE>
-7.46012

>  <SCORE.INTER>
-7.01608

>  <SCORE.INTER.CONST>
1

>  <SCORE.INTER.POLAR>
0

>  <SCORE.INTER.ROT>
5

>  <SCORE.INTER.SOLV>
14.5753

>  <SCORE.INTER.VDW>
-16.4692

>  <SCORE.INTER.norm>
-0.701608

>  <SCORE.INTRA>
-0.44404

>  <SCORE.INTRA.DIHEDRAL>
-0.85351

>  <SCORE.INTRA.DIHEDRAL.0>
2.56603

>  <SCORE.INTRA.POLAR>
0

>  <SCORE.INTRA.POLAR.0>
0

>  <SCORE.INTRA.REPUL>
0

>  <SCORE.INTRA.REPUL.0>
0

>  <SCORE.INTRA.SOLV>
0.211017

>  <SCORE.INTRA.SOLV.lig_0>
-32.0799

>  <SCORE.INTRA.VDW>
-0.122793

>  <SCORE.INTRA.VDW.0>
-0.618248

>  <SCORE.INTRA.norm>
-0.044404

>  <SCORE.RESTR>
0

>  <SCORE.RESTR.CAVITY>
0

>  <SCORE.RESTR.norm>
0

>  <SCORE.SYSTEM>
0

>  <SCORE.SYSTEM.CONST>
0

>  <SCORE.SYSTEM.DIHEDRAL>
0

>  <SCORE.SYSTEM.SOLV>
0

>  <SCORE.SYSTEM.norm>
0

>  <SCORE.heavy>
10

>  <SCORE.norm>
-0.746012

>  <RMSD>
5.475

$$$$
ligand
 OpenBabel11021811473D
libRbt.so/2013.1/901 2013/11/27
 10  9  0  0  0  0  0  0  0  0999 V2000
   28.5398   14.7363   18.8653 N   0  0  0  0  0  0  0  0  0  0  0  0
   28.0849   14.6787   20.2875 C   0  0  2  0  0  0  0  0  0  0  0  0
   26.6008   15.0298   20.4422 C   0  0  0  0  0  0  0  0  0  0  0  0
   25.9757   15.6459   19.5660 O   0  0  0  0  0  0  0  0  0  0  0  0
   28.9605   15.5659   21.1765 C   0  0  0  0  0  0  0  0  0  0  0  0
   30.4018   15.1134   21.2344 C   0  0  0  0  0  0  0  0  0  0  0  0
   31.2538   16.0578   22.0473 C   0  0  0  0  0  0  0  0  0  0  0  0
   31.5191   17.3532   21.2877 C   0  0  0  0  0  0  0  0  0  0  0  0
   32.4645   18.2657   21.9855 N   0  0  0  0  0  0  0  0  0  0  0  0
   25.9638   14.6749   21.4388 O   0  0  0  0  0  0  0  0  0  0  0  0
  2  1  1  6  0  0  0
  2  3  1  0  0  0  0
  2  5  1  0  0  0  0
  3  4  1  0  0  0  0
  3 10  1  0  0  0  0
  5  6  1  0  0  0  0
  6  7  1  0  0  0  0
  7  8  1  0  0  0  0
  8  9  1  0  0  0  0
M  END
>  <CHROM.1>
-18.99845081,-63.54362773,176.40149555,-73.78868428,-174.29689225,28.93230316
15.71362980,20.83346702,-2.75281191,0.26481574,1.16454541

>  <Name>
ligand

>  <RI>
0

>  <Rbt.Current_Directory>
/home/itssahil/PROJECTS/Mol_Feturizer/New_Systems/rnas/3DIY

>  <Rbt.Executable>
rbdock ($Id: //depot/dev/client3/rdock/2013.1/src/exe/rbdock.cxx#4 $)

>  <Rbt.Library>
libRbt.so (2013.1, Build901 2013/11/27)

>  <Rbt.Parameter_File>
/export/apps/rDock/src/rDock_2013.1_src/data/scripts/dock_solv.prm

>  <Rbt.Receptor>
prm/pocket_docking_7.prm

>  <SCORE>
-9.27909

>  <SCORE.INTER>
-9.32311

>  <SCORE.INTER.CONST>
1

>  <SCORE.INTER.POLAR>
0

>  <SCORE.INTER.ROT>
5

>  <SCORE.INTER.SOLV>
12.5918

>  <SCORE.INTER.VDW>
-17.346

>  <SCORE.INTER.norm>
-0.932311

>  <SCORE.INTRA>
0.0440118

>  <SCORE.INTRA.DIHEDRAL>
0.0387328

>  <SCORE.INTRA.DIHEDRAL.0>
2.56603

>  <SCORE.INTRA.POLAR>
0

>  <SCORE.INTRA.POLAR.0>
0

>  <SCORE.INTRA.REPUL>
0

>  <SCORE.INTRA.REPUL.0>
0

>  <SCORE.INTRA.SOLV>
-0.474301

>  <SCORE.INTRA.SOLV.lig_0>
-32.0799

>  <SCORE.INTRA.VDW>
0.261796

>  <SCORE.INTRA.VDW.0>
-0.618248

>  <SCORE.INTRA.norm>
0.00440118

>  <SCORE.RESTR>
0

>  <SCORE.RESTR.CAVITY>
0

>  <SCORE.RESTR.norm>
0

>  <SCORE.SYSTEM>
0

>  <SCORE.SYSTEM.CONST>
0

>  <SCORE.SYSTEM.DIHEDRAL>
0

>  <SCORE.SYSTEM.SOLV>
0

>  <SCORE.SYSTEM.norm>
0

>  <SCORE.heavy>
10

>  <SCORE.norm>
-0.927909

>  <RMSD>
5.476

$$$$
ligand
 OpenBabel11021811473D
libRbt.so/2013.1/901 2013/11/27
 10  9  0  0  0  0  0  0  0  0999 V2000
   28.5241   14.8766   18.8322 N   0  0  0  0  0  0  0  0  0  0  0  0
   28.0666   14.7187   20.2460 C   0  0  2  0  0  0  0  0  0  0  0  0
   26.5765   15.0350   20.4180 C   0  0  0  0  0  0  0  0  0  0  0  0
   25.9306   15.6492   19.5557 O   0  0  0  0  0  0  0  0  0  0  0  0
   28.9253   15.5598   21.1943 C   0  0  0  0  0  0  0  0  0  0  0  0
   30.3629   15.0973   21.2644 C   0  0  0  0  0  0  0  0  0  0  0  0
   31.2164   16.0407   22.0767 C   0  0  0  0  0  0  0  0  0  0  0  0
   31.4915   17.3314   21.3128 C   0  0  0  0  0  0  0  0  0  0  0  0
   32.4195   18.2529   22.0220 N   0  0  0  0  0  0  0  0  0  0  0  0
   25.9561   14.6525   21.4148 O   0  0  0  0  0  0  0  0  0  0  0  0
  2  1  1  6  0  0  0
  2  3  1  0  0  0  0
  2  5  1  0  0  0  0
  3  4  1  0  0  0  0
  3 10  1  0  0  0  0
  5  6  1  0  0  0  0
  6  7  1  0  0  0  0
  7  8  1  0  0  0  0
  8  9  1  0  0  0  0
M  END
>  <CHROM.1>
-15.94888402,-65.56231451,173.27585808,-73.56605462,-175.34488374,28.90268979
15.72219079,20.83419016,-2.81094296,0.33613147,1.38619560

>  <Name>
ligand

>  <RI>
0

>  <Rbt.Current_Directory>
/home/itssahil/PROJECTS/Mol_Feturizer/New_Systems/rnas/3DIY

>  <Rbt.Executable>
rbdock ($Id: //depot/dev/client3/rdock/2013.1/src/exe/rbdock.cxx#4 $)

>  <Rbt.Library>
libRbt.so (2013.1, Build901 2013/11/27)

>  <Rbt.Parameter_File>
/export/apps/rDock/src/rDock_2013.1_src/data/scripts/dock_solv.prm

>  <Rbt.Receptor>
prm/pocket_docking_3.prm

>  <SCORE>
-9.2768

>  <SCORE.INTER>
-9.41385

>  <SCORE.INTER.CONST>
1

>  <SCORE.INTER.POLAR>
0

>  <SCORE.INTER.ROT>
5

>  <SCORE.INTER.SOLV>
12.2903

>  <SCORE.INTER.VDW>
-17.306

>  <SCORE.INTER.norm>
-0.941385

>  <SCORE.INTRA>
0.137055

>  <SCORE.INTRA.DIHEDRAL>
0.178528

>  <SCORE.INTRA.DIHEDRAL.0>
2.56603

>  <SCORE.INTRA.POLAR>
0

>  <SCORE.INTRA.POLAR.0>
0

>  <SCORE.INTRA.REPUL>
0

>  <SCORE.INTRA.REPUL.0>
0

>  <SCORE.INTRA.SOLV>
-0.427873

>  <SCORE.INTRA.SOLV.lig_0>
-32.0799

>  <SCORE.INTRA.VDW>
0.261727

>  <SCORE.INTRA.VDW.0>
-0.618248

>  <SCORE.INTRA.norm>
0.0137055

>  <SCORE.RESTR>
0

>  <SCORE.RESTR.CAVITY>
0

>  <SCORE.RESTR.norm>
0

>  <SCORE.SYSTEM>
0

>  <SCORE.SYSTEM.CONST>
0

>  <SCORE.SYSTEM.DIHEDRAL>
0

>  <SCORE.SYSTEM.SOLV>
0

>  <SCORE.SYSTEM.norm>
0

>  <SCORE.heavy>
10

>  <SCORE.norm>
-0.92768

>  <RMSD>
5.481

$$$$
ligand
 OpenBabel11021811473D
libRbt.so/2013.1/901 2013/11/27
 10  9  0  0  0  0  0  0  0  0999 V2000
   28.5203   14.7471   18.8207 N   0  0  0  0  0  0  0  0  0  0  0  0
   28.0618   14.6601   20.2403 C   0  0  2  0  0  0  0  0  0  0  0  0
   26.5714   14.9837   20.3950 C   0  0  0  0  0  0  0  0  0  0  0  0
   25.9348   14.6804   21.4152 O   0  0  0  0  0  0  0  0  0  0  0  0
   28.9193   15.5483   21.1458 C   0  0  0  0  0  0  0  0  0  0  0  0
   30.3557   15.0873   21.2448 C   0  0  0  0  0  0  0  0  0  0  0  0
   31.1952   16.0398   22.0612 C   0  0  0  0  0  0  0  0  0  0  0  0
   31.4485   17.3390   21.3041 C   0  0  0  0  0  0  0  0  0  0  0  0
   32.3872   18.2579   22.0025 N   0  0  0  0  0  0  0  0  0  0  0  0
   25.9588   15.5957   19.5147 O   0  0  0  0  0  0  0  0  0  0  0  0
  2  1  1  6  0  0  0
  2  3  1  0  0  0  0
  2  5  1  0  0  0  0
  3  4  1  0  0  0  0
  3 10  1  0  0  0  0
  5  6  1  0  0  0  0
  6  7  1  0  0  0  0
  7  8  1  0  0  0  0
  8  9  1  0  0  0  0
M  END
>  <CHROM.1>
163.35696405,-65.80613872,175.80702101,-71.91797604,-174.01687573,28.89131343
15.69569324,20.81485793,-2.75024355,0.27938587,1.20302949

>  <Name>
ligand

>  <RI>
0

>  <Rbt.Current_Directory>
/home/itssahil/PROJECTS/Mol_Feturizer/New_Systems/rnas/3DIY

>  <Rbt.Executable>
rbdock ($Id: //depot/dev/client3/rdock/2013.1/src/exe/rbdock.cxx#4 $)

>  <Rbt.Library>
libRbt.so (2013.1, Build901 2013/11/27)

>  <Rbt.Parameter_File>
/export/apps/rDock/src/rDock_2013.1_src/data/scripts/dock_solv.prm

>  <Rbt.Receptor>
prm/pocket_docking_4.prm

>  <SCORE>
-9.2979

>  <SCORE.INTER>
-9.30586

>  <SCORE.INTER.CONST>
1

>  <SCORE.INTER.POLAR>
0

>  <SCORE.INTER.ROT>
5

>  <SCORE.INTER.SOLV>
12.585

>  <SCORE.INTER.VDW>
-17.3322

>  <SCORE.INTER.norm>
-0.930586

>  <SCORE.INTRA>
0.00796139

>  <SCORE.INTRA.DIHEDRAL>
-0.155525

>  <SCORE.INTRA.DIHEDRAL.0>
2.56603

>  <SCORE.INTRA.POLAR>
0

>  <SCORE.INTRA.POLAR.0>
0

>  <SCORE.INTRA.REPUL>
0

>  <SCORE.INTRA.REPUL.0>
0

>  <SCORE.INTRA.SOLV>
-0.478776

>  <SCORE.INTRA.SOLV.lig_0>
-32.0799

>  <SCORE.INTRA.VDW>
0.325112

>  <SCORE.INTRA.VDW.0>
-0.618248

>  <SCORE.INTRA.norm>
0.000796139

>  <SCORE.RESTR>
0

>  <SCORE.RESTR.CAVITY>
0

>  <SCORE.RESTR.norm>
0

>  <SCORE.SYSTEM>
0

>  <SCORE.SYSTEM.CONST>
0

>  <SCORE.SYSTEM.DIHEDRAL>
0

>  <SCORE.SYSTEM.SOLV>
0

>  <SCORE.SYSTEM.norm>
0

>  <SCORE.heavy>
10

>  <SCORE.norm>
-0.92979

>  <RMSD>
5.481

$$$$
ligand
 OpenBabel11021811473D
libRbt.so/2013.1/901 2013/11/27
 10  9  0  0  0  0  0  0  0  0999 V2000
   28.5070   14.8448   18.8281 N   0  0  0  0  0  0  0  0  0  0  0  0
   28.0522   14.7020   20.2444 C   0  0  2  0  0  0  0  0  0  0  0  0
   26.5646   15.0290   20.4175 C   0  0  0  0  0  0  0  0  0  0  0  0
   25.9184   15.6332   19.5484 O   0  0  0  0  0  0  0  0  0  0  0  0
   28.9187   15.5460   21.1831 C   0  0  0  0  0  0  0  0  0  0  0  0
   30.3571   15.0846   21.2417 C   0  0  0  0  0  0  0  0  0  0  0  0
   31.2132   16.0203   22.0602 C   0  0  0  0  0  0  0  0  0  0  0  0
   31.4536   17.3338   21.3237 C   0  0  0  0  0  0  0  0  0  0  0  0
   32.3673   18.2592   22.0461 N   0  0  0  0  0  0  0  0  0  0  0  0
   25.9463   14.6655   21.4227 O   0  0  0  0  0  0  0  0  0  0  0  0
  2  1  1  6  0  0  0
  2  3  1  0  0  0  0
  2  5  1  0  0  0  0
  3  4  1  0  0  0  0
  3 10  1  0  0  0  0
  5  6  1  0  0  0  0
  6  7  1  0  0  0  0
  7  8  1  0  0  0  0
  8  9  1  0  0  0  0
M  END
>  <CHROM.1>
-15.54010237,-64.91996052,174.06472694,-72.11559779,-176.14766952,28.88566868
15.71283977,20.83213879,-2.77326503,0.29933327,1.27659771

>  <Name>
ligand

>  <RI>
0

>  <Rbt.Current_Directory>
/home/itssahil/PROJECTS/Mol_Feturizer/New_Systems/rnas/3DIY

>  <Rbt.Executable>
rbdock ($Id: //depot/dev/client3/rdock/2013.1/src/exe/rbdock.cxx#4 $)

>  <Rbt.Library>
libRbt.so (2013.1, Build901 2013/11/27)

>  <Rbt.Parameter_File>
/export/apps/rDock/src/rDock_2013.1_src/data/scripts/dock_solv.prm

>  <Rbt.Receptor>
prm/pocket_docking_4.prm

>  <SCORE>
-9.30242

>  <SCORE.INTER>
-9.3801

>  <SCORE.INTER.CONST>
1

>  <SCORE.INTER.POLAR>
0

>  <SCORE.INTER.ROT>
5

>  <SCORE.INTER.SOLV>
12.3904

>  <SCORE.INTER.VDW>
-17.3169

>  <SCORE.INTER.norm>
-0.93801

>  <SCORE.INTRA>
0.0776848

>  <SCORE.INTRA.DIHEDRAL>
-0.061544

>  <SCORE.INTRA.DIHEDRAL.0>
2.56603

>  <SCORE.INTRA.POLAR>
0

>  <SCORE.INTRA.POLAR.0>
0

>  <SCORE.INTRA.REPUL>
0

>  <SCORE.INTRA.REPUL.0>
0

>  <SCORE.INTRA.SOLV>
-0.420849

>  <SCORE.INTRA.SOLV.lig_0>
-32.0799

>  <SCORE.INTRA.VDW>
0.318881

>  <SCORE.INTRA.VDW.0>
-0.618248

>  <SCORE.INTRA.norm>
0.00776848

>  <SCORE.RESTR>
0

>  <SCORE.RESTR.CAVITY>
0

>  <SCORE.RESTR.norm>
0

>  <SCORE.SYSTEM>
0

>  <SCORE.SYSTEM.CONST>
0

>  <SCORE.SYSTEM.DIHEDRAL>
0

>  <SCORE.SYSTEM.SOLV>
0

>  <SCORE.SYSTEM.norm>
0

>  <SCORE.heavy>
10

>  <SCORE.norm>
-0.930242

>  <RMSD>
5.482

$$$$
ligand
 OpenBabel11021811473D
libRbt.so/2013.1/901 2013/11/27
 10  9  0  0  0  0  0  0  0  0999 V2000
   26.0556   15.5202   19.7436 N   0  0  0  0  0  0  0  0  0  0  0  0
   27.4676   15.3233   19.2959 C   0  0  2  0  0  0  0  0  0  0  0  0
   27.5628   14.9165   17.8210 C   0  0  0  0  0  0  0  0  0  0  0  0
   28.2452   15.5546   17.0054 O   0  0  0  0  0  0  0  0  0  0  0  0
   28.1901   14.3177   20.1965 C   0  0  0  0  0  0  0  0  0  0  0  0
   28.3502   14.8007   21.6200 C   0  0  0  0  0  0  0  0  0  0  0  0
   29.3044   15.9667   21.7125 C   0  0  0  0  0  0  0  0  0  0  0  0
   30.7427   15.5225   21.4687 C   0  0  0  0  0  0  0  0  0  0  0  0
   31.7207   16.6432   21.4930 N   0  0  0  0  0  0  0  0  0  0  0  0
   26.9863   13.9087   17.4007 O   0  0  0  0  0  0  0  0  0  0  0  0
  2  1  1  1  0  0  0
  2  3  1  0  0  0  0
  2  5  1  0  0  0  0
  3  4  1  0  0  0  0
  3 10  1  0  0  0  0
  5  6  1  0  0  0  0
  6  7  1  0  0  0  0
  7  8  1  0  0  0  0
  8  9  1  0  0  0  0
M  END
>  <CHROM.1>
124.74959733,-64.88517038,-68.02928056,-71.26591004,177.63609303,28.45871705
15.23693172,19.73492660,2.31333684,-0.30808531,-1.59327691

>  <Name>
ligand

>  <RI>
0

>  <Rbt.Current_Directory>
/home/itssahil/PROJECTS/Mol_Feturizer/New_Systems/rnas/3DIY

>  <Rbt.Executable>
rbdock ($Id: //depot/dev/client3/rdock/2013.1/src/exe/rbdock.cxx#4 $)

>  <Rbt.Library>
libRbt.so (2013.1, Build901 2013/11/27)

>  <Rbt.Parameter_File>
/export/apps/rDock/src/rDock_2013.1_src/data/scripts/dock_solv.prm

>  <Rbt.Receptor>
prm/pocket_docking_4.prm

>  <SCORE>
-8.829

>  <SCORE.INTER>
-9.23841

>  <SCORE.INTER.CONST>
1

>  <SCORE.INTER.POLAR>
0

>  <SCORE.INTER.ROT>
5

>  <SCORE.INTER.SOLV>
16.0419

>  <SCORE.INTER.VDW>
-18.4396

>  <SCORE.INTER.norm>
-0.923841

>  <SCORE.INTRA>
0.409414

>  <SCORE.INTRA.DIHEDRAL>
-0.125816

>  <SCORE.INTRA.DIHEDRAL.0>
2.56603

>  <SCORE.INTRA.POLAR>
0

>  <SCORE.INTRA.POLAR.0>
0

>  <SCORE.INTRA.REPUL>
0

>  <SCORE.INTRA.REPUL.0>
0

>  <SCORE.INTRA.SOLV>
-0.0401469

>  <SCORE.INTRA.SOLV.lig_0>
-32.0799

>  <SCORE.INTRA.VDW>
0.492395

>  <SCORE.INTRA.VDW.0>
-0.618248

>  <SCORE.INTRA.norm>
0.0409414

>  <SCORE.RESTR>
0

>  <SCORE.RESTR.CAVITY>
0

>  <SCORE.RESTR.norm>
0

>  <SCORE.SYSTEM>
0

>  <SCORE.SYSTEM.CONST>
0

>  <SCORE.SYSTEM.DIHEDRAL>
0

>  <SCORE.SYSTEM.SOLV>
0

>  <SCORE.SYSTEM.norm>
0

>  <SCORE.heavy>
10

>  <SCORE.norm>
-0.8829

>  <RMSD>
5.482

$$$$
ligand
 OpenBabel11021811473D
libRbt.so/2013.1/901 2013/11/27
 10  9  0  0  0  0  0  0  0  0999 V2000
   28.5063   14.8897   18.8188 N   0  0  0  0  0  0  0  0  0  0  0  0
   28.0526   14.7239   20.2329 C   0  0  2  0  0  0  0  0  0  0  0  0
   26.5637   15.0424   20.4112 C   0  0  0  0  0  0  0  0  0  0  0  0
   25.9143   15.6548   19.5503 O   0  0  0  0  0  0  0  0  0  0  0  0
   28.9159   15.5572   21.1840 C   0  0  0  0  0  0  0  0  0  0  0  0
   30.3536   15.0936   21.2439 C   0  0  0  0  0  0  0  0  0  0  0  0
   31.2117   16.0315   22.0578 C   0  0  0  0  0  0  0  0  0  0  0  0
   31.4727   17.3323   21.3060 C   0  0  0  0  0  0  0  0  0  0  0  0
   32.4125   18.2452   22.0107 N   0  0  0  0  0  0  0  0  0  0  0  0
   25.9478   14.6636   21.4122 O   0  0  0  0  0  0  0  0  0  0  0  0
  2  1  1  6  0  0  0
  2  3  1  0  0  0  0
  2  5  1  0  0  0  0
  3  4  1  0  0  0  0
  3 10  1  0  0  0  0
  5  6  1  0  0  0  0
  6  7  1  0  0  0  0
  7  8  1  0  0  0  0
  8  9  1  0  0  0  0
M  END
>  <CHROM.1>
-15.40517141,-65.38983911,173.17809398,-73.03986235,-174.89162284,28.89086514
15.72426795,20.82344224,-2.81144728,0.33291664,1.38412350

>  <Name>
ligand

>  <RI>
0

>  <Rbt.Current_Directory>
/home/itssahil/PROJECTS/Mol_Feturizer/New_Systems/rnas/3DIY

>  <Rbt.Executable>
rbdock ($Id: //depot/dev/client3/rdock/2013.1/src/exe/rbdock.cxx#4 $)

>  <Rbt.Library>
libRbt.so (2013.1, Build901 2013/11/27)

>  <Rbt.Parameter_File>
/export/apps/rDock/src/rDock_2013.1_src/data/scripts/dock_solv.prm

>  <Rbt.Receptor>
prm/pocket_docking_5.prm

>  <SCORE>
-9.29357

>  <SCORE.INTER>
-9.43524

>  <SCORE.INTER.CONST>
1

>  <SCORE.INTER.POLAR>
0

>  <SCORE.INTER.ROT>
5

>  <SCORE.INTER.SOLV>
12.2523

>  <SCORE.INTER.VDW>
-17.3076

>  <SCORE.INTER.norm>
-0.943524

>  <SCORE.INTRA>
0.141678

>  <SCORE.INTRA.DIHEDRAL>
0.137432

>  <SCORE.INTRA.DIHEDRAL.0>
2.56603

>  <SCORE.INTRA.POLAR>
0

>  <SCORE.INTRA.POLAR.0>
0

>  <SCORE.INTRA.REPUL>
0

>  <SCORE.INTRA.REPUL.0>
0

>  <SCORE.INTRA.SOLV>
-0.420762

>  <SCORE.INTRA.SOLV.lig_0>
-32.0799

>  <SCORE.INTRA.VDW>
0.283343

>  <SCORE.INTRA.VDW.0>
-0.618248

>  <SCORE.INTRA.norm>
0.0141678

>  <SCORE.RESTR>
0

>  <SCORE.RESTR.CAVITY>
0

>  <SCORE.RESTR.norm>
0

>  <SCORE.SYSTEM>
0

>  <SCORE.SYSTEM.CONST>
0

>  <SCORE.SYSTEM.DIHEDRAL>
0

>  <SCORE.SYSTEM.SOLV>
0

>  <SCORE.SYSTEM.norm>
0

>  <SCORE.heavy>
10

>  <SCORE.norm>
-0.929357

>  <RMSD>
5.483

$$$$
ligand
 OpenBabel11021811473D
libRbt.so/2013.1/901 2013/11/27
 10  9  0  0  0  0  0  0  0  0999 V2000
   28.7985   16.0574   19.5527 N   0  0  0  0  0  0  0  0  0  0  0  0
   28.1795   15.1158   20.5342 C   0  0  2  0  0  0  0  0  0  0  0  0
   26.6487   15.1080   20.4527 C   0  0  0  0  0  0  0  0  0  0  0  0
   26.0402   15.5496   19.4664 O   0  0  0  0  0  0  0  0  0  0  0  0
   28.6578   15.4186   21.9568 C   0  0  0  0  0  0  0  0  0  0  0  0
   30.1621   15.3762   22.1010 C   0  0  0  0  0  0  0  0  0  0  0  0
   30.8107   16.6373   21.5839 C   0  0  0  0  0  0  0  0  0  0  0  0
   32.3242   16.5925   21.7640 C   0  0  0  0  0  0  0  0  0  0  0  0
   33.0085   17.8432   21.3389 N   0  0  0  0  0  0  0  0  0  0  0  0
   25.9660   14.6235   21.3604 O   0  0  0  0  0  0  0  0  0  0  0  0
  2  1  1  6  0  0  0
  2  3  1  0  0  0  0
  2  5  1  0  0  0  0
  3  4  1  0  0  0  0
  3 10  1  0  0  0  0
  5  6  1  0  0  0  0
  6  7  1  0  0  0  0
  7  8  1  0  0  0  0
  8  9  1  0  0  0  0
M  END
>  <CHROM.1>
17.78565856,-56.64524057,78.83851287,178.75563597,-176.83444412,29.01435972
15.82650512,21.00593288,-3.10559114,0.36830391,2.03473779

>  <Name>
ligand

>  <RI>
0

>  <Rbt.Current_Directory>
/home/itssahil/PROJECTS/Mol_Feturizer/New_Systems/rnas/3DIY

>  <Rbt.Executable>
rbdock ($Id: //depot/dev/client3/rdock/2013.1/src/exe/rbdock.cxx#4 $)

>  <Rbt.Library>
libRbt.so (2013.1, Build901 2013/11/27)

>  <Rbt.Parameter_File>
/export/apps/rDock/src/rDock_2013.1_src/data/scripts/dock_solv.prm

>  <Rbt.Receptor>
prm/pocket_docking_4.prm

>  <SCORE>
-8.78508

>  <SCORE.INTER>
-9.93634

>  <SCORE.INTER.CONST>
1

>  <SCORE.INTER.POLAR>
0

>  <SCORE.INTER.ROT>
5

>  <SCORE.INTER.SOLV>
11.6918

>  <SCORE.INTER.VDW>
-17.4548

>  <SCORE.INTER.norm>
-0.993634

>  <SCORE.INTRA>
1.15126

>  <SCORE.INTRA.DIHEDRAL>
0.369676

>  <SCORE.INTRA.DIHEDRAL.0>
2.56603

>  <SCORE.INTRA.POLAR>
0

>  <SCORE.INTRA.POLAR.0>
0

>  <SCORE.INTRA.REPUL>
0

>  <SCORE.INTRA.REPUL.0>
0

>  <SCORE.INTRA.SOLV>
0.814981

>  <SCORE.INTRA.SOLV.lig_0>
-32.0799

>  <SCORE.INTRA.VDW>
0.558929

>  <SCORE.INTRA.VDW.0>
-0.618248

>  <SCORE.INTRA.norm>
0.115126

>  <SCORE.RESTR>
0

>  <SCORE.RESTR.CAVITY>
0

>  <SCORE.RESTR.norm>
0

>  <SCORE.SYSTEM>
0

>  <SCORE.SYSTEM.CONST>
0

>  <SCORE.SYSTEM.DIHEDRAL>
0

>  <SCORE.SYSTEM.SOLV>
0

>  <SCORE.SYSTEM.norm>
0

>  <SCORE.heavy>
10

>  <SCORE.norm>
-0.878508

>  <RMSD>
5.484

$$$$
ligand
 OpenBabel11021811473D
libRbt.so/2013.1/901 2013/11/27
 10  9  0  0  0  0  0  0  0  0999 V2000
   28.5066   14.8209   18.8151 N   0  0  0  0  0  0  0  0  0  0  0  0
   28.0641   14.7144   20.2384 C   0  0  2  0  0  0  0  0  0  0  0  0
   26.5776   15.0447   20.4158 C   0  0  0  0  0  0  0  0  0  0  0  0
   25.9368   15.6731   19.5600 O   0  0  0  0  0  0  0  0  0  0  0  0
   28.9377   15.5829   21.1477 C   0  0  0  0  0  0  0  0  0  0  0  0
   30.3685   15.1028   21.2344 C   0  0  0  0  0  0  0  0  0  0  0  0
   31.2176   16.0207   22.0799 C   0  0  0  0  0  0  0  0  0  0  0  0
   31.4869   17.3390   21.3623 C   0  0  0  0  0  0  0  0  0  0  0  0
   32.4301   18.2285   22.0920 N   0  0  0  0  0  0  0  0  0  0  0  0
   25.9550   14.6599   21.4103 O   0  0  0  0  0  0  0  0  0  0  0  0
  2  1  1  6  0  0  0
  2  3  1  0  0  0  0
  2  5  1  0  0  0  0
  3  4  1  0  0  0  0
  3 10  1  0  0  0  0
  5  6  1  0  0  0  0
  6  7  1  0  0  0  0
  7  8  1  0  0  0  0
  8  9  1  0  0  0  0
M  END
>  <CHROM.1>
-18.50338520,-66.43905445,177.04212050,-71.91665007,-174.28498513,28.90389341
15.71983018,20.83617203,-2.75693884,0.27783747,1.23482845

>  <Name>
ligand

>  <RI>
0

>  <Rbt.Current_Directory>
/home/itssahil/PROJECTS/Mol_Feturizer/New_Systems/rnas/3DIY

>  <Rbt.Executable>
rbdock ($Id: //depot/dev/client3/rdock/2013.1/src/exe/rbdock.cxx#4 $)

>  <Rbt.Library>
libRbt.so (2013.1, Build901 2013/11/27)

>  <Rbt.Parameter_File>
/export/apps/rDock/src/rDock_2013.1_src/data/scripts/dock_solv.prm

>  <Rbt.Receptor>
prm/pocket_docking_3.prm

>  <SCORE>
-9.20286

>  <SCORE.INTER>
-9.22355

>  <SCORE.INTER.CONST>
1

>  <SCORE.INTER.POLAR>
0

>  <SCORE.INTER.ROT>
5

>  <SCORE.INTER.SOLV>
12.4679

>  <SCORE.INTER.VDW>
-17.2383

>  <SCORE.INTER.norm>
-0.922355

>  <SCORE.INTRA>
0.0206904

>  <SCORE.INTRA.DIHEDRAL>
-0.0469057

>  <SCORE.INTRA.DIHEDRAL.0>
2.56603

>  <SCORE.INTRA.POLAR>
0

>  <SCORE.INTRA.POLAR.0>
0

>  <SCORE.INTRA.REPUL>
0

>  <SCORE.INTRA.REPUL.0>
0

>  <SCORE.INTRA.SOLV>
-0.512723

>  <SCORE.INTRA.SOLV.lig_0>
-32.0799

>  <SCORE.INTRA.VDW>
0.300505

>  <SCORE.INTRA.VDW.0>
-0.618248

>  <SCORE.INTRA.norm>
0.00206904

>  <SCORE.RESTR>
0

>  <SCORE.RESTR.CAVITY>
0

>  <SCORE.RESTR.norm>
0

>  <SCORE.SYSTEM>
0

>  <SCORE.SYSTEM.CONST>
0

>  <SCORE.SYSTEM.DIHEDRAL>
0

>  <SCORE.SYSTEM.SOLV>
0

>  <SCORE.SYSTEM.norm>
0

>  <SCORE.heavy>
10

>  <SCORE.norm>
-0.920286

>  <RMSD>
5.485

$$$$
ligand
 OpenBabel11021811473D
libRbt.so/2013.1/901 2013/11/27
 10  9  0  0  0  0  0  0  0  0999 V2000
   26.3319   15.7625   19.6786 N   0  0  0  0  0  0  0  0  0  0  0  0
   27.7177   15.2720   19.4104 C   0  0  2  0  0  0  0  0  0  0  0  0
   27.7975   14.4028   18.1502 C   0  0  0  0  0  0  0  0  0  0  0  0
   28.7794   14.4303   17.3931 O   0  0  0  0  0  0  0  0  0  0  0  0
   28.2810   14.5356   20.6289 C   0  0  0  0  0  0  0  0  0  0  0  0
   28.9211   15.4596   21.6397 C   0  0  0  0  0  0  0  0  0  0  0  0
   30.1796   16.0951   21.1004 C   0  0  0  0  0  0  0  0  0  0  0  0
   30.8143   17.0223   22.1314 C   0  0  0  0  0  0  0  0  0  0  0  0
   32.1046   17.6116   21.6829 N   0  0  0  0  0  0  0  0  0  0  0  0
   26.8930   13.6120   17.8648 O   0  0  0  0  0  0  0  0  0  0  0  0
  2  1  1  1  0  0  0
  2  3  1  0  0  0  0
  2  5  1  0  0  0  0
  3  4  1  0  0  0  0
  3 10  1  0  0  0  0
  5  6  1  0  0  0  0
  6  7  1  0  0  0  0
  7  8  1  0  0  0  0
  8  9  1  0  0  0  0
M  END
>  <CHROM.1>
144.01134504,-85.43729347,-67.51072972,-179.92758530,176.44216347,28.77711981
15.39648659,19.93238922,2.29454117,-0.27413666,-1.96666019

>  <Name>
ligand

>  <RI>
0

>  <Rbt.Current_Directory>
/home/itssahil/PROJECTS/Mol_Feturizer/New_Systems/rnas/3DIY

>  <Rbt.Executable>
rbdock ($Id: //depot/dev/client3/rdock/2013.1/src/exe/rbdock.cxx#4 $)

>  <Rbt.Library>
libRbt.so (2013.1, Build901 2013/11/27)

>  <Rbt.Parameter_File>
/export/apps/rDock/src/rDock_2013.1_src/data/scripts/dock_solv.prm

>  <Rbt.Receptor>
prm/pocket_docking_4.prm

>  <SCORE>
-7.32579

>  <SCORE.INTER>
-7.56471

>  <SCORE.INTER.CONST>
1

>  <SCORE.INTER.POLAR>
0

>  <SCORE.INTER.ROT>
5

>  <SCORE.INTER.SOLV>
15.4829

>  <SCORE.INTER.VDW>
-17.1375

>  <SCORE.INTER.norm>
-0.756471

>  <SCORE.INTRA>
0.238919

>  <SCORE.INTRA.DIHEDRAL>
1.4089

>  <SCORE.INTRA.DIHEDRAL.0>
2.56603

>  <SCORE.INTRA.POLAR>
0

>  <SCORE.INTRA.POLAR.0>
0

>  <SCORE.INTRA.REPUL>
0

>  <SCORE.INTRA.REPUL.0>
0

>  <SCORE.INTRA.SOLV>
-0.655365

>  <SCORE.INTRA.SOLV.lig_0>
-32.0799

>  <SCORE.INTRA.VDW>
-0.137851

>  <SCORE.INTRA.VDW.0>
-0.618248

>  <SCORE.INTRA.norm>
0.0238919

>  <SCORE.RESTR>
0

>  <SCORE.RESTR.CAVITY>
0

>  <SCORE.RESTR.norm>
0

>  <SCORE.SYSTEM>
0

>  <SCORE.SYSTEM.CONST>
0

>  <SCORE.SYSTEM.DIHEDRAL>
0

>  <SCORE.SYSTEM.SOLV>
0

>  <SCORE.SYSTEM.norm>
0

>  <SCORE.heavy>
10

>  <SCORE.norm>
-0.732579

>  <RMSD>
5.485

$$$$
ligand
 OpenBabel11021811473D
libRbt.so/2013.1/901 2013/11/27
 10  9  0  0  0  0  0  0  0  0999 V2000
   28.5034   14.5752   18.9007 N   0  0  0  0  0  0  0  0  0  0  0  0
   28.0335   14.6037   20.3189 C   0  0  2  0  0  0  0  0  0  0  0  0
   26.5523   14.9805   20.4375 C   0  0  0  0  0  0  0  0  0  0  0  0
   25.8771   14.6885   21.4359 O   0  0  0  0  0  0  0  0  0  0  0  0
   28.9110   15.5295   21.1658 C   0  0  0  0  0  0  0  0  0  0  0  0
   30.3526   15.0803   21.2399 C   0  0  0  0  0  0  0  0  0  0  0  0
   31.1987   16.0408   22.0398 C   0  0  0  0  0  0  0  0  0  0  0  0
   31.4205   17.3443   21.2801 C   0  0  0  0  0  0  0  0  0  0  0  0
   32.3651   18.2719   21.9588 N   0  0  0  0  0  0  0  0  0  0  0  0
   25.9872   15.6257   19.5491 O   0  0  0  0  0  0  0  0  0  0  0  0
  2  1  1  6  0  0  0
  2  3  1  0  0  0  0
  2  5  1  0  0  0  0
  3  4  1  0  0  0  0
  3 10  1  0  0  0  0
  5  6  1  0  0  0  0
  6  7  1  0  0  0  0
  7  8  1  0  0  0  0
  8  9  1  0  0  0  0
M  END
>  <CHROM.1>
158.35385222,-62.28721612,177.93646121,-71.55108621,-173.93724209,28.87632383
15.67693053,20.83257407,-2.69989334,0.17688041,0.93972011

>  <Name>
ligand

>  <RI>
0

>  <Rbt.Current_Directory>
/home/itssahil/PROJECTS/Mol_Feturizer/New_Systems/rnas/3DIY

>  <Rbt.Executable>
rbdock ($Id: //depot/dev/client3/rdock/2013.1/src/exe/rbdock.cxx#4 $)

>  <Rbt.Library>
libRbt.so (2013.1, Build901 2013/11/27)

>  <Rbt.Parameter_File>
/export/apps/rDock/src/rDock_2013.1_src/data/scripts/dock_solv.prm

>  <Rbt.Receptor>
prm/pocket_docking_5.prm

>  <SCORE>
-9.32503

>  <SCORE.INTER>
-9.25009

>  <SCORE.INTER.CONST>
1

>  <SCORE.INTER.POLAR>
0

>  <SCORE.INTER.ROT>
5

>  <SCORE.INTER.SOLV>
13.0568

>  <SCORE.INTER.VDW>
-17.4523

>  <SCORE.INTER.norm>
-0.925009

>  <SCORE.INTRA>
-0.0749407

>  <SCORE.INTRA.DIHEDRAL>
-0.369993

>  <SCORE.INTRA.DIHEDRAL.0>
2.56603

>  <SCORE.INTRA.POLAR>
0

>  <SCORE.INTRA.POLAR.0>
0

>  <SCORE.INTRA.REPUL>
0

>  <SCORE.INTRA.REPUL.0>
0

>  <SCORE.INTRA.SOLV>
-0.474819

>  <SCORE.INTRA.SOLV.lig_0>
-32.0799

>  <SCORE.INTRA.VDW>
0.347465

>  <SCORE.INTRA.VDW.0>
-0.618248

>  <SCORE.INTRA.norm>
-0.00749407

>  <SCORE.RESTR>
0

>  <SCORE.RESTR.CAVITY>
0

>  <SCORE.RESTR.norm>
0

>  <SCORE.SYSTEM>
0

>  <SCORE.SYSTEM.CONST>
0

>  <SCORE.SYSTEM.DIHEDRAL>
0

>  <SCORE.SYSTEM.SOLV>
0

>  <SCORE.SYSTEM.norm>
0

>  <SCORE.heavy>
10

>  <SCORE.norm>
-0.932503

>  <RMSD>
5.485

$$$$
ligand
 OpenBabel11021811473D
libRbt.so/2013.1/901 2013/11/27
 10  9  0  0  0  0  0  0  0  0999 V2000
   25.6975   15.0669   20.3523 N   0  0  0  0  0  0  0  0  0  0  0  0
   27.0399   15.6165   19.9933 C   0  0  2  0  0  0  0  0  0  0  0  0
   27.4934   15.1866   18.5934 C   0  0  0  0  0  0  0  0  0  0  0  0
   27.1361   14.1122   18.0873 O   0  0  0  0  0  0  0  0  0  0  0  0
   28.0819   15.2460   21.0522 C   0  0  0  0  0  0  0  0  0  0  0  0
   29.4008   15.9610   20.8658 C   0  0  0  0  0  0  0  0  0  0  0  0
   30.4201   15.5342   21.8940 C   0  0  0  0  0  0  0  0  0  0  0  0
   31.7463   16.2585   21.6890 C   0  0  0  0  0  0  0  0  0  0  0  0
   31.6726   17.7185   21.9653 N   0  0  0  0  0  0  0  0  0  0  0  0
   28.2070   15.9204   17.9028 O   0  0  0  0  0  0  0  0  0  0  0  0
  2  1  1  1  0  0  0
  2  3  1  0  0  0  0
  2  5  1  0  0  0  0
  3  4  1  0  0  0  0
  3 10  1  0  0  0  0
  5  6  1  0  0  0  0
  6  7  1  0  0  0  0
  7  8  1  0  0  0  0
  8  9  1  0  0  0  0
M  END
>  <CHROM.1>
-29.49242976,-170.45803016,-177.85148162,179.72364588,67.42977542,28.68997150
15.65095147,20.20178986,2.56281437,-0.33584503,-1.62475301

>  <Name>
ligand

>  <RI>
0

>  <Rbt.Current_Directory>
/home/itssahil/PROJECTS/Mol_Feturizer/New_Systems/rnas/3DIY

>  <Rbt.Executable>
rbdock ($Id: //depot/dev/client3/rdock/2013.1/src/exe/rbdock.cxx#4 $)

>  <Rbt.Library>
libRbt.so (2013.1, Build901 2013/11/27)

>  <Rbt.Parameter_File>
/export/apps/rDock/src/rDock_2013.1_src/data/scripts/dock_solv.prm

>  <Rbt.Receptor>
prm/pocket_docking_6.prm

>  <SCORE>
-8.74027

>  <SCORE.INTER>
-7.99042

>  <SCORE.INTER.CONST>
1

>  <SCORE.INTER.POLAR>
0

>  <SCORE.INTER.ROT>
5

>  <SCORE.INTER.SOLV>
17.2891

>  <SCORE.INTER.VDW>
-18.0233

>  <SCORE.INTER.norm>
-0.799042

>  <SCORE.INTRA>
-0.749856

>  <SCORE.INTRA.DIHEDRAL>
-0.405129

>  <SCORE.INTRA.DIHEDRAL.0>
2.56603

>  <SCORE.INTRA.POLAR>
0

>  <SCORE.INTRA.POLAR.0>
0

>  <SCORE.INTRA.REPUL>
0

>  <SCORE.INTRA.REPUL.0>
0

>  <SCORE.INTRA.SOLV>
-0.744765

>  <SCORE.INTRA.SOLV.lig_0>
-32.0799

>  <SCORE.INTRA.VDW>
-0.174909

>  <SCORE.INTRA.VDW.0>
-0.618248

>  <SCORE.INTRA.norm>
-0.0749856

>  <SCORE.RESTR>
0

>  <SCORE.RESTR.CAVITY>
0

>  <SCORE.RESTR.norm>
0

>  <SCORE.SYSTEM>
0

>  <SCORE.SYSTEM.CONST>
0

>  <SCORE.SYSTEM.DIHEDRAL>
0

>  <SCORE.SYSTEM.SOLV>
0

>  <SCORE.SYSTEM.norm>
0

>  <SCORE.heavy>
10

>  <SCORE.norm>
-0.874027

>  <RMSD>
5.485

$$$$
ligand
 OpenBabel11021811473D
libRbt.so/2013.1/901 2013/11/27
 10  9  0  0  0  0  0  0  0  0999 V2000
   28.4503   15.8762   18.7693 N   0  0  0  0  0  0  0  0  0  0  0  0
   28.1978   15.3213   20.1336 C   0  0  2  0  0  0  0  0  0  0  0  0
   26.7049   15.1165   20.4153 C   0  0  0  0  0  0  0  0  0  0  0  0
   26.2982   14.6118   21.4726 O   0  0  0  0  0  0  0  0  0  0  0  0
   28.8501   16.1962   21.2075 C   0  0  0  0  0  0  0  0  0  0  0  0
   30.2983   16.5172   20.9155 C   0  0  0  0  0  0  0  0  0  0  0  0
   30.8964   17.4175   21.9692 C   0  0  0  0  0  0  0  0  0  0  0  0
   32.2915   17.8843   21.5679 C   0  0  0  0  0  0  0  0  0  0  0  0
   33.2610   16.7698   21.3912 N   0  0  0  0  0  0  0  0  0  0  0  0
   25.8486   15.4847   19.6054 O   0  0  0  0  0  0  0  0  0  0  0  0
  2  1  1  6  0  0  0
  2  3  1  0  0  0  0
  2  5  1  0  0  0  0
  3  4  1  0  0  0  0
  3 10  1  0  0  0  0
  5  6  1  0  0  0  0
  6  7  1  0  0  0  0
  7  8  1  0  0  0  0
  8  9  1  0  0  0  0
M  END
>  <CHROM.1>
176.88987110,-49.53509273,178.11115446,-172.33929542,-60.94689639,29.06518813
16.10956402,20.74824964,-2.94015887,0.35772793,1.58774455

>  <Name>
ligand

>  <RI>
0

>  <Rbt.Current_Directory>
/home/itssahil/PROJECTS/Mol_Feturizer/New_Systems/rnas/3DIY

>  <Rbt.Executable>
rbdock ($Id: //depot/dev/client3/rdock/2013.1/src/exe/rbdock.cxx#4 $)

>  <Rbt.Library>
libRbt.so (2013.1, Build901 2013/11/27)

>  <Rbt.Parameter_File>
/export/apps/rDock/src/rDock_2013.1_src/data/scripts/dock_solv.prm

>  <Rbt.Receptor>
prm/pocket_docking_6.prm

>  <SCORE>
-7.35527

>  <SCORE.INTER>
-7.56443

>  <SCORE.INTER.CONST>
1

>  <SCORE.INTER.POLAR>
0

>  <SCORE.INTER.ROT>
5

>  <SCORE.INTER.SOLV>
12.9873

>  <SCORE.INTER.VDW>
-16.3054

>  <SCORE.INTER.norm>
-0.756443

>  <SCORE.INTRA>
0.209158

>  <SCORE.INTRA.DIHEDRAL>
-0.396392

>  <SCORE.INTRA.DIHEDRAL.0>
2.56603

>  <SCORE.INTRA.POLAR>
0

>  <SCORE.INTRA.POLAR.0>
0

>  <SCORE.INTRA.REPUL>
0

>  <SCORE.INTRA.REPUL.0>
0

>  <SCORE.INTRA.SOLV>
0.375917

>  <SCORE.INTRA.SOLV.lig_0>
-32.0799

>  <SCORE.INTRA.VDW>
0.219395

>  <SCORE.INTRA.VDW.0>
-0.618248

>  <SCORE.INTRA.norm>
0.0209158

>  <SCORE.RESTR>
0

>  <SCORE.RESTR.CAVITY>
0

>  <SCORE.RESTR.norm>
0

>  <SCORE.SYSTEM>
0

>  <SCORE.SYSTEM.CONST>
0

>  <SCORE.SYSTEM.DIHEDRAL>
0

>  <SCORE.SYSTEM.SOLV>
0

>  <SCORE.SYSTEM.norm>
0

>  <SCORE.heavy>
10

>  <SCORE.norm>
-0.735527

>  <RMSD>
5.488

$$$$
ligand
 OpenBabel11021811473D
libRbt.so/2013.1/901 2013/11/27
 10  9  0  0  0  0  0  0  0  0999 V2000
   28.7649   16.0753   19.5389 N   0  0  0  0  0  0  0  0  0  0  0  0
   28.1687   15.1165   20.5178 C   0  0  2  0  0  0  0  0  0  0  0  0
   26.6378   15.0835   20.4469 C   0  0  0  0  0  0  0  0  0  0  0  0
   25.9464   14.6205   21.3665 O   0  0  0  0  0  0  0  0  0  0  0  0
   28.6519   15.4173   21.9392 C   0  0  0  0  0  0  0  0  0  0  0  0
   30.1562   15.3670   22.0801 C   0  0  0  0  0  0  0  0  0  0  0  0
   30.8086   16.6340   21.5826 C   0  0  0  0  0  0  0  0  0  0  0  0
   32.3226   16.5792   21.7560 C   0  0  0  0  0  0  0  0  0  0  0  0
   33.0129   17.8266   21.3309 N   0  0  0  0  0  0  0  0  0  0  0  0
   26.0358   15.5551   19.4773 O   0  0  0  0  0  0  0  0  0  0  0  0
  2  1  1  6  0  0  0
  2  3  1  0  0  0  0
  2  5  1  0  0  0  0
  3  4  1  0  0  0  0
  3 10  1  0  0  0  0
  5  6  1  0  0  0  0
  6  7  1  0  0  0  0
  7  8  1  0  0  0  0
  8  9  1  0  0  0  0
M  END
>  <CHROM.1>
-162.00384338,-58.01097108,79.80829546,178.89871467,-177.70928059,29.00529784
15.82222521,20.99893079,-3.10816976,0.36588471,2.03915709

>  <Name>
ligand

>  <RI>
0

>  <Rbt.Current_Directory>
/home/itssahil/PROJECTS/Mol_Feturizer/New_Systems/rnas/3DIY

>  <Rbt.Executable>
rbdock ($Id: //depot/dev/client3/rdock/2013.1/src/exe/rbdock.cxx#4 $)

>  <Rbt.Library>
libRbt.so (2013.1, Build901 2013/11/27)

>  <Rbt.Parameter_File>
/export/apps/rDock/src/rDock_2013.1_src/data/scripts/dock_solv.prm

>  <Rbt.Receptor>
prm/pocket_docking_2.prm

>  <SCORE>
-8.75271

>  <SCORE.INTER>
-9.90237

>  <SCORE.INTER.CONST>
1

>  <SCORE.INTER.POLAR>
0

>  <SCORE.INTER.ROT>
5

>  <SCORE.INTER.SOLV>
11.7901

>  <SCORE.INTER.VDW>
-17.4649

>  <SCORE.INTER.norm>
-0.990237

>  <SCORE.INTRA>
1.14966

>  <SCORE.INTRA.DIHEDRAL>
0.567808

>  <SCORE.INTRA.DIHEDRAL.0>
2.56603

>  <SCORE.INTRA.POLAR>
0

>  <SCORE.INTRA.POLAR.0>
0

>  <SCORE.INTRA.REPUL>
0

>  <SCORE.INTRA.REPUL.0>
0

>  <SCORE.INTRA.SOLV>
0.776139

>  <SCORE.INTRA.SOLV.lig_0>
-32.0799

>  <SCORE.INTRA.VDW>
0.477689

>  <SCORE.INTRA.VDW.0>
-0.618248

>  <SCORE.INTRA.norm>
0.114966

>  <SCORE.RESTR>
0

>  <SCORE.RESTR.CAVITY>
0

>  <SCORE.RESTR.norm>
0

>  <SCORE.SYSTEM>
0

>  <SCORE.SYSTEM.CONST>
0

>  <SCORE.SYSTEM.DIHEDRAL>
0

>  <SCORE.SYSTEM.SOLV>
0

>  <SCORE.SYSTEM.norm>
0

>  <SCORE.heavy>
10

>  <SCORE.norm>
-0.875271

>  <RMSD>
5.489

$$$$
ligand
 OpenBabel11021811473D
libRbt.so/2013.1/901 2013/11/27
 10  9  0  0  0  0  0  0  0  0999 V2000
   26.9982   14.4759   19.9670 N   0  0  0  0  0  0  0  0  0  0  0  0
   27.3316   15.5331   18.9648 C   0  0  2  0  0  0  0  0  0  0  0  0
   27.9919   14.9592   17.7060 C   0  0  0  0  0  0  0  0  0  0  0  0
   28.2071   15.6535   16.7012 O   0  0  0  0  0  0  0  0  0  0  0  0
   28.1963   16.6284   19.5947 C   0  0  0  0  0  0  0  0  0  0  0  0
   29.4802   16.1023   20.1948 C   0  0  0  0  0  0  0  0  0  0  0  0
   30.3211   17.2109   20.7800 C   0  0  0  0  0  0  0  0  0  0  0  0
   31.6384   16.6728   21.3282 C   0  0  0  0  0  0  0  0  0  0  0  0
   32.4886   17.7182   21.9585 N   0  0  0  0  0  0  0  0  0  0  0  0
   28.3680   13.7837   17.6648 O   0  0  0  0  0  0  0  0  0  0  0  0
  2  1  1  1  0  0  0
  2  3  1  0  0  0  0
  2  5  1  0  0  0  0
  3  4  1  0  0  0  0
  3 10  1  0  0  0  0
  5  6  1  0  0  0  0
  6  7  1  0  0  0  0
  7  8  1  0  0  0  0
  8  9  1  0  0  0  0
M  END
>  <CHROM.1>
171.84809722,57.35169361,178.78088946,-177.59166152,-178.09864705,29.10767841
15.85693442,19.45034358,2.37884516,-0.40261623,-1.78105416

>  <Name>
ligand

>  <RI>
0

>  <Rbt.Current_Directory>
/home/itssahil/PROJECTS/Mol_Feturizer/New_Systems/rnas/3DIY

>  <Rbt.Executable>
rbdock ($Id: //depot/dev/client3/rdock/2013.1/src/exe/rbdock.cxx#4 $)

>  <Rbt.Library>
libRbt.so (2013.1, Build901 2013/11/27)

>  <Rbt.Parameter_File>
/export/apps/rDock/src/rDock_2013.1_src/data/scripts/dock_solv.prm

>  <Rbt.Receptor>
prm/blind_docking_100.prm

>  <SCORE>
-9.00303

>  <SCORE.INTER>
-8.13528

>  <SCORE.INTER.CONST>
1

>  <SCORE.INTER.POLAR>
0

>  <SCORE.INTER.ROT>
5

>  <SCORE.INTER.SOLV>
13.9042

>  <SCORE.INTER.VDW>
-16.9916

>  <SCORE.INTER.norm>
-0.813528

>  <SCORE.INTRA>
-0.867757

>  <SCORE.INTRA.DIHEDRAL>
-0.983661

>  <SCORE.INTRA.DIHEDRAL.0>
2.56603

>  <SCORE.INTRA.POLAR>
0

>  <SCORE.INTRA.POLAR.0>
0

>  <SCORE.INTRA.REPUL>
0

>  <SCORE.INTRA.REPUL.0>
0

>  <SCORE.INTRA.SOLV>
-0.642103

>  <SCORE.INTRA.SOLV.lig_0>
-32.0799

>  <SCORE.INTRA.VDW>
-0.0548756

>  <SCORE.INTRA.VDW.0>
-0.618248

>  <SCORE.INTRA.norm>
-0.0867757

>  <SCORE.RESTR>
0

>  <SCORE.RESTR.CAVITY>
0

>  <SCORE.RESTR.norm>
0

>  <SCORE.SYSTEM>
0

>  <SCORE.SYSTEM.CONST>
0

>  <SCORE.SYSTEM.DIHEDRAL>
0

>  <SCORE.SYSTEM.SOLV>
0

>  <SCORE.SYSTEM.norm>
0

>  <SCORE.heavy>
10

>  <SCORE.norm>
-0.900303

>  <RMSD>
5.491

$$$$
ligand
 OpenBabel11021811473D
libRbt.so/2013.1/901 2013/11/27
 10  9  0  0  0  0  0  0  0  0999 V2000
   28.6201   14.5627   21.4239 N   0  0  0  0  0  0  0  0  0  0  0  0
   27.9068   15.6740   20.7245 C   0  0  2  0  0  0  0  0  0  0  0  0
   26.6872   15.1825   19.9364 C   0  0  0  0  0  0  0  0  0  0  0  0
   26.7585   14.8785   18.7361 O   0  0  0  0  0  0  0  0  0  0  0  0
   28.8673   16.4594   19.8274 C   0  0  0  0  0  0  0  0  0  0  0  0
   30.0396   17.0465   20.5802 C   0  0  0  0  0  0  0  0  0  0  0  0
   31.0513   15.9906   20.9542 C   0  0  0  0  0  0  0  0  0  0  0  0
   32.2018   16.5892   21.7564 C   0  0  0  0  0  0  0  0  0  0  0  0
   33.0266   17.5533   20.9796 N   0  0  0  0  0  0  0  0  0  0  0  0
   25.5911   15.0372   20.4861 O   0  0  0  0  0  0  0  0  0  0  0  0
  2  1  1  6  0  0  0
  2  3  1  0  0  0  0
  2  5  1  0  0  0  0
  3  4  1  0  0  0  0
  3 10  1  0  0  0  0
  5  6  1  0  0  0  0
  6  7  1  0  0  0  0
  7  8  1  0  0  0  0
  8  9  1  0  0  0  0
M  END
>  <CHROM.1>
-92.97319330,-58.03062938,74.37324608,-177.92867754,-65.47731291,29.03589769
15.88290516,20.52163297,3.13164778,-0.38286048,-1.00961127

>  <Name>
ligand

>  <RI>
0

>  <Rbt.Current_Directory>
/home/itssahil/PROJECTS/Mol_Feturizer/New_Systems/rnas/3DIY

>  <Rbt.Executable>
rbdock ($Id: //depot/dev/client3/rdock/2013.1/src/exe/rbdock.cxx#4 $)

>  <Rbt.Library>
libRbt.so (2013.1, Build901 2013/11/27)

>  <Rbt.Parameter_File>
/export/apps/rDock/src/rDock_2013.1_src/data/scripts/dock_solv.prm

>  <Rbt.Receptor>
prm/pocket_docking_2.prm

>  <SCORE>
-7.10066

>  <SCORE.INTER>
-8.6614

>  <SCORE.INTER.CONST>
1

>  <SCORE.INTER.POLAR>
0

>  <SCORE.INTER.ROT>
5

>  <SCORE.INTER.SOLV>
13.7109

>  <SCORE.INTER.VDW>
-17.2779

>  <SCORE.INTER.norm>
-0.86614

>  <SCORE.INTRA>
1.56074

>  <SCORE.INTRA.DIHEDRAL>
-0.130794

>  <SCORE.INTRA.DIHEDRAL.0>
2.56603

>  <SCORE.INTRA.POLAR>
0

>  <SCORE.INTRA.POLAR.0>
0

>  <SCORE.INTRA.REPUL>
0

>  <SCORE.INTRA.REPUL.0>
0

>  <SCORE.INTRA.SOLV>
1.75112

>  <SCORE.INTRA.SOLV.lig_0>
-32.0799

>  <SCORE.INTRA.VDW>
0.75058

>  <SCORE.INTRA.VDW.0>
-0.618248

>  <SCORE.INTRA.norm>
0.156074

>  <SCORE.RESTR>
0

>  <SCORE.RESTR.CAVITY>
0

>  <SCORE.RESTR.norm>
0

>  <SCORE.SYSTEM>
0

>  <SCORE.SYSTEM.CONST>
0

>  <SCORE.SYSTEM.DIHEDRAL>
0

>  <SCORE.SYSTEM.SOLV>
0

>  <SCORE.SYSTEM.norm>
0

>  <SCORE.heavy>
10

>  <SCORE.norm>
-0.710066

>  <RMSD>
5.491

$$$$
ligand
 OpenBabel11021811473D
libRbt.so/2013.1/901 2013/11/27
 10  9  0  0  0  0  0  0  0  0999 V2000
   25.6045   15.0191   20.3758 N   0  0  0  0  0  0  0  0  0  0  0  0
   26.9628   15.4782   19.9545 C   0  0  2  0  0  0  0  0  0  0  0  0
   27.3911   14.8819   18.6087 C   0  0  0  0  0  0  0  0  0  0  0  0
   28.0723   15.5211   17.7930 O   0  0  0  0  0  0  0  0  0  0  0  0
   27.9986   15.1890   21.0442 C   0  0  0  0  0  0  0  0  0  0  0  0
   29.2911   15.9498   20.8545 C   0  0  0  0  0  0  0  0  0  0  0  0
   30.3063   15.6043   21.9167 C   0  0  0  0  0  0  0  0  0  0  0  0
   31.5547   16.4705   21.7886 C   0  0  0  0  0  0  0  0  0  0  0  0
   32.2696   16.2915   20.4963 N   0  0  0  0  0  0  0  0  0  0  0  0
   27.0993   13.7209   18.3059 O   0  0  0  0  0  0  0  0  0  0  0  0
  2  1  1  1  0  0  0
  2  3  1  0  0  0  0
  2  5  1  0  0  0  0
  3  4  1  0  0  0  0
  3 10  1  0  0  0  0
  5  6  1  0  0  0  0
  6  7  1  0  0  0  0
  7  8  1  0  0  0  0
  8  9  1  0  0  0  0
M  END
>  <CHROM.1>
144.83093748,-164.29042012,-177.95441807,-174.80314214,-61.78169496,28.65519633
15.39753959,20.07864083,2.64517076,-0.22429313,-1.73975110

>  <Name>
ligand

>  <RI>
0

>  <Rbt.Current_Directory>
/home/itssahil/PROJECTS/Mol_Feturizer/New_Systems/rnas/3DIY

>  <Rbt.Executable>
rbdock ($Id: //depot/dev/client3/rdock/2013.1/src/exe/rbdock.cxx#4 $)

>  <Rbt.Library>
libRbt.so (2013.1, Build901 2013/11/27)

>  <Rbt.Parameter_File>
/export/apps/rDock/src/rDock_2013.1_src/data/scripts/dock_solv.prm

>  <Rbt.Receptor>
prm/pocket_docking_4.prm

>  <SCORE>
-8.63086

>  <SCORE.INTER>
-8.02293

>  <SCORE.INTER.CONST>
1

>  <SCORE.INTER.POLAR>
0

>  <SCORE.INTER.ROT>
5

>  <SCORE.INTER.SOLV>
18.0653

>  <SCORE.INTER.VDW>
-18.3037

>  <SCORE.INTER.norm>
-0.802293

>  <SCORE.INTRA>
-0.607929

>  <SCORE.INTRA.DIHEDRAL>
-0.0852478

>  <SCORE.INTRA.DIHEDRAL.0>
2.56603

>  <SCORE.INTRA.POLAR>
0

>  <SCORE.INTRA.POLAR.0>
0

>  <SCORE.INTRA.REPUL>
0

>  <SCORE.INTRA.REPUL.0>
0

>  <SCORE.INTRA.SOLV>
-0.687267

>  <SCORE.INTRA.SOLV.lig_0>
-32.0799

>  <SCORE.INTRA.VDW>
-0.221671

>  <SCORE.INTRA.VDW.0>
-0.618248

>  <SCORE.INTRA.norm>
-0.0607929

>  <SCORE.RESTR>
0

>  <SCORE.RESTR.CAVITY>
0

>  <SCORE.RESTR.norm>
0

>  <SCORE.SYSTEM>
0

>  <SCORE.SYSTEM.CONST>
0

>  <SCORE.SYSTEM.DIHEDRAL>
0

>  <SCORE.SYSTEM.SOLV>
0

>  <SCORE.SYSTEM.norm>
0

>  <SCORE.heavy>
10

>  <SCORE.norm>
-0.863086

>  <RMSD>
5.492

$$$$
ligand
 OpenBabel11021811473D
libRbt.so/2013.1/901 2013/11/27
 10  9  0  0  0  0  0  0  0  0999 V2000
   28.7661   15.9975   19.5362 N   0  0  0  0  0  0  0  0  0  0  0  0
   28.1396   15.0452   20.5024 C   0  0  2  0  0  0  0  0  0  0  0  0
   26.6083   15.0630   20.4325 C   0  0  0  0  0  0  0  0  0  0  0  0
   25.9027   14.6129   21.3477 O   0  0  0  0  0  0  0  0  0  0  0  0
   28.6330   15.3104   21.9274 C   0  0  0  0  0  0  0  0  0  0  0  0
   30.1397   15.2888   22.0496 C   0  0  0  0  0  0  0  0  0  0  0  0
   30.7571   16.5921   21.6039 C   0  0  0  0  0  0  0  0  0  0  0  0
   32.2733   16.5669   21.7642 C   0  0  0  0  0  0  0  0  0  0  0  0
   32.9323   17.8395   21.3646 N   0  0  0  0  0  0  0  0  0  0  0  0
   26.0215   15.5646   19.4687 O   0  0  0  0  0  0  0  0  0  0  0  0
  2  1  1  6  0  0  0
  2  3  1  0  0  0  0
  2  5  1  0  0  0  0
  3  4  1  0  0  0  0
  3 10  1  0  0  0  0
  5  6  1  0  0  0  0
  6  7  1  0  0  0  0
  7  8  1  0  0  0  0
  8  9  1  0  0  0  0
M  END
>  <CHROM.1>
-161.83738611,-54.65562099,80.57372123,178.64431117,-178.82897764,28.97210266
15.78389387,20.99500731,-3.11207100,0.37063374,2.06086070

>  <Name>
ligand

>  <RI>
0

>  <Rbt.Current_Directory>
/home/itssahil/PROJECTS/Mol_Feturizer/New_Systems/rnas/3DIY

>  <Rbt.Executable>
rbdock ($Id: //depot/dev/client3/rdock/2013.1/src/exe/rbdock.cxx#4 $)

>  <Rbt.Library>
libRbt.so (2013.1, Build901 2013/11/27)

>  <Rbt.Parameter_File>
/export/apps/rDock/src/rDock_2013.1_src/data/scripts/dock_solv.prm

>  <Rbt.Receptor>
prm/blind_docking_80.prm

>  <SCORE>
-8.71146

>  <SCORE.INTER>
-10.0379

>  <SCORE.INTER.CONST>
1

>  <SCORE.INTER.POLAR>
0

>  <SCORE.INTER.ROT>
5

>  <SCORE.INTER.SOLV>
11.6009

>  <SCORE.INTER.VDW>
-17.4923

>  <SCORE.INTER.norm>
-1.00379

>  <SCORE.INTRA>
1.32646

>  <SCORE.INTRA.DIHEDRAL>
0.748619

>  <SCORE.INTRA.DIHEDRAL.0>
2.56603

>  <SCORE.INTRA.POLAR>
0

>  <SCORE.INTRA.POLAR.0>
0

>  <SCORE.INTRA.REPUL>
0

>  <SCORE.INTRA.REPUL.0>
0

>  <SCORE.INTRA.SOLV>
0.828

>  <SCORE.INTRA.SOLV.lig_0>
-32.0799

>  <SCORE.INTRA.VDW>
0.538146

>  <SCORE.INTRA.VDW.0>
-0.618248

>  <SCORE.INTRA.norm>
0.132646

>  <SCORE.RESTR>
0

>  <SCORE.RESTR.CAVITY>
0

>  <SCORE.RESTR.norm>
0

>  <SCORE.SYSTEM>
0

>  <SCORE.SYSTEM.CONST>
0

>  <SCORE.SYSTEM.DIHEDRAL>
0

>  <SCORE.SYSTEM.SOLV>
0

>  <SCORE.SYSTEM.norm>
0

>  <SCORE.heavy>
10

>  <SCORE.norm>
-0.871146

>  <RMSD>
5.493

$$$$
ligand
 OpenBabel11021811473D
libRbt.so/2013.1/901 2013/11/27
 10  9  0  0  0  0  0  0  0  0999 V2000
   25.7407   14.7129   20.8230 N   0  0  0  0  0  0  0  0  0  0  0  0
   26.9739   15.4755   20.4615 C   0  0  2  0  0  0  0  0  0  0  0  0
   27.3320   15.3402   18.9771 C   0  0  0  0  0  0  0  0  0  0  0  0
   26.9380   14.3861   18.2898 O   0  0  0  0  0  0  0  0  0  0  0  0
   28.1486   15.0681   21.3550 C   0  0  0  0  0  0  0  0  0  0  0  0
   29.3697   15.9394   21.1675 C   0  0  0  0  0  0  0  0  0  0  0  0
   30.5148   15.4965   22.0455 C   0  0  0  0  0  0  0  0  0  0  0  0
   31.7696   16.3183   21.7712 C   0  0  0  0  0  0  0  0  0  0  0  0
   31.6345   17.7503   22.1514 N   0  0  0  0  0  0  0  0  0  0  0  0
   28.0010   16.2048   18.4030 O   0  0  0  0  0  0  0  0  0  0  0  0
  2  1  1  1  0  0  0
  2  3  1  0  0  0  0
  2  5  1  0  0  0  0
  3  4  1  0  0  0  0
  3 10  1  0  0  0  0
  5  6  1  0  0  0  0
  6  7  1  0  0  0  0
  7  8  1  0  0  0  0
  8  9  1  0  0  0  0
M  END
>  <CHROM.1>
-22.59948562,-171.95857367,-179.05295661,175.80917469,66.09758904,28.64013093
15.66467497,20.50576832,2.69716013,-0.43286017,-1.40622235

>  <Name>
ligand

>  <RI>
0

>  <Rbt.Current_Directory>
/home/itssahil/PROJECTS/Mol_Feturizer/New_Systems/rnas/3DIY

>  <Rbt.Executable>
rbdock ($Id: //depot/dev/client3/rdock/2013.1/src/exe/rbdock.cxx#4 $)

>  <Rbt.Library>
libRbt.so (2013.1, Build901 2013/11/27)

>  <Rbt.Parameter_File>
/export/apps/rDock/src/rDock_2013.1_src/data/scripts/dock_solv.prm

>  <Rbt.Receptor>
prm/pocket_docking_4.prm

>  <SCORE>
-8.23439

>  <SCORE.INTER>
-7.52183

>  <SCORE.INTER.CONST>
1

>  <SCORE.INTER.POLAR>
0

>  <SCORE.INTER.ROT>
5

>  <SCORE.INTER.SOLV>
18.5212

>  <SCORE.INTER.VDW>
-18.1216

>  <SCORE.INTER.norm>
-0.752183

>  <SCORE.INTRA>
-0.712554

>  <SCORE.INTRA.DIHEDRAL>
-0.512534

>  <SCORE.INTRA.DIHEDRAL.0>
2.56603

>  <SCORE.INTRA.POLAR>
0

>  <SCORE.INTRA.POLAR.0>
0

>  <SCORE.INTRA.REPUL>
0

>  <SCORE.INTRA.REPUL.0>
0

>  <SCORE.INTRA.SOLV>
-0.745125

>  <SCORE.INTRA.SOLV.lig_0>
-32.0799

>  <SCORE.INTRA.VDW>
-0.0837241

>  <SCORE.INTRA.VDW.0>
-0.618248

>  <SCORE.INTRA.norm>
-0.0712554

>  <SCORE.RESTR>
0

>  <SCORE.RESTR.CAVITY>
0

>  <SCORE.RESTR.norm>
0

>  <SCORE.SYSTEM>
0

>  <SCORE.SYSTEM.CONST>
0

>  <SCORE.SYSTEM.DIHEDRAL>
0

>  <SCORE.SYSTEM.SOLV>
0

>  <SCORE.SYSTEM.norm>
0

>  <SCORE.heavy>
10

>  <SCORE.norm>
-0.823439

>  <RMSD>
5.496

$$$$
ligand
 OpenBabel11021811473D
libRbt.so/2013.1/901 2013/11/27
 10  9  0  0  0  0  0  0  0  0999 V2000
   26.0439   15.5162   19.7495 N   0  0  0  0  0  0  0  0  0  0  0  0
   27.4532   15.3074   19.2983 C   0  0  2  0  0  0  0  0  0  0  0  0
   27.5404   14.8819   17.8282 C   0  0  0  0  0  0  0  0  0  0  0  0
   26.9830   13.8578   17.4056 O   0  0  0  0  0  0  0  0  0  0  0  0
   28.1750   14.3099   20.2084 C   0  0  0  0  0  0  0  0  0  0  0  0
   28.3169   14.7974   21.6323 C   0  0  0  0  0  0  0  0  0  0  0  0
   29.2578   15.9735   21.7312 C   0  0  0  0  0  0  0  0  0  0  0  0
   30.6955   15.5550   21.4426 C   0  0  0  0  0  0  0  0  0  0  0  0
   31.6603   16.6868   21.4790 N   0  0  0  0  0  0  0  0  0  0  0  0
   28.1444   15.5719   17.0012 O   0  0  0  0  0  0  0  0  0  0  0  0
  2  1  1  1  0  0  0
  2  3  1  0  0  0  0
  2  5  1  0  0  0  0
  3  4  1  0  0  0  0
  3 10  1  0  0  0  0
  5  6  1  0  0  0  0
  6  7  1  0  0  0  0
  7  8  1  0  0  0  0
  8  9  1  0  0  0  0
M  END
>  <CHROM.1>
-58.60079553,-63.64236334,-67.89416413,-68.83504035,177.94929258,28.42239816
15.23545484,19.73669325,2.31077664,-0.32674382,-1.59043331

>  <Name>
ligand

>  <RI>
0

>  <Rbt.Current_Directory>
/home/itssahil/PROJECTS/Mol_Feturizer/New_Systems/rnas/3DIY

>  <Rbt.Executable>
rbdock ($Id: //depot/dev/client3/rdock/2013.1/src/exe/rbdock.cxx#4 $)

>  <Rbt.Library>
libRbt.so (2013.1, Build901 2013/11/27)

>  <Rbt.Parameter_File>
/export/apps/rDock/src/rDock_2013.1_src/data/scripts/dock_solv.prm

>  <Rbt.Receptor>
prm/pocket_docking_5.prm

>  <SCORE>
-8.8623

>  <SCORE.INTER>
-9.26796

>  <SCORE.INTER.CONST>
1

>  <SCORE.INTER.POLAR>
0

>  <SCORE.INTER.ROT>
5

>  <SCORE.INTER.SOLV>
15.8552

>  <SCORE.INTER.VDW>
-18.397

>  <SCORE.INTER.norm>
-0.926796

>  <SCORE.INTRA>
0.405662

>  <SCORE.INTRA.DIHEDRAL>
-0.370306

>  <SCORE.INTRA.DIHEDRAL.0>
2.56603

>  <SCORE.INTRA.POLAR>
0

>  <SCORE.INTRA.POLAR.0>
0

>  <SCORE.INTRA.REPUL>
0

>  <SCORE.INTRA.REPUL.0>
0

>  <SCORE.INTRA.SOLV>
0.0111755

>  <SCORE.INTRA.SOLV.lig_0>
-32.0799

>  <SCORE.INTRA.VDW>
0.585227

>  <SCORE.INTRA.VDW.0>
-0.618248

>  <SCORE.INTRA.norm>
0.0405662

>  <SCORE.RESTR>
0

>  <SCORE.RESTR.CAVITY>
0

>  <SCORE.RESTR.norm>
0

>  <SCORE.SYSTEM>
0

>  <SCORE.SYSTEM.CONST>
0

>  <SCORE.SYSTEM.DIHEDRAL>
0

>  <SCORE.SYSTEM.SOLV>
0

>  <SCORE.SYSTEM.norm>
0

>  <SCORE.heavy>
10

>  <SCORE.norm>
-0.88623

>  <RMSD>
5.496

$$$$
ligand
 OpenBabel11021811473D
libRbt.so/2013.1/901 2013/11/27
 10  9  0  0  0  0  0  0  0  0999 V2000
   25.6109   15.0471   20.3880 N   0  0  0  0  0  0  0  0  0  0  0  0
   26.9565   15.5988   20.0446 C   0  0  2  0  0  0  0  0  0  0  0  0
   27.4298   15.1641   18.6528 C   0  0  0  0  0  0  0  0  0  0  0  0
   28.1605   15.8810   17.9528 O   0  0  0  0  0  0  0  0  0  0  0  0
   27.9852   15.2357   21.1189 C   0  0  0  0  0  0  0  0  0  0  0  0
   29.3075   15.9468   20.9419 C   0  0  0  0  0  0  0  0  0  0  0  0
   30.3273   15.4956   21.9592 C   0  0  0  0  0  0  0  0  0  0  0  0
   31.6722   16.1773   21.7312 C   0  0  0  0  0  0  0  0  0  0  0  0
   31.6446   17.6424   21.9884 N   0  0  0  0  0  0  0  0  0  0  0  0
   27.1253   14.0588   18.1941 O   0  0  0  0  0  0  0  0  0  0  0  0
  2  1  1  1  0  0  0
  2  3  1  0  0  0  0
  2  5  1  0  0  0  0
  3  4  1  0  0  0  0
  3 10  1  0  0  0  0
  5  6  1  0  0  0  0
  6  7  1  0  0  0  0
  7  8  1  0  0  0  0
  8  9  1  0  0  0  0
M  END
>  <CHROM.1>
148.93940174,-170.83525244,-176.07535373,177.59325318,66.99883882,28.62352651
15.61300619,20.26006632,2.56535631,-0.32337173,-1.63382191

>  <Name>
ligand

>  <RI>
0

>  <Rbt.Current_Directory>
/home/itssahil/PROJECTS/Mol_Feturizer/New_Systems/rnas/3DIY

>  <Rbt.Executable>
rbdock ($Id: //depot/dev/client3/rdock/2013.1/src/exe/rbdock.cxx#4 $)

>  <Rbt.Library>
libRbt.so (2013.1, Build901 2013/11/27)

>  <Rbt.Parameter_File>
/export/apps/rDock/src/rDock_2013.1_src/data/scripts/dock_solv.prm

>  <Rbt.Receptor>
prm/blind_docking_60.prm

>  <SCORE>
-8.81501

>  <SCORE.INTER>
-8.00496

>  <SCORE.INTER.CONST>
1

>  <SCORE.INTER.POLAR>
0

>  <SCORE.INTER.ROT>
5

>  <SCORE.INTER.SOLV>
17.3795

>  <SCORE.INTER.VDW>
-18.0631

>  <SCORE.INTER.norm>
-0.800496

>  <SCORE.INTRA>
-0.810055

>  <SCORE.INTRA.DIHEDRAL>
-0.531609

>  <SCORE.INTRA.DIHEDRAL.0>
2.56603

>  <SCORE.INTRA.POLAR>
0

>  <SCORE.INTRA.POLAR.0>
0

>  <SCORE.INTRA.REPUL>
0

>  <SCORE.INTRA.REPUL.0>
0

>  <SCORE.INTRA.SOLV>
-0.755817

>  <SCORE.INTRA.SOLV.lig_0>
-32.0799

>  <SCORE.INTRA.VDW>
-0.166342

>  <SCORE.INTRA.VDW.0>
-0.618248

>  <SCORE.INTRA.norm>
-0.0810055

>  <SCORE.RESTR>
0

>  <SCORE.RESTR.CAVITY>
0

>  <SCORE.RESTR.norm>
0

>  <SCORE.SYSTEM>
0

>  <SCORE.SYSTEM.CONST>
0

>  <SCORE.SYSTEM.DIHEDRAL>
0

>  <SCORE.SYSTEM.SOLV>
0

>  <SCORE.SYSTEM.norm>
0

>  <SCORE.heavy>
10

>  <SCORE.norm>
-0.881501

>  <RMSD>
5.498

$$$$
ligand
 OpenBabel11021811473D
libRbt.so/2013.1/901 2013/11/27
 10  9  0  0  0  0  0  0  0  0999 V2000
   25.5337   15.0430   20.4020 N   0  0  0  0  0  0  0  0  0  0  0  0
   26.8993   15.5023   20.0056 C   0  0  2  0  0  0  0  0  0  0  0  0
   27.3485   14.9132   18.6635 C   0  0  0  0  0  0  0  0  0  0  0  0
   28.0591   15.5493   17.8708 O   0  0  0  0  0  0  0  0  0  0  0  0
   27.9169   15.2050   21.1103 C   0  0  0  0  0  0  0  0  0  0  0  0
   29.2281   15.9339   20.9242 C   0  0  0  0  0  0  0  0  0  0  0  0
   30.2191   15.5912   22.0100 C   0  0  0  0  0  0  0  0  0  0  0  0
   31.4703   16.4568   21.9075 C   0  0  0  0  0  0  0  0  0  0  0  0
   32.2105   16.2788   20.6293 N   0  0  0  0  0  0  0  0  0  0  0  0
   27.0442   13.7607   18.3411 O   0  0  0  0  0  0  0  0  0  0  0  0
  2  1  1  1  0  0  0
  2  3  1  0  0  0  0
  2  5  1  0  0  0  0
  3  4  1  0  0  0  0
  3 10  1  0  0  0  0
  5  6  1  0  0  0  0
  6  7  1  0  0  0  0
  7  8  1  0  0  0  0
  8  9  1  0  0  0  0
M  END
>  <CHROM.1>
145.83864963,-165.96458528,-178.54006628,-173.10526825,-61.50904973,28.59366371
15.40859249,20.15121609,2.63404744,-0.21592419,-1.73606139

>  <Name>
ligand

>  <RI>
0

>  <Rbt.Current_Directory>
/home/itssahil/PROJECTS/Mol_Feturizer/New_Systems/rnas/3DIY

>  <Rbt.Executable>
rbdock ($Id: //depot/dev/client3/rdock/2013.1/src/exe/rbdock.cxx#4 $)

>  <Rbt.Library>
libRbt.so (2013.1, Build901 2013/11/27)

>  <Rbt.Parameter_File>
/export/apps/rDock/src/rDock_2013.1_src/data/scripts/dock_solv.prm

>  <Rbt.Receptor>
prm/blind_docking_80.prm

>  <SCORE>
-8.64695

>  <SCORE.INTER>
-8.01558

>  <SCORE.INTER.CONST>
1

>  <SCORE.INTER.POLAR>
0

>  <SCORE.INTER.ROT>
5

>  <SCORE.INTER.SOLV>
17.9269

>  <SCORE.INTER.VDW>
-18.2527

>  <SCORE.INTER.norm>
-0.801558

>  <SCORE.INTRA>
-0.631365

>  <SCORE.INTRA.DIHEDRAL>
-0.185237

>  <SCORE.INTRA.DIHEDRAL.0>
2.56603

>  <SCORE.INTRA.POLAR>
0

>  <SCORE.INTRA.POLAR.0>
0

>  <SCORE.INTRA.REPUL>
0

>  <SCORE.INTRA.REPUL.0>
0

>  <SCORE.INTRA.SOLV>
-0.692818

>  <SCORE.INTRA.SOLV.lig_0>
-32.0799

>  <SCORE.INTRA.VDW>
-0.192337

>  <SCORE.INTRA.VDW.0>
-0.618248

>  <SCORE.INTRA.norm>
-0.0631365

>  <SCORE.RESTR>
0

>  <SCORE.RESTR.CAVITY>
0

>  <SCORE.RESTR.norm>
0

>  <SCORE.SYSTEM>
0

>  <SCORE.SYSTEM.CONST>
0

>  <SCORE.SYSTEM.DIHEDRAL>
0

>  <SCORE.SYSTEM.SOLV>
0

>  <SCORE.SYSTEM.norm>
0

>  <SCORE.heavy>
10

>  <SCORE.norm>
-0.864695

>  <RMSD>
5.498

$$$$
ligand
 OpenBabel11021811473D
libRbt.so/2013.1/901 2013/11/27
 10  9  0  0  0  0  0  0  0  0999 V2000
   25.5286   14.9685   20.4417 N   0  0  0  0  0  0  0  0  0  0  0  0
   26.8824   15.4664   20.0516 C   0  0  2  0  0  0  0  0  0  0  0  0
   27.3555   14.8885   18.7129 C   0  0  0  0  0  0  0  0  0  0  0  0
   27.0875   13.7284   18.3658 O   0  0  0  0  0  0  0  0  0  0  0  0
   27.9023   15.2005   21.1622 C   0  0  0  0  0  0  0  0  0  0  0  0
   29.2163   15.9167   20.9481 C   0  0  0  0  0  0  0  0  0  0  0  0
   30.2143   15.5935   22.0334 C   0  0  0  0  0  0  0  0  0  0  0  0
   31.4672   16.4530   21.9039 C   0  0  0  0  0  0  0  0  0  0  0  0
   32.1998   16.2432   20.6262 N   0  0  0  0  0  0  0  0  0  0  0  0
   27.9945   15.5785   17.9126 O   0  0  0  0  0  0  0  0  0  0  0  0
  2  1  1  1  0  0  0
  2  3  1  0  0  0  0
  2  5  1  0  0  0  0
  3  4  1  0  0  0  0
  3 10  1  0  0  0  0
  5  6  1  0  0  0  0
  6  7  1  0  0  0  0
  7  8  1  0  0  0  0
  8  9  1  0  0  0  0
M  END
>  <CHROM.1>
-35.60573915,-168.62984770,-177.94269373,-172.85384199,-61.69231431,28.58528737
15.38958843,20.18033452,2.64085385,-0.22205917,-1.73161661

>  <Name>
ligand

>  <RI>
0

>  <Rbt.Current_Directory>
/home/itssahil/PROJECTS/Mol_Feturizer/New_Systems/rnas/3DIY

>  <Rbt.Executable>
rbdock ($Id: //depot/dev/client3/rdock/2013.1/src/exe/rbdock.cxx#4 $)

>  <Rbt.Library>
libRbt.so (2013.1, Build901 2013/11/27)

>  <Rbt.Parameter_File>
/export/apps/rDock/src/rDock_2013.1_src/data/scripts/dock_solv.prm

>  <Rbt.Receptor>
prm/blind_docking_80.prm

>  <SCORE>
-8.59678

>  <SCORE.INTER>
-7.95037

>  <SCORE.INTER.CONST>
1

>  <SCORE.INTER.POLAR>
0

>  <SCORE.INTER.ROT>
5

>  <SCORE.INTER.SOLV>
18.128

>  <SCORE.INTER.VDW>
-18.2763

>  <SCORE.INTER.norm>
-0.795037

>  <SCORE.INTRA>
-0.646408

>  <SCORE.INTRA.DIHEDRAL>
-0.259189

>  <SCORE.INTRA.DIHEDRAL.0>
2.56603

>  <SCORE.INTRA.POLAR>
0

>  <SCORE.INTRA.POLAR.0>
0

>  <SCORE.INTRA.REPUL>
0

>  <SCORE.INTRA.REPUL.0>
0

>  <SCORE.INTRA.SOLV>
-0.694556

>  <SCORE.INTRA.SOLV.lig_0>
-32.0799

>  <SCORE.INTRA.VDW>
-0.169536

>  <SCORE.INTRA.VDW.0>
-0.618248

>  <SCORE.INTRA.norm>
-0.0646408

>  <SCORE.RESTR>
0

>  <SCORE.RESTR.CAVITY>
0

>  <SCORE.RESTR.norm>
0

>  <SCORE.SYSTEM>
0

>  <SCORE.SYSTEM.CONST>
0

>  <SCORE.SYSTEM.DIHEDRAL>
0

>  <SCORE.SYSTEM.SOLV>
0

>  <SCORE.SYSTEM.norm>
0

>  <SCORE.heavy>
10

>  <SCORE.norm>
-0.859678

>  <RMSD>
5.499

$$$$
ligand
 OpenBabel11021811473D
libRbt.so/2013.1/901 2013/11/27
 10  9  0  0  0  0  0  0  0  0999 V2000
   27.0019   14.4865   19.9292 N   0  0  0  0  0  0  0  0  0  0  0  0
   27.3390   15.5303   18.9143 C   0  0  2  0  0  0  0  0  0  0  0  0
   27.9937   14.9384   17.6609 C   0  0  0  0  0  0  0  0  0  0  0  0
   28.2369   15.6268   16.6584 O   0  0  0  0  0  0  0  0  0  0  0  0
   28.2108   16.6281   19.5299 C   0  0  0  0  0  0  0  0  0  0  0  0
   29.5024   16.1046   20.1157 C   0  0  0  0  0  0  0  0  0  0  0  0
   30.3161   17.2052   20.7520 C   0  0  0  0  0  0  0  0  0  0  0  0
   31.6307   16.6680   21.3075 C   0  0  0  0  0  0  0  0  0  0  0  0
   32.4570   17.7057   21.9811 N   0  0  0  0  0  0  0  0  0  0  0  0
   28.3369   13.7529   17.6223 O   0  0  0  0  0  0  0  0  0  0  0  0
  2  1  1  1  0  0  0
  2  3  1  0  0  0  0
  2  5  1  0  0  0  0
  3  4  1  0  0  0  0
  3 10  1  0  0  0  0
  5  6  1  0  0  0  0
  6  7  1  0  0  0  0
  7  8  1  0  0  0  0
  8  9  1  0  0  0  0
M  END
>  <CHROM.1>
173.44020409,58.19279930,-178.18912790,-178.59817582,-178.38838877,29.10798852
15.84737333,19.41155130,2.36961060,-0.40321423,-1.78402960

>  <Name>
ligand

>  <RI>
0

>  <Rbt.Current_Directory>
/home/itssahil/PROJECTS/Mol_Feturizer/New_Systems/rnas/3DIY

>  <Rbt.Executable>
rbdock ($Id: //depot/dev/client3/rdock/2013.1/src/exe/rbdock.cxx#4 $)

>  <Rbt.Library>
libRbt.so (2013.1, Build901 2013/11/27)

>  <Rbt.Parameter_File>
/export/apps/rDock/src/rDock_2013.1_src/data/scripts/dock_solv.prm

>  <Rbt.Receptor>
prm/pocket_docking_5.prm

>  <SCORE>
-9.08491

>  <SCORE.INTER>
-8.22013

>  <SCORE.INTER.CONST>
1

>  <SCORE.INTER.POLAR>
0

>  <SCORE.INTER.ROT>
5

>  <SCORE.INTER.SOLV>
13.7855

>  <SCORE.INTER.VDW>
-17.0086

>  <SCORE.INTER.norm>
-0.822013

>  <SCORE.INTRA>
-0.864781

>  <SCORE.INTRA.DIHEDRAL>
-1.00754

>  <SCORE.INTRA.DIHEDRAL.0>
2.56603

>  <SCORE.INTRA.POLAR>
0

>  <SCORE.INTRA.POLAR.0>
0

>  <SCORE.INTRA.REPUL>
0

>  <SCORE.INTRA.REPUL.0>
0

>  <SCORE.INTRA.SOLV>
-0.637833

>  <SCORE.INTRA.SOLV.lig_0>
-32.0799

>  <SCORE.INTRA.VDW>
-0.0420937

>  <SCORE.INTRA.VDW.0>
-0.618248

>  <SCORE.INTRA.norm>
-0.0864781

>  <SCORE.RESTR>
0

>  <SCORE.RESTR.CAVITY>
0

>  <SCORE.RESTR.norm>
0

>  <SCORE.SYSTEM>
0

>  <SCORE.SYSTEM.CONST>
0

>  <SCORE.SYSTEM.DIHEDRAL>
0

>  <SCORE.SYSTEM.SOLV>
0

>  <SCORE.SYSTEM.norm>
0

>  <SCORE.heavy>
10

>  <SCORE.norm>
-0.908491

>  <RMSD>
5.503

$$$$
ligand
 OpenBabel11021811473D
libRbt.so/2013.1/901 2013/11/27
 10  9  0  0  0  0  0  0  0  0999 V2000
   25.5203   14.8763   20.5474 N   0  0  0  0  0  0  0  0  0  0  0  0
   26.8532   15.4112   20.1346 C   0  0  2  0  0  0  0  0  0  0  0  0
   27.3083   14.8648   18.7765 C   0  0  0  0  0  0  0  0  0  0  0  0
   27.0758   13.6983   18.4254 O   0  0  0  0  0  0  0  0  0  0  0  0
   27.9041   15.1518   21.2174 C   0  0  0  0  0  0  0  0  0  0  0  0
   29.2003   15.8923   20.9789 C   0  0  0  0  0  0  0  0  0  0  0  0
   30.2393   15.5536   22.0202 C   0  0  0  0  0  0  0  0  0  0  0  0
   31.4967   16.3970   21.8388 C   0  0  0  0  0  0  0  0  0  0  0  0
   32.1519   16.2066   20.5167 N   0  0  0  0  0  0  0  0  0  0  0  0
   27.8954   15.5868   17.9649 O   0  0  0  0  0  0  0  0  0  0  0  0
  2  1  1  1  0  0  0
  2  3  1  0  0  0  0
  2  5  1  0  0  0  0
  3  4  1  0  0  0  0
  3 10  1  0  0  0  0
  5  6  1  0  0  0  0
  6  7  1  0  0  0  0
  7  8  1  0  0  0  0
  8  9  1  0  0  0  0
M  END
>  <CHROM.1>
-36.68578152,-169.10288496,-176.75792328,-175.04652456,-60.19891496,28.56444885
15.35045207,20.20646197,2.67267257,-0.23461478,-1.71017199

>  <Name>
ligand

>  <RI>
0

>  <Rbt.Current_Directory>
/home/itssahil/PROJECTS/Mol_Feturizer/New_Systems/rnas/3DIY

>  <Rbt.Executable>
rbdock ($Id: //depot/dev/client3/rdock/2013.1/src/exe/rbdock.cxx#4 $)

>  <Rbt.Library>
libRbt.so (2013.1, Build901 2013/11/27)

>  <Rbt.Parameter_File>
/export/apps/rDock/src/rDock_2013.1_src/data/scripts/dock_solv.prm

>  <Rbt.Receptor>
prm/pocket_docking_3.prm

>  <SCORE>
-8.47547

>  <SCORE.INTER>
-7.7963

>  <SCORE.INTER.CONST>
1

>  <SCORE.INTER.POLAR>
0

>  <SCORE.INTER.ROT>
5

>  <SCORE.INTER.SOLV>
18.5434

>  <SCORE.INTER.VDW>
-18.312

>  <SCORE.INTER.norm>
-0.77963

>  <SCORE.INTRA>
-0.680123

>  <SCORE.INTRA.DIHEDRAL>
-0.392277

>  <SCORE.INTRA.DIHEDRAL.0>
2.56603

>  <SCORE.INTRA.POLAR>
0

>  <SCORE.INTRA.POLAR.0>
0

>  <SCORE.INTRA.REPUL>
0

>  <SCORE.INTRA.REPUL.0>
0

>  <SCORE.INTRA.SOLV>
-0.666234

>  <SCORE.INTRA.SOLV.lig_0>
-32.0799

>  <SCORE.INTRA.VDW>
-0.150868

>  <SCORE.INTRA.VDW.0>
-0.618248

>  <SCORE.INTRA.norm>
-0.0680123

>  <SCORE.RESTR>
0.000948693

>  <SCORE.RESTR.CAVITY>
0.000948693

>  <SCORE.RESTR.norm>
9.48693e-05

>  <SCORE.SYSTEM>
0

>  <SCORE.SYSTEM.CONST>
0

>  <SCORE.SYSTEM.DIHEDRAL>
0

>  <SCORE.SYSTEM.SOLV>
0

>  <SCORE.SYSTEM.norm>
0

>  <SCORE.heavy>
10

>  <SCORE.norm>
-0.847547

>  <RMSD>
5.509

$$$$
ligand
 OpenBabel11021811473D
libRbt.so/2013.1/901 2013/11/27
 10  9  0  0  0  0  0  0  0  0999 V2000
   26.0722   15.4908   19.7343 N   0  0  0  0  0  0  0  0  0  0  0  0
   27.4766   15.2763   19.2711 C   0  0  2  0  0  0  0  0  0  0  0  0
   27.5470   14.8030   17.8147 C   0  0  0  0  0  0  0  0  0  0  0  0
   26.9495   13.7893   17.4229 O   0  0  0  0  0  0  0  0  0  0  0  0
   28.2176   14.3142   20.2036 C   0  0  0  0  0  0  0  0  0  0  0  0
   28.3815   14.8525   21.6067 C   0  0  0  0  0  0  0  0  0  0  0  0
   29.3295   16.0263   21.6496 C   0  0  0  0  0  0  0  0  0  0  0  0
   30.7648   15.5857   21.3830 C   0  0  0  0  0  0  0  0  0  0  0  0
   31.7436   16.7057   21.4141 N   0  0  0  0  0  0  0  0  0  0  0  0
   28.1780   15.4429   16.9679 O   0  0  0  0  0  0  0  0  0  0  0  0
  2  1  1  1  0  0  0
  2  3  1  0  0  0  0
  2  5  1  0  0  0  0
  3  4  1  0  0  0  0
  3 10  1  0  0  0  0
  5  6  1  0  0  0  0
  6  7  1  0  0  0  0
  7  8  1  0  0  0  0
  8  9  1  0  0  0  0
M  END
>  <CHROM.1>
-55.81900310,-63.94629990,-68.42729375,-69.90817056,-179.97874615,28.46087928
15.21702659,19.70619682,2.32458590,-0.31638269,-1.62526726

>  <Name>
ligand

>  <RI>
0

>  <Rbt.Current_Directory>
/home/itssahil/PROJECTS/Mol_Feturizer/New_Systems/rnas/3DIY

>  <Rbt.Executable>
rbdock ($Id: //depot/dev/client3/rdock/2013.1/src/exe/rbdock.cxx#4 $)

>  <Rbt.Library>
libRbt.so (2013.1, Build901 2013/11/27)

>  <Rbt.Parameter_File>
/export/apps/rDock/src/rDock_2013.1_src/data/scripts/dock_solv.prm

>  <Rbt.Receptor>
prm/pocket_docking_6.prm

>  <SCORE>
-8.86056

>  <SCORE.INTER>
-9.24675

>  <SCORE.INTER.CONST>
1

>  <SCORE.INTER.POLAR>
0

>  <SCORE.INTER.ROT>
5

>  <SCORE.INTER.SOLV>
15.704

>  <SCORE.INTER.VDW>
-18.3325

>  <SCORE.INTER.norm>
-0.924675

>  <SCORE.INTRA>
0.386189

>  <SCORE.INTRA.DIHEDRAL>
-0.249247

>  <SCORE.INTRA.DIHEDRAL.0>
2.56603

>  <SCORE.INTRA.POLAR>
0

>  <SCORE.INTRA.POLAR.0>
0

>  <SCORE.INTRA.REPUL>
0

>  <SCORE.INTRA.REPUL.0>
0

>  <SCORE.INTRA.SOLV>
-0.0199065

>  <SCORE.INTRA.SOLV.lig_0>
-32.0799

>  <SCORE.INTRA.VDW>
0.520766

>  <SCORE.INTRA.VDW.0>
-0.618248

>  <SCORE.INTRA.norm>
0.0386189

>  <SCORE.RESTR>
0

>  <SCORE.RESTR.CAVITY>
0

>  <SCORE.RESTR.norm>
0

>  <SCORE.SYSTEM>
0

>  <SCORE.SYSTEM.CONST>
0

>  <SCORE.SYSTEM.DIHEDRAL>
0

>  <SCORE.SYSTEM.SOLV>
0

>  <SCORE.SYSTEM.norm>
0

>  <SCORE.heavy>
10

>  <SCORE.norm>
-0.886056

>  <RMSD>
5.510

$$$$
ligand
 OpenBabel11021811473D
libRbt.so/2013.1/901 2013/11/27
 10  9  0  0  0  0  0  0  0  0999 V2000
   25.7225   15.0483   20.3309 N   0  0  0  0  0  0  0  0  0  0  0  0
   27.0753   15.5352   19.9235 C   0  0  2  0  0  0  0  0  0  0  0  0
   27.4950   15.0127   18.5448 C   0  0  0  0  0  0  0  0  0  0  0  0
   27.2152   13.8666   18.1626 O   0  0  0  0  0  0  0  0  0  0  0  0
   28.1213   15.1935   20.9882 C   0  0  0  0  0  0  0  0  0  0  0  0
   29.4477   15.8830   20.7628 C   0  0  0  0  0  0  0  0  0  0  0  0
   30.4789   15.4614   21.7814 C   0  0  0  0  0  0  0  0  0  0  0  0
   31.7943   16.2043   21.5739 C   0  0  0  0  0  0  0  0  0  0  0  0
   31.7039   17.6608   21.8630 N   0  0  0  0  0  0  0  0  0  0  0  0
   28.0998   15.7363   17.7476 O   0  0  0  0  0  0  0  0  0  0  0  0
  2  1  1  1  0  0  0
  2  3  1  0  0  0  0
  2  5  1  0  0  0  0
  3  4  1  0  0  0  0
  3 10  1  0  0  0  0
  5  6  1  0  0  0  0
  6  7  1  0  0  0  0
  7  8  1  0  0  0  0
  8  9  1  0  0  0  0
M  END
>  <CHROM.1>
-37.22241503,-169.03606508,-176.61343687,-177.83337198,67.47384190,28.71497721
15.54675801,20.13065904,2.55675261,-0.31558789,-1.68126520

>  <Name>
ligand

>  <RI>
0

>  <Rbt.Current_Directory>
/home/itssahil/PROJECTS/Mol_Feturizer/New_Systems/rnas/3DIY

>  <Rbt.Executable>
rbdock ($Id: //depot/dev/client3/rdock/2013.1/src/exe/rbdock.cxx#4 $)

>  <Rbt.Library>
libRbt.so (2013.1, Build901 2013/11/27)

>  <Rbt.Parameter_File>
/export/apps/rDock/src/rDock_2013.1_src/data/scripts/dock_solv.prm

>  <Rbt.Receptor>
prm/pocket_docking_5.prm

>  <SCORE>
-8.83618

>  <SCORE.INTER>
-8.08038

>  <SCORE.INTER.CONST>
1

>  <SCORE.INTER.POLAR>
0

>  <SCORE.INTER.ROT>
5

>  <SCORE.INTER.SOLV>
17.0276

>  <SCORE.INTER.VDW>
-17.9961

>  <SCORE.INTER.norm>
-0.808038

>  <SCORE.INTRA>
-0.755798

>  <SCORE.INTRA.DIHEDRAL>
-0.258166

>  <SCORE.INTRA.DIHEDRAL.0>
2.56603

>  <SCORE.INTRA.POLAR>
0

>  <SCORE.INTRA.POLAR.0>
0

>  <SCORE.INTRA.REPUL>
0

>  <SCORE.INTRA.REPUL.0>
0

>  <SCORE.INTRA.SOLV>
-0.732544

>  <SCORE.INTRA.SOLV.lig_0>
-32.0799

>  <SCORE.INTRA.VDW>
-0.260443

>  <SCORE.INTRA.VDW.0>
-0.618248

>  <SCORE.INTRA.norm>
-0.0755798

>  <SCORE.RESTR>
0

>  <SCORE.RESTR.CAVITY>
0

>  <SCORE.RESTR.norm>
0

>  <SCORE.SYSTEM>
0

>  <SCORE.SYSTEM.CONST>
0

>  <SCORE.SYSTEM.DIHEDRAL>
0

>  <SCORE.SYSTEM.SOLV>
0

>  <SCORE.SYSTEM.norm>
0

>  <SCORE.heavy>
10

>  <SCORE.norm>
-0.883618

>  <RMSD>
5.511

$$$$
ligand
 OpenBabel11021811473D
libRbt.so/2013.1/901 2013/11/27
 10  9  0  0  0  0  0  0  0  0999 V2000
   25.5570   14.9689   20.4396 N   0  0  0  0  0  0  0  0  0  0  0  0
   26.9145   15.4382   20.0273 C   0  0  2  0  0  0  0  0  0  0  0  0
   27.3383   14.8792   18.6642 C   0  0  0  0  0  0  0  0  0  0  0  0
   26.9698   13.7636   18.2673 O   0  0  0  0  0  0  0  0  0  0  0  0
   27.9532   15.1177   21.1055 C   0  0  0  0  0  0  0  0  0  0  0  0
   29.2416   15.8910   20.9400 C   0  0  0  0  0  0  0  0  0  0  0  0
   30.2605   15.5138   21.9878 C   0  0  0  0  0  0  0  0  0  0  0  0
   31.5039   16.3909   21.8886 C   0  0  0  0  0  0  0  0  0  0  0  0
   32.2090   16.2733   20.5839 N   0  0  0  0  0  0  0  0  0  0  0  0
   28.0378   15.5441   17.8938 O   0  0  0  0  0  0  0  0  0  0  0  0
  2  1  1  1  0  0  0
  2  3  1  0  0  0  0
  2  5  1  0  0  0  0
  3  4  1  0  0  0  0
  3 10  1  0  0  0  0
  5  6  1  0  0  0  0
  6  7  1  0  0  0  0
  7  8  1  0  0  0  0
  8  9  1  0  0  0  0
M  END
>  <CHROM.1>
-31.67913425,-163.79727644,-177.88138952,-174.74975833,-61.13223721,28.59791190
15.36444618,20.14375336,2.64452787,-0.22967042,-1.70726615

>  <Name>
ligand

>  <RI>
0

>  <Rbt.Current_Directory>
/home/itssahil/PROJECTS/Mol_Feturizer/New_Systems/rnas/3DIY

>  <Rbt.Executable>
rbdock ($Id: //depot/dev/client3/rdock/2013.1/src/exe/rbdock.cxx#4 $)

>  <Rbt.Library>
libRbt.so (2013.1, Build901 2013/11/27)

>  <Rbt.Parameter_File>
/export/apps/rDock/src/rDock_2013.1_src/data/scripts/dock_solv.prm

>  <Rbt.Receptor>
prm/blind_docking_80.prm

>  <SCORE>
-8.61691

>  <SCORE.INTER>
-8.11803

>  <SCORE.INTER.CONST>
1

>  <SCORE.INTER.POLAR>
0

>  <SCORE.INTER.ROT>
5

>  <SCORE.INTER.SOLV>
18.0796

>  <SCORE.INTER.VDW>
-18.3719

>  <SCORE.INTER.norm>
-0.811803

>  <SCORE.INTRA>
-0.49888

>  <SCORE.INTRA.DIHEDRAL>
0.1065

>  <SCORE.INTRA.DIHEDRAL.0>
2.56603

>  <SCORE.INTRA.POLAR>
0

>  <SCORE.INTRA.POLAR.0>
0

>  <SCORE.INTRA.REPUL>
0

>  <SCORE.INTRA.REPUL.0>
0

>  <SCORE.INTRA.SOLV>
-0.669471

>  <SCORE.INTRA.SOLV.lig_0>
-32.0799

>  <SCORE.INTRA.VDW>
-0.217394

>  <SCORE.INTRA.VDW.0>
-0.618248

>  <SCORE.INTRA.norm>
-0.049888

>  <SCORE.RESTR>
0

>  <SCORE.RESTR.CAVITY>
0

>  <SCORE.RESTR.norm>
0

>  <SCORE.SYSTEM>
0

>  <SCORE.SYSTEM.CONST>
0

>  <SCORE.SYSTEM.DIHEDRAL>
0

>  <SCORE.SYSTEM.SOLV>
0

>  <SCORE.SYSTEM.norm>
0

>  <SCORE.heavy>
10

>  <SCORE.norm>
-0.861691

>  <RMSD>
5.513

$$$$
ligand
 OpenBabel11021811473D
libRbt.so/2013.1/901 2013/11/27
 10  9  0  0  0  0  0  0  0  0999 V2000
   28.8577   16.3790   19.2583 N   0  0  0  0  0  0  0  0  0  0  0  0
   27.6888   15.5008   18.9490 C   0  0  2  0  0  0  0  0  0  0  0  0
   26.9434   15.0522   20.2111 C   0  0  0  0  0  0  0  0  0  0  0  0
   25.7074   15.1042   20.2986 O   0  0  0  0  0  0  0  0  0  0  0  0
   28.1180   14.2998   18.1018 C   0  0  0  0  0  0  0  0  0  0  0  0
   26.9624   13.4135   17.6964 C   0  0  0  0  0  0  0  0  0  0  0  0
   27.4372   12.1013   17.1209 C   0  0  0  0  0  0  0  0  0  0  0  0
   26.2933   11.0981   17.0190 C   0  0  0  0  0  0  0  0  0  0  0  0
   26.7381    9.7291   16.6431 N   0  0  0  0  0  0  0  0  0  0  0  0
   27.5535   14.5855   21.1780 O   0  0  0  0  0  0  0  0  0  0  0  0
  2  1  1  1  0  0  0
  2  3  1  0  0  0  0
  2  5  1  0  0  0  0
  3  4  1  0  0  0  0
  3 10  1  0  0  0  0
  5  6  1  0  0  0  0
  6  7  1  0  0  0  0
  7  8  1  0  0  0  0
  8  9  1  0  0  0  0
M  END
>  <CHROM.1>
133.33798677,-176.97030521,-167.98378953,166.79980689,-171.72301798,27.21387069
13.72619957,18.68178216,-1.39339093,-0.75582355,-2.41725238

>  <Name>
ligand

>  <RI>
0

>  <Rbt.Current_Directory>
/home/itssahil/PROJECTS/Mol_Feturizer/New_Systems/rnas/3DIY

>  <Rbt.Executable>
rbdock ($Id: //depot/dev/client3/rdock/2013.1/src/exe/rbdock.cxx#4 $)

>  <Rbt.Library>
libRbt.so (2013.1, Build901 2013/11/27)

>  <Rbt.Parameter_File>
/export/apps/rDock/src/rDock_2013.1_src/data/scripts/dock_solv.prm

>  <Rbt.Receptor>
prm/blind_docking_40.prm

>  <SCORE>
-11.3734

>  <SCORE.INTER>
-10.6313

>  <SCORE.INTER.CONST>
1

>  <SCORE.INTER.POLAR>
0

>  <SCORE.INTER.ROT>
5

>  <SCORE.INTER.SOLV>
15.2958

>  <SCORE.INTER.VDW>
-19.1195

>  <SCORE.INTER.norm>
-1.06313

>  <SCORE.INTRA>
-0.742169

>  <SCORE.INTRA.DIHEDRAL>
0.502786

>  <SCORE.INTRA.DIHEDRAL.0>
2.56603

>  <SCORE.INTRA.POLAR>
0

>  <SCORE.INTRA.POLAR.0>
0

>  <SCORE.INTRA.REPUL>
0

>  <SCORE.INTRA.REPUL.0>
0

>  <SCORE.INTRA.SOLV>
-1.60593

>  <SCORE.INTRA.SOLV.lig_0>
-32.0799

>  <SCORE.INTRA.VDW>
-0.190596

>  <SCORE.INTRA.VDW.0>
-0.618248

>  <SCORE.INTRA.norm>
-0.0742169

>  <SCORE.RESTR>
0

>  <SCORE.RESTR.CAVITY>
0

>  <SCORE.RESTR.norm>
0

>  <SCORE.SYSTEM>
0

>  <SCORE.SYSTEM.CONST>
0

>  <SCORE.SYSTEM.DIHEDRAL>
0

>  <SCORE.SYSTEM.SOLV>
0

>  <SCORE.SYSTEM.norm>
0

>  <SCORE.heavy>
10

>  <SCORE.norm>
-1.13734

>  <RMSD>
5.514

$$$$
ligand
 OpenBabel11021811473D
libRbt.so/2013.1/901 2013/11/27
 10  9  0  0  0  0  0  0  0  0999 V2000
   28.6197   14.9423   18.8953 N   0  0  0  0  0  0  0  0  0  0  0  0
   28.1831   15.1238   20.3128 C   0  0  2  0  0  0  0  0  0  0  0  0
   26.6579   15.0973   20.4637 C   0  0  0  0  0  0  0  0  0  0  0  0
   26.1054   14.6640   21.4860 O   0  0  0  0  0  0  0  0  0  0  0  0
   28.7773   16.4038   20.9069 C   0  0  0  0  0  0  0  0  0  0  0  0
   30.2889   16.4060   20.9254 C   0  0  0  0  0  0  0  0  0  0  0  0
   30.8408   17.6914   21.4925 C   0  0  0  0  0  0  0  0  0  0  0  0
   32.3655   17.6933   21.4714 C   0  0  0  0  0  0  0  0  0  0  0  0
   32.9706   16.6166   22.3009 N   0  0  0  0  0  0  0  0  0  0  0  0
   25.9233   15.5448   19.5777 O   0  0  0  0  0  0  0  0  0  0  0  0
  2  1  1  6  0  0  0
  2  3  1  0  0  0  0
  2  5  1  0  0  0  0
  3  4  1  0  0  0  0
  3 10  1  0  0  0  0
  5  6  1  0  0  0  0
  6  7  1  0  0  0  0
  7  8  1  0  0  0  0
  8  9  1  0  0  0  0
M  END
>  <CHROM.1>
148.37453683,-60.67274983,178.92410950,-178.53579887,-61.96677841,29.02809197
16.01238558,20.78421481,-2.83948692,0.31209937,1.37776950

>  <Name>
ligand

>  <RI>
0

>  <Rbt.Current_Directory>
/home/itssahil/PROJECTS/Mol_Feturizer/New_Systems/rnas/3DIY

>  <Rbt.Executable>
rbdock ($Id: //depot/dev/client3/rdock/2013.1/src/exe/rbdock.cxx#4 $)

>  <Rbt.Library>
libRbt.so (2013.1, Build901 2013/11/27)

>  <Rbt.Parameter_File>
/export/apps/rDock/src/rDock_2013.1_src/data/scripts/dock_solv.prm

>  <Rbt.Receptor>
prm/blind_docking_60.prm

>  <SCORE>
-7.73024

>  <SCORE.INTER>
-7.20879

>  <SCORE.INTER.CONST>
1

>  <SCORE.INTER.POLAR>
0

>  <SCORE.INTER.ROT>
5

>  <SCORE.INTER.SOLV>
14.2621

>  <SCORE.INTER.VDW>
-16.4932

>  <SCORE.INTER.norm>
-0.720879

>  <SCORE.INTRA>
-0.521445

>  <SCORE.INTRA.DIHEDRAL>
-1.06631

>  <SCORE.INTRA.DIHEDRAL.0>
2.56603

>  <SCORE.INTRA.POLAR>
0

>  <SCORE.INTRA.POLAR.0>
0

>  <SCORE.INTRA.REPUL>
0

>  <SCORE.INTRA.REPUL.0>
0

>  <SCORE.INTRA.SOLV>
0.235783

>  <SCORE.INTRA.SOLV.lig_0>
-32.0799

>  <SCORE.INTRA.VDW>
-0.106179

>  <SCORE.INTRA.VDW.0>
-0.618248

>  <SCORE.INTRA.norm>
-0.0521445

>  <SCORE.RESTR>
0

>  <SCORE.RESTR.CAVITY>
0

>  <SCORE.RESTR.norm>
0

>  <SCORE.SYSTEM>
0

>  <SCORE.SYSTEM.CONST>
0

>  <SCORE.SYSTEM.DIHEDRAL>
0

>  <SCORE.SYSTEM.SOLV>
0

>  <SCORE.SYSTEM.norm>
0

>  <SCORE.heavy>
10

>  <SCORE.norm>
-0.773024

>  <RMSD>
5.514

$$$$
ligand
 OpenBabel11021811473D
libRbt.so/2013.1/901 2013/11/27
 10  9  0  0  0  0  0  0  0  0999 V2000
   25.7039   15.0680   20.3103 N   0  0  0  0  0  0  0  0  0  0  0  0
   27.0617   15.5375   19.8990 C   0  0  2  0  0  0  0  0  0  0  0  0
   27.4753   15.0005   18.5241 C   0  0  0  0  0  0  0  0  0  0  0  0
   28.1382   15.6789   17.7251 O   0  0  0  0  0  0  0  0  0  0  0  0
   28.1044   15.1928   20.9659 C   0  0  0  0  0  0  0  0  0  0  0  0
   29.4341   15.8761   20.7418 C   0  0  0  0  0  0  0  0  0  0  0  0
   30.4357   15.5187   21.8131 C   0  0  0  0  0  0  0  0  0  0  0  0
   31.7609   16.2397   21.5912 C   0  0  0  0  0  0  0  0  0  0  0  0
   31.6767   17.7105   21.7980 N   0  0  0  0  0  0  0  0  0  0  0  0
   27.1899   13.8499   18.1786 O   0  0  0  0  0  0  0  0  0  0  0  0
  2  1  1  1  0  0  0
  2  3  1  0  0  0  0
  2  5  1  0  0  0  0
  3  4  1  0  0  0  0
  3 10  1  0  0  0  0
  5  6  1  0  0  0  0
  6  7  1  0  0  0  0
  7  8  1  0  0  0  0
  8  9  1  0  0  0  0
M  END
>  <CHROM.1>
143.80563999,-168.53292347,179.78655202,-178.71056695,68.25531719,28.69832461
15.55288203,20.11799794,2.55263201,-0.32116818,-1.69348863

>  <Name>
ligand

>  <RI>
0

>  <Rbt.Current_Directory>
/home/itssahil/PROJECTS/Mol_Feturizer/New_Systems/rnas/3DIY

>  <Rbt.Executable>
rbdock ($Id: //depot/dev/client3/rdock/2013.1/src/exe/rbdock.cxx#4 $)

>  <Rbt.Library>
libRbt.so (2013.1, Build901 2013/11/27)

>  <Rbt.Parameter_File>
/export/apps/rDock/src/rDock_2013.1_src/data/scripts/dock_solv.prm

>  <Rbt.Receptor>
prm/pocket_docking_5.prm

>  <SCORE>
-8.86185

>  <SCORE.INTER>
-8.08025

>  <SCORE.INTER.CONST>
1

>  <SCORE.INTER.POLAR>
0

>  <SCORE.INTER.ROT>
5

>  <SCORE.INTER.SOLV>
17.1992

>  <SCORE.INTER.VDW>
-18.0532

>  <SCORE.INTER.norm>
-0.808025

>  <SCORE.INTRA>
-0.781598

>  <SCORE.INTRA.DIHEDRAL>
-0.36663

>  <SCORE.INTRA.DIHEDRAL.0>
2.56603

>  <SCORE.INTRA.POLAR>
0

>  <SCORE.INTRA.POLAR.0>
0

>  <SCORE.INTRA.REPUL>
0

>  <SCORE.INTRA.REPUL.0>
0

>  <SCORE.INTRA.SOLV>
-0.75466

>  <SCORE.INTRA.SOLV.lig_0>
-32.0799

>  <SCORE.INTRA.VDW>
-0.220952

>  <SCORE.INTRA.VDW.0>
-0.618248

>  <SCORE.INTRA.norm>
-0.0781598

>  <SCORE.RESTR>
0

>  <SCORE.RESTR.CAVITY>
0

>  <SCORE.RESTR.norm>
0

>  <SCORE.SYSTEM>
0

>  <SCORE.SYSTEM.CONST>
0

>  <SCORE.SYSTEM.DIHEDRAL>
0

>  <SCORE.SYSTEM.SOLV>
0

>  <SCORE.SYSTEM.norm>
0

>  <SCORE.heavy>
10

>  <SCORE.norm>
-0.886185

>  <RMSD>
5.514

$$$$
ligand
 OpenBabel11021811473D
libRbt.so/2013.1/901 2013/11/27
 10  9  0  0  0  0  0  0  0  0999 V2000
   25.7302   15.0059   20.3674 N   0  0  0  0  0  0  0  0  0  0  0  0
   27.0656   15.5124   19.9282 C   0  0  2  0  0  0  0  0  0  0  0  0
   27.4607   14.9947   18.5404 C   0  0  0  0  0  0  0  0  0  0  0  0
   28.1332   15.6752   17.7513 O   0  0  0  0  0  0  0  0  0  0  0  0
   28.1412   15.1878   20.9684 C   0  0  0  0  0  0  0  0  0  0  0  0
   29.4592   15.8767   20.6973 C   0  0  0  0  0  0  0  0  0  0  0  0
   30.5222   15.4623   21.6855 C   0  0  0  0  0  0  0  0  0  0  0  0
   31.8274   16.2109   21.4375 C   0  0  0  0  0  0  0  0  0  0  0  0
   31.7280   17.6737   21.6893 N   0  0  0  0  0  0  0  0  0  0  0  0
   27.1498   13.8572   18.1738 O   0  0  0  0  0  0  0  0  0  0  0  0
  2  1  1  1  0  0  0
  2  3  1  0  0  0  0
  2  5  1  0  0  0  0
  3  4  1  0  0  0  0
  3 10  1  0  0  0  0
  5  6  1  0  0  0  0
  6  7  1  0  0  0  0
  7  8  1  0  0  0  0
  8  9  1  0  0  0  0
M  END
>  <CHROM.1>
146.72872103,-170.09663167,-176.11228873,-177.49411845,65.83774869,28.72140235
15.53176940,20.08724409,2.58913007,-0.32264185,-1.68406226

>  <Name>
ligand

>  <RI>
0

>  <Rbt.Current_Directory>
/home/itssahil/PROJECTS/Mol_Feturizer/New_Systems/rnas/3DIY

>  <Rbt.Executable>
rbdock ($Id: //depot/dev/client3/rdock/2013.1/src/exe/rbdock.cxx#4 $)

>  <Rbt.Library>
libRbt.so (2013.1, Build901 2013/11/27)

>  <Rbt.Parameter_File>
/export/apps/rDock/src/rDock_2013.1_src/data/scripts/dock_solv.prm

>  <Rbt.Receptor>
prm/pocket_docking_7.prm

>  <SCORE>
-8.83509

>  <SCORE.INTER>
-8.0075

>  <SCORE.INTER.CONST>
1

>  <SCORE.INTER.POLAR>
0

>  <SCORE.INTER.ROT>
5

>  <SCORE.INTER.SOLV>
17.0681

>  <SCORE.INTER.VDW>
-17.961

>  <SCORE.INTER.norm>
-0.80075

>  <SCORE.INTRA>
-0.827592

>  <SCORE.INTRA.DIHEDRAL>
-0.533602

>  <SCORE.INTRA.DIHEDRAL.0>
2.56603

>  <SCORE.INTRA.POLAR>
0

>  <SCORE.INTRA.POLAR.0>
0

>  <SCORE.INTRA.REPUL>
0

>  <SCORE.INTRA.REPUL.0>
0

>  <SCORE.INTRA.SOLV>
-0.714371

>  <SCORE.INTRA.SOLV.lig_0>
-32.0799

>  <SCORE.INTRA.VDW>
-0.203605

>  <SCORE.INTRA.VDW.0>
-0.618248

>  <SCORE.INTRA.norm>
-0.0827592

>  <SCORE.RESTR>
0

>  <SCORE.RESTR.CAVITY>
0

>  <SCORE.RESTR.norm>
0

>  <SCORE.SYSTEM>
0

>  <SCORE.SYSTEM.CONST>
0

>  <SCORE.SYSTEM.DIHEDRAL>
0

>  <SCORE.SYSTEM.SOLV>
0

>  <SCORE.SYSTEM.norm>
0

>  <SCORE.heavy>
10

>  <SCORE.norm>
-0.883509

>  <RMSD>
5.514

$$$$
ligand
 OpenBabel11021811473D
libRbt.so/2013.1/901 2013/11/27
 10  9  0  0  0  0  0  0  0  0999 V2000
   26.9220   14.5338   20.3317 N   0  0  0  0  0  0  0  0  0  0  0  0
   27.1233   15.4922   19.2030 C   0  0  2  0  0  0  0  0  0  0  0  0
   27.5155   14.7874   17.8994 C   0  0  0  0  0  0  0  0  0  0  0  0
   27.2697   13.5883   17.7001 O   0  0  0  0  0  0  0  0  0  0  0  0
   28.1426   16.5711   19.5788 C   0  0  0  0  0  0  0  0  0  0  0  0
   29.4527   16.0049   20.0774 C   0  0  0  0  0  0  0  0  0  0  0  0
   30.4014   17.0925   20.5196 C   0  0  0  0  0  0  0  0  0  0  0  0
   31.7315   16.5087   20.9834 C   0  0  0  0  0  0  0  0  0  0  0  0
   32.4624   15.7773   19.9138 N   0  0  0  0  0  0  0  0  0  0  0  0
   28.0621   15.4066   16.9813 O   0  0  0  0  0  0  0  0  0  0  0  0
  2  1  1  1  0  0  0
  2  3  1  0  0  0  0
  2  5  1  0  0  0  0
  3  4  1  0  0  0  0
  3 10  1  0  0  0  0
  5  6  1  0  0  0  0
  6  7  1  0  0  0  0
  7  8  1  0  0  0  0
  8  9  1  0  0  0  0
M  END
>  <CHROM.1>
21.67517167,53.32992317,-176.43755157,-178.44004556,62.12470802,28.90601924
15.55810471,19.28441445,2.55514448,-0.17442182,-1.98050892

>  <Name>
ligand

>  <RI>
0

>  <Rbt.Current_Directory>
/home/itssahil/PROJECTS/Mol_Feturizer/New_Systems/rnas/3DIY

>  <Rbt.Executable>
rbdock ($Id: //depot/dev/client3/rdock/2013.1/src/exe/rbdock.cxx#4 $)

>  <Rbt.Library>
libRbt.so (2013.1, Build901 2013/11/27)

>  <Rbt.Parameter_File>
/export/apps/rDock/src/rDock_2013.1_src/data/scripts/dock_solv.prm

>  <Rbt.Receptor>
prm/pocket_docking_8.prm

>  <SCORE>
-7.96761

>  <SCORE.INTER>
-8.13413

>  <SCORE.INTER.CONST>
1

>  <SCORE.INTER.POLAR>
0

>  <SCORE.INTER.ROT>
5

>  <SCORE.INTER.SOLV>
16.7628

>  <SCORE.INTER.VDW>
-17.9437

>  <SCORE.INTER.norm>
-0.813413

>  <SCORE.INTRA>
0.166524

>  <SCORE.INTRA.DIHEDRAL>
-0.818843

>  <SCORE.INTRA.DIHEDRAL.0>
2.56603

>  <SCORE.INTRA.POLAR>
0

>  <SCORE.INTRA.POLAR.0>
0

>  <SCORE.INTRA.REPUL>
0

>  <SCORE.INTRA.REPUL.0>
0

>  <SCORE.INTRA.SOLV>
0.348102

>  <SCORE.INTRA.SOLV.lig_0>
-32.0799

>  <SCORE.INTRA.VDW>
0.401894

>  <SCORE.INTRA.VDW.0>
-0.618248

>  <SCORE.INTRA.norm>
0.0166524

>  <SCORE.RESTR>
0

>  <SCORE.RESTR.CAVITY>
0

>  <SCORE.RESTR.norm>
0

>  <SCORE.SYSTEM>
0

>  <SCORE.SYSTEM.CONST>
0

>  <SCORE.SYSTEM.DIHEDRAL>
0

>  <SCORE.SYSTEM.SOLV>
0

>  <SCORE.SYSTEM.norm>
0

>  <SCORE.heavy>
10

>  <SCORE.norm>
-0.796761

>  <RMSD>
5.515

$$$$
ligand
 OpenBabel11021811473D
libRbt.so/2013.1/901 2013/11/27
 10  9  0  0  0  0  0  0  0  0999 V2000
   25.7079   15.0783   20.3050 N   0  0  0  0  0  0  0  0  0  0  0  0
   27.0715   15.5360   19.8997 C   0  0  2  0  0  0  0  0  0  0  0  0
   27.4889   14.9906   18.5292 C   0  0  0  0  0  0  0  0  0  0  0  0
   27.1632   13.8572   18.1453 O   0  0  0  0  0  0  0  0  0  0  0  0
   28.1054   15.1876   20.9739 C   0  0  0  0  0  0  0  0  0  0  0  0
   29.4389   15.8669   20.7596 C   0  0  0  0  0  0  0  0  0  0  0  0
   30.4447   15.4728   21.8139 C   0  0  0  0  0  0  0  0  0  0  0  0
   31.7728   16.1924   21.6050 C   0  0  0  0  0  0  0  0  0  0  0  0
   31.7009   17.6554   21.8653 N   0  0  0  0  0  0  0  0  0  0  0  0
   28.1390   15.6832   17.7403 O   0  0  0  0  0  0  0  0  0  0  0  0
  2  1  1  1  0  0  0
  2  3  1  0  0  0  0
  2  5  1  0  0  0  0
  3  4  1  0  0  0  0
  3 10  1  0  0  0  0
  5  6  1  0  0  0  0
  6  7  1  0  0  0  0
  7  8  1  0  0  0  0
  8  9  1  0  0  0  0
M  END
>  <CHROM.1>
-35.45201308,-168.17069502,-178.45667516,-178.56458930,68.70612531,28.70289362
15.53809279,20.12659330,2.54544578,-0.30699391,-1.69698041

>  <Name>
ligand

>  <RI>
0

>  <Rbt.Current_Directory>
/home/itssahil/PROJECTS/Mol_Feturizer/New_Systems/rnas/3DIY

>  <Rbt.Executable>
rbdock ($Id: //depot/dev/client3/rdock/2013.1/src/exe/rbdock.cxx#4 $)

>  <Rbt.Library>
libRbt.so (2013.1, Build901 2013/11/27)

>  <Rbt.Parameter_File>
/export/apps/rDock/src/rDock_2013.1_src/data/scripts/dock_solv.prm

>  <Rbt.Receptor>
prm/pocket_docking_8.prm

>  <SCORE>
-8.84171

>  <SCORE.INTER>
-8.14664

>  <SCORE.INTER.CONST>
1

>  <SCORE.INTER.POLAR>
0

>  <SCORE.INTER.ROT>
5

>  <SCORE.INTER.SOLV>
17.0126

>  <SCORE.INTER.VDW>
-18.0353

>  <SCORE.INTER.norm>
-0.814664

>  <SCORE.INTRA>
-0.695075

>  <SCORE.INTRA.DIHEDRAL>
-0.160917

>  <SCORE.INTRA.DIHEDRAL.0>
2.56603

>  <SCORE.INTRA.POLAR>
0

>  <SCORE.INTRA.POLAR.0>
0

>  <SCORE.INTRA.REPUL>
0

>  <SCORE.INTRA.REPUL.0>
0

>  <SCORE.INTRA.SOLV>
-0.752103

>  <SCORE.INTRA.SOLV.lig_0>
-32.0799

>  <SCORE.INTRA.VDW>
-0.238566

>  <SCORE.INTRA.VDW.0>
-0.618248

>  <SCORE.INTRA.norm>
-0.0695075

>  <SCORE.RESTR>
0

>  <SCORE.RESTR.CAVITY>
0

>  <SCORE.RESTR.norm>
0

>  <SCORE.SYSTEM>
0

>  <SCORE.SYSTEM.CONST>
0

>  <SCORE.SYSTEM.DIHEDRAL>
0

>  <SCORE.SYSTEM.SOLV>
0

>  <SCORE.SYSTEM.norm>
0

>  <SCORE.heavy>
10

>  <SCORE.norm>
-0.884171

>  <RMSD>
5.518

$$$$
ligand
 OpenBabel11021811473D
libRbt.so/2013.1/901 2013/11/27
 10  9  0  0  0  0  0  0  0  0999 V2000
   25.5596   15.0071   20.3563 N   0  0  0  0  0  0  0  0  0  0  0  0
   26.9429   15.3881   19.9385 C   0  0  2  0  0  0  0  0  0  0  0  0
   27.3759   14.6919   18.6432 C   0  0  0  0  0  0  0  0  0  0  0  0
   28.2491   15.1667   17.9015 O   0  0  0  0  0  0  0  0  0  0  0  0
   27.9441   15.1311   21.0680 C   0  0  0  0  0  0  0  0  0  0  0  0
   29.2348   15.9014   20.9067 C   0  0  0  0  0  0  0  0  0  0  0  0
   30.2364   15.5483   21.9793 C   0  0  0  0  0  0  0  0  0  0  0  0
   31.4645   16.4491   21.9047 C   0  0  0  0  0  0  0  0  0  0  0  0
   32.1848   16.3620   20.6060 N   0  0  0  0  0  0  0  0  0  0  0  0
   26.8901   13.6062   18.3117 O   0  0  0  0  0  0  0  0  0  0  0  0
  2  1  1  1  0  0  0
  2  3  1  0  0  0  0
  2  5  1  0  0  0  0
  3  4  1  0  0  0  0
  3 10  1  0  0  0  0
  5  6  1  0  0  0  0
  6  7  1  0  0  0  0
  7  8  1  0  0  0  0
  8  9  1  0  0  0  0
M  END
>  <CHROM.1>
155.68697649,-160.53170357,-175.79192120,-173.20509193,-59.88044110,28.60859868
15.30743570,20.12734147,2.61126820,-0.21972852,-1.80845373

>  <Name>
ligand

>  <RI>
0

>  <Rbt.Current_Directory>
/home/itssahil/PROJECTS/Mol_Feturizer/New_Systems/rnas/3DIY

>  <Rbt.Executable>
rbdock ($Id: //depot/dev/client3/rdock/2013.1/src/exe/rbdock.cxx#4 $)

>  <Rbt.Library>
libRbt.so (2013.1, Build901 2013/11/27)

>  <Rbt.Parameter_File>
/export/apps/rDock/src/rDock_2013.1_src/data/scripts/dock_solv.prm

>  <Rbt.Receptor>
prm/pocket_docking_3.prm

>  <SCORE>
-8.29797

>  <SCORE.INTER>
-8.01295

>  <SCORE.INTER.CONST>
1

>  <SCORE.INTER.POLAR>
0

>  <SCORE.INTER.ROT>
5

>  <SCORE.INTER.SOLV>
17.6531

>  <SCORE.INTER.VDW>
-18.1597

>  <SCORE.INTER.norm>
-0.801295

>  <SCORE.INTRA>
-0.285019

>  <SCORE.INTRA.DIHEDRAL>
0.472511

>  <SCORE.INTRA.DIHEDRAL.0>
2.56603

>  <SCORE.INTRA.POLAR>
0

>  <SCORE.INTRA.POLAR.0>
0

>  <SCORE.INTRA.REPUL>
0

>  <SCORE.INTRA.REPUL.0>
0

>  <SCORE.INTRA.SOLV>
-0.652187

>  <SCORE.INTRA.SOLV.lig_0>
-32.0799

>  <SCORE.INTRA.VDW>
-0.195181

>  <SCORE.INTRA.VDW.0>
-0.618248

>  <SCORE.INTRA.norm>
-0.0285019

>  <SCORE.RESTR>
0

>  <SCORE.RESTR.CAVITY>
0

>  <SCORE.RESTR.norm>
0

>  <SCORE.SYSTEM>
0

>  <SCORE.SYSTEM.CONST>
0

>  <SCORE.SYSTEM.DIHEDRAL>
0

>  <SCORE.SYSTEM.SOLV>
0

>  <SCORE.SYSTEM.norm>
0

>  <SCORE.heavy>
10

>  <SCORE.norm>
-0.829797

>  <RMSD>
5.519

$$$$
ligand
 OpenBabel11021811473D
libRbt.so/2013.1/901 2013/11/27
 10  9  0  0  0  0  0  0  0  0999 V2000
   25.5496   14.9123   20.5001 N   0  0  0  0  0  0  0  0  0  0  0  0
   26.8997   15.3844   20.0673 C   0  0  2  0  0  0  0  0  0  0  0  0
   27.3128   14.8097   18.7075 C   0  0  0  0  0  0  0  0  0  0  0  0
   27.9772   15.4651   17.8907 O   0  0  0  0  0  0  0  0  0  0  0  0
   27.9516   15.0851   21.1388 C   0  0  0  0  0  0  0  0  0  0  0  0
   29.2266   15.8772   20.9594 C   0  0  0  0  0  0  0  0  0  0  0  0
   30.2399   15.5591   22.0321 C   0  0  0  0  0  0  0  0  0  0  0  0
   31.5019   16.3985   21.8645 C   0  0  0  0  0  0  0  0  0  0  0  0
   32.1855   16.1862   20.5604 N   0  0  0  0  0  0  0  0  0  0  0  0
   27.0254   13.6506   18.3931 O   0  0  0  0  0  0  0  0  0  0  0  0
  2  1  1  1  0  0  0
  2  3  1  0  0  0  0
  2  5  1  0  0  0  0
  3  4  1  0  0  0  0
  3 10  1  0  0  0  0
  5  6  1  0  0  0  0
  6  7  1  0  0  0  0
  7  8  1  0  0  0  0
  8  9  1  0  0  0  0
M  END
>  <CHROM.1>
144.66815155,-163.06616832,179.94380944,-178.13885809,-59.95162344,28.58680884
15.31818633,20.17595900,2.64833330,-0.23023526,-1.73088050

>  <Name>
ligand

>  <RI>
0

>  <Rbt.Current_Directory>
/home/itssahil/PROJECTS/Mol_Feturizer/New_Systems/rnas/3DIY

>  <Rbt.Executable>
rbdock ($Id: //depot/dev/client3/rdock/2013.1/src/exe/rbdock.cxx#4 $)

>  <Rbt.Library>
libRbt.so (2013.1, Build901 2013/11/27)

>  <Rbt.Parameter_File>
/export/apps/rDock/src/rDock_2013.1_src/data/scripts/dock_solv.prm

>  <Rbt.Receptor>
prm/pocket_docking_3.prm

>  <SCORE>
-8.52269

>  <SCORE.INTER>
-7.94698

>  <SCORE.INTER.CONST>
1

>  <SCORE.INTER.POLAR>
0

>  <SCORE.INTER.ROT>
5

>  <SCORE.INTER.SOLV>
18.4226

>  <SCORE.INTER.VDW>
-18.3722

>  <SCORE.INTER.norm>
-0.794698

>  <SCORE.INTRA>
-0.577695

>  <SCORE.INTRA.DIHEDRAL>
-0.0776361

>  <SCORE.INTRA.DIHEDRAL.0>
2.56603

>  <SCORE.INTRA.POLAR>
0

>  <SCORE.INTRA.POLAR.0>
0

>  <SCORE.INTRA.REPUL>
0

>  <SCORE.INTRA.REPUL.0>
0

>  <SCORE.INTRA.SOLV>
-0.645059

>  <SCORE.INTRA.SOLV.lig_0>
-32.0799

>  <SCORE.INTRA.VDW>
-0.216348

>  <SCORE.INTRA.VDW.0>
-0.618248

>  <SCORE.INTRA.norm>
-0.0577695

>  <SCORE.RESTR>
0.00198433

>  <SCORE.RESTR.CAVITY>
0.00198433

>  <SCORE.RESTR.norm>
0.000198433

>  <SCORE.SYSTEM>
0

>  <SCORE.SYSTEM.CONST>
0

>  <SCORE.SYSTEM.DIHEDRAL>
0

>  <SCORE.SYSTEM.SOLV>
0

>  <SCORE.SYSTEM.norm>
0

>  <SCORE.heavy>
10

>  <SCORE.norm>
-0.852269

>  <RMSD>
5.519

$$$$
ligand
 OpenBabel11021811473D
libRbt.so/2013.1/901 2013/11/27
 10  9  0  0  0  0  0  0  0  0999 V2000
   26.9923   14.8530   20.2973 N   0  0  0  0  0  0  0  0  0  0  0  0
   27.5046   15.7286   19.2000 C   0  0  2  0  0  0  0  0  0  0  0  0
   27.6647   14.9741   17.8753 C   0  0  0  0  0  0  0  0  0  0  0  0
   27.2582   13.8119   17.7269 O   0  0  0  0  0  0  0  0  0  0  0  0
   28.8122   16.4104   19.6118 C   0  0  0  0  0  0  0  0  0  0  0  0
   29.8999   15.4319   19.9924 C   0  0  0  0  0  0  0  0  0  0  0  0
   31.1905   16.1346   20.3376 C   0  0  0  0  0  0  0  0  0  0  0  0
   31.0601   16.9187   21.6389 C   0  0  0  0  0  0  0  0  0  0  0  0
   32.2893   17.6749   22.0003 N   0  0  0  0  0  0  0  0  0  0  0  0
   28.1763   15.5177   16.8916 O   0  0  0  0  0  0  0  0  0  0  0  0
  2  1  1  1  0  0  0
  2  3  1  0  0  0  0
  2  5  1  0  0  0  0
  3  4  1  0  0  0  0
  3 10  1  0  0  0  0
  5  6  1  0  0  0  0
  6  7  1  0  0  0  0
  7  8  1  0  0  0  0
  8  9  1  0  0  0  0
M  END
>  <CHROM.1>
7.79160556,57.78432660,177.65426169,68.75438012,-177.76938464,29.07797942
15.72633750,19.52048808,2.44604601,-0.41510948,-1.69744753

>  <Name>
ligand

>  <RI>
0

>  <Rbt.Current_Directory>
/home/itssahil/PROJECTS/Mol_Feturizer/New_Systems/rnas/3DIY

>  <Rbt.Executable>
rbdock ($Id: //depot/dev/client3/rdock/2013.1/src/exe/rbdock.cxx#4 $)

>  <Rbt.Library>
libRbt.so (2013.1, Build901 2013/11/27)

>  <Rbt.Parameter_File>
/export/apps/rDock/src/rDock_2013.1_src/data/scripts/dock_solv.prm

>  <Rbt.Receptor>
prm/pocket_docking_5.prm

>  <SCORE>
-8.24862

>  <SCORE.INTER>
-8.46563

>  <SCORE.INTER.CONST>
1

>  <SCORE.INTER.POLAR>
0

>  <SCORE.INTER.ROT>
5

>  <SCORE.INTER.SOLV>
13.3504

>  <SCORE.INTER.VDW>
-17.0272

>  <SCORE.INTER.norm>
-0.846563

>  <SCORE.INTRA>
0.217002

>  <SCORE.INTRA.DIHEDRAL>
-0.665097

>  <SCORE.INTRA.DIHEDRAL.0>
2.56603

>  <SCORE.INTRA.POLAR>
0

>  <SCORE.INTRA.POLAR.0>
0

>  <SCORE.INTRA.REPUL>
0

>  <SCORE.INTRA.REPUL.0>
0

>  <SCORE.INTRA.SOLV>
-0.404601

>  <SCORE.INTRA.SOLV.lig_0>
-32.0799

>  <SCORE.INTRA.VDW>
0.751851

>  <SCORE.INTRA.VDW.0>
-0.618248

>  <SCORE.INTRA.norm>
0.0217002

>  <SCORE.RESTR>
0

>  <SCORE.RESTR.CAVITY>
0

>  <SCORE.RESTR.norm>
0

>  <SCORE.SYSTEM>
0

>  <SCORE.SYSTEM.CONST>
0

>  <SCORE.SYSTEM.DIHEDRAL>
0

>  <SCORE.SYSTEM.SOLV>
0

>  <SCORE.SYSTEM.norm>
0

>  <SCORE.heavy>
10

>  <SCORE.norm>
-0.824862

>  <RMSD>
5.519

$$$$
ligand
 OpenBabel11021811473D
libRbt.so/2013.1/901 2013/11/27
 10  9  0  0  0  0  0  0  0  0999 V2000
   25.7181   15.0652   20.3307 N   0  0  0  0  0  0  0  0  0  0  0  0
   27.0691   15.5385   19.9021 C   0  0  2  0  0  0  0  0  0  0  0  0
   27.4772   14.9825   18.5330 C   0  0  0  0  0  0  0  0  0  0  0  0
   27.1503   13.8456   18.1607 O   0  0  0  0  0  0  0  0  0  0  0  0
   28.1221   15.2190   20.9668 C   0  0  0  0  0  0  0  0  0  0  0  0
   29.4524   15.8890   20.7086 C   0  0  0  0  0  0  0  0  0  0  0  0
   30.4858   15.4985   21.7373 C   0  0  0  0  0  0  0  0  0  0  0  0
   31.8083   16.2163   21.4901 C   0  0  0  0  0  0  0  0  0  0  0  0
   31.7353   17.6854   21.7129 N   0  0  0  0  0  0  0  0  0  0  0  0
   28.1203   15.6697   17.7336 O   0  0  0  0  0  0  0  0  0  0  0  0
  2  1  1  1  0  0  0
  2  3  1  0  0  0  0
  2  5  1  0  0  0  0
  3  4  1  0  0  0  0
  3 10  1  0  0  0  0
  5  6  1  0  0  0  0
  6  7  1  0  0  0  0
  7  8  1  0  0  0  0
  8  9  1  0  0  0  0
M  END
>  <CHROM.1>
-34.57047652,-169.57168918,-177.14652493,-178.16868530,67.24421821,28.71314425
15.54670381,20.09076272,2.57103476,-0.31255617,-1.70093724

>  <Name>
ligand

>  <RI>
0

>  <Rbt.Current_Directory>
/home/itssahil/PROJECTS/Mol_Feturizer/New_Systems/rnas/3DIY

>  <Rbt.Executable>
rbdock ($Id: //depot/dev/client3/rdock/2013.1/src/exe/rbdock.cxx#4 $)

>  <Rbt.Library>
libRbt.so (2013.1, Build901 2013/11/27)

>  <Rbt.Parameter_File>
/export/apps/rDock/src/rDock_2013.1_src/data/scripts/dock_solv.prm

>  <Rbt.Receptor>
prm/pocket_docking_8.prm

>  <SCORE>
-8.78571

>  <SCORE.INTER>
-8.03615

>  <SCORE.INTER.CONST>
1

>  <SCORE.INTER.POLAR>
0

>  <SCORE.INTER.ROT>
5

>  <SCORE.INTER.SOLV>
17.019

>  <SCORE.INTER.VDW>
-17.9638

>  <SCORE.INTER.norm>
-0.803615

>  <SCORE.INTRA>
-0.749561

>  <SCORE.INTRA.DIHEDRAL>
-0.32708

>  <SCORE.INTRA.DIHEDRAL.0>
2.56603

>  <SCORE.INTRA.POLAR>
0

>  <SCORE.INTRA.POLAR.0>
0

>  <SCORE.INTRA.REPUL>
0

>  <SCORE.INTRA.REPUL.0>
0

>  <SCORE.INTRA.SOLV>
-0.73112

>  <SCORE.INTRA.SOLV.lig_0>
-32.0799

>  <SCORE.INTRA.VDW>
-0.220461

>  <SCORE.INTRA.VDW.0>
-0.618248

>  <SCORE.INTRA.norm>
-0.0749561

>  <SCORE.RESTR>
0

>  <SCORE.RESTR.CAVITY>
0

>  <SCORE.RESTR.norm>
0

>  <SCORE.SYSTEM>
0

>  <SCORE.SYSTEM.CONST>
0

>  <SCORE.SYSTEM.DIHEDRAL>
0

>  <SCORE.SYSTEM.SOLV>
0

>  <SCORE.SYSTEM.norm>
0

>  <SCORE.heavy>
10

>  <SCORE.norm>
-0.878571

>  <RMSD>
5.519

$$$$
ligand
 OpenBabel11021811473D
libRbt.so/2013.1/901 2013/11/27
 10  9  0  0  0  0  0  0  0  0999 V2000
   25.7219   15.0598   20.3256 N   0  0  0  0  0  0  0  0  0  0  0  0
   27.0782   15.5262   19.9060 C   0  0  2  0  0  0  0  0  0  0  0  0
   27.4814   14.9898   18.5277 C   0  0  0  0  0  0  0  0  0  0  0  0
   27.1404   13.8641   18.1345 O   0  0  0  0  0  0  0  0  0  0  0  0
   28.1269   15.1774   20.9656 C   0  0  0  0  0  0  0  0  0  0  0  0
   29.4447   15.8879   20.7559 C   0  0  0  0  0  0  0  0  0  0  0  0
   30.4758   15.4696   21.7758 C   0  0  0  0  0  0  0  0  0  0  0  0
   31.7900   16.2148   21.5686 C   0  0  0  0  0  0  0  0  0  0  0  0
   31.6957   17.6720   21.8533 N   0  0  0  0  0  0  0  0  0  0  0  0
   28.1349   15.6827   17.7419 O   0  0  0  0  0  0  0  0  0  0  0  0
  2  1  1  1  0  0  0
  2  3  1  0  0  0  0
  2  5  1  0  0  0  0
  3  4  1  0  0  0  0
  3 10  1  0  0  0  0
  5  6  1  0  0  0  0
  6  7  1  0  0  0  0
  7  8  1  0  0  0  0
  8  9  1  0  0  0  0
M  END
>  <CHROM.1>
-34.40539091,-166.89566879,-177.15136329,-178.86558025,67.35766454,28.70820671
15.54063559,20.11826245,2.55202019,-0.31313193,-1.69407180

>  <Name>
ligand

>  <RI>
0

>  <Rbt.Current_Directory>
/home/itssahil/PROJECTS/Mol_Feturizer/New_Systems/rnas/3DIY

>  <Rbt.Executable>
rbdock ($Id: //depot/dev/client3/rdock/2013.1/src/exe/rbdock.cxx#4 $)

>  <Rbt.Library>
libRbt.so (2013.1, Build901 2013/11/27)

>  <Rbt.Parameter_File>
/export/apps/rDock/src/rDock_2013.1_src/data/scripts/dock_solv.prm

>  <Rbt.Receptor>
prm/pocket_docking_7.prm

>  <SCORE>
-8.80768

>  <SCORE.INTER>
-8.14332

>  <SCORE.INTER.CONST>
1

>  <SCORE.INTER.POLAR>
0

>  <SCORE.INTER.ROT>
5

>  <SCORE.INTER.SOLV>
17.0306

>  <SCORE.INTER.VDW>
-18.0391

>  <SCORE.INTER.norm>
-0.814332

>  <SCORE.INTRA>
-0.66436

>  <SCORE.INTRA.DIHEDRAL>
-0.106092

>  <SCORE.INTRA.DIHEDRAL.0>
2.56603

>  <SCORE.INTRA.POLAR>
0

>  <SCORE.INTRA.POLAR.0>
0

>  <SCORE.INTRA.REPUL>
0

>  <SCORE.INTRA.REPUL.0>
0

>  <SCORE.INTRA.SOLV>
-0.732359

>  <SCORE.INTRA.SOLV.lig_0>
-32.0799

>  <SCORE.INTRA.VDW>
-0.245135

>  <SCORE.INTRA.VDW.0>
-0.618248

>  <SCORE.INTRA.norm>
-0.066436

>  <SCORE.RESTR>
0

>  <SCORE.RESTR.CAVITY>
0

>  <SCORE.RESTR.norm>
0

>  <SCORE.SYSTEM>
0

>  <SCORE.SYSTEM.CONST>
0

>  <SCORE.SYSTEM.DIHEDRAL>
0

>  <SCORE.SYSTEM.SOLV>
0

>  <SCORE.SYSTEM.norm>
0

>  <SCORE.heavy>
10

>  <SCORE.norm>
-0.880768

>  <RMSD>
5.521

$$$$
ligand
 OpenBabel11021811473D
libRbt.so/2013.1/901 2013/11/27
 10  9  0  0  0  0  0  0  0  0999 V2000
   25.7420   15.0239   20.4063 N   0  0  0  0  0  0  0  0  0  0  0  0
   27.0770   15.5276   19.9624 C   0  0  2  0  0  0  0  0  0  0  0  0
   27.4604   15.0194   18.5678 C   0  0  0  0  0  0  0  0  0  0  0  0
   27.1194   13.8993   18.1592 O   0  0  0  0  0  0  0  0  0  0  0  0
   28.1578   15.1892   20.9927 C   0  0  0  0  0  0  0  0  0  0  0  0
   29.4695   15.8948   20.7336 C   0  0  0  0  0  0  0  0  0  0  0  0
   30.5424   15.4568   21.7008 C   0  0  0  0  0  0  0  0  0  0  0  0
   31.8277   16.2512   21.4949 C   0  0  0  0  0  0  0  0  0  0  0  0
   31.7033   17.6859   21.8683 N   0  0  0  0  0  0  0  0  0  0  0  0
   28.0968   15.7309   17.7844 O   0  0  0  0  0  0  0  0  0  0  0  0
  2  1  1  1  0  0  0
  2  3  1  0  0  0  0
  2  5  1  0  0  0  0
  3  4  1  0  0  0  0
  3 10  1  0  0  0  0
  5  6  1  0  0  0  0
  6  7  1  0  0  0  0
  7  8  1  0  0  0  0
  8  9  1  0  0  0  0
M  END
>  <CHROM.1>
-33.30564830,-168.98777125,-175.50673774,-175.75119812,67.86354492,28.71826332
15.55476709,20.12969785,2.57460872,-0.32047585,-1.68113881

>  <Name>
ligand

>  <RI>
0

>  <Rbt.Current_Directory>
/home/itssahil/PROJECTS/Mol_Feturizer/New_Systems/rnas/3DIY

>  <Rbt.Executable>
rbdock ($Id: //depot/dev/client3/rdock/2013.1/src/exe/rbdock.cxx#4 $)

>  <Rbt.Library>
libRbt.so (2013.1, Build901 2013/11/27)

>  <Rbt.Parameter_File>
/export/apps/rDock/src/rDock_2013.1_src/data/scripts/dock_solv.prm

>  <Rbt.Receptor>
prm/pocket_docking_8.prm

>  <SCORE>
-8.77847

>  <SCORE.INTER>
-8.11762

>  <SCORE.INTER.CONST>
1

>  <SCORE.INTER.POLAR>
0

>  <SCORE.INTER.ROT>
5

>  <SCORE.INTER.SOLV>
17.1329

>  <SCORE.INTER.VDW>
-18.056

>  <SCORE.INTER.norm>
-0.811762

>  <SCORE.INTRA>
-0.660858

>  <SCORE.INTRA.DIHEDRAL>
-0.134785

>  <SCORE.INTRA.DIHEDRAL.0>
2.56603

>  <SCORE.INTRA.POLAR>
0

>  <SCORE.INTRA.POLAR.0>
0

>  <SCORE.INTRA.REPUL>
0

>  <SCORE.INTRA.REPUL.0>
0

>  <SCORE.INTRA.SOLV>
-0.72465

>  <SCORE.INTRA.SOLV.lig_0>
-32.0799

>  <SCORE.INTRA.VDW>
-0.231141

>  <SCORE.INTRA.VDW.0>
-0.618248

>  <SCORE.INTRA.norm>
-0.0660858

>  <SCORE.RESTR>
0

>  <SCORE.RESTR.CAVITY>
0

>  <SCORE.RESTR.norm>
0

>  <SCORE.SYSTEM>
0

>  <SCORE.SYSTEM.CONST>
0

>  <SCORE.SYSTEM.DIHEDRAL>
0

>  <SCORE.SYSTEM.SOLV>
0

>  <SCORE.SYSTEM.norm>
0

>  <SCORE.heavy>
10

>  <SCORE.norm>
-0.877847

>  <RMSD>
5.521

$$$$
ligand
 OpenBabel11021811473D
libRbt.so/2013.1/901 2013/11/27
 10  9  0  0  0  0  0  0  0  0999 V2000
   25.7180   15.0543   20.3371 N   0  0  0  0  0  0  0  0  0  0  0  0
   27.0654   15.5320   19.9021 C   0  0  2  0  0  0  0  0  0  0  0  0
   27.4582   14.9972   18.5202 C   0  0  0  0  0  0  0  0  0  0  0  0
   28.1242   15.6702   17.7193 O   0  0  0  0  0  0  0  0  0  0  0  0
   28.1287   15.1939   20.9506 C   0  0  0  0  0  0  0  0  0  0  0  0
   29.4504   15.8846   20.7028 C   0  0  0  0  0  0  0  0  0  0  0  0
   30.5088   15.4377   21.6817 C   0  0  0  0  0  0  0  0  0  0  0  0
   31.8110   16.2033   21.4732 C   0  0  0  0  0  0  0  0  0  0  0  0
   31.7143   17.6443   21.8299 N   0  0  0  0  0  0  0  0  0  0  0  0
   27.1520   13.8531   18.1705 O   0  0  0  0  0  0  0  0  0  0  0  0
  2  1  1  1  0  0  0
  2  3  1  0  0  0  0
  2  5  1  0  0  0  0
  3  4  1  0  0  0  0
  3 10  1  0  0  0  0
  5  6  1  0  0  0  0
  6  7  1  0  0  0  0
  7  8  1  0  0  0  0
  8  9  1  0  0  0  0
M  END
>  <CHROM.1>
145.17379752,-168.56624959,-175.02268775,-176.57993961,67.97382836,28.71273554
15.53284617,20.09202086,2.56421231,-0.30150318,-1.70671910

>  <Name>
ligand

>  <RI>
0

>  <Rbt.Current_Directory>
/home/itssahil/PROJECTS/Mol_Feturizer/New_Systems/rnas/3DIY

>  <Rbt.Executable>
rbdock ($Id: //depot/dev/client3/rdock/2013.1/src/exe/rbdock.cxx#4 $)

>  <Rbt.Library>
libRbt.so (2013.1, Build901 2013/11/27)

>  <Rbt.Parameter_File>
/export/apps/rDock/src/rDock_2013.1_src/data/scripts/dock_solv.prm

>  <Rbt.Receptor>
prm/blind_docking_100.prm

>  <SCORE>
-8.91595

>  <SCORE.INTER>
-8.17039

>  <SCORE.INTER.CONST>
1

>  <SCORE.INTER.POLAR>
0

>  <SCORE.INTER.ROT>
5

>  <SCORE.INTER.SOLV>
16.9482

>  <SCORE.INTER.VDW>
-18.0296

>  <SCORE.INTER.norm>
-0.817039

>  <SCORE.INTRA>
-0.745561

>  <SCORE.INTRA.DIHEDRAL>
-0.243013

>  <SCORE.INTRA.DIHEDRAL.0>
2.56603

>  <SCORE.INTRA.POLAR>
0

>  <SCORE.INTRA.POLAR.0>
0

>  <SCORE.INTRA.REPUL>
0

>  <SCORE.INTRA.REPUL.0>
0

>  <SCORE.INTRA.SOLV>
-0.737768

>  <SCORE.INTRA.SOLV.lig_0>
-32.0799

>  <SCORE.INTRA.VDW>
-0.25517

>  <SCORE.INTRA.VDW.0>
-0.618248

>  <SCORE.INTRA.norm>
-0.0745561

>  <SCORE.RESTR>
0

>  <SCORE.RESTR.CAVITY>
0

>  <SCORE.RESTR.norm>
0

>  <SCORE.SYSTEM>
0

>  <SCORE.SYSTEM.CONST>
0

>  <SCORE.SYSTEM.DIHEDRAL>
0

>  <SCORE.SYSTEM.SOLV>
0

>  <SCORE.SYSTEM.norm>
0

>  <SCORE.heavy>
10

>  <SCORE.norm>
-0.891595

>  <RMSD>
5.522

$$$$
ligand
 OpenBabel11021811473D
libRbt.so/2013.1/901 2013/11/27
 10  9  0  0  0  0  0  0  0  0999 V2000
   25.7102   15.0532   20.3534 N   0  0  0  0  0  0  0  0  0  0  0  0
   27.0558   15.5342   19.9162 C   0  0  2  0  0  0  0  0  0  0  0  0
   27.4451   15.0052   18.5310 C   0  0  0  0  0  0  0  0  0  0  0  0
   28.1225   15.6755   17.7374 O   0  0  0  0  0  0  0  0  0  0  0  0
   28.1226   15.1933   20.9602 C   0  0  0  0  0  0  0  0  0  0  0  0
   29.4468   15.8760   20.7035 C   0  0  0  0  0  0  0  0  0  0  0  0
   30.5095   15.4211   21.6741 C   0  0  0  0  0  0  0  0  0  0  0  0
   31.8166   16.1749   21.4534 C   0  0  0  0  0  0  0  0  0  0  0  0
   31.7301   17.6215   21.7900 N   0  0  0  0  0  0  0  0  0  0  0  0
   27.1241   13.8684   18.1712 O   0  0  0  0  0  0  0  0  0  0  0  0
  2  1  1  1  0  0  0
  2  3  1  0  0  0  0
  2  5  1  0  0  0  0
  3  4  1  0  0  0  0
  3 10  1  0  0  0  0
  5  6  1  0  0  0  0
  6  7  1  0  0  0  0
  7  8  1  0  0  0  0
  8  9  1  0  0  0  0
M  END
>  <CHROM.1>
146.12400163,-169.12405696,-174.74884701,-176.80736885,67.13202047,28.70782850
15.52831551,20.09232135,2.57520549,-0.29994894,-1.69874760

>  <Name>
ligand

>  <RI>
0

>  <Rbt.Current_Directory>
/home/itssahil/PROJECTS/Mol_Feturizer/New_Systems/rnas/3DIY

>  <Rbt.Executable>
rbdock ($Id: //depot/dev/client3/rdock/2013.1/src/exe/rbdock.cxx#4 $)

>  <Rbt.Library>
libRbt.so (2013.1, Build901 2013/11/27)

>  <Rbt.Parameter_File>
/export/apps/rDock/src/rDock_2013.1_src/data/scripts/dock_solv.prm

>  <Rbt.Receptor>
prm/pocket_docking_6.prm

>  <SCORE>
-8.89847

>  <SCORE.INTER>
-8.13396

>  <SCORE.INTER.CONST>
1

>  <SCORE.INTER.POLAR>
0

>  <SCORE.INTER.ROT>
5

>  <SCORE.INTER.SOLV>
16.9249

>  <SCORE.INTER.VDW>
-17.9976

>  <SCORE.INTER.norm>
-0.813396

>  <SCORE.INTRA>
-0.764515

>  <SCORE.INTRA.DIHEDRAL>
-0.330111

>  <SCORE.INTRA.DIHEDRAL.0>
2.56603

>  <SCORE.INTRA.POLAR>
0

>  <SCORE.INTRA.POLAR.0>
0

>  <SCORE.INTRA.REPUL>
0

>  <SCORE.INTRA.REPUL.0>
0

>  <SCORE.INTRA.SOLV>
-0.727514

>  <SCORE.INTRA.SOLV.lig_0>
-32.0799

>  <SCORE.INTRA.VDW>
-0.235703

>  <SCORE.INTRA.VDW.0>
-0.618248

>  <SCORE.INTRA.norm>
-0.0764515

>  <SCORE.RESTR>
0

>  <SCORE.RESTR.CAVITY>
0

>  <SCORE.RESTR.norm>
0

>  <SCORE.SYSTEM>
0

>  <SCORE.SYSTEM.CONST>
0

>  <SCORE.SYSTEM.DIHEDRAL>
0

>  <SCORE.SYSTEM.SOLV>
0

>  <SCORE.SYSTEM.norm>
0

>  <SCORE.heavy>
10

>  <SCORE.norm>
-0.889847

>  <RMSD>
5.523

$$$$
ligand
 OpenBabel11021811473D
libRbt.so/2013.1/901 2013/11/27
 10  9  0  0  0  0  0  0  0  0999 V2000
   25.7294   15.0598   20.3508 N   0  0  0  0  0  0  0  0  0  0  0  0
   27.0765   15.5327   19.9097 C   0  0  2  0  0  0  0  0  0  0  0  0
   27.4619   14.9952   18.5267 C   0  0  0  0  0  0  0  0  0  0  0  0
   28.1200   15.6682   17.7193 O   0  0  0  0  0  0  0  0  0  0  0  0
   28.1431   15.1923   20.9541 C   0  0  0  0  0  0  0  0  0  0  0  0
   29.4641   15.8833   20.7034 C   0  0  0  0  0  0  0  0  0  0  0  0
   30.5172   15.4572   21.6973 C   0  0  0  0  0  0  0  0  0  0  0  0
   31.8132   16.2348   21.4947 C   0  0  0  0  0  0  0  0  0  0  0  0
   31.7078   17.6700   21.8718 N   0  0  0  0  0  0  0  0  0  0  0  0
   27.1573   13.8491   18.1824 O   0  0  0  0  0  0  0  0  0  0  0  0
  2  1  1  1  0  0  0
  2  3  1  0  0  0  0
  2  5  1  0  0  0  0
  3  4  1  0  0  0  0
  3 10  1  0  0  0  0
  5  6  1  0  0  0  0
  6  7  1  0  0  0  0
  7  8  1  0  0  0  0
  8  9  1  0  0  0  0
M  END
>  <CHROM.1>
144.74683537,-168.31359952,-176.29630701,-175.94228941,69.55934282,28.71853871
15.53992592,20.10424055,2.55863759,-0.30447080,-1.71013657

>  <Name>
ligand

>  <RI>
0

>  <Rbt.Current_Directory>
/home/itssahil/PROJECTS/Mol_Feturizer/New_Systems/rnas/3DIY

>  <Rbt.Executable>
rbdock ($Id: //depot/dev/client3/rdock/2013.1/src/exe/rbdock.cxx#4 $)

>  <Rbt.Library>
libRbt.so (2013.1, Build901 2013/11/27)

>  <Rbt.Parameter_File>
/export/apps/rDock/src/rDock_2013.1_src/data/scripts/dock_solv.prm

>  <Rbt.Receptor>
prm/pocket_docking_7.prm

>  <SCORE>
-8.9094

>  <SCORE.INTER>
-8.2054

>  <SCORE.INTER.CONST>
1

>  <SCORE.INTER.POLAR>
0

>  <SCORE.INTER.ROT>
5

>  <SCORE.INTER.SOLV>
17.024

>  <SCORE.INTER.VDW>
-18.0783

>  <SCORE.INTER.norm>
-0.82054

>  <SCORE.INTRA>
-0.704009

>  <SCORE.INTRA.DIHEDRAL>
-0.14626

>  <SCORE.INTRA.DIHEDRAL.0>
2.56603

>  <SCORE.INTRA.POLAR>
0

>  <SCORE.INTRA.POLAR.0>
0

>  <SCORE.INTRA.REPUL>
0

>  <SCORE.INTRA.REPUL.0>
0

>  <SCORE.INTRA.SOLV>
-0.756203

>  <SCORE.INTRA.SOLV.lig_0>
-32.0799

>  <SCORE.INTRA.VDW>
-0.252777

>  <SCORE.INTRA.VDW.0>
-0.618248

>  <SCORE.INTRA.norm>
-0.0704009

>  <SCORE.RESTR>
0

>  <SCORE.RESTR.CAVITY>
0

>  <SCORE.RESTR.norm>
0

>  <SCORE.SYSTEM>
0

>  <SCORE.SYSTEM.CONST>
0

>  <SCORE.SYSTEM.DIHEDRAL>
0

>  <SCORE.SYSTEM.SOLV>
0

>  <SCORE.SYSTEM.norm>
0

>  <SCORE.heavy>
10

>  <SCORE.norm>
-0.89094

>  <RMSD>
5.523

$$$$
ligand
 OpenBabel11021811473D
libRbt.so/2013.1/901 2013/11/27
 10  9  0  0  0  0  0  0  0  0999 V2000
   26.9347   14.5209   19.9799 N   0  0  0  0  0  0  0  0  0  0  0  0
   27.2938   15.5356   18.9433 C   0  0  2  0  0  0  0  0  0  0  0  0
   27.9505   14.9055   17.7098 C   0  0  0  0  0  0  0  0  0  0  0  0
   28.2143   13.6951   17.6511 O   0  0  0  0  0  0  0  0  0  0  0  0
   28.1752   16.6363   19.5398 C   0  0  0  0  0  0  0  0  0  0  0  0
   29.4810   16.1170   20.0972 C   0  0  0  0  0  0  0  0  0  0  0  0
   30.2924   17.2153   20.7404 C   0  0  0  0  0  0  0  0  0  0  0  0
   31.6097   16.6781   21.2894 C   0  0  0  0  0  0  0  0  0  0  0  0
   32.4457   17.7187   21.9465 N   0  0  0  0  0  0  0  0  0  0  0  0
   28.2074   15.5832   16.7101 O   0  0  0  0  0  0  0  0  0  0  0  0
  2  1  1  1  0  0  0
  2  3  1  0  0  0  0
  2  5  1  0  0  0  0
  3  4  1  0  0  0  0
  3 10  1  0  0  0  0
  5  6  1  0  0  0  0
  6  7  1  0  0  0  0
  7  8  1  0  0  0  0
  8  9  1  0  0  0  0
M  END
>  <CHROM.1>
-4.18149247,60.58459630,-177.03921382,-179.62816841,-179.49079123,29.06502131
15.84230195,19.42529840,2.37465742,-0.38840467,-1.81240882

>  <Name>
ligand

>  <RI>
0

>  <Rbt.Current_Directory>
/home/itssahil/PROJECTS/Mol_Feturizer/New_Systems/rnas/3DIY

>  <Rbt.Executable>
rbdock ($Id: //depot/dev/client3/rdock/2013.1/src/exe/rbdock.cxx#4 $)

>  <Rbt.Library>
libRbt.so (2013.1, Build901 2013/11/27)

>  <Rbt.Parameter_File>
/export/apps/rDock/src/rDock_2013.1_src/data/scripts/dock_solv.prm

>  <Rbt.Receptor>
prm/blind_docking_100.prm

>  <SCORE>
-8.99924

>  <SCORE.INTER>
-8.15811

>  <SCORE.INTER.CONST>
1

>  <SCORE.INTER.POLAR>
0

>  <SCORE.INTER.ROT>
5

>  <SCORE.INTER.SOLV>
13.9532

>  <SCORE.INTER.VDW>
-17.0231

>  <SCORE.INTER.norm>
-0.815811

>  <SCORE.INTRA>
-0.841135

>  <SCORE.INTRA.DIHEDRAL>
-0.964706

>  <SCORE.INTRA.DIHEDRAL.0>
2.56603

>  <SCORE.INTRA.POLAR>
0

>  <SCORE.INTRA.POLAR.0>
0

>  <SCORE.INTRA.REPUL>
0

>  <SCORE.INTRA.REPUL.0>
0

>  <SCORE.INTRA.SOLV>
-0.665468

>  <SCORE.INTRA.SOLV.lig_0>
-32.0799

>  <SCORE.INTRA.VDW>
-0.0260478

>  <SCORE.INTRA.VDW.0>
-0.618248

>  <SCORE.INTRA.norm>
-0.0841135

>  <SCORE.RESTR>
0

>  <SCORE.RESTR.CAVITY>
0

>  <SCORE.RESTR.norm>
0

>  <SCORE.SYSTEM>
0

>  <SCORE.SYSTEM.CONST>
0

>  <SCORE.SYSTEM.DIHEDRAL>
0

>  <SCORE.SYSTEM.SOLV>
0

>  <SCORE.SYSTEM.norm>
0

>  <SCORE.heavy>
10

>  <SCORE.norm>
-0.899924

>  <RMSD>
5.524

$$$$
ligand
 OpenBabel11021811473D
libRbt.so/2013.1/901 2013/11/27
 10  9  0  0  0  0  0  0  0  0999 V2000
   27.0990   14.2573   18.4264 N   0  0  0  0  0  0  0  0  0  0  0  0
   27.7631   14.5207   19.7389 C   0  0  2  0  0  0  0  0  0  0  0  0
   26.7583   14.8604   20.8458 C   0  0  0  0  0  0  0  0  0  0  0  0
   27.1143   15.0747   22.0142 O   0  0  0  0  0  0  0  0  0  0  0  0
   28.8278   15.6124   19.6021 C   0  0  0  0  0  0  0  0  0  0  0  0
   29.7341   15.7150   20.8078 C   0  0  0  0  0  0  0  0  0  0  0  0
   30.7929   16.7751   20.6247 C   0  0  0  0  0  0  0  0  0  0  0  0
   31.7846   16.7694   21.7830 C   0  0  0  0  0  0  0  0  0  0  0  0
   32.8185   17.8344   21.6827 N   0  0  0  0  0  0  0  0  0  0  0  0
   25.5531   14.9685   20.5993 O   0  0  0  0  0  0  0  0  0  0  0  0
  2  1  1  6  0  0  0
  2  3  1  0  0  0  0
  2  5  1  0  0  0  0
  3  4  1  0  0  0  0
  3 10  1  0  0  0  0
  5  6  1  0  0  0  0
  6  7  1  0  0  0  0
  7  8  1  0  0  0  0
  8  9  1  0  0  0  0
M  END
>  <CHROM.1>
177.99754907,-167.50795093,178.51739684,-174.13864790,-177.55514955,28.79171057
15.64053287,20.63497576,-2.82827061,0.36095994,1.29752322

>  <Name>
ligand

>  <RI>
0

>  <Rbt.Current_Directory>
/home/itssahil/PROJECTS/Mol_Feturizer/New_Systems/rnas/3DIY

>  <Rbt.Executable>
rbdock ($Id: //depot/dev/client3/rdock/2013.1/src/exe/rbdock.cxx#4 $)

>  <Rbt.Library>
libRbt.so (2013.1, Build901 2013/11/27)

>  <Rbt.Parameter_File>
/export/apps/rDock/src/rDock_2013.1_src/data/scripts/dock_solv.prm

>  <Rbt.Receptor>
prm/pocket_docking_4.prm

>  <SCORE>
-9.21788

>  <SCORE.INTER>
-8.36352

>  <SCORE.INTER.CONST>
1

>  <SCORE.INTER.POLAR>
0

>  <SCORE.INTER.ROT>
5

>  <SCORE.INTER.SOLV>
15.2441

>  <SCORE.INTER.VDW>
-17.5904

>  <SCORE.INTER.norm>
-0.836352

>  <SCORE.INTRA>
-0.85436

>  <SCORE.INTRA.DIHEDRAL>
-0.313116

>  <SCORE.INTRA.DIHEDRAL.0>
2.56603

>  <SCORE.INTRA.POLAR>
0

>  <SCORE.INTRA.POLAR.0>
0

>  <SCORE.INTRA.REPUL>
0

>  <SCORE.INTRA.REPUL.0>
0

>  <SCORE.INTRA.SOLV>
-1.57703

>  <SCORE.INTRA.SOLV.lig_0>
-32.0799

>  <SCORE.INTRA.VDW>
0.0907151

>  <SCORE.INTRA.VDW.0>
-0.618248

>  <SCORE.INTRA.norm>
-0.085436

>  <SCORE.RESTR>
0

>  <SCORE.RESTR.CAVITY>
0

>  <SCORE.RESTR.norm>
0

>  <SCORE.SYSTEM>
0

>  <SCORE.SYSTEM.CONST>
0

>  <SCORE.SYSTEM.DIHEDRAL>
0

>  <SCORE.SYSTEM.SOLV>
0

>  <SCORE.SYSTEM.norm>
0

>  <SCORE.heavy>
10

>  <SCORE.norm>
-0.921788

>  <RMSD>
5.524

$$$$
ligand
 OpenBabel11021811473D
libRbt.so/2013.1/901 2013/11/27
 10  9  0  0  0  0  0  0  0  0999 V2000
   28.8777   16.3060   19.3135 N   0  0  0  0  0  0  0  0  0  0  0  0
   27.7017   15.4438   18.9870 C   0  0  2  0  0  0  0  0  0  0  0  0
   26.9507   14.9789   20.2399 C   0  0  0  0  0  0  0  0  0  0  0  0
   27.5400   14.4995   21.2201 O   0  0  0  0  0  0  0  0  0  0  0  0
   28.1216   14.2547   18.1186 C   0  0  0  0  0  0  0  0  0  0  0  0
   26.9608   13.3772   17.7088 C   0  0  0  0  0  0  0  0  0  0  0  0
   27.4281   12.0807   17.0931 C   0  0  0  0  0  0  0  0  0  0  0  0
   26.2932   11.0649   17.0193 C   0  0  0  0  0  0  0  0  0  0  0  0
   26.7396    9.7071   16.6068 N   0  0  0  0  0  0  0  0  0  0  0  0
   25.7252   15.1016   20.3289 O   0  0  0  0  0  0  0  0  0  0  0  0
  2  1  1  1  0  0  0
  2  3  1  0  0  0  0
  2  5  1  0  0  0  0
  3  4  1  0  0  0  0
  3 10  1  0  0  0  0
  5  6  1  0  0  0  0
  6  7  1  0  0  0  0
  7  8  1  0  0  0  0
  8  9  1  0  0  0  0
M  END
>  <CHROM.1>
-47.79966621,-177.61829632,-168.74632174,165.20797785,-171.57314910,27.21759239
13.68180747,18.69799888,-1.39458219,-0.75476694,-2.40453304

>  <Name>
ligand

>  <RI>
0

>  <Rbt.Current_Directory>
/home/itssahil/PROJECTS/Mol_Feturizer/New_Systems/rnas/3DIY

>  <Rbt.Executable>
rbdock ($Id: //depot/dev/client3/rdock/2013.1/src/exe/rbdock.cxx#4 $)

>  <Rbt.Library>
libRbt.so (2013.1, Build901 2013/11/27)

>  <Rbt.Parameter_File>
/export/apps/rDock/src/rDock_2013.1_src/data/scripts/dock_solv.prm

>  <Rbt.Receptor>
prm/blind_docking_100.prm

>  <SCORE>
-11.4325

>  <SCORE.INTER>
-10.7863

>  <SCORE.INTER.CONST>
1

>  <SCORE.INTER.POLAR>
0

>  <SCORE.INTER.ROT>
5

>  <SCORE.INTER.SOLV>
15.05

>  <SCORE.INTER.VDW>
-19.1408

>  <SCORE.INTER.norm>
-1.07863

>  <SCORE.INTRA>
-0.646284

>  <SCORE.INTRA.DIHEDRAL>
0.680919

>  <SCORE.INTRA.DIHEDRAL.0>
2.56603

>  <SCORE.INTRA.POLAR>
0

>  <SCORE.INTRA.POLAR.0>
0

>  <SCORE.INTRA.REPUL>
0

>  <SCORE.INTRA.REPUL.0>
0

>  <SCORE.INTRA.SOLV>
-1.59579

>  <SCORE.INTRA.SOLV.lig_0>
-32.0799

>  <SCORE.INTRA.VDW>
-0.18885

>  <SCORE.INTRA.VDW.0>
-0.618248

>  <SCORE.INTRA.norm>
-0.0646284

>  <SCORE.RESTR>
0

>  <SCORE.RESTR.CAVITY>
0

>  <SCORE.RESTR.norm>
0

>  <SCORE.SYSTEM>
0

>  <SCORE.SYSTEM.CONST>
0

>  <SCORE.SYSTEM.DIHEDRAL>
0

>  <SCORE.SYSTEM.SOLV>
0

>  <SCORE.SYSTEM.norm>
0

>  <SCORE.heavy>
10

>  <SCORE.norm>
-1.14325

>  <RMSD>
5.525

$$$$
ligand
 OpenBabel11021811473D
libRbt.so/2013.1/901 2013/11/27
 10  9  0  0  0  0  0  0  0  0999 V2000
   27.0061   14.5031   20.1114 N   0  0  0  0  0  0  0  0  0  0  0  0
   27.3046   15.5094   19.0478 C   0  0  2  0  0  0  0  0  0  0  0  0
   27.8953   14.8699   17.7860 C   0  0  0  0  0  0  0  0  0  0  0  0
   28.1517   15.5338   16.7704 O   0  0  0  0  0  0  0  0  0  0  0  0
   28.2135   16.6181   19.5855 C   0  0  0  0  0  0  0  0  0  0  0  0
   29.5136   16.0983   20.1556 C   0  0  0  0  0  0  0  0  0  0  0  0
   30.3464   17.2063   20.7533 C   0  0  0  0  0  0  0  0  0  0  0  0
   31.6502   16.6657   21.3305 C   0  0  0  0  0  0  0  0  0  0  0  0
   32.5006   17.7142   21.9558 N   0  0  0  0  0  0  0  0  0  0  0  0
   28.1718   13.6669   17.7526 O   0  0  0  0  0  0  0  0  0  0  0  0
  2  1  1  1  0  0  0
  2  3  1  0  0  0  0
  2  5  1  0  0  0  0
  3  4  1  0  0  0  0
  3 10  1  0  0  0  0
  5  6  1  0  0  0  0
  6  7  1  0  0  0  0
  7  8  1  0  0  0  0
  8  9  1  0  0  0  0
M  END
>  <CHROM.1>
176.63201359,56.94117097,-176.45710215,179.69193155,-178.96253752,29.07914586
15.82005775,19.48942504,2.40438723,-0.42197282,-1.77429164

>  <Name>
ligand

>  <RI>
0

>  <Rbt.Current_Directory>
/home/itssahil/PROJECTS/Mol_Feturizer/New_Systems/rnas/3DIY

>  <Rbt.Executable>
rbdock ($Id: //depot/dev/client3/rdock/2013.1/src/exe/rbdock.cxx#4 $)

>  <Rbt.Library>
libRbt.so (2013.1, Build901 2013/11/27)

>  <Rbt.Parameter_File>
/export/apps/rDock/src/rDock_2013.1_src/data/scripts/dock_solv.prm

>  <Rbt.Receptor>
prm/pocket_docking_8.prm

>  <SCORE>
-9.01463

>  <SCORE.INTER>
-8.22396

>  <SCORE.INTER.CONST>
1

>  <SCORE.INTER.POLAR>
0

>  <SCORE.INTER.ROT>
5

>  <SCORE.INTER.SOLV>
13.9145

>  <SCORE.INTER.VDW>
-17.0541

>  <SCORE.INTER.norm>
-0.822396

>  <SCORE.INTRA>
-0.790667

>  <SCORE.INTRA.DIHEDRAL>
-0.943582

>  <SCORE.INTRA.DIHEDRAL.0>
2.56603

>  <SCORE.INTRA.POLAR>
0

>  <SCORE.INTRA.POLAR.0>
0

>  <SCORE.INTRA.REPUL>
0

>  <SCORE.INTRA.REPUL.0>
0

>  <SCORE.INTRA.SOLV>
-0.612426

>  <SCORE.INTRA.SOLV.lig_0>
-32.0799

>  <SCORE.INTRA.VDW>
-0.0126629

>  <SCORE.INTRA.VDW.0>
-0.618248

>  <SCORE.INTRA.norm>
-0.0790667

>  <SCORE.RESTR>
0

>  <SCORE.RESTR.CAVITY>
0

>  <SCORE.RESTR.norm>
0

>  <SCORE.SYSTEM>
0

>  <SCORE.SYSTEM.CONST>
0

>  <SCORE.SYSTEM.DIHEDRAL>
0

>  <SCORE.SYSTEM.SOLV>
0

>  <SCORE.SYSTEM.norm>
0

>  <SCORE.heavy>
10

>  <SCORE.norm>
-0.901463

>  <RMSD>
5.525

$$$$
ligand
 OpenBabel11021811473D
libRbt.so/2013.1/901 2013/11/27
 10  9  0  0  0  0  0  0  0  0999 V2000
   25.7349   15.0821   20.3333 N   0  0  0  0  0  0  0  0  0  0  0  0
   27.0846   15.5510   19.8957 C   0  0  2  0  0  0  0  0  0  0  0  0
   27.4806   14.9957   18.5228 C   0  0  0  0  0  0  0  0  0  0  0  0
   27.1493   13.8595   18.1523 O   0  0  0  0  0  0  0  0  0  0  0  0
   28.1440   15.2260   20.9522 C   0  0  0  0  0  0  0  0  0  0  0  0
   29.4688   15.9079   20.6968 C   0  0  0  0  0  0  0  0  0  0  0  0
   30.5221   15.4758   21.6880 C   0  0  0  0  0  0  0  0  0  0  0  0
   31.8251   16.2388   21.4752 C   0  0  0  0  0  0  0  0  0  0  0  0
   31.7473   17.6682   21.8802 N   0  0  0  0  0  0  0  0  0  0  0  0
   28.1180   15.6826   17.7187 O   0  0  0  0  0  0  0  0  0  0  0  0
  2  1  1  1  0  0  0
  2  3  1  0  0  0  0
  2  5  1  0  0  0  0
  3  4  1  0  0  0  0
  3 10  1  0  0  0  0
  5  6  1  0  0  0  0
  6  7  1  0  0  0  0
  7  8  1  0  0  0  0
  8  9  1  0  0  0  0
M  END
>  <CHROM.1>
-34.73202757,-168.70375488,-175.18417829,-176.27601955,71.12952695,28.72642281
15.55453680,20.09452337,2.55575346,-0.29686857,-1.71900853

>  <Name>
ligand

>  <RI>
0

>  <Rbt.Current_Directory>
/home/itssahil/PROJECTS/Mol_Feturizer/New_Systems/rnas/3DIY

>  <Rbt.Executable>
rbdock ($Id: //depot/dev/client3/rdock/2013.1/src/exe/rbdock.cxx#4 $)

>  <Rbt.Library>
libRbt.so (2013.1, Build901 2013/11/27)

>  <Rbt.Parameter_File>
/export/apps/rDock/src/rDock_2013.1_src/data/scripts/dock_solv.prm

>  <Rbt.Receptor>
prm/pocket_docking_8.prm

>  <SCORE>
-8.7671

>  <SCORE.INTER>
-8.16916

>  <SCORE.INTER.CONST>
1

>  <SCORE.INTER.POLAR>
0

>  <SCORE.INTER.ROT>
5

>  <SCORE.INTER.SOLV>
16.9515

>  <SCORE.INTER.VDW>
-18.0299

>  <SCORE.INTER.norm>
-0.816916

>  <SCORE.INTRA>
-0.597942

>  <SCORE.INTRA.DIHEDRAL>
0.106048

>  <SCORE.INTRA.DIHEDRAL.0>
2.56603

>  <SCORE.INTRA.POLAR>
0

>  <SCORE.INTRA.POLAR.0>
0

>  <SCORE.INTRA.REPUL>
0

>  <SCORE.INTRA.REPUL.0>
0

>  <SCORE.INTRA.SOLV>
-0.773802

>  <SCORE.INTRA.SOLV.lig_0>
-32.0799

>  <SCORE.INTRA.VDW>
-0.264065

>  <SCORE.INTRA.VDW.0>
-0.618248

>  <SCORE.INTRA.norm>
-0.0597942

>  <SCORE.RESTR>
0

>  <SCORE.RESTR.CAVITY>
0

>  <SCORE.RESTR.norm>
0

>  <SCORE.SYSTEM>
0

>  <SCORE.SYSTEM.CONST>
0

>  <SCORE.SYSTEM.DIHEDRAL>
0

>  <SCORE.SYSTEM.SOLV>
0

>  <SCORE.SYSTEM.norm>
0

>  <SCORE.heavy>
10

>  <SCORE.norm>
-0.87671

>  <RMSD>
5.525

$$$$
ligand
 OpenBabel11021811473D
libRbt.so/2013.1/901 2013/11/27
 10  9  0  0  0  0  0  0  0  0999 V2000
   27.2062   14.2108   18.3541 N   0  0  0  0  0  0  0  0  0  0  0  0
   27.7893   14.5312   19.6922 C   0  0  2  0  0  0  0  0  0  0  0  0
   26.7195   14.9176   20.7198 C   0  0  0  0  0  0  0  0  0  0  0  0
   26.9828   15.0540   21.9240 O   0  0  0  0  0  0  0  0  0  0  0  0
   28.8625   15.6168   19.5737 C   0  0  0  0  0  0  0  0  0  0  0  0
   29.6903   15.7754   20.8286 C   0  0  0  0  0  0  0  0  0  0  0  0
   30.7521   16.8364   20.6695 C   0  0  0  0  0  0  0  0  0  0  0  0
   31.6207   16.9387   21.9186 C   0  0  0  0  0  0  0  0  0  0  0  0
   32.6606   17.9990   21.8316 N   0  0  0  0  0  0  0  0  0  0  0  0
   25.5562   15.1435   20.3725 O   0  0  0  0  0  0  0  0  0  0  0  0
  2  1  1  6  0  0  0
  2  3  1  0  0  0  0
  2  5  1  0  0  0  0
  3  4  1  0  0  0  0
  3 10  1  0  0  0  0
  5  6  1  0  0  0  0
  6  7  1  0  0  0  0
  7  8  1  0  0  0  0
  8  9  1  0  0  0  0
M  END
>  <CHROM.1>
170.75462083,-167.71560980,179.04923375,-177.29776301,-178.29490332,28.74999362
15.70491643,20.60877548,-2.75972404,0.35284009,1.24089195

>  <Name>
ligand

>  <RI>
0

>  <Rbt.Current_Directory>
/home/itssahil/PROJECTS/Mol_Feturizer/New_Systems/rnas/3DIY

>  <Rbt.Executable>
rbdock ($Id: //depot/dev/client3/rdock/2013.1/src/exe/rbdock.cxx#4 $)

>  <Rbt.Library>
libRbt.so (2013.1, Build901 2013/11/27)

>  <Rbt.Parameter_File>
/export/apps/rDock/src/rDock_2013.1_src/data/scripts/dock_solv.prm

>  <Rbt.Receptor>
prm/blind_docking_100.prm

>  <SCORE>
-9.2918

>  <SCORE.INTER>
-8.22388

>  <SCORE.INTER.CONST>
1

>  <SCORE.INTER.POLAR>
0

>  <SCORE.INTER.ROT>
5

>  <SCORE.INTER.SOLV>
15.0283

>  <SCORE.INTER.VDW>
-17.4253

>  <SCORE.INTER.norm>
-0.822388

>  <SCORE.INTRA>
-1.06793

>  <SCORE.INTRA.DIHEDRAL>
-0.486511

>  <SCORE.INTRA.DIHEDRAL.0>
2.56603

>  <SCORE.INTRA.POLAR>
0

>  <SCORE.INTRA.POLAR.0>
0

>  <SCORE.INTRA.REPUL>
0

>  <SCORE.INTRA.REPUL.0>
0

>  <SCORE.INTRA.SOLV>
-1.57961

>  <SCORE.INTRA.SOLV.lig_0>
-32.0799

>  <SCORE.INTRA.VDW>
-0.0348639

>  <SCORE.INTRA.VDW.0>
-0.618248

>  <SCORE.INTRA.norm>
-0.106793

>  <SCORE.RESTR>
0

>  <SCORE.RESTR.CAVITY>
0

>  <SCORE.RESTR.norm>
0

>  <SCORE.SYSTEM>
0

>  <SCORE.SYSTEM.CONST>
0

>  <SCORE.SYSTEM.DIHEDRAL>
0

>  <SCORE.SYSTEM.SOLV>
0

>  <SCORE.SYSTEM.norm>
0

>  <SCORE.heavy>
10

>  <SCORE.norm>
-0.92918

>  <RMSD>
5.529

$$$$
ligand
 OpenBabel11021811473D
libRbt.so/2013.1/901 2013/11/27
 10  9  0  0  0  0  0  0  0  0999 V2000
   27.1138   14.4072   18.3516 N   0  0  0  0  0  0  0  0  0  0  0  0
   27.7616   14.6182   19.6816 C   0  0  2  0  0  0  0  0  0  0  0  0
   26.7409   14.8790   20.7952 C   0  0  0  0  0  0  0  0  0  0  0  0
   27.0813   15.0226   21.9791 O   0  0  0  0  0  0  0  0  0  0  0  0
   28.8027   15.7385   19.6097 C   0  0  0  0  0  0  0  0  0  0  0  0
   29.7188   15.7784   20.8116 C   0  0  0  0  0  0  0  0  0  0  0  0
   30.7361   16.8884   20.7045 C   0  0  0  0  0  0  0  0  0  0  0  0
   31.7024   16.8660   21.8839 C   0  0  0  0  0  0  0  0  0  0  0  0
   32.7005   17.9688   21.8528 N   0  0  0  0  0  0  0  0  0  0  0  0
   25.5377   14.9921   20.5414 O   0  0  0  0  0  0  0  0  0  0  0  0
  2  1  1  6  0  0  0
  2  3  1  0  0  0  0
  2  5  1  0  0  0  0
  3  4  1  0  0  0  0
  3 10  1  0  0  0  0
  5  6  1  0  0  0  0
  6  7  1  0  0  0  0
  7  8  1  0  0  0  0
  8  9  1  0  0  0  0
M  END
>  <CHROM.1>
176.95033698,-166.10198868,179.68711627,-176.73945637,-178.06257122,28.75652065
15.71577636,20.64337802,-2.81047688,0.38251968,1.34123433

>  <Name>
ligand

>  <RI>
0

>  <Rbt.Current_Directory>
/home/itssahil/PROJECTS/Mol_Feturizer/New_Systems/rnas/3DIY

>  <Rbt.Executable>
rbdock ($Id: //depot/dev/client3/rdock/2013.1/src/exe/rbdock.cxx#4 $)

>  <Rbt.Library>
libRbt.so (2013.1, Build901 2013/11/27)

>  <Rbt.Parameter_File>
/export/apps/rDock/src/rDock_2013.1_src/data/scripts/dock_solv.prm

>  <Rbt.Receptor>
prm/pocket_docking_8.prm

>  <SCORE>
-9.25403

>  <SCORE.INTER>
-8.33862

>  <SCORE.INTER.CONST>
1

>  <SCORE.INTER.POLAR>
0

>  <SCORE.INTER.ROT>
5

>  <SCORE.INTER.SOLV>
14.9665

>  <SCORE.INTER.VDW>
-17.4812

>  <SCORE.INTER.norm>
-0.833862

>  <SCORE.INTRA>
-0.915407

>  <SCORE.INTRA.DIHEDRAL>
-0.302706

>  <SCORE.INTRA.DIHEDRAL.0>
2.56603

>  <SCORE.INTRA.POLAR>
0

>  <SCORE.INTRA.POLAR.0>
0

>  <SCORE.INTRA.REPUL>
0

>  <SCORE.INTRA.REPUL.0>
0

>  <SCORE.INTRA.SOLV>
-1.57497

>  <SCORE.INTRA.SOLV.lig_0>
-32.0799

>  <SCORE.INTRA.VDW>
0.0234322

>  <SCORE.INTRA.VDW.0>
-0.618248

>  <SCORE.INTRA.norm>
-0.0915407

>  <SCORE.RESTR>
0

>  <SCORE.RESTR.CAVITY>
0

>  <SCORE.RESTR.norm>
0

>  <SCORE.SYSTEM>
0

>  <SCORE.SYSTEM.CONST>
0

>  <SCORE.SYSTEM.DIHEDRAL>
0

>  <SCORE.SYSTEM.SOLV>
0

>  <SCORE.SYSTEM.norm>
0

>  <SCORE.heavy>
10

>  <SCORE.norm>
-0.925403

>  <RMSD>
5.529

$$$$
ligand
 OpenBabel11021811473D
libRbt.so/2013.1/901 2013/11/27
 10  9  0  0  0  0  0  0  0  0999 V2000
   27.0832   14.3767   18.3474 N   0  0  0  0  0  0  0  0  0  0  0  0
   27.7443   14.5556   19.6755 C   0  0  2  0  0  0  0  0  0  0  0  0
   26.7415   14.8728   20.7908 C   0  0  0  0  0  0  0  0  0  0  0  0
   25.5238   14.9638   20.5742 O   0  0  0  0  0  0  0  0  0  0  0  0
   28.8435   15.6187   19.5989 C   0  0  0  0  0  0  0  0  0  0  0  0
   29.7804   15.5933   20.7850 C   0  0  0  0  0  0  0  0  0  0  0  0
   30.8171   16.6874   20.7042 C   0  0  0  0  0  0  0  0  0  0  0  0
   31.7809   16.6218   21.8840 C   0  0  0  0  0  0  0  0  0  0  0  0
   32.7689   17.7339   21.9041 N   0  0  0  0  0  0  0  0  0  0  0  0
   27.1139   15.0133   21.9597 O   0  0  0  0  0  0  0  0  0  0  0  0
  2  1  1  6  0  0  0
  2  3  1  0  0  0  0
  2  5  1  0  0  0  0
  3  4  1  0  0  0  0
  3 10  1  0  0  0  0
  5  6  1  0  0  0  0
  6  7  1  0  0  0  0
  7  8  1  0  0  0  0
  8  9  1  0  0  0  0
M  END
>  <CHROM.1>
-0.06455505,-164.90247551,-177.74894199,-178.21497021,-176.10335465,28.78689080
15.60432618,20.64489043,-2.81305294,0.34202088,1.33678435

>  <Name>
ligand

>  <RI>
0

>  <Rbt.Current_Directory>
/home/itssahil/PROJECTS/Mol_Feturizer/New_Systems/rnas/3DIY

>  <Rbt.Executable>
rbdock ($Id: //depot/dev/client3/rdock/2013.1/src/exe/rbdock.cxx#4 $)

>  <Rbt.Library>
libRbt.so (2013.1, Build901 2013/11/27)

>  <Rbt.Parameter_File>
/export/apps/rDock/src/rDock_2013.1_src/data/scripts/dock_solv.prm

>  <Rbt.Receptor>
prm/pocket_docking_8.prm

>  <SCORE>
-9.20849

>  <SCORE.INTER>
-8.3947

>  <SCORE.INTER.CONST>
1

>  <SCORE.INTER.POLAR>
0

>  <SCORE.INTER.ROT>
5

>  <SCORE.INTER.SOLV>
15.1472

>  <SCORE.INTER.VDW>
-17.5789

>  <SCORE.INTER.norm>
-0.83947

>  <SCORE.INTRA>
-0.813783

>  <SCORE.INTRA.DIHEDRAL>
-0.123461

>  <SCORE.INTRA.DIHEDRAL.0>
2.56603

>  <SCORE.INTRA.POLAR>
0

>  <SCORE.INTRA.POLAR.0>
0

>  <SCORE.INTRA.REPUL>
0

>  <SCORE.INTRA.REPUL.0>
0

>  <SCORE.INTRA.SOLV>
-1.57695

>  <SCORE.INTRA.SOLV.lig_0>
-32.0799

>  <SCORE.INTRA.VDW>
0.0364209

>  <SCORE.INTRA.VDW.0>
-0.618248

>  <SCORE.INTRA.norm>
-0.0813783

>  <SCORE.RESTR>
0

>  <SCORE.RESTR.CAVITY>
0

>  <SCORE.RESTR.norm>
0

>  <SCORE.SYSTEM>
0

>  <SCORE.SYSTEM.CONST>
0

>  <SCORE.SYSTEM.DIHEDRAL>
0

>  <SCORE.SYSTEM.SOLV>
0

>  <SCORE.SYSTEM.norm>
0

>  <SCORE.heavy>
10

>  <SCORE.norm>
-0.920849

>  <RMSD>
5.530

$$$$
ligand
 OpenBabel11021811473D
libRbt.so/2013.1/901 2013/11/27
 10  9  0  0  0  0  0  0  0  0999 V2000
   27.1045   14.4099   18.2967 N   0  0  0  0  0  0  0  0  0  0  0  0
   27.7474   14.6248   19.6284 C   0  0  2  0  0  0  0  0  0  0  0  0
   26.7249   14.9239   20.7308 C   0  0  0  0  0  0  0  0  0  0  0  0
   25.5106   15.0130   20.4951 O   0  0  0  0  0  0  0  0  0  0  0  0
   28.8139   15.7205   19.5488 C   0  0  0  0  0  0  0  0  0  0  0  0
   29.7300   15.7485   20.7510 C   0  0  0  0  0  0  0  0  0  0  0  0
   30.7309   16.8752   20.6671 C   0  0  0  0  0  0  0  0  0  0  0  0
   31.6948   16.8453   21.8483 C   0  0  0  0  0  0  0  0  0  0  0  0
   32.6653   17.9729   21.8494 N   0  0  0  0  0  0  0  0  0  0  0  0
   27.0773   15.0511   21.9074 O   0  0  0  0  0  0  0  0  0  0  0  0
  2  1  1  6  0  0  0
  2  3  1  0  0  0  0
  2  5  1  0  0  0  0
  3  4  1  0  0  0  0
  3 10  1  0  0  0  0
  5  6  1  0  0  0  0
  6  7  1  0  0  0  0
  7  8  1  0  0  0  0
  8  9  1  0  0  0  0
M  END
>  <CHROM.1>
-2.19706582,-165.57663553,-177.60583200,-176.95579334,-177.33285359,28.74686692
15.71836571,20.59451715,-2.79888520,0.37117683,1.32519788

>  <Name>
ligand

>  <RI>
0

>  <Rbt.Current_Directory>
/home/itssahil/PROJECTS/Mol_Feturizer/New_Systems/rnas/3DIY

>  <Rbt.Executable>
rbdock ($Id: //depot/dev/client3/rdock/2013.1/src/exe/rbdock.cxx#4 $)

>  <Rbt.Library>
libRbt.so (2013.1, Build901 2013/11/27)

>  <Rbt.Parameter_File>
/export/apps/rDock/src/rDock_2013.1_src/data/scripts/dock_solv.prm

>  <Rbt.Receptor>
prm/pocket_docking_2.prm

>  <SCORE>
-9.19985

>  <SCORE.INTER>
-8.33576

>  <SCORE.INTER.CONST>
1

>  <SCORE.INTER.POLAR>
0

>  <SCORE.INTER.ROT>
5

>  <SCORE.INTER.SOLV>
14.9665

>  <SCORE.INTER.VDW>
-17.4793

>  <SCORE.INTER.norm>
-0.833576

>  <SCORE.INTRA>
-0.864087

>  <SCORE.INTRA.DIHEDRAL>
-0.186048

>  <SCORE.INTRA.DIHEDRAL.0>
2.56603

>  <SCORE.INTRA.POLAR>
0

>  <SCORE.INTRA.POLAR.0>
0

>  <SCORE.INTRA.REPUL>
0

>  <SCORE.INTRA.REPUL.0>
0

>  <SCORE.INTRA.SOLV>
-1.57836

>  <SCORE.INTRA.SOLV.lig_0>
-32.0799

>  <SCORE.INTRA.VDW>
0.0181195

>  <SCORE.INTRA.VDW.0>
-0.618248

>  <SCORE.INTRA.norm>
-0.0864087

>  <SCORE.RESTR>
0

>  <SCORE.RESTR.CAVITY>
0

>  <SCORE.RESTR.norm>
0

>  <SCORE.SYSTEM>
0

>  <SCORE.SYSTEM.CONST>
0

>  <SCORE.SYSTEM.DIHEDRAL>
0

>  <SCORE.SYSTEM.SOLV>
0

>  <SCORE.SYSTEM.norm>
0

>  <SCORE.heavy>
10

>  <SCORE.norm>
-0.919985

>  <RMSD>
5.531

$$$$
ligand
 OpenBabel11021811473D
libRbt.so/2013.1/901 2013/11/27
 10  9  0  0  0  0  0  0  0  0999 V2000
   27.0752   14.4453   18.2533 N   0  0  0  0  0  0  0  0  0  0  0  0
   27.7332   14.6170   19.5839 C   0  0  2  0  0  0  0  0  0  0  0  0
   26.7260   14.9101   20.7017 C   0  0  0  0  0  0  0  0  0  0  0  0
   27.0770   15.0542   21.8824 O   0  0  0  0  0  0  0  0  0  0  0  0
   28.8200   15.6937   19.5200 C   0  0  0  0  0  0  0  0  0  0  0  0
   29.7702   15.6513   20.6951 C   0  0  0  0  0  0  0  0  0  0  0  0
   30.7769   16.7748   20.6428 C   0  0  0  0  0  0  0  0  0  0  0  0
   31.7458   16.7018   21.8181 C   0  0  0  0  0  0  0  0  0  0  0  0
   32.6896   17.8502   21.8797 N   0  0  0  0  0  0  0  0  0  0  0  0
   25.5242   15.0498   20.4544 O   0  0  0  0  0  0  0  0  0  0  0  0
  2  1  1  6  0  0  0
  2  3  1  0  0  0  0
  2  5  1  0  0  0  0
  3  4  1  0  0  0  0
  3 10  1  0  0  0  0
  5  6  1  0  0  0  0
  6  7  1  0  0  0  0
  7  8  1  0  0  0  0
  8  9  1  0  0  0  0
M  END
>  <CHROM.1>
178.36708321,-163.94309275,-176.61419253,-178.81676168,-175.18217341,28.76090971
15.67576071,20.56535509,-2.80150083,0.34788884,1.33671686

>  <Name>
ligand

>  <RI>
0

>  <Rbt.Current_Directory>
/home/itssahil/PROJECTS/Mol_Feturizer/New_Systems/rnas/3DIY

>  <Rbt.Executable>
rbdock ($Id: //depot/dev/client3/rdock/2013.1/src/exe/rbdock.cxx#4 $)

>  <Rbt.Library>
libRbt.so (2013.1, Build901 2013/11/27)

>  <Rbt.Parameter_File>
/export/apps/rDock/src/rDock_2013.1_src/data/scripts/dock_solv.prm

>  <Rbt.Receptor>
prm/pocket_docking_6.prm

>  <SCORE>
-9.16473

>  <SCORE.INTER>
-8.36212

>  <SCORE.INTER.CONST>
1

>  <SCORE.INTER.POLAR>
0

>  <SCORE.INTER.ROT>
5

>  <SCORE.INTER.SOLV>
14.9921

>  <SCORE.INTER.VDW>
-17.5054

>  <SCORE.INTER.norm>
-0.836212

>  <SCORE.INTRA>
-0.802612

>  <SCORE.INTRA.DIHEDRAL>
0.0069391

>  <SCORE.INTRA.DIHEDRAL.0>
2.56603

>  <SCORE.INTRA.POLAR>
0

>  <SCORE.INTRA.POLAR.0>
0

>  <SCORE.INTRA.REPUL>
0

>  <SCORE.INTRA.REPUL.0>
0

>  <SCORE.INTRA.SOLV>
-1.56933

>  <SCORE.INTRA.SOLV.lig_0>
-32.0799

>  <SCORE.INTRA.VDW>
-0.0214157

>  <SCORE.INTRA.VDW.0>
-0.618248

>  <SCORE.INTRA.norm>
-0.0802612

>  <SCORE.RESTR>
0

>  <SCORE.RESTR.CAVITY>
0

>  <SCORE.RESTR.norm>
0

>  <SCORE.SYSTEM>
0

>  <SCORE.SYSTEM.CONST>
0

>  <SCORE.SYSTEM.DIHEDRAL>
0

>  <SCORE.SYSTEM.SOLV>
0

>  <SCORE.SYSTEM.norm>
0

>  <SCORE.heavy>
10

>  <SCORE.norm>
-0.916473

>  <RMSD>
5.531

$$$$
ligand
 OpenBabel11021811473D
libRbt.so/2013.1/901 2013/11/27
 10  9  0  0  0  0  0  0  0  0999 V2000
   27.0647   14.3646   18.3552 N   0  0  0  0  0  0  0  0  0  0  0  0
   27.7262   14.5475   19.6826 C   0  0  2  0  0  0  0  0  0  0  0  0
   26.7229   14.8614   20.7984 C   0  0  0  0  0  0  0  0  0  0  0  0
   27.0781   15.0261   21.9752 O   0  0  0  0  0  0  0  0  0  0  0  0
   28.8207   15.6153   19.6041 C   0  0  0  0  0  0  0  0  0  0  0  0
   29.7400   15.6154   20.8042 C   0  0  0  0  0  0  0  0  0  0  0  0
   30.7254   16.7577   20.7556 C   0  0  0  0  0  0  0  0  0  0  0  0
   31.6892   16.7048   21.9361 C   0  0  0  0  0  0  0  0  0  0  0  0
   32.6259   17.8594   21.9880 N   0  0  0  0  0  0  0  0  0  0  0  0
   25.5205   14.9979   20.5526 O   0  0  0  0  0  0  0  0  0  0  0  0
  2  1  1  6  0  0  0
  2  3  1  0  0  0  0
  2  5  1  0  0  0  0
  3  4  1  0  0  0  0
  3 10  1  0  0  0  0
  5  6  1  0  0  0  0
  6  7  1  0  0  0  0
  7  8  1  0  0  0  0
  8  9  1  0  0  0  0
M  END
>  <CHROM.1>
178.86917375,-166.19451673,-174.75611969,-177.20819882,-176.15631707,28.73866515
15.63628641,20.66731734,-2.78598924,0.35318874,1.31674258

>  <Name>
ligand

>  <RI>
0

>  <Rbt.Current_Directory>
/home/itssahil/PROJECTS/Mol_Feturizer/New_Systems/rnas/3DIY

>  <Rbt.Executable>
rbdock ($Id: //depot/dev/client3/rdock/2013.1/src/exe/rbdock.cxx#4 $)

>  <Rbt.Library>
libRbt.so (2013.1, Build901 2013/11/27)

>  <Rbt.Parameter_File>
/export/apps/rDock/src/rDock_2013.1_src/data/scripts/dock_solv.prm

>  <Rbt.Receptor>
prm/pocket_docking_8.prm

>  <SCORE>
-9.14924

>  <SCORE.INTER>
-8.3349

>  <SCORE.INTER.CONST>
1

>  <SCORE.INTER.POLAR>
0

>  <SCORE.INTER.ROT>
5

>  <SCORE.INTER.SOLV>
15.0287

>  <SCORE.INTER.VDW>
-17.4995

>  <SCORE.INTER.norm>
-0.83349

>  <SCORE.INTRA>
-0.81434

>  <SCORE.INTRA.DIHEDRAL>
-0.160476

>  <SCORE.INTRA.DIHEDRAL.0>
2.56603

>  <SCORE.INTRA.POLAR>
0

>  <SCORE.INTRA.POLAR.0>
0

>  <SCORE.INTRA.REPUL>
0

>  <SCORE.INTRA.REPUL.0>
0

>  <SCORE.INTRA.SOLV>
-1.57424

>  <SCORE.INTRA.SOLV.lig_0>
-32.0799

>  <SCORE.INTRA.VDW>
0.0530197

>  <SCORE.INTRA.VDW.0>
-0.618248

>  <SCORE.INTRA.norm>
-0.081434

>  <SCORE.RESTR>
0

>  <SCORE.RESTR.CAVITY>
0

>  <SCORE.RESTR.norm>
0

>  <SCORE.SYSTEM>
0

>  <SCORE.SYSTEM.CONST>
0

>  <SCORE.SYSTEM.DIHEDRAL>
0

>  <SCORE.SYSTEM.SOLV>
0

>  <SCORE.SYSTEM.norm>
0

>  <SCORE.heavy>
10

>  <SCORE.norm>
-0.914924

>  <RMSD>
5.531

$$$$
ligand
 OpenBabel11021811473D
libRbt.so/2013.1/901 2013/11/27
 10  9  0  0  0  0  0  0  0  0999 V2000
   27.1423   14.3132   18.3136 N   0  0  0  0  0  0  0  0  0  0  0  0
   27.7560   14.5607   19.6534 C   0  0  2  0  0  0  0  0  0  0  0  0
   26.7100   14.8899   20.7247 C   0  0  0  0  0  0  0  0  0  0  0  0
   27.0151   15.0424   21.9170 O   0  0  0  0  0  0  0  0  0  0  0  0
   28.8268   15.6519   19.5698 C   0  0  0  0  0  0  0  0  0  0  0  0
   29.7019   15.7233   20.8004 C   0  0  0  0  0  0  0  0  0  0  0  0
   30.7165   16.8365   20.7031 C   0  0  0  0  0  0  0  0  0  0  0  0
   31.5986   16.8885   21.9459 C   0  0  0  0  0  0  0  0  0  0  0  0
   32.5824   18.0044   21.9276 N   0  0  0  0  0  0  0  0  0  0  0  0
   25.5228   15.0514   20.4259 O   0  0  0  0  0  0  0  0  0  0  0  0
  2  1  1  6  0  0  0
  2  3  1  0  0  0  0
  2  5  1  0  0  0  0
  3  4  1  0  0  0  0
  3 10  1  0  0  0  0
  5  6  1  0  0  0  0
  6  7  1  0  0  0  0
  7  8  1  0  0  0  0
  8  9  1  0  0  0  0
M  END
>  <CHROM.1>
175.31667127,-166.49774852,-178.18418924,-179.53274353,-177.65420324,28.72374944
15.69756921,20.61923270,-2.76290265,0.36450045,1.28225303

>  <Name>
ligand

>  <RI>
0

>  <Rbt.Current_Directory>
/home/itssahil/PROJECTS/Mol_Feturizer/New_Systems/rnas/3DIY

>  <Rbt.Executable>
rbdock ($Id: //depot/dev/client3/rdock/2013.1/src/exe/rbdock.cxx#4 $)

>  <Rbt.Library>
libRbt.so (2013.1, Build901 2013/11/27)

>  <Rbt.Parameter_File>
/export/apps/rDock/src/rDock_2013.1_src/data/scripts/dock_solv.prm

>  <Rbt.Receptor>
prm/blind_docking_100.prm

>  <SCORE>
-9.23646

>  <SCORE.INTER>
-8.26721

>  <SCORE.INTER.CONST>
1

>  <SCORE.INTER.POLAR>
0

>  <SCORE.INTER.ROT>
5

>  <SCORE.INTER.SOLV>
14.9799

>  <SCORE.INTER.VDW>
-17.4381

>  <SCORE.INTER.norm>
-0.826721

>  <SCORE.INTRA>
-0.969249

>  <SCORE.INTRA.DIHEDRAL>
-0.370136

>  <SCORE.INTRA.DIHEDRAL.0>
2.56603

>  <SCORE.INTRA.POLAR>
0

>  <SCORE.INTRA.POLAR.0>
0

>  <SCORE.INTRA.REPUL>
0

>  <SCORE.INTRA.REPUL.0>
0

>  <SCORE.INTRA.SOLV>
-1.57602

>  <SCORE.INTRA.SOLV.lig_0>
-32.0799

>  <SCORE.INTRA.VDW>
0.0038265

>  <SCORE.INTRA.VDW.0>
-0.618248

>  <SCORE.INTRA.norm>
-0.0969249

>  <SCORE.RESTR>
0

>  <SCORE.RESTR.CAVITY>
0

>  <SCORE.RESTR.norm>
0

>  <SCORE.SYSTEM>
0

>  <SCORE.SYSTEM.CONST>
0

>  <SCORE.SYSTEM.DIHEDRAL>
0

>  <SCORE.SYSTEM.SOLV>
0

>  <SCORE.SYSTEM.norm>
0

>  <SCORE.heavy>
10

>  <SCORE.norm>
-0.923646

>  <RMSD>
5.534

$$$$
ligand
 OpenBabel11021811473D
libRbt.so/2013.1/901 2013/11/27
 10  9  0  0  0  0  0  0  0  0999 V2000
   26.9996   14.5193   20.0738 N   0  0  0  0  0  0  0  0  0  0  0  0
   27.3157   15.5166   19.0067 C   0  0  2  0  0  0  0  0  0  0  0  0
   27.9192   14.8656   17.7570 C   0  0  0  0  0  0  0  0  0  0  0  0
   28.1172   13.6436   17.6823 O   0  0  0  0  0  0  0  0  0  0  0  0
   28.2228   16.6252   19.5477 C   0  0  0  0  0  0  0  0  0  0  0  0
   29.5166   16.1045   20.1311 C   0  0  0  0  0  0  0  0  0  0  0  0
   30.3492   17.2135   20.7271 C   0  0  0  0  0  0  0  0  0  0  0  0
   31.6509   16.6734   21.3095 C   0  0  0  0  0  0  0  0  0  0  0  0
   32.4994   17.7223   21.9365 N   0  0  0  0  0  0  0  0  0  0  0  0
   28.1968   15.5392   16.7600 O   0  0  0  0  0  0  0  0  0  0  0  0
  2  1  1  1  0  0  0
  2  3  1  0  0  0  0
  2  5  1  0  0  0  0
  3  4  1  0  0  0  0
  3 10  1  0  0  0  0
  5  6  1  0  0  0  0
  6  7  1  0  0  0  0
  7  8  1  0  0  0  0
  8  9  1  0  0  0  0
M  END
>  <CHROM.1>
-0.51144209,57.24067423,-176.65527263,-179.92532272,-178.81052063,29.08192788
15.82355425,19.45750401,2.39890866,-0.41925804,-1.78328462

>  <Name>
ligand

>  <RI>
0

>  <Rbt.Current_Directory>
/home/itssahil/PROJECTS/Mol_Feturizer/New_Systems/rnas/3DIY

>  <Rbt.Executable>
rbdock ($Id: //depot/dev/client3/rdock/2013.1/src/exe/rbdock.cxx#4 $)

>  <Rbt.Library>
libRbt.so (2013.1, Build901 2013/11/27)

>  <Rbt.Parameter_File>
/export/apps/rDock/src/rDock_2013.1_src/data/scripts/dock_solv.prm

>  <Rbt.Receptor>
prm/pocket_docking_5.prm

>  <SCORE>
-9.01684

>  <SCORE.INTER>
-8.26708

>  <SCORE.INTER.CONST>
1

>  <SCORE.INTER.POLAR>
0

>  <SCORE.INTER.ROT>
5

>  <SCORE.INTER.SOLV>
13.8504

>  <SCORE.INTER.VDW>
-17.0615

>  <SCORE.INTER.norm>
-0.826708

>  <SCORE.INTRA>
-0.749755

>  <SCORE.INTRA.DIHEDRAL>
-0.926796

>  <SCORE.INTRA.DIHEDRAL.0>
2.56603

>  <SCORE.INTRA.POLAR>
0

>  <SCORE.INTRA.POLAR.0>
0

>  <SCORE.INTRA.REPUL>
0

>  <SCORE.INTRA.REPUL.0>
0

>  <SCORE.INTRA.SOLV>
-0.621399

>  <SCORE.INTRA.SOLV.lig_0>
-32.0799

>  <SCORE.INTRA.VDW>
0.0243419

>  <SCORE.INTRA.VDW.0>
-0.618248

>  <SCORE.INTRA.norm>
-0.0749755

>  <SCORE.RESTR>
0

>  <SCORE.RESTR.CAVITY>
0

>  <SCORE.RESTR.norm>
0

>  <SCORE.SYSTEM>
0

>  <SCORE.SYSTEM.CONST>
0

>  <SCORE.SYSTEM.DIHEDRAL>
0

>  <SCORE.SYSTEM.SOLV>
0

>  <SCORE.SYSTEM.norm>
0

>  <SCORE.heavy>
10

>  <SCORE.norm>
-0.901684

>  <RMSD>
5.534

$$$$
ligand
 OpenBabel11021811473D
libRbt.so/2013.1/901 2013/11/27
 10  9  0  0  0  0  0  0  0  0999 V2000
   27.0855   14.4031   18.3464 N   0  0  0  0  0  0  0  0  0  0  0  0
   27.7390   14.5922   19.6769 C   0  0  2  0  0  0  0  0  0  0  0  0
   26.7264   14.8816   20.7907 C   0  0  0  0  0  0  0  0  0  0  0  0
   25.5076   14.9471   20.5710 O   0  0  0  0  0  0  0  0  0  0  0  0
   28.8134   15.6808   19.6071 C   0  0  0  0  0  0  0  0  0  0  0  0
   29.7455   15.6749   20.7972 C   0  0  0  0  0  0  0  0  0  0  0  0
   30.7422   16.8068   20.7345 C   0  0  0  0  0  0  0  0  0  0  0  0
   31.7368   16.7300   21.8878 C   0  0  0  0  0  0  0  0  0  0  0  0
   32.6882   17.8730   21.9263 N   0  0  0  0  0  0  0  0  0  0  0  0
   27.0923   15.0244   21.9615 O   0  0  0  0  0  0  0  0  0  0  0  0
  2  1  1  6  0  0  0
  2  3  1  0  0  0  0
  2  5  1  0  0  0  0
  3  4  1  0  0  0  0
  3 10  1  0  0  0  0
  5  6  1  0  0  0  0
  6  7  1  0  0  0  0
  7  8  1  0  0  0  0
  8  9  1  0  0  0  0
M  END
>  <CHROM.1>
-0.16841233,-165.05216701,-176.81144144,-175.97648000,-176.19999548,28.75475560
15.66114252,20.65237762,-2.80592347,0.36375490,1.33863513

>  <Name>
ligand

>  <RI>
0

>  <Rbt.Current_Directory>
/home/itssahil/PROJECTS/Mol_Feturizer/New_Systems/rnas/3DIY

>  <Rbt.Executable>
rbdock ($Id: //depot/dev/client3/rdock/2013.1/src/exe/rbdock.cxx#4 $)

>  <Rbt.Library>
libRbt.so (2013.1, Build901 2013/11/27)

>  <Rbt.Parameter_File>
/export/apps/rDock/src/rDock_2013.1_src/data/scripts/dock_solv.prm

>  <Rbt.Receptor>
prm/pocket_docking_5.prm

>  <SCORE>
-9.13381

>  <SCORE.INTER>
-8.35084

>  <SCORE.INTER.CONST>
1

>  <SCORE.INTER.POLAR>
0

>  <SCORE.INTER.ROT>
5

>  <SCORE.INTER.SOLV>
14.9638

>  <SCORE.INTER.VDW>
-17.4885

>  <SCORE.INTER.norm>
-0.835084

>  <SCORE.INTRA>
-0.782972

>  <SCORE.INTRA.DIHEDRAL>
-0.0656929

>  <SCORE.INTRA.DIHEDRAL.0>
2.56603

>  <SCORE.INTRA.POLAR>
0

>  <SCORE.INTRA.POLAR.0>
0

>  <SCORE.INTRA.REPUL>
0

>  <SCORE.INTRA.REPUL.0>
0

>  <SCORE.INTRA.SOLV>
-1.57728

>  <SCORE.INTRA.SOLV.lig_0>
-32.0799

>  <SCORE.INTRA.VDW>
0.0385162

>  <SCORE.INTRA.VDW.0>
-0.618248

>  <SCORE.INTRA.norm>
-0.0782972

>  <SCORE.RESTR>
0

>  <SCORE.RESTR.CAVITY>
0

>  <SCORE.RESTR.norm>
0

>  <SCORE.SYSTEM>
0

>  <SCORE.SYSTEM.CONST>
0

>  <SCORE.SYSTEM.DIHEDRAL>
0

>  <SCORE.SYSTEM.SOLV>
0

>  <SCORE.SYSTEM.norm>
0

>  <SCORE.heavy>
10

>  <SCORE.norm>
-0.913381

>  <RMSD>
5.535

$$$$
ligand
 OpenBabel11021811473D
libRbt.so/2013.1/901 2013/11/27
 10  9  0  0  0  0  0  0  0  0999 V2000
   25.6686   15.1523   20.2414 N   0  0  0  0  0  0  0  0  0  0  0  0
   27.0901   15.3591   19.8295 C   0  0  2  0  0  0  0  0  0  0  0  0
   27.3831   14.7962   18.4340 C   0  0  0  0  0  0  0  0  0  0  0  0
   26.9923   13.6730   18.0824 O   0  0  0  0  0  0  0  0  0  0  0  0
   28.0499   14.7817   20.8733 C   0  0  0  0  0  0  0  0  0  0  0  0
   29.4976   15.1249   20.6056 C   0  0  0  0  0  0  0  0  0  0  0  0
   29.7510   16.6091   20.7127 C   0  0  0  0  0  0  0  0  0  0  0  0
   31.2133   16.9401   20.4340 C   0  0  0  0  0  0  0  0  0  0  0  0
   32.1490   16.3920   21.4524 N   0  0  0  0  0  0  0  0  0  0  0  0
   27.9927   15.4649   17.5937 O   0  0  0  0  0  0  0  0  0  0  0  0
  2  1  1  1  0  0  0
  2  3  1  0  0  0  0
  2  5  1  0  0  0  0
  3  4  1  0  0  0  0
  3 10  1  0  0  0  0
  5  6  1  0  0  0  0
  6  7  1  0  0  0  0
  7  8  1  0  0  0  0
  8  9  1  0  0  0  0
M  END
>  <CHROM.1>
-45.46330949,-172.18406275,64.78854521,-179.74106149,-65.70399529,28.57599995
15.41474094,19.78989144,2.65889620,-0.32153233,-1.73069084

>  <Name>
ligand

>  <RI>
0

>  <Rbt.Current_Directory>
/home/itssahil/PROJECTS/Mol_Feturizer/New_Systems/rnas/3DIY

>  <Rbt.Executable>
rbdock ($Id: //depot/dev/client3/rdock/2013.1/src/exe/rbdock.cxx#4 $)

>  <Rbt.Library>
libRbt.so (2013.1, Build901 2013/11/27)

>  <Rbt.Parameter_File>
/export/apps/rDock/src/rDock_2013.1_src/data/scripts/dock_solv.prm

>  <Rbt.Receptor>
prm/pocket_docking_8.prm

>  <SCORE>
-8.07546

>  <SCORE.INTER>
-7.60433

>  <SCORE.INTER.CONST>
1

>  <SCORE.INTER.POLAR>
0

>  <SCORE.INTER.ROT>
5

>  <SCORE.INTER.SOLV>
17.3433

>  <SCORE.INTER.VDW>
-17.784

>  <SCORE.INTER.norm>
-0.760433

>  <SCORE.INTRA>
-0.471129

>  <SCORE.INTRA.DIHEDRAL>
-0.549266

>  <SCORE.INTRA.DIHEDRAL.0>
2.56603

>  <SCORE.INTRA.POLAR>
0

>  <SCORE.INTRA.POLAR.0>
0

>  <SCORE.INTRA.REPUL>
0

>  <SCORE.INTRA.REPUL.0>
0

>  <SCORE.INTRA.SOLV>
-0.439227

>  <SCORE.INTRA.SOLV.lig_0>
-32.0799

>  <SCORE.INTRA.VDW>
0.0231175

>  <SCORE.INTRA.VDW.0>
-0.618248

>  <SCORE.INTRA.norm>
-0.0471129

>  <SCORE.RESTR>
0

>  <SCORE.RESTR.CAVITY>
0

>  <SCORE.RESTR.norm>
0

>  <SCORE.SYSTEM>
0

>  <SCORE.SYSTEM.CONST>
0

>  <SCORE.SYSTEM.DIHEDRAL>
0

>  <SCORE.SYSTEM.SOLV>
0

>  <SCORE.SYSTEM.norm>
0

>  <SCORE.heavy>
10

>  <SCORE.norm>
-0.807546

>  <RMSD>
5.535

$$$$
ligand
 OpenBabel11021811473D
libRbt.so/2013.1/901 2013/11/27
 10  9  0  0  0  0  0  0  0  0999 V2000
   27.0957   14.4203   18.2934 N   0  0  0  0  0  0  0  0  0  0  0  0
   27.7375   14.6290   19.6267 C   0  0  2  0  0  0  0  0  0  0  0  0
   26.7138   14.9202   20.7301 C   0  0  0  0  0  0  0  0  0  0  0  0
   25.5004   15.0161   20.4929 O   0  0  0  0  0  0  0  0  0  0  0  0
   28.8020   15.7271   19.5537 C   0  0  0  0  0  0  0  0  0  0  0  0
   29.7145   15.7530   20.7587 C   0  0  0  0  0  0  0  0  0  0  0  0
   30.7359   16.8604   20.6649 C   0  0  0  0  0  0  0  0  0  0  0  0
   31.6905   16.8320   21.8537 C   0  0  0  0  0  0  0  0  0  0  0  0
   32.6808   17.9422   21.8446 N   0  0  0  0  0  0  0  0  0  0  0  0
   27.0642   15.0337   21.9087 O   0  0  0  0  0  0  0  0  0  0  0  0
  2  1  1  6  0  0  0
  2  3  1  0  0  0  0
  2  5  1  0  0  0  0
  3  4  1  0  0  0  0
  3 10  1  0  0  0  0
  5  6  1  0  0  0  0
  6  7  1  0  0  0  0
  7  8  1  0  0  0  0
  8  9  1  0  0  0  0
M  END
>  <CHROM.1>
-2.63054655,-165.76428859,-179.04841990,-177.26541218,-177.32605431,28.74039814
15.71310219,20.59495425,-2.80416753,0.37005678,1.33502002

>  <Name>
ligand

>  <RI>
0

>  <Rbt.Current_Directory>
/home/itssahil/PROJECTS/Mol_Feturizer/New_Systems/rnas/3DIY

>  <Rbt.Executable>
rbdock ($Id: //depot/dev/client3/rdock/2013.1/src/exe/rbdock.cxx#4 $)

>  <Rbt.Library>
libRbt.so (2013.1, Build901 2013/11/27)

>  <Rbt.Parameter_File>
/export/apps/rDock/src/rDock_2013.1_src/data/scripts/dock_solv.prm

>  <Rbt.Receptor>
prm/blind_docking_80.prm

>  <SCORE>
-9.21708

>  <SCORE.INTER>
-8.33011

>  <SCORE.INTER.CONST>
1

>  <SCORE.INTER.POLAR>
0

>  <SCORE.INTER.ROT>
5

>  <SCORE.INTER.SOLV>
14.9803

>  <SCORE.INTER.VDW>
-17.4802

>  <SCORE.INTER.norm>
-0.833011

>  <SCORE.INTRA>
-0.886975

>  <SCORE.INTRA.DIHEDRAL>
-0.230592

>  <SCORE.INTRA.DIHEDRAL.0>
2.56603

>  <SCORE.INTRA.POLAR>
0

>  <SCORE.INTRA.POLAR.0>
0

>  <SCORE.INTRA.REPUL>
0

>  <SCORE.INTRA.REPUL.0>
0

>  <SCORE.INTRA.SOLV>
-1.5786

>  <SCORE.INTRA.SOLV.lig_0>
-32.0799

>  <SCORE.INTRA.VDW>
0.0176233

>  <SCORE.INTRA.VDW.0>
-0.618248

>  <SCORE.INTRA.norm>
-0.0886975

>  <SCORE.RESTR>
0

>  <SCORE.RESTR.CAVITY>
0

>  <SCORE.RESTR.norm>
0

>  <SCORE.SYSTEM>
0

>  <SCORE.SYSTEM.CONST>
0

>  <SCORE.SYSTEM.DIHEDRAL>
0

>  <SCORE.SYSTEM.SOLV>
0

>  <SCORE.SYSTEM.norm>
0

>  <SCORE.heavy>
10

>  <SCORE.norm>
-0.921708

>  <RMSD>
5.536

$$$$
ligand
 OpenBabel11021811473D
libRbt.so/2013.1/901 2013/11/27
 10  9  0  0  0  0  0  0  0  0999 V2000
   27.0867   14.4012   18.3634 N   0  0  0  0  0  0  0  0  0  0  0  0
   27.7411   14.5923   19.6932 C   0  0  2  0  0  0  0  0  0  0  0  0
   26.7272   14.8588   20.8117 C   0  0  0  0  0  0  0  0  0  0  0  0
   27.0754   15.0147   21.9918 O   0  0  0  0  0  0  0  0  0  0  0  0
   28.7978   15.6982   19.6272 C   0  0  0  0  0  0  0  0  0  0  0  0
   29.7256   15.7076   20.8208 C   0  0  0  0  0  0  0  0  0  0  0  0
   30.7390   16.8229   20.7345 C   0  0  0  0  0  0  0  0  0  0  0  0
   31.7371   16.7510   21.8852 C   0  0  0  0  0  0  0  0  0  0  0  0
   32.7040   17.8815   21.9019 N   0  0  0  0  0  0  0  0  0  0  0  0
   25.5218   14.9642   20.5655 O   0  0  0  0  0  0  0  0  0  0  0  0
  2  1  1  6  0  0  0
  2  3  1  0  0  0  0
  2  5  1  0  0  0  0
  3  4  1  0  0  0  0
  3 10  1  0  0  0  0
  5  6  1  0  0  0  0
  6  7  1  0  0  0  0
  7  8  1  0  0  0  0
  8  9  1  0  0  0  0
M  END
>  <CHROM.1>
178.42490568,-165.57696330,-179.05609340,-175.38170740,-176.07536760,28.75257412
15.66935796,20.66182816,-2.81235490,0.36935917,1.34511111

>  <Name>
ligand

>  <RI>
0

>  <Rbt.Current_Directory>
/home/itssahil/PROJECTS/Mol_Feturizer/New_Systems/rnas/3DIY

>  <Rbt.Executable>
rbdock ($Id: //depot/dev/client3/rdock/2013.1/src/exe/rbdock.cxx#4 $)

>  <Rbt.Library>
libRbt.so (2013.1, Build901 2013/11/27)

>  <Rbt.Parameter_File>
/export/apps/rDock/src/rDock_2013.1_src/data/scripts/dock_solv.prm

>  <Rbt.Receptor>
prm/pocket_docking_3.prm

>  <SCORE>
-9.18449

>  <SCORE.INTER>
-8.35275

>  <SCORE.INTER.CONST>
1

>  <SCORE.INTER.POLAR>
0

>  <SCORE.INTER.ROT>
5

>  <SCORE.INTER.SOLV>
14.9836

>  <SCORE.INTER.VDW>
-17.4964

>  <SCORE.INTER.norm>
-0.835275

>  <SCORE.INTRA>
-0.83174

>  <SCORE.INTRA.DIHEDRAL>
-0.153772

>  <SCORE.INTRA.DIHEDRAL.0>
2.56603

>  <SCORE.INTRA.POLAR>
0

>  <SCORE.INTRA.POLAR.0>
0

>  <SCORE.INTRA.REPUL>
0

>  <SCORE.INTRA.REPUL.0>
0

>  <SCORE.INTRA.SOLV>
-1.573

>  <SCORE.INTRA.SOLV.lig_0>
-32.0799

>  <SCORE.INTRA.VDW>
0.031648

>  <SCORE.INTRA.VDW.0>
-0.618248

>  <SCORE.INTRA.norm>
-0.083174

>  <SCORE.RESTR>
0

>  <SCORE.RESTR.CAVITY>
0

>  <SCORE.RESTR.norm>
0

>  <SCORE.SYSTEM>
0

>  <SCORE.SYSTEM.CONST>
0

>  <SCORE.SYSTEM.DIHEDRAL>
0

>  <SCORE.SYSTEM.SOLV>
0

>  <SCORE.SYSTEM.norm>
0

>  <SCORE.heavy>
10

>  <SCORE.norm>
-0.918449

>  <RMSD>
5.536

$$$$
ligand
 OpenBabel11021811473D
libRbt.so/2013.1/901 2013/11/27
 10  9  0  0  0  0  0  0  0  0999 V2000
   27.1144   14.3325   18.3298 N   0  0  0  0  0  0  0  0  0  0  0  0
   27.7417   14.5775   19.6638 C   0  0  2  0  0  0  0  0  0  0  0  0
   26.7053   14.8853   20.7505 C   0  0  0  0  0  0  0  0  0  0  0  0
   27.0217   15.0191   21.9422 O   0  0  0  0  0  0  0  0  0  0  0  0
   28.7977   15.6827   19.5752 C   0  0  0  0  0  0  0  0  0  0  0  0
   29.6620   15.7811   20.8116 C   0  0  0  0  0  0  0  0  0  0  0  0
   30.6753   16.8943   20.7001 C   0  0  0  0  0  0  0  0  0  0  0  0
   31.5789   16.9421   21.9275 C   0  0  0  0  0  0  0  0  0  0  0  0
   32.5886   18.0336   21.8775 N   0  0  0  0  0  0  0  0  0  0  0  0
   25.5147   15.0478   20.4661 O   0  0  0  0  0  0  0  0  0  0  0  0
  2  1  1  6  0  0  0
  2  3  1  0  0  0  0
  2  5  1  0  0  0  0
  3  4  1  0  0  0  0
  3 10  1  0  0  0  0
  5  6  1  0  0  0  0
  6  7  1  0  0  0  0
  7  8  1  0  0  0  0
  8  9  1  0  0  0  0
M  END
>  <CHROM.1>
174.56172810,-168.12094518,-179.03321482,-177.51817940,-179.32546460,28.70679878
15.72034883,20.62596565,-2.77673246,0.38073497,1.29945363

>  <Name>
ligand

>  <RI>
0

>  <Rbt.Current_Directory>
/home/itssahil/PROJECTS/Mol_Feturizer/New_Systems/rnas/3DIY

>  <Rbt.Executable>
rbdock ($Id: //depot/dev/client3/rdock/2013.1/src/exe/rbdock.cxx#4 $)

>  <Rbt.Library>
libRbt.so (2013.1, Build901 2013/11/27)

>  <Rbt.Parameter_File>
/export/apps/rDock/src/rDock_2013.1_src/data/scripts/dock_solv.prm

>  <Rbt.Receptor>
prm/pocket_docking_4.prm

>  <SCORE>
-9.28172

>  <SCORE.INTER>
-8.27399

>  <SCORE.INTER.CONST>
1

>  <SCORE.INTER.POLAR>
0

>  <SCORE.INTER.ROT>
5

>  <SCORE.INTER.SOLV>
15.0266

>  <SCORE.INTER.VDW>
-17.4582

>  <SCORE.INTER.norm>
-0.827399

>  <SCORE.INTRA>
-1.00772

>  <SCORE.INTRA.DIHEDRAL>
-0.52206

>  <SCORE.INTRA.DIHEDRAL.0>
2.56603

>  <SCORE.INTRA.POLAR>
0

>  <SCORE.INTRA.POLAR.0>
0

>  <SCORE.INTRA.REPUL>
0

>  <SCORE.INTRA.REPUL.0>
0

>  <SCORE.INTRA.SOLV>
-1.57923

>  <SCORE.INTRA.SOLV.lig_0>
-32.0799

>  <SCORE.INTRA.VDW>
0.0429223

>  <SCORE.INTRA.VDW.0>
-0.618248

>  <SCORE.INTRA.norm>
-0.100772

>  <SCORE.RESTR>
0

>  <SCORE.RESTR.CAVITY>
0

>  <SCORE.RESTR.norm>
0

>  <SCORE.SYSTEM>
0

>  <SCORE.SYSTEM.CONST>
0

>  <SCORE.SYSTEM.DIHEDRAL>
0

>  <SCORE.SYSTEM.SOLV>
0

>  <SCORE.SYSTEM.norm>
0

>  <SCORE.heavy>
10

>  <SCORE.norm>
-0.928172

>  <RMSD>
5.536

$$$$
ligand
 OpenBabel11021811473D
libRbt.so/2013.1/901 2013/11/27
 10  9  0  0  0  0  0  0  0  0999 V2000
   27.0414   14.2856   18.4280 N   0  0  0  0  0  0  0  0  0  0  0  0
   27.7132   14.5206   19.7419 C   0  0  2  0  0  0  0  0  0  0  0  0
   26.7201   14.8911   20.8493 C   0  0  0  0  0  0  0  0  0  0  0  0
   25.4963   14.9254   20.6510 O   0  0  0  0  0  0  0  0  0  0  0  0
   28.8156   15.5749   19.6099 C   0  0  0  0  0  0  0  0  0  0  0  0
   29.7685   15.5903   20.7835 C   0  0  0  0  0  0  0  0  0  0  0  0
   30.8207   16.6627   20.6373 C   0  0  0  0  0  0  0  0  0  0  0  0
   31.8070   16.6293   21.7998 C   0  0  0  0  0  0  0  0  0  0  0  0
   32.8483   17.6891   21.7235 N   0  0  0  0  0  0  0  0  0  0  0  0
   27.1080   15.1344   21.9961 O   0  0  0  0  0  0  0  0  0  0  0  0
  2  1  1  6  0  0  0
  2  3  1  0  0  0  0
  2  5  1  0  0  0  0
  3  4  1  0  0  0  0
  3 10  1  0  0  0  0
  5  6  1  0  0  0  0
  6  7  1  0  0  0  0
  7  8  1  0  0  0  0
  8  9  1  0  0  0  0
M  END
>  <CHROM.1>
2.86496821,-164.40499092,-178.57603715,-177.70958738,-178.58306408,28.78113167
15.59217153,20.64484502,-2.83397066,0.33248999,1.29713369

>  <Name>
ligand

>  <RI>
0

>  <Rbt.Current_Directory>
/home/itssahil/PROJECTS/Mol_Feturizer/New_Systems/rnas/3DIY

>  <Rbt.Executable>
rbdock ($Id: //depot/dev/client3/rdock/2013.1/src/exe/rbdock.cxx#4 $)

>  <Rbt.Library>
libRbt.so (2013.1, Build901 2013/11/27)

>  <Rbt.Parameter_File>
/export/apps/rDock/src/rDock_2013.1_src/data/scripts/dock_solv.prm

>  <Rbt.Receptor>
prm/pocket_docking_5.prm

>  <SCORE>
-9.25276

>  <SCORE.INTER>
-8.47228

>  <SCORE.INTER.CONST>
1

>  <SCORE.INTER.POLAR>
0

>  <SCORE.INTER.ROT>
5

>  <SCORE.INTER.SOLV>
15.3796

>  <SCORE.INTER.VDW>
-17.708

>  <SCORE.INTER.norm>
-0.847228

>  <SCORE.INTRA>
-0.780473

>  <SCORE.INTRA.DIHEDRAL>
-0.136321

>  <SCORE.INTRA.DIHEDRAL.0>
2.56603

>  <SCORE.INTRA.POLAR>
0

>  <SCORE.INTRA.POLAR.0>
0

>  <SCORE.INTRA.REPUL>
0

>  <SCORE.INTRA.REPUL.0>
0

>  <SCORE.INTRA.SOLV>
-1.57746

>  <SCORE.INTRA.SOLV.lig_0>
-32.0799

>  <SCORE.INTRA.VDW>
0.0764169

>  <SCORE.INTRA.VDW.0>
-0.618248

>  <SCORE.INTRA.norm>
-0.0780473

>  <SCORE.RESTR>
0

>  <SCORE.RESTR.CAVITY>
0

>  <SCORE.RESTR.norm>
0

>  <SCORE.SYSTEM>
0

>  <SCORE.SYSTEM.CONST>
0

>  <SCORE.SYSTEM.DIHEDRAL>
0

>  <SCORE.SYSTEM.SOLV>
0

>  <SCORE.SYSTEM.norm>
0

>  <SCORE.heavy>
10

>  <SCORE.norm>
-0.925276

>  <RMSD>
5.536

$$$$
ligand
 OpenBabel11021811473D
libRbt.so/2013.1/901 2013/11/27
 10  9  0  0  0  0  0  0  0  0999 V2000
   27.0795   14.3680   18.3488 N   0  0  0  0  0  0  0  0  0  0  0  0
   27.7245   14.5942   19.6777 C   0  0  2  0  0  0  0  0  0  0  0  0
   26.7027   14.8873   20.7822 C   0  0  0  0  0  0  0  0  0  0  0  0
   25.4889   14.9833   20.5468 O   0  0  0  0  0  0  0  0  0  0  0  0
   28.7798   15.7002   19.5905 C   0  0  0  0  0  0  0  0  0  0  0  0
   29.6242   15.8175   20.8389 C   0  0  0  0  0  0  0  0  0  0  0  0
   30.6442   16.9242   20.7239 C   0  0  0  0  0  0  0  0  0  0  0  0
   31.5412   16.9771   21.9559 C   0  0  0  0  0  0  0  0  0  0  0  0
   32.5760   18.0440   21.8896 N   0  0  0  0  0  0  0  0  0  0  0  0
   27.0550   15.0022   21.9601 O   0  0  0  0  0  0  0  0  0  0  0  0
  2  1  1  6  0  0  0
  2  3  1  0  0  0  0
  2  5  1  0  0  0  0
  3  4  1  0  0  0  0
  3 10  1  0  0  0  0
  5  6  1  0  0  0  0
  6  7  1  0  0  0  0
  7  8  1  0  0  0  0
  8  9  1  0  0  0  0
M  END
>  <CHROM.1>
-3.30771498,-170.42765399,-179.47073191,-176.66963932,179.43789058,28.68876786
15.72919661,20.65364081,-2.78590755,0.39536632,1.32063941

>  <Name>
ligand

>  <RI>
0

>  <Rbt.Current_Directory>
/home/itssahil/PROJECTS/Mol_Feturizer/New_Systems/rnas/3DIY

>  <Rbt.Executable>
rbdock ($Id: //depot/dev/client3/rdock/2013.1/src/exe/rbdock.cxx#4 $)

>  <Rbt.Library>
libRbt.so (2013.1, Build901 2013/11/27)

>  <Rbt.Parameter_File>
/export/apps/rDock/src/rDock_2013.1_src/data/scripts/dock_solv.prm

>  <Rbt.Receptor>
prm/pocket_docking_7.prm

>  <SCORE>
-9.23516

>  <SCORE.INTER>
-8.27725

>  <SCORE.INTER.CONST>
1

>  <SCORE.INTER.POLAR>
0

>  <SCORE.INTER.ROT>
5

>  <SCORE.INTER.SOLV>
15.0789

>  <SCORE.INTER.VDW>
-17.4778

>  <SCORE.INTER.norm>
-0.827725

>  <SCORE.INTRA>
-0.957913

>  <SCORE.INTRA.DIHEDRAL>
-0.634235

>  <SCORE.INTRA.DIHEDRAL.0>
2.56603

>  <SCORE.INTRA.POLAR>
0

>  <SCORE.INTRA.POLAR.0>
0

>  <SCORE.INTRA.REPUL>
0

>  <SCORE.INTRA.REPUL.0>
0

>  <SCORE.INTRA.SOLV>
-1.58635

>  <SCORE.INTRA.SOLV.lig_0>
-32.0799

>  <SCORE.INTRA.VDW>
0.15238

>  <SCORE.INTRA.VDW.0>
-0.618248

>  <SCORE.INTRA.norm>
-0.0957913

>  <SCORE.RESTR>
0

>  <SCORE.RESTR.CAVITY>
0

>  <SCORE.RESTR.norm>
0

>  <SCORE.SYSTEM>
0

>  <SCORE.SYSTEM.CONST>
0

>  <SCORE.SYSTEM.DIHEDRAL>
0

>  <SCORE.SYSTEM.SOLV>
0

>  <SCORE.SYSTEM.norm>
0

>  <SCORE.heavy>
10

>  <SCORE.norm>
-0.923516

>  <RMSD>
5.536

$$$$
ligand
 OpenBabel11021811473D
libRbt.so/2013.1/901 2013/11/27
 10  9  0  0  0  0  0  0  0  0999 V2000
   27.1109   14.2312   18.2529 N   0  0  0  0  0  0  0  0  0  0  0  0
   27.7329   14.4747   19.5897 C   0  0  2  0  0  0  0  0  0  0  0  0
   26.7001   14.8623   20.6542 C   0  0  0  0  0  0  0  0  0  0  0  0
   26.9896   14.9287   21.8582 O   0  0  0  0  0  0  0  0  0  0  0  0
   28.8467   15.5205   19.4906 C   0  0  0  0  0  0  0  0  0  0  0  0
   29.7102   15.5902   20.7296 C   0  0  0  0  0  0  0  0  0  0  0  0
   30.7283   16.7011   20.6417 C   0  0  0  0  0  0  0  0  0  0  0  0
   31.6037   16.7464   21.8894 C   0  0  0  0  0  0  0  0  0  0  0  0
   32.5631   17.8834   21.8987 N   0  0  0  0  0  0  0  0  0  0  0  0
   25.5435   15.1594   20.3397 O   0  0  0  0  0  0  0  0  0  0  0  0
  2  1  1  6  0  0  0
  2  3  1  0  0  0  0
  2  5  1  0  0  0  0
  3  4  1  0  0  0  0
  3 10  1  0  0  0  0
  5  6  1  0  0  0  0
  6  7  1  0  0  0  0
  7  8  1  0  0  0  0
  8  9  1  0  0  0  0
M  END
>  <CHROM.1>
170.10788235,-167.36081546,-175.58552133,-179.21328816,-175.95426128,28.71968801
15.61262931,20.55542545,-2.75520240,0.33965630,1.26700364

>  <Name>
ligand

>  <RI>
0

>  <Rbt.Current_Directory>
/home/itssahil/PROJECTS/Mol_Feturizer/New_Systems/rnas/3DIY

>  <Rbt.Executable>
rbdock ($Id: //depot/dev/client3/rdock/2013.1/src/exe/rbdock.cxx#4 $)

>  <Rbt.Library>
libRbt.so (2013.1, Build901 2013/11/27)

>  <Rbt.Parameter_File>
/export/apps/rDock/src/rDock_2013.1_src/data/scripts/dock_solv.prm

>  <Rbt.Receptor>
prm/pocket_docking_6.prm

>  <SCORE>
-9.15973

>  <SCORE.INTER>
-8.11184

>  <SCORE.INTER.CONST>
1

>  <SCORE.INTER.POLAR>
0

>  <SCORE.INTER.ROT>
5

>  <SCORE.INTER.SOLV>
15.1257

>  <SCORE.INTER.VDW>
-17.3831

>  <SCORE.INTER.norm>
-0.811184

>  <SCORE.INTRA>
-1.04789

>  <SCORE.INTRA.DIHEDRAL>
-0.357058

>  <SCORE.INTRA.DIHEDRAL.0>
2.56603

>  <SCORE.INTRA.POLAR>
0

>  <SCORE.INTRA.POLAR.0>
0

>  <SCORE.INTRA.REPUL>
0

>  <SCORE.INTRA.REPUL.0>
0

>  <SCORE.INTRA.SOLV>
-1.57837

>  <SCORE.INTRA.SOLV.lig_0>
-32.0799

>  <SCORE.INTRA.VDW>
-0.0801773

>  <SCORE.INTRA.VDW.0>
-0.618248

>  <SCORE.INTRA.norm>
-0.104789

>  <SCORE.RESTR>
0

>  <SCORE.RESTR.CAVITY>
0

>  <SCORE.RESTR.norm>
0

>  <SCORE.SYSTEM>
0

>  <SCORE.SYSTEM.CONST>
0

>  <SCORE.SYSTEM.DIHEDRAL>
0

>  <SCORE.SYSTEM.SOLV>
0

>  <SCORE.SYSTEM.norm>
0

>  <SCORE.heavy>
10

>  <SCORE.norm>
-0.915973

>  <RMSD>
5.537

$$$$
ligand
 OpenBabel11021811473D
libRbt.so/2013.1/901 2013/11/27
 10  9  0  0  0  0  0  0  0  0999 V2000
   27.1095   14.3395   18.3250 N   0  0  0  0  0  0  0  0  0  0  0  0
   27.7390   14.5775   19.6592 C   0  0  2  0  0  0  0  0  0  0  0  0
   26.7050   14.8888   20.7473 C   0  0  0  0  0  0  0  0  0  0  0  0
   27.0267   15.0469   21.9345 O   0  0  0  0  0  0  0  0  0  0  0  0
   28.8014   15.6767   19.5727 C   0  0  0  0  0  0  0  0  0  0  0  0
   29.6799   15.7539   20.8006 C   0  0  0  0  0  0  0  0  0  0  0  0
   30.7122   16.8489   20.6834 C   0  0  0  0  0  0  0  0  0  0  0  0
   31.6534   16.8497   21.8832 C   0  0  0  0  0  0  0  0  0  0  0  0
   32.6507   17.9532   21.8527 N   0  0  0  0  0  0  0  0  0  0  0  0
   25.5105   15.0296   20.4678 O   0  0  0  0  0  0  0  0  0  0  0  0
  2  1  1  6  0  0  0
  2  3  1  0  0  0  0
  2  5  1  0  0  0  0
  3  4  1  0  0  0  0
  3 10  1  0  0  0  0
  5  6  1  0  0  0  0
  6  7  1  0  0  0  0
  7  8  1  0  0  0  0
  8  9  1  0  0  0  0
M  END
>  <CHROM.1>
176.18233373,-167.28585639,-179.84733399,-175.91930665,-177.12853991,28.72553764
15.69744490,20.61425327,-2.78864017,0.36723257,1.30468732

>  <Name>
ligand

>  <RI>
0

>  <Rbt.Current_Directory>
/home/itssahil/PROJECTS/Mol_Feturizer/New_Systems/rnas/3DIY

>  <Rbt.Executable>
rbdock ($Id: //depot/dev/client3/rdock/2013.1/src/exe/rbdock.cxx#4 $)

>  <Rbt.Library>
libRbt.so (2013.1, Build901 2013/11/27)

>  <Rbt.Parameter_File>
/export/apps/rDock/src/rDock_2013.1_src/data/scripts/dock_solv.prm

>  <Rbt.Receptor>
prm/pocket_docking_6.prm

>  <SCORE>
-9.20997

>  <SCORE.INTER>
-8.28131

>  <SCORE.INTER.CONST>
1

>  <SCORE.INTER.POLAR>
0

>  <SCORE.INTER.ROT>
5

>  <SCORE.INTER.SOLV>
15.0022

>  <SCORE.INTER.VDW>
-17.4549

>  <SCORE.INTER.norm>
-0.828131

>  <SCORE.INTRA>
-0.928666

>  <SCORE.INTRA.DIHEDRAL>
-0.374157

>  <SCORE.INTRA.DIHEDRAL.0>
2.56603

>  <SCORE.INTRA.POLAR>
0

>  <SCORE.INTRA.POLAR.0>
0

>  <SCORE.INTRA.REPUL>
0

>  <SCORE.INTRA.REPUL.0>
0

>  <SCORE.INTRA.SOLV>
-1.57696

>  <SCORE.INTRA.SOLV.lig_0>
-32.0799

>  <SCORE.INTRA.VDW>
0.0468904

>  <SCORE.INTRA.VDW.0>
-0.618248

>  <SCORE.INTRA.norm>
-0.0928666

>  <SCORE.RESTR>
0

>  <SCORE.RESTR.CAVITY>
0

>  <SCORE.RESTR.norm>
0

>  <SCORE.SYSTEM>
0

>  <SCORE.SYSTEM.CONST>
0

>  <SCORE.SYSTEM.DIHEDRAL>
0

>  <SCORE.SYSTEM.SOLV>
0

>  <SCORE.SYSTEM.norm>
0

>  <SCORE.heavy>
10

>  <SCORE.norm>
-0.920997

>  <RMSD>
5.538

$$$$
ligand
 OpenBabel11021811473D
libRbt.so/2013.1/901 2013/11/27
 10  9  0  0  0  0  0  0  0  0999 V2000
   27.0856   14.4182   18.2782 N   0  0  0  0  0  0  0  0  0  0  0  0
   27.7211   14.6237   19.6150 C   0  0  2  0  0  0  0  0  0  0  0  0
   26.6918   14.9058   20.7155 C   0  0  0  0  0  0  0  0  0  0  0  0
   27.0157   15.0103   21.9080 O   0  0  0  0  0  0  0  0  0  0  0  0
   28.7813   15.7265   19.5512 C   0  0  0  0  0  0  0  0  0  0  0  0
   29.6165   15.8231   20.8075 C   0  0  0  0  0  0  0  0  0  0  0  0
   30.6713   16.8973   20.6983 C   0  0  0  0  0  0  0  0  0  0  0  0
   31.5583   16.9270   21.9383 C   0  0  0  0  0  0  0  0  0  0  0  0
   32.5864   18.0018   21.9054 N   0  0  0  0  0  0  0  0  0  0  0  0
   25.4996   15.0760   20.4426 O   0  0  0  0  0  0  0  0  0  0  0  0
  2  1  1  6  0  0  0
  2  3  1  0  0  0  0
  2  5  1  0  0  0  0
  3  4  1  0  0  0  0
  3 10  1  0  0  0  0
  5  6  1  0  0  0  0
  6  7  1  0  0  0  0
  7  8  1  0  0  0  0
  8  9  1  0  0  0  0
M  END
>  <CHROM.1>
174.83954638,-170.41653999,178.67158469,-176.60650259,-177.91019184,28.68970284
15.74123293,20.60770697,-2.78047226,0.38025380,1.32940344

>  <Name>
ligand

>  <RI>
0

>  <Rbt.Current_Directory>
/home/itssahil/PROJECTS/Mol_Feturizer/New_Systems/rnas/3DIY

>  <Rbt.Executable>
rbdock ($Id: //depot/dev/client3/rdock/2013.1/src/exe/rbdock.cxx#4 $)

>  <Rbt.Library>
libRbt.so (2013.1, Build901 2013/11/27)

>  <Rbt.Parameter_File>
/export/apps/rDock/src/rDock_2013.1_src/data/scripts/dock_solv.prm

>  <Rbt.Receptor>
prm/pocket_docking_7.prm

>  <SCORE>
-9.31877

>  <SCORE.INTER>
-8.33181

>  <SCORE.INTER.CONST>
1

>  <SCORE.INTER.POLAR>
0

>  <SCORE.INTER.ROT>
5

>  <SCORE.INTER.SOLV>
14.9762

>  <SCORE.INTER.VDW>
-17.4799

>  <SCORE.INTER.norm>
-0.833181

>  <SCORE.INTRA>
-0.986958

>  <SCORE.INTRA.DIHEDRAL>
-0.656564

>  <SCORE.INTRA.DIHEDRAL.0>
2.56603

>  <SCORE.INTRA.POLAR>
0

>  <SCORE.INTRA.POLAR.0>
0

>  <SCORE.INTRA.REPUL>
0

>  <SCORE.INTRA.REPUL.0>
0

>  <SCORE.INTRA.SOLV>
-1.58216

>  <SCORE.INTRA.SOLV.lig_0>
-32.0799

>  <SCORE.INTRA.VDW>
0.132405

>  <SCORE.INTRA.VDW.0>
-0.618248

>  <SCORE.INTRA.norm>
-0.0986958

>  <SCORE.RESTR>
0

>  <SCORE.RESTR.CAVITY>
0

>  <SCORE.RESTR.norm>
0

>  <SCORE.SYSTEM>
0

>  <SCORE.SYSTEM.CONST>
0

>  <SCORE.SYSTEM.DIHEDRAL>
0

>  <SCORE.SYSTEM.SOLV>
0

>  <SCORE.SYSTEM.norm>
0

>  <SCORE.heavy>
10

>  <SCORE.norm>
-0.931877

>  <RMSD>
5.539

$$$$
ligand
 OpenBabel11021811473D
libRbt.so/2013.1/901 2013/11/27
 10  9  0  0  0  0  0  0  0  0999 V2000
   27.0673   14.3812   18.3072 N   0  0  0  0  0  0  0  0  0  0  0  0
   27.7137   14.5908   19.6381 C   0  0  2  0  0  0  0  0  0  0  0  0
   26.6942   14.8859   20.7442 C   0  0  0  0  0  0  0  0  0  0  0  0
   25.4834   15.0102   20.5067 O   0  0  0  0  0  0  0  0  0  0  0  0
   28.7802   15.6866   19.5598 C   0  0  0  0  0  0  0  0  0  0  0  0
   29.6394   15.7711   20.8008 C   0  0  0  0  0  0  0  0  0  0  0  0
   30.6556   16.8831   20.7045 C   0  0  0  0  0  0  0  0  0  0  0  0
   31.5527   16.9182   21.9371 C   0  0  0  0  0  0  0  0  0  0  0  0
   32.5571   18.0153   21.9074 N   0  0  0  0  0  0  0  0  0  0  0  0
   27.0447   14.9742   21.9250 O   0  0  0  0  0  0  0  0  0  0  0  0
  2  1  1  6  0  0  0
  2  3  1  0  0  0  0
  2  5  1  0  0  0  0
  3  4  1  0  0  0  0
  3 10  1  0  0  0  0
  5  6  1  0  0  0  0
  6  7  1  0  0  0  0
  7  8  1  0  0  0  0
  8  9  1  0  0  0  0
M  END
>  <CHROM.1>
-4.09130671,-169.50100437,-178.54183273,-177.59721604,-178.81923673,28.68598606
15.71122142,20.62522075,-2.78334805,0.38738560,1.32604013

>  <Name>
ligand

>  <RI>
0

>  <Rbt.Current_Directory>
/home/itssahil/PROJECTS/Mol_Feturizer/New_Systems/rnas/3DIY

>  <Rbt.Executable>
rbdock ($Id: //depot/dev/client3/rdock/2013.1/src/exe/rbdock.cxx#4 $)

>  <Rbt.Library>
libRbt.so (2013.1, Build901 2013/11/27)

>  <Rbt.Parameter_File>
/export/apps/rDock/src/rDock_2013.1_src/data/scripts/dock_solv.prm

>  <Rbt.Receptor>
prm/blind_docking_80.prm

>  <SCORE>
-9.23775

>  <SCORE.INTER>
-8.25494

>  <SCORE.INTER.CONST>
1

>  <SCORE.INTER.POLAR>
0

>  <SCORE.INTER.ROT>
5

>  <SCORE.INTER.SOLV>
15.0944

>  <SCORE.INTER.VDW>
-17.4681

>  <SCORE.INTER.norm>
-0.825494

>  <SCORE.INTRA>
-0.982818

>  <SCORE.INTRA.DIHEDRAL>
-0.574931

>  <SCORE.INTRA.DIHEDRAL.0>
2.56603

>  <SCORE.INTRA.POLAR>
0

>  <SCORE.INTRA.POLAR.0>
0

>  <SCORE.INTRA.REPUL>
0

>  <SCORE.INTRA.REPUL.0>
0

>  <SCORE.INTRA.SOLV>
-1.58494

>  <SCORE.INTRA.SOLV.lig_0>
-32.0799

>  <SCORE.INTRA.VDW>
0.0971186

>  <SCORE.INTRA.VDW.0>
-0.618248

>  <SCORE.INTRA.norm>
-0.0982818

>  <SCORE.RESTR>
0

>  <SCORE.RESTR.CAVITY>
0

>  <SCORE.RESTR.norm>
0

>  <SCORE.SYSTEM>
0

>  <SCORE.SYSTEM.CONST>
0

>  <SCORE.SYSTEM.DIHEDRAL>
0

>  <SCORE.SYSTEM.SOLV>
0

>  <SCORE.SYSTEM.norm>
0

>  <SCORE.heavy>
10

>  <SCORE.norm>
-0.923775

>  <RMSD>
5.540

$$$$
ligand
 OpenBabel11021811473D
libRbt.so/2013.1/901 2013/11/27
 10  9  0  0  0  0  0  0  0  0999 V2000
   27.0219   14.3623   18.3773 N   0  0  0  0  0  0  0  0  0  0  0  0
   27.6962   14.5491   19.6977 C   0  0  2  0  0  0  0  0  0  0  0  0
   26.7052   14.8796   20.8197 C   0  0  0  0  0  0  0  0  0  0  0  0
   25.4829   14.9436   20.6200 O   0  0  0  0  0  0  0  0  0  0  0  0
   28.7990   15.6070   19.6022 C   0  0  0  0  0  0  0  0  0  0  0  0
   29.7423   15.5923   20.7834 C   0  0  0  0  0  0  0  0  0  0  0  0
   30.7658   16.6984   20.6974 C   0  0  0  0  0  0  0  0  0  0  0  0
   31.7497   16.6307   21.8604 C   0  0  0  0  0  0  0  0  0  0  0  0
   32.7470   17.7346   21.8574 N   0  0  0  0  0  0  0  0  0  0  0  0
   27.0929   15.0586   21.9783 O   0  0  0  0  0  0  0  0  0  0  0  0
  2  1  1  6  0  0  0
  2  3  1  0  0  0  0
  2  5  1  0  0  0  0
  3  4  1  0  0  0  0
  3 10  1  0  0  0  0
  5  6  1  0  0  0  0
  6  7  1  0  0  0  0
  7  8  1  0  0  0  0
  8  9  1  0  0  0  0
M  END
>  <CHROM.1>
1.63221730,-165.22198264,-176.62001835,-177.32809907,-177.51930224,28.74767906
15.60651517,20.65220072,-2.81950679,0.34213393,1.32772759

>  <Name>
ligand

>  <RI>
0

>  <Rbt.Current_Directory>
/home/itssahil/PROJECTS/Mol_Feturizer/New_Systems/rnas/3DIY

>  <Rbt.Executable>
rbdock ($Id: //depot/dev/client3/rdock/2013.1/src/exe/rbdock.cxx#4 $)

>  <Rbt.Library>
libRbt.so (2013.1, Build901 2013/11/27)

>  <Rbt.Parameter_File>
/export/apps/rDock/src/rDock_2013.1_src/data/scripts/dock_solv.prm

>  <Rbt.Receptor>
prm/pocket_docking_5.prm

>  <SCORE>
-9.20988

>  <SCORE.INTER>
-8.42152

>  <SCORE.INTER.CONST>
1

>  <SCORE.INTER.POLAR>
0

>  <SCORE.INTER.ROT>
5

>  <SCORE.INTER.SOLV>
15.2579

>  <SCORE.INTER.VDW>
-17.6336

>  <SCORE.INTER.norm>
-0.842152

>  <SCORE.INTRA>
-0.788366

>  <SCORE.INTRA.DIHEDRAL>
-0.153749

>  <SCORE.INTRA.DIHEDRAL.0>
2.56603

>  <SCORE.INTRA.POLAR>
0

>  <SCORE.INTRA.POLAR.0>
0

>  <SCORE.INTRA.REPUL>
0

>  <SCORE.INTRA.REPUL.0>
0

>  <SCORE.INTRA.SOLV>
-1.57855

>  <SCORE.INTRA.SOLV.lig_0>
-32.0799

>  <SCORE.INTRA.VDW>
0.0777829

>  <SCORE.INTRA.VDW.0>
-0.618248

>  <SCORE.INTRA.norm>
-0.0788366

>  <SCORE.RESTR>
0

>  <SCORE.RESTR.CAVITY>
0

>  <SCORE.RESTR.norm>
0

>  <SCORE.SYSTEM>
0

>  <SCORE.SYSTEM.CONST>
0

>  <SCORE.SYSTEM.DIHEDRAL>
0

>  <SCORE.SYSTEM.SOLV>
0

>  <SCORE.SYSTEM.norm>
0

>  <SCORE.heavy>
10

>  <SCORE.norm>
-0.920988

>  <RMSD>
5.540

$$$$
ligand
 OpenBabel11021811473D
libRbt.so/2013.1/901 2013/11/27
 10  9  0  0  0  0  0  0  0  0999 V2000
   27.1050   14.3333   18.3253 N   0  0  0  0  0  0  0  0  0  0  0  0
   27.7357   14.5777   19.6578 C   0  0  2  0  0  0  0  0  0  0  0  0
   26.7016   14.8787   20.7487 C   0  0  0  0  0  0  0  0  0  0  0  0
   25.4929   14.9932   20.4958 O   0  0  0  0  0  0  0  0  0  0  0  0
   28.7867   15.6875   19.5683 C   0  0  0  0  0  0  0  0  0  0  0  0
   29.6607   15.7807   20.7984 C   0  0  0  0  0  0  0  0  0  0  0  0
   30.6804   16.8872   20.6792 C   0  0  0  0  0  0  0  0  0  0  0  0
   31.5837   16.9389   21.9066 C   0  0  0  0  0  0  0  0  0  0  0  0
   32.5827   18.0403   21.8607 N   0  0  0  0  0  0  0  0  0  0  0  0
   27.0377   14.9818   21.9325 O   0  0  0  0  0  0  0  0  0  0  0  0
  2  1  1  6  0  0  0
  2  3  1  0  0  0  0
  2  5  1  0  0  0  0
  3  4  1  0  0  0  0
  3 10  1  0  0  0  0
  5  6  1  0  0  0  0
  6  7  1  0  0  0  0
  7  8  1  0  0  0  0
  8  9  1  0  0  0  0
M  END
>  <CHROM.1>
-4.79763983,-167.74282038,-179.75633827,-178.11697200,-178.22512020,28.70351729
15.70956775,20.61926718,-2.78601385,0.38901619,1.31115689

>  <Name>
ligand

>  <RI>
0

>  <Rbt.Current_Directory>
/home/itssahil/PROJECTS/Mol_Feturizer/New_Systems/rnas/3DIY

>  <Rbt.Executable>
rbdock ($Id: //depot/dev/client3/rdock/2013.1/src/exe/rbdock.cxx#4 $)

>  <Rbt.Library>
libRbt.so (2013.1, Build901 2013/11/27)

>  <Rbt.Parameter_File>
/export/apps/rDock/src/rDock_2013.1_src/data/scripts/dock_solv.prm

>  <Rbt.Receptor>
prm/pocket_docking_5.prm

>  <SCORE>
-9.25306

>  <SCORE.INTER>
-8.28145

>  <SCORE.INTER.CONST>
1

>  <SCORE.INTER.POLAR>
0

>  <SCORE.INTER.ROT>
5

>  <SCORE.INTER.SOLV>
15.0767

>  <SCORE.INTER.VDW>
-17.4799

>  <SCORE.INTER.norm>
-0.828145

>  <SCORE.INTRA>
-0.971618

>  <SCORE.INTRA.DIHEDRAL>
-0.441247

>  <SCORE.INTRA.DIHEDRAL.0>
2.56603

>  <SCORE.INTRA.POLAR>
0

>  <SCORE.INTRA.POLAR.0>
0

>  <SCORE.INTRA.REPUL>
0

>  <SCORE.INTRA.REPUL.0>
0

>  <SCORE.INTRA.SOLV>
-1.58202

>  <SCORE.INTRA.SOLV.lig_0>
-32.0799

>  <SCORE.INTRA.VDW>
0.0400137

>  <SCORE.INTRA.VDW.0>
-0.618248

>  <SCORE.INTRA.norm>
-0.0971618

>  <SCORE.RESTR>
0

>  <SCORE.RESTR.CAVITY>
0

>  <SCORE.RESTR.norm>
0

>  <SCORE.SYSTEM>
0

>  <SCORE.SYSTEM.CONST>
0

>  <SCORE.SYSTEM.DIHEDRAL>
0

>  <SCORE.SYSTEM.SOLV>
0

>  <SCORE.SYSTEM.norm>
0

>  <SCORE.heavy>
10

>  <SCORE.norm>
-0.925306

>  <RMSD>
5.541

$$$$
ligand
 OpenBabel11021811473D
libRbt.so/2013.1/901 2013/11/27
 10  9  0  0  0  0  0  0  0  0999 V2000
   28.7454   14.1453   21.8604 N   0  0  0  0  0  0  0  0  0  0  0  0
   28.2772   15.4729   21.3593 C   0  0  2  0  0  0  0  0  0  0  0  0
   26.9286   15.3834   20.6360 C   0  0  0  0  0  0  0  0  0  0  0  0
   25.9860   14.7125   21.0824 O   0  0  0  0  0  0  0  0  0  0  0  0
   29.3402   16.1268   20.4722 C   0  0  0  0  0  0  0  0  0  0  0  0
   30.6524   16.3573   21.1866 C   0  0  0  0  0  0  0  0  0  0  0  0
   31.7247   16.8489   20.2448 C   0  0  0  0  0  0  0  0  0  0  0  0
   33.0411   17.0780   20.9797 C   0  0  0  0  0  0  0  0  0  0  0  0
   32.9491   18.1035   22.0535 N   0  0  0  0  0  0  0  0  0  0  0  0
   26.7232   16.0124   19.5933 O   0  0  0  0  0  0  0  0  0  0  0  0
  2  1  1  6  0  0  0
  2  3  1  0  0  0  0
  2  5  1  0  0  0  0
  3  4  1  0  0  0  0
  3 10  1  0  0  0  0
  5  6  1  0  0  0  0
  6  7  1  0  0  0  0
  7  8  1  0  0  0  0
  8  9  1  0  0  0  0
M  END
>  <CHROM.1>
43.75739390,-59.54692462,173.22112571,179.94230197,-61.07979080,29.39432559
16.01865845,20.93099206,-2.96107188,-0.32675916,-0.81729610

>  <Name>
ligand

>  <RI>
0

>  <Rbt.Current_Directory>
/home/itssahil/PROJECTS/Mol_Feturizer/New_Systems/rnas/3DIY

>  <Rbt.Executable>
rbdock ($Id: //depot/dev/client3/rdock/2013.1/src/exe/rbdock.cxx#4 $)

>  <Rbt.Library>
libRbt.so (2013.1, Build901 2013/11/27)

>  <Rbt.Parameter_File>
/export/apps/rDock/src/rDock_2013.1_src/data/scripts/dock_solv.prm

>  <Rbt.Receptor>
prm/pocket_docking_2.prm

>  <SCORE>
-7.46474

>  <SCORE.INTER>
-7.76292

>  <SCORE.INTER.CONST>
1

>  <SCORE.INTER.POLAR>
0

>  <SCORE.INTER.ROT>
5

>  <SCORE.INTER.SOLV>
16.5959

>  <SCORE.INTER.VDW>
-17.6406

>  <SCORE.INTER.norm>
-0.776292

>  <SCORE.INTRA>
0.29818

>  <SCORE.INTRA.DIHEDRAL>
-0.891135

>  <SCORE.INTRA.DIHEDRAL.0>
2.56603

>  <SCORE.INTRA.POLAR>
0

>  <SCORE.INTRA.POLAR.0>
0

>  <SCORE.INTRA.REPUL>
0

>  <SCORE.INTRA.REPUL.0>
0

>  <SCORE.INTRA.SOLV>
0.290507

>  <SCORE.INTRA.SOLV.lig_0>
-32.0799

>  <SCORE.INTRA.VDW>
0.598494

>  <SCORE.INTRA.VDW.0>
-0.618248

>  <SCORE.INTRA.norm>
0.029818

>  <SCORE.RESTR>
0

>  <SCORE.RESTR.CAVITY>
0

>  <SCORE.RESTR.norm>
0

>  <SCORE.SYSTEM>
0

>  <SCORE.SYSTEM.CONST>
0

>  <SCORE.SYSTEM.DIHEDRAL>
0

>  <SCORE.SYSTEM.SOLV>
0

>  <SCORE.SYSTEM.norm>
0

>  <SCORE.heavy>
10

>  <SCORE.norm>
-0.746474

>  <RMSD>
5.542

$$$$
ligand
 OpenBabel11021811473D
libRbt.so/2013.1/901 2013/11/27
 10  9  0  0  0  0  0  0  0  0999 V2000
   27.0799   14.3519   18.3258 N   0  0  0  0  0  0  0  0  0  0  0  0
   27.7167   14.5873   19.6570 C   0  0  2  0  0  0  0  0  0  0  0  0
   26.6879   14.8861   20.7535 C   0  0  0  0  0  0  0  0  0  0  0  0
   27.0172   15.0465   21.9384 O   0  0  0  0  0  0  0  0  0  0  0  0
   28.7712   15.6939   19.5692 C   0  0  0  0  0  0  0  0  0  0  0  0
   29.6452   15.7828   20.7994 C   0  0  0  0  0  0  0  0  0  0  0  0
   30.6760   16.8786   20.6768 C   0  0  0  0  0  0  0  0  0  0  0  0
   31.5656   16.9394   21.9139 C   0  0  0  0  0  0  0  0  0  0  0  0
   32.5889   18.0176   21.8550 N   0  0  0  0  0  0  0  0  0  0  0  0
   25.4898   15.0141   20.4836 O   0  0  0  0  0  0  0  0  0  0  0  0
  2  1  1  6  0  0  0
  2  3  1  0  0  0  0
  2  5  1  0  0  0  0
  3  4  1  0  0  0  0
  3 10  1  0  0  0  0
  5  6  1  0  0  0  0
  6  7  1  0  0  0  0
  7  8  1  0  0  0  0
  8  9  1  0  0  0  0
M  END
>  <CHROM.1>
176.53160840,-168.06162987,179.75640030,-178.98067311,-179.14590725,28.69073822
15.72041471,20.61905062,-2.78418657,0.38105011,1.30637513

>  <Name>
ligand

>  <RI>
0

>  <Rbt.Current_Directory>
/home/itssahil/PROJECTS/Mol_Feturizer/New_Systems/rnas/3DIY

>  <Rbt.Executable>
rbdock ($Id: //depot/dev/client3/rdock/2013.1/src/exe/rbdock.cxx#4 $)

>  <Rbt.Library>
libRbt.so (2013.1, Build901 2013/11/27)

>  <Rbt.Parameter_File>
/export/apps/rDock/src/rDock_2013.1_src/data/scripts/dock_solv.prm

>  <Rbt.Receptor>
prm/blind_docking_80.prm

>  <SCORE>
-9.27749

>  <SCORE.INTER>
-8.30074

>  <SCORE.INTER.CONST>
1

>  <SCORE.INTER.POLAR>
0

>  <SCORE.INTER.ROT>
5

>  <SCORE.INTER.SOLV>
15.0789

>  <SCORE.INTER.VDW>
-17.4935

>  <SCORE.INTER.norm>
-0.830074

>  <SCORE.INTRA>
-0.976749

>  <SCORE.INTRA.DIHEDRAL>
-0.533903

>  <SCORE.INTRA.DIHEDRAL.0>
2.56603

>  <SCORE.INTRA.POLAR>
0

>  <SCORE.INTRA.POLAR.0>
0

>  <SCORE.INTRA.REPUL>
0

>  <SCORE.INTRA.REPUL.0>
0

>  <SCORE.INTRA.SOLV>
-1.57863

>  <SCORE.INTRA.SOLV.lig_0>
-32.0799

>  <SCORE.INTRA.VDW>
0.0795164

>  <SCORE.INTRA.VDW.0>
-0.618248

>  <SCORE.INTRA.norm>
-0.0976749

>  <SCORE.RESTR>
0

>  <SCORE.RESTR.CAVITY>
0

>  <SCORE.RESTR.norm>
0

>  <SCORE.SYSTEM>
0

>  <SCORE.SYSTEM.CONST>
0

>  <SCORE.SYSTEM.DIHEDRAL>
0

>  <SCORE.SYSTEM.SOLV>
0

>  <SCORE.SYSTEM.norm>
0

>  <SCORE.heavy>
10

>  <SCORE.norm>
-0.927749

>  <RMSD>
5.543

$$$$
ligand
 OpenBabel11021811473D
libRbt.so/2013.1/901 2013/11/27
 10  9  0  0  0  0  0  0  0  0999 V2000
   26.5159   16.0037   19.6671 N   0  0  0  0  0  0  0  0  0  0  0  0
   27.8093   15.4883   19.1243 C   0  0  2  0  0  0  0  0  0  0  0  0
   27.6620   14.9070   17.7134 C   0  0  0  0  0  0  0  0  0  0  0  0
   27.0050   13.8791   17.4908 O   0  0  0  0  0  0  0  0  0  0  0  0
   28.4353   14.4702   20.0812 C   0  0  0  0  0  0  0  0  0  0  0  0
   29.0518   15.1054   21.3067 C   0  0  0  0  0  0  0  0  0  0  0  0
   30.2603   15.9398   20.9579 C   0  0  0  0  0  0  0  0  0  0  0  0
   30.8637   16.5830   22.2019 C   0  0  0  0  0  0  0  0  0  0  0  0
   32.0398   17.4463   21.9110 N   0  0  0  0  0  0  0  0  0  0  0  0
   28.1680   15.4699   16.7377 O   0  0  0  0  0  0  0  0  0  0  0  0
  2  1  1  1  0  0  0
  2  3  1  0  0  0  0
  2  5  1  0  0  0  0
  3  4  1  0  0  0  0
  3 10  1  0  0  0  0
  5  6  1  0  0  0  0
  6  7  1  0  0  0  0
  7  8  1  0  0  0  0
  8  9  1  0  0  0  0
M  END
>  <CHROM.1>
-66.68766686,-74.68636571,-67.18128621,179.52386178,-178.53800294,28.77050916
15.51420760,19.67897949,2.35566907,-0.46405834,-1.56766935

>  <Name>
ligand

>  <RI>
0

>  <Rbt.Current_Directory>
/home/itssahil/PROJECTS/Mol_Feturizer/New_Systems/rnas/3DIY

>  <Rbt.Executable>
rbdock ($Id: //depot/dev/client3/rdock/2013.1/src/exe/rbdock.cxx#4 $)

>  <Rbt.Library>
libRbt.so (2013.1, Build901 2013/11/27)

>  <Rbt.Parameter_File>
/export/apps/rDock/src/rDock_2013.1_src/data/scripts/dock_solv.prm

>  <Rbt.Receptor>
prm/pocket_docking_5.prm

>  <SCORE>
-8.13895

>  <SCORE.INTER>
-7.8969

>  <SCORE.INTER.CONST>
1

>  <SCORE.INTER.POLAR>
0

>  <SCORE.INTER.ROT>
5

>  <SCORE.INTER.SOLV>
15.2198

>  <SCORE.INTER.VDW>
-17.2712

>  <SCORE.INTER.norm>
-0.78969

>  <SCORE.INTRA>
-0.242053

>  <SCORE.INTRA.DIHEDRAL>
0.00236353

>  <SCORE.INTRA.DIHEDRAL.0>
2.56603

>  <SCORE.INTRA.POLAR>
0

>  <SCORE.INTRA.POLAR.0>
0

>  <SCORE.INTRA.REPUL>
0

>  <SCORE.INTRA.REPUL.0>
0

>  <SCORE.INTRA.SOLV>
-0.454267

>  <SCORE.INTRA.SOLV.lig_0>
-32.0799

>  <SCORE.INTRA.VDW>
-0.0161018

>  <SCORE.INTRA.VDW.0>
-0.618248

>  <SCORE.INTRA.norm>
-0.0242053

>  <SCORE.RESTR>
0

>  <SCORE.RESTR.CAVITY>
0

>  <SCORE.RESTR.norm>
0

>  <SCORE.SYSTEM>
0

>  <SCORE.SYSTEM.CONST>
0

>  <SCORE.SYSTEM.DIHEDRAL>
0

>  <SCORE.SYSTEM.SOLV>
0

>  <SCORE.SYSTEM.norm>
0

>  <SCORE.heavy>
10

>  <SCORE.norm>
-0.813895

>  <RMSD>
5.544

$$$$
ligand
 OpenBabel11021811473D
libRbt.so/2013.1/901 2013/11/27
 10  9  0  0  0  0  0  0  0  0999 V2000
   26.4499   14.6874   20.1906 N   0  0  0  0  0  0  0  0  0  0  0  0
   27.5058   15.3893   19.3998 C   0  0  2  0  0  0  0  0  0  0  0  0
   27.5667   14.9064   17.9461 C   0  0  0  0  0  0  0  0  0  0  0  0
   28.1743   15.5374   17.0682 O   0  0  0  0  0  0  0  0  0  0  0  0
   28.8707   15.2667   20.0827 C   0  0  0  0  0  0  0  0  0  0  0  0
   28.8695   15.7653   21.5099 C   0  0  0  0  0  0  0  0  0  0  0  0
   30.2689   15.8866   22.0626 C   0  0  0  0  0  0  0  0  0  0  0  0
   31.0127   17.0567   21.4278 C   0  0  0  0  0  0  0  0  0  0  0  0
   32.3803   17.2574   21.9779 N   0  0  0  0  0  0  0  0  0  0  0  0
   27.0379   13.8434   17.6064 O   0  0  0  0  0  0  0  0  0  0  0  0
  2  1  1  1  0  0  0
  2  3  1  0  0  0  0
  2  5  1  0  0  0  0
  3  4  1  0  0  0  0
  3 10  1  0  0  0  0
  5  6  1  0  0  0  0
  6  7  1  0  0  0  0
  7  8  1  0  0  0  0
  8  9  1  0  0  0  0
M  END
>  <CHROM.1>
165.12239521,-55.56923073,-168.75124645,71.51208172,177.60798579,28.80689683
15.54577236,19.88653981,2.42389710,-0.47148020,-1.59261704

>  <Name>
ligand

>  <RI>
0

>  <Rbt.Current_Directory>
/home/itssahil/PROJECTS/Mol_Feturizer/New_Systems/rnas/3DIY

>  <Rbt.Executable>
rbdock ($Id: //depot/dev/client3/rdock/2013.1/src/exe/rbdock.cxx#4 $)

>  <Rbt.Library>
libRbt.so (2013.1, Build901 2013/11/27)

>  <Rbt.Parameter_File>
/export/apps/rDock/src/rDock_2013.1_src/data/scripts/dock_solv.prm

>  <Rbt.Receptor>
prm/pocket_docking_7.prm

>  <SCORE>
-8.04355

>  <SCORE.INTER>
-8.33184

>  <SCORE.INTER.CONST>
1

>  <SCORE.INTER.POLAR>
0

>  <SCORE.INTER.ROT>
5

>  <SCORE.INTER.SOLV>
15.486

>  <SCORE.INTER.VDW>
-17.6499

>  <SCORE.INTER.norm>
-0.833184

>  <SCORE.INTRA>
0.288286

>  <SCORE.INTRA.DIHEDRAL>
0.0573608

>  <SCORE.INTRA.DIHEDRAL.0>
2.56603

>  <SCORE.INTRA.POLAR>
0

>  <SCORE.INTRA.POLAR.0>
0

>  <SCORE.INTRA.REPUL>
0

>  <SCORE.INTRA.REPUL.0>
0

>  <SCORE.INTRA.SOLV>
-0.438227

>  <SCORE.INTRA.SOLV.lig_0>
-32.0799

>  <SCORE.INTRA.VDW>
0.478719

>  <SCORE.INTRA.VDW.0>
-0.618248

>  <SCORE.INTRA.norm>
0.0288286

>  <SCORE.RESTR>
0

>  <SCORE.RESTR.CAVITY>
0

>  <SCORE.RESTR.norm>
0

>  <SCORE.SYSTEM>
0

>  <SCORE.SYSTEM.CONST>
0

>  <SCORE.SYSTEM.DIHEDRAL>
0

>  <SCORE.SYSTEM.SOLV>
0

>  <SCORE.SYSTEM.norm>
0

>  <SCORE.heavy>
10

>  <SCORE.norm>
-0.804355

>  <RMSD>
5.544

$$$$
ligand
 OpenBabel11021811473D
libRbt.so/2013.1/901 2013/11/27
 10  9  0  0  0  0  0  0  0  0999 V2000
   27.0913   14.3544   18.3199 N   0  0  0  0  0  0  0  0  0  0  0  0
   27.7128   14.5982   19.6568 C   0  0  2  0  0  0  0  0  0  0  0  0
   26.6730   14.9237   20.7352 C   0  0  0  0  0  0  0  0  0  0  0  0
   25.4675   15.0458   20.4711 O   0  0  0  0  0  0  0  0  0  0  0  0
   28.7826   15.6901   19.5701 C   0  0  0  0  0  0  0  0  0  0  0  0
   29.6170   15.8075   20.8253 C   0  0  0  0  0  0  0  0  0  0  0  0
   30.6549   16.8972   20.7087 C   0  0  0  0  0  0  0  0  0  0  0  0
   31.5643   16.9254   21.9324 C   0  0  0  0  0  0  0  0  0  0  0  0
   32.5787   18.0129   21.8914 N   0  0  0  0  0  0  0  0  0  0  0  0
   27.0008   15.0401   21.9201 O   0  0  0  0  0  0  0  0  0  0  0  0
  2  1  1  6  0  0  0
  2  3  1  0  0  0  0
  2  5  1  0  0  0  0
  3  4  1  0  0  0  0
  3 10  1  0  0  0  0
  5  6  1  0  0  0  0
  6  7  1  0  0  0  0
  7  8  1  0  0  0  0
  8  9  1  0  0  0  0
M  END
>  <CHROM.1>
-4.22732920,-169.58463575,-179.66094019,-175.17520460,-178.02393119,28.68093439
15.72980204,20.62466011,-2.77610975,0.37435386,1.30045060

>  <Name>
ligand

>  <RI>
0

>  <Rbt.Current_Directory>
/home/itssahil/PROJECTS/Mol_Feturizer/New_Systems/rnas/3DIY

>  <Rbt.Executable>
rbdock ($Id: //depot/dev/client3/rdock/2013.1/src/exe/rbdock.cxx#4 $)

>  <Rbt.Library>
libRbt.so (2013.1, Build901 2013/11/27)

>  <Rbt.Parameter_File>
/export/apps/rDock/src/rDock_2013.1_src/data/scripts/dock_solv.prm

>  <Rbt.Receptor>
prm/pocket_docking_3.prm

>  <SCORE>
-9.29201

>  <SCORE.INTER>
-8.36321

>  <SCORE.INTER.CONST>
1

>  <SCORE.INTER.POLAR>
0

>  <SCORE.INTER.ROT>
5

>  <SCORE.INTER.SOLV>
15.0097

>  <SCORE.INTER.VDW>
-17.512

>  <SCORE.INTER.norm>
-0.836321

>  <SCORE.INTRA>
-0.928803

>  <SCORE.INTRA.DIHEDRAL>
-0.506701

>  <SCORE.INTRA.DIHEDRAL.0>
2.56603

>  <SCORE.INTRA.POLAR>
0

>  <SCORE.INTRA.POLAR.0>
0

>  <SCORE.INTRA.REPUL>
0

>  <SCORE.INTRA.REPUL.0>
0

>  <SCORE.INTRA.SOLV>
-1.58484

>  <SCORE.INTRA.SOLV.lig_0>
-32.0799

>  <SCORE.INTRA.VDW>
0.116967

>  <SCORE.INTRA.VDW.0>
-0.618248

>  <SCORE.INTRA.norm>
-0.0928803

>  <SCORE.RESTR>
0

>  <SCORE.RESTR.CAVITY>
0

>  <SCORE.RESTR.norm>
0

>  <SCORE.SYSTEM>
0

>  <SCORE.SYSTEM.CONST>
0

>  <SCORE.SYSTEM.DIHEDRAL>
0

>  <SCORE.SYSTEM.SOLV>
0

>  <SCORE.SYSTEM.norm>
0

>  <SCORE.heavy>
10

>  <SCORE.norm>
-0.929201

>  <RMSD>
5.545

$$$$
ligand
 OpenBabel11021811473D
libRbt.so/2013.1/901 2013/11/27
 10  9  0  0  0  0  0  0  0  0999 V2000
   27.1351   14.3197   18.2966 N   0  0  0  0  0  0  0  0  0  0  0  0
   27.7357   14.5828   19.6394 C   0  0  2  0  0  0  0  0  0  0  0  0
   26.6777   14.9039   20.7013 C   0  0  0  0  0  0  0  0  0  0  0  0
   26.9626   15.0058   21.9039 O   0  0  0  0  0  0  0  0  0  0  0  0
   28.7924   15.6877   19.5572 C   0  0  0  0  0  0  0  0  0  0  0  0
   29.6504   15.7848   20.7981 C   0  0  0  0  0  0  0  0  0  0  0  0
   30.6732   16.8893   20.6876 C   0  0  0  0  0  0  0  0  0  0  0  0
   31.5787   16.9268   21.9140 C   0  0  0  0  0  0  0  0  0  0  0  0
   32.5807   18.0258   21.8769 N   0  0  0  0  0  0  0  0  0  0  0  0
   25.5018   15.1095   20.3855 O   0  0  0  0  0  0  0  0  0  0  0  0
  2  1  1  6  0  0  0
  2  3  1  0  0  0  0
  2  5  1  0  0  0  0
  3  4  1  0  0  0  0
  3 10  1  0  0  0  0
  5  6  1  0  0  0  0
  6  7  1  0  0  0  0
  7  8  1  0  0  0  0
  8  9  1  0  0  0  0
M  END
>  <CHROM.1>
171.89923473,-166.95492237,-179.56969556,-176.97037809,-178.21367277,28.69509109
15.72472221,20.59699901,-2.76905893,0.37047016,1.28955457

>  <Name>
ligand

>  <RI>
0

>  <Rbt.Current_Directory>
/home/itssahil/PROJECTS/Mol_Feturizer/New_Systems/rnas/3DIY

>  <Rbt.Executable>
rbdock ($Id: //depot/dev/client3/rdock/2013.1/src/exe/rbdock.cxx#4 $)

>  <Rbt.Library>
libRbt.so (2013.1, Build901 2013/11/27)

>  <Rbt.Parameter_File>
/export/apps/rDock/src/rDock_2013.1_src/data/scripts/dock_solv.prm

>  <Rbt.Receptor>
prm/blind_docking_60.prm

>  <SCORE>
-9.33633

>  <SCORE.INTER>
-8.30417

>  <SCORE.INTER.CONST>
1

>  <SCORE.INTER.POLAR>
0

>  <SCORE.INTER.ROT>
5

>  <SCORE.INTER.SOLV>
14.9788

>  <SCORE.INTER.VDW>
-17.4624

>  <SCORE.INTER.norm>
-0.830417

>  <SCORE.INTRA>
-1.03216

>  <SCORE.INTRA.DIHEDRAL>
-0.40894

>  <SCORE.INTRA.DIHEDRAL.0>
2.56603

>  <SCORE.INTRA.POLAR>
0

>  <SCORE.INTRA.POLAR.0>
0

>  <SCORE.INTRA.REPUL>
0

>  <SCORE.INTRA.REPUL.0>
0

>  <SCORE.INTRA.SOLV>
-1.57795

>  <SCORE.INTRA.SOLV.lig_0>
-32.0799

>  <SCORE.INTRA.VDW>
-0.0387136

>  <SCORE.INTRA.VDW.0>
-0.618248

>  <SCORE.INTRA.norm>
-0.103216

>  <SCORE.RESTR>
0

>  <SCORE.RESTR.CAVITY>
0

>  <SCORE.RESTR.norm>
0

>  <SCORE.SYSTEM>
0

>  <SCORE.SYSTEM.CONST>
0

>  <SCORE.SYSTEM.DIHEDRAL>
0

>  <SCORE.SYSTEM.SOLV>
0

>  <SCORE.SYSTEM.norm>
0

>  <SCORE.heavy>
10

>  <SCORE.norm>
-0.933633

>  <RMSD>
5.546

$$$$
ligand
 OpenBabel11021811473D
libRbt.so/2013.1/901 2013/11/27
 10  9  0  0  0  0  0  0  0  0999 V2000
   26.4690   14.6343   20.1645 N   0  0  0  0  0  0  0  0  0  0  0  0
   27.5137   15.3542   19.3749 C   0  0  2  0  0  0  0  0  0  0  0  0
   27.5755   14.8816   17.9179 C   0  0  0  0  0  0  0  0  0  0  0  0
   28.1763   15.5233   17.0431 O   0  0  0  0  0  0  0  0  0  0  0  0
   28.8822   15.2438   20.0525 C   0  0  0  0  0  0  0  0  0  0  0  0
   28.8809   15.7380   21.4813 C   0  0  0  0  0  0  0  0  0  0  0  0
   30.2805   15.8631   22.0325 C   0  0  0  0  0  0  0  0  0  0  0  0
   31.0144   17.0460   21.4100 C   0  0  0  0  0  0  0  0  0  0  0  0
   32.4105   17.2010   21.8999 N   0  0  0  0  0  0  0  0  0  0  0  0
   27.0545   13.8168   17.5720 O   0  0  0  0  0  0  0  0  0  0  0  0
  2  1  1  1  0  0  0
  2  3  1  0  0  0  0
  2  5  1  0  0  0  0
  3  4  1  0  0  0  0
  3 10  1  0  0  0  0
  5  6  1  0  0  0  0
  6  7  1  0  0  0  0
  7  8  1  0  0  0  0
  8  9  1  0  0  0  0
M  END
>  <CHROM.1>
165.37931589,-55.78938255,-169.14753098,72.04380510,-178.92064605,28.81898502
15.51657054,19.85416643,2.42832334,-0.47319615,-1.58857503

>  <Name>
ligand

>  <RI>
0

>  <Rbt.Current_Directory>
/home/itssahil/PROJECTS/Mol_Feturizer/New_Systems/rnas/3DIY

>  <Rbt.Executable>
rbdock ($Id: //depot/dev/client3/rdock/2013.1/src/exe/rbdock.cxx#4 $)

>  <Rbt.Library>
libRbt.so (2013.1, Build901 2013/11/27)

>  <Rbt.Parameter_File>
/export/apps/rDock/src/rDock_2013.1_src/data/scripts/dock_solv.prm

>  <Rbt.Receptor>
prm/blind_docking_80.prm

>  <SCORE>
-8.04494

>  <SCORE.INTER>
-8.315

>  <SCORE.INTER.CONST>
1

>  <SCORE.INTER.POLAR>
0

>  <SCORE.INTER.ROT>
5

>  <SCORE.INTER.SOLV>
15.4604

>  <SCORE.INTER.VDW>
-17.6301

>  <SCORE.INTER.norm>
-0.8315

>  <SCORE.INTRA>
0.270059

>  <SCORE.INTRA.DIHEDRAL>
0.0486144

>  <SCORE.INTRA.DIHEDRAL.0>
2.56603

>  <SCORE.INTRA.POLAR>
0

>  <SCORE.INTRA.POLAR.0>
0

>  <SCORE.INTRA.REPUL>
0

>  <SCORE.INTRA.REPUL.0>
0

>  <SCORE.INTRA.SOLV>
-0.424577

>  <SCORE.INTRA.SOLV.lig_0>
-32.0799

>  <SCORE.INTRA.VDW>
0.45804

>  <SCORE.INTRA.VDW.0>
-0.618248

>  <SCORE.INTRA.norm>
0.0270059

>  <SCORE.RESTR>
0

>  <SCORE.RESTR.CAVITY>
0

>  <SCORE.RESTR.norm>
0

>  <SCORE.SYSTEM>
0

>  <SCORE.SYSTEM.CONST>
0

>  <SCORE.SYSTEM.DIHEDRAL>
0

>  <SCORE.SYSTEM.SOLV>
0

>  <SCORE.SYSTEM.norm>
0

>  <SCORE.heavy>
10

>  <SCORE.norm>
-0.804494

>  <RMSD>
5.546

$$$$
ligand
 OpenBabel11021811473D
libRbt.so/2013.1/901 2013/11/27
 10  9  0  0  0  0  0  0  0  0999 V2000
   26.4879   15.9764   19.6610 N   0  0  0  0  0  0  0  0  0  0  0  0
   27.7783   15.4404   19.1312 C   0  0  2  0  0  0  0  0  0  0  0  0
   27.6424   14.8883   17.7075 C   0  0  0  0  0  0  0  0  0  0  0  0
   28.1490   15.4587   16.7297 O   0  0  0  0  0  0  0  0  0  0  0  0
   28.3634   14.3906   20.0798 C   0  0  0  0  0  0  0  0  0  0  0  0
   28.9777   14.9893   21.3247 C   0  0  0  0  0  0  0  0  0  0  0  0
   30.2051   15.8080   21.0061 C   0  0  0  0  0  0  0  0  0  0  0  0
   30.7790   16.4528   22.2631 C   0  0  0  0  0  0  0  0  0  0  0  0
   31.9770   17.2955   22.0023 N   0  0  0  0  0  0  0  0  0  0  0  0
   27.0490   13.8274   17.4908 O   0  0  0  0  0  0  0  0  0  0  0  0
  2  1  1  1  0  0  0
  2  3  1  0  0  0  0
  2  5  1  0  0  0  0
  3  4  1  0  0  0  0
  3 10  1  0  0  0  0
  5  6  1  0  0  0  0
  6  7  1  0  0  0  0
  7  8  1  0  0  0  0
  8  9  1  0  0  0  0
M  END
>  <CHROM.1>
109.74468445,-74.91723002,-66.64870703,177.60709436,-178.84289230,28.73137325
15.43792482,19.69917955,2.33882623,-0.46230304,-1.55158585

>  <Name>
ligand

>  <RI>
0

>  <Rbt.Current_Directory>
/home/itssahil/PROJECTS/Mol_Feturizer/New_Systems/rnas/3DIY

>  <Rbt.Executable>
rbdock ($Id: //depot/dev/client3/rdock/2013.1/src/exe/rbdock.cxx#4 $)

>  <Rbt.Library>
libRbt.so (2013.1, Build901 2013/11/27)

>  <Rbt.Parameter_File>
/export/apps/rDock/src/rDock_2013.1_src/data/scripts/dock_solv.prm

>  <Rbt.Receptor>
prm/pocket_docking_4.prm

>  <SCORE>
-8.03441

>  <SCORE.INTER>
-7.89757

>  <SCORE.INTER.CONST>
1

>  <SCORE.INTER.POLAR>
0

>  <SCORE.INTER.ROT>
5

>  <SCORE.INTER.SOLV>
15.4741

>  <SCORE.INTER.VDW>
-17.3564

>  <SCORE.INTER.norm>
-0.789757

>  <SCORE.INTRA>
-0.136831

>  <SCORE.INTRA.DIHEDRAL>
0.0925853

>  <SCORE.INTRA.DIHEDRAL.0>
2.56603

>  <SCORE.INTRA.POLAR>
0

>  <SCORE.INTRA.POLAR.0>
0

>  <SCORE.INTRA.REPUL>
0

>  <SCORE.INTRA.REPUL.0>
0

>  <SCORE.INTRA.SOLV>
-0.468332

>  <SCORE.INTRA.SOLV.lig_0>
-32.0799

>  <SCORE.INTRA.VDW>
0.051042

>  <SCORE.INTRA.VDW.0>
-0.618248

>  <SCORE.INTRA.norm>
-0.0136831

>  <SCORE.RESTR>
0

>  <SCORE.RESTR.CAVITY>
0

>  <SCORE.RESTR.norm>
0

>  <SCORE.SYSTEM>
0

>  <SCORE.SYSTEM.CONST>
0

>  <SCORE.SYSTEM.DIHEDRAL>
0

>  <SCORE.SYSTEM.SOLV>
0

>  <SCORE.SYSTEM.norm>
0

>  <SCORE.heavy>
10

>  <SCORE.norm>
-0.803441

>  <RMSD>
5.546

$$$$
ligand
 OpenBabel11021811473D
libRbt.so/2013.1/901 2013/11/27
 10  9  0  0  0  0  0  0  0  0999 V2000
   27.0901   14.4078   18.2849 N   0  0  0  0  0  0  0  0  0  0  0  0
   27.7239   14.5916   19.6256 C   0  0  2  0  0  0  0  0  0  0  0  0
   26.6943   14.8714   20.7265 C   0  0  0  0  0  0  0  0  0  0  0  0
   25.4881   15.0163   20.4776 O   0  0  0  0  0  0  0  0  0  0  0  0
   28.7952   15.6844   19.5773 C   0  0  0  0  0  0  0  0  0  0  0  0
   29.6775   15.7082   20.8046 C   0  0  0  0  0  0  0  0  0  0  0  0
   30.7512   16.7642   20.7029 C   0  0  0  0  0  0  0  0  0  0  0  0
   31.6713   16.7337   21.9185 C   0  0  0  0  0  0  0  0  0  0  0  0
   32.6602   17.8450   21.9408 N   0  0  0  0  0  0  0  0  0  0  0  0
   27.0312   14.9258   21.9132 O   0  0  0  0  0  0  0  0  0  0  0  0
  2  1  1  6  0  0  0
  2  3  1  0  0  0  0
  2  5  1  0  0  0  0
  3  4  1  0  0  0  0
  3 10  1  0  0  0  0
  5  6  1  0  0  0  0
  6  7  1  0  0  0  0
  7  8  1  0  0  0  0
  8  9  1  0  0  0  0
M  END
>  <CHROM.1>
-4.74615364,-167.21290062,178.01878730,-177.40968599,-173.91774612,28.72500239
15.65437469,20.61913503,-2.79959750,0.36342803,1.35370376

>  <Name>
ligand

>  <RI>
0

>  <Rbt.Current_Directory>
/home/itssahil/PROJECTS/Mol_Feturizer/New_Systems/rnas/3DIY

>  <Rbt.Executable>
rbdock ($Id: //depot/dev/client3/rdock/2013.1/src/exe/rbdock.cxx#4 $)

>  <Rbt.Library>
libRbt.so (2013.1, Build901 2013/11/27)

>  <Rbt.Parameter_File>
/export/apps/rDock/src/rDock_2013.1_src/data/scripts/dock_solv.prm

>  <Rbt.Receptor>
prm/pocket_docking_3.prm

>  <SCORE>
-9.14388

>  <SCORE.INTER>
-8.26141

>  <SCORE.INTER.CONST>
1

>  <SCORE.INTER.POLAR>
0

>  <SCORE.INTER.ROT>
5

>  <SCORE.INTER.SOLV>
14.9483

>  <SCORE.INTER.VDW>
-17.4237

>  <SCORE.INTER.norm>
-0.826141

>  <SCORE.INTRA>
-0.88247

>  <SCORE.INTRA.DIHEDRAL>
-0.238296

>  <SCORE.INTRA.DIHEDRAL.0>
2.56603

>  <SCORE.INTRA.POLAR>
0

>  <SCORE.INTRA.POLAR.0>
0

>  <SCORE.INTRA.REPUL>
0

>  <SCORE.INTRA.REPUL.0>
0

>  <SCORE.INTRA.SOLV>
-1.57898

>  <SCORE.INTRA.SOLV.lig_0>
-32.0799

>  <SCORE.INTRA.VDW>
0.0261656

>  <SCORE.INTRA.VDW.0>
-0.618248

>  <SCORE.INTRA.norm>
-0.088247

>  <SCORE.RESTR>
0

>  <SCORE.RESTR.CAVITY>
0

>  <SCORE.RESTR.norm>
0

>  <SCORE.SYSTEM>
0

>  <SCORE.SYSTEM.CONST>
0

>  <SCORE.SYSTEM.DIHEDRAL>
0

>  <SCORE.SYSTEM.SOLV>
0

>  <SCORE.SYSTEM.norm>
0

>  <SCORE.heavy>
10

>  <SCORE.norm>
-0.914388

>  <RMSD>
5.547

$$$$
ligand
 OpenBabel11021811473D
libRbt.so/2013.1/901 2013/11/27
 10  9  0  0  0  0  0  0  0  0999 V2000
   27.1334   14.3074   18.2972 N   0  0  0  0  0  0  0  0  0  0  0  0
   27.7298   14.5742   19.6411 C   0  0  2  0  0  0  0  0  0  0  0  0
   26.6686   14.8990   20.6987 C   0  0  0  0  0  0  0  0  0  0  0  0
   26.9510   15.0117   21.9010 O   0  0  0  0  0  0  0  0  0  0  0  0
   28.7873   15.6784   19.5590 C   0  0  0  0  0  0  0  0  0  0  0  0
   29.6109   15.8093   20.8200 C   0  0  0  0  0  0  0  0  0  0  0  0
   30.6619   16.8854   20.6940 C   0  0  0  0  0  0  0  0  0  0  0  0
   31.5397   16.9470   21.9394 C   0  0  0  0  0  0  0  0  0  0  0  0
   32.5611   18.0275   21.8911 N   0  0  0  0  0  0  0  0  0  0  0  0
   25.4923   15.0969   20.3793 O   0  0  0  0  0  0  0  0  0  0  0  0
  2  1  1  6  0  0  0
  2  3  1  0  0  0  0
  2  5  1  0  0  0  0
  3  4  1  0  0  0  0
  3 10  1  0  0  0  0
  5  6  1  0  0  0  0
  6  7  1  0  0  0  0
  7  8  1  0  0  0  0
  8  9  1  0  0  0  0
M  END
>  <CHROM.1>
172.30469406,-168.87548580,178.77436331,-176.47477149,-177.76325591,28.67986733
15.72483791,20.60287722,-2.76227061,0.37161819,1.28460184

>  <Name>
ligand

>  <RI>
0

>  <Rbt.Current_Directory>
/home/itssahil/PROJECTS/Mol_Feturizer/New_Systems/rnas/3DIY

>  <Rbt.Executable>
rbdock ($Id: //depot/dev/client3/rdock/2013.1/src/exe/rbdock.cxx#4 $)

>  <Rbt.Library>
libRbt.so (2013.1, Build901 2013/11/27)

>  <Rbt.Parameter_File>
/export/apps/rDock/src/rDock_2013.1_src/data/scripts/dock_solv.prm

>  <Rbt.Receptor>
prm/pocket_docking_7.prm

>  <SCORE>
-9.35754

>  <SCORE.INTER>
-8.32208

>  <SCORE.INTER.CONST>
1

>  <SCORE.INTER.POLAR>
0

>  <SCORE.INTER.ROT>
5

>  <SCORE.INTER.SOLV>
14.9842

>  <SCORE.INTER.VDW>
-17.4761

>  <SCORE.INTER.norm>
-0.832208

>  <SCORE.INTRA>
-1.03546

>  <SCORE.INTRA.DIHEDRAL>
-0.545984

>  <SCORE.INTRA.DIHEDRAL.0>
2.56603

>  <SCORE.INTRA.POLAR>
0

>  <SCORE.INTRA.POLAR.0>
0

>  <SCORE.INTRA.REPUL>
0

>  <SCORE.INTRA.REPUL.0>
0

>  <SCORE.INTRA.SOLV>
-1.58073

>  <SCORE.INTRA.SOLV.lig_0>
-32.0799

>  <SCORE.INTRA.VDW>
0.0278961

>  <SCORE.INTRA.VDW.0>
-0.618248

>  <SCORE.INTRA.norm>
-0.103546

>  <SCORE.RESTR>
0

>  <SCORE.RESTR.CAVITY>
0

>  <SCORE.RESTR.norm>
0

>  <SCORE.SYSTEM>
0

>  <SCORE.SYSTEM.CONST>
0

>  <SCORE.SYSTEM.DIHEDRAL>
0

>  <SCORE.SYSTEM.SOLV>
0

>  <SCORE.SYSTEM.norm>
0

>  <SCORE.heavy>
10

>  <SCORE.norm>
-0.935754

>  <RMSD>
5.548

$$$$
ligand
 OpenBabel11021811473D
libRbt.so/2013.1/901 2013/11/27
 10  9  0  0  0  0  0  0  0  0999 V2000
   27.0889   14.3039   18.3368 N   0  0  0  0  0  0  0  0  0  0  0  0
   27.7103   14.5656   19.6704 C   0  0  2  0  0  0  0  0  0  0  0  0
   26.6689   14.8839   20.7493 C   0  0  0  0  0  0  0  0  0  0  0  0
   26.9816   15.0434   21.9388 O   0  0  0  0  0  0  0  0  0  0  0  0
   28.7645   15.6718   19.5733 C   0  0  0  0  0  0  0  0  0  0  0  0
   29.6112   15.7987   20.8192 C   0  0  0  0  0  0  0  0  0  0  0  0
   30.6533   16.8819   20.6810 C   0  0  0  0  0  0  0  0  0  0  0  0
   31.5546   16.9396   21.9096 C   0  0  0  0  0  0  0  0  0  0  0  0
   32.5850   18.0105   21.8384 N   0  0  0  0  0  0  0  0  0  0  0  0
   25.4773   15.0293   20.4597 O   0  0  0  0  0  0  0  0  0  0  0  0
  2  1  1  6  0  0  0
  2  3  1  0  0  0  0
  2  5  1  0  0  0  0
  3  4  1  0  0  0  0
  3 10  1  0  0  0  0
  5  6  1  0  0  0  0
  6  7  1  0  0  0  0
  7  8  1  0  0  0  0
  8  9  1  0  0  0  0
M  END
>  <CHROM.1>
175.18909810,-168.89810577,179.07362613,-176.45847773,-178.83324804,28.67619105
15.71385477,20.61906562,-2.77899100,0.37725742,1.29027963

>  <Name>
ligand

>  <RI>
0

>  <Rbt.Current_Directory>
/home/itssahil/PROJECTS/Mol_Feturizer/New_Systems/rnas/3DIY

>  <Rbt.Executable>
rbdock ($Id: //depot/dev/client3/rdock/2013.1/src/exe/rbdock.cxx#4 $)

>  <Rbt.Library>
libRbt.so (2013.1, Build901 2013/11/27)

>  <Rbt.Parameter_File>
/export/apps/rDock/src/rDock_2013.1_src/data/scripts/dock_solv.prm

>  <Rbt.Receptor>
prm/blind_docking_80.prm

>  <SCORE>
-9.31294

>  <SCORE.INTER>
-8.32978

>  <SCORE.INTER.CONST>
1

>  <SCORE.INTER.POLAR>
0

>  <SCORE.INTER.ROT>
5

>  <SCORE.INTER.SOLV>
15.0839

>  <SCORE.INTER.VDW>
-17.5145

>  <SCORE.INTER.norm>
-0.832978

>  <SCORE.INTRA>
-0.98316

>  <SCORE.INTRA.DIHEDRAL>
-0.553574

>  <SCORE.INTRA.DIHEDRAL.0>
2.56603

>  <SCORE.INTRA.POLAR>
0

>  <SCORE.INTRA.POLAR.0>
0

>  <SCORE.INTRA.REPUL>
0

>  <SCORE.INTRA.REPUL.0>
0

>  <SCORE.INTRA.SOLV>
-1.58015

>  <SCORE.INTRA.SOLV.lig_0>
-32.0799

>  <SCORE.INTRA.VDW>
0.0837038

>  <SCORE.INTRA.VDW.0>
-0.618248

>  <SCORE.INTRA.norm>
-0.098316

>  <SCORE.RESTR>
0

>  <SCORE.RESTR.CAVITY>
0

>  <SCORE.RESTR.norm>
0

>  <SCORE.SYSTEM>
0

>  <SCORE.SYSTEM.CONST>
0

>  <SCORE.SYSTEM.DIHEDRAL>
0

>  <SCORE.SYSTEM.SOLV>
0

>  <SCORE.SYSTEM.norm>
0

>  <SCORE.heavy>
10

>  <SCORE.norm>
-0.931294

>  <RMSD>
5.549

$$$$
ligand
 OpenBabel11021811473D
libRbt.so/2013.1/901 2013/11/27
 10  9  0  0  0  0  0  0  0  0999 V2000
   27.1163   14.3240   18.2986 N   0  0  0  0  0  0  0  0  0  0  0  0
   27.7235   14.5810   19.6396 C   0  0  2  0  0  0  0  0  0  0  0  0
   26.6709   14.9000   20.7075 C   0  0  0  0  0  0  0  0  0  0  0  0
   25.4728   15.0517   20.4256 O   0  0  0  0  0  0  0  0  0  0  0  0
   28.7819   15.6842   19.5568 C   0  0  0  0  0  0  0  0  0  0  0  0
   29.6065   15.8143   20.8171 C   0  0  0  0  0  0  0  0  0  0  0  0
   30.6678   16.8796   20.6853 C   0  0  0  0  0  0  0  0  0  0  0  0
   31.5456   16.9403   21.9307 C   0  0  0  0  0  0  0  0  0  0  0  0
   32.5685   18.0193   21.8822 N   0  0  0  0  0  0  0  0  0  0  0  0
   26.9796   14.9811   21.9004 O   0  0  0  0  0  0  0  0  0  0  0  0
  2  1  1  6  0  0  0
  2  3  1  0  0  0  0
  2  5  1  0  0  0  0
  3  4  1  0  0  0  0
  3 10  1  0  0  0  0
  5  6  1  0  0  0  0
  6  7  1  0  0  0  0
  7  8  1  0  0  0  0
  8  9  1  0  0  0  0
M  END
>  <CHROM.1>
-6.69578412,-169.42883598,178.17391760,-176.50185926,-177.19241530,28.67972335
15.71761979,20.60566462,-2.77289655,0.37868368,1.30035324

>  <Name>
ligand

>  <RI>
0

>  <Rbt.Current_Directory>
/home/itssahil/PROJECTS/Mol_Feturizer/New_Systems/rnas/3DIY

>  <Rbt.Executable>
rbdock ($Id: //depot/dev/client3/rdock/2013.1/src/exe/rbdock.cxx#4 $)

>  <Rbt.Library>
libRbt.so (2013.1, Build901 2013/11/27)

>  <Rbt.Parameter_File>
/export/apps/rDock/src/rDock_2013.1_src/data/scripts/dock_solv.prm

>  <Rbt.Receptor>
prm/pocket_docking_4.prm

>  <SCORE>
-9.30087

>  <SCORE.INTER>
-8.31771

>  <SCORE.INTER.CONST>
1

>  <SCORE.INTER.POLAR>
0

>  <SCORE.INTER.ROT>
5

>  <SCORE.INTER.SOLV>
15.0105

>  <SCORE.INTER.VDW>
-17.482

>  <SCORE.INTER.norm>
-0.831771

>  <SCORE.INTRA>
-0.983151

>  <SCORE.INTRA.DIHEDRAL>
-0.503554

>  <SCORE.INTRA.DIHEDRAL.0>
2.56603

>  <SCORE.INTRA.POLAR>
0

>  <SCORE.INTRA.POLAR.0>
0

>  <SCORE.INTRA.REPUL>
0

>  <SCORE.INTRA.REPUL.0>
0

>  <SCORE.INTRA.SOLV>
-1.5841

>  <SCORE.INTRA.SOLV.lig_0>
-32.0799

>  <SCORE.INTRA.VDW>
0.0606776

>  <SCORE.INTRA.VDW.0>
-0.618248

>  <SCORE.INTRA.norm>
-0.0983151

>  <SCORE.RESTR>
0

>  <SCORE.RESTR.CAVITY>
0

>  <SCORE.RESTR.norm>
0

>  <SCORE.SYSTEM>
0

>  <SCORE.SYSTEM.CONST>
0

>  <SCORE.SYSTEM.DIHEDRAL>
0

>  <SCORE.SYSTEM.SOLV>
0

>  <SCORE.SYSTEM.norm>
0

>  <SCORE.heavy>
10

>  <SCORE.norm>
-0.930087

>  <RMSD>
5.549

$$$$
ligand
 OpenBabel11021811473D
libRbt.so/2013.1/901 2013/11/27
 10  9  0  0  0  0  0  0  0  0999 V2000
   27.0983   14.3386   18.3188 N   0  0  0  0  0  0  0  0  0  0  0  0
   27.7139   14.5955   19.6559 C   0  0  2  0  0  0  0  0  0  0  0  0
   26.6683   14.9174   20.7298 C   0  0  0  0  0  0  0  0  0  0  0  0
   25.4610   15.0153   20.4640 O   0  0  0  0  0  0  0  0  0  0  0  0
   28.7739   15.6967   19.5658 C   0  0  0  0  0  0  0  0  0  0  0  0
   29.6173   15.8151   20.8149 C   0  0  0  0  0  0  0  0  0  0  0  0
   30.6728   16.8855   20.6792 C   0  0  0  0  0  0  0  0  0  0  0  0
   31.5497   16.9560   21.9247 C   0  0  0  0  0  0  0  0  0  0  0  0
   32.5935   18.0137   21.8551 N   0  0  0  0  0  0  0  0  0  0  0  0
   26.9936   15.0551   21.9130 O   0  0  0  0  0  0  0  0  0  0  0  0
  2  1  1  6  0  0  0
  2  3  1  0  0  0  0
  2  5  1  0  0  0  0
  3  4  1  0  0  0  0
  3 10  1  0  0  0  0
  5  6  1  0  0  0  0
  6  7  1  0  0  0  0
  7  8  1  0  0  0  0
  8  9  1  0  0  0  0
M  END
>  <CHROM.1>
-3.58066267,-168.73452108,178.58473524,-177.77786277,-178.92810647,28.68074704
15.72905607,20.61365053,-2.77855639,0.37634866,1.29597983

>  <Name>
ligand

>  <RI>
0

>  <Rbt.Current_Directory>
/home/itssahil/PROJECTS/Mol_Feturizer/New_Systems/rnas/3DIY

>  <Rbt.Executable>
rbdock ($Id: //depot/dev/client3/rdock/2013.1/src/exe/rbdock.cxx#4 $)

>  <Rbt.Library>
libRbt.so (2013.1, Build901 2013/11/27)

>  <Rbt.Parameter_File>
/export/apps/rDock/src/rDock_2013.1_src/data/scripts/dock_solv.prm

>  <Rbt.Receptor>
prm/pocket_docking_5.prm

>  <SCORE>
-9.29171

>  <SCORE.INTER>
-8.33989

>  <SCORE.INTER.CONST>
1

>  <SCORE.INTER.POLAR>
0

>  <SCORE.INTER.ROT>
5

>  <SCORE.INTER.SOLV>
15.0286

>  <SCORE.INTER.VDW>
-17.5028

>  <SCORE.INTER.norm>
-0.833989

>  <SCORE.INTRA>
-0.951813

>  <SCORE.INTRA.DIHEDRAL>
-0.522148

>  <SCORE.INTRA.DIHEDRAL.0>
2.56603

>  <SCORE.INTRA.POLAR>
0

>  <SCORE.INTRA.POLAR.0>
0

>  <SCORE.INTRA.REPUL>
0

>  <SCORE.INTRA.REPUL.0>
0

>  <SCORE.INTRA.SOLV>
-1.5838

>  <SCORE.INTRA.SOLV.lig_0>
-32.0799

>  <SCORE.INTRA.VDW>
0.101163

>  <SCORE.INTRA.VDW.0>
-0.618248

>  <SCORE.INTRA.norm>
-0.0951813

>  <SCORE.RESTR>
0

>  <SCORE.RESTR.CAVITY>
0

>  <SCORE.RESTR.norm>
0

>  <SCORE.SYSTEM>
0

>  <SCORE.SYSTEM.CONST>
0

>  <SCORE.SYSTEM.DIHEDRAL>
0

>  <SCORE.SYSTEM.SOLV>
0

>  <SCORE.SYSTEM.norm>
0

>  <SCORE.heavy>
10

>  <SCORE.norm>
-0.929171

>  <RMSD>
5.549

$$$$
ligand
 OpenBabel11021811473D
libRbt.so/2013.1/901 2013/11/27
 10  9  0  0  0  0  0  0  0  0999 V2000
   27.0998   14.3195   18.3272 N   0  0  0  0  0  0  0  0  0  0  0  0
   27.7165   14.5732   19.6645 C   0  0  2  0  0  0  0  0  0  0  0  0
   26.6713   14.8844   20.7418 C   0  0  0  0  0  0  0  0  0  0  0  0
   25.4673   15.0115   20.4730 O   0  0  0  0  0  0  0  0  0  0  0  0
   28.7706   15.6803   19.5779 C   0  0  0  0  0  0  0  0  0  0  0  0
   29.6151   15.7976   20.8263 C   0  0  0  0  0  0  0  0  0  0  0  0
   30.6556   16.8837   20.6993 C   0  0  0  0  0  0  0  0  0  0  0  0
   31.5341   16.9536   21.9438 C   0  0  0  0  0  0  0  0  0  0  0  0
   32.5650   18.0245   21.8815 N   0  0  0  0  0  0  0  0  0  0  0  0
   26.9927   14.9836   21.9300 O   0  0  0  0  0  0  0  0  0  0  0  0
  2  1  1  6  0  0  0
  2  3  1  0  0  0  0
  2  5  1  0  0  0  0
  3  4  1  0  0  0  0
  3 10  1  0  0  0  0
  5  6  1  0  0  0  0
  6  7  1  0  0  0  0
  7  8  1  0  0  0  0
  8  9  1  0  0  0  0
M  END
>  <CHROM.1>
-5.48637750,-168.76785787,179.16769047,-177.78622163,-179.04362362,28.67536771
15.71104639,20.62810607,-2.77745697,0.38459045,1.30301552

>  <Name>
ligand

>  <RI>
0

>  <Rbt.Current_Directory>
/home/itssahil/PROJECTS/Mol_Feturizer/New_Systems/rnas/3DIY

>  <Rbt.Executable>
rbdock ($Id: //depot/dev/client3/rdock/2013.1/src/exe/rbdock.cxx#4 $)

>  <Rbt.Library>
libRbt.so (2013.1, Build901 2013/11/27)

>  <Rbt.Parameter_File>
/export/apps/rDock/src/rDock_2013.1_src/data/scripts/dock_solv.prm

>  <Rbt.Receptor>
prm/pocket_docking_2.prm

>  <SCORE>
-9.26745

>  <SCORE.INTER>
-8.2752

>  <SCORE.INTER.CONST>
1

>  <SCORE.INTER.POLAR>
0

>  <SCORE.INTER.ROT>
5

>  <SCORE.INTER.SOLV>
15.063

>  <SCORE.INTER.VDW>
-17.4711

>  <SCORE.INTER.norm>
-0.82752

>  <SCORE.INTRA>
-0.992255

>  <SCORE.INTRA.DIHEDRAL>
-0.524379

>  <SCORE.INTRA.DIHEDRAL.0>
2.56603

>  <SCORE.INTRA.POLAR>
0

>  <SCORE.INTRA.POLAR.0>
0

>  <SCORE.INTRA.REPUL>
0

>  <SCORE.INTRA.REPUL.0>
0

>  <SCORE.INTRA.SOLV>
-1.58368

>  <SCORE.INTRA.SOLV.lig_0>
-32.0799

>  <SCORE.INTRA.VDW>
0.0617725

>  <SCORE.INTRA.VDW.0>
-0.618248

>  <SCORE.INTRA.norm>
-0.0992255

>  <SCORE.RESTR>
0

>  <SCORE.RESTR.CAVITY>
0

>  <SCORE.RESTR.norm>
0

>  <SCORE.SYSTEM>
0

>  <SCORE.SYSTEM.CONST>
0

>  <SCORE.SYSTEM.DIHEDRAL>
0

>  <SCORE.SYSTEM.SOLV>
0

>  <SCORE.SYSTEM.norm>
0

>  <SCORE.heavy>
10

>  <SCORE.norm>
-0.926745

>  <RMSD>
5.550

$$$$
ligand
 OpenBabel11021811473D
libRbt.so/2013.1/901 2013/11/27
 10  9  0  0  0  0  0  0  0  0999 V2000
   27.0530   14.4316   18.2995 N   0  0  0  0  0  0  0  0  0  0  0  0
   27.7002   14.6302   19.6317 C   0  0  2  0  0  0  0  0  0  0  0  0
   26.6786   14.8728   20.7486 C   0  0  0  0  0  0  0  0  0  0  0  0
   25.4659   14.9896   20.5169 O   0  0  0  0  0  0  0  0  0  0  0  0
   28.7355   15.7566   19.5726 C   0  0  0  0  0  0  0  0  0  0  0  0
   29.6105   15.8266   20.8034 C   0  0  0  0  0  0  0  0  0  0  0  0
   30.6193   16.9456   20.7113 C   0  0  0  0  0  0  0  0  0  0  0  0
   31.5611   16.9388   21.9106 C   0  0  0  0  0  0  0  0  0  0  0  0
   32.5890   18.0132   21.8624 N   0  0  0  0  0  0  0  0  0  0  0  0
   27.0297   14.9238   21.9314 O   0  0  0  0  0  0  0  0  0  0  0  0
  2  1  1  6  0  0  0
  2  3  1  0  0  0  0
  2  5  1  0  0  0  0
  3  4  1  0  0  0  0
  3 10  1  0  0  0  0
  5  6  1  0  0  0  0
  6  7  1  0  0  0  0
  7  8  1  0  0  0  0
  8  9  1  0  0  0  0
M  END
>  <CHROM.1>
-5.25920120,-168.74499259,179.94287989,-175.76054156,179.27490738,28.67139721
15.73119600,20.62125322,-2.80598268,0.40278284,1.36370360

>  <Name>
ligand

>  <RI>
0

>  <Rbt.Current_Directory>
/home/itssahil/PROJECTS/Mol_Feturizer/New_Systems/rnas/3DIY

>  <Rbt.Executable>
rbdock ($Id: //depot/dev/client3/rdock/2013.1/src/exe/rbdock.cxx#4 $)

>  <Rbt.Library>
libRbt.so (2013.1, Build901 2013/11/27)

>  <Rbt.Parameter_File>
/export/apps/rDock/src/rDock_2013.1_src/data/scripts/dock_solv.prm

>  <Rbt.Receptor>
prm/pocket_docking_3.prm

>  <SCORE>
-9.17126

>  <SCORE.INTER>
-8.20798

>  <SCORE.INTER.CONST>
1

>  <SCORE.INTER.POLAR>
0

>  <SCORE.INTER.ROT>
5

>  <SCORE.INTER.SOLV>
15.1138

>  <SCORE.INTER.VDW>
-17.4433

>  <SCORE.INTER.norm>
-0.820798

>  <SCORE.INTRA>
-0.963273

>  <SCORE.INTRA.DIHEDRAL>
-0.47318

>  <SCORE.INTRA.DIHEDRAL.0>
2.56603

>  <SCORE.INTRA.POLAR>
0

>  <SCORE.INTRA.POLAR.0>
0

>  <SCORE.INTRA.REPUL>
0

>  <SCORE.INTRA.REPUL.0>
0

>  <SCORE.INTRA.SOLV>
-1.58369

>  <SCORE.INTRA.SOLV.lig_0>
-32.0799

>  <SCORE.INTRA.VDW>
0.065163

>  <SCORE.INTRA.VDW.0>
-0.618248

>  <SCORE.INTRA.norm>
-0.0963273

>  <SCORE.RESTR>
0

>  <SCORE.RESTR.CAVITY>
0

>  <SCORE.RESTR.norm>
0

>  <SCORE.SYSTEM>
0

>  <SCORE.SYSTEM.CONST>
0

>  <SCORE.SYSTEM.DIHEDRAL>
0

>  <SCORE.SYSTEM.SOLV>
0

>  <SCORE.SYSTEM.norm>
0

>  <SCORE.heavy>
10

>  <SCORE.norm>
-0.917126

>  <RMSD>
5.550

$$$$
ligand
 OpenBabel11021811473D
libRbt.so/2013.1/901 2013/11/27
 10  9  0  0  0  0  0  0  0  0999 V2000
   27.1234   14.3081   18.3067 N   0  0  0  0  0  0  0  0  0  0  0  0
   27.7227   14.5768   19.6490 C   0  0  2  0  0  0  0  0  0  0  0  0
   26.6634   14.8993   20.7092 C   0  0  0  0  0  0  0  0  0  0  0  0
   26.9442   14.9882   21.9139 O   0  0  0  0  0  0  0  0  0  0  0  0
   28.7772   15.6836   19.5638 C   0  0  0  0  0  0  0  0  0  0  0  0
   29.6105   15.8103   20.8188 C   0  0  0  0  0  0  0  0  0  0  0  0
   30.6532   16.8943   20.6924 C   0  0  0  0  0  0  0  0  0  0  0  0
   31.5574   16.9351   21.9196 C   0  0  0  0  0  0  0  0  0  0  0  0
   32.6230   17.9699   21.8359 N   0  0  0  0  0  0  0  0  0  0  0  0
   25.4909   15.1192   20.3903 O   0  0  0  0  0  0  0  0  0  0  0  0
  2  1  1  6  0  0  0
  2  3  1  0  0  0  0
  2  5  1  0  0  0  0
  3  4  1  0  0  0  0
  3 10  1  0  0  0  0
  5  6  1  0  0  0  0
  6  7  1  0  0  0  0
  7  8  1  0  0  0  0
  8  9  1  0  0  0  0
M  END
>  <CHROM.1>
170.91799468,-168.45394301,179.08818709,-175.42056380,178.83798434,28.68281087
15.71963306,20.60090537,-2.77661884,0.37016459,1.29506139

>  <Name>
ligand

>  <RI>
0

>  <Rbt.Current_Directory>
/home/itssahil/PROJECTS/Mol_Feturizer/New_Systems/rnas/3DIY

>  <Rbt.Executable>
rbdock ($Id: //depot/dev/client3/rdock/2013.1/src/exe/rbdock.cxx#4 $)

>  <Rbt.Library>
libRbt.so (2013.1, Build901 2013/11/27)

>  <Rbt.Parameter_File>
/export/apps/rDock/src/rDock_2013.1_src/data/scripts/dock_solv.prm

>  <Rbt.Receptor>
prm/pocket_docking_3.prm

>  <SCORE>
-9.307

>  <SCORE.INTER>
-8.25749

>  <SCORE.INTER.CONST>
1

>  <SCORE.INTER.POLAR>
0

>  <SCORE.INTER.ROT>
5

>  <SCORE.INTER.SOLV>
14.9994

>  <SCORE.INTER.VDW>
-17.4381

>  <SCORE.INTER.norm>
-0.825749

>  <SCORE.INTRA>
-1.04951

>  <SCORE.INTRA.DIHEDRAL>
-0.497604

>  <SCORE.INTRA.DIHEDRAL.0>
2.56603

>  <SCORE.INTRA.POLAR>
0

>  <SCORE.INTRA.POLAR.0>
0

>  <SCORE.INTRA.REPUL>
0

>  <SCORE.INTRA.REPUL.0>
0

>  <SCORE.INTRA.SOLV>
-1.5808

>  <SCORE.INTRA.SOLV.lig_0>
-32.0799

>  <SCORE.INTRA.VDW>
-0.0103018

>  <SCORE.INTRA.VDW.0>
-0.618248

>  <SCORE.INTRA.norm>
-0.104951

>  <SCORE.RESTR>
0

>  <SCORE.RESTR.CAVITY>
0

>  <SCORE.RESTR.norm>
0

>  <SCORE.SYSTEM>
0

>  <SCORE.SYSTEM.CONST>
0

>  <SCORE.SYSTEM.DIHEDRAL>
0

>  <SCORE.SYSTEM.SOLV>
0

>  <SCORE.SYSTEM.norm>
0

>  <SCORE.heavy>
10

>  <SCORE.norm>
-0.9307

>  <RMSD>
5.550

$$$$
ligand
 OpenBabel11021811473D
libRbt.so/2013.1/901 2013/11/27
 10  9  0  0  0  0  0  0  0  0999 V2000
   26.5254   16.0088   19.6329 N   0  0  0  0  0  0  0  0  0  0  0  0
   27.8002   15.4361   19.1039 C   0  0  2  0  0  0  0  0  0  0  0  0
   27.6474   14.8803   17.6834 C   0  0  0  0  0  0  0  0  0  0  0  0
   26.9763   13.8656   17.4427 O   0  0  0  0  0  0  0  0  0  0  0  0
   28.3590   14.3763   20.0572 C   0  0  0  0  0  0  0  0  0  0  0  0
   28.9801   14.9645   21.3036 C   0  0  0  0  0  0  0  0  0  0  0  0
   30.2188   15.7672   20.9876 C   0  0  0  0  0  0  0  0  0  0  0  0
   30.7960   16.4080   22.2452 C   0  0  0  0  0  0  0  0  0  0  0  0
   31.9878   17.2588   21.9826 N   0  0  0  0  0  0  0  0  0  0  0  0
   28.1632   15.4520   16.7180 O   0  0  0  0  0  0  0  0  0  0  0  0
  2  1  1  1  0  0  0
  2  3  1  0  0  0  0
  2  5  1  0  0  0  0
  3  4  1  0  0  0  0
  3 10  1  0  0  0  0
  5  6  1  0  0  0  0
  6  7  1  0  0  0  0
  7  8  1  0  0  0  0
  8  9  1  0  0  0  0
M  END
>  <CHROM.1>
-68.90592283,-74.40728612,-66.13355678,177.31731019,-177.59585678,28.73483480
15.42759240,19.67511756,2.34303050,-0.46097430,-1.53876014

>  <Name>
ligand

>  <RI>
0

>  <Rbt.Current_Directory>
/home/itssahil/PROJECTS/Mol_Feturizer/New_Systems/rnas/3DIY

>  <Rbt.Executable>
rbdock ($Id: //depot/dev/client3/rdock/2013.1/src/exe/rbdock.cxx#4 $)

>  <Rbt.Library>
libRbt.so (2013.1, Build901 2013/11/27)

>  <Rbt.Parameter_File>
/export/apps/rDock/src/rDock_2013.1_src/data/scripts/dock_solv.prm

>  <Rbt.Receptor>
prm/pocket_docking_4.prm

>  <SCORE>
-8.13861

>  <SCORE.INTER>
-7.92063

>  <SCORE.INTER.CONST>
1

>  <SCORE.INTER.POLAR>
0

>  <SCORE.INTER.ROT>
5

>  <SCORE.INTER.SOLV>
15.4586

>  <SCORE.INTER.VDW>
-17.3666

>  <SCORE.INTER.norm>
-0.792063

>  <SCORE.INTRA>
-0.217982

>  <SCORE.INTRA.DIHEDRAL>
-0.0487635

>  <SCORE.INTRA.DIHEDRAL.0>
2.56603

>  <SCORE.INTRA.POLAR>
0

>  <SCORE.INTRA.POLAR.0>
0

>  <SCORE.INTRA.REPUL>
0

>  <SCORE.INTRA.REPUL.0>
0

>  <SCORE.INTRA.SOLV>
-0.436489

>  <SCORE.INTRA.SOLV.lig_0>
-32.0799

>  <SCORE.INTRA.VDW>
0.0246439

>  <SCORE.INTRA.VDW.0>
-0.618248

>  <SCORE.INTRA.norm>
-0.0217982

>  <SCORE.RESTR>
0

>  <SCORE.RESTR.CAVITY>
0

>  <SCORE.RESTR.norm>
0

>  <SCORE.SYSTEM>
0

>  <SCORE.SYSTEM.CONST>
0

>  <SCORE.SYSTEM.DIHEDRAL>
0

>  <SCORE.SYSTEM.SOLV>
0

>  <SCORE.SYSTEM.norm>
0

>  <SCORE.heavy>
10

>  <SCORE.norm>
-0.813861

>  <RMSD>
5.550

$$$$
ligand
 OpenBabel11021811473D
libRbt.so/2013.1/901 2013/11/27
 10  9  0  0  0  0  0  0  0  0999 V2000
   28.7302   14.0516   21.8098 N   0  0  0  0  0  0  0  0  0  0  0  0
   28.2227   15.2126   21.0176 C   0  0  2  0  0  0  0  0  0  0  0  0
   27.0236   14.8417   20.1376 C   0  0  0  0  0  0  0  0  0  0  0  0
   27.1561   14.2180   19.0740 O   0  0  0  0  0  0  0  0  0  0  0  0
   29.3465   15.8399   20.1883 C   0  0  0  0  0  0  0  0  0  0  0  0
   30.5529   16.2245   21.0142 C   0  0  0  0  0  0  0  0  0  0  0  0
   31.6712   16.7639   20.1559 C   0  0  0  0  0  0  0  0  0  0  0  0
   32.8986   17.0991   20.9964 C   0  0  0  0  0  0  0  0  0  0  0  0
   32.6299   18.0997   22.0640 N   0  0  0  0  0  0  0  0  0  0  0  0
   25.8714   15.1231   20.4813 O   0  0  0  0  0  0  0  0  0  0  0  0
  2  1  1  6  0  0  0
  2  3  1  0  0  0  0
  2  5  1  0  0  0  0
  3  4  1  0  0  0  0
  3 10  1  0  0  0  0
  5  6  1  0  0  0  0
  6  7  1  0  0  0  0
  7  8  1  0  0  0  0
  8  9  1  0  0  0  0
M  END
>  <CHROM.1>
-77.09480618,-54.12002541,176.64769946,-177.91463568,-58.61719449,29.37154224
15.73396000,20.67357201,2.99805794,-0.45727752,-1.51073983

>  <Name>
ligand

>  <RI>
0

>  <Rbt.Current_Directory>
/home/itssahil/PROJECTS/Mol_Feturizer/New_Systems/rnas/3DIY

>  <Rbt.Executable>
rbdock ($Id: //depot/dev/client3/rdock/2013.1/src/exe/rbdock.cxx#4 $)

>  <Rbt.Library>
libRbt.so (2013.1, Build901 2013/11/27)

>  <Rbt.Parameter_File>
/export/apps/rDock/src/rDock_2013.1_src/data/scripts/dock_solv.prm

>  <Rbt.Receptor>
prm/pocket_docking_2.prm

>  <SCORE>
-6.96952

>  <SCORE.INTER>
-6.87313

>  <SCORE.INTER.CONST>
1

>  <SCORE.INTER.POLAR>
0

>  <SCORE.INTER.ROT>
5

>  <SCORE.INTER.SOLV>
16.3887

>  <SCORE.INTER.VDW>
-16.9783

>  <SCORE.INTER.norm>
-0.687313

>  <SCORE.INTRA>
-0.0963921

>  <SCORE.INTRA.DIHEDRAL>
-0.898331

>  <SCORE.INTRA.DIHEDRAL.0>
2.56603

>  <SCORE.INTRA.POLAR>
0

>  <SCORE.INTRA.POLAR.0>
0

>  <SCORE.INTRA.REPUL>
0

>  <SCORE.INTRA.REPUL.0>
0

>  <SCORE.INTRA.SOLV>
0.364354

>  <SCORE.INTRA.SOLV.lig_0>
-32.0799

>  <SCORE.INTRA.VDW>
0.170596

>  <SCORE.INTRA.VDW.0>
-0.618248

>  <SCORE.INTRA.norm>
-0.00963921

>  <SCORE.RESTR>
0

>  <SCORE.RESTR.CAVITY>
0

>  <SCORE.RESTR.norm>
0

>  <SCORE.SYSTEM>
0

>  <SCORE.SYSTEM.CONST>
0

>  <SCORE.SYSTEM.DIHEDRAL>
0

>  <SCORE.SYSTEM.SOLV>
0

>  <SCORE.SYSTEM.norm>
0

>  <SCORE.heavy>
10

>  <SCORE.norm>
-0.696952

>  <RMSD>
5.551

$$$$
ligand
 OpenBabel11021811473D
libRbt.so/2013.1/901 2013/11/27
 10  9  0  0  0  0  0  0  0  0999 V2000
   27.0846   14.3079   18.3430 N   0  0  0  0  0  0  0  0  0  0  0  0
   27.7059   14.5700   19.6765 C   0  0  2  0  0  0  0  0  0  0  0  0
   26.6651   14.8986   20.7530 C   0  0  0  0  0  0  0  0  0  0  0  0
   25.4567   14.9960   20.4917 O   0  0  0  0  0  0  0  0  0  0  0  0
   28.7672   15.6691   19.5772 C   0  0  0  0  0  0  0  0  0  0  0  0
   29.6119   15.7959   20.8246 C   0  0  0  0  0  0  0  0  0  0  0  0
   30.6506   16.8829   20.6902 C   0  0  0  0  0  0  0  0  0  0  0  0
   31.5483   16.9426   21.9213 C   0  0  0  0  0  0  0  0  0  0  0  0
   32.5903   18.0016   21.8437 N   0  0  0  0  0  0  0  0  0  0  0  0
   26.9954   15.0424   21.9341 O   0  0  0  0  0  0  0  0  0  0  0  0
  2  1  1  6  0  0  0
  2  3  1  0  0  0  0
  2  5  1  0  0  0  0
  3  4  1  0  0  0  0
  3 10  1  0  0  0  0
  5  6  1  0  0  0  0
  6  7  1  0  0  0  0
  7  8  1  0  0  0  0
  8  9  1  0  0  0  0
M  END
>  <CHROM.1>
-3.51603267,-168.97758250,179.73779169,-176.57080211,-179.83589416,28.67421596
15.71098320,20.62718580,-2.78083040,0.37801185,1.29203761

>  <Name>
ligand

>  <RI>
0

>  <Rbt.Current_Directory>
/home/itssahil/PROJECTS/Mol_Feturizer/New_Systems/rnas/3DIY

>  <Rbt.Executable>
rbdock ($Id: //depot/dev/client3/rdock/2013.1/src/exe/rbdock.cxx#4 $)

>  <Rbt.Library>
libRbt.so (2013.1, Build901 2013/11/27)

>  <Rbt.Parameter_File>
/export/apps/rDock/src/rDock_2013.1_src/data/scripts/dock_solv.prm

>  <Rbt.Receptor>
prm/pocket_docking_7.prm

>  <SCORE>
-9.26321

>  <SCORE.INTER>
-8.31872

>  <SCORE.INTER.CONST>
1

>  <SCORE.INTER.POLAR>
0

>  <SCORE.INTER.ROT>
5

>  <SCORE.INTER.SOLV>
15.0855

>  <SCORE.INTER.VDW>
-17.5076

>  <SCORE.INTER.norm>
-0.831872

>  <SCORE.INTRA>
-0.944491

>  <SCORE.INTRA.DIHEDRAL>
-0.525564

>  <SCORE.INTRA.DIHEDRAL.0>
2.56603

>  <SCORE.INTRA.POLAR>
0

>  <SCORE.INTRA.POLAR.0>
0

>  <SCORE.INTRA.REPUL>
0

>  <SCORE.INTRA.REPUL.0>
0

>  <SCORE.INTRA.SOLV>
-1.58429

>  <SCORE.INTRA.SOLV.lig_0>
-32.0799

>  <SCORE.INTRA.VDW>
0.110435

>  <SCORE.INTRA.VDW.0>
-0.618248

>  <SCORE.INTRA.norm>
-0.0944491

>  <SCORE.RESTR>
0

>  <SCORE.RESTR.CAVITY>
0

>  <SCORE.RESTR.norm>
0

>  <SCORE.SYSTEM>
0

>  <SCORE.SYSTEM.CONST>
0

>  <SCORE.SYSTEM.DIHEDRAL>
0

>  <SCORE.SYSTEM.SOLV>
0

>  <SCORE.SYSTEM.norm>
0

>  <SCORE.heavy>
10

>  <SCORE.norm>
-0.926321

>  <RMSD>
5.551

$$$$
ligand
 OpenBabel11021811473D
libRbt.so/2013.1/901 2013/11/27
 10  9  0  0  0  0  0  0  0  0999 V2000
   26.4773   14.6560   20.1387 N   0  0  0  0  0  0  0  0  0  0  0  0
   27.5050   15.3923   19.3420 C   0  0  2  0  0  0  0  0  0  0  0  0
   27.5883   14.8971   17.8936 C   0  0  0  0  0  0  0  0  0  0  0  0
   27.0617   13.8346   17.5304 O   0  0  0  0  0  0  0  0  0  0  0  0
   28.8725   15.3331   20.0281 C   0  0  0  0  0  0  0  0  0  0  0  0
   28.8418   15.8169   21.4600 C   0  0  0  0  0  0  0  0  0  0  0  0
   30.2305   15.9516   22.0361 C   0  0  0  0  0  0  0  0  0  0  0  0
   30.9653   17.1426   21.4305 C   0  0  0  0  0  0  0  0  0  0  0  0
   32.3267   17.3475   21.9942 N   0  0  0  0  0  0  0  0  0  0  0  0
   28.1574   15.5651   17.0248 O   0  0  0  0  0  0  0  0  0  0  0  0
  2  1  1  1  0  0  0
  2  3  1  0  0  0  0
  2  5  1  0  0  0  0
  3  4  1  0  0  0  0
  3 10  1  0  0  0  0
  5  6  1  0  0  0  0
  6  7  1  0  0  0  0
  7  8  1  0  0  0  0
  8  9  1  0  0  0  0
M  END
>  <CHROM.1>
-13.88580190,-54.25895677,-171.02425416,71.80519449,178.23337295,28.79572349
15.57995487,19.84692809,2.41325163,-0.49381274,-1.59412711

>  <Name>
ligand

>  <RI>
0

>  <Rbt.Current_Directory>
/home/itssahil/PROJECTS/Mol_Feturizer/New_Systems/rnas/3DIY

>  <Rbt.Executable>
rbdock ($Id: //depot/dev/client3/rdock/2013.1/src/exe/rbdock.cxx#4 $)

>  <Rbt.Library>
libRbt.so (2013.1, Build901 2013/11/27)

>  <Rbt.Parameter_File>
/export/apps/rDock/src/rDock_2013.1_src/data/scripts/dock_solv.prm

>  <Rbt.Receptor>
prm/pocket_docking_8.prm

>  <SCORE>
-8.06049

>  <SCORE.INTER>
-8.36356

>  <SCORE.INTER.CONST>
1

>  <SCORE.INTER.POLAR>
0

>  <SCORE.INTER.ROT>
5

>  <SCORE.INTER.SOLV>
15.1334

>  <SCORE.INTER.VDW>
-17.5535

>  <SCORE.INTER.norm>
-0.836356

>  <SCORE.INTRA>
0.303069

>  <SCORE.INTRA.DIHEDRAL>
0.049523

>  <SCORE.INTRA.DIHEDRAL.0>
2.56603

>  <SCORE.INTRA.POLAR>
0

>  <SCORE.INTRA.POLAR.0>
0

>  <SCORE.INTRA.REPUL>
0

>  <SCORE.INTRA.REPUL.0>
0

>  <SCORE.INTRA.SOLV>
-0.414581

>  <SCORE.INTRA.SOLV.lig_0>
-32.0799

>  <SCORE.INTRA.VDW>
0.485598

>  <SCORE.INTRA.VDW.0>
-0.618248

>  <SCORE.INTRA.norm>
0.0303069

>  <SCORE.RESTR>
0

>  <SCORE.RESTR.CAVITY>
0

>  <SCORE.RESTR.norm>
0

>  <SCORE.SYSTEM>
0

>  <SCORE.SYSTEM.CONST>
0

>  <SCORE.SYSTEM.DIHEDRAL>
0

>  <SCORE.SYSTEM.SOLV>
0

>  <SCORE.SYSTEM.norm>
0

>  <SCORE.heavy>
10

>  <SCORE.norm>
-0.806049

>  <RMSD>
5.551

$$$$
ligand
 OpenBabel11021811473D
libRbt.so/2013.1/901 2013/11/27
 10  9  0  0  0  0  0  0  0  0999 V2000
   27.1230   14.3185   18.2942 N   0  0  0  0  0  0  0  0  0  0  0  0
   27.7213   14.5828   19.6378 C   0  0  2  0  0  0  0  0  0  0  0  0
   26.6608   14.8945   20.6999 C   0  0  0  0  0  0  0  0  0  0  0  0
   26.9434   14.9894   21.9037 O   0  0  0  0  0  0  0  0  0  0  0  0
   28.7706   15.6951   19.5583 C   0  0  0  0  0  0  0  0  0  0  0  0
   29.5887   15.8334   20.8220 C   0  0  0  0  0  0  0  0  0  0  0  0
   30.6566   16.8914   20.6855 C   0  0  0  0  0  0  0  0  0  0  0  0
   31.5277   16.9598   21.9353 C   0  0  0  0  0  0  0  0  0  0  0  0
   32.5563   18.0333   21.8821 N   0  0  0  0  0  0  0  0  0  0  0  0
   25.4848   15.0993   20.3835 O   0  0  0  0  0  0  0  0  0  0  0  0
  2  1  1  6  0  0  0
  2  3  1  0  0  0  0
  2  5  1  0  0  0  0
  3  4  1  0  0  0  0
  3 10  1  0  0  0  0
  5  6  1  0  0  0  0
  6  7  1  0  0  0  0
  7  8  1  0  0  0  0
  8  9  1  0  0  0  0
M  END
>  <CHROM.1>
171.54028890,-169.37507903,177.20664038,-176.49384752,-177.15235893,28.66958565
15.73059023,20.60113464,-2.76739358,0.37719506,1.29448825

>  <Name>
ligand

>  <RI>
0

>  <Rbt.Current_Directory>
/home/itssahil/PROJECTS/Mol_Feturizer/New_Systems/rnas/3DIY

>  <Rbt.Executable>
rbdock ($Id: //depot/dev/client3/rdock/2013.1/src/exe/rbdock.cxx#4 $)

>  <Rbt.Library>
libRbt.so (2013.1, Build901 2013/11/27)

>  <Rbt.Parameter_File>
/export/apps/rDock/src/rDock_2013.1_src/data/scripts/dock_solv.prm

>  <Rbt.Receptor>
prm/blind_docking_100.prm

>  <SCORE>
-9.35901

>  <SCORE.INTER>
-8.32452

>  <SCORE.INTER.CONST>
1

>  <SCORE.INTER.POLAR>
0

>  <SCORE.INTER.ROT>
5

>  <SCORE.INTER.SOLV>
14.9976

>  <SCORE.INTER.VDW>
-17.4822

>  <SCORE.INTER.norm>
-0.832452

>  <SCORE.INTRA>
-1.03449

>  <SCORE.INTRA.DIHEDRAL>
-0.549861

>  <SCORE.INTRA.DIHEDRAL.0>
2.56603

>  <SCORE.INTRA.POLAR>
0

>  <SCORE.INTRA.POLAR.0>
0

>  <SCORE.INTRA.REPUL>
0

>  <SCORE.INTRA.REPUL.0>
0

>  <SCORE.INTRA.SOLV>
-1.58149

>  <SCORE.INTRA.SOLV.lig_0>
-32.0799

>  <SCORE.INTRA.VDW>
0.031183

>  <SCORE.INTRA.VDW.0>
-0.618248

>  <SCORE.INTRA.norm>
-0.103449

>  <SCORE.RESTR>
0

>  <SCORE.RESTR.CAVITY>
0

>  <SCORE.RESTR.norm>
0

>  <SCORE.SYSTEM>
0

>  <SCORE.SYSTEM.CONST>
0

>  <SCORE.SYSTEM.DIHEDRAL>
0

>  <SCORE.SYSTEM.SOLV>
0

>  <SCORE.SYSTEM.norm>
0

>  <SCORE.heavy>
10

>  <SCORE.norm>
-0.935901

>  <RMSD>
5.552

$$$$
ligand
 OpenBabel11021811473D
libRbt.so/2013.1/901 2013/11/27
 10  9  0  0  0  0  0  0  0  0999 V2000
   27.1246   14.3187   18.2967 N   0  0  0  0  0  0  0  0  0  0  0  0
   27.7253   14.5757   19.6406 C   0  0  2  0  0  0  0  0  0  0  0  0
   26.6684   14.9041   20.7012 C   0  0  0  0  0  0  0  0  0  0  0  0
   25.4679   15.0300   20.4168 O   0  0  0  0  0  0  0  0  0  0  0  0
   28.7908   15.6724   19.5610 C   0  0  0  0  0  0  0  0  0  0  0  0
   29.6438   15.7655   20.8056 C   0  0  0  0  0  0  0  0  0  0  0  0
   30.7016   16.8352   20.6817 C   0  0  0  0  0  0  0  0  0  0  0  0
   31.5745   16.8945   21.9306 C   0  0  0  0  0  0  0  0  0  0  0  0
   32.6569   17.9117   21.8488 N   0  0  0  0  0  0  0  0  0  0  0  0
   26.9763   15.0192   21.8915 O   0  0  0  0  0  0  0  0  0  0  0  0
  2  1  1  6  0  0  0
  2  3  1  0  0  0  0
  2  5  1  0  0  0  0
  3  4  1  0  0  0  0
  3 10  1  0  0  0  0
  5  6  1  0  0  0  0
  6  7  1  0  0  0  0
  7  8  1  0  0  0  0
  8  9  1  0  0  0  0
M  END
>  <CHROM.1>
-4.89415368,-167.20778864,178.77231401,-178.64075740,178.60172401,28.69918153
15.69313805,20.59863436,-2.77975057,0.36295447,1.29848809

>  <Name>
ligand

>  <RI>
0

>  <Rbt.Current_Directory>
/home/itssahil/PROJECTS/Mol_Feturizer/New_Systems/rnas/3DIY

>  <Rbt.Executable>
rbdock ($Id: //depot/dev/client3/rdock/2013.1/src/exe/rbdock.cxx#4 $)

>  <Rbt.Library>
libRbt.so (2013.1, Build901 2013/11/27)

>  <Rbt.Parameter_File>
/export/apps/rDock/src/rDock_2013.1_src/data/scripts/dock_solv.prm

>  <Rbt.Receptor>
prm/pocket_docking_3.prm

>  <SCORE>
-9.18588

>  <SCORE.INTER>
-8.21809

>  <SCORE.INTER.CONST>
1

>  <SCORE.INTER.POLAR>
0

>  <SCORE.INTER.ROT>
5

>  <SCORE.INTER.SOLV>
14.9857

>  <SCORE.INTER.VDW>
-17.4073

>  <SCORE.INTER.norm>
-0.821809

>  <SCORE.INTRA>
-0.967791

>  <SCORE.INTRA.DIHEDRAL>
-0.399169

>  <SCORE.INTRA.DIHEDRAL.0>
2.56603

>  <SCORE.INTRA.POLAR>
0

>  <SCORE.INTRA.POLAR.0>
0

>  <SCORE.INTRA.REPUL>
0

>  <SCORE.INTRA.REPUL.0>
0

>  <SCORE.INTRA.SOLV>
-1.5812

>  <SCORE.INTRA.SOLV.lig_0>
-32.0799

>  <SCORE.INTRA.VDW>
0.0223929

>  <SCORE.INTRA.VDW.0>
-0.618248

>  <SCORE.INTRA.norm>
-0.0967791

>  <SCORE.RESTR>
0

>  <SCORE.RESTR.CAVITY>
0

>  <SCORE.RESTR.norm>
0

>  <SCORE.SYSTEM>
0

>  <SCORE.SYSTEM.CONST>
0

>  <SCORE.SYSTEM.DIHEDRAL>
0

>  <SCORE.SYSTEM.SOLV>
0

>  <SCORE.SYSTEM.norm>
0

>  <SCORE.heavy>
10

>  <SCORE.norm>
-0.918588

>  <RMSD>
5.552

$$$$
ligand
 OpenBabel11021811473D
libRbt.so/2013.1/901 2013/11/27
 10  9  0  0  0  0  0  0  0  0999 V2000
   27.1291   14.3025   18.2942 N   0  0  0  0  0  0  0  0  0  0  0  0
   27.7233   14.5748   19.6380 C   0  0  2  0  0  0  0  0  0  0  0  0
   26.6607   14.9086   20.6913 C   0  0  0  0  0  0  0  0  0  0  0  0
   25.4774   15.1218   20.3873 O   0  0  0  0  0  0  0  0  0  0  0  0
   28.7844   15.6752   19.5523 C   0  0  0  0  0  0  0  0  0  0  0  0
   29.6104   15.8055   20.8117 C   0  0  0  0  0  0  0  0  0  0  0  0
   30.6582   16.8847   20.6858 C   0  0  0  0  0  0  0  0  0  0  0  0
   31.5276   16.9574   21.9365 C   0  0  0  0  0  0  0  0  0  0  0  0
   32.5734   18.0134   21.8702 N   0  0  0  0  0  0  0  0  0  0  0  0
   26.9442   14.9405   21.8927 O   0  0  0  0  0  0  0  0  0  0  0  0
  2  1  1  6  0  0  0
  2  3  1  0  0  0  0
  2  5  1  0  0  0  0
  3  4  1  0  0  0  0
  3 10  1  0  0  0  0
  5  6  1  0  0  0  0
  6  7  1  0  0  0  0
  7  8  1  0  0  0  0
  8  9  1  0  0  0  0
M  END
>  <CHROM.1>
-10.21588775,-168.56747293,179.18877472,-177.17724526,-179.58633842,28.67499132
15.71884909,20.59695957,-2.76900351,0.37472209,1.29281407

>  <Name>
ligand

>  <RI>
0

>  <Rbt.Current_Directory>
/home/itssahil/PROJECTS/Mol_Feturizer/New_Systems/rnas/3DIY

>  <Rbt.Executable>
rbdock ($Id: //depot/dev/client3/rdock/2013.1/src/exe/rbdock.cxx#4 $)

>  <Rbt.Library>
libRbt.so (2013.1, Build901 2013/11/27)

>  <Rbt.Parameter_File>
/export/apps/rDock/src/rDock_2013.1_src/data/scripts/dock_solv.prm

>  <Rbt.Receptor>
prm/pocket_docking_4.prm

>  <SCORE>
-9.28429

>  <SCORE.INTER>
-8.2168

>  <SCORE.INTER.CONST>
1

>  <SCORE.INTER.POLAR>
0

>  <SCORE.INTER.ROT>
5

>  <SCORE.INTER.SOLV>
15.0109

>  <SCORE.INTER.VDW>
-17.4148

>  <SCORE.INTER.norm>
-0.82168

>  <SCORE.INTRA>
-1.06749

>  <SCORE.INTRA.DIHEDRAL>
-0.482349

>  <SCORE.INTRA.DIHEDRAL.0>
2.56603

>  <SCORE.INTRA.POLAR>
0

>  <SCORE.INTRA.POLAR.0>
0

>  <SCORE.INTRA.REPUL>
0

>  <SCORE.INTRA.REPUL.0>
0

>  <SCORE.INTRA.SOLV>
-1.58329

>  <SCORE.INTRA.SOLV.lig_0>
-32.0799

>  <SCORE.INTRA.VDW>
-0.0346708

>  <SCORE.INTRA.VDW.0>
-0.618248

>  <SCORE.INTRA.norm>
-0.106749

>  <SCORE.RESTR>
0

>  <SCORE.RESTR.CAVITY>
0

>  <SCORE.RESTR.norm>
0

>  <SCORE.SYSTEM>
0

>  <SCORE.SYSTEM.CONST>
0

>  <SCORE.SYSTEM.DIHEDRAL>
0

>  <SCORE.SYSTEM.SOLV>
0

>  <SCORE.SYSTEM.norm>
0

>  <SCORE.heavy>
10

>  <SCORE.norm>
-0.928429

>  <RMSD>
5.552

$$$$
ligand
 OpenBabel11021811473D
libRbt.so/2013.1/901 2013/11/27
 10  9  0  0  0  0  0  0  0  0999 V2000
   27.1358   14.3124   18.2880 N   0  0  0  0  0  0  0  0  0  0  0  0
   27.7243   14.5841   19.6344 C   0  0  2  0  0  0  0  0  0  0  0  0
   26.6577   14.9210   20.6825 C   0  0  0  0  0  0  0  0  0  0  0  0
   25.4686   15.0980   20.3777 O   0  0  0  0  0  0  0  0  0  0  0  0
   28.7884   15.6820   19.5530 C   0  0  0  0  0  0  0  0  0  0  0  0
   29.6080   15.8120   20.8167 C   0  0  0  0  0  0  0  0  0  0  0  0
   30.6563   16.8913   20.6965 C   0  0  0  0  0  0  0  0  0  0  0  0
   31.5438   16.9381   21.9356 C   0  0  0  0  0  0  0  0  0  0  0  0
   32.5675   18.0166   21.8905 N   0  0  0  0  0  0  0  0  0  0  0  0
   26.9443   14.9919   21.8815 O   0  0  0  0  0  0  0  0  0  0  0  0
  2  1  1  6  0  0  0
  2  3  1  0  0  0  0
  2  5  1  0  0  0  0
  3  4  1  0  0  0  0
  3 10  1  0  0  0  0
  5  6  1  0  0  0  0
  6  7  1  0  0  0  0
  7  8  1  0  0  0  0
  8  9  1  0  0  0  0
M  END
>  <CHROM.1>
-8.04407414,-168.62299506,179.35575311,-175.60909584,-178.04306178,28.67552589
15.72524105,20.59645370,-2.76388840,0.36956369,1.28696560

>  <Name>
ligand

>  <RI>
0

>  <Rbt.Current_Directory>
/home/itssahil/PROJECTS/Mol_Feturizer/New_Systems/rnas/3DIY

>  <Rbt.Executable>
rbdock ($Id: //depot/dev/client3/rdock/2013.1/src/exe/rbdock.cxx#4 $)

>  <Rbt.Library>
libRbt.so (2013.1, Build901 2013/11/27)

>  <Rbt.Parameter_File>
/export/apps/rDock/src/rDock_2013.1_src/data/scripts/dock_solv.prm

>  <Rbt.Receptor>
prm/pocket_docking_3.prm

>  <SCORE>
-9.30135

>  <SCORE.INTER>
-8.29955

>  <SCORE.INTER.CONST>
1

>  <SCORE.INTER.POLAR>
0

>  <SCORE.INTER.ROT>
5

>  <SCORE.INTER.SOLV>
14.9633

>  <SCORE.INTER.VDW>
-17.4541

>  <SCORE.INTER.norm>
-0.829955

>  <SCORE.INTRA>
-1.00179

>  <SCORE.INTRA.DIHEDRAL>
-0.433956

>  <SCORE.INTRA.DIHEDRAL.0>
2.56603

>  <SCORE.INTRA.POLAR>
0

>  <SCORE.INTRA.POLAR.0>
0

>  <SCORE.INTRA.REPUL>
0

>  <SCORE.INTRA.REPUL.0>
0

>  <SCORE.INTRA.SOLV>
-1.58315

>  <SCORE.INTRA.SOLV.lig_0>
-32.0799

>  <SCORE.INTRA.VDW>
0.00675867

>  <SCORE.INTRA.VDW.0>
-0.618248

>  <SCORE.INTRA.norm>
-0.100179

>  <SCORE.RESTR>
0

>  <SCORE.RESTR.CAVITY>
0

>  <SCORE.RESTR.norm>
0

>  <SCORE.SYSTEM>
0

>  <SCORE.SYSTEM.CONST>
0

>  <SCORE.SYSTEM.DIHEDRAL>
0

>  <SCORE.SYSTEM.SOLV>
0

>  <SCORE.SYSTEM.norm>
0

>  <SCORE.heavy>
10

>  <SCORE.norm>
-0.930135

>  <RMSD>
5.553

$$$$
ligand
 OpenBabel11021811473D
libRbt.so/2013.1/901 2013/11/27
 10  9  0  0  0  0  0  0  0  0999 V2000
   28.0321   15.4539   18.6846 N   0  0  0  0  0  0  0  0  0  0  0  0
   28.1661   15.1096   20.1325 C   0  0  2  0  0  0  0  0  0  0  0  0
   26.8161   15.0975   20.8588 C   0  0  0  0  0  0  0  0  0  0  0  0
   25.7387   15.1138   20.2449 O   0  0  0  0  0  0  0  0  0  0  0  0
   29.1607   16.0447   20.8258 C   0  0  0  0  0  0  0  0  0  0  0  0
   30.5685   15.9204   20.2891 C   0  0  0  0  0  0  0  0  0  0  0  0
   31.5291   16.8269   21.0197 C   0  0  0  0  0  0  0  0  0  0  0  0
   32.9344   16.7255   20.4365 C   0  0  0  0  0  0  0  0  0  0  0  0
   33.9308   17.5765   21.1411 N   0  0  0  0  0  0  0  0  0  0  0  0
   26.7572   15.0337   22.0906 O   0  0  0  0  0  0  0  0  0  0  0  0
  2  1  1  6  0  0  0
  2  3  1  0  0  0  0
  2  5  1  0  0  0  0
  3  4  1  0  0  0  0
  3 10  1  0  0  0  0
  5  6  1  0  0  0  0
  6  7  1  0  0  0  0
  7  8  1  0  0  0  0
  8  9  1  0  0  0  0
M  END
>  <CHROM.1>
13.07422972,-63.59661215,-178.41259815,-178.07232625,-178.65017909,29.32074608
15.88414658,20.58823448,-3.09094641,0.29516919,1.50071148

>  <Name>
ligand

>  <RI>
0

>  <Rbt.Current_Directory>
/home/itssahil/PROJECTS/Mol_Feturizer/New_Systems/rnas/3DIY

>  <Rbt.Executable>
rbdock ($Id: //depot/dev/client3/rdock/2013.1/src/exe/rbdock.cxx#4 $)

>  <Rbt.Library>
libRbt.so (2013.1, Build901 2013/11/27)

>  <Rbt.Parameter_File>
/export/apps/rDock/src/rDock_2013.1_src/data/scripts/dock_solv.prm

>  <Rbt.Receptor>
prm/pocket_docking_3.prm

>  <SCORE>
-9.42448

>  <SCORE.INTER>
-8.65918

>  <SCORE.INTER.CONST>
1

>  <SCORE.INTER.POLAR>
0

>  <SCORE.INTER.ROT>
5

>  <SCORE.INTER.SOLV>
13.2607

>  <SCORE.INTER.VDW>
-17.1263

>  <SCORE.INTER.norm>
-0.865918

>  <SCORE.INTRA>
-0.765299

>  <SCORE.INTRA.DIHEDRAL>
-0.973155

>  <SCORE.INTRA.DIHEDRAL.0>
2.56603

>  <SCORE.INTRA.POLAR>
0

>  <SCORE.INTRA.POLAR.0>
0

>  <SCORE.INTRA.REPUL>
0

>  <SCORE.INTRA.REPUL.0>
0

>  <SCORE.INTRA.SOLV>
-0.724372

>  <SCORE.INTRA.SOLV.lig_0>
-32.0799

>  <SCORE.INTRA.VDW>
0.0834646

>  <SCORE.INTRA.VDW.0>
-0.618248

>  <SCORE.INTRA.norm>
-0.0765299

>  <SCORE.RESTR>
0

>  <SCORE.RESTR.CAVITY>
0

>  <SCORE.RESTR.norm>
0

>  <SCORE.SYSTEM>
0

>  <SCORE.SYSTEM.CONST>
0

>  <SCORE.SYSTEM.DIHEDRAL>
0

>  <SCORE.SYSTEM.SOLV>
0

>  <SCORE.SYSTEM.norm>
0

>  <SCORE.heavy>
10

>  <SCORE.norm>
-0.942448

>  <RMSD>
5.554

$$$$
ligand
 OpenBabel11021811473D
libRbt.so/2013.1/901 2013/11/27
 10  9  0  0  0  0  0  0  0  0999 V2000
   26.9445   14.5278   20.0971 N   0  0  0  0  0  0  0  0  0  0  0  0
   27.2629   15.5116   19.0184 C   0  0  2  0  0  0  0  0  0  0  0  0
   27.8572   14.8435   17.7733 C   0  0  0  0  0  0  0  0  0  0  0  0
   28.0419   13.6188   17.7088 O   0  0  0  0  0  0  0  0  0  0  0  0
   28.1792   16.6199   19.5441 C   0  0  0  0  0  0  0  0  0  0  0  0
   29.4703   16.0967   20.1312 C   0  0  0  0  0  0  0  0  0  0  0  0
   30.3160   17.2076   20.7051 C   0  0  0  0  0  0  0  0  0  0  0  0
   31.6097   16.6636   21.3015 C   0  0  0  0  0  0  0  0  0  0  0  0
   32.4696   17.7147   21.9090 N   0  0  0  0  0  0  0  0  0  0  0  0
   28.1404   15.5056   16.7702 O   0  0  0  0  0  0  0  0  0  0  0  0
  2  1  1  1  0  0  0
  2  3  1  0  0  0  0
  2  5  1  0  0  0  0
  3  4  1  0  0  0  0
  3 10  1  0  0  0  0
  5  6  1  0  0  0  0
  6  7  1  0  0  0  0
  7  8  1  0  0  0  0
  8  9  1  0  0  0  0
M  END
>  <CHROM.1>
-0.21132704,57.09243265,-176.98148025,179.61844325,-178.74617487,29.03212366
15.81182267,19.46037069,2.40476924,-0.41602214,-1.78910250

>  <Name>
ligand

>  <RI>
0

>  <Rbt.Current_Directory>
/home/itssahil/PROJECTS/Mol_Feturizer/New_Systems/rnas/3DIY

>  <Rbt.Executable>
rbdock ($Id: //depot/dev/client3/rdock/2013.1/src/exe/rbdock.cxx#4 $)

>  <Rbt.Library>
libRbt.so (2013.1, Build901 2013/11/27)

>  <Rbt.Parameter_File>
/export/apps/rDock/src/rDock_2013.1_src/data/scripts/dock_solv.prm

>  <Rbt.Receptor>
prm/pocket_docking_7.prm

>  <SCORE>
-9.06465

>  <SCORE.INTER>
-8.31545

>  <SCORE.INTER.CONST>
1

>  <SCORE.INTER.POLAR>
0

>  <SCORE.INTER.ROT>
5

>  <SCORE.INTER.SOLV>
13.9753

>  <SCORE.INTER.VDW>
-17.1354

>  <SCORE.INTER.norm>
-0.831545

>  <SCORE.INTRA>
-0.7492

>  <SCORE.INTRA.DIHEDRAL>
-0.931756

>  <SCORE.INTRA.DIHEDRAL.0>
2.56603

>  <SCORE.INTRA.POLAR>
0

>  <SCORE.INTRA.POLAR.0>
0

>  <SCORE.INTRA.REPUL>
0

>  <SCORE.INTRA.REPUL.0>
0

>  <SCORE.INTRA.SOLV>
-0.62129

>  <SCORE.INTRA.SOLV.lig_0>
-32.0799

>  <SCORE.INTRA.VDW>
0.0273233

>  <SCORE.INTRA.VDW.0>
-0.618248

>  <SCORE.INTRA.norm>
-0.07492

>  <SCORE.RESTR>
0

>  <SCORE.RESTR.CAVITY>
0

>  <SCORE.RESTR.norm>
0

>  <SCORE.SYSTEM>
0

>  <SCORE.SYSTEM.CONST>
0

>  <SCORE.SYSTEM.DIHEDRAL>
0

>  <SCORE.SYSTEM.SOLV>
0

>  <SCORE.SYSTEM.norm>
0

>  <SCORE.heavy>
10

>  <SCORE.norm>
-0.906465

>  <RMSD>
5.554

$$$$
ligand
 OpenBabel11021811473D
libRbt.so/2013.1/901 2013/11/27
 10  9  0  0  0  0  0  0  0  0999 V2000
   27.1289   14.3141   18.2994 N   0  0  0  0  0  0  0  0  0  0  0  0
   27.7192   14.5839   19.6454 C   0  0  2  0  0  0  0  0  0  0  0  0
   26.6526   14.9024   20.6993 C   0  0  0  0  0  0  0  0  0  0  0  0
   26.9269   14.9978   21.9050 O   0  0  0  0  0  0  0  0  0  0  0  0
   28.7708   15.6940   19.5672 C   0  0  0  0  0  0  0  0  0  0  0  0
   29.6081   15.8105   20.8205 C   0  0  0  0  0  0  0  0  0  0  0  0
   30.6495   16.8966   20.7000 C   0  0  0  0  0  0  0  0  0  0  0  0
   31.5357   16.9504   21.9398 C   0  0  0  0  0  0  0  0  0  0  0  0
   32.5587   18.0294   21.8900 N   0  0  0  0  0  0  0  0  0  0  0  0
   25.4800   15.1125   20.3741 O   0  0  0  0  0  0  0  0  0  0  0  0
  2  1  1  6  0  0  0
  2  3  1  0  0  0  0
  2  5  1  0  0  0  0
  3  4  1  0  0  0  0
  3 10  1  0  0  0  0
  5  6  1  0  0  0  0
  6  7  1  0  0  0  0
  7  8  1  0  0  0  0
  8  9  1  0  0  0  0
M  END
>  <CHROM.1>
171.27087773,-167.69969629,178.98165398,-176.84056437,-178.45644950,28.66914613
15.73017970,20.60478569,-2.76509563,0.37219352,1.28845714

>  <Name>
ligand

>  <RI>
0

>  <Rbt.Current_Directory>
/home/itssahil/PROJECTS/Mol_Feturizer/New_Systems/rnas/3DIY

>  <Rbt.Executable>
rbdock ($Id: //depot/dev/client3/rdock/2013.1/src/exe/rbdock.cxx#4 $)

>  <Rbt.Library>
libRbt.so (2013.1, Build901 2013/11/27)

>  <Rbt.Parameter_File>
/export/apps/rDock/src/rDock_2013.1_src/data/scripts/dock_solv.prm

>  <Rbt.Receptor>
prm/pocket_docking_3.prm

>  <SCORE>
-9.36118

>  <SCORE.INTER>
-8.30814

>  <SCORE.INTER.CONST>
1

>  <SCORE.INTER.POLAR>
0

>  <SCORE.INTER.ROT>
5

>  <SCORE.INTER.SOLV>
14.9867

>  <SCORE.INTER.VDW>
-17.4677

>  <SCORE.INTER.norm>
-0.830814

>  <SCORE.INTRA>
-1.05303

>  <SCORE.INTRA.DIHEDRAL>
-0.473669

>  <SCORE.INTRA.DIHEDRAL.0>
2.56603

>  <SCORE.INTRA.POLAR>
0

>  <SCORE.INTRA.POLAR.0>
0

>  <SCORE.INTRA.REPUL>
0

>  <SCORE.INTRA.REPUL.0>
0

>  <SCORE.INTRA.SOLV>
-1.57944

>  <SCORE.INTRA.SOLV.lig_0>
-32.0799

>  <SCORE.INTRA.VDW>
-0.0264759

>  <SCORE.INTRA.VDW.0>
-0.618248

>  <SCORE.INTRA.norm>
-0.105303

>  <SCORE.RESTR>
0

>  <SCORE.RESTR.CAVITY>
0

>  <SCORE.RESTR.norm>
0

>  <SCORE.SYSTEM>
0

>  <SCORE.SYSTEM.CONST>
0

>  <SCORE.SYSTEM.DIHEDRAL>
0

>  <SCORE.SYSTEM.SOLV>
0

>  <SCORE.SYSTEM.norm>
0

>  <SCORE.heavy>
10

>  <SCORE.norm>
-0.936118

>  <RMSD>
5.555

$$$$
ligand
 OpenBabel11021811473D
libRbt.so/2013.1/901 2013/11/27
 10  9  0  0  0  0  0  0  0  0999 V2000
   27.1244   14.2695   18.3255 N   0  0  0  0  0  0  0  0  0  0  0  0
   27.7099   14.5625   19.6687 C   0  0  2  0  0  0  0  0  0  0  0  0
   26.6413   14.9205   20.7079 C   0  0  0  0  0  0  0  0  0  0  0  0
   26.9143   15.0661   21.9088 O   0  0  0  0  0  0  0  0  0  0  0  0
   28.7776   15.6556   19.5716 C   0  0  0  0  0  0  0  0  0  0  0  0
   29.6025   15.7961   20.8307 C   0  0  0  0  0  0  0  0  0  0  0  0
   30.6500   16.8747   20.6973 C   0  0  0  0  0  0  0  0  0  0  0  0
   31.5326   16.9425   21.9390 C   0  0  0  0  0  0  0  0  0  0  0  0
   32.5532   18.0233   21.8817 N   0  0  0  0  0  0  0  0  0  0  0  0
   25.4684   15.1133   20.3734 O   0  0  0  0  0  0  0  0  0  0  0  0
  2  1  1  6  0  0  0
  2  3  1  0  0  0  0
  2  5  1  0  0  0  0
  3  4  1  0  0  0  0
  3 10  1  0  0  0  0
  5  6  1  0  0  0  0
  6  7  1  0  0  0  0
  7  8  1  0  0  0  0
  8  9  1  0  0  0  0
M  END
>  <CHROM.1>
172.72028605,-168.08804030,179.61446597,-176.26574923,-177.91633036,28.66345089
15.72434176,20.61089520,-2.75628658,0.35926182,1.25817698

>  <Name>
ligand

>  <RI>
0

>  <Rbt.Current_Directory>
/home/itssahil/PROJECTS/Mol_Feturizer/New_Systems/rnas/3DIY

>  <Rbt.Executable>
rbdock ($Id: //depot/dev/client3/rdock/2013.1/src/exe/rbdock.cxx#4 $)

>  <Rbt.Library>
libRbt.so (2013.1, Build901 2013/11/27)

>  <Rbt.Parameter_File>
/export/apps/rDock/src/rDock_2013.1_src/data/scripts/dock_solv.prm

>  <Rbt.Receptor>
prm/pocket_docking_5.prm

>  <SCORE>
-9.34229

>  <SCORE.INTER>
-8.32149

>  <SCORE.INTER.CONST>
1

>  <SCORE.INTER.POLAR>
0

>  <SCORE.INTER.ROT>
5

>  <SCORE.INTER.SOLV>
15.0158

>  <SCORE.INTER.VDW>
-17.4862

>  <SCORE.INTER.norm>
-0.832149

>  <SCORE.INTRA>
-1.0208

>  <SCORE.INTRA.DIHEDRAL>
-0.481873

>  <SCORE.INTRA.DIHEDRAL.0>
2.56603

>  <SCORE.INTRA.POLAR>
0

>  <SCORE.INTRA.POLAR.0>
0

>  <SCORE.INTRA.REPUL>
0

>  <SCORE.INTRA.REPUL.0>
0

>  <SCORE.INTRA.SOLV>
-1.57945

>  <SCORE.INTRA.SOLV.lig_0>
-32.0799

>  <SCORE.INTRA.VDW>
0.00985763

>  <SCORE.INTRA.VDW.0>
-0.618248

>  <SCORE.INTRA.norm>
-0.10208

>  <SCORE.RESTR>
0

>  <SCORE.RESTR.CAVITY>
0

>  <SCORE.RESTR.norm>
0

>  <SCORE.SYSTEM>
0

>  <SCORE.SYSTEM.CONST>
0

>  <SCORE.SYSTEM.DIHEDRAL>
0

>  <SCORE.SYSTEM.SOLV>
0

>  <SCORE.SYSTEM.norm>
0

>  <SCORE.heavy>
10

>  <SCORE.norm>
-0.934229

>  <RMSD>
5.556

$$$$
ligand
 OpenBabel11021811473D
libRbt.so/2013.1/901 2013/11/27
 10  9  0  0  0  0  0  0  0  0999 V2000
   28.0142   15.4632   18.6928 N   0  0  0  0  0  0  0  0  0  0  0  0
   28.1574   15.1293   20.1423 C   0  0  2  0  0  0  0  0  0  0  0  0
   26.8104   15.1071   20.8739 C   0  0  0  0  0  0  0  0  0  0  0  0
   25.7305   15.1214   20.2644 O   0  0  0  0  0  0  0  0  0  0  0  0
   29.1444   16.0795   20.8259 C   0  0  0  0  0  0  0  0  0  0  0  0
   30.5570   15.9473   20.3040 C   0  0  0  0  0  0  0  0  0  0  0  0
   31.5067   16.8815   21.0138 C   0  0  0  0  0  0  0  0  0  0  0  0
   32.9195   16.7624   20.4524 C   0  0  0  0  0  0  0  0  0  0  0  0
   33.9108   17.6193   21.1569 N   0  0  0  0  0  0  0  0  0  0  0  0
   26.7568   15.0367   22.1056 O   0  0  0  0  0  0  0  0  0  0  0  0
  2  1  1  6  0  0  0
  2  3  1  0  0  0  0
  2  5  1  0  0  0  0
  3  4  1  0  0  0  0
  3 10  1  0  0  0  0
  5  6  1  0  0  0  0
  6  7  1  0  0  0  0
  7  8  1  0  0  0  0
  8  9  1  0  0  0  0
M  END
>  <CHROM.1>
12.33693797,-64.76589089,-179.09782355,-178.54157989,-177.46093210,29.30826184
15.90837533,20.59919791,-3.09088065,0.30069081,1.50094269

>  <Name>
ligand

>  <RI>
0

>  <Rbt.Current_Directory>
/home/itssahil/PROJECTS/Mol_Feturizer/New_Systems/rnas/3DIY

>  <Rbt.Executable>
rbdock ($Id: //depot/dev/client3/rdock/2013.1/src/exe/rbdock.cxx#4 $)

>  <Rbt.Library>
libRbt.so (2013.1, Build901 2013/11/27)

>  <Rbt.Parameter_File>
/export/apps/rDock/src/rDock_2013.1_src/data/scripts/dock_solv.prm

>  <Rbt.Receptor>
prm/pocket_docking_6.prm

>  <SCORE>
-9.40333

>  <SCORE.INTER>
-8.6353

>  <SCORE.INTER.CONST>
1

>  <SCORE.INTER.POLAR>
0

>  <SCORE.INTER.ROT>
5

>  <SCORE.INTER.SOLV>
13.2236

>  <SCORE.INTER.VDW>
-17.0981

>  <SCORE.INTER.norm>
-0.86353

>  <SCORE.INTRA>
-0.768023

>  <SCORE.INTRA.DIHEDRAL>
-0.92605

>  <SCORE.INTRA.DIHEDRAL.0>
2.56603

>  <SCORE.INTRA.POLAR>
0

>  <SCORE.INTRA.POLAR.0>
0

>  <SCORE.INTRA.REPUL>
0

>  <SCORE.INTRA.REPUL.0>
0

>  <SCORE.INTRA.SOLV>
-0.735971

>  <SCORE.INTRA.SOLV.lig_0>
-32.0799

>  <SCORE.INTRA.VDW>
0.0629868

>  <SCORE.INTRA.VDW.0>
-0.618248

>  <SCORE.INTRA.norm>
-0.0768023

>  <SCORE.RESTR>
0

>  <SCORE.RESTR.CAVITY>
0

>  <SCORE.RESTR.norm>
0

>  <SCORE.SYSTEM>
0

>  <SCORE.SYSTEM.CONST>
0

>  <SCORE.SYSTEM.DIHEDRAL>
0

>  <SCORE.SYSTEM.SOLV>
0

>  <SCORE.SYSTEM.norm>
0

>  <SCORE.heavy>
10

>  <SCORE.norm>
-0.940333

>  <RMSD>
5.557

$$$$
ligand
 OpenBabel11021811473D
libRbt.so/2013.1/901 2013/11/27
 10  9  0  0  0  0  0  0  0  0999 V2000
   28.8331   16.2846   19.2561 N   0  0  0  0  0  0  0  0  0  0  0  0
   27.6721   15.3939   18.9532 C   0  0  2  0  0  0  0  0  0  0  0  0
   26.9682   14.8978   20.2214 C   0  0  0  0  0  0  0  0  0  0  0  0
   27.5932   14.3915   21.1654 O   0  0  0  0  0  0  0  0  0  0  0  0
   28.0997   14.2244   18.0624 C   0  0  0  0  0  0  0  0  0  0  0  0
   26.9528   13.3170   17.6794 C   0  0  0  0  0  0  0  0  0  0  0  0
   27.4403   12.0099   17.1030 C   0  0  0  0  0  0  0  0  0  0  0  0
   26.3110   10.9887   17.0201 C   0  0  0  0  0  0  0  0  0  0  0  0
   26.7662    9.6348   16.6041 N   0  0  0  0  0  0  0  0  0  0  0  0
   25.7474   15.0208   20.3607 O   0  0  0  0  0  0  0  0  0  0  0  0
  2  1  1  1  0  0  0
  2  3  1  0  0  0  0
  2  5  1  0  0  0  0
  3  4  1  0  0  0  0
  3 10  1  0  0  0  0
  5  6  1  0  0  0  0
  6  7  1  0  0  0  0
  7  8  1  0  0  0  0
  8  9  1  0  0  0  0
M  END
>  <CHROM.1>
-49.85652885,-177.80942560,-165.86269521,166.96397077,-173.45801949,27.22311310
13.61600924,18.67728044,-1.39122370,-0.79547817,-2.40415942

>  <Name>
ligand

>  <RI>
0

>  <Rbt.Current_Directory>
/home/itssahil/PROJECTS/Mol_Feturizer/New_Systems/rnas/3DIY

>  <Rbt.Executable>
rbdock ($Id: //depot/dev/client3/rdock/2013.1/src/exe/rbdock.cxx#4 $)

>  <Rbt.Library>
libRbt.so (2013.1, Build901 2013/11/27)

>  <Rbt.Parameter_File>
/export/apps/rDock/src/rDock_2013.1_src/data/scripts/dock_solv.prm

>  <Rbt.Receptor>
prm/pocket_docking_6.prm

>  <SCORE>
-11.4452

>  <SCORE.INTER>
-10.79

>  <SCORE.INTER.CONST>
1

>  <SCORE.INTER.POLAR>
0

>  <SCORE.INTER.ROT>
5

>  <SCORE.INTER.SOLV>
15.1341

>  <SCORE.INTER.VDW>
-19.1713

>  <SCORE.INTER.norm>
-1.079

>  <SCORE.INTRA>
-0.655214

>  <SCORE.INTRA.DIHEDRAL>
0.664514

>  <SCORE.INTRA.DIHEDRAL.0>
2.56603

>  <SCORE.INTRA.POLAR>
0

>  <SCORE.INTRA.POLAR.0>
0

>  <SCORE.INTRA.REPUL>
0

>  <SCORE.INTRA.REPUL.0>
0

>  <SCORE.INTRA.SOLV>
-1.59834

>  <SCORE.INTRA.SOLV.lig_0>
-32.0799

>  <SCORE.INTRA.VDW>
-0.188302

>  <SCORE.INTRA.VDW.0>
-0.618248

>  <SCORE.INTRA.norm>
-0.0655214

>  <SCORE.RESTR>
0

>  <SCORE.RESTR.CAVITY>
0

>  <SCORE.RESTR.norm>
0

>  <SCORE.SYSTEM>
0

>  <SCORE.SYSTEM.CONST>
0

>  <SCORE.SYSTEM.DIHEDRAL>
0

>  <SCORE.SYSTEM.SOLV>
0

>  <SCORE.SYSTEM.norm>
0

>  <SCORE.heavy>
10

>  <SCORE.norm>
-1.14452

>  <RMSD>
5.558

$$$$
ligand
 OpenBabel11021811473D
libRbt.so/2013.1/901 2013/11/27
 10  9  0  0  0  0  0  0  0  0999 V2000
   28.6301   14.0689   21.5925 N   0  0  0  0  0  0  0  0  0  0  0  0
   28.1770   15.3233   20.9185 C   0  0  2  0  0  0  0  0  0  0  0  0
   26.9502   15.0987   20.0272 C   0  0  0  0  0  0  0  0  0  0  0  0
   27.0533   14.8478   18.8171 O   0  0  0  0  0  0  0  0  0  0  0  0
   29.3237   15.9650   20.1327 C   0  0  0  0  0  0  0  0  0  0  0  0
   30.5373   16.2604   20.9844 C   0  0  0  0  0  0  0  0  0  0  0  0
   31.6793   16.8073   20.1627 C   0  0  0  0  0  0  0  0  0  0  0  0
   32.9116   17.0531   21.0265 C   0  0  0  0  0  0  0  0  0  0  0  0
   32.7013   18.0839   22.0784 N   0  0  0  0  0  0  0  0  0  0  0  0
   25.8088   15.1247   20.4979 O   0  0  0  0  0  0  0  0  0  0  0  0
  2  1  1  6  0  0  0
  2  3  1  0  0  0  0
  2  5  1  0  0  0  0
  3  4  1  0  0  0  0
  3 10  1  0  0  0  0
  5  6  1  0  0  0  0
  6  7  1  0  0  0  0
  7  8  1  0  0  0  0
  8  9  1  0  0  0  0
M  END
>  <CHROM.1>
-93.10556497,-56.51400927,176.24509323,-177.96690936,-63.26990867,29.33775796
15.85350702,20.60283822,3.05643732,-0.43494186,-1.31934592

>  <Name>
ligand

>  <RI>
0

>  <Rbt.Current_Directory>
/home/itssahil/PROJECTS/Mol_Feturizer/New_Systems/rnas/3DIY

>  <Rbt.Executable>
rbdock ($Id: //depot/dev/client3/rdock/2013.1/src/exe/rbdock.cxx#4 $)

>  <Rbt.Library>
libRbt.so (2013.1, Build901 2013/11/27)

>  <Rbt.Parameter_File>
/export/apps/rDock/src/rDock_2013.1_src/data/scripts/dock_solv.prm

>  <Rbt.Receptor>
prm/blind_docking_100.prm

>  <SCORE>
-7.26578

>  <SCORE.INTER>
-7.21672

>  <SCORE.INTER.CONST>
1

>  <SCORE.INTER.POLAR>
0

>  <SCORE.INTER.ROT>
5

>  <SCORE.INTER.SOLV>
15.7205

>  <SCORE.INTER.VDW>
-16.9846

>  <SCORE.INTER.norm>
-0.721672

>  <SCORE.INTRA>
-0.0490566

>  <SCORE.INTRA.DIHEDRAL>
-0.943402

>  <SCORE.INTRA.DIHEDRAL.0>
2.56603

>  <SCORE.INTRA.POLAR>
0

>  <SCORE.INTRA.POLAR.0>
0

>  <SCORE.INTRA.REPUL>
0

>  <SCORE.INTRA.REPUL.0>
0

>  <SCORE.INTRA.SOLV>
0.273943

>  <SCORE.INTRA.SOLV.lig_0>
-32.0799

>  <SCORE.INTRA.VDW>
0.285673

>  <SCORE.INTRA.VDW.0>
-0.618248

>  <SCORE.INTRA.norm>
-0.00490566

>  <SCORE.RESTR>
0

>  <SCORE.RESTR.CAVITY>
0

>  <SCORE.RESTR.norm>
0

>  <SCORE.SYSTEM>
0

>  <SCORE.SYSTEM.CONST>
0

>  <SCORE.SYSTEM.DIHEDRAL>
0

>  <SCORE.SYSTEM.SOLV>
0

>  <SCORE.SYSTEM.norm>
0

>  <SCORE.heavy>
10

>  <SCORE.norm>
-0.726578

>  <RMSD>
5.560

$$$$
ligand
 OpenBabel11021811473D
libRbt.so/2013.1/901 2013/11/27
 10  9  0  0  0  0  0  0  0  0999 V2000
   27.1097   14.3061   18.2956 N   0  0  0  0  0  0  0  0  0  0  0  0
   27.6945   14.5813   19.6429 C   0  0  2  0  0  0  0  0  0  0  0  0
   26.6250   14.9221   20.6870 C   0  0  0  0  0  0  0  0  0  0  0  0
   26.9005   15.0691   21.8872 O   0  0  0  0  0  0  0  0  0  0  0  0
   28.7597   15.6781   19.5615 C   0  0  0  0  0  0  0  0  0  0  0  0
   29.5515   15.8355   20.8396 C   0  0  0  0  0  0  0  0  0  0  0  0
   30.6179   16.8961   20.7115 C   0  0  0  0  0  0  0  0  0  0  0  0
   31.4641   16.9825   21.9771 C   0  0  0  0  0  0  0  0  0  0  0  0
   32.5428   18.0041   21.8996 N   0  0  0  0  0  0  0  0  0  0  0  0
   25.4481   15.0990   20.3574 O   0  0  0  0  0  0  0  0  0  0  0  0
  2  1  1  6  0  0  0
  2  3  1  0  0  0  0
  2  5  1  0  0  0  0
  3  4  1  0  0  0  0
  3 10  1  0  0  0  0
  5  6  1  0  0  0  0
  6  7  1  0  0  0  0
  7  8  1  0  0  0  0
  8  9  1  0  0  0  0
M  END
>  <CHROM.1>
173.71858203,-170.12623162,178.34626499,-176.44043104,179.35572059,28.63745162
15.73891268,20.60637755,-2.75192143,0.36369552,1.27095902

>  <Name>
ligand

>  <RI>
0

>  <Rbt.Current_Directory>
/home/itssahil/PROJECTS/Mol_Feturizer/New_Systems/rnas/3DIY

>  <Rbt.Executable>
rbdock ($Id: //depot/dev/client3/rdock/2013.1/src/exe/rbdock.cxx#4 $)

>  <Rbt.Library>
libRbt.so (2013.1, Build901 2013/11/27)

>  <Rbt.Parameter_File>
/export/apps/rDock/src/rDock_2013.1_src/data/scripts/dock_solv.prm

>  <Rbt.Receptor>
prm/pocket_docking_8.prm

>  <SCORE>
-9.3458

>  <SCORE.INTER>
-8.32999

>  <SCORE.INTER.CONST>
1

>  <SCORE.INTER.POLAR>
0

>  <SCORE.INTER.ROT>
5

>  <SCORE.INTER.SOLV>
14.9829

>  <SCORE.INTER.VDW>
-17.481

>  <SCORE.INTER.norm>
-0.832999

>  <SCORE.INTRA>
-1.01581

>  <SCORE.INTRA.DIHEDRAL>
-0.646308

>  <SCORE.INTRA.DIHEDRAL.0>
2.56603

>  <SCORE.INTRA.POLAR>
0

>  <SCORE.INTRA.POLAR.0>
0

>  <SCORE.INTRA.REPUL>
0

>  <SCORE.INTRA.REPUL.0>
0

>  <SCORE.INTRA.SOLV>
-1.58232

>  <SCORE.INTRA.SOLV.lig_0>
-32.0799

>  <SCORE.INTRA.VDW>
0.0985

>  <SCORE.INTRA.VDW.0>
-0.618248

>  <SCORE.INTRA.norm>
-0.101581

>  <SCORE.RESTR>
0

>  <SCORE.RESTR.CAVITY>
0

>  <SCORE.RESTR.norm>
0

>  <SCORE.SYSTEM>
0

>  <SCORE.SYSTEM.CONST>
0

>  <SCORE.SYSTEM.DIHEDRAL>
0

>  <SCORE.SYSTEM.SOLV>
0

>  <SCORE.SYSTEM.norm>
0

>  <SCORE.heavy>
10

>  <SCORE.norm>
-0.93458

>  <RMSD>
5.560

$$$$
ligand
 OpenBabel11021811473D
libRbt.so/2013.1/901 2013/11/27
 10  9  0  0  0  0  0  0  0  0999 V2000
   28.5833   14.0657   21.5592 N   0  0  0  0  0  0  0  0  0  0  0  0
   28.1644   15.2610   20.7663 C   0  0  2  0  0  0  0  0  0  0  0  0
   27.0427   14.9403   19.7719 C   0  0  0  0  0  0  0  0  0  0  0  0
   25.9954   15.6029   19.7255 O   0  0  0  0  0  0  0  0  0  0  0  0
   29.3660   15.8962   20.0612 C   0  0  0  0  0  0  0  0  0  0  0  0
   30.4461   16.3494   21.0169 C   0  0  0  0  0  0  0  0  0  0  0  0
   31.6899   16.7949   20.2868 C   0  0  0  0  0  0  0  0  0  0  0  0
   32.7728   17.2400   21.2637 C   0  0  0  0  0  0  0  0  0  0  0  0
   32.3918   18.4330   22.0668 N   0  0  0  0  0  0  0  0  0  0  0  0
   27.1623   14.0249   18.9518 O   0  0  0  0  0  0  0  0  0  0  0  0
  2  1  1  6  0  0  0
  2  3  1  0  0  0  0
  2  5  1  0  0  0  0
  3  4  1  0  0  0  0
  3 10  1  0  0  0  0
  5  6  1  0  0  0  0
  6  7  1  0  0  0  0
  7  8  1  0  0  0  0
  8  9  1  0  0  0  0
M  END
>  <CHROM.1>
127.90494006,-59.47121794,172.19564244,-179.62512898,-63.67496577,29.32503892
15.84889651,20.52238753,-2.78287117,-0.41223336,-0.29374069

>  <Name>
ligand

>  <RI>
0

>  <Rbt.Current_Directory>
/home/itssahil/PROJECTS/Mol_Feturizer/New_Systems/rnas/3DIY

>  <Rbt.Executable>
rbdock ($Id: //depot/dev/client3/rdock/2013.1/src/exe/rbdock.cxx#4 $)

>  <Rbt.Library>
libRbt.so (2013.1, Build901 2013/11/27)

>  <Rbt.Parameter_File>
/export/apps/rDock/src/rDock_2013.1_src/data/scripts/dock_solv.prm

>  <Rbt.Receptor>
prm/blind_docking_60.prm

>  <SCORE>
-6.63502

>  <SCORE.INTER>
-6.28667

>  <SCORE.INTER.CONST>
1

>  <SCORE.INTER.POLAR>
0

>  <SCORE.INTER.ROT>
5

>  <SCORE.INTER.SOLV>
16.3999

>  <SCORE.INTER.VDW>
-16.5911

>  <SCORE.INTER.norm>
-0.628667

>  <SCORE.INTRA>
-0.348347

>  <SCORE.INTRA.DIHEDRAL>
-0.74566

>  <SCORE.INTRA.DIHEDRAL.0>
2.56603

>  <SCORE.INTRA.POLAR>
0

>  <SCORE.INTRA.POLAR.0>
0

>  <SCORE.INTRA.REPUL>
0

>  <SCORE.INTRA.REPUL.0>
0

>  <SCORE.INTRA.SOLV>
0.257715

>  <SCORE.INTRA.SOLV.lig_0>
-32.0799

>  <SCORE.INTRA.VDW>
-0.104375

>  <SCORE.INTRA.VDW.0>
-0.618248

>  <SCORE.INTRA.norm>
-0.0348347

>  <SCORE.RESTR>
0

>  <SCORE.RESTR.CAVITY>
0

>  <SCORE.RESTR.norm>
0

>  <SCORE.SYSTEM>
0

>  <SCORE.SYSTEM.CONST>
0

>  <SCORE.SYSTEM.DIHEDRAL>
0

>  <SCORE.SYSTEM.SOLV>
0

>  <SCORE.SYSTEM.norm>
0

>  <SCORE.heavy>
10

>  <SCORE.norm>
-0.663502

>  <RMSD>
5.561

$$$$
ligand
 OpenBabel11021811473D
libRbt.so/2013.1/901 2013/11/27
 10  9  0  0  0  0  0  0  0  0999 V2000
   25.5112   15.0553   20.3624 N   0  0  0  0  0  0  0  0  0  0  0  0
   26.8870   15.4931   19.9770 C   0  0  2  0  0  0  0  0  0  0  0  0
   27.3376   14.8971   18.6384 C   0  0  0  0  0  0  0  0  0  0  0  0
   28.0183   15.5423   17.8270 O   0  0  0  0  0  0  0  0  0  0  0  0
   27.8909   15.1798   21.0898 C   0  0  0  0  0  0  0  0  0  0  0  0
   29.2509   15.7972   20.8562 C   0  0  0  0  0  0  0  0  0  0  0  0
   30.2201   15.4532   21.9611 C   0  0  0  0  0  0  0  0  0  0  0  0
   31.5821   16.0948   21.7191 C   0  0  0  0  0  0  0  0  0  0  0  0
   31.5631   17.5792   21.8163 N   0  0  0  0  0  0  0  0  0  0  0  0
   27.0653   13.7308   18.3377 O   0  0  0  0  0  0  0  0  0  0  0  0
  2  1  1  1  0  0  0
  2  3  1  0  0  0  0
  2  5  1  0  0  0  0
  3  4  1  0  0  0  0
  3 10  1  0  0  0  0
  5  6  1  0  0  0  0
  6  7  1  0  0  0  0
  7  8  1  0  0  0  0
  8  9  1  0  0  0  0
M  END
>  <CHROM.1>
142.78502613,-170.65303779,-179.22039495,-179.39763917,67.18560474,28.53378514
15.46666784,20.22256904,2.54635850,-0.29199336,-1.72777820

>  <Name>
ligand

>  <RI>
0

>  <Rbt.Current_Directory>
/home/itssahil/PROJECTS/Mol_Feturizer/New_Systems/rnas/3DIY

>  <Rbt.Executable>
rbdock ($Id: //depot/dev/client3/rdock/2013.1/src/exe/rbdock.cxx#4 $)

>  <Rbt.Library>
libRbt.so (2013.1, Build901 2013/11/27)

>  <Rbt.Parameter_File>
/export/apps/rDock/src/rDock_2013.1_src/data/scripts/dock_solv.prm

>  <Rbt.Receptor>
prm/pocket_docking_4.prm

>  <SCORE>
-8.77571

>  <SCORE.INTER>
-7.89034

>  <SCORE.INTER.CONST>
1

>  <SCORE.INTER.POLAR>
0

>  <SCORE.INTER.ROT>
5

>  <SCORE.INTER.SOLV>
17.4341

>  <SCORE.INTER.VDW>
-18.0049

>  <SCORE.INTER.norm>
-0.789034

>  <SCORE.INTRA>
-0.885379

>  <SCORE.INTRA.DIHEDRAL>
-0.586893

>  <SCORE.INTRA.DIHEDRAL.0>
2.56603

>  <SCORE.INTRA.POLAR>
0

>  <SCORE.INTRA.POLAR.0>
0

>  <SCORE.INTRA.REPUL>
0

>  <SCORE.INTRA.REPUL.0>
0

>  <SCORE.INTRA.SOLV>
-0.746914

>  <SCORE.INTRA.SOLV.lig_0>
-32.0799

>  <SCORE.INTRA.VDW>
-0.218475

>  <SCORE.INTRA.VDW.0>
-0.618248

>  <SCORE.INTRA.norm>
-0.0885379

>  <SCORE.RESTR>
0

>  <SCORE.RESTR.CAVITY>
0

>  <SCORE.RESTR.norm>
0

>  <SCORE.SYSTEM>
0

>  <SCORE.SYSTEM.CONST>
0

>  <SCORE.SYSTEM.DIHEDRAL>
0

>  <SCORE.SYSTEM.SOLV>
0

>  <SCORE.SYSTEM.norm>
0

>  <SCORE.heavy>
10

>  <SCORE.norm>
-0.877571

>  <RMSD>
5.561

$$$$
ligand
 OpenBabel11021811473D
libRbt.so/2013.1/901 2013/11/27
 10  9  0  0  0  0  0  0  0  0999 V2000
   28.2741   14.0246   19.9631 N   0  0  0  0  0  0  0  0  0  0  0  0
   28.1980   14.6940   18.6293 C   0  0  2  0  0  0  0  0  0  0  0  0
   27.9101   16.1954   18.7433 C   0  0  0  0  0  0  0  0  0  0  0  0
   27.1229   16.6522   19.5858 O   0  0  0  0  0  0  0  0  0  0  0  0
   27.1733   13.9995   17.7282 C   0  0  0  0  0  0  0  0  0  0  0  0
   27.5600   12.5831   17.3682 C   0  0  0  0  0  0  0  0  0  0  0  0
   26.3592   11.7563   16.9773 C   0  0  0  0  0  0  0  0  0  0  0  0
   26.6934   10.2684   16.9694 C   0  0  0  0  0  0  0  0  0  0  0  0
   25.4917    9.3917   16.9456 N   0  0  0  0  0  0  0  0  0  0  0  0
   28.4865   17.0104   18.0164 O   0  0  0  0  0  0  0  0  0  0  0  0
  2  1  1  1  0  0  0
  2  3  1  0  0  0  0
  2  5  1  0  0  0  0
  3  4  1  0  0  0  0
  3 10  1  0  0  0  0
  5  6  1  0  0  0  0
  6  7  1  0  0  0  0
  7  8  1  0  0  0  0
  8  9  1  0  0  0  0
M  END
>  <CHROM.1>
-38.67924190,-65.17455861,157.24282615,-165.25699036,164.86502006,27.32583639
13.70318931,18.09923017,-0.31902750,1.28539616,2.21241434

>  <Name>
ligand

>  <RI>
0

>  <Rbt.Current_Directory>
/home/itssahil/PROJECTS/Mol_Feturizer/New_Systems/rnas/3DIY

>  <Rbt.Executable>
rbdock ($Id: //depot/dev/client3/rdock/2013.1/src/exe/rbdock.cxx#4 $)

>  <Rbt.Library>
libRbt.so (2013.1, Build901 2013/11/27)

>  <Rbt.Parameter_File>
/export/apps/rDock/src/rDock_2013.1_src/data/scripts/dock_solv.prm

>  <Rbt.Receptor>
prm/blind_docking_40.prm

>  <SCORE>
-6.96801

>  <SCORE.INTER>
-7.7491

>  <SCORE.INTER.CONST>
1

>  <SCORE.INTER.POLAR>
0

>  <SCORE.INTER.ROT>
5

>  <SCORE.INTER.SOLV>
15.0608

>  <SCORE.INTER.VDW>
-17.1197

>  <SCORE.INTER.norm>
-0.77491

>  <SCORE.INTRA>
0.781096

>  <SCORE.INTRA.DIHEDRAL>
2.77245

>  <SCORE.INTRA.DIHEDRAL.0>
2.56603

>  <SCORE.INTRA.POLAR>
0

>  <SCORE.INTRA.POLAR.0>
0

>  <SCORE.INTRA.REPUL>
0

>  <SCORE.INTRA.REPUL.0>
0

>  <SCORE.INTRA.SOLV>
-0.569506

>  <SCORE.INTRA.SOLV.lig_0>
-32.0799

>  <SCORE.INTRA.VDW>
-0.320377

>  <SCORE.INTRA.VDW.0>
-0.618248

>  <SCORE.INTRA.norm>
0.0781096

>  <SCORE.RESTR>
0

>  <SCORE.RESTR.CAVITY>
0

>  <SCORE.RESTR.norm>
0

>  <SCORE.SYSTEM>
0

>  <SCORE.SYSTEM.CONST>
0

>  <SCORE.SYSTEM.DIHEDRAL>
0

>  <SCORE.SYSTEM.SOLV>
0

>  <SCORE.SYSTEM.norm>
0

>  <SCORE.heavy>
10

>  <SCORE.norm>
-0.696801

>  <RMSD>
5.563

$$$$
ligand
 OpenBabel11021811473D
libRbt.so/2013.1/901 2013/11/27
 10  9  0  0  0  0  0  0  0  0999 V2000
   28.1382   15.5887   22.0827 N   0  0  0  0  0  0  0  0  0  0  0  0
   28.1597   15.8378   20.6095 C   0  0  2  0  0  0  0  0  0  0  0  0
   26.9860   15.1686   19.8853 C   0  0  0  0  0  0  0  0  0  0  0  0
   27.0765   14.7700   18.7144 O   0  0  0  0  0  0  0  0  0  0  0  0
   29.5002   15.4128   20.0040 C   0  0  0  0  0  0  0  0  0  0  0  0
   30.6495   16.3041   20.4165 C   0  0  0  0  0  0  0  0  0  0  0  0
   31.9740   15.7768   19.9206 C   0  0  0  0  0  0  0  0  0  0  0  0
   33.1018   16.7623   20.2073 C   0  0  0  0  0  0  0  0  0  0  0  0
   33.2512   17.0876   21.6513 N   0  0  0  0  0  0  0  0  0  0  0  0
   25.9126   14.9700   20.4625 O   0  0  0  0  0  0  0  0  0  0  0  0
  2  1  1  1  0  0  0
  2  3  1  0  0  0  0
  2  5  1  0  0  0  0
  3  4  1  0  0  0  0
  3 10  1  0  0  0  0
  5  6  1  0  0  0  0
  6  7  1  0  0  0  0
  7  8  1  0  0  0  0
  8  9  1  0  0  0  0
M  END
>  <CHROM.1>
-149.58676404,-69.54686375,174.10014499,173.61985318,58.17381457,29.43625404
15.75065960,20.37818226,2.97434048,-0.22315806,-1.83150087

>  <Name>
ligand

>  <RI>
0

>  <Rbt.Current_Directory>
/home/itssahil/PROJECTS/Mol_Feturizer/New_Systems/rnas/3DIY

>  <Rbt.Executable>
rbdock ($Id: //depot/dev/client3/rdock/2013.1/src/exe/rbdock.cxx#4 $)

>  <Rbt.Library>
libRbt.so (2013.1, Build901 2013/11/27)

>  <Rbt.Parameter_File>
/export/apps/rDock/src/rDock_2013.1_src/data/scripts/dock_solv.prm

>  <Rbt.Receptor>
prm/pocket_docking_2.prm

>  <SCORE>
-7.20314

>  <SCORE.INTER>
-7.54645

>  <SCORE.INTER.CONST>
1

>  <SCORE.INTER.POLAR>
0

>  <SCORE.INTER.ROT>
5

>  <SCORE.INTER.SOLV>
16.2401

>  <SCORE.INTER.VDW>
-17.3777

>  <SCORE.INTER.norm>
-0.754645

>  <SCORE.INTRA>
0.343313

>  <SCORE.INTRA.DIHEDRAL>
-0.251377

>  <SCORE.INTRA.DIHEDRAL.0>
2.56603

>  <SCORE.INTRA.POLAR>
0

>  <SCORE.INTRA.POLAR.0>
0

>  <SCORE.INTRA.REPUL>
0

>  <SCORE.INTRA.REPUL.0>
0

>  <SCORE.INTRA.SOLV>
0.18806

>  <SCORE.INTRA.SOLV.lig_0>
-32.0799

>  <SCORE.INTRA.VDW>
0.374971

>  <SCORE.INTRA.VDW.0>
-0.618248

>  <SCORE.INTRA.norm>
0.0343313

>  <SCORE.RESTR>
0

>  <SCORE.RESTR.CAVITY>
0

>  <SCORE.RESTR.norm>
0

>  <SCORE.SYSTEM>
0

>  <SCORE.SYSTEM.CONST>
0

>  <SCORE.SYSTEM.DIHEDRAL>
0

>  <SCORE.SYSTEM.SOLV>
0

>  <SCORE.SYSTEM.norm>
0

>  <SCORE.heavy>
10

>  <SCORE.norm>
-0.720314

>  <RMSD>
5.565

$$$$
ligand
 OpenBabel11021811473D
libRbt.so/2013.1/901 2013/11/27
 10  9  0  0  0  0  0  0  0  0999 V2000
   28.0047   15.4281   18.6834 N   0  0  0  0  0  0  0  0  0  0  0  0
   28.1268   15.0615   20.1270 C   0  0  2  0  0  0  0  0  0  0  0  0
   26.7727   15.0528   20.8454 C   0  0  0  0  0  0  0  0  0  0  0  0
   25.6988   15.0567   20.2251 O   0  0  0  0  0  0  0  0  0  0  0  0
   29.1269   15.9762   20.8393 C   0  0  0  0  0  0  0  0  0  0  0  0
   30.5276   15.8780   20.2791 C   0  0  0  0  0  0  0  0  0  0  0  0
   31.4879   16.7862   21.0079 C   0  0  0  0  0  0  0  0  0  0  0  0
   32.8881   16.7016   20.4100 C   0  0  0  0  0  0  0  0  0  0  0  0
   33.8885   17.5402   21.1237 N   0  0  0  0  0  0  0  0  0  0  0  0
   26.7068   15.0042   22.0776 O   0  0  0  0  0  0  0  0  0  0  0  0
  2  1  1  6  0  0  0
  2  3  1  0  0  0  0
  2  5  1  0  0  0  0
  3  4  1  0  0  0  0
  3 10  1  0  0  0  0
  5  6  1  0  0  0  0
  6  7  1  0  0  0  0
  7  8  1  0  0  0  0
  8  9  1  0  0  0  0
M  END
>  <CHROM.1>
14.83490290,-61.73833033,-179.70358479,-178.61021089,-177.85125769,29.28017923
15.84249538,20.57756235,-3.09217484,0.29672609,1.50005565

>  <Name>
ligand

>  <RI>
0

>  <Rbt.Current_Directory>
/home/itssahil/PROJECTS/Mol_Feturizer/New_Systems/rnas/3DIY

>  <Rbt.Executable>
rbdock ($Id: //depot/dev/client3/rdock/2013.1/src/exe/rbdock.cxx#4 $)

>  <Rbt.Library>
libRbt.so (2013.1, Build901 2013/11/27)

>  <Rbt.Parameter_File>
/export/apps/rDock/src/rDock_2013.1_src/data/scripts/dock_solv.prm

>  <Rbt.Receptor>
prm/pocket_docking_7.prm

>  <SCORE>
-9.41367

>  <SCORE.INTER>
-8.67605

>  <SCORE.INTER.CONST>
1

>  <SCORE.INTER.POLAR>
0

>  <SCORE.INTER.ROT>
5

>  <SCORE.INTER.SOLV>
13.3559

>  <SCORE.INTER.VDW>
-17.1693

>  <SCORE.INTER.norm>
-0.867605

>  <SCORE.INTRA>
-0.737626

>  <SCORE.INTRA.DIHEDRAL>
-1.02951

>  <SCORE.INTRA.DIHEDRAL.0>
2.56603

>  <SCORE.INTRA.POLAR>
0

>  <SCORE.INTRA.POLAR.0>
0

>  <SCORE.INTRA.REPUL>
0

>  <SCORE.INTRA.REPUL.0>
0

>  <SCORE.INTRA.SOLV>
-0.69432

>  <SCORE.INTRA.SOLV.lig_0>
-32.0799

>  <SCORE.INTRA.VDW>
0.124291

>  <SCORE.INTRA.VDW.0>
-0.618248

>  <SCORE.INTRA.norm>
-0.0737626

>  <SCORE.RESTR>
0

>  <SCORE.RESTR.CAVITY>
0

>  <SCORE.RESTR.norm>
0

>  <SCORE.SYSTEM>
0

>  <SCORE.SYSTEM.CONST>
0

>  <SCORE.SYSTEM.DIHEDRAL>
0

>  <SCORE.SYSTEM.SOLV>
0

>  <SCORE.SYSTEM.norm>
0

>  <SCORE.heavy>
10

>  <SCORE.norm>
-0.941367

>  <RMSD>
5.566

$$$$
ligand
 OpenBabel11021811473D
libRbt.so/2013.1/901 2013/11/27
 10  9  0  0  0  0  0  0  0  0999 V2000
   25.9375   14.9632   20.3933 N   0  0  0  0  0  0  0  0  0  0  0  0
   26.9233   15.6298   19.4895 C   0  0  2  0  0  0  0  0  0  0  0  0
   27.2831   14.7649   18.2760 C   0  0  0  0  0  0  0  0  0  0  0  0
   26.9820   13.5636   18.2119 O   0  0  0  0  0  0  0  0  0  0  0  0
   28.1763   16.0487   20.2633 C   0  0  0  0  0  0  0  0  0  0  0  0
   28.9184   14.8809   20.8723 C   0  0  0  0  0  0  0  0  0  0  0  0
   30.1868   15.3209   21.5623 C   0  0  0  0  0  0  0  0  0  0  0  0
   31.2035   15.8545   20.5588 C   0  0  0  0  0  0  0  0  0  0  0  0
   32.4262   16.4141   21.1953 N   0  0  0  0  0  0  0  0  0  0  0  0
   27.8584   15.2505   17.2972 O   0  0  0  0  0  0  0  0  0  0  0  0
  2  1  1  1  0  0  0
  2  3  1  0  0  0  0
  2  5  1  0  0  0  0
  3  4  1  0  0  0  0
  3 10  1  0  0  0  0
  5  6  1  0  0  0  0
  6  7  1  0  0  0  0
  7  8  1  0  0  0  0
  8  9  1  0  0  0  0
M  END
>  <CHROM.1>
-12.91467029,61.88193177,176.87452860,-66.70643815,174.88787780,28.58725836
15.24951494,19.77844839,2.61159560,-0.19566101,-1.71932225

>  <Name>
ligand

>  <RI>
0

>  <Rbt.Current_Directory>
/home/itssahil/PROJECTS/Mol_Feturizer/New_Systems/rnas/3DIY

>  <Rbt.Executable>
rbdock ($Id: //depot/dev/client3/rdock/2013.1/src/exe/rbdock.cxx#4 $)

>  <Rbt.Library>
libRbt.so (2013.1, Build901 2013/11/27)

>  <Rbt.Parameter_File>
/export/apps/rDock/src/rDock_2013.1_src/data/scripts/dock_solv.prm

>  <Rbt.Receptor>
prm/pocket_docking_6.prm

>  <SCORE>
-8.88258

>  <SCORE.INTER>
-8.94713

>  <SCORE.INTER.CONST>
1

>  <SCORE.INTER.POLAR>
0

>  <SCORE.INTER.ROT>
5

>  <SCORE.INTER.SOLV>
17.2935

>  <SCORE.INTER.VDW>
-18.6626

>  <SCORE.INTER.norm>
-0.894713

>  <SCORE.INTRA>
0.064552

>  <SCORE.INTRA.DIHEDRAL>
-0.639643

>  <SCORE.INTRA.DIHEDRAL.0>
2.56603

>  <SCORE.INTRA.POLAR>
0

>  <SCORE.INTRA.POLAR.0>
0

>  <SCORE.INTRA.REPUL>
0

>  <SCORE.INTRA.REPUL.0>
0

>  <SCORE.INTRA.SOLV>
-0.425856

>  <SCORE.INTRA.SOLV.lig_0>
-32.0799

>  <SCORE.INTRA.VDW>
0.597301

>  <SCORE.INTRA.VDW.0>
-0.618248

>  <SCORE.INTRA.norm>
0.0064552

>  <SCORE.RESTR>
0

>  <SCORE.RESTR.CAVITY>
0

>  <SCORE.RESTR.norm>
0

>  <SCORE.SYSTEM>
0

>  <SCORE.SYSTEM.CONST>
0

>  <SCORE.SYSTEM.DIHEDRAL>
0

>  <SCORE.SYSTEM.SOLV>
0

>  <SCORE.SYSTEM.norm>
0

>  <SCORE.heavy>
10

>  <SCORE.norm>
-0.888258

>  <RMSD>
5.569

$$$$
ligand
 OpenBabel11021811473D
libRbt.so/2013.1/901 2013/11/27
 10  9  0  0  0  0  0  0  0  0999 V2000
   25.9214   14.9725   20.4038 N   0  0  0  0  0  0  0  0  0  0  0  0
   26.9088   15.6331   19.4973 C   0  0  2  0  0  0  0  0  0  0  0  0
   27.2700   14.7606   18.2898 C   0  0  0  0  0  0  0  0  0  0  0  0
   26.9458   13.5655   18.2212 O   0  0  0  0  0  0  0  0  0  0  0  0
   28.1609   16.0562   20.2704 C   0  0  0  0  0  0  0  0  0  0  0  0
   28.9047   14.8914   20.8830 C   0  0  0  0  0  0  0  0  0  0  0  0
   30.1780   15.3339   21.5621 C   0  0  0  0  0  0  0  0  0  0  0  0
   31.1989   15.8352   20.5463 C   0  0  0  0  0  0  0  0  0  0  0  0
   32.4173   16.4184   21.1696 N   0  0  0  0  0  0  0  0  0  0  0  0
   27.8701   15.2340   17.3199 O   0  0  0  0  0  0  0  0  0  0  0  0
  2  1  1  1  0  0  0
  2  3  1  0  0  0  0
  2  5  1  0  0  0  0
  3  4  1  0  0  0  0
  3 10  1  0  0  0  0
  5  6  1  0  0  0  0
  6  7  1  0  0  0  0
  7  8  1  0  0  0  0
  8  9  1  0  0  0  0
M  END
>  <CHROM.1>
-11.48535406,62.11519362,176.39245759,-67.73034292,173.87526375,28.57531095
15.25031306,19.78294661,2.61673096,-0.19158031,-1.72944021

>  <Name>
ligand

>  <RI>
0

>  <Rbt.Current_Directory>
/home/itssahil/PROJECTS/Mol_Feturizer/New_Systems/rnas/3DIY

>  <Rbt.Executable>
rbdock ($Id: //depot/dev/client3/rdock/2013.1/src/exe/rbdock.cxx#4 $)

>  <Rbt.Library>
libRbt.so (2013.1, Build901 2013/11/27)

>  <Rbt.Parameter_File>
/export/apps/rDock/src/rDock_2013.1_src/data/scripts/dock_solv.prm

>  <Rbt.Receptor>
prm/pocket_docking_6.prm

>  <SCORE>
-8.88848

>  <SCORE.INTER>
-8.97153

>  <SCORE.INTER.CONST>
1

>  <SCORE.INTER.POLAR>
0

>  <SCORE.INTER.ROT>
5

>  <SCORE.INTER.SOLV>
17.2845

>  <SCORE.INTER.VDW>
-18.6759

>  <SCORE.INTER.norm>
-0.897153

>  <SCORE.INTRA>
0.0830451

>  <SCORE.INTRA.DIHEDRAL>
-0.524294

>  <SCORE.INTRA.DIHEDRAL.0>
2.56603

>  <SCORE.INTRA.POLAR>
0

>  <SCORE.INTRA.POLAR.0>
0

>  <SCORE.INTRA.REPUL>
0

>  <SCORE.INTRA.REPUL.0>
0

>  <SCORE.INTRA.SOLV>
-0.429903

>  <SCORE.INTRA.SOLV.lig_0>
-32.0799

>  <SCORE.INTRA.VDW>
0.560144

>  <SCORE.INTRA.VDW.0>
-0.618248

>  <SCORE.INTRA.norm>
0.00830451

>  <SCORE.RESTR>
0

>  <SCORE.RESTR.CAVITY>
0

>  <SCORE.RESTR.norm>
0

>  <SCORE.SYSTEM>
0

>  <SCORE.SYSTEM.CONST>
0

>  <SCORE.SYSTEM.DIHEDRAL>
0

>  <SCORE.SYSTEM.SOLV>
0

>  <SCORE.SYSTEM.norm>
0

>  <SCORE.heavy>
10

>  <SCORE.norm>
-0.888848

>  <RMSD>
5.571

$$$$
ligand
 OpenBabel11021811473D
libRbt.so/2013.1/901 2013/11/27
 10  9  0  0  0  0  0  0  0  0999 V2000
   25.8794   14.9607   20.4268 N   0  0  0  0  0  0  0  0  0  0  0  0
   26.8750   15.6085   19.5201 C   0  0  2  0  0  0  0  0  0  0  0  0
   27.2564   14.7142   18.3349 C   0  0  0  0  0  0  0  0  0  0  0  0
   26.9525   13.5126   18.2929 O   0  0  0  0  0  0  0  0  0  0  0  0
   28.1147   16.0539   20.3005 C   0  0  0  0  0  0  0  0  0  0  0  0
   28.8353   14.9101   20.9771 C   0  0  0  0  0  0  0  0  0  0  0  0
   30.1219   15.3623   21.6240 C   0  0  0  0  0  0  0  0  0  0  0  0
   31.1468   15.7844   20.5767 C   0  0  0  0  0  0  0  0  0  0  0  0
   32.3950   16.3440   21.1615 N   0  0  0  0  0  0  0  0  0  0  0  0
   27.8532   15.1748   17.3568 O   0  0  0  0  0  0  0  0  0  0  0  0
  2  1  1  1  0  0  0
  2  3  1  0  0  0  0
  2  5  1  0  0  0  0
  3  4  1  0  0  0  0
  3 10  1  0  0  0  0
  5  6  1  0  0  0  0
  6  7  1  0  0  0  0
  7  8  1  0  0  0  0
  8  9  1  0  0  0  0
M  END
>  <CHROM.1>
-12.31193963,60.54158879,174.48601675,-67.53932944,175.30714081,28.54126285
15.22224096,19.82419321,2.61429859,-0.17916869,-1.75250018

>  <Name>
ligand

>  <RI>
0

>  <Rbt.Current_Directory>
/home/itssahil/PROJECTS/Mol_Feturizer/New_Systems/rnas/3DIY

>  <Rbt.Executable>
rbdock ($Id: //depot/dev/client3/rdock/2013.1/src/exe/rbdock.cxx#4 $)

>  <Rbt.Library>
libRbt.so (2013.1, Build901 2013/11/27)

>  <Rbt.Parameter_File>
/export/apps/rDock/src/rDock_2013.1_src/data/scripts/dock_solv.prm

>  <Rbt.Receptor>
prm/pocket_docking_8.prm

>  <SCORE>
-8.85174

>  <SCORE.INTER>
-8.92565

>  <SCORE.INTER.CONST>
1

>  <SCORE.INTER.POLAR>
0

>  <SCORE.INTER.ROT>
5

>  <SCORE.INTER.SOLV>
17.5054

>  <SCORE.INTER.VDW>
-18.7189

>  <SCORE.INTER.norm>
-0.892565

>  <SCORE.INTRA>
0.0739151

>  <SCORE.INTRA.DIHEDRAL>
-0.531121

>  <SCORE.INTRA.DIHEDRAL.0>
2.56603

>  <SCORE.INTRA.POLAR>
0

>  <SCORE.INTRA.POLAR.0>
0

>  <SCORE.INTRA.REPUL>
0

>  <SCORE.INTRA.REPUL.0>
0

>  <SCORE.INTRA.SOLV>
-0.425431

>  <SCORE.INTRA.SOLV.lig_0>
-32.0799

>  <SCORE.INTRA.VDW>
0.552191

>  <SCORE.INTRA.VDW.0>
-0.618248

>  <SCORE.INTRA.norm>
0.00739151

>  <SCORE.RESTR>
0

>  <SCORE.RESTR.CAVITY>
0

>  <SCORE.RESTR.norm>
0

>  <SCORE.SYSTEM>
0

>  <SCORE.SYSTEM.CONST>
0

>  <SCORE.SYSTEM.DIHEDRAL>
0

>  <SCORE.SYSTEM.SOLV>
0

>  <SCORE.SYSTEM.norm>
0

>  <SCORE.heavy>
10

>  <SCORE.norm>
-0.885174

>  <RMSD>
5.572

$$$$
ligand
 OpenBabel11021811473D
libRbt.so/2013.1/901 2013/11/27
 10  9  0  0  0  0  0  0  0  0999 V2000
   25.8875   14.9302   20.4553 N   0  0  0  0  0  0  0  0  0  0  0  0
   26.8692   15.5940   19.5451 C   0  0  2  0  0  0  0  0  0  0  0  0
   27.2470   14.7130   18.3488 C   0  0  0  0  0  0  0  0  0  0  0  0
   26.9405   13.5126   18.2930 O   0  0  0  0  0  0  0  0  0  0  0  0
   28.1124   16.0430   20.3179 C   0  0  0  0  0  0  0  0  0  0  0  0
   28.8377   14.9018   20.9940 C   0  0  0  0  0  0  0  0  0  0  0  0
   30.1298   15.3562   21.6284 C   0  0  0  0  0  0  0  0  0  0  0  0
   31.1336   15.8070   20.5727 C   0  0  0  0  0  0  0  0  0  0  0  0
   32.3848   16.3703   21.1475 N   0  0  0  0  0  0  0  0  0  0  0  0
   27.8432   15.1840   17.3753 O   0  0  0  0  0  0  0  0  0  0  0  0
  2  1  1  1  0  0  0
  2  3  1  0  0  0  0
  2  5  1  0  0  0  0
  3  4  1  0  0  0  0
  3 10  1  0  0  0  0
  5  6  1  0  0  0  0
  6  7  1  0  0  0  0
  7  8  1  0  0  0  0
  8  9  1  0  0  0  0
M  END
>  <CHROM.1>
-11.55294136,59.73609875,174.26514282,-66.06977771,175.26573405,28.53669578
15.22116022,19.83469517,2.61919029,-0.19217839,-1.74074795

>  <Name>
ligand

>  <RI>
0

>  <Rbt.Current_Directory>
/home/itssahil/PROJECTS/Mol_Feturizer/New_Systems/rnas/3DIY

>  <Rbt.Executable>
rbdock ($Id: //depot/dev/client3/rdock/2013.1/src/exe/rbdock.cxx#4 $)

>  <Rbt.Library>
libRbt.so (2013.1, Build901 2013/11/27)

>  <Rbt.Parameter_File>
/export/apps/rDock/src/rDock_2013.1_src/data/scripts/dock_solv.prm

>  <Rbt.Receptor>
prm/blind_docking_60.prm

>  <SCORE>
-8.86361

>  <SCORE.INTER>
-8.97966

>  <SCORE.INTER.CONST>
1

>  <SCORE.INTER.POLAR>
0

>  <SCORE.INTER.ROT>
5

>  <SCORE.INTER.SOLV>
17.4424

>  <SCORE.INTER.VDW>
-18.7339

>  <SCORE.INTER.norm>
-0.897966

>  <SCORE.INTRA>
0.116053

>  <SCORE.INTRA.DIHEDRAL>
-0.602252

>  <SCORE.INTRA.DIHEDRAL.0>
2.56603

>  <SCORE.INTRA.POLAR>
0

>  <SCORE.INTRA.POLAR.0>
0

>  <SCORE.INTRA.REPUL>
0

>  <SCORE.INTRA.REPUL.0>
0

>  <SCORE.INTRA.SOLV>
-0.406254

>  <SCORE.INTRA.SOLV.lig_0>
-32.0799

>  <SCORE.INTRA.VDW>
0.620306

>  <SCORE.INTRA.VDW.0>
-0.618248

>  <SCORE.INTRA.norm>
0.0116053

>  <SCORE.RESTR>
0

>  <SCORE.RESTR.CAVITY>
0

>  <SCORE.RESTR.norm>
0

>  <SCORE.SYSTEM>
0

>  <SCORE.SYSTEM.CONST>
0

>  <SCORE.SYSTEM.DIHEDRAL>
0

>  <SCORE.SYSTEM.SOLV>
0

>  <SCORE.SYSTEM.norm>
0

>  <SCORE.heavy>
10

>  <SCORE.norm>
-0.886361

>  <RMSD>
5.573

$$$$
ligand
 OpenBabel11021811473D
libRbt.so/2013.1/901 2013/11/27
 10  9  0  0  0  0  0  0  0  0999 V2000
   28.9099   15.0152   18.9841 N   0  0  0  0  0  0  0  0  0  0  0  0
   28.4649   15.1679   20.4024 C   0  0  2  0  0  0  0  0  0  0  0  0
   26.9382   15.1694   20.5402 C   0  0  0  0  0  0  0  0  0  0  0  0
   26.1934   15.4913   19.6023 O   0  0  0  0  0  0  0  0  0  0  0  0
   29.0804   16.4188   21.0355 C   0  0  0  0  0  0  0  0  0  0  0  0
   30.5862   16.3490   21.1500 C   0  0  0  0  0  0  0  0  0  0  0  0
   31.1627   17.6125   21.7412 C   0  0  0  0  0  0  0  0  0  0  0  0
   32.6815   17.5281   21.8481 C   0  0  0  0  0  0  0  0  0  0  0  0
   33.3028   18.7473   22.4317 N   0  0  0  0  0  0  0  0  0  0  0  0
   26.3940   14.8114   21.5892 O   0  0  0  0  0  0  0  0  0  0  0  0
  2  1  1  6  0  0  0
  2  3  1  0  0  0  0
  2  5  1  0  0  0  0
  3  4  1  0  0  0  0
  3 10  1  0  0  0  0
  5  6  1  0  0  0  0
  6  7  1  0  0  0  0
  7  8  1  0  0  0  0
  8  9  1  0  0  0  0
M  END
>  <CHROM.1>
-24.11418480,-64.50048691,178.37819958,-179.89913282,-179.73140182,29.32607534
16.22348862,20.93250022,-2.72113266,0.33256168,1.16841927

>  <Name>
ligand

>  <RI>
0

>  <Rbt.Current_Directory>
/home/itssahil/PROJECTS/Mol_Feturizer/New_Systems/rnas/3DIY

>  <Rbt.Executable>
rbdock ($Id: //depot/dev/client3/rdock/2013.1/src/exe/rbdock.cxx#4 $)

>  <Rbt.Library>
libRbt.so (2013.1, Build901 2013/11/27)

>  <Rbt.Parameter_File>
/export/apps/rDock/src/rDock_2013.1_src/data/scripts/dock_solv.prm

>  <Rbt.Receptor>
prm/pocket_docking_2.prm

>  <SCORE>
-8.83132

>  <SCORE.INTER>
-7.81201

>  <SCORE.INTER.CONST>
1

>  <SCORE.INTER.POLAR>
0

>  <SCORE.INTER.ROT>
5

>  <SCORE.INTER.SOLV>
13.0522

>  <SCORE.INTER.VDW>
-16.4921

>  <SCORE.INTER.norm>
-0.781201

>  <SCORE.INTRA>
-1.01984

>  <SCORE.INTRA.DIHEDRAL>
-0.850571

>  <SCORE.INTRA.DIHEDRAL.0>
2.56603

>  <SCORE.INTRA.POLAR>
0

>  <SCORE.INTRA.POLAR.0>
0

>  <SCORE.INTRA.REPUL>
0

>  <SCORE.INTRA.REPUL.0>
0

>  <SCORE.INTRA.SOLV>
-0.717937

>  <SCORE.INTRA.SOLV.lig_0>
-32.0799

>  <SCORE.INTRA.VDW>
-0.235581

>  <SCORE.INTRA.VDW.0>
-0.618248

>  <SCORE.INTRA.norm>
-0.101984

>  <SCORE.RESTR>
0.000527366

>  <SCORE.RESTR.CAVITY>
0.000527366

>  <SCORE.RESTR.norm>
5.27366e-05

>  <SCORE.SYSTEM>
0

>  <SCORE.SYSTEM.CONST>
0

>  <SCORE.SYSTEM.DIHEDRAL>
0

>  <SCORE.SYSTEM.SOLV>
0

>  <SCORE.SYSTEM.norm>
0

>  <SCORE.heavy>
10

>  <SCORE.norm>
-0.883132

>  <RMSD>
5.573

$$$$
ligand
 OpenBabel11021811473D
libRbt.so/2013.1/901 2013/11/27
 10  9  0  0  0  0  0  0  0  0999 V2000
   26.9682   14.4687   20.1362 N   0  0  0  0  0  0  0  0  0  0  0  0
   27.2202   15.4680   19.0541 C   0  0  2  0  0  0  0  0  0  0  0  0
   27.7718   14.8225   17.7778 C   0  0  0  0  0  0  0  0  0  0  0  0
   28.0975   15.4952   16.7882 O   0  0  0  0  0  0  0  0  0  0  0  0
   28.1375   16.5892   19.5499 C   0  0  0  0  0  0  0  0  0  0  0  0
   29.4408   16.0822   20.1243 C   0  0  0  0  0  0  0  0  0  0  0  0
   30.2867   17.2059   20.6722 C   0  0  0  0  0  0  0  0  0  0  0  0
   31.5798   16.6754   21.2819 C   0  0  0  0  0  0  0  0  0  0  0  0
   32.4302   17.7376   21.8835 N   0  0  0  0  0  0  0  0  0  0  0  0
   27.9457   13.6020   17.7065 O   0  0  0  0  0  0  0  0  0  0  0  0
  2  1  1  1  0  0  0
  2  3  1  0  0  0  0
  2  5  1  0  0  0  0
  3  4  1  0  0  0  0
  3 10  1  0  0  0  0
  5  6  1  0  0  0  0
  6  7  1  0  0  0  0
  7  8  1  0  0  0  0
  8  9  1  0  0  0  0
M  END
>  <CHROM.1>
-176.86823115,54.85496613,-176.84386975,178.44898247,-177.85808470,28.99060880
15.79584233,19.46184385,2.43179487,-0.46062807,-1.74437664

>  <Name>
ligand

>  <RI>
0

>  <Rbt.Current_Directory>
/home/itssahil/PROJECTS/Mol_Feturizer/New_Systems/rnas/3DIY

>  <Rbt.Executable>
rbdock ($Id: //depot/dev/client3/rdock/2013.1/src/exe/rbdock.cxx#4 $)

>  <Rbt.Library>
libRbt.so (2013.1, Build901 2013/11/27)

>  <Rbt.Parameter_File>
/export/apps/rDock/src/rDock_2013.1_src/data/scripts/dock_solv.prm

>  <Rbt.Receptor>
prm/pocket_docking_7.prm

>  <SCORE>
-8.92699

>  <SCORE.INTER>
-8.28809

>  <SCORE.INTER.CONST>
1

>  <SCORE.INTER.POLAR>
0

>  <SCORE.INTER.ROT>
5

>  <SCORE.INTER.SOLV>
13.9952

>  <SCORE.INTER.VDW>
-17.1238

>  <SCORE.INTER.norm>
-0.828809

>  <SCORE.INTRA>
-0.638896

>  <SCORE.INTRA.DIHEDRAL>
-0.834549

>  <SCORE.INTRA.DIHEDRAL.0>
2.56603

>  <SCORE.INTRA.POLAR>
0

>  <SCORE.INTRA.POLAR.0>
0

>  <SCORE.INTRA.REPUL>
0

>  <SCORE.INTRA.REPUL.0>
0

>  <SCORE.INTRA.SOLV>
-0.587332

>  <SCORE.INTRA.SOLV.lig_0>
-32.0799

>  <SCORE.INTRA.VDW>
0.0720445

>  <SCORE.INTRA.VDW.0>
-0.618248

>  <SCORE.INTRA.norm>
-0.0638896

>  <SCORE.RESTR>
0

>  <SCORE.RESTR.CAVITY>
0

>  <SCORE.RESTR.norm>
0

>  <SCORE.SYSTEM>
0

>  <SCORE.SYSTEM.CONST>
0

>  <SCORE.SYSTEM.DIHEDRAL>
0

>  <SCORE.SYSTEM.SOLV>
0

>  <SCORE.SYSTEM.norm>
0

>  <SCORE.heavy>
10

>  <SCORE.norm>
-0.892699

>  <RMSD>
5.573

$$$$
ligand
 OpenBabel11021811473D
libRbt.so/2013.1/901 2013/11/27
 10  9  0  0  0  0  0  0  0  0999 V2000
   28.9236   14.9910   19.0031 N   0  0  0  0  0  0  0  0  0  0  0  0
   28.4530   15.1661   20.4106 C   0  0  2  0  0  0  0  0  0  0  0  0
   26.9240   15.1901   20.5180 C   0  0  0  0  0  0  0  0  0  0  0  0
   26.3292   14.7865   21.5286 O   0  0  0  0  0  0  0  0  0  0  0  0
   29.0732   16.4158   21.0416 C   0  0  0  0  0  0  0  0  0  0  0  0
   30.5791   16.3424   21.1521 C   0  0  0  0  0  0  0  0  0  0  0  0
   31.1601   17.6045   21.7419 C   0  0  0  0  0  0  0  0  0  0  0  0
   32.6771   17.5083   21.8638 C   0  0  0  0  0  0  0  0  0  0  0  0
   33.2994   18.7123   22.4775 N   0  0  0  0  0  0  0  0  0  0  0  0
   26.2296   15.6506   19.6067 O   0  0  0  0  0  0  0  0  0  0  0  0
  2  1  1  6  0  0  0
  2  3  1  0  0  0  0
  2  5  1  0  0  0  0
  3  4  1  0  0  0  0
  3 10  1  0  0  0  0
  5  6  1  0  0  0  0
  6  7  1  0  0  0  0
  7  8  1  0  0  0  0
  8  9  1  0  0  0  0
M  END
>  <CHROM.1>
149.90490548,-62.92657212,178.40349138,179.26188020,-178.31201211,29.31946275
16.23071016,20.93387401,-2.71292536,0.31168982,1.14499887

>  <Name>
ligand

>  <RI>
0

>  <Rbt.Current_Directory>
/home/itssahil/PROJECTS/Mol_Feturizer/New_Systems/rnas/3DIY

>  <Rbt.Executable>
rbdock ($Id: //depot/dev/client3/rdock/2013.1/src/exe/rbdock.cxx#4 $)

>  <Rbt.Library>
libRbt.so (2013.1, Build901 2013/11/27)

>  <Rbt.Parameter_File>
/export/apps/rDock/src/rDock_2013.1_src/data/scripts/dock_solv.prm

>  <Rbt.Receptor>
prm/pocket_docking_2.prm

>  <SCORE>
-8.85959

>  <SCORE.INTER>
-7.75821

>  <SCORE.INTER.CONST>
1

>  <SCORE.INTER.POLAR>
0

>  <SCORE.INTER.ROT>
5

>  <SCORE.INTER.SOLV>
13.1219

>  <SCORE.INTER.VDW>
-16.4794

>  <SCORE.INTER.norm>
-0.775821

>  <SCORE.INTRA>
-1.10137

>  <SCORE.INTRA.DIHEDRAL>
-1.03391

>  <SCORE.INTRA.DIHEDRAL.0>
2.56603

>  <SCORE.INTRA.POLAR>
0

>  <SCORE.INTRA.POLAR.0>
0

>  <SCORE.INTRA.REPUL>
0

>  <SCORE.INTRA.REPUL.0>
0

>  <SCORE.INTRA.SOLV>
-0.703579

>  <SCORE.INTRA.SOLV.lig_0>
-32.0799

>  <SCORE.INTRA.VDW>
-0.232629

>  <SCORE.INTRA.VDW.0>
-0.618248

>  <SCORE.INTRA.norm>
-0.110137

>  <SCORE.RESTR>
0

>  <SCORE.RESTR.CAVITY>
0

>  <SCORE.RESTR.norm>
0

>  <SCORE.SYSTEM>
0

>  <SCORE.SYSTEM.CONST>
0

>  <SCORE.SYSTEM.DIHEDRAL>
0

>  <SCORE.SYSTEM.SOLV>
0

>  <SCORE.SYSTEM.norm>
0

>  <SCORE.heavy>
10

>  <SCORE.norm>
-0.885959

>  <RMSD>
5.574

$$$$
ligand
 OpenBabel11021811473D
libRbt.so/2013.1/901 2013/11/27
 10  9  0  0  0  0  0  0  0  0999 V2000
   28.8177   16.3142   19.1833 N   0  0  0  0  0  0  0  0  0  0  0  0
   27.6572   15.4201   18.8887 C   0  0  2  0  0  0  0  0  0  0  0  0
   26.9168   14.9843   20.1584 C   0  0  0  0  0  0  0  0  0  0  0  0
   25.6891   15.1107   20.2801 O   0  0  0  0  0  0  0  0  0  0  0  0
   28.0973   14.2101   18.0602 C   0  0  0  0  0  0  0  0  0  0  0  0
   26.9495   13.3083   17.6668 C   0  0  0  0  0  0  0  0  0  0  0  0
   27.4360   12.0007   17.0905 C   0  0  0  0  0  0  0  0  0  0  0  0
   26.3104   10.9739   17.0266 C   0  0  0  0  0  0  0  0  0  0  0  0
   26.7615    9.6277   16.5822 N   0  0  0  0  0  0  0  0  0  0  0  0
   27.5204   14.4543   21.0963 O   0  0  0  0  0  0  0  0  0  0  0  0
  2  1  1  1  0  0  0
  2  3  1  0  0  0  0
  2  5  1  0  0  0  0
  3  4  1  0  0  0  0
  3 10  1  0  0  0  0
  5  6  1  0  0  0  0
  6  7  1  0  0  0  0
  7  8  1  0  0  0  0
  8  9  1  0  0  0  0
M  END
>  <CHROM.1>
128.33142834,-176.82753376,-168.92749418,165.66989656,-174.74115884,27.19946644
13.64062867,18.63754942,-1.41055852,-0.75950014,-2.43809074

>  <Name>
ligand

>  <RI>
0

>  <Rbt.Current_Directory>
/home/itssahil/PROJECTS/Mol_Feturizer/New_Systems/rnas/3DIY

>  <Rbt.Executable>
rbdock ($Id: //depot/dev/client3/rdock/2013.1/src/exe/rbdock.cxx#4 $)

>  <Rbt.Library>
libRbt.so (2013.1, Build901 2013/11/27)

>  <Rbt.Parameter_File>
/export/apps/rDock/src/rDock_2013.1_src/data/scripts/dock_solv.prm

>  <Rbt.Receptor>
prm/blind_docking_40.prm

>  <SCORE>
-11.5053

>  <SCORE.INTER>
-10.7163

>  <SCORE.INTER.CONST>
1

>  <SCORE.INTER.POLAR>
0

>  <SCORE.INTER.ROT>
5

>  <SCORE.INTER.SOLV>
15.3254

>  <SCORE.INTER.VDW>
-19.186

>  <SCORE.INTER.norm>
-1.07163

>  <SCORE.INTRA>
-0.788952

>  <SCORE.INTRA.DIHEDRAL>
0.405416

>  <SCORE.INTRA.DIHEDRAL.0>
2.56603

>  <SCORE.INTRA.POLAR>
0

>  <SCORE.INTRA.POLAR.0>
0

>  <SCORE.INTRA.REPUL>
0

>  <SCORE.INTRA.REPUL.0>
0

>  <SCORE.INTRA.SOLV>
-1.61173

>  <SCORE.INTRA.SOLV.lig_0>
-32.0799

>  <SCORE.INTRA.VDW>
-0.185794

>  <SCORE.INTRA.VDW.0>
-0.618248

>  <SCORE.INTRA.norm>
-0.0788952

>  <SCORE.RESTR>
0

>  <SCORE.RESTR.CAVITY>
0

>  <SCORE.RESTR.norm>
0

>  <SCORE.SYSTEM>
0

>  <SCORE.SYSTEM.CONST>
0

>  <SCORE.SYSTEM.DIHEDRAL>
0

>  <SCORE.SYSTEM.SOLV>
0

>  <SCORE.SYSTEM.norm>
0

>  <SCORE.heavy>
10

>  <SCORE.norm>
-1.15053

>  <RMSD>
5.582

$$$$
ligand
 OpenBabel11021811473D
libRbt.so/2013.1/901 2013/11/27
 10  9  0  0  0  0  0  0  0  0999 V2000
   28.7908   16.3088   19.2098 N   0  0  0  0  0  0  0  0  0  0  0  0
   27.6403   15.4002   18.9202 C   0  0  2  0  0  0  0  0  0  0  0  0
   26.9277   14.9334   20.1946 C   0  0  0  0  0  0  0  0  0  0  0  0
   27.5431   14.4261   21.1443 O   0  0  0  0  0  0  0  0  0  0  0  0
   28.0866   14.2101   18.0665 C   0  0  0  0  0  0  0  0  0  0  0  0
   26.9452   13.3038   17.6649 C   0  0  0  0  0  0  0  0  0  0  0  0
   27.4408   12.0051   17.0766 C   0  0  0  0  0  0  0  0  0  0  0  0
   26.3246   10.9683   17.0110 C   0  0  0  0  0  0  0  0  0  0  0  0
   26.7942    9.6179   16.5997 N   0  0  0  0  0  0  0  0  0  0  0  0
   25.7097   15.0824   20.3330 O   0  0  0  0  0  0  0  0  0  0  0  0
  2  1  1  1  0  0  0
  2  3  1  0  0  0  0
  2  5  1  0  0  0  0
  3  4  1  0  0  0  0
  3 10  1  0  0  0  0
  5  6  1  0  0  0  0
  6  7  1  0  0  0  0
  7  8  1  0  0  0  0
  8  9  1  0  0  0  0
M  END
>  <CHROM.1>
-51.80877811,-176.19152853,-168.24188178,165.32896755,-172.75195531,27.20472186
13.62599632,18.65683946,-1.41169218,-0.78911140,-2.42620416

>  <Name>
ligand

>  <RI>
0

>  <Rbt.Current_Directory>
/home/itssahil/PROJECTS/Mol_Feturizer/New_Systems/rnas/3DIY

>  <Rbt.Executable>
rbdock ($Id: //depot/dev/client3/rdock/2013.1/src/exe/rbdock.cxx#4 $)

>  <Rbt.Library>
libRbt.so (2013.1, Build901 2013/11/27)

>  <Rbt.Parameter_File>
/export/apps/rDock/src/rDock_2013.1_src/data/scripts/dock_solv.prm

>  <Rbt.Receptor>
prm/blind_docking_40.prm

>  <SCORE>
-11.4848

>  <SCORE.INTER>
-10.799

>  <SCORE.INTER.CONST>
1

>  <SCORE.INTER.POLAR>
0

>  <SCORE.INTER.ROT>
5

>  <SCORE.INTER.SOLV>
15.342

>  <SCORE.INTER.VDW>
-19.2467

>  <SCORE.INTER.norm>
-1.0799

>  <SCORE.INTRA>
-0.685814

>  <SCORE.INTRA.DIHEDRAL>
0.661356

>  <SCORE.INTRA.DIHEDRAL.0>
2.56603

>  <SCORE.INTRA.POLAR>
0

>  <SCORE.INTRA.POLAR.0>
0

>  <SCORE.INTRA.REPUL>
0

>  <SCORE.INTRA.REPUL.0>
0

>  <SCORE.INTRA.SOLV>
-1.59766

>  <SCORE.INTRA.SOLV.lig_0>
-32.0799

>  <SCORE.INTRA.VDW>
-0.217662

>  <SCORE.INTRA.VDW.0>
-0.618248

>  <SCORE.INTRA.norm>
-0.0685814

>  <SCORE.RESTR>
0

>  <SCORE.RESTR.CAVITY>
0

>  <SCORE.RESTR.norm>
0

>  <SCORE.SYSTEM>
0

>  <SCORE.SYSTEM.CONST>
0

>  <SCORE.SYSTEM.DIHEDRAL>
0

>  <SCORE.SYSTEM.SOLV>
0

>  <SCORE.SYSTEM.norm>
0

>  <SCORE.heavy>
10

>  <SCORE.norm>
-1.14848

>  <RMSD>
5.582

$$$$
ligand
 OpenBabel11021811473D
libRbt.so/2013.1/901 2013/11/27
 10  9  0  0  0  0  0  0  0  0999 V2000
   28.8024   16.3149   19.1532 N   0  0  0  0  0  0  0  0  0  0  0  0
   27.6482   15.4070   18.8769 C   0  0  2  0  0  0  0  0  0  0  0  0
   26.9382   14.9558   20.1585 C   0  0  0  0  0  0  0  0  0  0  0  0
   27.5565   14.4661   21.1155 O   0  0  0  0  0  0  0  0  0  0  0  0
   28.0880   14.2066   18.0344 C   0  0  0  0  0  0  0  0  0  0  0  0
   26.9424   13.2999   17.6457 C   0  0  0  0  0  0  0  0  0  0  0  0
   27.4320   11.9935   17.0695 C   0  0  0  0  0  0  0  0  0  0  0  0
   26.3142   10.9572   17.0254 C   0  0  0  0  0  0  0  0  0  0  0  0
   26.7746    9.6072   16.6027 N   0  0  0  0  0  0  0  0  0  0  0  0
   25.7195   15.1007   20.2950 O   0  0  0  0  0  0  0  0  0  0  0  0
  2  1  1  1  0  0  0
  2  3  1  0  0  0  0
  2  5  1  0  0  0  0
  3  4  1  0  0  0  0
  3 10  1  0  0  0  0
  5  6  1  0  0  0  0
  6  7  1  0  0  0  0
  7  8  1  0  0  0  0
  8  9  1  0  0  0  0
M  END
>  <CHROM.1>
-51.24566944,-176.17365145,-168.24328452,165.00483912,-173.81510624,27.20612593
13.63170484,18.63253167,-1.40518466,-0.78787105,-2.43109566

>  <Name>
ligand

>  <RI>
0

>  <Rbt.Current_Directory>
/home/itssahil/PROJECTS/Mol_Feturizer/New_Systems/rnas/3DIY

>  <Rbt.Executable>
rbdock ($Id: //depot/dev/client3/rdock/2013.1/src/exe/rbdock.cxx#4 $)

>  <Rbt.Library>
libRbt.so (2013.1, Build901 2013/11/27)

>  <Rbt.Parameter_File>
/export/apps/rDock/src/rDock_2013.1_src/data/scripts/dock_solv.prm

>  <Rbt.Receptor>
prm/blind_docking_40.prm

>  <SCORE>
-11.504

>  <SCORE.INTER>
-10.8095

>  <SCORE.INTER.CONST>
1

>  <SCORE.INTER.POLAR>
0

>  <SCORE.INTER.ROT>
5

>  <SCORE.INTER.SOLV>
15.3233

>  <SCORE.INTER.VDW>
-19.2475

>  <SCORE.INTER.norm>
-1.08095

>  <SCORE.INTRA>
-0.69448

>  <SCORE.INTRA.DIHEDRAL>
0.647239

>  <SCORE.INTRA.DIHEDRAL.0>
2.56603

>  <SCORE.INTRA.POLAR>
0

>  <SCORE.INTRA.POLAR.0>
0

>  <SCORE.INTRA.REPUL>
0

>  <SCORE.INTRA.REPUL.0>
0

>  <SCORE.INTRA.SOLV>
-1.59836

>  <SCORE.INTRA.SOLV.lig_0>
-32.0799

>  <SCORE.INTRA.VDW>
-0.218918

>  <SCORE.INTRA.VDW.0>
-0.618248

>  <SCORE.INTRA.norm>
-0.069448

>  <SCORE.RESTR>
0

>  <SCORE.RESTR.CAVITY>
0

>  <SCORE.RESTR.norm>
0

>  <SCORE.SYSTEM>
0

>  <SCORE.SYSTEM.CONST>
0

>  <SCORE.SYSTEM.DIHEDRAL>
0

>  <SCORE.SYSTEM.SOLV>
0

>  <SCORE.SYSTEM.norm>
0

>  <SCORE.heavy>
10

>  <SCORE.norm>
-1.1504

>  <RMSD>
5.583

$$$$
ligand
 OpenBabel11021811473D
libRbt.so/2013.1/901 2013/11/27
 10  9  0  0  0  0  0  0  0  0999 V2000
   28.7707   16.3351   19.1406 N   0  0  0  0  0  0  0  0  0  0  0  0
   27.6253   15.4115   18.8800 C   0  0  2  0  0  0  0  0  0  0  0  0
   26.9418   14.9475   20.1713 C   0  0  0  0  0  0  0  0  0  0  0  0
   27.5800   14.4511   21.1116 O   0  0  0  0  0  0  0  0  0  0  0  0
   28.0690   14.2193   18.0278 C   0  0  0  0  0  0  0  0  0  0  0  0
   26.9308   13.2964   17.6562 C   0  0  0  0  0  0  0  0  0  0  0  0
   27.4304   11.9939   17.0799 C   0  0  0  0  0  0  0  0  0  0  0  0
   26.3166   10.9540   17.0208 C   0  0  0  0  0  0  0  0  0  0  0  0
   26.7827    9.6113   16.5815 N   0  0  0  0  0  0  0  0  0  0  0  0
   25.7257   15.0880   20.3330 O   0  0  0  0  0  0  0  0  0  0  0  0
  2  1  1  1  0  0  0
  2  3  1  0  0  0  0
  2  5  1  0  0  0  0
  3  4  1  0  0  0  0
  3 10  1  0  0  0  0
  5  6  1  0  0  0  0
  6  7  1  0  0  0  0
  7  8  1  0  0  0  0
  8  9  1  0  0  0  0
M  END
>  <CHROM.1>
-52.04446804,-176.24401729,-167.76711258,166.42397627,-174.52408414,27.20238087
13.63130416,18.63536357,-1.40494599,-0.80559631,-2.42685650

>  <Name>
ligand

>  <RI>
0

>  <Rbt.Current_Directory>
/home/itssahil/PROJECTS/Mol_Feturizer/New_Systems/rnas/3DIY

>  <Rbt.Executable>
rbdock ($Id: //depot/dev/client3/rdock/2013.1/src/exe/rbdock.cxx#4 $)

>  <Rbt.Library>
libRbt.so (2013.1, Build901 2013/11/27)

>  <Rbt.Parameter_File>
/export/apps/rDock/src/rDock_2013.1_src/data/scripts/dock_solv.prm

>  <Rbt.Receptor>
prm/blind_docking_40.prm

>  <SCORE>
-11.5084

>  <SCORE.INTER>
-10.7434

>  <SCORE.INTER.CONST>
1

>  <SCORE.INTER.POLAR>
0

>  <SCORE.INTER.ROT>
5

>  <SCORE.INTER.SOLV>
15.525

>  <SCORE.INTER.VDW>
-19.2706

>  <SCORE.INTER.norm>
-1.07434

>  <SCORE.INTRA>
-0.764997

>  <SCORE.INTRA.DIHEDRAL>
0.50187

>  <SCORE.INTRA.DIHEDRAL.0>
2.56603

>  <SCORE.INTRA.POLAR>
0

>  <SCORE.INTRA.POLAR.0>
0

>  <SCORE.INTRA.REPUL>
0

>  <SCORE.INTRA.REPUL.0>
0

>  <SCORE.INTRA.SOLV>
-1.5992

>  <SCORE.INTRA.SOLV.lig_0>
-32.0799

>  <SCORE.INTRA.VDW>
-0.216332

>  <SCORE.INTRA.VDW.0>
-0.618248

>  <SCORE.INTRA.norm>
-0.0764997

>  <SCORE.RESTR>
0

>  <SCORE.RESTR.CAVITY>
0

>  <SCORE.RESTR.norm>
0

>  <SCORE.SYSTEM>
0

>  <SCORE.SYSTEM.CONST>
0

>  <SCORE.SYSTEM.DIHEDRAL>
0

>  <SCORE.SYSTEM.SOLV>
0

>  <SCORE.SYSTEM.norm>
0

>  <SCORE.heavy>
10

>  <SCORE.norm>
-1.15084

>  <RMSD>
5.584

$$$$
ligand
 OpenBabel11021811473D
libRbt.so/2013.1/901 2013/11/27
 10  9  0  0  0  0  0  0  0  0999 V2000
   25.8968   14.9123   20.4684 N   0  0  0  0  0  0  0  0  0  0  0  0
   26.8516   15.5913   19.5408 C   0  0  2  0  0  0  0  0  0  0  0  0
   27.2095   14.7222   18.3298 C   0  0  0  0  0  0  0  0  0  0  0  0
   27.7816   15.1872   17.3325 O   0  0  0  0  0  0  0  0  0  0  0  0
   28.1082   16.0458   20.2883 C   0  0  0  0  0  0  0  0  0  0  0  0
   28.8337   14.9128   20.9777 C   0  0  0  0  0  0  0  0  0  0  0  0
   30.1147   15.3792   21.6257 C   0  0  0  0  0  0  0  0  0  0  0  0
   31.1448   15.7887   20.5786 C   0  0  0  0  0  0  0  0  0  0  0  0
   32.3877   16.3607   21.1627 N   0  0  0  0  0  0  0  0  0  0  0  0
   26.9699   13.5109   18.3233 O   0  0  0  0  0  0  0  0  0  0  0  0
  2  1  1  1  0  0  0
  2  3  1  0  0  0  0
  2  5  1  0  0  0  0
  3  4  1  0  0  0  0
  3 10  1  0  0  0  0
  5  6  1  0  0  0  0
  6  7  1  0  0  0  0
  7  8  1  0  0  0  0
  8  9  1  0  0  0  0
M  END
>  <CHROM.1>
166.44680237,57.82358123,176.17549547,-67.98381411,175.34021042,28.52825491
15.22097948,19.82981996,2.61763879,-0.19317427,-1.73262568

>  <Name>
ligand

>  <RI>
0

>  <Rbt.Current_Directory>
/home/itssahil/PROJECTS/Mol_Feturizer/New_Systems/rnas/3DIY

>  <Rbt.Executable>
rbdock ($Id: //depot/dev/client3/rdock/2013.1/src/exe/rbdock.cxx#4 $)

>  <Rbt.Library>
libRbt.so (2013.1, Build901 2013/11/27)

>  <Rbt.Parameter_File>
/export/apps/rDock/src/rDock_2013.1_src/data/scripts/dock_solv.prm

>  <Rbt.Receptor>
prm/pocket_docking_5.prm

>  <SCORE>
-8.90324

>  <SCORE.INTER>
-8.92264

>  <SCORE.INTER.CONST>
1

>  <SCORE.INTER.POLAR>
0

>  <SCORE.INTER.ROT>
5

>  <SCORE.INTER.SOLV>
17.5043

>  <SCORE.INTER.VDW>
-18.7165

>  <SCORE.INTER.norm>
-0.892264

>  <SCORE.INTRA>
0.0194043

>  <SCORE.INTRA.DIHEDRAL>
-0.648072

>  <SCORE.INTRA.DIHEDRAL.0>
2.56603

>  <SCORE.INTRA.POLAR>
0

>  <SCORE.INTRA.POLAR.0>
0

>  <SCORE.INTRA.REPUL>
0

>  <SCORE.INTRA.REPUL.0>
0

>  <SCORE.INTRA.SOLV>
-0.386239

>  <SCORE.INTRA.SOLV.lig_0>
-32.0799

>  <SCORE.INTRA.VDW>
0.53656

>  <SCORE.INTRA.VDW.0>
-0.618248

>  <SCORE.INTRA.norm>
0.00194043

>  <SCORE.RESTR>
0

>  <SCORE.RESTR.CAVITY>
0

>  <SCORE.RESTR.norm>
0

>  <SCORE.SYSTEM>
0

>  <SCORE.SYSTEM.CONST>
0

>  <SCORE.SYSTEM.DIHEDRAL>
0

>  <SCORE.SYSTEM.SOLV>
0

>  <SCORE.SYSTEM.norm>
0

>  <SCORE.heavy>
10

>  <SCORE.norm>
-0.890324

>  <RMSD>
5.584

$$$$
ligand
 OpenBabel11021811473D
libRbt.so/2013.1/901 2013/11/27
 10  9  0  0  0  0  0  0  0  0999 V2000
   28.7932   16.3152   19.1633 N   0  0  0  0  0  0  0  0  0  0  0  0
   27.6426   15.4037   18.8836 C   0  0  2  0  0  0  0  0  0  0  0  0
   26.9405   14.9372   20.1640 C   0  0  0  0  0  0  0  0  0  0  0  0
   27.5623   14.4202   21.1043 O   0  0  0  0  0  0  0  0  0  0  0  0
   28.0852   14.2133   18.0284 C   0  0  0  0  0  0  0  0  0  0  0  0
   26.9447   13.2973   17.6468 C   0  0  0  0  0  0  0  0  0  0  0  0
   27.4416   11.9891   17.0810 C   0  0  0  0  0  0  0  0  0  0  0  0
   26.3214   10.9566   17.0142 C   0  0  0  0  0  0  0  0  0  0  0  0
   26.7829    9.6092   16.5842 N   0  0  0  0  0  0  0  0  0  0  0  0
   25.7254   15.0960   20.3170 O   0  0  0  0  0  0  0  0  0  0  0  0
  2  1  1  1  0  0  0
  2  3  1  0  0  0  0
  2  5  1  0  0  0  0
  3  4  1  0  0  0  0
  3 10  1  0  0  0  0
  5  6  1  0  0  0  0
  6  7  1  0  0  0  0
  7  8  1  0  0  0  0
  8  9  1  0  0  0  0
M  END
>  <CHROM.1>
-52.55721323,-176.69262130,-167.15253666,166.35142724,-174.57159630,27.20866607
13.62419797,18.63352055,-1.40663977,-0.79518228,-2.42874026

>  <Name>
ligand

>  <RI>
0

>  <Rbt.Current_Directory>
/home/itssahil/PROJECTS/Mol_Feturizer/New_Systems/rnas/3DIY

>  <Rbt.Executable>
rbdock ($Id: //depot/dev/client3/rdock/2013.1/src/exe/rbdock.cxx#4 $)

>  <Rbt.Library>
libRbt.so (2013.1, Build901 2013/11/27)

>  <Rbt.Parameter_File>
/export/apps/rDock/src/rDock_2013.1_src/data/scripts/dock_solv.prm

>  <Rbt.Receptor>
prm/blind_docking_100.prm

>  <SCORE>
-11.5004

>  <SCORE.INTER>
-10.7709

>  <SCORE.INTER.CONST>
1

>  <SCORE.INTER.POLAR>
0

>  <SCORE.INTER.ROT>
5

>  <SCORE.INTER.SOLV>
15.4073

>  <SCORE.INTER.VDW>
-19.2497

>  <SCORE.INTER.norm>
-1.07709

>  <SCORE.INTRA>
-0.729473

>  <SCORE.INTRA.DIHEDRAL>
0.554752

>  <SCORE.INTRA.DIHEDRAL.0>
2.56603

>  <SCORE.INTRA.POLAR>
0

>  <SCORE.INTRA.POLAR.0>
0

>  <SCORE.INTRA.REPUL>
0

>  <SCORE.INTRA.REPUL.0>
0

>  <SCORE.INTRA.SOLV>
-1.59963

>  <SCORE.INTRA.SOLV.lig_0>
-32.0799

>  <SCORE.INTRA.VDW>
-0.207032

>  <SCORE.INTRA.VDW.0>
-0.618248

>  <SCORE.INTRA.norm>
-0.0729473

>  <SCORE.RESTR>
0

>  <SCORE.RESTR.CAVITY>
0

>  <SCORE.RESTR.norm>
0

>  <SCORE.SYSTEM>
0

>  <SCORE.SYSTEM.CONST>
0

>  <SCORE.SYSTEM.DIHEDRAL>
0

>  <SCORE.SYSTEM.SOLV>
0

>  <SCORE.SYSTEM.norm>
0

>  <SCORE.heavy>
10

>  <SCORE.norm>
-1.15004

>  <RMSD>
5.585

$$$$
ligand
 OpenBabel11021811473D
libRbt.so/2013.1/901 2013/11/27
 10  9  0  0  0  0  0  0  0  0999 V2000
   28.2929   15.5015   18.7464 N   0  0  0  0  0  0  0  0  0  0  0  0
   28.2239   15.1794   20.2040 C   0  0  2  0  0  0  0  0  0  0  0  0
   26.7819   15.0924   20.7168 C   0  0  0  0  0  0  0  0  0  0  0  0
   26.5198   14.8935   21.9125 O   0  0  0  0  0  0  0  0  0  0  0  0
   29.0446   16.1794   21.0230 C   0  0  0  0  0  0  0  0  0  0  0  0
   30.5097   16.1941   20.6504 C   0  0  0  0  0  0  0  0  0  0  0  0
   31.2787   17.2251   21.4403 C   0  0  0  0  0  0  0  0  0  0  0  0
   32.7581   17.2117   21.0707 C   0  0  0  0  0  0  0  0  0  0  0  0
   33.5498   18.2672   21.7581 N   0  0  0  0  0  0  0  0  0  0  0  0
   25.8247   15.2556   19.9538 O   0  0  0  0  0  0  0  0  0  0  0  0
  2  1  1  6  0  0  0
  2  3  1  0  0  0  0
  2  5  1  0  0  0  0
  3  4  1  0  0  0  0
  3 10  1  0  0  0  0
  5  6  1  0  0  0  0
  6  7  1  0  0  0  0
  7  8  1  0  0  0  0
  8  9  1  0  0  0  0
M  END
>  <CHROM.1>
-176.72748807,-60.14166354,177.90600150,179.03724547,176.38997623,29.23429379
16.09206668,20.75722429,-2.96351633,0.37130264,1.46218557

>  <Name>
ligand

>  <RI>
0

>  <Rbt.Current_Directory>
/home/itssahil/PROJECTS/Mol_Feturizer/New_Systems/rnas/3DIY

>  <Rbt.Executable>
rbdock ($Id: //depot/dev/client3/rdock/2013.1/src/exe/rbdock.cxx#4 $)

>  <Rbt.Library>
libRbt.so (2013.1, Build901 2013/11/27)

>  <Rbt.Parameter_File>
/export/apps/rDock/src/rDock_2013.1_src/data/scripts/dock_solv.prm

>  <Rbt.Receptor>
prm/blind_docking_100.prm

>  <SCORE>
-8.99125

>  <SCORE.INTER>
-8.20884

>  <SCORE.INTER.CONST>
1

>  <SCORE.INTER.POLAR>
0

>  <SCORE.INTER.ROT>
5

>  <SCORE.INTER.SOLV>
12.1355

>  <SCORE.INTER.VDW>
-16.4511

>  <SCORE.INTER.norm>
-0.820884

>  <SCORE.INTRA>
-0.782407

>  <SCORE.INTRA.DIHEDRAL>
-0.948263

>  <SCORE.INTRA.DIHEDRAL.0>
2.56603

>  <SCORE.INTRA.POLAR>
0

>  <SCORE.INTRA.POLAR.0>
0

>  <SCORE.INTRA.REPUL>
0

>  <SCORE.INTRA.REPUL.0>
0

>  <SCORE.INTRA.SOLV>
-0.651723

>  <SCORE.INTRA.SOLV.lig_0>
-32.0799

>  <SCORE.INTRA.VDW>
0.0175862

>  <SCORE.INTRA.VDW.0>
-0.618248

>  <SCORE.INTRA.norm>
-0.0782407

>  <SCORE.RESTR>
0

>  <SCORE.RESTR.CAVITY>
0

>  <SCORE.RESTR.norm>
0

>  <SCORE.SYSTEM>
0

>  <SCORE.SYSTEM.CONST>
0

>  <SCORE.SYSTEM.DIHEDRAL>
0

>  <SCORE.SYSTEM.SOLV>
0

>  <SCORE.SYSTEM.norm>
0

>  <SCORE.heavy>
10

>  <SCORE.norm>
-0.899125

>  <RMSD>
5.586

$$$$
ligand
 OpenBabel11021811473D
libRbt.so/2013.1/901 2013/11/27
 10  9  0  0  0  0  0  0  0  0999 V2000
   28.7874   16.3215   19.1566 N   0  0  0  0  0  0  0  0  0  0  0  0
   27.6341   15.4125   18.8799 C   0  0  2  0  0  0  0  0  0  0  0  0
   26.9297   14.9535   20.1617 C   0  0  0  0  0  0  0  0  0  0  0  0
   27.5508   14.4478   21.1086 O   0  0  0  0  0  0  0  0  0  0  0  0
   28.0733   14.2173   18.0297 C   0  0  0  0  0  0  0  0  0  0  0  0
   26.9315   13.2987   17.6585 C   0  0  0  0  0  0  0  0  0  0  0  0
   27.4258   11.9978   17.0740 C   0  0  0  0  0  0  0  0  0  0  0  0
   26.3125   10.9568   17.0259 C   0  0  0  0  0  0  0  0  0  0  0  0
   26.7753    9.6150   16.5801 N   0  0  0  0  0  0  0  0  0  0  0  0
   25.7134   15.1074   20.3090 O   0  0  0  0  0  0  0  0  0  0  0  0
  2  1  1  1  0  0  0
  2  3  1  0  0  0  0
  2  5  1  0  0  0  0
  3  4  1  0  0  0  0
  3 10  1  0  0  0  0
  5  6  1  0  0  0  0
  6  7  1  0  0  0  0
  7  8  1  0  0  0  0
  8  9  1  0  0  0  0
M  END
>  <CHROM.1>
-51.98601962,-177.06031396,-168.23176951,165.93066627,-174.45995059,27.19801531
13.63345102,18.63325167,-1.40745019,-0.79122736,-2.43086357

>  <Name>
ligand

>  <RI>
0

>  <Rbt.Current_Directory>
/home/itssahil/PROJECTS/Mol_Feturizer/New_Systems/rnas/3DIY

>  <Rbt.Executable>
rbdock ($Id: //depot/dev/client3/rdock/2013.1/src/exe/rbdock.cxx#4 $)

>  <Rbt.Library>
libRbt.so (2013.1, Build901 2013/11/27)

>  <Rbt.Parameter_File>
/export/apps/rDock/src/rDock_2013.1_src/data/scripts/dock_solv.prm

>  <Rbt.Receptor>
prm/pocket_docking_8.prm

>  <SCORE>
-11.5151

>  <SCORE.INTER>
-10.7644

>  <SCORE.INTER.CONST>
1

>  <SCORE.INTER.POLAR>
0

>  <SCORE.INTER.ROT>
5

>  <SCORE.INTER.SOLV>
15.437

>  <SCORE.INTER.VDW>
-19.2552

>  <SCORE.INTER.norm>
-1.07644

>  <SCORE.INTRA>
-0.750752

>  <SCORE.INTRA.DIHEDRAL>
0.494448

>  <SCORE.INTRA.DIHEDRAL.0>
2.56603

>  <SCORE.INTRA.POLAR>
0

>  <SCORE.INTRA.POLAR.0>
0

>  <SCORE.INTRA.REPUL>
0

>  <SCORE.INTRA.REPUL.0>
0

>  <SCORE.INTRA.SOLV>
-1.59957

>  <SCORE.INTRA.SOLV.lig_0>
-32.0799

>  <SCORE.INTRA.VDW>
-0.198193

>  <SCORE.INTRA.VDW.0>
-0.618248

>  <SCORE.INTRA.norm>
-0.0750752

>  <SCORE.RESTR>
0

>  <SCORE.RESTR.CAVITY>
0

>  <SCORE.RESTR.norm>
0

>  <SCORE.SYSTEM>
0

>  <SCORE.SYSTEM.CONST>
0

>  <SCORE.SYSTEM.DIHEDRAL>
0

>  <SCORE.SYSTEM.SOLV>
0

>  <SCORE.SYSTEM.norm>
0

>  <SCORE.heavy>
10

>  <SCORE.norm>
-1.15151

>  <RMSD>
5.587

$$$$
ligand
 OpenBabel11021811473D
libRbt.so/2013.1/901 2013/11/27
 10  9  0  0  0  0  0  0  0  0999 V2000
   25.9158   14.8649   20.4077 N   0  0  0  0  0  0  0  0  0  0  0  0
   26.8764   15.5597   19.4981 C   0  0  2  0  0  0  0  0  0  0  0  0
   27.2537   14.7058   18.2822 C   0  0  0  0  0  0  0  0  0  0  0  0
   26.9066   13.5197   18.1781 O   0  0  0  0  0  0  0  0  0  0  0  0
   28.1214   16.0146   20.2644 C   0  0  0  0  0  0  0  0  0  0  0  0
   28.8924   14.8699   20.8814 C   0  0  0  0  0  0  0  0  0  0  0  0
   30.1617   15.3432   21.5472 C   0  0  0  0  0  0  0  0  0  0  0  0
   31.1687   15.8469   20.5189 C   0  0  0  0  0  0  0  0  0  0  0  0
   32.4189   16.3784   21.1254 N   0  0  0  0  0  0  0  0  0  0  0  0
   27.8912   15.1868   17.3403 O   0  0  0  0  0  0  0  0  0  0  0  0
  2  1  1  1  0  0  0
  2  3  1  0  0  0  0
  2  5  1  0  0  0  0
  3  4  1  0  0  0  0
  3 10  1  0  0  0  0
  5  6  1  0  0  0  0
  6  7  1  0  0  0  0
  7  8  1  0  0  0  0
  8  9  1  0  0  0  0
M  END
>  <CHROM.1>
-7.81575771,61.24876239,176.08818923,-68.10173292,177.62724093,28.55871073
15.20951077,19.77084828,2.62256841,-0.20439208,-1.73022812

>  <Name>
ligand

>  <RI>
0

>  <Rbt.Current_Directory>
/home/itssahil/PROJECTS/Mol_Feturizer/New_Systems/rnas/3DIY

>  <Rbt.Executable>
rbdock ($Id: //depot/dev/client3/rdock/2013.1/src/exe/rbdock.cxx#4 $)

>  <Rbt.Library>
libRbt.so (2013.1, Build901 2013/11/27)

>  <Rbt.Parameter_File>
/export/apps/rDock/src/rDock_2013.1_src/data/scripts/dock_solv.prm

>  <Rbt.Receptor>
prm/blind_docking_100.prm

>  <SCORE>
-8.86405

>  <SCORE.INTER>
-8.89113

>  <SCORE.INTER.CONST>
1

>  <SCORE.INTER.POLAR>
0

>  <SCORE.INTER.ROT>
5

>  <SCORE.INTER.SOLV>
17.3771

>  <SCORE.INTER.VDW>
-18.6531

>  <SCORE.INTER.norm>
-0.889113

>  <SCORE.INTRA>
0.0270798

>  <SCORE.INTRA.DIHEDRAL>
-0.630783

>  <SCORE.INTRA.DIHEDRAL.0>
2.56603

>  <SCORE.INTRA.POLAR>
0

>  <SCORE.INTRA.POLAR.0>
0

>  <SCORE.INTRA.REPUL>
0

>  <SCORE.INTRA.REPUL.0>
0

>  <SCORE.INTRA.SOLV>
-0.447356

>  <SCORE.INTRA.SOLV.lig_0>
-32.0799

>  <SCORE.INTRA.VDW>
0.566149

>  <SCORE.INTRA.VDW.0>
-0.618248

>  <SCORE.INTRA.norm>
0.00270798

>  <SCORE.RESTR>
0

>  <SCORE.RESTR.CAVITY>
0

>  <SCORE.RESTR.norm>
0

>  <SCORE.SYSTEM>
0

>  <SCORE.SYSTEM.CONST>
0

>  <SCORE.SYSTEM.DIHEDRAL>
0

>  <SCORE.SYSTEM.SOLV>
0

>  <SCORE.SYSTEM.norm>
0

>  <SCORE.heavy>
10

>  <SCORE.norm>
-0.886405

>  <RMSD>
5.588

$$$$
ligand
 OpenBabel11021811473D
libRbt.so/2013.1/901 2013/11/27
 10  9  0  0  0  0  0  0  0  0999 V2000
   26.6832   14.5486   20.4446 N   0  0  0  0  0  0  0  0  0  0  0  0
   27.0156   15.2301   19.1570 C   0  0  2  0  0  0  0  0  0  0  0  0
   27.4889   14.2476   18.0796 C   0  0  0  0  0  0  0  0  0  0  0  0
   28.6861   13.9592   17.9325 O   0  0  0  0  0  0  0  0  0  0  0  0
   28.0404   16.3458   19.3791 C   0  0  0  0  0  0  0  0  0  0  0  0
   29.3139   15.8629   20.0350 C   0  0  0  0  0  0  0  0  0  0  0  0
   30.3134   16.9805   20.2094 C   0  0  0  0  0  0  0  0  0  0  0  0
   31.6285   16.4598   20.7792 C   0  0  0  0  0  0  0  0  0  0  0  0
   31.5029   15.9183   22.1591 N   0  0  0  0  0  0  0  0  0  0  0  0
   26.6812   13.6777   17.3396 O   0  0  0  0  0  0  0  0  0  0  0  0
  2  1  1  1  0  0  0
  2  3  1  0  0  0  0
  2  5  1  0  0  0  0
  3  4  1  0  0  0  0
  3 10  1  0  0  0  0
  5  6  1  0  0  0  0
  6  7  1  0  0  0  0
  7  8  1  0  0  0  0
  8  9  1  0  0  0  0
M  END
>  <CHROM.1>
-90.60970254,56.61857138,178.66351775,-175.91468150,-64.95066130,28.73600570
15.29703499,19.52131053,2.40843487,-0.13257510,-2.06797349

>  <Name>
ligand

>  <RI>
0

>  <Rbt.Current_Directory>
/home/itssahil/PROJECTS/Mol_Feturizer/New_Systems/rnas/3DIY

>  <Rbt.Executable>
rbdock ($Id: //depot/dev/client3/rdock/2013.1/src/exe/rbdock.cxx#4 $)

>  <Rbt.Library>
libRbt.so (2013.1, Build901 2013/11/27)

>  <Rbt.Parameter_File>
/export/apps/rDock/src/rDock_2013.1_src/data/scripts/dock_solv.prm

>  <Rbt.Receptor>
prm/pocket_docking_3.prm

>  <SCORE>
-7.32683

>  <SCORE.INTER>
-7.51705

>  <SCORE.INTER.CONST>
1

>  <SCORE.INTER.POLAR>
0

>  <SCORE.INTER.ROT>
5

>  <SCORE.INTER.SOLV>
16.9704

>  <SCORE.INTER.VDW>
-17.6015

>  <SCORE.INTER.norm>
-0.751705

>  <SCORE.INTRA>
0.190219

>  <SCORE.INTRA.DIHEDRAL>
-0.875575

>  <SCORE.INTRA.DIHEDRAL.0>
2.56603

>  <SCORE.INTRA.POLAR>
0

>  <SCORE.INTRA.POLAR.0>
0

>  <SCORE.INTRA.REPUL>
0

>  <SCORE.INTRA.REPUL.0>
0

>  <SCORE.INTRA.SOLV>
0.207375

>  <SCORE.INTRA.SOLV.lig_0>
-32.0799

>  <SCORE.INTRA.VDW>
0.524319

>  <SCORE.INTRA.VDW.0>
-0.618248

>  <SCORE.INTRA.norm>
0.0190219

>  <SCORE.RESTR>
0

>  <SCORE.RESTR.CAVITY>
0

>  <SCORE.RESTR.norm>
0

>  <SCORE.SYSTEM>
0

>  <SCORE.SYSTEM.CONST>
0

>  <SCORE.SYSTEM.DIHEDRAL>
0

>  <SCORE.SYSTEM.SOLV>
0

>  <SCORE.SYSTEM.norm>
0

>  <SCORE.heavy>
10

>  <SCORE.norm>
-0.732683

>  <RMSD>
5.589

$$$$
ligand
 OpenBabel11021811473D
libRbt.so/2013.1/901 2013/11/27
 10  9  0  0  0  0  0  0  0  0999 V2000
   28.7860   16.3151   19.1576 N   0  0  0  0  0  0  0  0  0  0  0  0
   27.6334   15.4046   18.8827 C   0  0  2  0  0  0  0  0  0  0  0  0
   26.9281   14.9493   20.1654 C   0  0  0  0  0  0  0  0  0  0  0  0
   27.5471   14.4372   21.1102 O   0  0  0  0  0  0  0  0  0  0  0  0
   28.0742   14.2069   18.0369 C   0  0  0  0  0  0  0  0  0  0  0  0
   26.9319   13.2910   17.6604 C   0  0  0  0  0  0  0  0  0  0  0  0
   27.4256   11.9915   17.0723 C   0  0  0  0  0  0  0  0  0  0  0  0
   26.3141   10.9485   17.0291 C   0  0  0  0  0  0  0  0  0  0  0  0
   26.7760    9.6093   16.5748 N   0  0  0  0  0  0  0  0  0  0  0  0
   25.7134   15.1128   20.3155 O   0  0  0  0  0  0  0  0  0  0  0  0
  2  1  1  1  0  0  0
  2  3  1  0  0  0  0
  2  5  1  0  0  0  0
  3  4  1  0  0  0  0
  3 10  1  0  0  0  0
  5  6  1  0  0  0  0
  6  7  1  0  0  0  0
  7  8  1  0  0  0  0
  8  9  1  0  0  0  0
M  END
>  <CHROM.1>
-52.57626116,-176.71017193,-168.60491456,165.46641438,-174.68452322,27.19760369
13.62733811,18.63538295,-1.40924163,-0.79025271,-2.43156917

>  <Name>
ligand

>  <RI>
0

>  <Rbt.Current_Directory>
/home/itssahil/PROJECTS/Mol_Feturizer/New_Systems/rnas/3DIY

>  <Rbt.Executable>
rbdock ($Id: //depot/dev/client3/rdock/2013.1/src/exe/rbdock.cxx#4 $)

>  <Rbt.Library>
libRbt.so (2013.1, Build901 2013/11/27)

>  <Rbt.Parameter_File>
/export/apps/rDock/src/rDock_2013.1_src/data/scripts/dock_solv.prm

>  <Rbt.Receptor>
prm/pocket_docking_6.prm

>  <SCORE>
-11.5188

>  <SCORE.INTER>
-10.7683

>  <SCORE.INTER.CONST>
1

>  <SCORE.INTER.POLAR>
0

>  <SCORE.INTER.ROT>
5

>  <SCORE.INTER.SOLV>
15.4303

>  <SCORE.INTER.VDW>
-19.2556

>  <SCORE.INTER.norm>
-1.07683

>  <SCORE.INTRA>
-0.750504

>  <SCORE.INTRA.DIHEDRAL>
0.507189

>  <SCORE.INTRA.DIHEDRAL.0>
2.56603

>  <SCORE.INTRA.POLAR>
0

>  <SCORE.INTRA.POLAR.0>
0

>  <SCORE.INTRA.REPUL>
0

>  <SCORE.INTRA.REPUL.0>
0

>  <SCORE.INTRA.SOLV>
-1.59977

>  <SCORE.INTRA.SOLV.lig_0>
-32.0799

>  <SCORE.INTRA.VDW>
-0.204214

>  <SCORE.INTRA.VDW.0>
-0.618248

>  <SCORE.INTRA.norm>
-0.0750504

>  <SCORE.RESTR>
0

>  <SCORE.RESTR.CAVITY>
0

>  <SCORE.RESTR.norm>
0

>  <SCORE.SYSTEM>
0

>  <SCORE.SYSTEM.CONST>
0

>  <SCORE.SYSTEM.DIHEDRAL>
0

>  <SCORE.SYSTEM.SOLV>
0

>  <SCORE.SYSTEM.norm>
0

>  <SCORE.heavy>
10

>  <SCORE.norm>
-1.15188

>  <RMSD>
5.590

$$$$
ligand
 OpenBabel11021811473D
libRbt.so/2013.1/901 2013/11/27
 10  9  0  0  0  0  0  0  0  0999 V2000
   26.0076   15.3281   20.1763 N   0  0  0  0  0  0  0  0  0  0  0  0
   27.4120   15.1288   19.7062 C   0  0  2  0  0  0  0  0  0  0  0  0
   27.4783   14.4978   18.3108 C   0  0  0  0  0  0  0  0  0  0  0  0
   28.1809   14.9736   17.4064 O   0  0  0  0  0  0  0  0  0  0  0  0
   28.2169   14.3141   20.7224 C   0  0  0  0  0  0  0  0  0  0  0  0
   28.9454   15.1727   21.7312 C   0  0  0  0  0  0  0  0  0  0  0  0
   30.0963   15.9208   21.1034 C   0  0  0  0  0  0  0  0  0  0  0  0
   30.8664   16.7234   22.1466 C   0  0  0  0  0  0  0  0  0  0  0  0
   32.0356   17.4537   21.5872 N   0  0  0  0  0  0  0  0  0  0  0  0
   26.8561   13.4634   18.0503 O   0  0  0  0  0  0  0  0  0  0  0  0
  2  1  1  1  0  0  0
  2  3  1  0  0  0  0
  2  5  1  0  0  0  0
  3  4  1  0  0  0  0
  3 10  1  0  0  0  0
  5  6  1  0  0  0  0
  6  7  1  0  0  0  0
  7  8  1  0  0  0  0
  8  9  1  0  0  0  0
M  END
>  <CHROM.1>
130.42979882,-91.79565545,-70.47401863,-176.96201430,178.49447979,28.60362883
15.27979070,20.05595518,2.44478282,-0.42871626,-1.72922651

>  <Name>
ligand

>  <RI>
0

>  <Rbt.Current_Directory>
/home/itssahil/PROJECTS/Mol_Feturizer/New_Systems/rnas/3DIY

>  <Rbt.Executable>
rbdock ($Id: //depot/dev/client3/rdock/2013.1/src/exe/rbdock.cxx#4 $)

>  <Rbt.Library>
libRbt.so (2013.1, Build901 2013/11/27)

>  <Rbt.Parameter_File>
/export/apps/rDock/src/rDock_2013.1_src/data/scripts/dock_solv.prm

>  <Rbt.Receptor>
prm/pocket_docking_3.prm

>  <SCORE>
-7.19076

>  <SCORE.INTER>
-7.86106

>  <SCORE.INTER.CONST>
1

>  <SCORE.INTER.POLAR>
0

>  <SCORE.INTER.ROT>
5

>  <SCORE.INTER.SOLV>
16.1901

>  <SCORE.INTER.VDW>
-17.5707

>  <SCORE.INTER.norm>
-0.786106

>  <SCORE.INTRA>
0.6703

>  <SCORE.INTRA.DIHEDRAL>
2.59912

>  <SCORE.INTRA.DIHEDRAL.0>
2.56603

>  <SCORE.INTRA.POLAR>
0

>  <SCORE.INTRA.POLAR.0>
0

>  <SCORE.INTRA.REPUL>
0

>  <SCORE.INTRA.REPUL.0>
0

>  <SCORE.INTRA.SOLV>
-0.807356

>  <SCORE.INTRA.SOLV.lig_0>
-32.0799

>  <SCORE.INTRA.VDW>
-0.225584

>  <SCORE.INTRA.VDW.0>
-0.618248

>  <SCORE.INTRA.norm>
0.06703

>  <SCORE.RESTR>
0

>  <SCORE.RESTR.CAVITY>
0

>  <SCORE.RESTR.norm>
0

>  <SCORE.SYSTEM>
0

>  <SCORE.SYSTEM.CONST>
0

>  <SCORE.SYSTEM.DIHEDRAL>
0

>  <SCORE.SYSTEM.SOLV>
0

>  <SCORE.SYSTEM.norm>
0

>  <SCORE.heavy>
10

>  <SCORE.norm>
-0.719076

>  <RMSD>
5.591

$$$$
ligand
 OpenBabel11021811473D
libRbt.so/2013.1/901 2013/11/27
 10  9  0  0  0  0  0  0  0  0999 V2000
   28.6891   14.8547   18.8916 N   0  0  0  0  0  0  0  0  0  0  0  0
   28.2737   14.9576   20.3234 C   0  0  2  0  0  0  0  0  0  0  0  0
   26.7524   15.0542   20.4862 C   0  0  0  0  0  0  0  0  0  0  0  0
   26.1782   14.6979   21.5260 O   0  0  0  0  0  0  0  0  0  0  0  0
   28.9809   16.1270   21.0137 C   0  0  0  0  0  0  0  0  0  0  0  0
   30.4839   15.9711   21.0592 C   0  0  0  0  0  0  0  0  0  0  0  0
   31.1578   17.1967   21.6269 C   0  0  0  0  0  0  0  0  0  0  0  0
   32.6757   17.0544   21.5975 C   0  0  0  0  0  0  0  0  0  0  0  0
   33.3941   18.2814   22.0355 N   0  0  0  0  0  0  0  0  0  0  0  0
   26.0460   15.5288   19.5915 O   0  0  0  0  0  0  0  0  0  0  0  0
  2  1  1  6  0  0  0
  2  3  1  0  0  0  0
  2  5  1  0  0  0  0
  3  4  1  0  0  0  0
  3 10  1  0  0  0  0
  5  6  1  0  0  0  0
  6  7  1  0  0  0  0
  7  8  1  0  0  0  0
  8  9  1  0  0  0  0
M  END
>  <CHROM.1>
154.93702232,-62.61450875,174.60808266,-176.97420523,174.96751432,29.21749291
15.96855598,20.81630320,-2.79507488,0.29822554,1.21347864

>  <Name>
ligand

>  <RI>
0

>  <Rbt.Current_Directory>
/home/itssahil/PROJECTS/Mol_Feturizer/New_Systems/rnas/3DIY

>  <Rbt.Executable>
rbdock ($Id: //depot/dev/client3/rdock/2013.1/src/exe/rbdock.cxx#4 $)

>  <Rbt.Library>
libRbt.so (2013.1, Build901 2013/11/27)

>  <Rbt.Parameter_File>
/export/apps/rDock/src/rDock_2013.1_src/data/scripts/dock_solv.prm

>  <Rbt.Receptor>
prm/blind_docking_60.prm

>  <SCORE>
-9.27494

>  <SCORE.INTER>
-8.31967

>  <SCORE.INTER.CONST>
1

>  <SCORE.INTER.POLAR>
0

>  <SCORE.INTER.ROT>
5

>  <SCORE.INTER.SOLV>
12.7127

>  <SCORE.INTER.VDW>
-16.7173

>  <SCORE.INTER.norm>
-0.831967

>  <SCORE.INTRA>
-0.955268

>  <SCORE.INTRA.DIHEDRAL>
-0.809949

>  <SCORE.INTRA.DIHEDRAL.0>
2.56603

>  <SCORE.INTRA.POLAR>
0

>  <SCORE.INTRA.POLAR.0>
0

>  <SCORE.INTRA.REPUL>
0

>  <SCORE.INTRA.REPUL.0>
0

>  <SCORE.INTRA.SOLV>
-0.674302

>  <SCORE.INTRA.SOLV.lig_0>
-32.0799

>  <SCORE.INTRA.VDW>
-0.213143

>  <SCORE.INTRA.VDW.0>
-0.618248

>  <SCORE.INTRA.norm>
-0.0955268

>  <SCORE.RESTR>
0

>  <SCORE.RESTR.CAVITY>
0

>  <SCORE.RESTR.norm>
0

>  <SCORE.SYSTEM>
0

>  <SCORE.SYSTEM.CONST>
0

>  <SCORE.SYSTEM.DIHEDRAL>
0

>  <SCORE.SYSTEM.SOLV>
0

>  <SCORE.SYSTEM.norm>
0

>  <SCORE.heavy>
10

>  <SCORE.norm>
-0.927494

>  <RMSD>
5.595

$$$$
ligand
 OpenBabel11021811473D
libRbt.so/2013.1/901 2013/11/27
 10  9  0  0  0  0  0  0  0  0999 V2000
   26.1405   15.6130   19.7256 N   0  0  0  0  0  0  0  0  0  0  0  0
   27.5217   15.3114   19.2414 C   0  0  2  0  0  0  0  0  0  0  0  0
   27.5356   14.7857   17.8015 C   0  0  0  0  0  0  0  0  0  0  0  0
   28.2099   15.3245   16.9110 O   0  0  0  0  0  0  0  0  0  0  0  0
   28.2338   14.3449   20.1917 C   0  0  0  0  0  0  0  0  0  0  0  0
   28.8283   15.0290   21.4017 C   0  0  0  0  0  0  0  0  0  0  0  0
   30.0079   15.8955   21.0327 C   0  0  0  0  0  0  0  0  0  0  0  0
   30.6454   16.5153   22.2715 C   0  0  0  0  0  0  0  0  0  0  0  0
   31.8192   17.3767   21.9654 N   0  0  0  0  0  0  0  0  0  0  0  0
   26.8975   13.7764   17.4867 O   0  0  0  0  0  0  0  0  0  0  0  0
  2  1  1  1  0  0  0
  2  3  1  0  0  0  0
  2  5  1  0  0  0  0
  3  4  1  0  0  0  0
  3 10  1  0  0  0  0
  5  6  1  0  0  0  0
  6  7  1  0  0  0  0
  7  8  1  0  0  0  0
  8  9  1  0  0  0  0
M  END
>  <CHROM.1>
124.60261025,-81.45835591,-69.63733682,-176.75864947,179.76022033,28.57764256
15.38261178,19.76240759,2.33497107,-0.43301700,-1.63219756

>  <Name>
ligand

>  <RI>
0

>  <Rbt.Current_Directory>
/home/itssahil/PROJECTS/Mol_Feturizer/New_Systems/rnas/3DIY

>  <Rbt.Executable>
rbdock ($Id: //depot/dev/client3/rdock/2013.1/src/exe/rbdock.cxx#4 $)

>  <Rbt.Library>
libRbt.so (2013.1, Build901 2013/11/27)

>  <Rbt.Parameter_File>
/export/apps/rDock/src/rDock_2013.1_src/data/scripts/dock_solv.prm

>  <Rbt.Receptor>
prm/blind_docking_80.prm

>  <SCORE>
-7.99976

>  <SCORE.INTER>
-8.09374

>  <SCORE.INTER.CONST>
1

>  <SCORE.INTER.POLAR>
0

>  <SCORE.INTER.ROT>
5

>  <SCORE.INTER.SOLV>
15.8989

>  <SCORE.INTER.VDW>
-17.6288

>  <SCORE.INTER.norm>
-0.809374

>  <SCORE.INTRA>
0.0939769

>  <SCORE.INTRA.DIHEDRAL>
1.05044

>  <SCORE.INTRA.DIHEDRAL.0>
2.56603

>  <SCORE.INTRA.POLAR>
0

>  <SCORE.INTRA.POLAR.0>
0

>  <SCORE.INTRA.REPUL>
0

>  <SCORE.INTRA.REPUL.0>
0

>  <SCORE.INTRA.SOLV>
-0.619188

>  <SCORE.INTRA.SOLV.lig_0>
-32.0799

>  <SCORE.INTRA.VDW>
-0.121652

>  <SCORE.INTRA.VDW.0>
-0.618248

>  <SCORE.INTRA.norm>
0.00939769

>  <SCORE.RESTR>
0

>  <SCORE.RESTR.CAVITY>
0

>  <SCORE.RESTR.norm>
0

>  <SCORE.SYSTEM>
0

>  <SCORE.SYSTEM.CONST>
0

>  <SCORE.SYSTEM.DIHEDRAL>
0

>  <SCORE.SYSTEM.SOLV>
0

>  <SCORE.SYSTEM.norm>
0

>  <SCORE.heavy>
10

>  <SCORE.norm>
-0.799976

>  <RMSD>
5.597

$$$$
ligand
 OpenBabel11021811473D
libRbt.so/2013.1/901 2013/11/27
 10  9  0  0  0  0  0  0  0  0999 V2000
   28.7340   14.7396   18.9092 N   0  0  0  0  0  0  0  0  0  0  0  0
   28.2837   14.9388   20.3201 C   0  0  2  0  0  0  0  0  0  0  0  0
   26.7607   15.0695   20.4357 C   0  0  0  0  0  0  0  0  0  0  0  0
   26.0657   15.5077   19.5068 O   0  0  0  0  0  0  0  0  0  0  0  0
   28.9932   16.1379   20.9549 C   0  0  0  0  0  0  0  0  0  0  0  0
   30.4929   15.9668   21.0386 C   0  0  0  0  0  0  0  0  0  0  0  0
   31.1673   17.1966   21.5964 C   0  0  0  0  0  0  0  0  0  0  0  0
   32.6853   17.0569   21.5606 C   0  0  0  0  0  0  0  0  0  0  0  0
   33.4028   18.2617   22.0576 N   0  0  0  0  0  0  0  0  0  0  0  0
   26.1667   14.7047   21.4550 O   0  0  0  0  0  0  0  0  0  0  0  0
  2  1  1  6  0  0  0
  2  3  1  0  0  0  0
  2  5  1  0  0  0  0
  3  4  1  0  0  0  0
  3 10  1  0  0  0  0
  5  6  1  0  0  0  0
  6  7  1  0  0  0  0
  7  8  1  0  0  0  0
  8  9  1  0  0  0  0
M  END
>  <CHROM.1>
-27.67522346,-62.07817956,176.77310679,-175.00648970,178.06298293,29.22940099
15.95402879,20.78339978,-2.77126134,0.27534280,1.15359851

>  <Name>
ligand

>  <RI>
0

>  <Rbt.Current_Directory>
/home/itssahil/PROJECTS/Mol_Feturizer/New_Systems/rnas/3DIY

>  <Rbt.Executable>
rbdock ($Id: //depot/dev/client3/rdock/2013.1/src/exe/rbdock.cxx#4 $)

>  <Rbt.Library>
libRbt.so (2013.1, Build901 2013/11/27)

>  <Rbt.Parameter_File>
/export/apps/rDock/src/rDock_2013.1_src/data/scripts/dock_solv.prm

>  <Rbt.Receptor>
prm/pocket_docking_8.prm

>  <SCORE>
-9.23286

>  <SCORE.INTER>
-8.28361

>  <SCORE.INTER.CONST>
1

>  <SCORE.INTER.POLAR>
0

>  <SCORE.INTER.ROT>
5

>  <SCORE.INTER.SOLV>
12.9968

>  <SCORE.INTER.VDW>
-16.788

>  <SCORE.INTER.norm>
-0.828361

>  <SCORE.INTRA>
-0.949247

>  <SCORE.INTRA.DIHEDRAL>
-0.767088

>  <SCORE.INTRA.DIHEDRAL.0>
2.56603

>  <SCORE.INTRA.POLAR>
0

>  <SCORE.INTRA.POLAR.0>
0

>  <SCORE.INTRA.REPUL>
0

>  <SCORE.INTRA.REPUL.0>
0

>  <SCORE.INTRA.SOLV>
-0.678372

>  <SCORE.INTRA.SOLV.lig_0>
-32.0799

>  <SCORE.INTRA.VDW>
-0.226517

>  <SCORE.INTRA.VDW.0>
-0.618248

>  <SCORE.INTRA.norm>
-0.0949247

>  <SCORE.RESTR>
0

>  <SCORE.RESTR.CAVITY>
0

>  <SCORE.RESTR.norm>
0

>  <SCORE.SYSTEM>
0

>  <SCORE.SYSTEM.CONST>
0

>  <SCORE.SYSTEM.DIHEDRAL>
0

>  <SCORE.SYSTEM.SOLV>
0

>  <SCORE.SYSTEM.norm>
0

>  <SCORE.heavy>
10

>  <SCORE.norm>
-0.923286

>  <RMSD>
5.598

$$$$
ligand
 OpenBabel11021811473D
libRbt.so/2013.1/901 2013/11/27
 10  9  0  0  0  0  0  0  0  0999 V2000
   28.7293   14.7101   18.9496 N   0  0  0  0  0  0  0  0  0  0  0  0
   28.2498   14.9001   20.3521 C   0  0  2  0  0  0  0  0  0  0  0  0
   26.7256   15.0405   20.4358 C   0  0  0  0  0  0  0  0  0  0  0  0
   26.0848   14.6724   21.4317 O   0  0  0  0  0  0  0  0  0  0  0  0
   28.9536   16.0885   21.0128 C   0  0  0  0  0  0  0  0  0  0  0  0
   30.4561   15.9330   21.0724 C   0  0  0  0  0  0  0  0  0  0  0  0
   31.1267   17.1704   21.6180 C   0  0  0  0  0  0  0  0  0  0  0  0
   32.6453   17.0402   21.5718 C   0  0  0  0  0  0  0  0  0  0  0  0
   33.3587   18.2619   22.0319 N   0  0  0  0  0  0  0  0  0  0  0  0
   26.0839   15.5635   19.5196 O   0  0  0  0  0  0  0  0  0  0  0  0
  2  1  1  6  0  0  0
  2  3  1  0  0  0  0
  2  5  1  0  0  0  0
  3  4  1  0  0  0  0
  3 10  1  0  0  0  0
  5  6  1  0  0  0  0
  6  7  1  0  0  0  0
  7  8  1  0  0  0  0
  8  9  1  0  0  0  0
M  END
>  <CHROM.1>
150.10097204,-59.53948515,175.01754087,-175.62120075,176.96103530,29.19563264
15.93521981,20.79898049,-2.76892420,0.26973463,1.13533755

>  <Name>
ligand

>  <RI>
0

>  <Rbt.Current_Directory>
/home/itssahil/PROJECTS/Mol_Feturizer/New_Systems/rnas/3DIY

>  <Rbt.Executable>
rbdock ($Id: //depot/dev/client3/rdock/2013.1/src/exe/rbdock.cxx#4 $)

>  <Rbt.Library>
libRbt.so (2013.1, Build901 2013/11/27)

>  <Rbt.Parameter_File>
/export/apps/rDock/src/rDock_2013.1_src/data/scripts/dock_solv.prm

>  <Rbt.Receptor>
prm/blind_docking_60.prm

>  <SCORE>
-9.35197

>  <SCORE.INTER>
-8.39431

>  <SCORE.INTER.CONST>
1

>  <SCORE.INTER.POLAR>
0

>  <SCORE.INTER.ROT>
5

>  <SCORE.INTER.SOLV>
13.0698

>  <SCORE.INTER.VDW>
-16.8861

>  <SCORE.INTER.norm>
-0.839431

>  <SCORE.INTRA>
-0.957667

>  <SCORE.INTRA.DIHEDRAL>
-0.88141

>  <SCORE.INTRA.DIHEDRAL.0>
2.56603

>  <SCORE.INTRA.POLAR>
0

>  <SCORE.INTRA.POLAR.0>
0

>  <SCORE.INTRA.REPUL>
0

>  <SCORE.INTRA.REPUL.0>
0

>  <SCORE.INTRA.SOLV>
-0.641338

>  <SCORE.INTRA.SOLV.lig_0>
-32.0799

>  <SCORE.INTRA.VDW>
-0.196293

>  <SCORE.INTRA.VDW.0>
-0.618248

>  <SCORE.INTRA.norm>
-0.0957667

>  <SCORE.RESTR>
0

>  <SCORE.RESTR.CAVITY>
0

>  <SCORE.RESTR.norm>
0

>  <SCORE.SYSTEM>
0

>  <SCORE.SYSTEM.CONST>
0

>  <SCORE.SYSTEM.DIHEDRAL>
0

>  <SCORE.SYSTEM.SOLV>
0

>  <SCORE.SYSTEM.norm>
0

>  <SCORE.heavy>
10

>  <SCORE.norm>
-0.935197

>  <RMSD>
5.601

$$$$
ligand
 OpenBabel11021811473D
libRbt.so/2013.1/901 2013/11/27
 10  9  0  0  0  0  0  0  0  0999 V2000
   26.5542   14.7297   20.6197 N   0  0  0  0  0  0  0  0  0  0  0  0
   26.9299   15.2806   19.2824 C   0  0  2  0  0  0  0  0  0  0  0  0
   27.3842   14.1894   18.3063 C   0  0  0  0  0  0  0  0  0  0  0  0
   26.7277   13.8955   17.2961 O   0  0  0  0  0  0  0  0  0  0  0  0
   27.9900   16.3764   19.4221 C   0  0  0  0  0  0  0  0  0  0  0  0
   29.2480   15.9033   20.1144 C   0  0  0  0  0  0  0  0  0  0  0  0
   30.2738   17.0048   20.2275 C   0  0  0  0  0  0  0  0  0  0  0  0
   31.5950   16.4736   20.7729 C   0  0  0  0  0  0  0  0  0  0  0  0
   31.4929   15.9426   22.1588 N   0  0  0  0  0  0  0  0  0  0  0  0
   28.4484   13.5866   18.4768 O   0  0  0  0  0  0  0  0  0  0  0  0
  2  1  1  1  0  0  0
  2  3  1  0  0  0  0
  2  5  1  0  0  0  0
  3  4  1  0  0  0  0
  3 10  1  0  0  0  0
  5  6  1  0  0  0  0
  6  7  1  0  0  0  0
  7  8  1  0  0  0  0
  8  9  1  0  0  0  0
M  END
>  <CHROM.1>
112.98723862,57.90357795,179.64025365,-173.14827170,-63.52775929,28.66489311
15.31040509,19.63960805,2.42360246,-0.02291953,-2.20931606

>  <Name>
ligand

>  <RI>
0

>  <Rbt.Current_Directory>
/home/itssahil/PROJECTS/Mol_Feturizer/New_Systems/rnas/3DIY

>  <Rbt.Executable>
rbdock ($Id: //depot/dev/client3/rdock/2013.1/src/exe/rbdock.cxx#4 $)

>  <Rbt.Library>
libRbt.so (2013.1, Build901 2013/11/27)

>  <Rbt.Parameter_File>
/export/apps/rDock/src/rDock_2013.1_src/data/scripts/dock_solv.prm

>  <Rbt.Receptor>
prm/pocket_docking_5.prm

>  <SCORE>
-7.12457

>  <SCORE.INTER>
-7.08815

>  <SCORE.INTER.CONST>
1

>  <SCORE.INTER.POLAR>
0

>  <SCORE.INTER.ROT>
5

>  <SCORE.INTER.SOLV>
17.6254

>  <SCORE.INTER.VDW>
-17.5339

>  <SCORE.INTER.norm>
-0.708815

>  <SCORE.INTRA>
-0.0364252

>  <SCORE.INTRA.DIHEDRAL>
-0.727044

>  <SCORE.INTRA.DIHEDRAL.0>
2.56603

>  <SCORE.INTRA.POLAR>
0

>  <SCORE.INTRA.POLAR.0>
0

>  <SCORE.INTRA.REPUL>
0

>  <SCORE.INTRA.REPUL.0>
0

>  <SCORE.INTRA.SOLV>
0.191688

>  <SCORE.INTRA.SOLV.lig_0>
-32.0799

>  <SCORE.INTRA.VDW>
0.231253

>  <SCORE.INTRA.VDW.0>
-0.618248

>  <SCORE.INTRA.norm>
-0.00364252

>  <SCORE.RESTR>
0

>  <SCORE.RESTR.CAVITY>
0

>  <SCORE.RESTR.norm>
0

>  <SCORE.SYSTEM>
0

>  <SCORE.SYSTEM.CONST>
0

>  <SCORE.SYSTEM.DIHEDRAL>
0

>  <SCORE.SYSTEM.SOLV>
0

>  <SCORE.SYSTEM.norm>
0

>  <SCORE.heavy>
10

>  <SCORE.norm>
-0.712457

>  <RMSD>
5.601

$$$$
ligand
 OpenBabel11021811473D
libRbt.so/2013.1/901 2013/11/27
 10  9  0  0  0  0  0  0  0  0999 V2000
   28.7137   14.6612   18.9392 N   0  0  0  0  0  0  0  0  0  0  0  0
   28.2478   14.8820   20.3417 C   0  0  2  0  0  0  0  0  0  0  0  0
   26.7250   15.0299   20.4364 C   0  0  0  0  0  0  0  0  0  0  0  0
   26.0891   14.6616   21.4354 O   0  0  0  0  0  0  0  0  0  0  0  0
   28.9619   16.0811   20.9714 C   0  0  0  0  0  0  0  0  0  0  0  0
   30.4617   15.9077   21.0490 C   0  0  0  0  0  0  0  0  0  0  0  0
   31.1415   17.1414   21.5914 C   0  0  0  0  0  0  0  0  0  0  0  0
   32.6586   16.9900   21.5684 C   0  0  0  0  0  0  0  0  0  0  0  0
   33.3825   18.2113   22.0132 N   0  0  0  0  0  0  0  0  0  0  0  0
   26.0797   15.5596   19.5264 O   0  0  0  0  0  0  0  0  0  0  0  0
  2  1  1  6  0  0  0
  2  3  1  0  0  0  0
  2  5  1  0  0  0  0
  3  4  1  0  0  0  0
  3 10  1  0  0  0  0
  5  6  1  0  0  0  0
  6  7  1  0  0  0  0
  7  8  1  0  0  0  0
  8  9  1  0  0  0  0
M  END
>  <CHROM.1>
148.70359983,-60.84320212,176.31677935,-175.84985350,176.38556213,29.20039067
15.90996818,20.78694667,-2.77035569,0.26144832,1.12428065

>  <Name>
ligand

>  <RI>
0

>  <Rbt.Current_Directory>
/home/itssahil/PROJECTS/Mol_Feturizer/New_Systems/rnas/3DIY

>  <Rbt.Executable>
rbdock ($Id: //depot/dev/client3/rdock/2013.1/src/exe/rbdock.cxx#4 $)

>  <Rbt.Library>
libRbt.so (2013.1, Build901 2013/11/27)

>  <Rbt.Parameter_File>
/export/apps/rDock/src/rDock_2013.1_src/data/scripts/dock_solv.prm

>  <Rbt.Receptor>
prm/pocket_docking_5.prm

>  <SCORE>
-9.38622

>  <SCORE.INTER>
-8.38079

>  <SCORE.INTER.CONST>
1

>  <SCORE.INTER.POLAR>
0

>  <SCORE.INTER.ROT>
5

>  <SCORE.INTER.SOLV>
13.235

>  <SCORE.INTER.VDW>
-16.9322

>  <SCORE.INTER.norm>
-0.838079

>  <SCORE.INTRA>
-1.00543

>  <SCORE.INTRA.DIHEDRAL>
-0.915534

>  <SCORE.INTRA.DIHEDRAL.0>
2.56603

>  <SCORE.INTRA.POLAR>
0

>  <SCORE.INTRA.POLAR.0>
0

>  <SCORE.INTRA.REPUL>
0

>  <SCORE.INTRA.REPUL.0>
0

>  <SCORE.INTRA.SOLV>
-0.665632

>  <SCORE.INTRA.SOLV.lig_0>
-32.0799

>  <SCORE.INTRA.VDW>
-0.214845

>  <SCORE.INTRA.VDW.0>
-0.618248

>  <SCORE.INTRA.norm>
-0.100543

>  <SCORE.RESTR>
0

>  <SCORE.RESTR.CAVITY>
0

>  <SCORE.RESTR.norm>
0

>  <SCORE.SYSTEM>
0

>  <SCORE.SYSTEM.CONST>
0

>  <SCORE.SYSTEM.DIHEDRAL>
0

>  <SCORE.SYSTEM.SOLV>
0

>  <SCORE.SYSTEM.norm>
0

>  <SCORE.heavy>
10

>  <SCORE.norm>
-0.938622

>  <RMSD>
5.602

$$$$
ligand
 OpenBabel11021811473D
libRbt.so/2013.1/901 2013/11/27
 10  9  0  0  0  0  0  0  0  0999 V2000
   28.7112   14.6766   18.9235 N   0  0  0  0  0  0  0  0  0  0  0  0
   28.2481   14.8839   20.3291 C   0  0  2  0  0  0  0  0  0  0  0  0
   26.7249   15.0254   20.4288 C   0  0  0  0  0  0  0  0  0  0  0  0
   26.0959   14.6703   21.4368 O   0  0  0  0  0  0  0  0  0  0  0  0
   28.9594   16.0805   20.9668 C   0  0  0  0  0  0  0  0  0  0  0  0
   30.4609   15.9167   21.0293 C   0  0  0  0  0  0  0  0  0  0  0  0
   31.1386   17.1568   21.5599 C   0  0  0  0  0  0  0  0  0  0  0  0
   32.6556   17.0019   21.5523 C   0  0  0  0  0  0  0  0  0  0  0  0
   33.3777   18.2229   22.0007 N   0  0  0  0  0  0  0  0  0  0  0  0
   26.0725   15.5366   19.5134 O   0  0  0  0  0  0  0  0  0  0  0  0
  2  1  1  6  0  0  0
  2  3  1  0  0  0  0
  2  5  1  0  0  0  0
  3  4  1  0  0  0  0
  3 10  1  0  0  0  0
  5  6  1  0  0  0  0
  6  7  1  0  0  0  0
  7  8  1  0  0  0  0
  8  9  1  0  0  0  0
M  END
>  <CHROM.1>
150.13295392,-60.39132430,175.40859199,-177.19194785,177.04527171,29.19870703
15.91438032,20.77390446,-2.77267133,0.26716899,1.13196580

>  <Name>
ligand

>  <RI>
0

>  <Rbt.Current_Directory>
/home/itssahil/PROJECTS/Mol_Feturizer/New_Systems/rnas/3DIY

>  <Rbt.Executable>
rbdock ($Id: //depot/dev/client3/rdock/2013.1/src/exe/rbdock.cxx#4 $)

>  <Rbt.Library>
libRbt.so (2013.1, Build901 2013/11/27)

>  <Rbt.Parameter_File>
/export/apps/rDock/src/rDock_2013.1_src/data/scripts/dock_solv.prm

>  <Rbt.Receptor>
prm/pocket_docking_8.prm

>  <SCORE>
-9.40958

>  <SCORE.INTER>
-8.40469

>  <SCORE.INTER.CONST>
1

>  <SCORE.INTER.POLAR>
0

>  <SCORE.INTER.ROT>
5

>  <SCORE.INTER.SOLV>
13.1585

>  <SCORE.INTER.VDW>
-16.9226

>  <SCORE.INTER.norm>
-0.840469

>  <SCORE.INTRA>
-1.00489

>  <SCORE.INTRA.DIHEDRAL>
-0.9437

>  <SCORE.INTRA.DIHEDRAL.0>
2.56603

>  <SCORE.INTRA.POLAR>
0

>  <SCORE.INTRA.POLAR.0>
0

>  <SCORE.INTRA.REPUL>
0

>  <SCORE.INTRA.REPUL.0>
0

>  <SCORE.INTRA.SOLV>
-0.654297

>  <SCORE.INTRA.SOLV.lig_0>
-32.0799

>  <SCORE.INTRA.VDW>
-0.205895

>  <SCORE.INTRA.VDW.0>
-0.618248

>  <SCORE.INTRA.norm>
-0.100489

>  <SCORE.RESTR>
0

>  <SCORE.RESTR.CAVITY>
0

>  <SCORE.RESTR.norm>
0

>  <SCORE.SYSTEM>
0

>  <SCORE.SYSTEM.CONST>
0

>  <SCORE.SYSTEM.DIHEDRAL>
0

>  <SCORE.SYSTEM.SOLV>
0

>  <SCORE.SYSTEM.norm>
0

>  <SCORE.heavy>
10

>  <SCORE.norm>
-0.940958

>  <RMSD>
5.602

$$$$
ligand
 OpenBabel11021811473D
libRbt.so/2013.1/901 2013/11/27
 10  9  0  0  0  0  0  0  0  0999 V2000
   28.6054   14.8926   18.7782 N   0  0  0  0  0  0  0  0  0  0  0  0
   28.2319   14.9957   20.2214 C   0  0  2  0  0  0  0  0  0  0  0  0
   26.7142   15.0456   20.4313 C   0  0  0  0  0  0  0  0  0  0  0  0
   26.1835   14.6708   21.4877 O   0  0  0  0  0  0  0  0  0  0  0  0
   28.9226   16.1933   20.8794 C   0  0  0  0  0  0  0  0  0  0  0  0
   30.4314   16.1153   20.8234 C   0  0  0  0  0  0  0  0  0  0  0  0
   31.0788   17.3376   21.4279 C   0  0  0  0  0  0  0  0  0  0  0  0
   32.5984   17.2638   21.3258 C   0  0  0  0  0  0  0  0  0  0  0  0
   33.2876   18.4638   21.8720 N   0  0  0  0  0  0  0  0  0  0  0  0
   25.9663   15.4994   19.5598 O   0  0  0  0  0  0  0  0  0  0  0  0
  2  1  1  6  0  0  0
  2  3  1  0  0  0  0
  2  5  1  0  0  0  0
  3  4  1  0  0  0  0
  3 10  1  0  0  0  0
  5  6  1  0  0  0  0
  6  7  1  0  0  0  0
  7  8  1  0  0  0  0
  8  9  1  0  0  0  0
M  END
>  <CHROM.1>
154.33942201,-60.02230938,177.58769896,-178.26758375,178.31944721,29.15655168
16.04251458,20.68322977,-2.80522443,0.33435629,1.20459433

>  <Name>
ligand

>  <RI>
0

>  <Rbt.Current_Directory>
/home/itssahil/PROJECTS/Mol_Feturizer/New_Systems/rnas/3DIY

>  <Rbt.Executable>
rbdock ($Id: //depot/dev/client3/rdock/2013.1/src/exe/rbdock.cxx#4 $)

>  <Rbt.Library>
libRbt.so (2013.1, Build901 2013/11/27)

>  <Rbt.Parameter_File>
/export/apps/rDock/src/rDock_2013.1_src/data/scripts/dock_solv.prm

>  <Rbt.Receptor>
prm/pocket_docking_8.prm

>  <SCORE>
-9.26841

>  <SCORE.INTER>
-8.22747

>  <SCORE.INTER.CONST>
1

>  <SCORE.INTER.POLAR>
0

>  <SCORE.INTER.ROT>
5

>  <SCORE.INTER.SOLV>
12.63

>  <SCORE.INTER.VDW>
-16.6283

>  <SCORE.INTER.norm>
-0.822747

>  <SCORE.INTRA>
-1.04094

>  <SCORE.INTRA.DIHEDRAL>
-1.05138

>  <SCORE.INTRA.DIHEDRAL.0>
2.56603

>  <SCORE.INTRA.POLAR>
0

>  <SCORE.INTRA.POLAR.0>
0

>  <SCORE.INTRA.REPUL>
0

>  <SCORE.INTRA.REPUL.0>
0

>  <SCORE.INTRA.SOLV>
-0.659439

>  <SCORE.INTRA.SOLV.lig_0>
-32.0799

>  <SCORE.INTRA.VDW>
-0.185526

>  <SCORE.INTRA.VDW.0>
-0.618248

>  <SCORE.INTRA.norm>
-0.104094

>  <SCORE.RESTR>
0

>  <SCORE.RESTR.CAVITY>
0

>  <SCORE.RESTR.norm>
0

>  <SCORE.SYSTEM>
0

>  <SCORE.SYSTEM.CONST>
0

>  <SCORE.SYSTEM.DIHEDRAL>
0

>  <SCORE.SYSTEM.SOLV>
0

>  <SCORE.SYSTEM.norm>
0

>  <SCORE.heavy>
10

>  <SCORE.norm>
-0.926841

>  <RMSD>
5.607

$$$$
ligand
 OpenBabel11021811473D
libRbt.so/2013.1/901 2013/11/27
 10  9  0  0  0  0  0  0  0  0999 V2000
   28.7035   14.6359   18.9427 N   0  0  0  0  0  0  0  0  0  0  0  0
   28.2307   14.9271   20.3300 C   0  0  2  0  0  0  0  0  0  0  0  0
   26.7046   15.0428   20.4163 C   0  0  0  0  0  0  0  0  0  0  0  0
   26.0742   14.6910   21.4247 O   0  0  0  0  0  0  0  0  0  0  0  0
   28.9144   16.1785   20.8878 C   0  0  0  0  0  0  0  0  0  0  0  0
   30.4137   16.0319   21.0139 C   0  0  0  0  0  0  0  0  0  0  0  0
   31.0628   17.3057   21.4980 C   0  0  0  0  0  0  0  0  0  0  0  0
   32.5799   17.1635   21.5567 C   0  0  0  0  0  0  0  0  0  0  0  0
   33.2753   18.4075   21.9834 N   0  0  0  0  0  0  0  0  0  0  0  0
   26.0502   15.5290   19.4888 O   0  0  0  0  0  0  0  0  0  0  0  0
  2  1  1  6  0  0  0
  2  3  1  0  0  0  0
  2  5  1  0  0  0  0
  3  4  1  0  0  0  0
  3 10  1  0  0  0  0
  5  6  1  0  0  0  0
  6  7  1  0  0  0  0
  7  8  1  0  0  0  0
  8  9  1  0  0  0  0
M  END
>  <CHROM.1>
147.10367384,-62.57317293,177.03356396,-177.29623687,178.00036907,29.15527170
15.98764977,20.75384941,-2.74515028,0.27032825,1.07176379

>  <Name>
ligand

>  <RI>
0

>  <Rbt.Current_Directory>
/home/itssahil/PROJECTS/Mol_Feturizer/New_Systems/rnas/3DIY

>  <Rbt.Executable>
rbdock ($Id: //depot/dev/client3/rdock/2013.1/src/exe/rbdock.cxx#4 $)

>  <Rbt.Library>
libRbt.so (2013.1, Build901 2013/11/27)

>  <Rbt.Parameter_File>
/export/apps/rDock/src/rDock_2013.1_src/data/scripts/dock_solv.prm

>  <Rbt.Receptor>
prm/pocket_docking_7.prm

>  <SCORE>
-9.25377

>  <SCORE.INTER>
-8.17929

>  <SCORE.INTER.CONST>
1

>  <SCORE.INTER.POLAR>
0

>  <SCORE.INTER.ROT>
5

>  <SCORE.INTER.SOLV>
13.2653

>  <SCORE.INTER.VDW>
-16.808

>  <SCORE.INTER.norm>
-0.817929

>  <SCORE.INTRA>
-1.07448

>  <SCORE.INTRA.DIHEDRAL>
-0.981739

>  <SCORE.INTRA.DIHEDRAL.0>
2.56603

>  <SCORE.INTRA.POLAR>
0

>  <SCORE.INTRA.POLAR.0>
0

>  <SCORE.INTRA.REPUL>
0

>  <SCORE.INTRA.REPUL.0>
0

>  <SCORE.INTRA.SOLV>
-0.693287

>  <SCORE.INTRA.SOLV.lig_0>
-32.0799

>  <SCORE.INTRA.VDW>
-0.236966

>  <SCORE.INTRA.VDW.0>
-0.618248

>  <SCORE.INTRA.norm>
-0.107448

>  <SCORE.RESTR>
0

>  <SCORE.RESTR.CAVITY>
0

>  <SCORE.RESTR.norm>
0

>  <SCORE.SYSTEM>
0

>  <SCORE.SYSTEM.CONST>
0

>  <SCORE.SYSTEM.DIHEDRAL>
0

>  <SCORE.SYSTEM.SOLV>
0

>  <SCORE.SYSTEM.norm>
0

>  <SCORE.heavy>
10

>  <SCORE.norm>
-0.925377

>  <RMSD>
5.610

$$$$
ligand
 OpenBabel11021811473D
libRbt.so/2013.1/901 2013/11/27
 10  9  0  0  0  0  0  0  0  0999 V2000
   27.9970   15.4740   22.0766 N   0  0  0  0  0  0  0  0  0  0  0  0
   27.9809   15.7775   20.6135 C   0  0  2  0  0  0  0  0  0  0  0  0
   26.7828   15.1438   19.8972 C   0  0  0  0  0  0  0  0  0  0  0  0
   25.7221   14.8903   20.4878 O   0  0  0  0  0  0  0  0  0  0  0  0
   29.3012   15.3659   19.9565 C   0  0  0  0  0  0  0  0  0  0  0  0
   30.4730   16.2170   20.3900 C   0  0  0  0  0  0  0  0  0  0  0  0
   31.7790   15.6930   19.8441 C   0  0  0  0  0  0  0  0  0  0  0  0
   32.9169   16.6755   20.0992 C   0  0  0  0  0  0  0  0  0  0  0  0
   33.1597   16.9384   21.5432 N   0  0  0  0  0  0  0  0  0  0  0  0
   26.8229   14.8963   18.6881 O   0  0  0  0  0  0  0  0  0  0  0  0
  2  1  1  1  0  0  0
  2  3  1  0  0  0  0
  2  5  1  0  0  0  0
  3  4  1  0  0  0  0
  3 10  1  0  0  0  0
  5  6  1  0  0  0  0
  6  7  1  0  0  0  0
  7  8  1  0  0  0  0
  8  9  1  0  0  0  0
M  END
>  <CHROM.1>
26.50513514,-68.47039350,173.76243175,170.93868994,60.96651380,29.25395654
15.69181618,20.34242416,3.00951293,-0.22061760,-1.75978685

>  <Name>
ligand

>  <RI>
0

>  <Rbt.Current_Directory>
/home/itssahil/PROJECTS/Mol_Feturizer/New_Systems/rnas/3DIY

>  <Rbt.Executable>
rbdock ($Id: //depot/dev/client3/rdock/2013.1/src/exe/rbdock.cxx#4 $)

>  <Rbt.Library>
libRbt.so (2013.1, Build901 2013/11/27)

>  <Rbt.Parameter_File>
/export/apps/rDock/src/rDock_2013.1_src/data/scripts/dock_solv.prm

>  <Rbt.Receptor>
prm/pocket_docking_2.prm

>  <SCORE>
-7.23829

>  <SCORE.INTER>
-7.49576

>  <SCORE.INTER.CONST>
1

>  <SCORE.INTER.POLAR>
0

>  <SCORE.INTER.ROT>
5

>  <SCORE.INTER.SOLV>
16.5884

>  <SCORE.INTER.VDW>
-17.46

>  <SCORE.INTER.norm>
-0.749576

>  <SCORE.INTRA>
0.257464

>  <SCORE.INTRA.DIHEDRAL>
-0.29521

>  <SCORE.INTRA.DIHEDRAL.0>
2.56603

>  <SCORE.INTRA.POLAR>
0

>  <SCORE.INTRA.POLAR.0>
0

>  <SCORE.INTRA.REPUL>
0

>  <SCORE.INTRA.REPUL.0>
0

>  <SCORE.INTRA.SOLV>
0.144322

>  <SCORE.INTRA.SOLV.lig_0>
-32.0799

>  <SCORE.INTRA.VDW>
0.332908

>  <SCORE.INTRA.VDW.0>
-0.618248

>  <SCORE.INTRA.norm>
0.0257464

>  <SCORE.RESTR>
0

>  <SCORE.RESTR.CAVITY>
0

>  <SCORE.RESTR.norm>
0

>  <SCORE.SYSTEM>
0

>  <SCORE.SYSTEM.CONST>
0

>  <SCORE.SYSTEM.DIHEDRAL>
0

>  <SCORE.SYSTEM.SOLV>
0

>  <SCORE.SYSTEM.norm>
0

>  <SCORE.heavy>
10

>  <SCORE.norm>
-0.723829

>  <RMSD>
5.613

$$$$
ligand
 OpenBabel11021811473D
libRbt.so/2013.1/901 2013/11/27
 10  9  0  0  0  0  0  0  0  0999 V2000
   26.6237   14.6396   20.4381 N   0  0  0  0  0  0  0  0  0  0  0  0
   27.0557   15.3452   19.1936 C   0  0  2  0  0  0  0  0  0  0  0  0
   27.5985   14.3812   18.1324 C   0  0  0  0  0  0  0  0  0  0  0  0
   26.8523   13.6468   17.4677 O   0  0  0  0  0  0  0  0  0  0  0  0
   28.0709   16.4454   19.5149 C   0  0  0  0  0  0  0  0  0  0  0  0
   29.2533   15.9494   20.3159 C   0  0  0  0  0  0  0  0  0  0  0  0
   30.1842   17.0748   20.6967 C   0  0  0  0  0  0  0  0  0  0  0  0
   31.3547   16.5639   21.5299 C   0  0  0  0  0  0  0  0  0  0  0  0
   32.2969   17.6366   21.9480 N   0  0  0  0  0  0  0  0  0  0  0  0
   28.8055   14.3308   17.8770 O   0  0  0  0  0  0  0  0  0  0  0  0
  2  1  1  1  0  0  0
  2  3  1  0  0  0  0
  2  5  1  0  0  0  0
  3  4  1  0  0  0  0
  3 10  1  0  0  0  0
  5  6  1  0  0  0  0
  6  7  1  0  0  0  0
  7  8  1  0  0  0  0
  8  9  1  0  0  0  0
M  END
>  <CHROM.1>
74.46488348,53.53924451,-176.03554191,178.73778955,-179.28595949,28.81180547
15.57539279,19.68025228,2.35835787,-0.18077939,-2.12110657

>  <Name>
ligand

>  <RI>
0

>  <Rbt.Current_Directory>
/home/itssahil/PROJECTS/Mol_Feturizer/New_Systems/rnas/3DIY

>  <Rbt.Executable>
rbdock ($Id: //depot/dev/client3/rdock/2013.1/src/exe/rbdock.cxx#4 $)

>  <Rbt.Library>
libRbt.so (2013.1, Build901 2013/11/27)

>  <Rbt.Parameter_File>
/export/apps/rDock/src/rDock_2013.1_src/data/scripts/dock_solv.prm

>  <Rbt.Receptor>
prm/pocket_docking_5.prm

>  <SCORE>
-8.44437

>  <SCORE.INTER>
-8.45623

>  <SCORE.INTER.CONST>
1

>  <SCORE.INTER.POLAR>
0

>  <SCORE.INTER.ROT>
5

>  <SCORE.INTER.SOLV>
14.9839

>  <SCORE.INTER.VDW>
-17.5654

>  <SCORE.INTER.norm>
-0.845623

>  <SCORE.INTRA>
0.0118685

>  <SCORE.INTRA.DIHEDRAL>
-0.726755

>  <SCORE.INTRA.DIHEDRAL.0>
2.56603

>  <SCORE.INTRA.POLAR>
0

>  <SCORE.INTRA.POLAR.0>
0

>  <SCORE.INTRA.REPUL>
0

>  <SCORE.INTRA.REPUL.0>
0

>  <SCORE.INTRA.SOLV>
-0.605942

>  <SCORE.INTRA.SOLV.lig_0>
-32.0799

>  <SCORE.INTRA.VDW>
0.678217

>  <SCORE.INTRA.VDW.0>
-0.618248

>  <SCORE.INTRA.norm>
0.00118685

>  <SCORE.RESTR>
0

>  <SCORE.RESTR.CAVITY>
0

>  <SCORE.RESTR.norm>
0

>  <SCORE.SYSTEM>
0

>  <SCORE.SYSTEM.CONST>
0

>  <SCORE.SYSTEM.DIHEDRAL>
0

>  <SCORE.SYSTEM.SOLV>
0

>  <SCORE.SYSTEM.norm>
0

>  <SCORE.heavy>
10

>  <SCORE.norm>
-0.844437

>  <RMSD>
5.618

$$$$
ligand
 OpenBabel11021811473D
libRbt.so/2013.1/901 2013/11/27
 10  9  0  0  0  0  0  0  0  0999 V2000
   28.6348   14.8355   18.9379 N   0  0  0  0  0  0  0  0  0  0  0  0
   28.1822   14.9267   20.3591 C   0  0  2  0  0  0  0  0  0  0  0  0
   26.6604   15.0654   20.4811 C   0  0  0  0  0  0  0  0  0  0  0  0
   25.9692   15.5514   19.5733 O   0  0  0  0  0  0  0  0  0  0  0  0
   28.9032   16.0630   21.0893 C   0  0  0  0  0  0  0  0  0  0  0  0
   30.4047   15.8908   21.1235 C   0  0  0  0  0  0  0  0  0  0  0  0
   31.0950   17.1026   21.7010 C   0  0  0  0  0  0  0  0  0  0  0  0
   32.6110   16.9751   21.5971 C   0  0  0  0  0  0  0  0  0  0  0  0
   33.3394   18.1960   22.0353 N   0  0  0  0  0  0  0  0  0  0  0  0
   26.0632   14.6600   21.4831 O   0  0  0  0  0  0  0  0  0  0  0  0
  2  1  1  6  0  0  0
  2  3  1  0  0  0  0
  2  5  1  0  0  0  0
  3  4  1  0  0  0  0
  3 10  1  0  0  0  0
  5  6  1  0  0  0  0
  6  7  1  0  0  0  0
  7  8  1  0  0  0  0
  8  9  1  0  0  0  0
M  END
>  <CHROM.1>
-25.68364996,-60.21467154,173.15696519,-174.14122827,174.61343854,29.14040786
15.92295707,20.83803331,-2.79970691,0.28728222,1.22363661

>  <Name>
ligand

>  <RI>
0

>  <Rbt.Current_Directory>
/home/itssahil/PROJECTS/Mol_Feturizer/New_Systems/rnas/3DIY

>  <Rbt.Executable>
rbdock ($Id: //depot/dev/client3/rdock/2013.1/src/exe/rbdock.cxx#4 $)

>  <Rbt.Library>
libRbt.so (2013.1, Build901 2013/11/27)

>  <Rbt.Parameter_File>
/export/apps/rDock/src/rDock_2013.1_src/data/scripts/dock_solv.prm

>  <Rbt.Receptor>
prm/pocket_docking_6.prm

>  <SCORE>
-9.25379

>  <SCORE.INTER>
-8.48499

>  <SCORE.INTER.CONST>
1

>  <SCORE.INTER.POLAR>
0

>  <SCORE.INTER.ROT>
5

>  <SCORE.INTER.SOLV>
12.6384

>  <SCORE.INTER.VDW>
-16.8028

>  <SCORE.INTER.norm>
-0.848499

>  <SCORE.INTRA>
-0.768803

>  <SCORE.INTRA.DIHEDRAL>
-0.505171

>  <SCORE.INTRA.DIHEDRAL.0>
2.56603

>  <SCORE.INTRA.POLAR>
0

>  <SCORE.INTRA.POLAR.0>
0

>  <SCORE.INTRA.REPUL>
0

>  <SCORE.INTRA.REPUL.0>
0

>  <SCORE.INTRA.SOLV>
-0.631975

>  <SCORE.INTRA.SOLV.lig_0>
-32.0799

>  <SCORE.INTRA.VDW>
-0.20023

>  <SCORE.INTRA.VDW.0>
-0.618248

>  <SCORE.INTRA.norm>
-0.0768803

>  <SCORE.RESTR>
0

>  <SCORE.RESTR.CAVITY>
0

>  <SCORE.RESTR.norm>
0

>  <SCORE.SYSTEM>
0

>  <SCORE.SYSTEM.CONST>
0

>  <SCORE.SYSTEM.DIHEDRAL>
0

>  <SCORE.SYSTEM.SOLV>
0

>  <SCORE.SYSTEM.norm>
0

>  <SCORE.heavy>
10

>  <SCORE.norm>
-0.925379

>  <RMSD>
5.618

$$$$
ligand
 OpenBabel11021811473D
libRbt.so/2013.1/901 2013/11/27
 10  9  0  0  0  0  0  0  0  0999 V2000
   25.8162   15.0543   20.3450 N   0  0  0  0  0  0  0  0  0  0  0  0
   27.0687   15.6350   19.7732 C   0  0  2  0  0  0  0  0  0  0  0  0
   27.4684   14.9752   18.4485 C   0  0  0  0  0  0  0  0  0  0  0  0
   27.1621   13.8043   18.1780 O   0  0  0  0  0  0  0  0  0  0  0  0
   28.2117   15.5746   20.7902 C   0  0  0  0  0  0  0  0  0  0  0  0
   29.4483   16.3193   20.3413 C   0  0  0  0  0  0  0  0  0  0  0  0
   30.5314   16.2926   21.3924 C   0  0  0  0  0  0  0  0  0  0  0  0
   31.7823   17.0213   20.9134 C   0  0  0  0  0  0  0  0  0  0  0  0
   32.8625   17.0775   21.9349 N   0  0  0  0  0  0  0  0  0  0  0  0
   28.0834   15.6067   17.5837 O   0  0  0  0  0  0  0  0  0  0  0  0
  2  1  1  1  0  0  0
  2  3  1  0  0  0  0
  2  5  1  0  0  0  0
  3  4  1  0  0  0  0
  3 10  1  0  0  0  0
  5  6  1  0  0  0  0
  6  7  1  0  0  0  0
  7  8  1  0  0  0  0
  8  9  1  0  0  0  0
M  END
>  <CHROM.1>
-27.78980552,-171.95518674,177.40640548,178.76969881,177.45653618,28.84155708
15.71876260,19.93446885,2.61017358,-0.28506889,-1.78960545

>  <Name>
ligand

>  <RI>
0

>  <Rbt.Current_Directory>
/home/itssahil/PROJECTS/Mol_Feturizer/New_Systems/rnas/3DIY

>  <Rbt.Executable>
rbdock ($Id: //depot/dev/client3/rdock/2013.1/src/exe/rbdock.cxx#4 $)

>  <Rbt.Library>
libRbt.so (2013.1, Build901 2013/11/27)

>  <Rbt.Parameter_File>
/export/apps/rDock/src/rDock_2013.1_src/data/scripts/dock_solv.prm

>  <Rbt.Receptor>
prm/blind_docking_100.prm

>  <SCORE>
-8.30876

>  <SCORE.INTER>
-6.99613

>  <SCORE.INTER.CONST>
1

>  <SCORE.INTER.POLAR>
0

>  <SCORE.INTER.ROT>
5

>  <SCORE.INTER.SOLV>
18.4598

>  <SCORE.INTER.VDW>
-17.7507

>  <SCORE.INTER.norm>
-0.699613

>  <SCORE.INTRA>
-1.31262

>  <SCORE.INTRA.DIHEDRAL>
-0.666907

>  <SCORE.INTRA.DIHEDRAL.0>
2.56603

>  <SCORE.INTRA.POLAR>
0

>  <SCORE.INTRA.POLAR.0>
0

>  <SCORE.INTRA.REPUL>
0

>  <SCORE.INTRA.REPUL.0>
0

>  <SCORE.INTRA.SOLV>
-1.58968

>  <SCORE.INTRA.SOLV.lig_0>
-32.0799

>  <SCORE.INTRA.VDW>
-0.184328

>  <SCORE.INTRA.VDW.0>
-0.618248

>  <SCORE.INTRA.norm>
-0.131262

>  <SCORE.RESTR>
0

>  <SCORE.RESTR.CAVITY>
0

>  <SCORE.RESTR.norm>
0

>  <SCORE.SYSTEM>
0

>  <SCORE.SYSTEM.CONST>
0

>  <SCORE.SYSTEM.DIHEDRAL>
0

>  <SCORE.SYSTEM.SOLV>
0

>  <SCORE.SYSTEM.norm>
0

>  <SCORE.heavy>
10

>  <SCORE.norm>
-0.830876

>  <RMSD>
5.619

$$$$
ligand
 OpenBabel11021811473D
libRbt.so/2013.1/901 2013/11/27
 10  9  0  0  0  0  0  0  0  0999 V2000
   28.6438   14.6999   18.9653 N   0  0  0  0  0  0  0  0  0  0  0  0
   28.1693   14.8787   20.3710 C   0  0  2  0  0  0  0  0  0  0  0  0
   26.6480   15.0457   20.4587 C   0  0  0  0  0  0  0  0  0  0  0  0
   25.9993   14.6585   21.4422 O   0  0  0  0  0  0  0  0  0  0  0  0
   28.8954   16.0446   21.0476 C   0  0  0  0  0  0  0  0  0  0  0  0
   30.3929   15.8511   21.1220 C   0  0  0  0  0  0  0  0  0  0  0  0
   31.0911   17.0789   21.6543 C   0  0  0  0  0  0  0  0  0  0  0  0
   32.6066   16.9219   21.5916 C   0  0  0  0  0  0  0  0  0  0  0  0
   33.3464   18.1379   22.0245 N   0  0  0  0  0  0  0  0  0  0  0  0
   26.0173   15.6099   19.5594 O   0  0  0  0  0  0  0  0  0  0  0  0
  2  1  1  6  0  0  0
  2  3  1  0  0  0  0
  2  5  1  0  0  0  0
  3  4  1  0  0  0  0
  3 10  1  0  0  0  0
  5  6  1  0  0  0  0
  6  7  1  0  0  0  0
  7  8  1  0  0  0  0
  8  9  1  0  0  0  0
M  END
>  <CHROM.1>
149.08316792,-60.42264290,173.73440846,-174.26063547,176.35640457,29.13520550
15.89071278,20.82318301,-2.78365786,0.25746460,1.15325424

>  <Name>
ligand

>  <RI>
0

>  <Rbt.Current_Directory>
/home/itssahil/PROJECTS/Mol_Feturizer/New_Systems/rnas/3DIY

>  <Rbt.Executable>
rbdock ($Id: //depot/dev/client3/rdock/2013.1/src/exe/rbdock.cxx#4 $)

>  <Rbt.Library>
libRbt.so (2013.1, Build901 2013/11/27)

>  <Rbt.Parameter_File>
/export/apps/rDock/src/rDock_2013.1_src/data/scripts/dock_solv.prm

>  <Rbt.Receptor>
prm/pocket_docking_3.prm

>  <SCORE>
-9.32547

>  <SCORE.INTER>
-8.41905

>  <SCORE.INTER.CONST>
1

>  <SCORE.INTER.POLAR>
0

>  <SCORE.INTER.ROT>
5

>  <SCORE.INTER.SOLV>
13.0239

>  <SCORE.INTER.VDW>
-16.8873

>  <SCORE.INTER.norm>
-0.841905

>  <SCORE.INTRA>
-0.90642

>  <SCORE.INTRA.DIHEDRAL>
-0.746607

>  <SCORE.INTRA.DIHEDRAL.0>
2.56603

>  <SCORE.INTRA.POLAR>
0

>  <SCORE.INTRA.POLAR.0>
0

>  <SCORE.INTRA.REPUL>
0

>  <SCORE.INTRA.REPUL.0>
0

>  <SCORE.INTRA.SOLV>
-0.645389

>  <SCORE.INTRA.SOLV.lig_0>
-32.0799

>  <SCORE.INTRA.VDW>
-0.210422

>  <SCORE.INTRA.VDW.0>
-0.618248

>  <SCORE.INTRA.norm>
-0.090642

>  <SCORE.RESTR>
0

>  <SCORE.RESTR.CAVITY>
0

>  <SCORE.RESTR.norm>
0

>  <SCORE.SYSTEM>
0

>  <SCORE.SYSTEM.CONST>
0

>  <SCORE.SYSTEM.DIHEDRAL>
0

>  <SCORE.SYSTEM.SOLV>
0

>  <SCORE.SYSTEM.norm>
0

>  <SCORE.heavy>
10

>  <SCORE.norm>
-0.932547

>  <RMSD>
5.619

$$$$
ligand
 OpenBabel11021811473D
libRbt.so/2013.1/901 2013/11/27
 10  9  0  0  0  0  0  0  0  0999 V2000
   28.4210   14.9099   18.6971 N   0  0  0  0  0  0  0  0  0  0  0  0
   28.1144   14.9357   20.1595 C   0  0  2  0  0  0  0  0  0  0  0  0
   26.6124   15.0578   20.4407 C   0  0  0  0  0  0  0  0  0  0  0  0
   26.1140   14.7016   21.5189 O   0  0  0  0  0  0  0  0  0  0  0  0
   28.9024   16.0443   20.8625 C   0  0  0  0  0  0  0  0  0  0  0  0
   30.3968   15.9300   20.6648 C   0  0  0  0  0  0  0  0  0  0  0  0
   31.1421   17.0366   21.3709 C   0  0  0  0  0  0  0  0  0  0  0  0
   32.6273   17.0078   21.0267 C   0  0  0  0  0  0  0  0  0  0  0  0
   33.4042   18.1052   21.6636 N   0  0  0  0  0  0  0  0  0  0  0  0
   25.8477   15.5538   19.6076 O   0  0  0  0  0  0  0  0  0  0  0  0
  2  1  1  6  0  0  0
  2  3  1  0  0  0  0
  2  5  1  0  0  0  0
  3  4  1  0  0  0  0
  3 10  1  0  0  0  0
  5  6  1  0  0  0  0
  6  7  1  0  0  0  0
  7  8  1  0  0  0  0
  8  9  1  0  0  0  0
M  END
>  <CHROM.1>
157.86969703,-56.62310792,-179.96478311,-173.15959259,178.20611725,29.11272483
15.92524988,20.60571874,-2.87814057,0.30891980,1.27538223

>  <Name>
ligand

>  <RI>
0

>  <Rbt.Current_Directory>
/home/itssahil/PROJECTS/Mol_Feturizer/New_Systems/rnas/3DIY

>  <Rbt.Executable>
rbdock ($Id: //depot/dev/client3/rdock/2013.1/src/exe/rbdock.cxx#4 $)

>  <Rbt.Library>
libRbt.so (2013.1, Build901 2013/11/27)

>  <Rbt.Parameter_File>
/export/apps/rDock/src/rDock_2013.1_src/data/scripts/dock_solv.prm

>  <Rbt.Receptor>
prm/pocket_docking_5.prm

>  <SCORE>
-9.14215

>  <SCORE.INTER>
-8.27541

>  <SCORE.INTER.CONST>
1

>  <SCORE.INTER.POLAR>
0

>  <SCORE.INTER.ROT>
5

>  <SCORE.INTER.SOLV>
12.6561

>  <SCORE.INTER.VDW>
-16.669

>  <SCORE.INTER.norm>
-0.827541

>  <SCORE.INTRA>
-0.866739

>  <SCORE.INTRA.DIHEDRAL>
-0.855116

>  <SCORE.INTRA.DIHEDRAL.0>
2.56603

>  <SCORE.INTRA.POLAR>
0

>  <SCORE.INTRA.POLAR.0>
0

>  <SCORE.INTRA.REPUL>
0

>  <SCORE.INTRA.REPUL.0>
0

>  <SCORE.INTRA.SOLV>
-0.626874

>  <SCORE.INTRA.SOLV.lig_0>
-32.0799

>  <SCORE.INTRA.VDW>
-0.125744

>  <SCORE.INTRA.VDW.0>
-0.618248

>  <SCORE.INTRA.norm>
-0.0866739

>  <SCORE.RESTR>
0

>  <SCORE.RESTR.CAVITY>
0

>  <SCORE.RESTR.norm>
0

>  <SCORE.SYSTEM>
0

>  <SCORE.SYSTEM.CONST>
0

>  <SCORE.SYSTEM.DIHEDRAL>
0

>  <SCORE.SYSTEM.SOLV>
0

>  <SCORE.SYSTEM.norm>
0

>  <SCORE.heavy>
10

>  <SCORE.norm>
-0.914215

>  <RMSD>
5.619

$$$$
ligand
 OpenBabel11021811473D
libRbt.so/2013.1/901 2013/11/27
 10  9  0  0  0  0  0  0  0  0999 V2000
   26.6861   14.5200   20.4059 N   0  0  0  0  0  0  0  0  0  0  0  0
   27.0845   15.2609   19.1709 C   0  0  2  0  0  0  0  0  0  0  0  0
   27.6335   14.3318   18.0821 C   0  0  0  0  0  0  0  0  0  0  0  0
   28.8361   14.3112   17.7799 O   0  0  0  0  0  0  0  0  0  0  0  0
   28.0794   16.3768   19.5014 C   0  0  0  0  0  0  0  0  0  0  0  0
   29.2728   15.8951   20.2946 C   0  0  0  0  0  0  0  0  0  0  0  0
   30.2063   17.0279   20.6466 C   0  0  0  0  0  0  0  0  0  0  0  0
   31.3789   16.5347   21.4875 C   0  0  0  0  0  0  0  0  0  0  0  0
   32.3110   17.6193   21.8976 N   0  0  0  0  0  0  0  0  0  0  0  0
   26.8942   13.5396   17.4900 O   0  0  0  0  0  0  0  0  0  0  0  0
  2  1  1  1  0  0  0
  2  3  1  0  0  0  0
  2  5  1  0  0  0  0
  3  4  1  0  0  0  0
  3 10  1  0  0  0  0
  5  6  1  0  0  0  0
  6  7  1  0  0  0  0
  7  8  1  0  0  0  0
  8  9  1  0  0  0  0
M  END
>  <CHROM.1>
-108.53971096,52.61024819,-177.89569649,178.01117896,-178.28465753,28.84062913
15.51569303,19.64454303,2.35918169,-0.21061279,-2.10502882

>  <Name>
ligand

>  <RI>
0

>  <Rbt.Current_Directory>
/home/itssahil/PROJECTS/Mol_Feturizer/New_Systems/rnas/3DIY

>  <Rbt.Executable>
rbdock ($Id: //depot/dev/client3/rdock/2013.1/src/exe/rbdock.cxx#4 $)

>  <Rbt.Library>
libRbt.so (2013.1, Build901 2013/11/27)

>  <Rbt.Parameter_File>
/export/apps/rDock/src/rDock_2013.1_src/data/scripts/dock_solv.prm

>  <Rbt.Receptor>
prm/pocket_docking_6.prm

>  <SCORE>
-8.54382

>  <SCORE.INTER>
-8.40966

>  <SCORE.INTER.CONST>
1

>  <SCORE.INTER.POLAR>
0

>  <SCORE.INTER.ROT>
5

>  <SCORE.INTER.SOLV>
14.7949

>  <SCORE.INTER.VDW>
-17.4714

>  <SCORE.INTER.norm>
-0.840966

>  <SCORE.INTRA>
-0.134161

>  <SCORE.INTRA.DIHEDRAL>
-0.784401

>  <SCORE.INTRA.DIHEDRAL.0>
2.56603

>  <SCORE.INTRA.POLAR>
0

>  <SCORE.INTRA.POLAR.0>
0

>  <SCORE.INTRA.REPUL>
0

>  <SCORE.INTRA.REPUL.0>
0

>  <SCORE.INTRA.SOLV>
-0.584001

>  <SCORE.INTRA.SOLV.lig_0>
-32.0799

>  <SCORE.INTRA.VDW>
0.55004

>  <SCORE.INTRA.VDW.0>
-0.618248

>  <SCORE.INTRA.norm>
-0.0134161

>  <SCORE.RESTR>
0

>  <SCORE.RESTR.CAVITY>
0

>  <SCORE.RESTR.norm>
0

>  <SCORE.SYSTEM>
0

>  <SCORE.SYSTEM.CONST>
0

>  <SCORE.SYSTEM.DIHEDRAL>
0

>  <SCORE.SYSTEM.SOLV>
0

>  <SCORE.SYSTEM.norm>
0

>  <SCORE.heavy>
10

>  <SCORE.norm>
-0.854382

>  <RMSD>
5.620

$$$$
ligand
 OpenBabel11021811473D
libRbt.so/2013.1/901 2013/11/27
 10  9  0  0  0  0  0  0  0  0999 V2000
   28.6033   14.8299   18.8976 N   0  0  0  0  0  0  0  0  0  0  0  0
   28.1704   14.9445   20.3233 C   0  0  2  0  0  0  0  0  0  0  0  0
   26.6488   15.0660   20.4651 C   0  0  0  0  0  0  0  0  0  0  0  0
   26.0500   14.6812   21.4807 O   0  0  0  0  0  0  0  0  0  0  0  0
   28.8869   16.1048   21.0193 C   0  0  0  0  0  0  0  0  0  0  0  0
   30.3896   15.9427   21.0527 C   0  0  0  0  0  0  0  0  0  0  0  0
   31.0698   17.1453   21.6607 C   0  0  0  0  0  0  0  0  0  0  0  0
   32.5873   17.0237   21.5718 C   0  0  0  0  0  0  0  0  0  0  0  0
   33.3088   18.2083   22.1098 N   0  0  0  0  0  0  0  0  0  0  0  0
   25.9673   15.5898   19.5785 O   0  0  0  0  0  0  0  0  0  0  0  0
  2  1  1  6  0  0  0
  2  3  1  0  0  0  0
  2  5  1  0  0  0  0
  3  4  1  0  0  0  0
  3 10  1  0  0  0  0
  5  6  1  0  0  0  0
  6  7  1  0  0  0  0
  7  8  1  0  0  0  0
  8  9  1  0  0  0  0
M  END
>  <CHROM.1>
152.47309284,-61.07004601,176.12786148,-174.80584212,177.76009295,29.12250409
15.95047191,20.81657120,-2.78855163,0.28179376,1.20155858

>  <Name>
ligand

>  <RI>
0

>  <Rbt.Current_Directory>
/home/itssahil/PROJECTS/Mol_Feturizer/New_Systems/rnas/3DIY

>  <Rbt.Executable>
rbdock ($Id: //depot/dev/client3/rdock/2013.1/src/exe/rbdock.cxx#4 $)

>  <Rbt.Library>
libRbt.so (2013.1, Build901 2013/11/27)

>  <Rbt.Parameter_File>
/export/apps/rDock/src/rDock_2013.1_src/data/scripts/dock_solv.prm

>  <Rbt.Receptor>
prm/pocket_docking_5.prm

>  <SCORE>
-9.27741

>  <SCORE.INTER>
-8.28995

>  <SCORE.INTER.CONST>
1

>  <SCORE.INTER.POLAR>
0

>  <SCORE.INTER.ROT>
5

>  <SCORE.INTER.SOLV>
12.6414

>  <SCORE.INTER.VDW>
-16.6738

>  <SCORE.INTER.norm>
-0.828995

>  <SCORE.INTRA>
-0.987458

>  <SCORE.INTRA.DIHEDRAL>
-0.898026

>  <SCORE.INTRA.DIHEDRAL.0>
2.56603

>  <SCORE.INTRA.POLAR>
0

>  <SCORE.INTRA.POLAR.0>
0

>  <SCORE.INTRA.REPUL>
0

>  <SCORE.INTRA.REPUL.0>
0

>  <SCORE.INTRA.SOLV>
-0.665811

>  <SCORE.INTRA.SOLV.lig_0>
-32.0799

>  <SCORE.INTRA.VDW>
-0.20554

>  <SCORE.INTRA.VDW.0>
-0.618248

>  <SCORE.INTRA.norm>
-0.0987458

>  <SCORE.RESTR>
0

>  <SCORE.RESTR.CAVITY>
0

>  <SCORE.RESTR.norm>
0

>  <SCORE.SYSTEM>
0

>  <SCORE.SYSTEM.CONST>
0

>  <SCORE.SYSTEM.DIHEDRAL>
0

>  <SCORE.SYSTEM.SOLV>
0

>  <SCORE.SYSTEM.norm>
0

>  <SCORE.heavy>
10

>  <SCORE.norm>
-0.927741

>  <RMSD>
5.621

$$$$
ligand
 OpenBabel11021811473D
libRbt.so/2013.1/901 2013/11/27
 10  9  0  0  0  0  0  0  0  0999 V2000
   28.6180   14.6763   18.9453 N   0  0  0  0  0  0  0  0  0  0  0  0
   28.1747   14.9078   20.3534 C   0  0  2  0  0  0  0  0  0  0  0  0
   26.6543   15.0652   20.4703 C   0  0  0  0  0  0  0  0  0  0  0  0
   25.9723   15.5599   19.5603 O   0  0  0  0  0  0  0  0  0  0  0  0
   28.9052   16.1063   20.9652 C   0  0  0  0  0  0  0  0  0  0  0  0
   30.4041   15.9205   21.0299 C   0  0  0  0  0  0  0  0  0  0  0  0
   31.1036   17.1688   21.5106 C   0  0  0  0  0  0  0  0  0  0  0  0
   32.6180   16.9905   21.5009 C   0  0  0  0  0  0  0  0  0  0  0  0
   33.3591   18.1957   21.9608 N   0  0  0  0  0  0  0  0  0  0  0  0
   26.0488   14.6670   21.4701 O   0  0  0  0  0  0  0  0  0  0  0  0
  2  1  1  6  0  0  0
  2  3  1  0  0  0  0
  2  5  1  0  0  0  0
  3  4  1  0  0  0  0
  3 10  1  0  0  0  0
  5  6  1  0  0  0  0
  6  7  1  0  0  0  0
  7  8  1  0  0  0  0
  8  9  1  0  0  0  0
M  END
>  <CHROM.1>
-31.33285049,-61.24238124,174.40597809,-177.02572732,179.73807577,29.13991122
15.92248545,20.77685533,-2.78750465,0.26669604,1.13325489

>  <Name>
ligand

>  <RI>
0

>  <Rbt.Current_Directory>
/home/itssahil/PROJECTS/Mol_Feturizer/New_Systems/rnas/3DIY

>  <Rbt.Executable>
rbdock ($Id: //depot/dev/client3/rdock/2013.1/src/exe/rbdock.cxx#4 $)

>  <Rbt.Library>
libRbt.so (2013.1, Build901 2013/11/27)

>  <Rbt.Parameter_File>
/export/apps/rDock/src/rDock_2013.1_src/data/scripts/dock_solv.prm

>  <Rbt.Receptor>
prm/pocket_docking_4.prm

>  <SCORE>
-9.23852

>  <SCORE.INTER>
-8.29287

>  <SCORE.INTER.CONST>
1

>  <SCORE.INTER.POLAR>
0

>  <SCORE.INTER.ROT>
5

>  <SCORE.INTER.SOLV>
12.9796

>  <SCORE.INTER.VDW>
-16.7884

>  <SCORE.INTER.norm>
-0.829287

>  <SCORE.INTRA>
-0.945646

>  <SCORE.INTRA.DIHEDRAL>
-0.775421

>  <SCORE.INTRA.DIHEDRAL.0>
2.56603

>  <SCORE.INTRA.POLAR>
0

>  <SCORE.INTRA.POLAR.0>
0

>  <SCORE.INTRA.REPUL>
0

>  <SCORE.INTRA.REPUL.0>
0

>  <SCORE.INTRA.SOLV>
-0.655538

>  <SCORE.INTRA.SOLV.lig_0>
-32.0799

>  <SCORE.INTRA.VDW>
-0.230167

>  <SCORE.INTRA.VDW.0>
-0.618248

>  <SCORE.INTRA.norm>
-0.0945646

>  <SCORE.RESTR>
0

>  <SCORE.RESTR.CAVITY>
0

>  <SCORE.RESTR.norm>
0

>  <SCORE.SYSTEM>
0

>  <SCORE.SYSTEM.CONST>
0

>  <SCORE.SYSTEM.DIHEDRAL>
0

>  <SCORE.SYSTEM.SOLV>
0

>  <SCORE.SYSTEM.norm>
0

>  <SCORE.heavy>
10

>  <SCORE.norm>
-0.923852

>  <RMSD>
5.622

$$$$
ligand
 OpenBabel11021811473D
libRbt.so/2013.1/901 2013/11/27
 10  9  0  0  0  0  0  0  0  0999 V2000
   25.7727   15.0558   20.3000 N   0  0  0  0  0  0  0  0  0  0  0  0
   27.0390   15.6315   19.7542 C   0  0  2  0  0  0  0  0  0  0  0  0
   27.4538   14.9825   18.4288 C   0  0  0  0  0  0  0  0  0  0  0  0
   27.1446   13.8162   18.1423 O   0  0  0  0  0  0  0  0  0  0  0  0
   28.1653   15.5502   20.7882 C   0  0  0  0  0  0  0  0  0  0  0  0
   29.4087   16.3043   20.3751 C   0  0  0  0  0  0  0  0  0  0  0  0
   30.4908   16.2186   21.4240 C   0  0  0  0  0  0  0  0  0  0  0  0
   31.7398   16.9786   20.9908 C   0  0  0  0  0  0  0  0  0  0  0  0
   32.8194   16.9760   22.0143 N   0  0  0  0  0  0  0  0  0  0  0  0
   28.0848   15.6188   17.5791 O   0  0  0  0  0  0  0  0  0  0  0  0
  2  1  1  1  0  0  0
  2  3  1  0  0  0  0
  2  5  1  0  0  0  0
  3  4  1  0  0  0  0
  3 10  1  0  0  0  0
  5  6  1  0  0  0  0
  6  7  1  0  0  0  0
  7  8  1  0  0  0  0
  8  9  1  0  0  0  0
M  END
>  <CHROM.1>
-27.97512625,-171.17744120,179.24049327,179.75833917,177.53209101,28.81034854
15.69635273,19.94387623,2.59724906,-0.27194799,-1.78168039

>  <Name>
ligand

>  <RI>
0

>  <Rbt.Current_Directory>
/home/itssahil/PROJECTS/Mol_Feturizer/New_Systems/rnas/3DIY

>  <Rbt.Executable>
rbdock ($Id: //depot/dev/client3/rdock/2013.1/src/exe/rbdock.cxx#4 $)

>  <Rbt.Library>
libRbt.so (2013.1, Build901 2013/11/27)

>  <Rbt.Parameter_File>
/export/apps/rDock/src/rDock_2013.1_src/data/scripts/dock_solv.prm

>  <Rbt.Receptor>
prm/pocket_docking_5.prm

>  <SCORE>
-8.26647

>  <SCORE.INTER>
-6.94191

>  <SCORE.INTER.CONST>
1

>  <SCORE.INTER.POLAR>
0

>  <SCORE.INTER.ROT>
5

>  <SCORE.INTER.SOLV>
18.7051

>  <SCORE.INTER.VDW>
-17.7963

>  <SCORE.INTER.norm>
-0.694191

>  <SCORE.INTRA>
-1.32456

>  <SCORE.INTRA.DIHEDRAL>
-0.652789

>  <SCORE.INTRA.DIHEDRAL.0>
2.56603

>  <SCORE.INTRA.POLAR>
0

>  <SCORE.INTRA.POLAR.0>
0

>  <SCORE.INTRA.REPUL>
0

>  <SCORE.INTRA.REPUL.0>
0

>  <SCORE.INTRA.SOLV>
-1.58888

>  <SCORE.INTRA.SOLV.lig_0>
-32.0799

>  <SCORE.INTRA.VDW>
-0.203719

>  <SCORE.INTRA.VDW.0>
-0.618248

>  <SCORE.INTRA.norm>
-0.132456

>  <SCORE.RESTR>
0

>  <SCORE.RESTR.CAVITY>
0

>  <SCORE.RESTR.norm>
0

>  <SCORE.SYSTEM>
0

>  <SCORE.SYSTEM.CONST>
0

>  <SCORE.SYSTEM.DIHEDRAL>
0

>  <SCORE.SYSTEM.SOLV>
0

>  <SCORE.SYSTEM.norm>
0

>  <SCORE.heavy>
10

>  <SCORE.norm>
-0.826647

>  <RMSD>
5.622

$$$$
ligand
 OpenBabel11021811473D
libRbt.so/2013.1/901 2013/11/27
 10  9  0  0  0  0  0  0  0  0999 V2000
   28.5625   14.8770   18.8730 N   0  0  0  0  0  0  0  0  0  0  0  0
   28.1451   14.9283   20.3070 C   0  0  2  0  0  0  0  0  0  0  0  0
   26.6262   15.0561   20.4705 C   0  0  0  0  0  0  0  0  0  0  0  0
   26.0424   14.6897   21.5014 O   0  0  0  0  0  0  0  0  0  0  0  0
   28.8792   16.0484   21.0490 C   0  0  0  0  0  0  0  0  0  0  0  0
   30.3806   15.8727   21.0579 C   0  0  0  0  0  0  0  0  0  0  0  0
   31.0826   17.0767   21.6375 C   0  0  0  0  0  0  0  0  0  0  0  0
   32.5972   16.9369   21.5290 C   0  0  0  0  0  0  0  0  0  0  0  0
   33.3389   18.1271   22.0257 N   0  0  0  0  0  0  0  0  0  0  0  0
   25.9322   15.5669   19.5860 O   0  0  0  0  0  0  0  0  0  0  0  0
  2  1  1  6  0  0  0
  2  3  1  0  0  0  0
  2  5  1  0  0  0  0
  3  4  1  0  0  0  0
  3 10  1  0  0  0  0
  5  6  1  0  0  0  0
  6  7  1  0  0  0  0
  7  8  1  0  0  0  0
  8  9  1  0  0  0  0
M  END
>  <CHROM.1>
156.13931015,-61.01649419,172.63117052,-175.06306797,177.17953597,29.11294579
15.91512282,20.80483801,-2.81467762,0.28642907,1.24713814

>  <Name>
ligand

>  <RI>
0

>  <Rbt.Current_Directory>
/home/itssahil/PROJECTS/Mol_Feturizer/New_Systems/rnas/3DIY

>  <Rbt.Executable>
rbdock ($Id: //depot/dev/client3/rdock/2013.1/src/exe/rbdock.cxx#4 $)

>  <Rbt.Library>
libRbt.so (2013.1, Build901 2013/11/27)

>  <Rbt.Parameter_File>
/export/apps/rDock/src/rDock_2013.1_src/data/scripts/dock_solv.prm

>  <Rbt.Receptor>
prm/pocket_docking_6.prm

>  <SCORE>
-9.31318

>  <SCORE.INTER>
-8.43295

>  <SCORE.INTER.CONST>
1

>  <SCORE.INTER.POLAR>
0

>  <SCORE.INTER.ROT>
5

>  <SCORE.INTER.SOLV>
12.5457

>  <SCORE.INTER.VDW>
-16.7372

>  <SCORE.INTER.norm>
-0.843295

>  <SCORE.INTRA>
-0.880232

>  <SCORE.INTRA.DIHEDRAL>
-0.734245

>  <SCORE.INTRA.DIHEDRAL.0>
2.56603

>  <SCORE.INTRA.POLAR>
0

>  <SCORE.INTRA.POLAR.0>
0

>  <SCORE.INTRA.REPUL>
0

>  <SCORE.INTRA.REPUL.0>
0

>  <SCORE.INTRA.SOLV>
-0.642662

>  <SCORE.INTRA.SOLV.lig_0>
-32.0799

>  <SCORE.INTRA.VDW>
-0.191778

>  <SCORE.INTRA.VDW.0>
-0.618248

>  <SCORE.INTRA.norm>
-0.0880232

>  <SCORE.RESTR>
0

>  <SCORE.RESTR.CAVITY>
0

>  <SCORE.RESTR.norm>
0

>  <SCORE.SYSTEM>
0

>  <SCORE.SYSTEM.CONST>
0

>  <SCORE.SYSTEM.DIHEDRAL>
0

>  <SCORE.SYSTEM.SOLV>
0

>  <SCORE.SYSTEM.norm>
0

>  <SCORE.heavy>
10

>  <SCORE.norm>
-0.931318

>  <RMSD>
5.623

$$$$
ligand
 OpenBabel11021811473D
libRbt.so/2013.1/901 2013/11/27
 10  9  0  0  0  0  0  0  0  0999 V2000
   28.6374   14.8599   18.9439 N   0  0  0  0  0  0  0  0  0  0  0  0
   28.1769   14.9386   20.3633 C   0  0  2  0  0  0  0  0  0  0  0  0
   26.6524   15.0496   20.4790 C   0  0  0  0  0  0  0  0  0  0  0  0
   26.0374   14.6472   21.4780 O   0  0  0  0  0  0  0  0  0  0  0  0
   28.8741   16.0855   21.1001 C   0  0  0  0  0  0  0  0  0  0  0  0
   30.3805   15.9581   21.1107 C   0  0  0  0  0  0  0  0  0  0  0  0
   31.0404   17.1599   21.7420 C   0  0  0  0  0  0  0  0  0  0  0  0
   32.5599   17.0584   21.6647 C   0  0  0  0  0  0  0  0  0  0  0  0
   33.2618   18.2482   22.2170 N   0  0  0  0  0  0  0  0  0  0  0  0
   25.9840   15.5819   19.5875 O   0  0  0  0  0  0  0  0  0  0  0  0
  2  1  1  6  0  0  0
  2  3  1  0  0  0  0
  2  5  1  0  0  0  0
  3  4  1  0  0  0  0
  3 10  1  0  0  0  0
  5  6  1  0  0  0  0
  6  7  1  0  0  0  0
  7  8  1  0  0  0  0
  8  9  1  0  0  0  0
M  END
>  <CHROM.1>
153.02894165,-58.78040336,175.22599572,-176.33740804,177.33303253,29.11475955
15.95522760,20.86849218,-2.77649614,0.28887203,1.20958520

>  <Name>
ligand

>  <RI>
0

>  <Rbt.Current_Directory>
/home/itssahil/PROJECTS/Mol_Feturizer/New_Systems/rnas/3DIY

>  <Rbt.Executable>
rbdock ($Id: //depot/dev/client3/rdock/2013.1/src/exe/rbdock.cxx#4 $)

>  <Rbt.Library>
libRbt.so (2013.1, Build901 2013/11/27)

>  <Rbt.Parameter_File>
/export/apps/rDock/src/rDock_2013.1_src/data/scripts/dock_solv.prm

>  <Rbt.Receptor>
prm/blind_docking_100.prm

>  <SCORE>
-9.31966

>  <SCORE.INTER>
-8.36746

>  <SCORE.INTER.CONST>
1

>  <SCORE.INTER.POLAR>
0

>  <SCORE.INTER.ROT>
5

>  <SCORE.INTER.SOLV>
12.6141

>  <SCORE.INTER.VDW>
-16.7163

>  <SCORE.INTER.norm>
-0.836746

>  <SCORE.INTRA>
-0.952203

>  <SCORE.INTRA.DIHEDRAL>
-0.919223

>  <SCORE.INTRA.DIHEDRAL.0>
2.56603

>  <SCORE.INTRA.POLAR>
0

>  <SCORE.INTRA.POLAR.0>
0

>  <SCORE.INTRA.REPUL>
0

>  <SCORE.INTRA.REPUL.0>
0

>  <SCORE.INTRA.SOLV>
-0.631468

>  <SCORE.INTRA.SOLV.lig_0>
-32.0799

>  <SCORE.INTRA.VDW>
-0.176857

>  <SCORE.INTRA.VDW.0>
-0.618248

>  <SCORE.INTRA.norm>
-0.0952203

>  <SCORE.RESTR>
0

>  <SCORE.RESTR.CAVITY>
0

>  <SCORE.RESTR.norm>
0

>  <SCORE.SYSTEM>
0

>  <SCORE.SYSTEM.CONST>
0

>  <SCORE.SYSTEM.DIHEDRAL>
0

>  <SCORE.SYSTEM.SOLV>
0

>  <SCORE.SYSTEM.norm>
0

>  <SCORE.heavy>
10

>  <SCORE.norm>
-0.931966

>  <RMSD>
5.624

$$$$
ligand
 OpenBabel11021811473D
libRbt.so/2013.1/901 2013/11/27
 10  9  0  0  0  0  0  0  0  0999 V2000
   28.5445   15.0248   18.8287 N   0  0  0  0  0  0  0  0  0  0  0  0
   28.1578   14.9978   20.2718 C   0  0  2  0  0  0  0  0  0  0  0  0
   26.6412   15.0928   20.4735 C   0  0  0  0  0  0  0  0  0  0  0  0
   25.8887   15.5498   19.6000 O   0  0  0  0  0  0  0  0  0  0  0  0
   28.8910   16.0913   21.0535 C   0  0  0  0  0  0  0  0  0  0  0  0
   30.3948   15.9397   21.0218 C   0  0  0  0  0  0  0  0  0  0  0  0
   31.0910   17.1237   21.6477 C   0  0  0  0  0  0  0  0  0  0  0  0
   32.6063   16.9955   21.5339 C   0  0  0  0  0  0  0  0  0  0  0  0
   33.3414   18.1808   22.0516 N   0  0  0  0  0  0  0  0  0  0  0  0
   26.1102   14.6793   21.5089 O   0  0  0  0  0  0  0  0  0  0  0  0
  2  1  1  6  0  0  0
  2  3  1  0  0  0  0
  2  5  1  0  0  0  0
  3  4  1  0  0  0  0
  3 10  1  0  0  0  0
  5  6  1  0  0  0  0
  6  7  1  0  0  0  0
  7  8  1  0  0  0  0
  8  9  1  0  0  0  0
M  END
>  <CHROM.1>
-20.77729335,-61.01544824,172.69984775,-176.60640650,176.02880675,29.12091687
15.96295239,20.80081382,-2.82850217,0.30904616,1.30766999

>  <Name>
ligand

>  <RI>
0

>  <Rbt.Current_Directory>
/home/itssahil/PROJECTS/Mol_Feturizer/New_Systems/rnas/3DIY

>  <Rbt.Executable>
rbdock ($Id: //depot/dev/client3/rdock/2013.1/src/exe/rbdock.cxx#4 $)

>  <Rbt.Library>
libRbt.so (2013.1, Build901 2013/11/27)

>  <Rbt.Parameter_File>
/export/apps/rDock/src/rDock_2013.1_src/data/scripts/dock_solv.prm

>  <Rbt.Receptor>
prm/blind_docking_60.prm

>  <SCORE>
-9.11532

>  <SCORE.INTER>
-8.29817

>  <SCORE.INTER.CONST>
1

>  <SCORE.INTER.POLAR>
0

>  <SCORE.INTER.ROT>
5

>  <SCORE.INTER.SOLV>
12.3559

>  <SCORE.INTER.VDW>
-16.5841

>  <SCORE.INTER.norm>
-0.829817

>  <SCORE.INTRA>
-0.817153

>  <SCORE.INTRA.DIHEDRAL>
-0.621628

>  <SCORE.INTRA.DIHEDRAL.0>
2.56603

>  <SCORE.INTRA.POLAR>
0

>  <SCORE.INTRA.POLAR.0>
0

>  <SCORE.INTRA.REPUL>
0

>  <SCORE.INTRA.REPUL.0>
0

>  <SCORE.INTRA.SOLV>
-0.639225

>  <SCORE.INTRA.SOLV.lig_0>
-32.0799

>  <SCORE.INTRA.VDW>
-0.186726

>  <SCORE.INTRA.VDW.0>
-0.618248

>  <SCORE.INTRA.norm>
-0.0817153

>  <SCORE.RESTR>
0

>  <SCORE.RESTR.CAVITY>
0

>  <SCORE.RESTR.norm>
0

>  <SCORE.SYSTEM>
0

>  <SCORE.SYSTEM.CONST>
0

>  <SCORE.SYSTEM.DIHEDRAL>
0

>  <SCORE.SYSTEM.SOLV>
0

>  <SCORE.SYSTEM.norm>
0

>  <SCORE.heavy>
10

>  <SCORE.norm>
-0.911532

>  <RMSD>
5.624

$$$$
ligand
 OpenBabel11021811473D
libRbt.so/2013.1/901 2013/11/27
 10  9  0  0  0  0  0  0  0  0999 V2000
   28.5048   15.0111   18.7666 N   0  0  0  0  0  0  0  0  0  0  0  0
   28.1629   15.0325   20.2211 C   0  0  2  0  0  0  0  0  0  0  0  0
   26.6514   15.1054   20.4662 C   0  0  0  0  0  0  0  0  0  0  0  0
   25.8658   15.5352   19.6082 O   0  0  0  0  0  0  0  0  0  0  0  0
   28.8965   16.1698   20.9372 C   0  0  0  0  0  0  0  0  0  0  0  0
   30.4015   16.0437   20.8690 C   0  0  0  0  0  0  0  0  0  0  0  0
   31.0924   17.2075   21.5373 C   0  0  0  0  0  0  0  0  0  0  0  0
   32.6088   17.0706   21.4529 C   0  0  0  0  0  0  0  0  0  0  0  0
   33.3412   18.2258   22.0381 N   0  0  0  0  0  0  0  0  0  0  0  0
   26.1583   14.7003   21.5234 O   0  0  0  0  0  0  0  0  0  0  0  0
  2  1  1  6  0  0  0
  2  3  1  0  0  0  0
  2  5  1  0  0  0  0
  3  4  1  0  0  0  0
  3 10  1  0  0  0  0
  5  6  1  0  0  0  0
  6  7  1  0  0  0  0
  7  8  1  0  0  0  0
  8  9  1  0  0  0  0
M  END
>  <CHROM.1>
-22.06470751,-61.23548406,177.78022250,-179.65204714,177.15965781,29.12274785
16.00496217,20.74481304,-2.82683097,0.31409968,1.28636343

>  <Name>
ligand

>  <RI>
0

>  <Rbt.Current_Directory>
/home/itssahil/PROJECTS/Mol_Feturizer/New_Systems/rnas/3DIY

>  <Rbt.Executable>
rbdock ($Id: //depot/dev/client3/rdock/2013.1/src/exe/rbdock.cxx#4 $)

>  <Rbt.Library>
libRbt.so (2013.1, Build901 2013/11/27)

>  <Rbt.Parameter_File>
/export/apps/rDock/src/rDock_2013.1_src/data/scripts/dock_solv.prm

>  <Rbt.Receptor>
prm/pocket_docking_7.prm

>  <SCORE>
-9.14337

>  <SCORE.INTER>
-8.16751

>  <SCORE.INTER.CONST>
1

>  <SCORE.INTER.POLAR>
0

>  <SCORE.INTER.ROT>
5

>  <SCORE.INTER.SOLV>
12.38

>  <SCORE.INTER.VDW>
-16.505

>  <SCORE.INTER.norm>
-0.816751

>  <SCORE.INTRA>
-0.975858

>  <SCORE.INTRA.DIHEDRAL>
-0.89419

>  <SCORE.INTRA.DIHEDRAL.0>
2.56603

>  <SCORE.INTRA.POLAR>
0

>  <SCORE.INTRA.POLAR.0>
0

>  <SCORE.INTRA.REPUL>
0

>  <SCORE.INTRA.REPUL.0>
0

>  <SCORE.INTRA.SOLV>
-0.671504

>  <SCORE.INTRA.SOLV.lig_0>
-32.0799

>  <SCORE.INTRA.VDW>
-0.193011

>  <SCORE.INTRA.VDW.0>
-0.618248

>  <SCORE.INTRA.norm>
-0.0975858

>  <SCORE.RESTR>
0

>  <SCORE.RESTR.CAVITY>
0

>  <SCORE.RESTR.norm>
0

>  <SCORE.SYSTEM>
0

>  <SCORE.SYSTEM.CONST>
0

>  <SCORE.SYSTEM.DIHEDRAL>
0

>  <SCORE.SYSTEM.SOLV>
0

>  <SCORE.SYSTEM.norm>
0

>  <SCORE.heavy>
10

>  <SCORE.norm>
-0.914337

>  <RMSD>
5.625

$$$$
ligand
 OpenBabel11021811473D
libRbt.so/2013.1/901 2013/11/27
 10  9  0  0  0  0  0  0  0  0999 V2000
   28.5659   14.8477   18.8782 N   0  0  0  0  0  0  0  0  0  0  0  0
   28.1393   14.9154   20.3088 C   0  0  2  0  0  0  0  0  0  0  0  0
   26.6197   15.0483   20.4609 C   0  0  0  0  0  0  0  0  0  0  0  0
   26.0245   14.6645   21.4790 O   0  0  0  0  0  0  0  0  0  0  0  0
   28.8711   16.0419   21.0434 C   0  0  0  0  0  0  0  0  0  0  0  0
   30.3731   15.8708   21.0509 C   0  0  0  0  0  0  0  0  0  0  0  0
   31.0709   17.0682   21.6491 C   0  0  0  0  0  0  0  0  0  0  0  0
   32.5858   16.9386   21.5324 C   0  0  0  0  0  0  0  0  0  0  0  0
   33.3228   18.1250   22.0447 N   0  0  0  0  0  0  0  0  0  0  0  0
   25.9366   15.5807   19.5807 O   0  0  0  0  0  0  0  0  0  0  0  0
  2  1  1  6  0  0  0
  2  3  1  0  0  0  0
  2  5  1  0  0  0  0
  3  4  1  0  0  0  0
  3 10  1  0  0  0  0
  5  6  1  0  0  0  0
  6  7  1  0  0  0  0
  7  8  1  0  0  0  0
  8  9  1  0  0  0  0
M  END
>  <CHROM.1>
154.34893872,-60.38709803,173.81142559,-174.73022235,177.06070006,29.10520917
15.90731658,20.80369410,-2.80786450,0.28288886,1.23403379

>  <Name>
ligand

>  <RI>
0

>  <Rbt.Current_Directory>
/home/itssahil/PROJECTS/Mol_Feturizer/New_Systems/rnas/3DIY

>  <Rbt.Executable>
rbdock ($Id: //depot/dev/client3/rdock/2013.1/src/exe/rbdock.cxx#4 $)

>  <Rbt.Library>
libRbt.so (2013.1, Build901 2013/11/27)

>  <Rbt.Parameter_File>
/export/apps/rDock/src/rDock_2013.1_src/data/scripts/dock_solv.prm

>  <Rbt.Receptor>
prm/pocket_docking_4.prm

>  <SCORE>
-9.34284

>  <SCORE.INTER>
-8.43487

>  <SCORE.INTER.CONST>
1

>  <SCORE.INTER.POLAR>
0

>  <SCORE.INTER.ROT>
5

>  <SCORE.INTER.SOLV>
12.6048

>  <SCORE.INTER.VDW>
-16.7582

>  <SCORE.INTER.norm>
-0.843487

>  <SCORE.INTRA>
-0.907966

>  <SCORE.INTRA.DIHEDRAL>
-0.789764

>  <SCORE.INTRA.DIHEDRAL.0>
2.56603

>  <SCORE.INTRA.POLAR>
0

>  <SCORE.INTRA.POLAR.0>
0

>  <SCORE.INTRA.REPUL>
0

>  <SCORE.INTRA.REPUL.0>
0

>  <SCORE.INTRA.SOLV>
-0.642694

>  <SCORE.INTRA.SOLV.lig_0>
-32.0799

>  <SCORE.INTRA.VDW>
-0.191737

>  <SCORE.INTRA.VDW.0>
-0.618248

>  <SCORE.INTRA.norm>
-0.0907966

>  <SCORE.RESTR>
0

>  <SCORE.RESTR.CAVITY>
0

>  <SCORE.RESTR.norm>
0

>  <SCORE.SYSTEM>
0

>  <SCORE.SYSTEM.CONST>
0

>  <SCORE.SYSTEM.DIHEDRAL>
0

>  <SCORE.SYSTEM.SOLV>
0

>  <SCORE.SYSTEM.norm>
0

>  <SCORE.heavy>
10

>  <SCORE.norm>
-0.934284

>  <RMSD>
5.626

$$$$
ligand
 OpenBabel11021811473D
libRbt.so/2013.1/901 2013/11/27
 10  9  0  0  0  0  0  0  0  0999 V2000
   28.5647   14.9130   18.8481 N   0  0  0  0  0  0  0  0  0  0  0  0
   28.1563   14.9753   20.2842 C   0  0  2  0  0  0  0  0  0  0  0  0
   26.6359   15.0684   20.4570 C   0  0  0  0  0  0  0  0  0  0  0  0
   26.0644   14.6656   21.4813 O   0  0  0  0  0  0  0  0  0  0  0  0
   28.8679   16.1239   21.0043 C   0  0  0  0  0  0  0  0  0  0  0  0
   30.3738   15.9918   20.9933 C   0  0  0  0  0  0  0  0  0  0  0  0
   31.0451   17.1729   21.6511 C   0  0  0  0  0  0  0  0  0  0  0  0
   32.5636   17.0614   21.5665 C   0  0  0  0  0  0  0  0  0  0  0  0
   33.2768   18.2227   22.1631 N   0  0  0  0  0  0  0  0  0  0  0  0
   25.9277   15.5863   19.5881 O   0  0  0  0  0  0  0  0  0  0  0  0
  2  1  1  6  0  0  0
  2  3  1  0  0  0  0
  2  5  1  0  0  0  0
  3  4  1  0  0  0  0
  3 10  1  0  0  0  0
  5  6  1  0  0  0  0
  6  7  1  0  0  0  0
  7  8  1  0  0  0  0
  8  9  1  0  0  0  0
M  END
>  <CHROM.1>
153.89359476,-60.47402161,177.19606097,-176.97443760,178.19866578,29.10195999
15.97430146,20.80490859,-2.79379031,0.29637830,1.23761031

>  <Name>
ligand

>  <RI>
0

>  <Rbt.Current_Directory>
/home/itssahil/PROJECTS/Mol_Feturizer/New_Systems/rnas/3DIY

>  <Rbt.Executable>
rbdock ($Id: //depot/dev/client3/rdock/2013.1/src/exe/rbdock.cxx#4 $)

>  <Rbt.Library>
libRbt.so (2013.1, Build901 2013/11/27)

>  <Rbt.Parameter_File>
/export/apps/rDock/src/rDock_2013.1_src/data/scripts/dock_solv.prm

>  <Rbt.Receptor>
prm/pocket_docking_5.prm

>  <SCORE>
-9.27505

>  <SCORE.INTER>
-8.24383

>  <SCORE.INTER.CONST>
1

>  <SCORE.INTER.POLAR>
0

>  <SCORE.INTER.ROT>
5

>  <SCORE.INTER.SOLV>
12.503

>  <SCORE.INTER.VDW>
-16.5969

>  <SCORE.INTER.norm>
-0.824383

>  <SCORE.INTRA>
-1.03122

>  <SCORE.INTRA.DIHEDRAL>
-1.01354

>  <SCORE.INTRA.DIHEDRAL.0>
2.56603

>  <SCORE.INTRA.POLAR>
0

>  <SCORE.INTRA.POLAR.0>
0

>  <SCORE.INTRA.REPUL>
0

>  <SCORE.INTRA.REPUL.0>
0

>  <SCORE.INTRA.SOLV>
-0.663333

>  <SCORE.INTRA.SOLV.lig_0>
-32.0799

>  <SCORE.INTRA.VDW>
-0.192778

>  <SCORE.INTRA.VDW.0>
-0.618248

>  <SCORE.INTRA.norm>
-0.103122

>  <SCORE.RESTR>
0

>  <SCORE.RESTR.CAVITY>
0

>  <SCORE.RESTR.norm>
0

>  <SCORE.SYSTEM>
0

>  <SCORE.SYSTEM.CONST>
0

>  <SCORE.SYSTEM.DIHEDRAL>
0

>  <SCORE.SYSTEM.SOLV>
0

>  <SCORE.SYSTEM.norm>
0

>  <SCORE.heavy>
10

>  <SCORE.norm>
-0.927505

>  <RMSD>
5.627

$$$$
ligand
 OpenBabel11021811473D
libRbt.so/2013.1/901 2013/11/27
 10  9  0  0  0  0  0  0  0  0999 V2000
   25.7638   15.0280   20.3267 N   0  0  0  0  0  0  0  0  0  0  0  0
   27.0222   15.6186   19.7784 C   0  0  2  0  0  0  0  0  0  0  0  0
   27.4240   14.9976   18.4357 C   0  0  0  0  0  0  0  0  0  0  0  0
   27.0732   13.8539   18.1087 O   0  0  0  0  0  0  0  0  0  0  0  0
   28.1603   15.5201   20.7979 C   0  0  0  0  0  0  0  0  0  0  0  0
   29.4089   16.2570   20.3698 C   0  0  0  0  0  0  0  0  0  0  0  0
   30.4884   16.1900   21.4227 C   0  0  0  0  0  0  0  0  0  0  0  0
   31.7498   16.9148   20.9659 C   0  0  0  0  0  0  0  0  0  0  0  0
   32.8235   16.9409   21.9953 N   0  0  0  0  0  0  0  0  0  0  0  0
   28.0864   15.6365   17.6124 O   0  0  0  0  0  0  0  0  0  0  0  0
  2  1  1  1  0  0  0
  2  3  1  0  0  0  0
  2  5  1  0  0  0  0
  3  4  1  0  0  0  0
  3 10  1  0  0  0  0
  5  6  1  0  0  0  0
  6  7  1  0  0  0  0
  7  8  1  0  0  0  0
  8  9  1  0  0  0  0
M  END
>  <CHROM.1>
-25.25927127,-172.65234842,177.51703465,178.93169007,177.00047884,28.79814638
15.67962569,19.94525834,2.61040483,-0.27380282,-1.76155003

>  <Name>
ligand

>  <RI>
0

>  <Rbt.Current_Directory>
/home/itssahil/PROJECTS/Mol_Feturizer/New_Systems/rnas/3DIY

>  <Rbt.Executable>
rbdock ($Id: //depot/dev/client3/rdock/2013.1/src/exe/rbdock.cxx#4 $)

>  <Rbt.Library>
libRbt.so (2013.1, Build901 2013/11/27)

>  <Rbt.Parameter_File>
/export/apps/rDock/src/rDock_2013.1_src/data/scripts/dock_solv.prm

>  <Rbt.Receptor>
prm/blind_docking_60.prm

>  <SCORE>
-8.30191

>  <SCORE.INTER>
-6.99433

>  <SCORE.INTER.CONST>
1

>  <SCORE.INTER.POLAR>
0

>  <SCORE.INTER.ROT>
5

>  <SCORE.INTER.SOLV>
18.8109

>  <SCORE.INTER.VDW>
-17.8665

>  <SCORE.INTER.norm>
-0.699433

>  <SCORE.INTRA>
-1.30758

>  <SCORE.INTRA.DIHEDRAL>
-0.700917

>  <SCORE.INTRA.DIHEDRAL.0>
2.56603

>  <SCORE.INTRA.POLAR>
0

>  <SCORE.INTRA.POLAR.0>
0

>  <SCORE.INTRA.REPUL>
0

>  <SCORE.INTRA.REPUL.0>
0

>  <SCORE.INTRA.SOLV>
-1.58966

>  <SCORE.INTRA.SOLV.lig_0>
-32.0799

>  <SCORE.INTRA.VDW>
-0.162295

>  <SCORE.INTRA.VDW.0>
-0.618248

>  <SCORE.INTRA.norm>
-0.130758

>  <SCORE.RESTR>
0

>  <SCORE.RESTR.CAVITY>
0

>  <SCORE.RESTR.norm>
0

>  <SCORE.SYSTEM>
0

>  <SCORE.SYSTEM.CONST>
0

>  <SCORE.SYSTEM.DIHEDRAL>
0

>  <SCORE.SYSTEM.SOLV>
0

>  <SCORE.SYSTEM.norm>
0

>  <SCORE.heavy>
10

>  <SCORE.norm>
-0.830191

>  <RMSD>
5.628

$$$$
ligand
 OpenBabel11021811473D
libRbt.so/2013.1/901 2013/11/27
 10  9  0  0  0  0  0  0  0  0999 V2000
   28.6311   14.6972   18.9678 N   0  0  0  0  0  0  0  0  0  0  0  0
   28.1537   14.9099   20.3678 C   0  0  2  0  0  0  0  0  0  0  0  0
   26.6300   15.0563   20.4510 C   0  0  0  0  0  0  0  0  0  0  0  0
   25.9861   14.6797   21.4417 O   0  0  0  0  0  0  0  0  0  0  0  0
   28.8618   16.1061   21.0097 C   0  0  0  0  0  0  0  0  0  0  0  0
   30.3625   15.9398   21.0848 C   0  0  0  0  0  0  0  0  0  0  0  0
   31.0346   17.1654   21.6547 C   0  0  0  0  0  0  0  0  0  0  0  0
   32.5528   17.0279   21.6197 C   0  0  0  0  0  0  0  0  0  0  0  0
   33.2681   18.2297   22.1270 N   0  0  0  0  0  0  0  0  0  0  0  0
   25.9920   15.5926   19.5399 O   0  0  0  0  0  0  0  0  0  0  0  0
  2  1  1  6  0  0  0
  2  3  1  0  0  0  0
  2  5  1  0  0  0  0
  3  4  1  0  0  0  0
  3 10  1  0  0  0  0
  5  6  1  0  0  0  0
  6  7  1  0  0  0  0
  7  8  1  0  0  0  0
  8  9  1  0  0  0  0
M  END
>  <CHROM.1>
148.56969446,-60.21953491,176.97629187,-175.40301492,177.98996301,29.10151715
15.93782367,20.82574788,-2.76109768,0.25811999,1.12546699

>  <Name>
ligand

>  <RI>
0

>  <Rbt.Current_Directory>
/home/itssahil/PROJECTS/Mol_Feturizer/New_Systems/rnas/3DIY

>  <Rbt.Executable>
rbdock ($Id: //depot/dev/client3/rdock/2013.1/src/exe/rbdock.cxx#4 $)

>  <Rbt.Library>
libRbt.so (2013.1, Build901 2013/11/27)

>  <Rbt.Parameter_File>
/export/apps/rDock/src/rDock_2013.1_src/data/scripts/dock_solv.prm

>  <Rbt.Receptor>
prm/pocket_docking_3.prm

>  <SCORE>
-9.28053

>  <SCORE.INTER>
-8.26381

>  <SCORE.INTER.CONST>
1

>  <SCORE.INTER.POLAR>
0

>  <SCORE.INTER.ROT>
5

>  <SCORE.INTER.SOLV>
12.9581

>  <SCORE.INTER.VDW>
-16.7619

>  <SCORE.INTER.norm>
-0.826381

>  <SCORE.INTRA>
-1.01672

>  <SCORE.INTRA.DIHEDRAL>
-0.956035

>  <SCORE.INTRA.DIHEDRAL.0>
2.56603

>  <SCORE.INTRA.POLAR>
0

>  <SCORE.INTRA.POLAR.0>
0

>  <SCORE.INTRA.REPUL>
0

>  <SCORE.INTRA.REPUL.0>
0

>  <SCORE.INTRA.SOLV>
-0.661922

>  <SCORE.INTRA.SOLV.lig_0>
-32.0799

>  <SCORE.INTRA.VDW>
-0.207742

>  <SCORE.INTRA.VDW.0>
-0.618248

>  <SCORE.INTRA.norm>
-0.101672

>  <SCORE.RESTR>
0

>  <SCORE.RESTR.CAVITY>
0

>  <SCORE.RESTR.norm>
0

>  <SCORE.SYSTEM>
0

>  <SCORE.SYSTEM.CONST>
0

>  <SCORE.SYSTEM.DIHEDRAL>
0

>  <SCORE.SYSTEM.SOLV>
0

>  <SCORE.SYSTEM.norm>
0

>  <SCORE.heavy>
10

>  <SCORE.norm>
-0.928053

>  <RMSD>
5.628

$$$$
ligand
 OpenBabel11021811473D
libRbt.so/2013.1/901 2013/11/27
 10  9  0  0  0  0  0  0  0  0999 V2000
   26.3761   15.0164   20.5786 N   0  0  0  0  0  0  0  0  0  0  0  0
   26.9576   15.5087   19.2932 C   0  0  2  0  0  0  0  0  0  0  0  0
   27.4918   14.3692   18.4178 C   0  0  0  0  0  0  0  0  0  0  0  0
   26.9794   14.0834   17.3252 O   0  0  0  0  0  0  0  0  0  0  0  0
   28.0375   16.5629   19.5514 C   0  0  0  0  0  0  0  0  0  0  0  0
   29.1328   16.0798   20.4747 C   0  0  0  0  0  0  0  0  0  0  0  0
   30.1826   17.1402   20.7022 C   0  0  0  0  0  0  0  0  0  0  0  0
   31.2731   16.6429   21.6450 C   0  0  0  0  0  0  0  0  0  0  0  0
   32.3359   17.6509   21.9052 N   0  0  0  0  0  0  0  0  0  0  0  0
   28.4826   13.7160   18.7590 O   0  0  0  0  0  0  0  0  0  0  0  0
  2  1  1  1  0  0  0
  2  3  1  0  0  0  0
  2  5  1  0  0  0  0
  3  4  1  0  0  0  0
  3 10  1  0  0  0  0
  5  6  1  0  0  0  0
  6  7  1  0  0  0  0
  7  8  1  0  0  0  0
  8  9  1  0  0  0  0
M  END
>  <CHROM.1>
113.99050071,55.29204213,179.73151284,179.47423630,-179.97443592,28.72720964
15.64706210,19.83863129,2.37242242,-0.01220027,-2.30081207

>  <Name>
ligand

>  <RI>
0

>  <Rbt.Current_Directory>
/home/itssahil/PROJECTS/Mol_Feturizer/New_Systems/rnas/3DIY

>  <Rbt.Executable>
rbdock ($Id: //depot/dev/client3/rdock/2013.1/src/exe/rbdock.cxx#4 $)

>  <Rbt.Library>
libRbt.so (2013.1, Build901 2013/11/27)

>  <Rbt.Parameter_File>
/export/apps/rDock/src/rDock_2013.1_src/data/scripts/dock_solv.prm

>  <Rbt.Receptor>
prm/pocket_docking_3.prm

>  <SCORE>
-8.43401

>  <SCORE.INTER>
-7.759

>  <SCORE.INTER.CONST>
1

>  <SCORE.INTER.POLAR>
0

>  <SCORE.INTER.ROT>
5

>  <SCORE.INTER.SOLV>
15.9291

>  <SCORE.INTER.VDW>
-17.4157

>  <SCORE.INTER.norm>
-0.7759

>  <SCORE.INTRA>
-0.67501

>  <SCORE.INTRA.DIHEDRAL>
-0.895268

>  <SCORE.INTRA.DIHEDRAL.0>
2.56603

>  <SCORE.INTRA.POLAR>
0

>  <SCORE.INTRA.POLAR.0>
0

>  <SCORE.INTRA.REPUL>
0

>  <SCORE.INTRA.REPUL.0>
0

>  <SCORE.INTRA.SOLV>
-0.643361

>  <SCORE.INTRA.SOLV.lig_0>
-32.0799

>  <SCORE.INTRA.VDW>
0.0943043

>  <SCORE.INTRA.VDW.0>
-0.618248

>  <SCORE.INTRA.norm>
-0.067501

>  <SCORE.RESTR>
0

>  <SCORE.RESTR.CAVITY>
0

>  <SCORE.RESTR.norm>
0

>  <SCORE.SYSTEM>
0

>  <SCORE.SYSTEM.CONST>
0

>  <SCORE.SYSTEM.DIHEDRAL>
0

>  <SCORE.SYSTEM.SOLV>
0

>  <SCORE.SYSTEM.norm>
0

>  <SCORE.heavy>
10

>  <SCORE.norm>
-0.843401

>  <RMSD>
5.628

$$$$
ligand
 OpenBabel11021811473D
libRbt.so/2013.1/901 2013/11/27
 10  9  0  0  0  0  0  0  0  0999 V2000
   25.7509   15.0567   20.2967 N   0  0  0  0  0  0  0  0  0  0  0  0
   27.0200   15.6209   19.7453 C   0  0  2  0  0  0  0  0  0  0  0  0
   27.4176   14.9751   18.4131 C   0  0  0  0  0  0  0  0  0  0  0  0
   28.0583   15.5916   17.5485 O   0  0  0  0  0  0  0  0  0  0  0  0
   28.1525   15.5201   20.7706 C   0  0  0  0  0  0  0  0  0  0  0  0
   29.4090   16.2441   20.3434 C   0  0  0  0  0  0  0  0  0  0  0  0
   30.4932   16.1507   21.3894 C   0  0  0  0  0  0  0  0  0  0  0  0
   31.7598   16.8685   20.9360 C   0  0  0  0  0  0  0  0  0  0  0  0
   32.8358   16.8767   21.9634 N   0  0  0  0  0  0  0  0  0  0  0  0
   27.1415   13.7962   18.1704 O   0  0  0  0  0  0  0  0  0  0  0  0
  2  1  1  1  0  0  0
  2  3  1  0  0  0  0
  2  5  1  0  0  0  0
  3  4  1  0  0  0  0
  3 10  1  0  0  0  0
  5  6  1  0  0  0  0
  6  7  1  0  0  0  0
  7  8  1  0  0  0  0
  8  9  1  0  0  0  0
M  END
>  <CHROM.1>
150.38166247,-172.07404566,178.72513999,179.20228400,176.59787316,28.80260383
15.65295131,19.92226297,2.60994824,-0.25782669,-1.77743670

>  <Name>
ligand

>  <RI>
0

>  <Rbt.Current_Directory>
/home/itssahil/PROJECTS/Mol_Feturizer/New_Systems/rnas/3DIY

>  <Rbt.Executable>
rbdock ($Id: //depot/dev/client3/rdock/2013.1/src/exe/rbdock.cxx#4 $)

>  <Rbt.Library>
libRbt.so (2013.1, Build901 2013/11/27)

>  <Rbt.Parameter_File>
/export/apps/rDock/src/rDock_2013.1_src/data/scripts/dock_solv.prm

>  <Rbt.Receptor>
prm/pocket_docking_4.prm

>  <SCORE>
-8.33224

>  <SCORE.INTER>
-6.93366

>  <SCORE.INTER.CONST>
1

>  <SCORE.INTER.POLAR>
0

>  <SCORE.INTER.ROT>
5

>  <SCORE.INTER.SOLV>
18.9028

>  <SCORE.INTER.VDW>
-17.8567

>  <SCORE.INTER.norm>
-0.693366

>  <SCORE.INTRA>
-1.39857

>  <SCORE.INTRA.DIHEDRAL>
-0.827457

>  <SCORE.INTRA.DIHEDRAL.0>
2.56603

>  <SCORE.INTRA.POLAR>
0

>  <SCORE.INTRA.POLAR.0>
0

>  <SCORE.INTRA.REPUL>
0

>  <SCORE.INTRA.REPUL.0>
0

>  <SCORE.INTRA.SOLV>
-1.59505

>  <SCORE.INTRA.SOLV.lig_0>
-32.0799

>  <SCORE.INTRA.VDW>
-0.187318

>  <SCORE.INTRA.VDW.0>
-0.618248

>  <SCORE.INTRA.norm>
-0.139857

>  <SCORE.RESTR>
0

>  <SCORE.RESTR.CAVITY>
0

>  <SCORE.RESTR.norm>
0

>  <SCORE.SYSTEM>
0

>  <SCORE.SYSTEM.CONST>
0

>  <SCORE.SYSTEM.DIHEDRAL>
0

>  <SCORE.SYSTEM.SOLV>
0

>  <SCORE.SYSTEM.norm>
0

>  <SCORE.heavy>
10

>  <SCORE.norm>
-0.833224

>  <RMSD>
5.628

$$$$
ligand
 OpenBabel11021811473D
libRbt.so/2013.1/901 2013/11/27
 10  9  0  0  0  0  0  0  0  0999 V2000
   28.6396   14.7613   18.9715 N   0  0  0  0  0  0  0  0  0  0  0  0
   28.1644   14.9059   20.3809 C   0  0  2  0  0  0  0  0  0  0  0  0
   26.6416   15.0556   20.4728 C   0  0  0  0  0  0  0  0  0  0  0  0
   25.9713   15.5406   19.5490 O   0  0  0  0  0  0  0  0  0  0  0  0
   28.8791   16.0647   21.0813 C   0  0  0  0  0  0  0  0  0  0  0  0
   30.3762   15.8742   21.1709 C   0  0  0  0  0  0  0  0  0  0  0  0
   31.0637   17.0933   21.7361 C   0  0  0  0  0  0  0  0  0  0  0  0
   32.5796   16.9296   21.7173 C   0  0  0  0  0  0  0  0  0  0  0  0
   33.3107   18.1253   22.2163 N   0  0  0  0  0  0  0  0  0  0  0  0
   26.0225   14.6605   21.4656 O   0  0  0  0  0  0  0  0  0  0  0  0
  2  1  1  6  0  0  0
  2  3  1  0  0  0  0
  2  5  1  0  0  0  0
  3  4  1  0  0  0  0
  3 10  1  0  0  0  0
  5  6  1  0  0  0  0
  6  7  1  0  0  0  0
  7  8  1  0  0  0  0
  8  9  1  0  0  0  0
M  END
>  <CHROM.1>
-27.41514262,-61.36779344,174.11024699,-175.48390785,177.79826296,29.11897550
15.89775339,20.87522658,-2.77140805,0.26356464,1.18925078

>  <Name>
ligand

>  <RI>
0

>  <Rbt.Current_Directory>
/home/itssahil/PROJECTS/Mol_Feturizer/New_Systems/rnas/3DIY

>  <Rbt.Executable>
rbdock ($Id: //depot/dev/client3/rdock/2013.1/src/exe/rbdock.cxx#4 $)

>  <Rbt.Library>
libRbt.so (2013.1, Build901 2013/11/27)

>  <Rbt.Parameter_File>
/export/apps/rDock/src/rDock_2013.1_src/data/scripts/dock_solv.prm

>  <Rbt.Receptor>
prm/pocket_docking_8.prm

>  <SCORE>
-9.2216

>  <SCORE.INTER>
-8.32912

>  <SCORE.INTER.CONST>
1

>  <SCORE.INTER.POLAR>
0

>  <SCORE.INTER.ROT>
5

>  <SCORE.INTER.SOLV>
12.9282

>  <SCORE.INTER.VDW>
-16.7955

>  <SCORE.INTER.norm>
-0.832912

>  <SCORE.INTRA>
-0.892473

>  <SCORE.INTRA.DIHEDRAL>
-0.692598

>  <SCORE.INTRA.DIHEDRAL.0>
2.56603

>  <SCORE.INTRA.POLAR>
0

>  <SCORE.INTRA.POLAR.0>
0

>  <SCORE.INTRA.REPUL>
0

>  <SCORE.INTRA.REPUL.0>
0

>  <SCORE.INTRA.SOLV>
-0.654106

>  <SCORE.INTRA.SOLV.lig_0>
-32.0799

>  <SCORE.INTRA.VDW>
-0.219121

>  <SCORE.INTRA.VDW.0>
-0.618248

>  <SCORE.INTRA.norm>
-0.0892473

>  <SCORE.RESTR>
0

>  <SCORE.RESTR.CAVITY>
0

>  <SCORE.RESTR.norm>
0

>  <SCORE.SYSTEM>
0

>  <SCORE.SYSTEM.CONST>
0

>  <SCORE.SYSTEM.DIHEDRAL>
0

>  <SCORE.SYSTEM.SOLV>
0

>  <SCORE.SYSTEM.norm>
0

>  <SCORE.heavy>
10

>  <SCORE.norm>
-0.92216

>  <RMSD>
5.630

$$$$
ligand
 OpenBabel11021811473D
libRbt.so/2013.1/901 2013/11/27
 10  9  0  0  0  0  0  0  0  0999 V2000
   28.6294   14.7208   18.9699 N   0  0  0  0  0  0  0  0  0  0  0  0
   28.1450   14.8888   20.3735 C   0  0  2  0  0  0  0  0  0  0  0  0
   26.6221   15.0455   20.4525 C   0  0  0  0  0  0  0  0  0  0  0  0
   25.9705   14.6544   21.4326 O   0  0  0  0  0  0  0  0  0  0  0  0
   28.8592   16.0557   21.0610 C   0  0  0  0  0  0  0  0  0  0  0  0
   30.3596   15.8819   21.1238 C   0  0  0  0  0  0  0  0  0  0  0  0
   31.0393   17.0893   21.7225 C   0  0  0  0  0  0  0  0  0  0  0  0
   32.5558   16.9296   21.7126 C   0  0  0  0  0  0  0  0  0  0  0  0
   33.2806   18.1264   22.2180 N   0  0  0  0  0  0  0  0  0  0  0  0
   25.9926   15.6050   19.5494 O   0  0  0  0  0  0  0  0  0  0  0  0
  2  1  1  6  0  0  0
  2  3  1  0  0  0  0
  2  5  1  0  0  0  0
  3  4  1  0  0  0  0
  3 10  1  0  0  0  0
  5  6  1  0  0  0  0
  6  7  1  0  0  0  0
  7  8  1  0  0  0  0
  8  9  1  0  0  0  0
M  END
>  <CHROM.1>
149.42674600,-59.49482154,176.15691887,-177.04299637,176.57618376,29.09963878
15.89747618,20.86061226,-2.76304497,0.25140302,1.15743881

>  <Name>
ligand

>  <RI>
0

>  <Rbt.Current_Directory>
/home/itssahil/PROJECTS/Mol_Feturizer/New_Systems/rnas/3DIY

>  <Rbt.Executable>
rbdock ($Id: //depot/dev/client3/rdock/2013.1/src/exe/rbdock.cxx#4 $)

>  <Rbt.Library>
libRbt.so (2013.1, Build901 2013/11/27)

>  <Rbt.Parameter_File>
/export/apps/rDock/src/rDock_2013.1_src/data/scripts/dock_solv.prm

>  <Rbt.Receptor>
prm/pocket_docking_4.prm

>  <SCORE>
-9.32586

>  <SCORE.INTER>
-8.32655

>  <SCORE.INTER.CONST>
1

>  <SCORE.INTER.POLAR>
0

>  <SCORE.INTER.ROT>
5

>  <SCORE.INTER.SOLV>
13.0058

>  <SCORE.INTER.VDW>
-16.8196

>  <SCORE.INTER.norm>
-0.832655

>  <SCORE.INTRA>
-0.999312

>  <SCORE.INTRA.DIHEDRAL>
-0.95699

>  <SCORE.INTRA.DIHEDRAL.0>
2.56603

>  <SCORE.INTRA.POLAR>
0

>  <SCORE.INTRA.POLAR.0>
0

>  <SCORE.INTRA.REPUL>
0

>  <SCORE.INTRA.REPUL.0>
0

>  <SCORE.INTRA.SOLV>
-0.647334

>  <SCORE.INTRA.SOLV.lig_0>
-32.0799

>  <SCORE.INTRA.VDW>
-0.19715

>  <SCORE.INTRA.VDW.0>
-0.618248

>  <SCORE.INTRA.norm>
-0.0999312

>  <SCORE.RESTR>
0

>  <SCORE.RESTR.CAVITY>
0

>  <SCORE.RESTR.norm>
0

>  <SCORE.SYSTEM>
0

>  <SCORE.SYSTEM.CONST>
0

>  <SCORE.SYSTEM.DIHEDRAL>
0

>  <SCORE.SYSTEM.SOLV>
0

>  <SCORE.SYSTEM.norm>
0

>  <SCORE.heavy>
10

>  <SCORE.norm>
-0.932586

>  <RMSD>
5.631

$$$$
ligand
 OpenBabel11021811473D
libRbt.so/2013.1/901 2013/11/27
 10  9  0  0  0  0  0  0  0  0999 V2000
   28.5846   14.8456   18.8743 N   0  0  0  0  0  0  0  0  0  0  0  0
   28.1242   14.8930   20.2951 C   0  0  2  0  0  0  0  0  0  0  0  0
   26.6014   15.0244   20.4131 C   0  0  0  0  0  0  0  0  0  0  0  0
   25.9834   14.6365   21.4159 O   0  0  0  0  0  0  0  0  0  0  0  0
   28.8384   16.0087   21.0629 C   0  0  0  0  0  0  0  0  0  0  0  0
   30.3422   15.8542   21.0762 C   0  0  0  0  0  0  0  0  0  0  0  0
   31.0205   17.0271   21.7415 C   0  0  0  0  0  0  0  0  0  0  0  0
   32.5381   16.9133   21.6456 C   0  0  0  0  0  0  0  0  0  0  0  0
   33.2568   18.0881   22.2082 N   0  0  0  0  0  0  0  0  0  0  0  0
   25.9381   15.5595   19.5195 O   0  0  0  0  0  0  0  0  0  0  0  0
  2  1  1  6  0  0  0
  2  3  1  0  0  0  0
  2  5  1  0  0  0  0
  3  4  1  0  0  0  0
  3 10  1  0  0  0  0
  5  6  1  0  0  0  0
  6  7  1  0  0  0  0
  7  8  1  0  0  0  0
  8  9  1  0  0  0  0
M  END
>  <CHROM.1>
154.96431599,-59.04540686,175.30489008,-175.31932644,176.25179001,29.07700727
15.88225453,20.82498928,-2.78247118,0.27520730,1.23722351

>  <Name>
ligand

>  <RI>
0

>  <Rbt.Current_Directory>
/home/itssahil/PROJECTS/Mol_Feturizer/New_Systems/rnas/3DIY

>  <Rbt.Executable>
rbdock ($Id: //depot/dev/client3/rdock/2013.1/src/exe/rbdock.cxx#4 $)

>  <Rbt.Library>
libRbt.so (2013.1, Build901 2013/11/27)

>  <Rbt.Parameter_File>
/export/apps/rDock/src/rDock_2013.1_src/data/scripts/dock_solv.prm

>  <Rbt.Receptor>
prm/pocket_docking_7.prm

>  <SCORE>
-9.30498

>  <SCORE.INTER>
-8.3849

>  <SCORE.INTER.CONST>
1

>  <SCORE.INTER.POLAR>
0

>  <SCORE.INTER.ROT>
5

>  <SCORE.INTER.SOLV>
12.6924

>  <SCORE.INTER.VDW>
-16.7541

>  <SCORE.INTER.norm>
-0.83849

>  <SCORE.INTRA>
-0.920077

>  <SCORE.INTRA.DIHEDRAL>
-0.861508

>  <SCORE.INTRA.DIHEDRAL.0>
2.56603

>  <SCORE.INTRA.POLAR>
0

>  <SCORE.INTRA.POLAR.0>
0

>  <SCORE.INTRA.REPUL>
0

>  <SCORE.INTRA.REPUL.0>
0

>  <SCORE.INTRA.SOLV>
-0.63371

>  <SCORE.INTRA.SOLV.lig_0>
-32.0799

>  <SCORE.INTRA.VDW>
-0.172467

>  <SCORE.INTRA.VDW.0>
-0.618248

>  <SCORE.INTRA.norm>
-0.0920077

>  <SCORE.RESTR>
0

>  <SCORE.RESTR.CAVITY>
0

>  <SCORE.RESTR.norm>
0

>  <SCORE.SYSTEM>
0

>  <SCORE.SYSTEM.CONST>
0

>  <SCORE.SYSTEM.DIHEDRAL>
0

>  <SCORE.SYSTEM.SOLV>
0

>  <SCORE.SYSTEM.norm>
0

>  <SCORE.heavy>
10

>  <SCORE.norm>
-0.930498

>  <RMSD>
5.635

$$$$
ligand
 OpenBabel11021811473D
libRbt.so/2013.1/901 2013/11/27
 10  9  0  0  0  0  0  0  0  0999 V2000
   27.8463   15.3974   22.2050 N   0  0  0  0  0  0  0  0  0  0  0  0
   27.8642   15.7430   20.7513 C   0  0  2  0  0  0  0  0  0  0  0  0
   26.6998   15.1066   19.9838 C   0  0  0  0  0  0  0  0  0  0  0  0
   25.6099   14.8649   20.5239 O   0  0  0  0  0  0  0  0  0  0  0  0
   29.2104   15.3772   20.1202 C   0  0  0  0  0  0  0  0  0  0  0  0
   30.3578   16.2149   20.6372 C   0  0  0  0  0  0  0  0  0  0  0  0
   31.6789   15.7781   20.0522 C   0  0  0  0  0  0  0  0  0  0  0  0
   32.7984   16.7373   20.4421 C   0  0  0  0  0  0  0  0  0  0  0  0
   32.9763   16.8734   21.9128 N   0  0  0  0  0  0  0  0  0  0  0  0
   26.7984   14.8449   18.7810 O   0  0  0  0  0  0  0  0  0  0  0  0
  2  1  1  1  0  0  0
  2  3  1  0  0  0  0
  2  5  1  0  0  0  0
  3  4  1  0  0  0  0
  3 10  1  0  0  0  0
  5  6  1  0  0  0  0
  6  7  1  0  0  0  0
  7  8  1  0  0  0  0
  8  9  1  0  0  0  0
M  END
>  <CHROM.1>
29.50306522,-66.98586313,176.85412020,172.82175872,58.35356201,29.14528477
15.67822165,20.52212141,2.97301553,-0.22678832,-1.74265416

>  <Name>
ligand

>  <RI>
0

>  <Rbt.Current_Directory>
/home/itssahil/PROJECTS/Mol_Feturizer/New_Systems/rnas/3DIY

>  <Rbt.Executable>
rbdock ($Id: //depot/dev/client3/rdock/2013.1/src/exe/rbdock.cxx#4 $)

>  <Rbt.Library>
libRbt.so (2013.1, Build901 2013/11/27)

>  <Rbt.Parameter_File>
/export/apps/rDock/src/rDock_2013.1_src/data/scripts/dock_solv.prm

>  <Rbt.Receptor>
prm/blind_docking_100.prm

>  <SCORE>
-7.39557

>  <SCORE.INTER>
-7.5733

>  <SCORE.INTER.CONST>
1

>  <SCORE.INTER.POLAR>
0

>  <SCORE.INTER.ROT>
5

>  <SCORE.INTER.SOLV>
17.267

>  <SCORE.INTER.VDW>
-17.7379

>  <SCORE.INTER.norm>
-0.75733

>  <SCORE.INTRA>
0.177733

>  <SCORE.INTRA.DIHEDRAL>
-0.626352

>  <SCORE.INTRA.DIHEDRAL.0>
2.56603

>  <SCORE.INTRA.POLAR>
0

>  <SCORE.INTRA.POLAR.0>
0

>  <SCORE.INTRA.REPUL>
0

>  <SCORE.INTRA.REPUL.0>
0

>  <SCORE.INTRA.SOLV>
0.187125

>  <SCORE.INTRA.SOLV.lig_0>
-32.0799

>  <SCORE.INTRA.VDW>
0.397347

>  <SCORE.INTRA.VDW.0>
-0.618248

>  <SCORE.INTRA.norm>
0.0177733

>  <SCORE.RESTR>
0

>  <SCORE.RESTR.CAVITY>
0

>  <SCORE.RESTR.norm>
0

>  <SCORE.SYSTEM>
0

>  <SCORE.SYSTEM.CONST>
0

>  <SCORE.SYSTEM.DIHEDRAL>
0

>  <SCORE.SYSTEM.SOLV>
0

>  <SCORE.SYSTEM.norm>
0

>  <SCORE.heavy>
10

>  <SCORE.norm>
-0.739557

>  <RMSD>
5.638

$$$$
ligand
 OpenBabel11021811473D
libRbt.so/2013.1/901 2013/11/27
 10  9  0  0  0  0  0  0  0  0999 V2000
   28.5691   14.8768   18.8897 N   0  0  0  0  0  0  0  0  0  0  0  0
   28.1314   14.9400   20.3171 C   0  0  2  0  0  0  0  0  0  0  0  0
   26.6101   15.0651   20.4581 C   0  0  0  0  0  0  0  0  0  0  0  0
   25.9051   15.5587   19.5651 O   0  0  0  0  0  0  0  0  0  0  0  0
   28.8521   16.0688   21.0592 C   0  0  0  0  0  0  0  0  0  0  0  0
   30.3538   15.8975   21.0904 C   0  0  0  0  0  0  0  0  0  0  0  0
   31.0420   17.0933   21.7025 C   0  0  0  0  0  0  0  0  0  0  0  0
   32.5578   16.9288   21.6790 C   0  0  0  0  0  0  0  0  0  0  0  0
   33.2904   18.1163   22.1950 N   0  0  0  0  0  0  0  0  0  0  0  0
   26.0273   14.6408   21.4606 O   0  0  0  0  0  0  0  0  0  0  0  0
  2  1  1  6  0  0  0
  2  3  1  0  0  0  0
  2  5  1  0  0  0  0
  3  4  1  0  0  0  0
  3 10  1  0  0  0  0
  5  6  1  0  0  0  0
  6  7  1  0  0  0  0
  7  8  1  0  0  0  0
  8  9  1  0  0  0  0
M  END
>  <CHROM.1>
-25.50862244,-60.99990267,174.14403748,-177.85552568,176.46495631,29.08804741
15.91474119,20.84178145,-2.79106596,0.28200766,1.24821882

>  <Name>
ligand

>  <RI>
0

>  <Rbt.Current_Directory>
/home/itssahil/PROJECTS/Mol_Feturizer/New_Systems/rnas/3DIY

>  <Rbt.Executable>
rbdock ($Id: //depot/dev/client3/rdock/2013.1/src/exe/rbdock.cxx#4 $)

>  <Rbt.Library>
libRbt.so (2013.1, Build901 2013/11/27)

>  <Rbt.Parameter_File>
/export/apps/rDock/src/rDock_2013.1_src/data/scripts/dock_solv.prm

>  <Rbt.Receptor>
prm/pocket_docking_6.prm

>  <SCORE>
-9.24032

>  <SCORE.INTER>
-8.34026

>  <SCORE.INTER.CONST>
1

>  <SCORE.INTER.POLAR>
0

>  <SCORE.INTER.ROT>
5

>  <SCORE.INTER.SOLV>
12.6083

>  <SCORE.INTER.VDW>
-16.6963

>  <SCORE.INTER.norm>
-0.834026

>  <SCORE.INTRA>
-0.90006

>  <SCORE.INTRA.DIHEDRAL>
-0.736388

>  <SCORE.INTRA.DIHEDRAL.0>
2.56603

>  <SCORE.INTRA.POLAR>
0

>  <SCORE.INTRA.POLAR.0>
0

>  <SCORE.INTRA.REPUL>
0

>  <SCORE.INTRA.REPUL.0>
0

>  <SCORE.INTRA.SOLV>
-0.648725

>  <SCORE.INTRA.SOLV.lig_0>
-32.0799

>  <SCORE.INTRA.VDW>
-0.207503

>  <SCORE.INTRA.VDW.0>
-0.618248

>  <SCORE.INTRA.norm>
-0.090006

>  <SCORE.RESTR>
0

>  <SCORE.RESTR.CAVITY>
0

>  <SCORE.RESTR.norm>
0

>  <SCORE.SYSTEM>
0

>  <SCORE.SYSTEM.CONST>
0

>  <SCORE.SYSTEM.DIHEDRAL>
0

>  <SCORE.SYSTEM.SOLV>
0

>  <SCORE.SYSTEM.norm>
0

>  <SCORE.heavy>
10

>  <SCORE.norm>
-0.924032

>  <RMSD>
5.638

$$$$
ligand
 OpenBabel11021811473D
libRbt.so/2013.1/901 2013/11/27
 10  9  0  0  0  0  0  0  0  0999 V2000
   28.6416   14.3789   19.1449 N   0  0  0  0  0  0  0  0  0  0  0  0
   28.0895   14.7882   20.4718 C   0  0  2  0  0  0  0  0  0  0  0  0
   26.5716   14.9995   20.4344 C   0  0  0  0  0  0  0  0  0  0  0  0
   25.8314   14.6175   21.3532 O   0  0  0  0  0  0  0  0  0  0  0  0
   28.8097   16.0308   21.0024 C   0  0  0  0  0  0  0  0  0  0  0  0
   30.2948   15.8225   21.1930 C   0  0  0  0  0  0  0  0  0  0  0  0
   30.9817   17.0814   21.6639 C   0  0  0  0  0  0  0  0  0  0  0  0
   32.4929   16.8909   21.7359 C   0  0  0  0  0  0  0  0  0  0  0  0
   33.2254   18.1176   22.1505 N   0  0  0  0  0  0  0  0  0  0  0  0
   26.0354   15.5957   19.4953 O   0  0  0  0  0  0  0  0  0  0  0  0
  2  1  1  6  0  0  0
  2  3  1  0  0  0  0
  2  5  1  0  0  0  0
  3  4  1  0  0  0  0
  3 10  1  0  0  0  0
  5  6  1  0  0  0  0
  6  7  1  0  0  0  0
  7  8  1  0  0  0  0
  8  9  1  0  0  0  0
M  END
>  <CHROM.1>
139.01050680,-60.02540456,177.72841136,-175.09036713,178.01680556,29.05170619
15.83123955,20.86123440,-2.71953959,0.18012963,0.95892131

>  <Name>
ligand

>  <RI>
0

>  <Rbt.Current_Directory>
/home/itssahil/PROJECTS/Mol_Feturizer/New_Systems/rnas/3DIY

>  <Rbt.Executable>
rbdock ($Id: //depot/dev/client3/rdock/2013.1/src/exe/rbdock.cxx#4 $)

>  <Rbt.Library>
libRbt.so (2013.1, Build901 2013/11/27)

>  <Rbt.Parameter_File>
/export/apps/rDock/src/rDock_2013.1_src/data/scripts/dock_solv.prm

>  <Rbt.Receptor>
prm/pocket_docking_4.prm

>  <SCORE>
-9.23581

>  <SCORE.INTER>
-8.20996

>  <SCORE.INTER.CONST>
1

>  <SCORE.INTER.POLAR>
0

>  <SCORE.INTER.ROT>
5

>  <SCORE.INTER.SOLV>
14.0791

>  <SCORE.INTER.VDW>
-17.0997

>  <SCORE.INTER.norm>
-0.820996

>  <SCORE.INTRA>
-1.02585

>  <SCORE.INTRA.DIHEDRAL>
-0.946455

>  <SCORE.INTRA.DIHEDRAL.0>
2.56603

>  <SCORE.INTRA.POLAR>
0

>  <SCORE.INTRA.POLAR.0>
0

>  <SCORE.INTRA.REPUL>
0

>  <SCORE.INTRA.REPUL.0>
0

>  <SCORE.INTRA.SOLV>
-0.669307

>  <SCORE.INTRA.SOLV.lig_0>
-32.0799

>  <SCORE.INTRA.VDW>
-0.21797

>  <SCORE.INTRA.VDW.0>
-0.618248

>  <SCORE.INTRA.norm>
-0.102585

>  <SCORE.RESTR>
0

>  <SCORE.RESTR.CAVITY>
0

>  <SCORE.RESTR.norm>
0

>  <SCORE.SYSTEM>
0

>  <SCORE.SYSTEM.CONST>
0

>  <SCORE.SYSTEM.DIHEDRAL>
0

>  <SCORE.SYSTEM.SOLV>
0

>  <SCORE.SYSTEM.norm>
0

>  <SCORE.heavy>
10

>  <SCORE.norm>
-0.923581

>  <RMSD>
5.650

$$$$
ligand
 OpenBabel11021811473D
libRbt.so/2013.1/901 2013/11/27
 10  9  0  0  0  0  0  0  0  0999 V2000
   25.7270   15.0991   20.3517 N   0  0  0  0  0  0  0  0  0  0  0  0
   27.0099   15.5914   19.7645 C   0  0  2  0  0  0  0  0  0  0  0  0
   27.3714   14.8710   18.4605 C   0  0  0  0  0  0  0  0  0  0  0  0
   27.0091   13.7077   18.2294 O   0  0  0  0  0  0  0  0  0  0  0  0
   28.1481   15.4974   20.7842 C   0  0  0  0  0  0  0  0  0  0  0  0
   29.4184   16.1749   20.3230 C   0  0  0  0  0  0  0  0  0  0  0  0
   30.4876   16.1462   21.3881 C   0  0  0  0  0  0  0  0  0  0  0  0
   31.7609   16.8354   20.9096 C   0  0  0  0  0  0  0  0  0  0  0  0
   32.8337   16.8788   21.9395 N   0  0  0  0  0  0  0  0  0  0  0  0
   28.0109   15.4445   17.5733 O   0  0  0  0  0  0  0  0  0  0  0  0
  2  1  1  1  0  0  0
  2  3  1  0  0  0  0
  2  5  1  0  0  0  0
  3  4  1  0  0  0  0
  3 10  1  0  0  0  0
  5  6  1  0  0  0  0
  6  7  1  0  0  0  0
  7  8  1  0  0  0  0
  8  9  1  0  0  0  0
M  END
>  <CHROM.1>
-28.39550366,-171.13688785,176.08011597,-179.88051607,177.94815283,28.77485282
15.60621347,19.93723239,2.61125258,-0.24569937,-1.81696444

>  <Name>
ligand

>  <RI>
0

>  <Rbt.Current_Directory>
/home/itssahil/PROJECTS/Mol_Feturizer/New_Systems/rnas/3DIY

>  <Rbt.Executable>
rbdock ($Id: //depot/dev/client3/rdock/2013.1/src/exe/rbdock.cxx#4 $)

>  <Rbt.Library>
libRbt.so (2013.1, Build901 2013/11/27)

>  <Rbt.Parameter_File>
/export/apps/rDock/src/rDock_2013.1_src/data/scripts/dock_solv.prm

>  <Rbt.Receptor>
prm/pocket_docking_4.prm

>  <SCORE>
-8.26326

>  <SCORE.INTER>
-6.96505

>  <SCORE.INTER.CONST>
1

>  <SCORE.INTER.POLAR>
0

>  <SCORE.INTER.ROT>
5

>  <SCORE.INTER.SOLV>
18.9162

>  <SCORE.INTER.VDW>
-17.8821

>  <SCORE.INTER.norm>
-0.696505

>  <SCORE.INTRA>
-1.2982

>  <SCORE.INTRA.DIHEDRAL>
-0.59568

>  <SCORE.INTRA.DIHEDRAL.0>
2.56603

>  <SCORE.INTRA.POLAR>
0

>  <SCORE.INTRA.POLAR.0>
0

>  <SCORE.INTRA.REPUL>
0

>  <SCORE.INTRA.REPUL.0>
0

>  <SCORE.INTRA.SOLV>
-1.58903

>  <SCORE.INTRA.SOLV.lig_0>
-32.0799

>  <SCORE.INTRA.VDW>
-0.205847

>  <SCORE.INTRA.VDW.0>
-0.618248

>  <SCORE.INTRA.norm>
-0.12982

>  <SCORE.RESTR>
0

>  <SCORE.RESTR.CAVITY>
0

>  <SCORE.RESTR.norm>
0

>  <SCORE.SYSTEM>
0

>  <SCORE.SYSTEM.CONST>
0

>  <SCORE.SYSTEM.DIHEDRAL>
0

>  <SCORE.SYSTEM.SOLV>
0

>  <SCORE.SYSTEM.norm>
0

>  <SCORE.heavy>
10

>  <SCORE.norm>
-0.826326

>  <RMSD>
5.658

$$$$
ligand
 OpenBabel11021811473D
libRbt.so/2013.1/901 2013/11/27
 10  9  0  0  0  0  0  0  0  0999 V2000
   26.9784   15.1293   20.3247 N   0  0  0  0  0  0  0  0  0  0  0  0
   27.8273   15.7197   19.2459 C   0  0  2  0  0  0  0  0  0  0  0  0
   27.6619   14.9923   17.9067 C   0  0  0  0  0  0  0  0  0  0  0  0
   28.1216   15.4485   16.8491 O   0  0  0  0  0  0  0  0  0  0  0  0
   29.2967   15.7682   19.6731 C   0  0  0  0  0  0  0  0  0  0  0  0
   29.5718   16.7985   20.7446 C   0  0  0  0  0  0  0  0  0  0  0  0
   31.0448   16.9028   21.0573 C   0  0  0  0  0  0  0  0  0  0  0  0
   31.3178   18.0187   22.0601 C   0  0  0  0  0  0  0  0  0  0  0  0
   32.7582   18.1702   22.3999 N   0  0  0  0  0  0  0  0  0  0  0  0
   27.0912   13.8991   17.8430 O   0  0  0  0  0  0  0  0  0  0  0  0
  2  1  1  1  0  0  0
  2  3  1  0  0  0  0
  2  5  1  0  0  0  0
  3  4  1  0  0  0  0
  3 10  1  0  0  0  0
  5  6  1  0  0  0  0
  6  7  1  0  0  0  0
  7  8  1  0  0  0  0
  8  9  1  0  0  0  0
M  END
>  <CHROM.1>
168.97468020,-71.01212953,-175.10020886,175.62753945,-179.72756448,29.15419442
16.06334180,19.77232700,2.40468234,-0.48673198,-1.74543764

>  <Name>
ligand

>  <RI>
0

>  <Rbt.Current_Directory>
/home/itssahil/PROJECTS/Mol_Feturizer/New_Systems/rnas/3DIY

>  <Rbt.Executable>
rbdock ($Id: //depot/dev/client3/rdock/2013.1/src/exe/rbdock.cxx#4 $)

>  <Rbt.Library>
libRbt.so (2013.1, Build901 2013/11/27)

>  <Rbt.Parameter_File>
/export/apps/rDock/src/rDock_2013.1_src/data/scripts/dock_solv.prm

>  <Rbt.Receptor>
prm/blind_docking_100.prm

>  <SCORE>
-8.2802

>  <SCORE.INTER>
-7.46196

>  <SCORE.INTER.CONST>
1

>  <SCORE.INTER.POLAR>
0

>  <SCORE.INTER.ROT>
5

>  <SCORE.INTER.SOLV>
14.714

>  <SCORE.INTER.VDW>
-16.8127

>  <SCORE.INTER.norm>
-0.746196

>  <SCORE.INTRA>
-0.818235

>  <SCORE.INTRA.DIHEDRAL>
-0.402553

>  <SCORE.INTRA.DIHEDRAL.0>
2.56603

>  <SCORE.INTRA.POLAR>
0

>  <SCORE.INTRA.POLAR.0>
0

>  <SCORE.INTRA.REPUL>
0

>  <SCORE.INTRA.REPUL.0>
0

>  <SCORE.INTRA.SOLV>
-0.834042

>  <SCORE.INTRA.SOLV.lig_0>
-32.0799

>  <SCORE.INTRA.VDW>
-0.199937

>  <SCORE.INTRA.VDW.0>
-0.618248

>  <SCORE.INTRA.norm>
-0.0818235

>  <SCORE.RESTR>
0

>  <SCORE.RESTR.CAVITY>
0

>  <SCORE.RESTR.norm>
0

>  <SCORE.SYSTEM>
0

>  <SCORE.SYSTEM.CONST>
0

>  <SCORE.SYSTEM.DIHEDRAL>
0

>  <SCORE.SYSTEM.SOLV>
0

>  <SCORE.SYSTEM.norm>
0

>  <SCORE.heavy>
10

>  <SCORE.norm>
-0.82802

>  <RMSD>
5.663

$$$$
ligand
 OpenBabel11021811473D
libRbt.so/2013.1/901 2013/11/27
 10  9  0  0  0  0  0  0  0  0999 V2000
   25.7532   15.0496   20.4030 N   0  0  0  0  0  0  0  0  0  0  0  0
   27.0334   15.5289   19.7994 C   0  0  2  0  0  0  0  0  0  0  0  0
   27.3655   14.8124   18.4855 C   0  0  0  0  0  0  0  0  0  0  0  0
   27.0323   13.6366   18.2749 O   0  0  0  0  0  0  0  0  0  0  0  0
   28.1856   15.4131   20.8011 C   0  0  0  0  0  0  0  0  0  0  0  0
   29.4458   16.1111   20.3426 C   0  0  0  0  0  0  0  0  0  0  0  0
   30.5282   16.0614   21.3934 C   0  0  0  0  0  0  0  0  0  0  0  0
   31.7769   16.8066   20.9342 C   0  0  0  0  0  0  0  0  0  0  0  0
   32.8310   16.8966   21.9802 N   0  0  0  0  0  0  0  0  0  0  0  0
   27.9499   15.4008   17.5705 O   0  0  0  0  0  0  0  0  0  0  0  0
  2  1  1  1  0  0  0
  2  3  1  0  0  0  0
  2  5  1  0  0  0  0
  3  4  1  0  0  0  0
  3 10  1  0  0  0  0
  5  6  1  0  0  0  0
  6  7  1  0  0  0  0
  7  8  1  0  0  0  0
  8  9  1  0  0  0  0
M  END
>  <CHROM.1>
-31.45866888,-169.47401709,175.96029614,-178.22393966,174.70641221,28.78661298
15.55330937,19.96315045,2.61241642,-0.25852919,-1.80426271

>  <Name>
ligand

>  <RI>
0

>  <Rbt.Current_Directory>
/home/itssahil/PROJECTS/Mol_Feturizer/New_Systems/rnas/3DIY

>  <Rbt.Executable>
rbdock ($Id: //depot/dev/client3/rdock/2013.1/src/exe/rbdock.cxx#4 $)

>  <Rbt.Library>
libRbt.so (2013.1, Build901 2013/11/27)

>  <Rbt.Parameter_File>
/export/apps/rDock/src/rDock_2013.1_src/data/scripts/dock_solv.prm

>  <Rbt.Receptor>
prm/blind_docking_80.prm

>  <SCORE>
-8.31

>  <SCORE.INTER>
-7.08781

>  <SCORE.INTER.CONST>
1

>  <SCORE.INTER.POLAR>
0

>  <SCORE.INTER.ROT>
5

>  <SCORE.INTER.SOLV>
19.0082

>  <SCORE.INTER.VDW>
-17.9946

>  <SCORE.INTER.norm>
-0.708781

>  <SCORE.INTRA>
-1.2222

>  <SCORE.INTRA.DIHEDRAL>
-0.374268

>  <SCORE.INTRA.DIHEDRAL.0>
2.56603

>  <SCORE.INTRA.POLAR>
0

>  <SCORE.INTRA.POLAR.0>
0

>  <SCORE.INTRA.REPUL>
0

>  <SCORE.INTRA.REPUL.0>
0

>  <SCORE.INTRA.SOLV>
-1.58619

>  <SCORE.INTRA.SOLV.lig_0>
-32.0799

>  <SCORE.INTRA.VDW>
-0.241968

>  <SCORE.INTRA.VDW.0>
-0.618248

>  <SCORE.INTRA.norm>
-0.12222

>  <SCORE.RESTR>
0

>  <SCORE.RESTR.CAVITY>
0

>  <SCORE.RESTR.norm>
0

>  <SCORE.SYSTEM>
0

>  <SCORE.SYSTEM.CONST>
0

>  <SCORE.SYSTEM.DIHEDRAL>
0

>  <SCORE.SYSTEM.SOLV>
0

>  <SCORE.SYSTEM.norm>
0

>  <SCORE.heavy>
10

>  <SCORE.norm>
-0.831

>  <RMSD>
5.668

$$$$
ligand
 OpenBabel11021811473D
libRbt.so/2013.1/901 2013/11/27
 10  9  0  0  0  0  0  0  0  0999 V2000
   26.9708   15.1247   20.3326 N   0  0  0  0  0  0  0  0  0  0  0  0
   27.8140   15.7127   19.2479 C   0  0  2  0  0  0  0  0  0  0  0  0
   27.6440   14.9802   17.9121 C   0  0  0  0  0  0  0  0  0  0  0  0
   28.0723   15.4477   16.8463 O   0  0  0  0  0  0  0  0  0  0  0  0
   29.2852   15.7652   19.6686 C   0  0  0  0  0  0  0  0  0  0  0  0
   29.5612   16.7925   20.7428 C   0  0  0  0  0  0  0  0  0  0  0  0
   31.0366   16.9123   21.0381 C   0  0  0  0  0  0  0  0  0  0  0  0
   31.3076   18.0176   22.0532 C   0  0  0  0  0  0  0  0  0  0  0  0
   32.7487   18.1741   22.3877 N   0  0  0  0  0  0  0  0  0  0  0  0
   27.1016   13.8721   17.8589 O   0  0  0  0  0  0  0  0  0  0  0  0
  2  1  1  1  0  0  0
  2  3  1  0  0  0  0
  2  5  1  0  0  0  0
  3  4  1  0  0  0  0
  3 10  1  0  0  0  0
  5  6  1  0  0  0  0
  6  7  1  0  0  0  0
  7  8  1  0  0  0  0
  8  9  1  0  0  0  0
M  END
>  <CHROM.1>
167.33864202,-70.56713039,-174.45888854,176.11612554,179.65060278,29.14132599
16.05838710,19.77079968,2.40913911,-0.49249116,-1.74138679

>  <Name>
ligand

>  <RI>
0

>  <Rbt.Current_Directory>
/home/itssahil/PROJECTS/Mol_Feturizer/New_Systems/rnas/3DIY

>  <Rbt.Executable>
rbdock ($Id: //depot/dev/client3/rdock/2013.1/src/exe/rbdock.cxx#4 $)

>  <Rbt.Library>
libRbt.so (2013.1, Build901 2013/11/27)

>  <Rbt.Parameter_File>
/export/apps/rDock/src/rDock_2013.1_src/data/scripts/dock_solv.prm

>  <Rbt.Receptor>
prm/blind_docking_60.prm

>  <SCORE>
-8.30384

>  <SCORE.INTER>
-7.46353

>  <SCORE.INTER.CONST>
1

>  <SCORE.INTER.POLAR>
0

>  <SCORE.INTER.ROT>
5

>  <SCORE.INTER.SOLV>
14.7525

>  <SCORE.INTER.VDW>
-16.8265

>  <SCORE.INTER.norm>
-0.746353

>  <SCORE.INTRA>
-0.840307

>  <SCORE.INTRA.DIHEDRAL>
-0.432706

>  <SCORE.INTRA.DIHEDRAL.0>
2.56603

>  <SCORE.INTRA.POLAR>
0

>  <SCORE.INTRA.POLAR.0>
0

>  <SCORE.INTRA.REPUL>
0

>  <SCORE.INTRA.REPUL.0>
0

>  <SCORE.INTRA.SOLV>
-0.831381

>  <SCORE.INTRA.SOLV.lig_0>
-32.0799

>  <SCORE.INTRA.VDW>
-0.208263

>  <SCORE.INTRA.VDW.0>
-0.618248

>  <SCORE.INTRA.norm>
-0.0840307

>  <SCORE.RESTR>
0

>  <SCORE.RESTR.CAVITY>
0

>  <SCORE.RESTR.norm>
0

>  <SCORE.SYSTEM>
0

>  <SCORE.SYSTEM.CONST>
0

>  <SCORE.SYSTEM.DIHEDRAL>
0

>  <SCORE.SYSTEM.SOLV>
0

>  <SCORE.SYSTEM.norm>
0

>  <SCORE.heavy>
10

>  <SCORE.norm>
-0.830384

>  <RMSD>
5.670

$$$$
ligand
 OpenBabel11021811473D
libRbt.so/2013.1/901 2013/11/27
 10  9  0  0  0  0  0  0  0  0999 V2000
   26.7320   14.6048   20.3911 N   0  0  0  0  0  0  0  0  0  0  0  0
   27.0371   15.4989   19.2334 C   0  0  2  0  0  0  0  0  0  0  0  0
   27.4499   14.7159   17.9817 C   0  0  0  0  0  0  0  0  0  0  0  0
   27.2246   13.5024   17.8609 O   0  0  0  0  0  0  0  0  0  0  0  0
   28.0955   16.5388   19.6114 C   0  0  0  0  0  0  0  0  0  0  0  0
   29.3965   15.9234   20.0740 C   0  0  0  0  0  0  0  0  0  0  0  0
   30.4115   16.9753   20.4506 C   0  0  0  0  0  0  0  0  0  0  0  0
   31.7530   16.3440   20.8074 C   0  0  0  0  0  0  0  0  0  0  0  0
   32.7988   17.3391   21.1669 N   0  0  0  0  0  0  0  0  0  0  0  0
   27.9932   15.2818   17.0281 O   0  0  0  0  0  0  0  0  0  0  0  0
  2  1  1  1  0  0  0
  2  3  1  0  0  0  0
  2  5  1  0  0  0  0
  3  4  1  0  0  0  0
  3 10  1  0  0  0  0
  5  6  1  0  0  0  0
  6  7  1  0  0  0  0
  7  8  1  0  0  0  0
  8  9  1  0  0  0  0
M  END
>  <CHROM.1>
16.88226143,58.76915063,-179.46448576,-175.43917470,179.10212598,28.88696052
15.65146489,19.42656054,2.56531162,-0.32968840,-1.84877059

>  <Name>
ligand

>  <RI>
0

>  <Rbt.Current_Directory>
/home/itssahil/PROJECTS/Mol_Feturizer/New_Systems/rnas/3DIY

>  <Rbt.Executable>
rbdock ($Id: //depot/dev/client3/rdock/2013.1/src/exe/rbdock.cxx#4 $)

>  <Rbt.Library>
libRbt.so (2013.1, Build901 2013/11/27)

>  <Rbt.Parameter_File>
/export/apps/rDock/src/rDock_2013.1_src/data/scripts/dock_solv.prm

>  <Rbt.Receptor>
prm/pocket_docking_8.prm

>  <SCORE>
-8.94446

>  <SCORE.INTER>
-8.32424

>  <SCORE.INTER.CONST>
1

>  <SCORE.INTER.POLAR>
0

>  <SCORE.INTER.ROT>
5

>  <SCORE.INTER.SOLV>
15.4524

>  <SCORE.INTER.VDW>
-17.6336

>  <SCORE.INTER.norm>
-0.832424

>  <SCORE.INTRA>
-0.620221

>  <SCORE.INTRA.DIHEDRAL>
-0.977552

>  <SCORE.INTRA.DIHEDRAL.0>
2.56603

>  <SCORE.INTRA.POLAR>
0

>  <SCORE.INTRA.POLAR.0>
0

>  <SCORE.INTRA.REPUL>
0

>  <SCORE.INTRA.REPUL.0>
0

>  <SCORE.INTRA.SOLV>
-0.659729

>  <SCORE.INTRA.SOLV.lig_0>
-32.0799

>  <SCORE.INTRA.VDW>
0.198419

>  <SCORE.INTRA.VDW.0>
-0.618248

>  <SCORE.INTRA.norm>
-0.0620221

>  <SCORE.RESTR>
0

>  <SCORE.RESTR.CAVITY>
0

>  <SCORE.RESTR.norm>
0

>  <SCORE.SYSTEM>
0

>  <SCORE.SYSTEM.CONST>
0

>  <SCORE.SYSTEM.DIHEDRAL>
0

>  <SCORE.SYSTEM.SOLV>
0

>  <SCORE.SYSTEM.norm>
0

>  <SCORE.heavy>
10

>  <SCORE.norm>
-0.894446

>  <RMSD>
5.671

$$$$
ligand
 OpenBabel11021811473D
libRbt.so/2013.1/901 2013/11/27
 10  9  0  0  0  0  0  0  0  0999 V2000
   26.9881   15.0795   20.3391 N   0  0  0  0  0  0  0  0  0  0  0  0
   27.8110   15.6856   19.2489 C   0  0  2  0  0  0  0  0  0  0  0  0
   27.6411   14.9550   17.9120 C   0  0  0  0  0  0  0  0  0  0  0  0
   28.0633   15.4274   16.8458 O   0  0  0  0  0  0  0  0  0  0  0  0
   29.2850   15.7616   19.6562 C   0  0  0  0  0  0  0  0  0  0  0  0
   29.5509   16.7782   20.7429 C   0  0  0  0  0  0  0  0  0  0  0  0
   31.0268   16.9272   21.0224 C   0  0  0  0  0  0  0  0  0  0  0  0
   31.2863   18.0327   22.0401 C   0  0  0  0  0  0  0  0  0  0  0  0
   32.7299   18.2415   22.3325 N   0  0  0  0  0  0  0  0  0  0  0  0
   27.1051   13.8438   17.8581 O   0  0  0  0  0  0  0  0  0  0  0  0
  2  1  1  1  0  0  0
  2  3  1  0  0  0  0
  2  5  1  0  0  0  0
  3  4  1  0  0  0  0
  3 10  1  0  0  0  0
  5  6  1  0  0  0  0
  6  7  1  0  0  0  0
  7  8  1  0  0  0  0
  8  9  1  0  0  0  0
M  END
>  <CHROM.1>
168.06526353,-69.89650096,-174.25254431,175.50815491,-178.83051276,29.13589293
16.05163296,19.76183377,2.41555747,-0.51018753,-1.73660574

>  <Name>
ligand

>  <RI>
0

>  <Rbt.Current_Directory>
/home/itssahil/PROJECTS/Mol_Feturizer/New_Systems/rnas/3DIY

>  <Rbt.Executable>
rbdock ($Id: //depot/dev/client3/rdock/2013.1/src/exe/rbdock.cxx#4 $)

>  <Rbt.Library>
libRbt.so (2013.1, Build901 2013/11/27)

>  <Rbt.Parameter_File>
/export/apps/rDock/src/rDock_2013.1_src/data/scripts/dock_solv.prm

>  <Rbt.Receptor>
prm/pocket_docking_8.prm

>  <SCORE>
-8.28029

>  <SCORE.INTER>
-7.44649

>  <SCORE.INTER.CONST>
1

>  <SCORE.INTER.POLAR>
0

>  <SCORE.INTER.ROT>
5

>  <SCORE.INTER.SOLV>
14.7532

>  <SCORE.INTER.VDW>
-16.8154

>  <SCORE.INTER.norm>
-0.744649

>  <SCORE.INTRA>
-0.833798

>  <SCORE.INTRA.DIHEDRAL>
-0.447657

>  <SCORE.INTRA.DIHEDRAL.0>
2.56603

>  <SCORE.INTRA.POLAR>
0

>  <SCORE.INTRA.POLAR.0>
0

>  <SCORE.INTRA.REPUL>
0

>  <SCORE.INTRA.REPUL.0>
0

>  <SCORE.INTRA.SOLV>
-0.822734

>  <SCORE.INTRA.SOLV.lig_0>
-32.0799

>  <SCORE.INTRA.VDW>
-0.198603

>  <SCORE.INTRA.VDW.0>
-0.618248

>  <SCORE.INTRA.norm>
-0.0833798

>  <SCORE.RESTR>
0

>  <SCORE.RESTR.CAVITY>
0

>  <SCORE.RESTR.norm>
0

>  <SCORE.SYSTEM>
0

>  <SCORE.SYSTEM.CONST>
0

>  <SCORE.SYSTEM.DIHEDRAL>
0

>  <SCORE.SYSTEM.SOLV>
0

>  <SCORE.SYSTEM.norm>
0

>  <SCORE.heavy>
10

>  <SCORE.norm>
-0.828029

>  <RMSD>
5.672

$$$$
ligand
 OpenBabel11021811473D
libRbt.so/2013.1/901 2013/11/27
 10  9  0  0  0  0  0  0  0  0999 V2000
   26.3432   14.8690   20.6091 N   0  0  0  0  0  0  0  0  0  0  0  0
   26.8658   15.3812   19.3063 C   0  0  2  0  0  0  0  0  0  0  0  0
   27.3948   14.2590   18.4057 C   0  0  0  0  0  0  0  0  0  0  0  0
   26.7888   13.8914   17.3881 O   0  0  0  0  0  0  0  0  0  0  0  0
   27.9291   16.4597   19.5312 C   0  0  0  0  0  0  0  0  0  0  0  0
   29.0515   16.0095   20.4383 C   0  0  0  0  0  0  0  0  0  0  0  0
   30.0724   17.1008   20.6511 C   0  0  0  0  0  0  0  0  0  0  0  0
   31.1873   16.6385   21.5832 C   0  0  0  0  0  0  0  0  0  0  0  0
   32.2194   17.6801   21.8340 N   0  0  0  0  0  0  0  0  0  0  0  0
   28.4711   13.7039   18.6471 O   0  0  0  0  0  0  0  0  0  0  0  0
  2  1  1  1  0  0  0
  2  3  1  0  0  0  0
  2  5  1  0  0  0  0
  3  4  1  0  0  0  0
  3 10  1  0  0  0  0
  5  6  1  0  0  0  0
  6  7  1  0  0  0  0
  7  8  1  0  0  0  0
  8  9  1  0  0  0  0
M  END
>  <CHROM.1>
107.86198298,53.91093590,-179.34224700,179.20174008,-179.68131984,28.63441998
15.56946805,19.81238481,2.36780017,-0.05188294,-2.29353353

>  <Name>
ligand

>  <RI>
0

>  <Rbt.Current_Directory>
/home/itssahil/PROJECTS/Mol_Feturizer/New_Systems/rnas/3DIY

>  <Rbt.Executable>
rbdock ($Id: //depot/dev/client3/rdock/2013.1/src/exe/rbdock.cxx#4 $)

>  <Rbt.Library>
libRbt.so (2013.1, Build901 2013/11/27)

>  <Rbt.Parameter_File>
/export/apps/rDock/src/rDock_2013.1_src/data/scripts/dock_solv.prm

>  <Rbt.Receptor>
prm/blind_docking_80.prm

>  <SCORE>
-8.61854

>  <SCORE.INTER>
-8.08186

>  <SCORE.INTER.CONST>
1

>  <SCORE.INTER.POLAR>
0

>  <SCORE.INTER.ROT>
5

>  <SCORE.INTER.SOLV>
16.0032

>  <SCORE.INTER.VDW>
-17.6556

>  <SCORE.INTER.norm>
-0.808186

>  <SCORE.INTRA>
-0.536682

>  <SCORE.INTRA.DIHEDRAL>
-0.81089

>  <SCORE.INTRA.DIHEDRAL.0>
2.56603

>  <SCORE.INTRA.POLAR>
0

>  <SCORE.INTRA.POLAR.0>
0

>  <SCORE.INTRA.REPUL>
0

>  <SCORE.INTRA.REPUL.0>
0

>  <SCORE.INTRA.SOLV>
-0.624741

>  <SCORE.INTRA.SOLV.lig_0>
-32.0799

>  <SCORE.INTRA.VDW>
0.181133

>  <SCORE.INTRA.VDW.0>
-0.618248

>  <SCORE.INTRA.norm>
-0.0536682

>  <SCORE.RESTR>
0

>  <SCORE.RESTR.CAVITY>
0

>  <SCORE.RESTR.norm>
0

>  <SCORE.SYSTEM>
0

>  <SCORE.SYSTEM.CONST>
0

>  <SCORE.SYSTEM.DIHEDRAL>
0

>  <SCORE.SYSTEM.SOLV>
0

>  <SCORE.SYSTEM.norm>
0

>  <SCORE.heavy>
10

>  <SCORE.norm>
-0.861854

>  <RMSD>
5.674

$$$$
ligand
 OpenBabel11021811473D
libRbt.so/2013.1/901 2013/11/27
 10  9  0  0  0  0  0  0  0  0999 V2000
   26.9827   15.0607   20.3472 N   0  0  0  0  0  0  0  0  0  0  0  0
   27.7999   15.6723   19.2558 C   0  0  2  0  0  0  0  0  0  0  0  0
   27.6258   14.9464   17.9169 C   0  0  0  0  0  0  0  0  0  0  0  0
   28.0514   15.4189   16.8522 O   0  0  0  0  0  0  0  0  0  0  0  0
   29.2754   15.7496   19.6572 C   0  0  0  0  0  0  0  0  0  0  0  0
   29.5479   16.7804   20.7290 C   0  0  0  0  0  0  0  0  0  0  0  0
   31.0207   16.8884   21.0416 C   0  0  0  0  0  0  0  0  0  0  0  0
   31.2903   18.0015   22.0483 C   0  0  0  0  0  0  0  0  0  0  0  0
   32.7302   18.1559   22.3889 N   0  0  0  0  0  0  0  0  0  0  0  0
   27.0824   13.8390   17.8599 O   0  0  0  0  0  0  0  0  0  0  0  0
  2  1  1  1  0  0  0
  2  3  1  0  0  0  0
  2  5  1  0  0  0  0
  3  4  1  0  0  0  0
  3 10  1  0  0  0  0
  5  6  1  0  0  0  0
  6  7  1  0  0  0  0
  7  8  1  0  0  0  0
  8  9  1  0  0  0  0
M  END
>  <CHROM.1>
168.62260628,-70.93745853,-176.58688317,175.82611861,-179.76713727,29.12768514
16.02987893,19.77166345,2.41557960,-0.50515279,-1.73024829

>  <Name>
ligand

>  <RI>
0

>  <Rbt.Current_Directory>
/home/itssahil/PROJECTS/Mol_Feturizer/New_Systems/rnas/3DIY

>  <Rbt.Executable>
rbdock ($Id: //depot/dev/client3/rdock/2013.1/src/exe/rbdock.cxx#4 $)

>  <Rbt.Library>
libRbt.so (2013.1, Build901 2013/11/27)

>  <Rbt.Parameter_File>
/export/apps/rDock/src/rDock_2013.1_src/data/scripts/dock_solv.prm

>  <Rbt.Receptor>
prm/pocket_docking_8.prm

>  <SCORE>
-8.30823

>  <SCORE.INTER>
-7.45873

>  <SCORE.INTER.CONST>
1

>  <SCORE.INTER.POLAR>
0

>  <SCORE.INTER.ROT>
5

>  <SCORE.INTER.SOLV>
14.7213

>  <SCORE.INTER.VDW>
-16.8129

>  <SCORE.INTER.norm>
-0.745873

>  <SCORE.INTRA>
-0.849498

>  <SCORE.INTRA.DIHEDRAL>
-0.468379

>  <SCORE.INTRA.DIHEDRAL.0>
2.56603

>  <SCORE.INTRA.POLAR>
0

>  <SCORE.INTRA.POLAR.0>
0

>  <SCORE.INTRA.REPUL>
0

>  <SCORE.INTRA.REPUL.0>
0

>  <SCORE.INTRA.SOLV>
-0.826373

>  <SCORE.INTRA.SOLV.lig_0>
-32.0799

>  <SCORE.INTRA.VDW>
-0.202121

>  <SCORE.INTRA.VDW.0>
-0.618248

>  <SCORE.INTRA.norm>
-0.0849498

>  <SCORE.RESTR>
0

>  <SCORE.RESTR.CAVITY>
0

>  <SCORE.RESTR.norm>
0

>  <SCORE.SYSTEM>
0

>  <SCORE.SYSTEM.CONST>
0

>  <SCORE.SYSTEM.DIHEDRAL>
0

>  <SCORE.SYSTEM.SOLV>
0

>  <SCORE.SYSTEM.norm>
0

>  <SCORE.heavy>
10

>  <SCORE.norm>
-0.830823

>  <RMSD>
5.675

$$$$
ligand
 OpenBabel11021811473D
libRbt.so/2013.1/901 2013/11/27
 10  9  0  0  0  0  0  0  0  0999 V2000
   26.9906   14.8995   20.2461 N   0  0  0  0  0  0  0  0  0  0  0  0
   27.7842   15.5677   19.1705 C   0  0  2  0  0  0  0  0  0  0  0  0
   27.6049   14.8930   17.8057 C   0  0  0  0  0  0  0  0  0  0  0  0
   26.9874   13.8254   17.6757 O   0  0  0  0  0  0  0  0  0  0  0  0
   29.2632   15.6531   19.5572 C   0  0  0  0  0  0  0  0  0  0  0  0
   29.5386   16.6754   20.6363 C   0  0  0  0  0  0  0  0  0  0  0  0
   31.0177   16.8394   20.8889 C   0  0  0  0  0  0  0  0  0  0  0  0
   31.2817   17.9113   21.9409 C   0  0  0  0  0  0  0  0  0  0  0  0
   32.7278   18.1306   22.2129 N   0  0  0  0  0  0  0  0  0  0  0  0
   28.0429   15.4150   16.7759 O   0  0  0  0  0  0  0  0  0  0  0  0
  2  1  1  1  0  0  0
  2  3  1  0  0  0  0
  2  5  1  0  0  0  0
  3  4  1  0  0  0  0
  3 10  1  0  0  0  0
  5  6  1  0  0  0  0
  6  7  1  0  0  0  0
  7  8  1  0  0  0  0
  8  9  1  0  0  0  0
M  END
>  <CHROM.1>
-7.66929199,-72.72533579,-173.90544219,177.82073188,-179.04063142,29.10998115
15.96135872,19.65228727,2.44138751,-0.52911718,-1.69359469

>  <Name>
ligand

>  <RI>
0

>  <Rbt.Current_Directory>
/home/itssahil/PROJECTS/Mol_Feturizer/New_Systems/rnas/3DIY

>  <Rbt.Executable>
rbdock ($Id: //depot/dev/client3/rdock/2013.1/src/exe/rbdock.cxx#4 $)

>  <Rbt.Library>
libRbt.so (2013.1, Build901 2013/11/27)

>  <Rbt.Parameter_File>
/export/apps/rDock/src/rDock_2013.1_src/data/scripts/dock_solv.prm

>  <Rbt.Receptor>
prm/pocket_docking_4.prm

>  <SCORE>
-8.26956

>  <SCORE.INTER>
-7.5551

>  <SCORE.INTER.CONST>
1

>  <SCORE.INTER.POLAR>
0

>  <SCORE.INTER.ROT>
5

>  <SCORE.INTER.SOLV>
14.29

>  <SCORE.INTER.VDW>
-16.7334

>  <SCORE.INTER.norm>
-0.75551

>  <SCORE.INTRA>
-0.714452

>  <SCORE.INTRA.DIHEDRAL>
-0.171011

>  <SCORE.INTRA.DIHEDRAL.0>
2.56603

>  <SCORE.INTRA.POLAR>
0

>  <SCORE.INTRA.POLAR.0>
0

>  <SCORE.INTRA.REPUL>
0

>  <SCORE.INTRA.REPUL.0>
0

>  <SCORE.INTRA.SOLV>
-0.864262

>  <SCORE.INTRA.SOLV.lig_0>
-32.0799

>  <SCORE.INTRA.VDW>
-0.196815

>  <SCORE.INTRA.VDW.0>
-0.618248

>  <SCORE.INTRA.norm>
-0.0714452

>  <SCORE.RESTR>
0

>  <SCORE.RESTR.CAVITY>
0

>  <SCORE.RESTR.norm>
0

>  <SCORE.SYSTEM>
0

>  <SCORE.SYSTEM.CONST>
0

>  <SCORE.SYSTEM.DIHEDRAL>
0

>  <SCORE.SYSTEM.SOLV>
0

>  <SCORE.SYSTEM.norm>
0

>  <SCORE.heavy>
10

>  <SCORE.norm>
-0.826956

>  <RMSD>
5.703

$$$$
ligand
 OpenBabel11021811473D
libRbt.so/2013.1/901 2013/11/27
 10  9  0  0  0  0  0  0  0  0999 V2000
   25.7474   14.9969   20.3790 N   0  0  0  0  0  0  0  0  0  0  0  0
   26.9782   15.4771   19.6807 C   0  0  2  0  0  0  0  0  0  0  0  0
   27.2619   14.6974   18.3917 C   0  0  0  0  0  0  0  0  0  0  0  0
   27.8452   15.2126   17.4261 O   0  0  0  0  0  0  0  0  0  0  0  0
   28.1852   15.4501   20.6224 C   0  0  0  0  0  0  0  0  0  0  0  0
   29.4084   16.1230   20.0423 C   0  0  0  0  0  0  0  0  0  0  0  0
   30.5635   16.1204   21.0140 C   0  0  0  0  0  0  0  0  0  0  0  0
   31.7933   16.7899   20.4100 C   0  0  0  0  0  0  0  0  0  0  0  0
   32.9197   16.9362   21.3707 N   0  0  0  0  0  0  0  0  0  0  0  0
   26.9479   13.5078   18.2858 O   0  0  0  0  0  0  0  0  0  0  0  0
  2  1  1  1  0  0  0
  2  3  1  0  0  0  0
  2  5  1  0  0  0  0
  3  4  1  0  0  0  0
  3 10  1  0  0  0  0
  5  6  1  0  0  0  0
  6  7  1  0  0  0  0
  7  8  1  0  0  0  0
  8  9  1  0  0  0  0
M  END
>  <CHROM.1>
150.53056223,-171.06257144,178.02793633,179.44375897,174.28467561,28.76087032
15.51058209,19.72880764,2.68030016,-0.27255944,-1.85483937

>  <Name>
ligand

>  <RI>
0

>  <Rbt.Current_Directory>
/home/itssahil/PROJECTS/Mol_Feturizer/New_Systems/rnas/3DIY

>  <Rbt.Executable>
rbdock ($Id: //depot/dev/client3/rdock/2013.1/src/exe/rbdock.cxx#4 $)

>  <Rbt.Library>
libRbt.so (2013.1, Build901 2013/11/27)

>  <Rbt.Parameter_File>
/export/apps/rDock/src/rDock_2013.1_src/data/scripts/dock_solv.prm

>  <Rbt.Receptor>
prm/pocket_docking_7.prm

>  <SCORE>
-8.28481

>  <SCORE.INTER>
-6.94228

>  <SCORE.INTER.CONST>
1

>  <SCORE.INTER.POLAR>
0

>  <SCORE.INTER.ROT>
5

>  <SCORE.INTER.SOLV>
18.3252

>  <SCORE.INTER.VDW>
-17.6699

>  <SCORE.INTER.norm>
-0.694228

>  <SCORE.INTRA>
-1.34253

>  <SCORE.INTRA.DIHEDRAL>
-0.67878

>  <SCORE.INTRA.DIHEDRAL.0>
2.56603

>  <SCORE.INTRA.POLAR>
0

>  <SCORE.INTRA.POLAR.0>
0

>  <SCORE.INTRA.REPUL>
0

>  <SCORE.INTRA.REPUL.0>
0

>  <SCORE.INTRA.SOLV>
-1.59246

>  <SCORE.INTRA.SOLV.lig_0>
-32.0799

>  <SCORE.INTRA.VDW>
-0.206911

>  <SCORE.INTRA.VDW.0>
-0.618248

>  <SCORE.INTRA.norm>
-0.134253

>  <SCORE.RESTR>
0

>  <SCORE.RESTR.CAVITY>
0

>  <SCORE.RESTR.norm>
0

>  <SCORE.SYSTEM>
0

>  <SCORE.SYSTEM.CONST>
0

>  <SCORE.SYSTEM.DIHEDRAL>
0

>  <SCORE.SYSTEM.SOLV>
0

>  <SCORE.SYSTEM.norm>
0

>  <SCORE.heavy>
10

>  <SCORE.norm>
-0.828481

>  <RMSD>
5.720

$$$$
ligand
 OpenBabel11021811473D
libRbt.so/2013.1/901 2013/11/27
 10  9  0  0  0  0  0  0  0  0999 V2000
   28.2057   15.7384   17.3747 N   0  0  0  0  0  0  0  0  0  0  0  0
   28.2085   14.4865   18.1906 C   0  0  2  0  0  0  0  0  0  0  0  0
   27.4582   13.3390   17.5049 C   0  0  0  0  0  0  0  0  0  0  0  0
   26.3145   13.4817   17.0470 O   0  0  0  0  0  0  0  0  0  0  0  0
   27.6571   14.7493   19.5946 C   0  0  0  0  0  0  0  0  0  0  0  0
   28.5148   15.6951   20.4040 C   0  0  0  0  0  0  0  0  0  0  0  0
   29.8448   15.0781   20.7628 C   0  0  0  0  0  0  0  0  0  0  0  0
   30.7889   16.1140   21.3637 C   0  0  0  0  0  0  0  0  0  0  0  0
   30.3099   16.6720   22.6569 N   0  0  0  0  0  0  0  0  0  0  0  0
   27.9881   12.2341   17.3523 O   0  0  0  0  0  0  0  0  0  0  0  0
  2  1  1  6  0  0  0
  2  3  1  0  0  0  0
  2  5  1  0  0  0  0
  3  4  1  0  0  0  0
  3 10  1  0  0  0  0
  5  6  1  0  0  0  0
  6  7  1  0  0  0  0
  7  8  1  0  0  0  0
  8  9  1  0  0  0  0
M  END
>  <CHROM.1>
-50.12176418,-64.40124097,-68.27601187,170.16860921,64.05213876,28.50791755
14.72749819,19.20027423,2.45379355,0.89477498,-2.89271717

>  <Name>
ligand

>  <RI>
0

>  <Rbt.Current_Directory>
/home/itssahil/PROJECTS/Mol_Feturizer/New_Systems/rnas/3DIY

>  <Rbt.Executable>
rbdock ($Id: //depot/dev/client3/rdock/2013.1/src/exe/rbdock.cxx#4 $)

>  <Rbt.Library>
libRbt.so (2013.1, Build901 2013/11/27)

>  <Rbt.Parameter_File>
/export/apps/rDock/src/rDock_2013.1_src/data/scripts/dock_solv.prm

>  <Rbt.Receptor>
prm/blind_docking_60.prm

>  <SCORE>
-5.94989

>  <SCORE.INTER>
-6.35774

>  <SCORE.INTER.CONST>
1

>  <SCORE.INTER.POLAR>
0

>  <SCORE.INTER.ROT>
5

>  <SCORE.INTER.SOLV>
16.241

>  <SCORE.INTER.VDW>
-16.5855

>  <SCORE.INTER.norm>
-0.635774

>  <SCORE.INTRA>
0.243861

>  <SCORE.INTRA.DIHEDRAL>
-0.16655

>  <SCORE.INTRA.DIHEDRAL.0>
2.56603

>  <SCORE.INTRA.POLAR>
0

>  <SCORE.INTRA.POLAR.0>
0

>  <SCORE.INTRA.REPUL>
0

>  <SCORE.INTRA.REPUL.0>
0

>  <SCORE.INTRA.SOLV>
0.59105

>  <SCORE.INTRA.SOLV.lig_0>
-32.0799

>  <SCORE.INTRA.VDW>
0.0316109

>  <SCORE.INTRA.VDW.0>
-0.618248

>  <SCORE.INTRA.norm>
0.0243861

>  <SCORE.RESTR>
0.163993

>  <SCORE.RESTR.CAVITY>
0.163993

>  <SCORE.RESTR.norm>
0.0163993

>  <SCORE.SYSTEM>
0

>  <SCORE.SYSTEM.CONST>
0

>  <SCORE.SYSTEM.DIHEDRAL>
0

>  <SCORE.SYSTEM.SOLV>
0

>  <SCORE.SYSTEM.norm>
0

>  <SCORE.heavy>
10

>  <SCORE.norm>
-0.594989

>  <RMSD>
5.738

$$$$
ligand
 OpenBabel11021811473D
libRbt.so/2013.1/901 2013/11/27
 10  9  0  0  0  0  0  0  0  0999 V2000
   28.6556   14.7316   17.2485 N   0  0  0  0  0  0  0  0  0  0  0  0
   27.9314   13.7351   18.0945 C   0  0  2  0  0  0  0  0  0  0  0  0
   27.2093   12.6721   17.2586 C   0  0  0  0  0  0  0  0  0  0  0  0
   26.2379   12.9491   16.5392 O   0  0  0  0  0  0  0  0  0  0  0  0
   26.9667   14.4345   19.0560 C   0  0  0  0  0  0  0  0  0  0  0  0
   27.6651   15.3305   20.0534 C   0  0  0  0  0  0  0  0  0  0  0  0
   28.4541   14.5352   21.0651 C   0  0  0  0  0  0  0  0  0  0  0  0
   29.2440   15.4525   21.9924 C   0  0  0  0  0  0  0  0  0  0  0  0
   30.2927   16.2419   21.2922 N   0  0  0  0  0  0  0  0  0  0  0  0
   27.5984   11.5003   17.2464 O   0  0  0  0  0  0  0  0  0  0  0  0
  2  1  1  6  0  0  0
  2  3  1  0  0  0  0
  2  5  1  0  0  0  0
  3  4  1  0  0  0  0
  3 10  1  0  0  0  0
  5  6  1  0  0  0  0
  6  7  1  0  0  0  0
  7  8  1  0  0  0  0
  8  9  1  0  0  0  0
M  END
>  <CHROM.1>
-67.45544607,-63.29740001,-69.74456135,175.32387214,-64.33413090,28.00648778
14.12809077,18.95706150,-2.24644533,0.91293323,1.53678815

>  <Name>
ligand

>  <RI>
0

>  <Rbt.Current_Directory>
/home/itssahil/PROJECTS/Mol_Feturizer/New_Systems/rnas/3DIY

>  <Rbt.Executable>
rbdock ($Id: //depot/dev/client3/rdock/2013.1/src/exe/rbdock.cxx#4 $)

>  <Rbt.Library>
libRbt.so (2013.1, Build901 2013/11/27)

>  <Rbt.Parameter_File>
/export/apps/rDock/src/rDock_2013.1_src/data/scripts/dock_solv.prm

>  <Rbt.Receptor>
prm/pocket_docking_7.prm

>  <SCORE>
-9.95214

>  <SCORE.INTER>
-10.107

>  <SCORE.INTER.CONST>
1

>  <SCORE.INTER.POLAR>
0

>  <SCORE.INTER.ROT>
5

>  <SCORE.INTER.SOLV>
13.6539

>  <SCORE.INTER.VDW>
-18.2227

>  <SCORE.INTER.norm>
-1.0107

>  <SCORE.INTRA>
0.154864

>  <SCORE.INTRA.DIHEDRAL>
-0.456923

>  <SCORE.INTRA.DIHEDRAL.0>
2.56603

>  <SCORE.INTRA.POLAR>
0

>  <SCORE.INTRA.POLAR.0>
0

>  <SCORE.INTRA.REPUL>
0

>  <SCORE.INTRA.REPUL.0>
0

>  <SCORE.INTRA.SOLV>
0.652539

>  <SCORE.INTRA.SOLV.lig_0>
-32.0799

>  <SCORE.INTRA.VDW>
0.0570561

>  <SCORE.INTRA.VDW.0>
-0.618248

>  <SCORE.INTRA.norm>
0.0154864

>  <SCORE.RESTR>
0

>  <SCORE.RESTR.CAVITY>
0

>  <SCORE.RESTR.norm>
0

>  <SCORE.SYSTEM>
0

>  <SCORE.SYSTEM.CONST>
0

>  <SCORE.SYSTEM.DIHEDRAL>
0

>  <SCORE.SYSTEM.SOLV>
0

>  <SCORE.SYSTEM.norm>
0

>  <SCORE.heavy>
10

>  <SCORE.norm>
-0.995214

>  <RMSD>
5.995

$$$$
ligand
 OpenBabel11021811473D
libRbt.so/2013.1/901 2013/11/27
 10  9  0  0  0  0  0  0  0  0999 V2000
   27.8698   15.0470   16.9298 N   0  0  0  0  0  0  0  0  0  0  0  0
   27.6645   13.8512   17.8021 C   0  0  2  0  0  0  0  0  0  0  0  0
   26.7940   12.7812   17.1334 C   0  0  0  0  0  0  0  0  0  0  0  0
   26.4190   11.7657   17.7385 O   0  0  0  0  0  0  0  0  0  0  0  0
   27.0936   14.2602   19.1627 C   0  0  0  0  0  0  0  0  0  0  0  0
   27.7891   15.4602   19.7640 C   0  0  0  0  0  0  0  0  0  0  0  0
   27.6733   15.4795   21.2689 C   0  0  0  0  0  0  0  0  0  0  0  0
   28.7246   14.5828   21.9141 C   0  0  0  0  0  0  0  0  0  0  0  0
   30.1190   15.0528   21.6950 N   0  0  0  0  0  0  0  0  0  0  0  0
   26.4036   12.9151   15.9695 O   0  0  0  0  0  0  0  0  0  0  0  0
  2  1  1  6  0  0  0
  2  3  1  0  0  0  0
  2  5  1  0  0  0  0
  3  4  1  0  0  0  0
  3 10  1  0  0  0  0
  5  6  1  0  0  0  0
  6  7  1  0  0  0  0
  7  8  1  0  0  0  0
  8  9  1  0  0  0  0
M  END
>  <CHROM.1>
-173.90784078,-45.06711741,-154.71236621,82.32820442,65.21557233,27.63212299
14.09060212,18.91331938,-2.59523255,1.10484937,2.09952845

>  <Name>
ligand

>  <RI>
0

>  <Rbt.Current_Directory>
/home/itssahil/PROJECTS/Mol_Feturizer/New_Systems/rnas/3DIY

>  <Rbt.Executable>
rbdock ($Id: //depot/dev/client3/rdock/2013.1/src/exe/rbdock.cxx#4 $)

>  <Rbt.Library>
libRbt.so (2013.1, Build901 2013/11/27)

>  <Rbt.Parameter_File>
/export/apps/rDock/src/rDock_2013.1_src/data/scripts/dock_solv.prm

>  <Rbt.Receptor>
prm/pocket_docking_7.prm

>  <SCORE>
-3.34598

>  <SCORE.INTER>
-6.30222

>  <SCORE.INTER.CONST>
1

>  <SCORE.INTER.POLAR>
0

>  <SCORE.INTER.ROT>
5

>  <SCORE.INTER.SOLV>
18.4355

>  <SCORE.INTER.VDW>
-17.28

>  <SCORE.INTER.norm>
-0.630222

>  <SCORE.INTRA>
2.95625

>  <SCORE.INTRA.DIHEDRAL>
4.05505

>  <SCORE.INTRA.DIHEDRAL.0>
2.56603

>  <SCORE.INTRA.POLAR>
0

>  <SCORE.INTRA.POLAR.0>
0

>  <SCORE.INTRA.REPUL>
0

>  <SCORE.INTRA.REPUL.0>
0

>  <SCORE.INTRA.SOLV>
0.687548

>  <SCORE.INTRA.SOLV.lig_0>
-32.0799

>  <SCORE.INTRA.VDW>
0.584948

>  <SCORE.INTRA.VDW.0>
-0.618248

>  <SCORE.INTRA.norm>
0.295625

>  <SCORE.RESTR>
0

>  <SCORE.RESTR.CAVITY>
0

>  <SCORE.RESTR.norm>
0

>  <SCORE.SYSTEM>
0

>  <SCORE.SYSTEM.CONST>
0

>  <SCORE.SYSTEM.DIHEDRAL>
0

>  <SCORE.SYSTEM.SOLV>
0

>  <SCORE.SYSTEM.norm>
0

>  <SCORE.heavy>
10

>  <SCORE.norm>
-0.334598

>  <RMSD>
6.186

$$$$
ligand
 OpenBabel11021811473D
libRbt.so/2013.1/901 2013/11/27
 10  9  0  0  0  0  0  0  0  0999 V2000
   25.2206   24.8759   18.5668 N   0  0  0  0  0  0  0  0  0  0  0  0
   24.7119   23.4752   18.4558 C   0  0  2  0  0  0  0  0  0  0  0  0
   25.1064   22.6119   19.6596 C   0  0  0  0  0  0  0  0  0  0  0  0
   24.5212   21.5522   19.9290 O   0  0  0  0  0  0  0  0  0  0  0  0
   25.1636   22.8335   17.1411 C   0  0  0  0  0  0  0  0  0  0  0  0
   24.8852   23.6958   15.9310 C   0  0  0  0  0  0  0  0  0  0  0  0
   25.2602   22.9972   14.6465 C   0  0  0  0  0  0  0  0  0  0  0  0
   26.7697   22.8074   14.5427 C   0  0  0  0  0  0  0  0  0  0  0  0
   27.5209   24.0865   14.4298 N   0  0  0  0  0  0  0  0  0  0  0  0
   26.0531   22.9286   20.3864 O   0  0  0  0  0  0  0  0  0  0  0  0
  2  1  1  1  0  0  0
  2  3  1  0  0  0  0
  2  5  1  0  0  0  0
  3  4  1  0  0  0  0
  3 10  1  0  0  0  0
  5  6  1  0  0  0  0
  6  7  1  0  0  0  0
  7  8  1  0  0  0  0
  8  9  1  0  0  0  0
M  END
>  <CHROM.1>
161.47005210,-49.93508484,-176.30634866,-67.37569759,-65.71532220,25.52621095
23.16574952,17.40659874,-2.02431872,-1.01183575,-1.81953746

>  <Name>
ligand

>  <RI>
0

>  <Rbt.Current_Directory>
/home/itssahil/PROJECTS/Mol_Feturizer/New_Systems/rnas/3DIY

>  <Rbt.Executable>
rbdock ($Id: //depot/dev/client3/rdock/2013.1/src/exe/rbdock.cxx#4 $)

>  <Rbt.Library>
libRbt.so (2013.1, Build901 2013/11/27)

>  <Rbt.Parameter_File>
/export/apps/rDock/src/rDock_2013.1_src/data/scripts/dock_solv.prm

>  <Rbt.Receptor>
prm/blind_docking_100.prm

>  <SCORE>
-2.30763

>  <SCORE.INTER>
-3.28004

>  <SCORE.INTER.CONST>
1

>  <SCORE.INTER.POLAR>
0

>  <SCORE.INTER.ROT>
5

>  <SCORE.INTER.SOLV>
4.68958

>  <SCORE.INTER.VDW>
-10.6832

>  <SCORE.INTER.norm>
-0.328004

>  <SCORE.INTRA>
0.96708

>  <SCORE.INTRA.DIHEDRAL>
-0.327823

>  <SCORE.INTRA.DIHEDRAL.0>
2.56603

>  <SCORE.INTRA.POLAR>
0

>  <SCORE.INTRA.POLAR.0>
0

>  <SCORE.INTRA.REPUL>
0

>  <SCORE.INTRA.REPUL.0>
0

>  <SCORE.INTRA.SOLV>
0.815993

>  <SCORE.INTRA.SOLV.lig_0>
-32.0799

>  <SCORE.INTRA.VDW>
0.722995

>  <SCORE.INTRA.VDW.0>
-0.618248

>  <SCORE.INTRA.norm>
0.096708

>  <SCORE.RESTR>
0.00532377

>  <SCORE.RESTR.CAVITY>
0.00532377

>  <SCORE.RESTR.norm>
0.000532377

>  <SCORE.SYSTEM>
0

>  <SCORE.SYSTEM.CONST>
0

>  <SCORE.SYSTEM.DIHEDRAL>
0

>  <SCORE.SYSTEM.SOLV>
0

>  <SCORE.SYSTEM.norm>
0

>  <SCORE.heavy>
10

>  <SCORE.norm>
-0.230763

>  <RMSD>
10.067

$$$$
ligand
 OpenBabel11021811473D
libRbt.so/2013.1/901 2013/11/27
 10  9  0  0  0  0  0  0  0  0999 V2000
   24.4822   25.1464   19.2362 N   0  0  0  0  0  0  0  0  0  0  0  0
   24.5960   23.8367   18.5257 C   0  0  2  0  0  0  0  0  0  0  0  0
   25.0253   22.6993   19.4596 C   0  0  0  0  0  0  0  0  0  0  0  0
   24.4894   21.5815   19.4243 O   0  0  0  0  0  0  0  0  0  0  0  0
   25.5343   23.9495   17.3211 C   0  0  0  0  0  0  0  0  0  0  0  0
   25.5217   22.7217   16.4392 C   0  0  0  0  0  0  0  0  0  0  0  0
   26.5994   22.7783   15.3838 C   0  0  0  0  0  0  0  0  0  0  0  0
   26.3629   23.9326   14.4160 C   0  0  0  0  0  0  0  0  0  0  0  0
   25.1202   23.7857   13.6113 N   0  0  0  0  0  0  0  0  0  0  0  0
   25.9529   22.8500   20.2606 O   0  0  0  0  0  0  0  0  0  0  0  0
  2  1  1  1  0  0  0
  2  3  1  0  0  0  0
  2  5  1  0  0  0  0
  3  4  1  0  0  0  0
  3 10  1  0  0  0  0
  5  6  1  0  0  0  0
  6  7  1  0  0  0  0
  7  8  1  0  0  0  0
  8  9  1  0  0  0  0
M  END
>  <CHROM.1>
136.46656792,-170.97813327,-171.53025916,-64.14254660,-64.68218941,25.37488839
23.30208172,17.43882991,2.12658992,-1.25732052,2.21182244

>  <Name>
ligand

>  <RI>
0

>  <Rbt.Current_Directory>
/home/itssahil/PROJECTS/Mol_Feturizer/New_Systems/rnas/3DIY

>  <Rbt.Executable>
rbdock ($Id: //depot/dev/client3/rdock/2013.1/src/exe/rbdock.cxx#4 $)

>  <Rbt.Library>
libRbt.so (2013.1, Build901 2013/11/27)

>  <Rbt.Parameter_File>
/export/apps/rDock/src/rDock_2013.1_src/data/scripts/dock_solv.prm

>  <Rbt.Receptor>
prm/blind_docking_100.prm

>  <SCORE>
-1.38798

>  <SCORE.INTER>
-1.76566

>  <SCORE.INTER.CONST>
1

>  <SCORE.INTER.POLAR>
0

>  <SCORE.INTER.ROT>
5

>  <SCORE.INTER.SOLV>
10.2025

>  <SCORE.INTER.VDW>
-11.5113

>  <SCORE.INTER.norm>
-0.176566

>  <SCORE.INTRA>
0.377678

>  <SCORE.INTRA.DIHEDRAL>
-0.340736

>  <SCORE.INTRA.DIHEDRAL.0>
2.56603

>  <SCORE.INTRA.POLAR>
0

>  <SCORE.INTRA.POLAR.0>
0

>  <SCORE.INTRA.REPUL>
0

>  <SCORE.INTRA.REPUL.0>
0

>  <SCORE.INTRA.SOLV>
-0.166121

>  <SCORE.INTRA.SOLV.lig_0>
-32.0799

>  <SCORE.INTRA.VDW>
0.631107

>  <SCORE.INTRA.VDW.0>
-0.618248

>  <SCORE.INTRA.norm>
0.0377678

>  <SCORE.RESTR>
0

>  <SCORE.RESTR.CAVITY>
0

>  <SCORE.RESTR.norm>
0

>  <SCORE.SYSTEM>
0

>  <SCORE.SYSTEM.CONST>
0

>  <SCORE.SYSTEM.DIHEDRAL>
0

>  <SCORE.SYSTEM.SOLV>
0

>  <SCORE.SYSTEM.norm>
0

>  <SCORE.heavy>
10

>  <SCORE.norm>
-0.138798

>  <RMSD>
10.188

$$$$
ligand
 OpenBabel11021811473D
libRbt.so/2013.1/901 2013/11/27
 10  9  0  0  0  0  0  0  0  0999 V2000
   23.7694   24.6257   20.1251 N   0  0  0  0  0  0  0  0  0  0  0  0
   24.1313   23.6658   19.0386 C   0  0  2  0  0  0  0  0  0  0  0  0
   25.0292   22.5279   19.5377 C   0  0  0  0  0  0  0  0  0  0  0  0
   26.0875   22.7441   20.1470 O   0  0  0  0  0  0  0  0  0  0  0  0
   24.7693   24.3974   17.8546 C   0  0  0  0  0  0  0  0  0  0  0  0
   24.9787   23.5099   16.6488 C   0  0  0  0  0  0  0  0  0  0  0  0
   25.5798   24.2695   15.4912 C   0  0  0  0  0  0  0  0  0  0  0  0
   25.7725   23.3647   14.2789 C   0  0  0  0  0  0  0  0  0  0  0  0
   26.4076   24.0517   13.1222 N   0  0  0  0  0  0  0  0  0  0  0  0
   24.7060   21.3467   19.3794 O   0  0  0  0  0  0  0  0  0  0  0  0
  2  1  1  1  0  0  0
  2  3  1  0  0  0  0
  2  5  1  0  0  0  0
  3  4  1  0  0  0  0
  3 10  1  0  0  0  0
  5  6  1  0  0  0  0
  6  7  1  0  0  0  0
  7  8  1  0  0  0  0
  8  9  1  0  0  0  0
M  END
>  <CHROM.1>
-53.58009612,-171.90155257,178.71424634,-179.45622599,-177.95863252,25.13920625
23.42245102,17.58536508,2.01025790,-1.08168310,2.12116944

>  <Name>
ligand

>  <RI>
0

>  <Rbt.Current_Directory>
/home/itssahil/PROJECTS/Mol_Feturizer/New_Systems/rnas/3DIY

>  <Rbt.Executable>
rbdock ($Id: //depot/dev/client3/rdock/2013.1/src/exe/rbdock.cxx#4 $)

>  <Rbt.Library>
libRbt.so (2013.1, Build901 2013/11/27)

>  <Rbt.Parameter_File>
/export/apps/rDock/src/rDock_2013.1_src/data/scripts/dock_solv.prm

>  <Rbt.Receptor>
prm/blind_docking_60.prm

>  <SCORE>
-3.44467

>  <SCORE.INTER>
-1.99602

>  <SCORE.INTER.CONST>
1

>  <SCORE.INTER.POLAR>
0

>  <SCORE.INTER.ROT>
5

>  <SCORE.INTER.SOLV>
11.3298

>  <SCORE.INTER.VDW>
-12.0406

>  <SCORE.INTER.norm>
-0.199602

>  <SCORE.INTRA>
-1.44865

>  <SCORE.INTRA.DIHEDRAL>
-0.755342

>  <SCORE.INTRA.DIHEDRAL.0>
2.56603

>  <SCORE.INTRA.POLAR>
0

>  <SCORE.INTRA.POLAR.0>
0

>  <SCORE.INTRA.REPUL>
0

>  <SCORE.INTRA.REPUL.0>
0

>  <SCORE.INTRA.SOLV>
-1.59815

>  <SCORE.INTRA.SOLV.lig_0>
-32.0799

>  <SCORE.INTRA.VDW>
-0.271903

>  <SCORE.INTRA.VDW.0>
-0.618248

>  <SCORE.INTRA.norm>
-0.144865

>  <SCORE.RESTR>
0

>  <SCORE.RESTR.CAVITY>
0

>  <SCORE.RESTR.norm>
0

>  <SCORE.SYSTEM>
0

>  <SCORE.SYSTEM.CONST>
0

>  <SCORE.SYSTEM.DIHEDRAL>
0

>  <SCORE.SYSTEM.SOLV>
0

>  <SCORE.SYSTEM.norm>
0

>  <SCORE.heavy>
10

>  <SCORE.norm>
-0.344467

>  <RMSD>
10.427

$$$$
ligand
 OpenBabel11021811473D
libRbt.so/2013.1/901 2013/11/27
 10  9  0  0  0  0  0  0  0  0999 V2000
   24.8551   23.9483   17.8792 N   0  0  0  0  0  0  0  0  0  0  0  0
   25.6095   23.4385   19.0641 C   0  0  2  0  0  0  0  0  0  0  0  0
   25.2250   22.0000   19.4284 C   0  0  0  0  0  0  0  0  0  0  0  0
   24.6592   21.7205   20.4960 O   0  0  0  0  0  0  0  0  0  0  0  0
   25.4430   24.3775   20.2620 C   0  0  0  0  0  0  0  0  0  0  0  0
   26.0531   25.7425   20.0381 C   0  0  0  0  0  0  0  0  0  0  0  0
   26.0110   26.5873   21.2882 C   0  0  0  0  0  0  0  0  0  0  0  0
   26.6359   27.9575   21.0488 C   0  0  0  0  0  0  0  0  0  0  0  0
   26.6348   28.8279   22.2553 N   0  0  0  0  0  0  0  0  0  0  0  0
   25.4358   21.0679   18.6463 O   0  0  0  0  0  0  0  0  0  0  0  0
  2  1  1  6  0  0  0
  2  3  1  0  0  0  0
  2  5  1  0  0  0  0
  3  4  1  0  0  0  0
  3 10  1  0  0  0  0
  5  6  1  0  0  0  0
  6  7  1  0  0  0  0
  7  8  1  0  0  0  0
  8  9  1  0  0  0  0
M  END
>  <CHROM.1>
-114.63164107,-65.06940290,-173.51612881,179.71326957,-179.34672070,25.64569361
24.52230655,20.04323859,-2.95136295,1.36203401,1.75044295

>  <Name>
ligand

>  <RI>
0

>  <Rbt.Current_Directory>
/home/itssahil/PROJECTS/Mol_Feturizer/New_Systems/rnas/3DIY

>  <Rbt.Executable>
rbdock ($Id: //depot/dev/client3/rdock/2013.1/src/exe/rbdock.cxx#4 $)

>  <Rbt.Library>
libRbt.so (2013.1, Build901 2013/11/27)

>  <Rbt.Parameter_File>
/export/apps/rDock/src/rDock_2013.1_src/data/scripts/dock_solv.prm

>  <Rbt.Receptor>
prm/blind_docking_100.prm

>  <SCORE>
-4.617

>  <SCORE.INTER>
-4.19043

>  <SCORE.INTER.CONST>
1

>  <SCORE.INTER.POLAR>
0

>  <SCORE.INTER.ROT>
5

>  <SCORE.INTER.SOLV>
7.36521

>  <SCORE.INTER.VDW>
-12.182

>  <SCORE.INTER.norm>
-0.419043

>  <SCORE.INTRA>
-0.426576

>  <SCORE.INTRA.DIHEDRAL>
-0.748693

>  <SCORE.INTRA.DIHEDRAL.0>
2.56603

>  <SCORE.INTRA.POLAR>
0

>  <SCORE.INTRA.POLAR.0>
0

>  <SCORE.INTRA.REPUL>
0

>  <SCORE.INTRA.REPUL.0>
0

>  <SCORE.INTRA.SOLV>
-0.772529

>  <SCORE.INTRA.SOLV.lig_0>
-32.0799

>  <SCORE.INTRA.VDW>
0.334035

>  <SCORE.INTRA.VDW.0>
-0.618248

>  <SCORE.INTRA.norm>
-0.0426576

>  <SCORE.RESTR>
0

>  <SCORE.RESTR.CAVITY>
0

>  <SCORE.RESTR.norm>
0

>  <SCORE.SYSTEM>
0

>  <SCORE.SYSTEM.CONST>
0

>  <SCORE.SYSTEM.DIHEDRAL>
0

>  <SCORE.SYSTEM.SOLV>
0

>  <SCORE.SYSTEM.norm>
0

>  <SCORE.heavy>
10

>  <SCORE.norm>
-0.4617

>  <RMSD>
10.909

$$$$
ligand
 OpenBabel11021811473D
libRbt.so/2013.1/901 2013/11/27
 10  9  0  0  0  0  0  0  0  0999 V2000
   26.3870   23.9445   18.4212 N   0  0  0  0  0  0  0  0  0  0  0  0
   25.6629   23.7019   19.7056 C   0  0  2  0  0  0  0  0  0  0  0  0
   24.7873   22.4445   19.6558 C   0  0  0  0  0  0  0  0  0  0  0  0
   24.0016   22.2268   18.7213 O   0  0  0  0  0  0  0  0  0  0  0  0
   24.8456   24.9313   20.1117 C   0  0  0  0  0  0  0  0  0  0  0  0
   25.6940   26.0558   20.6605 C   0  0  0  0  0  0  0  0  0  0  0  0
   26.5827   26.6571   19.5990 C   0  0  0  0  0  0  0  0  0  0  0  0
   27.2936   27.9031   20.1162 C   0  0  0  0  0  0  0  0  0  0  0  0
   28.1273   27.6514   21.3224 N   0  0  0  0  0  0  0  0  0  0  0  0
   24.8636   21.5812   20.5353 O   0  0  0  0  0  0  0  0  0  0  0  0
  2  1  1  6  0  0  0
  2  3  1  0  0  0  0
  2  5  1  0  0  0  0
  3  4  1  0  0  0  0
  3 10  1  0  0  0  0
  5  6  1  0  0  0  0
  6  7  1  0  0  0  0
  7  8  1  0  0  0  0
  8  9  1  0  0  0  0
M  END
>  <CHROM.1>
-48.92914994,-75.08904762,67.45120002,172.49308544,58.13783100,25.80121192
24.67056301,19.88229339,-3.02623360,1.10511885,1.62888982

>  <Name>
ligand

>  <RI>
0

>  <Rbt.Current_Directory>
/home/itssahil/PROJECTS/Mol_Feturizer/New_Systems/rnas/3DIY

>  <Rbt.Executable>
rbdock ($Id: //depot/dev/client3/rdock/2013.1/src/exe/rbdock.cxx#4 $)

>  <Rbt.Library>
libRbt.so (2013.1, Build901 2013/11/27)

>  <Rbt.Parameter_File>
/export/apps/rDock/src/rDock_2013.1_src/data/scripts/dock_solv.prm

>  <Rbt.Receptor>
prm/blind_docking_80.prm

>  <SCORE>
-2.07087

>  <SCORE.INTER>
-3.22186

>  <SCORE.INTER.CONST>
1

>  <SCORE.INTER.POLAR>
0

>  <SCORE.INTER.ROT>
5

>  <SCORE.INTER.SOLV>
10.2016

>  <SCORE.INTER.VDW>
-12.4818

>  <SCORE.INTER.norm>
-0.322186

>  <SCORE.INTRA>
1.15099

>  <SCORE.INTRA.DIHEDRAL>
0.365265

>  <SCORE.INTRA.DIHEDRAL.0>
2.56603

>  <SCORE.INTRA.POLAR>
0

>  <SCORE.INTRA.POLAR.0>
0

>  <SCORE.INTRA.REPUL>
0

>  <SCORE.INTRA.REPUL.0>
0

>  <SCORE.INTRA.SOLV>
1.44377

>  <SCORE.INTRA.SOLV.lig_0>
-32.0799

>  <SCORE.INTRA.VDW>
0.246469

>  <SCORE.INTRA.VDW.0>
-0.618248

>  <SCORE.INTRA.norm>
0.115099

>  <SCORE.RESTR>
0

>  <SCORE.RESTR.CAVITY>
0

>  <SCORE.RESTR.norm>
0

>  <SCORE.SYSTEM>
0

>  <SCORE.SYSTEM.CONST>
0

>  <SCORE.SYSTEM.DIHEDRAL>
0

>  <SCORE.SYSTEM.SOLV>
0

>  <SCORE.SYSTEM.norm>
0

>  <SCORE.heavy>
10

>  <SCORE.norm>
-0.207087

>  <RMSD>
10.956

$$$$
ligand
 OpenBabel11021811473D
libRbt.so/2013.1/901 2013/11/27
 10  9  0  0  0  0  0  0  0  0999 V2000
   23.5138   24.2680   19.3445 N   0  0  0  0  0  0  0  0  0  0  0  0
   24.9294   23.7894   19.3447 C   0  0  2  0  0  0  0  0  0  0  0  0
   25.0312   22.2623   19.4317 C   0  0  0  0  0  0  0  0  0  0  0  0
   25.5455   21.5848   18.5292 O   0  0  0  0  0  0  0  0  0  0  0  0
   25.7329   24.4634   20.4602 C   0  0  0  0  0  0  0  0  0  0  0  0
   25.8064   25.9665   20.3165 C   0  0  0  0  0  0  0  0  0  0  0  0
   26.5011   26.6088   21.4926 C   0  0  0  0  0  0  0  0  0  0  0  0
   26.6230   28.1172   21.3043 C   0  0  0  0  0  0  0  0  0  0  0  0
   27.5334   28.5035   20.1930 N   0  0  0  0  0  0  0  0  0  0  0  0
   24.6330   21.6542   20.4299 O   0  0  0  0  0  0  0  0  0  0  0  0
  2  1  1  1  0  0  0
  2  3  1  0  0  0  0
  2  5  1  0  0  0  0
  3  4  1  0  0  0  0
  3 10  1  0  0  0  0
  5  6  1  0  0  0  0
  6  7  1  0  0  0  0
  7  8  1  0  0  0  0
  8  9  1  0  0  0  0
M  END
>  <CHROM.1>
117.78140117,-61.27969490,175.06030857,177.46291370,-67.03345604,25.58371861
24.67640910,20.08245449,1.89881371,-0.03945892,-2.87620689

>  <Name>
ligand

>  <RI>
0

>  <Rbt.Current_Directory>
/home/itssahil/PROJECTS/Mol_Feturizer/New_Systems/rnas/3DIY

>  <Rbt.Executable>
rbdock ($Id: //depot/dev/client3/rdock/2013.1/src/exe/rbdock.cxx#4 $)

>  <Rbt.Library>
libRbt.so (2013.1, Build901 2013/11/27)

>  <Rbt.Parameter_File>
/export/apps/rDock/src/rDock_2013.1_src/data/scripts/dock_solv.prm

>  <Rbt.Receptor>
prm/blind_docking_80.prm

>  <SCORE>
-3.09773

>  <SCORE.INTER>
-2.74817

>  <SCORE.INTER.CONST>
1

>  <SCORE.INTER.POLAR>
0

>  <SCORE.INTER.ROT>
5

>  <SCORE.INTER.SOLV>
11.4692

>  <SCORE.INTER.VDW>
-12.5885

>  <SCORE.INTER.norm>
-0.274817

>  <SCORE.INTRA>
-0.349562

>  <SCORE.INTRA.DIHEDRAL>
-0.686105

>  <SCORE.INTRA.DIHEDRAL.0>
2.56603

>  <SCORE.INTRA.POLAR>
0

>  <SCORE.INTRA.POLAR.0>
0

>  <SCORE.INTRA.REPUL>
0

>  <SCORE.INTRA.REPUL.0>
0

>  <SCORE.INTRA.SOLV>
0.181352

>  <SCORE.INTRA.SOLV.lig_0>
-32.0799

>  <SCORE.INTRA.VDW>
-0.0971857

>  <SCORE.INTRA.VDW.0>
-0.618248

>  <SCORE.INTRA.norm>
-0.0349562

>  <SCORE.RESTR>
0

>  <SCORE.RESTR.CAVITY>
0

>  <SCORE.RESTR.norm>
0

>  <SCORE.SYSTEM>
0

>  <SCORE.SYSTEM.CONST>
0

>  <SCORE.SYSTEM.DIHEDRAL>
0

>  <SCORE.SYSTEM.SOLV>
0

>  <SCORE.SYSTEM.norm>
0

>  <SCORE.heavy>
10

>  <SCORE.norm>
-0.309773

>  <RMSD>
11.071

$$$$
ligand
 OpenBabel11021811473D
libRbt.so/2013.1/901 2013/11/27
 10  9  0  0  0  0  0  0  0  0999 V2000
   25.7243   24.4581   18.0069 N   0  0  0  0  0  0  0  0  0  0  0  0
   25.6844   23.8542   19.3732 C   0  0  2  0  0  0  0  0  0  0  0  0
   24.7333   22.6548   19.4557 C   0  0  0  0  0  0  0  0  0  0  0  0
   23.8496   22.4566   18.6085 O   0  0  0  0  0  0  0  0  0  0  0  0
   25.3383   24.9103   20.4264 C   0  0  0  0  0  0  0  0  0  0  0  0
   26.4062   25.9691   20.5815 C   0  0  0  0  0  0  0  0  0  0  0  0
   26.1050   26.9057   21.7263 C   0  0  0  0  0  0  0  0  0  0  0  0
   27.2207   27.9288   21.9095 C   0  0  0  0  0  0  0  0  0  0  0  0
   27.3603   28.8648   20.7615 N   0  0  0  0  0  0  0  0  0  0  0  0
   24.8411   21.8187   20.3580 O   0  0  0  0  0  0  0  0  0  0  0  0
  2  1  1  6  0  0  0
  2  3  1  0  0  0  0
  2  5  1  0  0  0  0
  3  4  1  0  0  0  0
  3 10  1  0  0  0  0
  5  6  1  0  0  0  0
  6  7  1  0  0  0  0
  7  8  1  0  0  0  0
  8  9  1  0  0  0  0
M  END
>  <CHROM.1>
-18.35735825,-66.06816528,-173.83216139,177.46461106,65.29837625,25.70196312
24.94339179,20.11796587,-2.86450809,1.16432089,1.64013747

>  <Name>
ligand

>  <RI>
0

>  <Rbt.Current_Directory>
/home/itssahil/PROJECTS/Mol_Feturizer/New_Systems/rnas/3DIY

>  <Rbt.Executable>
rbdock ($Id: //depot/dev/client3/rdock/2013.1/src/exe/rbdock.cxx#4 $)

>  <Rbt.Library>
libRbt.so (2013.1, Build901 2013/11/27)

>  <Rbt.Parameter_File>
/export/apps/rDock/src/rDock_2013.1_src/data/scripts/dock_solv.prm

>  <Rbt.Receptor>
prm/blind_docking_80.prm

>  <SCORE>
-4.33362

>  <SCORE.INTER>
-3.9783

>  <SCORE.INTER.CONST>
1

>  <SCORE.INTER.POLAR>
0

>  <SCORE.INTER.ROT>
5

>  <SCORE.INTER.SOLV>
6.65266

>  <SCORE.INTER.VDW>
-11.8031

>  <SCORE.INTER.norm>
-0.39783

>  <SCORE.INTRA>
-0.355319

>  <SCORE.INTRA.DIHEDRAL>
-0.511142

>  <SCORE.INTRA.DIHEDRAL.0>
2.56603

>  <SCORE.INTRA.POLAR>
0

>  <SCORE.INTRA.POLAR.0>
0

>  <SCORE.INTRA.REPUL>
0

>  <SCORE.INTRA.REPUL.0>
0

>  <SCORE.INTRA.SOLV>
0.088324

>  <SCORE.INTRA.SOLV.lig_0>
-32.0799

>  <SCORE.INTRA.VDW>
-0.14391

>  <SCORE.INTRA.VDW.0>
-0.618248

>  <SCORE.INTRA.norm>
-0.0355319

>  <SCORE.RESTR>
0

>  <SCORE.RESTR.CAVITY>
0

>  <SCORE.RESTR.norm>
0

>  <SCORE.SYSTEM>
0

>  <SCORE.SYSTEM.CONST>
0

>  <SCORE.SYSTEM.DIHEDRAL>
0

>  <SCORE.SYSTEM.SOLV>
0

>  <SCORE.SYSTEM.norm>
0

>  <SCORE.heavy>
10

>  <SCORE.norm>
-0.433362

>  <RMSD>
11.227

$$$$
ligand
 OpenBabel11021811473D
libRbt.so/2013.1/901 2013/11/27
 10  9  0  0  0  0  0  0  0  0999 V2000
   26.9542    9.9319   27.6466 N   0  0  0  0  0  0  0  0  0  0  0  0
   28.1191    9.1691   28.1890 C   0  0  2  0  0  0  0  0  0  0  0  0
   29.3245    9.1896   27.2422 C   0  0  0  0  0  0  0  0  0  0  0  0
   29.9737    8.1656   26.9815 O   0  0  0  0  0  0  0  0  0  0  0  0
   27.7152    7.7350   28.5420 C   0  0  0  0  0  0  0  0  0  0  0  0
   27.1069    6.9842   27.3794 C   0  0  0  0  0  0  0  0  0  0  0  0
   26.7907    5.5530   27.7400 C   0  0  0  0  0  0  0  0  0  0  0  0
   26.2797    4.7795   26.5293 C   0  0  0  0  0  0  0  0  0  0  0  0
   24.9697    5.2702   26.0228 N   0  0  0  0  0  0  0  0  0  0  0  0
   29.6693   10.2304   26.6740 O   0  0  0  0  0  0  0  0  0  0  0  0
  2  1  1  6  0  0  0
  2  3  1  0  0  0  0
  2  5  1  0  0  0  0
  3  4  1  0  0  0  0
  3 10  1  0  0  0  0
  5  6  1  0  0  0  0
  6  7  1  0  0  0  0
  7  8  1  0  0  0  0
  8  9  1  0  0  0  0
M  END
>  <CHROM.1>
-134.66360442,56.05055849,176.86276056,-175.57887736,-65.59149240,27.72396847
7.71098016,27.27611711,0.91897948,0.17719849,0.25626432

>  <Name>
ligand

>  <RI>
0

>  <Rbt.Current_Directory>
/home/itssahil/PROJECTS/Mol_Feturizer/New_Systems/rnas/3DIY

>  <Rbt.Executable>
rbdock ($Id: //depot/dev/client3/rdock/2013.1/src/exe/rbdock.cxx#4 $)

>  <Rbt.Library>
libRbt.so (2013.1, Build901 2013/11/27)

>  <Rbt.Parameter_File>
/export/apps/rDock/src/rDock_2013.1_src/data/scripts/dock_solv.prm

>  <Rbt.Receptor>
prm/blind_docking_80.prm

>  <SCORE>
-3.88129

>  <SCORE.INTER>
-4.25071

>  <SCORE.INTER.CONST>
1

>  <SCORE.INTER.POLAR>
0

>  <SCORE.INTER.ROT>
5

>  <SCORE.INTER.SOLV>
4.85521

>  <SCORE.INTER.VDW>
-11.3855

>  <SCORE.INTER.norm>
-0.425071

>  <SCORE.INTRA>
0.369421

>  <SCORE.INTRA.DIHEDRAL>
-0.657227

>  <SCORE.INTRA.DIHEDRAL.0>
2.56603

>  <SCORE.INTRA.POLAR>
0

>  <SCORE.INTRA.POLAR.0>
0

>  <SCORE.INTRA.REPUL>
0

>  <SCORE.INTRA.REPUL.0>
0

>  <SCORE.INTRA.SOLV>
0.209886

>  <SCORE.INTRA.SOLV.lig_0>
-32.0799

>  <SCORE.INTRA.VDW>
0.593091

>  <SCORE.INTRA.VDW.0>
-0.618248

>  <SCORE.INTRA.norm>
0.0369421

>  <SCORE.RESTR>
0

>  <SCORE.RESTR.CAVITY>
0

>  <SCORE.RESTR.norm>
0

>  <SCORE.SYSTEM>
0

>  <SCORE.SYSTEM.CONST>
0

>  <SCORE.SYSTEM.DIHEDRAL>
0

>  <SCORE.SYSTEM.SOLV>
0

>  <SCORE.SYSTEM.norm>
0

>  <SCORE.heavy>
10

>  <SCORE.norm>
-0.388129

>  <RMSD>
11.345

$$$$
ligand
 OpenBabel11021811473D
libRbt.so/2013.1/901 2013/11/27
 10  9  0  0  0  0  0  0  0  0999 V2000
   26.8072   13.7200    8.9199 N   0  0  0  0  0  0  0  0  0  0  0  0
   26.6078   14.7992    9.9341 C   0  0  2  0  0  0  0  0  0  0  0  0
   27.9277   15.2693   10.5560 C   0  0  0  0  0  0  0  0  0  0  0  0
   28.1632   16.4676   10.7720 O   0  0  0  0  0  0  0  0  0  0  0  0
   25.6130   14.3584   11.0113 C   0  0  0  0  0  0  0  0  0  0  0  0
   24.2092   14.1682   10.4836 C   0  0  0  0  0  0  0  0  0  0  0  0
   23.2335   13.8456   11.5892 C   0  0  0  0  0  0  0  0  0  0  0  0
   21.8137   13.7107   11.0494 C   0  0  0  0  0  0  0  0  0  0  0  0
   20.7984   13.4642   12.1086 N   0  0  0  0  0  0  0  0  0  0  0  0
   28.7935   14.4584   10.8991 O   0  0  0  0  0  0  0  0  0  0  0  0
  2  1  1  6  0  0  0
  2  3  1  0  0  0  0
  2  5  1  0  0  0  0
  3  4  1  0  0  0  0
  3 10  1  0  0  0  0
  5  6  1  0  0  0  0
  6  7  1  0  0  0  0
  7  8  1  0  0  0  0
  8  9  1  0  0  0  0
M  END
>  <CHROM.1>
138.64602001,-66.37164468,-175.29514451,177.77198770,-176.92213930,25.43852080
14.44067831,10.74349290,-0.01499826,-0.28807598,-2.25502354

>  <Name>
ligand

>  <RI>
0

>  <Rbt.Current_Directory>
/home/itssahil/PROJECTS/Mol_Feturizer/New_Systems/rnas/3DIY

>  <Rbt.Executable>
rbdock ($Id: //depot/dev/client3/rdock/2013.1/src/exe/rbdock.cxx#4 $)

>  <Rbt.Library>
libRbt.so (2013.1, Build901 2013/11/27)

>  <Rbt.Parameter_File>
/export/apps/rDock/src/rDock_2013.1_src/data/scripts/dock_solv.prm

>  <Rbt.Receptor>
prm/blind_docking_40.prm

>  <SCORE>
-6.36921

>  <SCORE.INTER>
-5.31719

>  <SCORE.INTER.CONST>
1

>  <SCORE.INTER.POLAR>
0

>  <SCORE.INTER.ROT>
5

>  <SCORE.INTER.SOLV>
6.16837

>  <SCORE.INTER.VDW>
-12.5342

>  <SCORE.INTER.norm>
-0.531719

>  <SCORE.INTRA>
-1.05202

>  <SCORE.INTRA.DIHEDRAL>
-0.759163

>  <SCORE.INTRA.DIHEDRAL.0>
2.56603

>  <SCORE.INTRA.POLAR>
0

>  <SCORE.INTRA.POLAR.0>
0

>  <SCORE.INTRA.REPUL>
0

>  <SCORE.INTRA.REPUL.0>
0

>  <SCORE.INTRA.SOLV>
-0.785841

>  <SCORE.INTRA.SOLV.lig_0>
-32.0799

>  <SCORE.INTRA.VDW>
-0.279518

>  <SCORE.INTRA.VDW.0>
-0.618248

>  <SCORE.INTRA.norm>
-0.105202

>  <SCORE.RESTR>
0

>  <SCORE.RESTR.CAVITY>
0

>  <SCORE.RESTR.norm>
0

>  <SCORE.SYSTEM>
0

>  <SCORE.SYSTEM.CONST>
0

>  <SCORE.SYSTEM.DIHEDRAL>
0

>  <SCORE.SYSTEM.SOLV>
0

>  <SCORE.SYSTEM.norm>
0

>  <SCORE.heavy>
10

>  <SCORE.norm>
-0.636921

>  <RMSD>
11.447

$$$$
ligand
 OpenBabel11021811473D
libRbt.so/2013.1/901 2013/11/27
 10  9  0  0  0  0  0  0  0  0999 V2000
   27.3827   14.4724    8.5592 N   0  0  0  0  0  0  0  0  0  0  0  0
   26.6499   14.6358    9.8513 C   0  0  2  0  0  0  0  0  0  0  0  0
   27.4890   14.2030   11.0590 C   0  0  0  0  0  0  0  0  0  0  0  0
   28.5935   13.6541   10.9300 O   0  0  0  0  0  0  0  0  0  0  0  0
   25.3086   13.8985    9.8147 C   0  0  0  0  0  0  0  0  0  0  0  0
   24.4119   14.2348   10.9844 C   0  0  0  0  0  0  0  0  0  0  0  0
   23.0790   13.5328   10.8891 C   0  0  0  0  0  0  0  0  0  0  0  0
   22.2055   13.8418   12.1003 C   0  0  0  0  0  0  0  0  0  0  0  0
   20.8633   13.2029   12.0408 N   0  0  0  0  0  0  0  0  0  0  0  0
   27.1045   14.4222   12.2119 O   0  0  0  0  0  0  0  0  0  0  0  0
  2  1  1  6  0  0  0
  2  3  1  0  0  0  0
  2  5  1  0  0  0  0
  3  4  1  0  0  0  0
  3 10  1  0  0  0  0
  5  6  1  0  0  0  0
  6  7  1  0  0  0  0
  7  8  1  0  0  0  0
  8  9  1  0  0  0  0
M  END
>  <CHROM.1>
-6.92435852,-169.28593499,177.79159980,177.94927528,178.47813375,25.33942103
14.00342903,10.86856332,0.23488614,-0.09266885,-1.48848684

>  <Name>
ligand

>  <RI>
0

>  <Rbt.Current_Directory>
/home/itssahil/PROJECTS/Mol_Feturizer/New_Systems/rnas/3DIY

>  <Rbt.Executable>
rbdock ($Id: //depot/dev/client3/rdock/2013.1/src/exe/rbdock.cxx#4 $)

>  <Rbt.Library>
libRbt.so (2013.1, Build901 2013/11/27)

>  <Rbt.Parameter_File>
/export/apps/rDock/src/rDock_2013.1_src/data/scripts/dock_solv.prm

>  <Rbt.Receptor>
prm/blind_docking_60.prm

>  <SCORE>
-6.20903

>  <SCORE.INTER>
-5.17946

>  <SCORE.INTER.CONST>
1

>  <SCORE.INTER.POLAR>
0

>  <SCORE.INTER.ROT>
5

>  <SCORE.INTER.SOLV>
6.41595

>  <SCORE.INTER.VDW>
-12.525

>  <SCORE.INTER.norm>
-0.517946

>  <SCORE.INTRA>
-1.02956

>  <SCORE.INTRA.DIHEDRAL>
-0.539985

>  <SCORE.INTRA.DIHEDRAL.0>
2.56603

>  <SCORE.INTRA.POLAR>
0

>  <SCORE.INTRA.POLAR.0>
0

>  <SCORE.INTRA.REPUL>
0

>  <SCORE.INTRA.REPUL.0>
0

>  <SCORE.INTRA.SOLV>
-1.58425

>  <SCORE.INTRA.SOLV.lig_0>
-32.0799

>  <SCORE.INTRA.VDW>
0.0325552

>  <SCORE.INTRA.VDW.0>
-0.618248

>  <SCORE.INTRA.norm>
-0.102956

>  <SCORE.RESTR>
0

>  <SCORE.RESTR.CAVITY>
0

>  <SCORE.RESTR.norm>
0

>  <SCORE.SYSTEM>
0

>  <SCORE.SYSTEM.CONST>
0

>  <SCORE.SYSTEM.DIHEDRAL>
0

>  <SCORE.SYSTEM.SOLV>
0

>  <SCORE.SYSTEM.norm>
0

>  <SCORE.heavy>
10

>  <SCORE.norm>
-0.620903

>  <RMSD>
11.482

$$$$
ligand
 OpenBabel11021811473D
libRbt.so/2013.1/901 2013/11/27
 10  9  0  0  0  0  0  0  0  0999 V2000
   27.4780   14.5022    8.4422 N   0  0  0  0  0  0  0  0  0  0  0  0
   26.7503   14.6728    9.7362 C   0  0  2  0  0  0  0  0  0  0  0  0
   27.6143   14.3029   10.9472 C   0  0  0  0  0  0  0  0  0  0  0  0
   28.7274   13.7702   10.8230 O   0  0  0  0  0  0  0  0  0  0  0  0
   25.4366   13.8863    9.7309 C   0  0  0  0  0  0  0  0  0  0  0  0
   24.5465   14.2056   10.9104 C   0  0  0  0  0  0  0  0  0  0  0  0
   23.2343   13.4630   10.8397 C   0  0  0  0  0  0  0  0  0  0  0  0
   22.3670   13.7591   12.0585 C   0  0  0  0  0  0  0  0  0  0  0  0
   21.0545   13.0592   12.0356 N   0  0  0  0  0  0  0  0  0  0  0  0
   27.2419   14.5592   12.0963 O   0  0  0  0  0  0  0  0  0  0  0  0
  2  1  1  6  0  0  0
  2  3  1  0  0  0  0
  2  5  1  0  0  0  0
  3  4  1  0  0  0  0
  3 10  1  0  0  0  0
  5  6  1  0  0  0  0
  6  7  1  0  0  0  0
  7  8  1  0  0  0  0
  8  9  1  0  0  0  0
M  END
>  <CHROM.1>
-8.19748694,-170.12190362,177.30365244,178.10693855,179.57310400,25.47610680
14.01348212,10.78632821,0.24932725,-0.13195250,-1.51388608

>  <Name>
ligand

>  <RI>
0

>  <Rbt.Current_Directory>
/home/itssahil/PROJECTS/Mol_Feturizer/New_Systems/rnas/3DIY

>  <Rbt.Executable>
rbdock ($Id: //depot/dev/client3/rdock/2013.1/src/exe/rbdock.cxx#4 $)

>  <Rbt.Library>
libRbt.so (2013.1, Build901 2013/11/27)

>  <Rbt.Parameter_File>
/export/apps/rDock/src/rDock_2013.1_src/data/scripts/dock_solv.prm

>  <Rbt.Receptor>
prm/blind_docking_40.prm

>  <SCORE>
-6.19676

>  <SCORE.INTER>
-5.14018

>  <SCORE.INTER.CONST>
1

>  <SCORE.INTER.POLAR>
0

>  <SCORE.INTER.ROT>
5

>  <SCORE.INTER.SOLV>
6.81808

>  <SCORE.INTER.VDW>
-12.6328

>  <SCORE.INTER.norm>
-0.514018

>  <SCORE.INTRA>
-1.05658

>  <SCORE.INTRA.DIHEDRAL>
-0.598036

>  <SCORE.INTRA.DIHEDRAL.0>
2.56603

>  <SCORE.INTRA.POLAR>
0

>  <SCORE.INTRA.POLAR.0>
0

>  <SCORE.INTRA.REPUL>
0

>  <SCORE.INTRA.REPUL.0>
0

>  <SCORE.INTRA.SOLV>
-1.58548

>  <SCORE.INTRA.SOLV.lig_0>
-32.0799

>  <SCORE.INTRA.VDW>
0.0351749

>  <SCORE.INTRA.VDW.0>
-0.618248

>  <SCORE.INTRA.norm>
-0.105658

>  <SCORE.RESTR>
0

>  <SCORE.RESTR.CAVITY>
0

>  <SCORE.RESTR.norm>
0

>  <SCORE.SYSTEM>
0

>  <SCORE.SYSTEM.CONST>
0

>  <SCORE.SYSTEM.DIHEDRAL>
0

>  <SCORE.SYSTEM.SOLV>
0

>  <SCORE.SYSTEM.norm>
0

>  <SCORE.heavy>
10

>  <SCORE.norm>
-0.619676

>  <RMSD>
11.487

$$$$
ligand
 OpenBabel11021811473D
libRbt.so/2013.1/901 2013/11/27
 10  9  0  0  0  0  0  0  0  0999 V2000
   27.4608   14.4677    8.4419 N   0  0  0  0  0  0  0  0  0  0  0  0
   26.7249   14.6651    9.7274 C   0  0  2  0  0  0  0  0  0  0  0  0
   27.5880   14.3406   10.9520 C   0  0  0  0  0  0  0  0  0  0  0  0
   27.2037   14.5731   12.1079 O   0  0  0  0  0  0  0  0  0  0  0  0
   25.4215   13.8617    9.7386 C   0  0  0  0  0  0  0  0  0  0  0  0
   24.5257   14.1962   10.9095 C   0  0  0  0  0  0  0  0  0  0  0  0
   23.2426   13.4019   10.8787 C   0  0  0  0  0  0  0  0  0  0  0  0
   22.3288   13.7855   12.0377 C   0  0  0  0  0  0  0  0  0  0  0  0
   21.0654   13.0012   12.0803 N   0  0  0  0  0  0  0  0  0  0  0  0
   28.6902   13.7979   10.8274 O   0  0  0  0  0  0  0  0  0  0  0  0
  2  1  1  6  0  0  0
  2  3  1  0  0  0  0
  2  5  1  0  0  0  0
  3  4  1  0  0  0  0
  3 10  1  0  0  0  0
  5  6  1  0  0  0  0
  6  7  1  0  0  0  0
  7  8  1  0  0  0  0
  8  9  1  0  0  0  0
M  END
>  <CHROM.1>
172.42428139,-170.47954354,179.16787593,-178.00000475,-178.19520249,25.45581077
14.00467545,10.79463811,0.25236176,-0.14349221,-1.53211925

>  <Name>
ligand

>  <RI>
0

>  <Rbt.Current_Directory>
/home/itssahil/PROJECTS/Mol_Feturizer/New_Systems/rnas/3DIY

>  <Rbt.Executable>
rbdock ($Id: //depot/dev/client3/rdock/2013.1/src/exe/rbdock.cxx#4 $)

>  <Rbt.Library>
libRbt.so (2013.1, Build901 2013/11/27)

>  <Rbt.Parameter_File>
/export/apps/rDock/src/rDock_2013.1_src/data/scripts/dock_solv.prm

>  <Rbt.Receptor>
prm/blind_docking_40.prm

>  <SCORE>
-6.22084

>  <SCORE.INTER>
-5.1481

>  <SCORE.INTER.CONST>
1

>  <SCORE.INTER.POLAR>
0

>  <SCORE.INTER.ROT>
5

>  <SCORE.INTER.SOLV>
6.77041

>  <SCORE.INTER.VDW>
-12.6222

>  <SCORE.INTER.norm>
-0.51481

>  <SCORE.INTRA>
-1.08069

>  <SCORE.INTRA.DIHEDRAL>
-0.709503

>  <SCORE.INTRA.DIHEDRAL.0>
2.56603

>  <SCORE.INTRA.POLAR>
0

>  <SCORE.INTRA.POLAR.0>
0

>  <SCORE.INTRA.REPUL>
0

>  <SCORE.INTRA.REPUL.0>
0

>  <SCORE.INTRA.SOLV>
-1.583

>  <SCORE.INTRA.SOLV.lig_0>
-32.0799

>  <SCORE.INTRA.VDW>
0.065568

>  <SCORE.INTRA.VDW.0>
-0.618248

>  <SCORE.INTRA.norm>
-0.108069

>  <SCORE.RESTR>
0.00794423

>  <SCORE.RESTR.CAVITY>
0.00794423

>  <SCORE.RESTR.norm>
0.000794423

>  <SCORE.SYSTEM>
0

>  <SCORE.SYSTEM.CONST>
0

>  <SCORE.SYSTEM.DIHEDRAL>
0

>  <SCORE.SYSTEM.SOLV>
0

>  <SCORE.SYSTEM.norm>
0

>  <SCORE.heavy>
10

>  <SCORE.norm>
-0.622084

>  <RMSD>
11.489

$$$$
ligand
 OpenBabel11021811473D
libRbt.so/2013.1/901 2013/11/27
 10  9  0  0  0  0  0  0  0  0999 V2000
   27.4706   14.5605    8.4415 N   0  0  0  0  0  0  0  0  0  0  0  0
   26.7393   14.6920    9.7380 C   0  0  2  0  0  0  0  0  0  0  0  0
   27.6072   14.3072   10.9415 C   0  0  0  0  0  0  0  0  0  0  0  0
   27.2491   14.5276   12.1082 O   0  0  0  0  0  0  0  0  0  0  0  0
   25.4368   13.8875    9.7134 C   0  0  0  0  0  0  0  0  0  0  0  0
   24.5331   14.1811   10.8893 C   0  0  0  0  0  0  0  0  0  0  0  0
   23.2545   13.3813   10.8272 C   0  0  0  0  0  0  0  0  0  0  0  0
   22.3738   13.6547   12.0417 C   0  0  0  0  0  0  0  0  0  0  0  0
   21.1053   12.8775   12.0404 N   0  0  0  0  0  0  0  0  0  0  0  0
   28.6860   13.7262   10.7878 O   0  0  0  0  0  0  0  0  0  0  0  0
  2  1  1  6  0  0  0
  2  3  1  0  0  0  0
  2  5  1  0  0  0  0
  3  4  1  0  0  0  0
  3 10  1  0  0  0  0
  5  6  1  0  0  0  0
  6  7  1  0  0  0  0
  7  8  1  0  0  0  0
  8  9  1  0  0  0  0
M  END
>  <CHROM.1>
169.59344809,-169.38083593,179.49100288,178.18963390,-179.26817165,25.47628763
13.97398607,10.77702576,0.25826190,-0.14737013,-1.48215572

>  <Name>
ligand

>  <RI>
0

>  <Rbt.Current_Directory>
/home/itssahil/PROJECTS/Mol_Feturizer/New_Systems/rnas/3DIY

>  <Rbt.Executable>
rbdock ($Id: //depot/dev/client3/rdock/2013.1/src/exe/rbdock.cxx#4 $)

>  <Rbt.Library>
libRbt.so (2013.1, Build901 2013/11/27)

>  <Rbt.Parameter_File>
/export/apps/rDock/src/rDock_2013.1_src/data/scripts/dock_solv.prm

>  <Rbt.Receptor>
prm/blind_docking_40.prm

>  <SCORE>
-6.27352

>  <SCORE.INTER>
-5.13771

>  <SCORE.INTER.CONST>
1

>  <SCORE.INTER.POLAR>
0

>  <SCORE.INTER.ROT>
5

>  <SCORE.INTER.SOLV>
7.12723

>  <SCORE.INTER.VDW>
-12.7342

>  <SCORE.INTER.norm>
-0.513771

>  <SCORE.INTRA>
-1.14399

>  <SCORE.INTRA.DIHEDRAL>
-0.654428

>  <SCORE.INTRA.DIHEDRAL.0>
2.56603

>  <SCORE.INTRA.POLAR>
0

>  <SCORE.INTRA.POLAR.0>
0

>  <SCORE.INTRA.REPUL>
0

>  <SCORE.INTRA.REPUL.0>
0

>  <SCORE.INTRA.SOLV>
-1.58269

>  <SCORE.INTRA.SOLV.lig_0>
-32.0799

>  <SCORE.INTRA.VDW>
-0.0254265

>  <SCORE.INTRA.VDW.0>
-0.618248

>  <SCORE.INTRA.norm>
-0.114399

>  <SCORE.RESTR>
0.00818098

>  <SCORE.RESTR.CAVITY>
0.00818098

>  <SCORE.RESTR.norm>
0.000818098

>  <SCORE.SYSTEM>
0

>  <SCORE.SYSTEM.CONST>
0

>  <SCORE.SYSTEM.DIHEDRAL>
0

>  <SCORE.SYSTEM.SOLV>
0

>  <SCORE.SYSTEM.norm>
0

>  <SCORE.heavy>
10

>  <SCORE.norm>
-0.627352

>  <RMSD>
11.500

$$$$
ligand
 OpenBabel11021811473D
libRbt.so/2013.1/901 2013/11/27
 10  9  0  0  0  0  0  0  0  0999 V2000
   28.1573   15.8149    9.0056 N   0  0  0  0  0  0  0  0  0  0  0  0
   27.1404   15.0697    9.8079 C   0  0  2  0  0  0  0  0  0  0  0  0
   27.7456   14.4088   11.0516 C   0  0  0  0  0  0  0  0  0  0  0  0
   27.1029   14.2743   12.1037 O   0  0  0  0  0  0  0  0  0  0  0  0
   26.4032   14.0469    8.9393 C   0  0  0  0  0  0  0  0  0  0  0  0
   25.3374   13.2838    9.6925 C   0  0  0  0  0  0  0  0  0  0  0  0
   24.1806   14.1722   10.0809 C   0  0  0  0  0  0  0  0  0  0  0  0
   23.1250   13.3940   10.8590 C   0  0  0  0  0  0  0  0  0  0  0  0
   21.9367   14.2110   11.2247 N   0  0  0  0  0  0  0  0  0  0  0  0
   28.8926   13.9515   11.0343 O   0  0  0  0  0  0  0  0  0  0  0  0
  2  1  1  6  0  0  0
  2  3  1  0  0  0  0
  2  5  1  0  0  0  0
  3  4  1  0  0  0  0
  3 10  1  0  0  0  0
  5  6  1  0  0  0  0
  6  7  1  0  0  0  0
  7  8  1  0  0  0  0
  8  9  1  0  0  0  0
M  END
>  <CHROM.1>
147.34482759,-178.65956400,68.23364401,-179.08265968,-177.89147941,26.02520474
14.25045371,10.40777635,0.11202618,-0.13207174,-1.31000238

>  <Name>
ligand

>  <RI>
0

>  <Rbt.Current_Directory>
/home/itssahil/PROJECTS/Mol_Feturizer/New_Systems/rnas/3DIY

>  <Rbt.Executable>
rbdock ($Id: //depot/dev/client3/rdock/2013.1/src/exe/rbdock.cxx#4 $)

>  <Rbt.Library>
libRbt.so (2013.1, Build901 2013/11/27)

>  <Rbt.Parameter_File>
/export/apps/rDock/src/rDock_2013.1_src/data/scripts/dock_solv.prm

>  <Rbt.Receptor>
prm/blind_docking_40.prm

>  <SCORE>
-5.61031

>  <SCORE.INTER>
-4.58366

>  <SCORE.INTER.CONST>
1

>  <SCORE.INTER.POLAR>
0

>  <SCORE.INTER.ROT>
5

>  <SCORE.INTER.SOLV>
11.3404

>  <SCORE.INTER.VDW>
-13.7693

>  <SCORE.INTER.norm>
-0.458366

>  <SCORE.INTRA>
-1.03036

>  <SCORE.INTRA.DIHEDRAL>
-0.794194

>  <SCORE.INTRA.DIHEDRAL.0>
2.56603

>  <SCORE.INTRA.POLAR>
0

>  <SCORE.INTRA.POLAR.0>
0

>  <SCORE.INTRA.REPUL>
0

>  <SCORE.INTRA.REPUL.0>
0

>  <SCORE.INTRA.SOLV>
-1.37183

>  <SCORE.INTRA.SOLV.lig_0>
-32.0799

>  <SCORE.INTRA.VDW>
0.052651

>  <SCORE.INTRA.VDW.0>
-0.618248

>  <SCORE.INTRA.norm>
-0.103036

>  <SCORE.RESTR>
0.00370966

>  <SCORE.RESTR.CAVITY>
0.00370966

>  <SCORE.RESTR.norm>
0.000370966

>  <SCORE.SYSTEM>
0

>  <SCORE.SYSTEM.CONST>
0

>  <SCORE.SYSTEM.DIHEDRAL>
0

>  <SCORE.SYSTEM.SOLV>
0

>  <SCORE.SYSTEM.norm>
0

>  <SCORE.heavy>
10

>  <SCORE.norm>
-0.561031

>  <RMSD>
11.558

$$$$
ligand
 OpenBabel11021811473D
libRbt.so/2013.1/901 2013/11/27
 10  9  0  0  0  0  0  0  0  0999 V2000
   26.6435   13.9563    8.7626 N   0  0  0  0  0  0  0  0  0  0  0  0
   26.5297   14.8990    9.9165 C   0  0  2  0  0  0  0  0  0  0  0  0
   27.8956   15.2754   10.5019 C   0  0  0  0  0  0  0  0  0  0  0  0
   28.7832   14.4314   10.6962 O   0  0  0  0  0  0  0  0  0  0  0  0
   25.6013   14.3325   10.9942 C   0  0  0  0  0  0  0  0  0  0  0  0
   24.1762   14.1581   10.5209 C   0  0  0  0  0  0  0  0  0  0  0  0
   23.2597   13.7380   11.6444 C   0  0  0  0  0  0  0  0  0  0  0  0
   21.8538   13.4484   11.1298 C   0  0  0  0  0  0  0  0  0  0  0  0
   21.1703   14.6449   10.5690 N   0  0  0  0  0  0  0  0  0  0  0  0
   28.1719   16.4492   10.7678 O   0  0  0  0  0  0  0  0  0  0  0  0
  2  1  1  6  0  0  0
  2  3  1  0  0  0  0
  2  5  1  0  0  0  0
  3  4  1  0  0  0  0
  3 10  1  0  0  0  0
  5  6  1  0  0  0  0
  6  7  1  0  0  0  0
  7  8  1  0  0  0  0
  8  9  1  0  0  0  0
M  END
>  <CHROM.1>
-43.79978896,-63.50960277,-173.96791450,-175.04509844,-64.41800256,25.45122045
14.54552757,10.56086761,-0.06483953,-0.20820857,-2.32399338

>  <Name>
ligand

>  <RI>
0

>  <Rbt.Current_Directory>
/home/itssahil/PROJECTS/Mol_Feturizer/New_Systems/rnas/3DIY

>  <Rbt.Executable>
rbdock ($Id: //depot/dev/client3/rdock/2013.1/src/exe/rbdock.cxx#4 $)

>  <Rbt.Library>
libRbt.so (2013.1, Build901 2013/11/27)

>  <Rbt.Parameter_File>
/export/apps/rDock/src/rDock_2013.1_src/data/scripts/dock_solv.prm

>  <Rbt.Receptor>
prm/blind_docking_40.prm

>  <SCORE>
-4.61005

>  <SCORE.INTER>
-4.19171

>  <SCORE.INTER.CONST>
1

>  <SCORE.INTER.POLAR>
0

>  <SCORE.INTER.ROT>
5

>  <SCORE.INTER.SOLV>
9.02166

>  <SCORE.INTER.VDW>
-12.735

>  <SCORE.INTER.norm>
-0.419171

>  <SCORE.INTRA>
-0.418344

>  <SCORE.INTRA.DIHEDRAL>
-0.589975

>  <SCORE.INTRA.DIHEDRAL.0>
2.56603

>  <SCORE.INTRA.POLAR>
0

>  <SCORE.INTRA.POLAR.0>
0

>  <SCORE.INTRA.REPUL>
0

>  <SCORE.INTRA.REPUL.0>
0

>  <SCORE.INTRA.SOLV>
0.118115

>  <SCORE.INTRA.SOLV.lig_0>
-32.0799

>  <SCORE.INTRA.VDW>
-0.182414

>  <SCORE.INTRA.VDW.0>
-0.618248

>  <SCORE.INTRA.norm>
-0.0418344

>  <SCORE.RESTR>
0

>  <SCORE.RESTR.CAVITY>
0

>  <SCORE.RESTR.norm>
0

>  <SCORE.SYSTEM>
0

>  <SCORE.SYSTEM.CONST>
0

>  <SCORE.SYSTEM.DIHEDRAL>
0

>  <SCORE.SYSTEM.SOLV>
0

>  <SCORE.SYSTEM.norm>
0

>  <SCORE.heavy>
10

>  <SCORE.norm>
-0.461005

>  <RMSD>
11.565

$$$$
ligand
 OpenBabel11021811473D
libRbt.so/2013.1/901 2013/11/27
 10  9  0  0  0  0  0  0  0  0999 V2000
   26.9378   12.7099    9.8631 N   0  0  0  0  0  0  0  0  0  0  0  0
   26.6899   14.1791    9.7486 C   0  0  2  0  0  0  0  0  0  0  0  0
   27.2683   14.9644   10.9312 C   0  0  0  0  0  0  0  0  0  0  0  0
   27.7920   16.0793   10.7874 O   0  0  0  0  0  0  0  0  0  0  0  0
   25.1971   14.4678    9.5678 C   0  0  0  0  0  0  0  0  0  0  0  0
   24.3542   13.9964   10.7308 C   0  0  0  0  0  0  0  0  0  0  0  0
   22.8909   14.3036   10.5235 C   0  0  0  0  0  0  0  0  0  0  0  0
   22.0640   13.8916   11.7367 C   0  0  0  0  0  0  0  0  0  0  0  0
   20.6238   14.2457   11.6196 N   0  0  0  0  0  0  0  0  0  0  0  0
   27.1979   14.5236   12.0826 O   0  0  0  0  0  0  0  0  0  0  0  0
  2  1  1  1  0  0  0
  2  3  1  0  0  0  0
  2  5  1  0  0  0  0
  3  4  1  0  0  0  0
  3 10  1  0  0  0  0
  5  6  1  0  0  0  0
  6  7  1  0  0  0  0
  7  8  1  0  0  0  0
  8  9  1  0  0  0  0
M  END
>  <CHROM.1>
142.32314118,61.23435196,179.67325559,-176.89667555,176.56605167,25.12658052
14.35550956,10.78278270,0.00307919,-0.15467557,-2.34768205

>  <Name>
ligand

>  <RI>
0

>  <Rbt.Current_Directory>
/home/itssahil/PROJECTS/Mol_Feturizer/New_Systems/rnas/3DIY

>  <Rbt.Executable>
rbdock ($Id: //depot/dev/client3/rdock/2013.1/src/exe/rbdock.cxx#4 $)

>  <Rbt.Library>
libRbt.so (2013.1, Build901 2013/11/27)

>  <Rbt.Parameter_File>
/export/apps/rDock/src/rDock_2013.1_src/data/scripts/dock_solv.prm

>  <Rbt.Receptor>
prm/blind_docking_40.prm

>  <SCORE>
-4.59873

>  <SCORE.INTER>
-3.60316

>  <SCORE.INTER.CONST>
1

>  <SCORE.INTER.POLAR>
0

>  <SCORE.INTER.ROT>
5

>  <SCORE.INTER.SOLV>
10.2923

>  <SCORE.INTER.VDW>
-12.7662

>  <SCORE.INTER.norm>
-0.360316

>  <SCORE.INTRA>
-0.99557

>  <SCORE.INTRA.DIHEDRAL>
-1.00304

>  <SCORE.INTRA.DIHEDRAL.0>
2.56603

>  <SCORE.INTRA.POLAR>
0

>  <SCORE.INTRA.POLAR.0>
0

>  <SCORE.INTRA.REPUL>
0

>  <SCORE.INTRA.REPUL.0>
0

>  <SCORE.INTRA.SOLV>
-0.702313

>  <SCORE.INTRA.SOLV.lig_0>
-32.0799

>  <SCORE.INTRA.VDW>
-0.142894

>  <SCORE.INTRA.VDW.0>
-0.618248

>  <SCORE.INTRA.norm>
-0.099557

>  <SCORE.RESTR>
0

>  <SCORE.RESTR.CAVITY>
0

>  <SCORE.RESTR.norm>
0

>  <SCORE.SYSTEM>
0

>  <SCORE.SYSTEM.CONST>
0

>  <SCORE.SYSTEM.DIHEDRAL>
0

>  <SCORE.SYSTEM.SOLV>
0

>  <SCORE.SYSTEM.norm>
0

>  <SCORE.heavy>
10

>  <SCORE.norm>
-0.459873

>  <RMSD>
11.603

$$$$
ligand
 OpenBabel11021811473D
libRbt.so/2013.1/901 2013/11/27
 10  9  0  0  0  0  0  0  0  0999 V2000
   27.3935   14.3341    8.3194 N   0  0  0  0  0  0  0  0  0  0  0  0
   26.8373   14.9848    9.5442 C   0  0  2  0  0  0  0  0  0  0  0  0
   27.9228   15.3193   10.5737 C   0  0  0  0  0  0  0  0  0  0  0  0
   28.6779   14.4524   11.0388 O   0  0  0  0  0  0  0  0  0  0  0  0
   25.7311   14.1263   10.1634 C   0  0  0  0  0  0  0  0  0  0  0  0
   24.5138   13.9932    9.2769 C   0  0  0  0  0  0  0  0  0  0  0  0
   23.4294   13.1732    9.9328 C   0  0  0  0  0  0  0  0  0  0  0  0
   22.8320   13.9058   11.1294 C   0  0  0  0  0  0  0  0  0  0  0  0
   21.7285   13.1585   11.7905 N   0  0  0  0  0  0  0  0  0  0  0  0
   28.1061   16.4811   10.9498 O   0  0  0  0  0  0  0  0  0  0  0  0
  2  1  1  6  0  0  0
  2  3  1  0  0  0  0
  2  5  1  0  0  0  0
  3  4  1  0  0  0  0
  3 10  1  0  0  0  0
  5  6  1  0  0  0  0
  6  7  1  0  0  0  0
  7  8  1  0  0  0  0
  8  9  1  0  0  0  0
M  END
>  <CHROM.1>
-57.03892698,-65.24208155,-178.43844692,68.21863058,178.29750122,25.75284010
14.40563228,10.29302834,-0.00435267,-0.33951390,-1.88684540

>  <Name>
ligand

>  <RI>
0

>  <Rbt.Current_Directory>
/home/itssahil/PROJECTS/Mol_Feturizer/New_Systems/rnas/3DIY

>  <Rbt.Executable>
rbdock ($Id: //depot/dev/client3/rdock/2013.1/src/exe/rbdock.cxx#4 $)

>  <Rbt.Library>
libRbt.so (2013.1, Build901 2013/11/27)

>  <Rbt.Parameter_File>
/export/apps/rDock/src/rDock_2013.1_src/data/scripts/dock_solv.prm

>  <Rbt.Receptor>
prm/blind_docking_40.prm

>  <SCORE>
-5.6683

>  <SCORE.INTER>
-5.53222

>  <SCORE.INTER.CONST>
1

>  <SCORE.INTER.POLAR>
0

>  <SCORE.INTER.ROT>
5

>  <SCORE.INTER.SOLV>
6.7414

>  <SCORE.INTER.VDW>
-12.8686

>  <SCORE.INTER.norm>
-0.553222

>  <SCORE.INTRA>
-0.13608

>  <SCORE.INTRA.DIHEDRAL>
-0.600015

>  <SCORE.INTRA.DIHEDRAL.0>
2.56603

>  <SCORE.INTRA.POLAR>
0

>  <SCORE.INTRA.POLAR.0>
0

>  <SCORE.INTRA.REPUL>
0

>  <SCORE.INTRA.REPUL.0>
0

>  <SCORE.INTRA.SOLV>
-0.518512

>  <SCORE.INTRA.SOLV.lig_0>
-32.0799

>  <SCORE.INTRA.VDW>
0.423183

>  <SCORE.INTRA.VDW.0>
-0.618248

>  <SCORE.INTRA.norm>
-0.013608

>  <SCORE.RESTR>
0

>  <SCORE.RESTR.CAVITY>
0

>  <SCORE.RESTR.norm>
0

>  <SCORE.SYSTEM>
0

>  <SCORE.SYSTEM.CONST>
0

>  <SCORE.SYSTEM.DIHEDRAL>
0

>  <SCORE.SYSTEM.SOLV>
0

>  <SCORE.SYSTEM.norm>
0

>  <SCORE.heavy>
10

>  <SCORE.norm>
-0.56683

>  <RMSD>
11.713

$$$$
ligand
 OpenBabel11021811473D
libRbt.so/2013.1/901 2013/11/27
 10  9  0  0  0  0  0  0  0  0999 V2000
   28.2434   14.6625   11.5804 N   0  0  0  0  0  0  0  0  0  0  0  0
   28.1844   14.0947   10.1995 C   0  0  2  0  0  0  0  0  0  0  0  0
   28.4549   15.1496    9.1206 C   0  0  0  0  0  0  0  0  0  0  0  0
   29.1441   14.9046    8.1191 O   0  0  0  0  0  0  0  0  0  0  0  0
   26.8497   13.3843    9.9584 C   0  0  0  0  0  0  0  0  0  0  0  0
   25.6517   14.2859   10.1514 C   0  0  0  0  0  0  0  0  0  0  0  0
   24.3534   13.5223   10.0522 C   0  0  0  0  0  0  0  0  0  0  0  0
   23.1596   14.4242   10.3461 C   0  0  0  0  0  0  0  0  0  0  0  0
   21.8745   13.6846   10.4681 N   0  0  0  0  0  0  0  0  0  0  0  0
   27.9600   16.2784    9.1966 O   0  0  0  0  0  0  0  0  0  0  0  0
  2  1  1  1  0  0  0
  2  3  1  0  0  0  0
  2  5  1  0  0  0  0
  3  4  1  0  0  0  0
  3 10  1  0  0  0  0
  5  6  1  0  0  0  0
  6  7  1  0  0  0  0
  7  8  1  0  0  0  0
  8  9  1  0  0  0  0
M  END
>  <CHROM.1>
139.62271960,58.11733675,-173.88537858,175.98758064,-171.15567237,26.40609079
14.46370977,9.89306278,-0.25918845,0.08882977,2.10022576

>  <Name>
ligand

>  <RI>
0

>  <Rbt.Current_Directory>
/home/itssahil/PROJECTS/Mol_Feturizer/New_Systems/rnas/3DIY

>  <Rbt.Executable>
rbdock ($Id: //depot/dev/client3/rdock/2013.1/src/exe/rbdock.cxx#4 $)

>  <Rbt.Library>
libRbt.so (2013.1, Build901 2013/11/27)

>  <Rbt.Parameter_File>
/export/apps/rDock/src/rDock_2013.1_src/data/scripts/dock_solv.prm

>  <Rbt.Receptor>
prm/blind_docking_40.prm

>  <SCORE>
-5.43774

>  <SCORE.INTER>
-4.71618

>  <SCORE.INTER.CONST>
1

>  <SCORE.INTER.POLAR>
0

>  <SCORE.INTER.ROT>
5

>  <SCORE.INTER.SOLV>
13.662

>  <SCORE.INTER.VDW>
-14.6314

>  <SCORE.INTER.norm>
-0.471618

>  <SCORE.INTRA>
-0.721561

>  <SCORE.INTRA.DIHEDRAL>
-0.552354

>  <SCORE.INTRA.DIHEDRAL.0>
2.56603

>  <SCORE.INTRA.POLAR>
0

>  <SCORE.INTRA.POLAR.0>
0

>  <SCORE.INTRA.REPUL>
0

>  <SCORE.INTRA.REPUL.0>
0

>  <SCORE.INTRA.SOLV>
-0.6258

>  <SCORE.INTRA.SOLV.lig_0>
-32.0799

>  <SCORE.INTRA.VDW>
-0.132484

>  <SCORE.INTRA.VDW.0>
-0.618248

>  <SCORE.INTRA.norm>
-0.0721561

>  <SCORE.RESTR>
0

>  <SCORE.RESTR.CAVITY>
0

>  <SCORE.RESTR.norm>
0

>  <SCORE.SYSTEM>
0

>  <SCORE.SYSTEM.CONST>
0

>  <SCORE.SYSTEM.DIHEDRAL>
0

>  <SCORE.SYSTEM.SOLV>
0

>  <SCORE.SYSTEM.norm>
0

>  <SCORE.heavy>
10

>  <SCORE.norm>
-0.543774

>  <RMSD>
11.842

$$$$
ligand
 OpenBabel11021811473D
libRbt.so/2013.1/901 2013/11/27
 10  9  0  0  0  0  0  0  0  0999 V2000
   27.4440   14.5361   11.3464 N   0  0  0  0  0  0  0  0  0  0  0  0
   27.2726   14.3352    9.8755 C   0  0  2  0  0  0  0  0  0  0  0  0
   28.2638   15.1653    9.0518 C   0  0  0  0  0  0  0  0  0  0  0  0
   29.0521   14.6427    8.2497 O   0  0  0  0  0  0  0  0  0  0  0  0
   25.8282   14.6146    9.4516 C   0  0  0  0  0  0  0  0  0  0  0  0
   24.8139   13.7941   10.2154 C   0  0  0  0  0  0  0  0  0  0  0  0
   23.3986   14.1919    9.8732 C   0  0  0  0  0  0  0  0  0  0  0  0
   22.3906   13.4359   10.7319 C   0  0  0  0  0  0  0  0  0  0  0  0
   22.5123   13.7299   12.1852 N   0  0  0  0  0  0  0  0  0  0  0  0
   28.2843   16.3972    9.1344 O   0  0  0  0  0  0  0  0  0  0  0  0
  2  1  1  1  0  0  0
  2  3  1  0  0  0  0
  2  5  1  0  0  0  0
  3  4  1  0  0  0  0
  3 10  1  0  0  0  0
  5  6  1  0  0  0  0
  6  7  1  0  0  0  0
  7  8  1  0  0  0  0
  8  9  1  0  0  0  0
M  END
>  <CHROM.1>
122.22198147,-55.39581539,174.26900329,-175.41458144,62.87218393,25.95996462
14.50466448,9.98880702,-0.35343448,0.23213470,1.66098973

>  <Name>
ligand

>  <RI>
0

>  <Rbt.Current_Directory>
/home/itssahil/PROJECTS/Mol_Feturizer/New_Systems/rnas/3DIY

>  <Rbt.Executable>
rbdock ($Id: //depot/dev/client3/rdock/2013.1/src/exe/rbdock.cxx#4 $)

>  <Rbt.Library>
libRbt.so (2013.1, Build901 2013/11/27)

>  <Rbt.Parameter_File>
/export/apps/rDock/src/rDock_2013.1_src/data/scripts/dock_solv.prm

>  <Rbt.Receptor>
prm/blind_docking_100.prm

>  <SCORE>
-4.17848

>  <SCORE.INTER>
-3.97514

>  <SCORE.INTER.CONST>
1

>  <SCORE.INTER.POLAR>
0

>  <SCORE.INTER.ROT>
5

>  <SCORE.INTER.SOLV>
10.404

>  <SCORE.INTER.VDW>
-13.0514

>  <SCORE.INTER.norm>
-0.397514

>  <SCORE.INTRA>
-0.203346

>  <SCORE.INTRA.DIHEDRAL>
-0.702404

>  <SCORE.INTRA.DIHEDRAL.0>
2.56603

>  <SCORE.INTRA.POLAR>
0

>  <SCORE.INTRA.POLAR.0>
0

>  <SCORE.INTRA.REPUL>
0

>  <SCORE.INTRA.REPUL.0>
0

>  <SCORE.INTRA.SOLV>
0.330388

>  <SCORE.INTRA.SOLV.lig_0>
-32.0799

>  <SCORE.INTRA.VDW>
-0.017338

>  <SCORE.INTRA.VDW.0>
-0.618248

>  <SCORE.INTRA.norm>
-0.0203346

>  <SCORE.RESTR>
0

>  <SCORE.RESTR.CAVITY>
0

>  <SCORE.RESTR.norm>
0

>  <SCORE.SYSTEM>
0

>  <SCORE.SYSTEM.CONST>
0

>  <SCORE.SYSTEM.DIHEDRAL>
0

>  <SCORE.SYSTEM.SOLV>
0

>  <SCORE.SYSTEM.norm>
0

>  <SCORE.heavy>
10

>  <SCORE.norm>
-0.417848

>  <RMSD>
11.957

$$$$
ligand
 OpenBabel11021811473D
libRbt.so/2013.1/901 2013/11/27
 10  9  0  0  0  0  0  0  0  0999 V2000
   26.5368   15.5268    8.7171 N   0  0  0  0  0  0  0  0  0  0  0  0
   26.8714   14.5832    9.8265 C   0  0  2  0  0  0  0  0  0  0  0  0
   28.3827   14.3882    9.9936 C   0  0  0  0  0  0  0  0  0  0  0  0
   28.8869   14.0512   11.0753 O   0  0  0  0  0  0  0  0  0  0  0  0
   26.1567   13.2426    9.6365 C   0  0  0  0  0  0  0  0  0  0  0  0
   24.6508   13.3703    9.6001 C   0  0  0  0  0  0  0  0  0  0  0  0
   24.1039   13.9279   10.8918 C   0  0  0  0  0  0  0  0  0  0  0  0
   22.5794   13.8982   10.9034 C   0  0  0  0  0  0  0  0  0  0  0  0
   21.9623   14.7684    9.8665 N   0  0  0  0  0  0  0  0  0  0  0  0
   29.1513   14.5264    9.0370 O   0  0  0  0  0  0  0  0  0  0  0  0
  2  1  1  6  0  0  0
  2  3  1  0  0  0  0
  2  5  1  0  0  0  0
  3  4  1  0  0  0  0
  3 10  1  0  0  0  0
  5  6  1  0  0  0  0
  6  7  1  0  0  0  0
  7  8  1  0  0  0  0
  8  9  1  0  0  0  0
M  END
>  <CHROM.1>
154.57791595,-59.59523379,-61.52366114,-173.33007648,-64.07436260,25.97329389
14.22493086,9.95816669,0.09470883,0.01159911,-0.96632314

>  <Name>
ligand

>  <RI>
0

>  <Rbt.Current_Directory>
/home/itssahil/PROJECTS/Mol_Feturizer/New_Systems/rnas/3DIY

>  <Rbt.Executable>
rbdock ($Id: //depot/dev/client3/rdock/2013.1/src/exe/rbdock.cxx#4 $)

>  <Rbt.Library>
libRbt.so (2013.1, Build901 2013/11/27)

>  <Rbt.Parameter_File>
/export/apps/rDock/src/rDock_2013.1_src/data/scripts/dock_solv.prm

>  <Rbt.Receptor>
prm/blind_docking_40.prm

>  <SCORE>
-3.50065

>  <SCORE.INTER>
-3.74572

>  <SCORE.INTER.CONST>
1

>  <SCORE.INTER.POLAR>
0

>  <SCORE.INTER.ROT>
5

>  <SCORE.INTER.SOLV>
12.4219

>  <SCORE.INTER.VDW>
-13.5711

>  <SCORE.INTER.norm>
-0.374572

>  <SCORE.INTRA>
0.245061

>  <SCORE.INTRA.DIHEDRAL>
-0.842465

>  <SCORE.INTRA.DIHEDRAL.0>
2.56603

>  <SCORE.INTRA.POLAR>
0

>  <SCORE.INTRA.POLAR.0>
0

>  <SCORE.INTRA.REPUL>
0

>  <SCORE.INTRA.REPUL.0>
0

>  <SCORE.INTRA.SOLV>
0.782305

>  <SCORE.INTRA.SOLV.lig_0>
-32.0799

>  <SCORE.INTRA.VDW>
0.275141

>  <SCORE.INTRA.VDW.0>
-0.618248

>  <SCORE.INTRA.norm>
0.0245061

>  <SCORE.RESTR>
0

>  <SCORE.RESTR.CAVITY>
0

>  <SCORE.RESTR.norm>
0

>  <SCORE.SYSTEM>
0

>  <SCORE.SYSTEM.CONST>
0

>  <SCORE.SYSTEM.DIHEDRAL>
0

>  <SCORE.SYSTEM.SOLV>
0

>  <SCORE.SYSTEM.norm>
0

>  <SCORE.heavy>
10

>  <SCORE.norm>
-0.350065

>  <RMSD>
11.966

$$$$
ligand
 OpenBabel11021811473D
libRbt.so/2013.1/901 2013/11/27
 10  9  0  0  0  0  0  0  0  0999 V2000
   28.1877   15.9146   10.4878 N   0  0  0  0  0  0  0  0  0  0  0  0
   28.4870   14.5905    9.8631 C   0  0  2  0  0  0  0  0  0  0  0  0
   28.8081   14.7075    8.3687 C   0  0  0  0  0  0  0  0  0  0  0  0
   29.8869   15.1639    7.9614 O   0  0  0  0  0  0  0  0  0  0  0  0
   27.3453   13.6006   10.1094 C   0  0  0  0  0  0  0  0  0  0  0  0
   25.9950   14.1308    9.6838 C   0  0  0  0  0  0  0  0  0  0  0  0
   24.9275   13.0659    9.7522 C   0  0  0  0  0  0  0  0  0  0  0  0
   23.5567   13.6363    9.4046 C   0  0  0  0  0  0  0  0  0  0  0  0
   23.0476   14.6082   10.4093 N   0  0  0  0  0  0  0  0  0  0  0  0
   28.0091   14.3130    7.5138 O   0  0  0  0  0  0  0  0  0  0  0  0
  2  1  1  6  0  0  0
  2  3  1  0  0  0  0
  2  5  1  0  0  0  0
  3  4  1  0  0  0  0
  3 10  1  0  0  0  0
  5  6  1  0  0  0  0
  6  7  1  0  0  0  0
  7  8  1  0  0  0  0
  8  9  1  0  0  0  0
M  END
>  <CHROM.1>
73.91015487,53.37598078,171.73495843,176.44707492,-67.14633227,26.84459547
14.37676666,9.32034540,-0.15131163,0.28125735,1.15169708

>  <Name>
ligand

>  <RI>
0

>  <Rbt.Current_Directory>
/home/itssahil/PROJECTS/Mol_Feturizer/New_Systems/rnas/3DIY

>  <Rbt.Executable>
rbdock ($Id: //depot/dev/client3/rdock/2013.1/src/exe/rbdock.cxx#4 $)

>  <Rbt.Library>
libRbt.so (2013.1, Build901 2013/11/27)

>  <Rbt.Parameter_File>
/export/apps/rDock/src/rDock_2013.1_src/data/scripts/dock_solv.prm

>  <Rbt.Receptor>
prm/blind_docking_100.prm

>  <SCORE>
-3.10082

>  <SCORE.INTER>
-3.79416

>  <SCORE.INTER.CONST>
1

>  <SCORE.INTER.POLAR>
0

>  <SCORE.INTER.ROT>
5

>  <SCORE.INTER.SOLV>
13.4462

>  <SCORE.INTER.VDW>
-13.9448

>  <SCORE.INTER.norm>
-0.379416

>  <SCORE.INTRA>
0.693339

>  <SCORE.INTRA.DIHEDRAL>
-0.268315

>  <SCORE.INTRA.DIHEDRAL.0>
2.56603

>  <SCORE.INTRA.POLAR>
0

>  <SCORE.INTRA.POLAR.0>
0

>  <SCORE.INTRA.REPUL>
0

>  <SCORE.INTRA.REPUL.0>
0

>  <SCORE.INTRA.SOLV>
0.213767

>  <SCORE.INTRA.SOLV.lig_0>
-32.0799

>  <SCORE.INTRA.VDW>
0.720613

>  <SCORE.INTRA.VDW.0>
-0.618248

>  <SCORE.INTRA.norm>
0.0693339

>  <SCORE.RESTR>
0

>  <SCORE.RESTR.CAVITY>
0

>  <SCORE.RESTR.norm>
0

>  <SCORE.SYSTEM>
0

>  <SCORE.SYSTEM.CONST>
0

>  <SCORE.SYSTEM.DIHEDRAL>
0

>  <SCORE.SYSTEM.SOLV>
0

>  <SCORE.SYSTEM.norm>
0

>  <SCORE.heavy>
10

>  <SCORE.norm>
-0.310082

>  <RMSD>
12.269

$$$$
ligand
 OpenBabel11021811473D
libRbt.so/2013.1/901 2013/11/27
 10  9  0  0  0  0  0  0  0  0999 V2000
   27.7402   14.8115   11.8085 N   0  0  0  0  0  0  0  0  0  0  0  0
   27.6376   14.2912   10.4114 C   0  0  2  0  0  0  0  0  0  0  0  0
   28.3754   15.1771    9.4010 C   0  0  0  0  0  0  0  0  0  0  0  0
   29.1744   14.7092    8.5760 O   0  0  0  0  0  0  0  0  0  0  0  0
   26.1736   14.0922   10.0096 C   0  0  0  0  0  0  0  0  0  0  0  0
   26.0103   13.3528    8.7012 C   0  0  0  0  0  0  0  0  0  0  0  0
   24.6055   13.4711    8.1619 C   0  0  0  0  0  0  0  0  0  0  0  0
   24.4172   14.7759    7.3955 C   0  0  0  0  0  0  0  0  0  0  0  0
   24.6095   15.9888    8.2352 N   0  0  0  0  0  0  0  0  0  0  0  0
   28.1683   16.3935    9.3515 O   0  0  0  0  0  0  0  0  0  0  0  0
  2  1  1  1  0  0  0
  2  3  1  0  0  0  0
  2  5  1  0  0  0  0
  3  4  1  0  0  0  0
  3 10  1  0  0  0  0
  5  6  1  0  0  0  0
  6  7  1  0  0  0  0
  7  8  1  0  0  0  0
  8  9  1  0  0  0  0
M  END
>  <CHROM.1>
130.27912172,-170.29848756,-165.75886208,83.07081032,-61.97251855,26.71589400
14.72599189,9.18679340,0.30165828,0.42163560,2.18536173

>  <Name>
ligand

>  <RI>
0

>  <Rbt.Current_Directory>
/home/itssahil/PROJECTS/Mol_Feturizer/New_Systems/rnas/3DIY

>  <Rbt.Executable>
rbdock ($Id: //depot/dev/client3/rdock/2013.1/src/exe/rbdock.cxx#4 $)

>  <Rbt.Library>
libRbt.so (2013.1, Build901 2013/11/27)

>  <Rbt.Parameter_File>
/export/apps/rDock/src/rDock_2013.1_src/data/scripts/dock_solv.prm

>  <Rbt.Receptor>
prm/blind_docking_60.prm

>  <SCORE>
-3.51195

>  <SCORE.INTER>
-4.90665

>  <SCORE.INTER.CONST>
1

>  <SCORE.INTER.POLAR>
0

>  <SCORE.INTER.ROT>
5

>  <SCORE.INTER.SOLV>
13.9978

>  <SCORE.INTER.VDW>
-14.8704

>  <SCORE.INTER.norm>
-0.490665

>  <SCORE.INTRA>
1.39469

>  <SCORE.INTRA.DIHEDRAL>
2.07526

>  <SCORE.INTRA.DIHEDRAL.0>
2.56603

>  <SCORE.INTRA.POLAR>
0

>  <SCORE.INTRA.POLAR.0>
0

>  <SCORE.INTRA.REPUL>
0

>  <SCORE.INTRA.REPUL.0>
0

>  <SCORE.INTRA.SOLV>
0.909455

>  <SCORE.INTRA.SOLV.lig_0>
-32.0799

>  <SCORE.INTRA.VDW>
-0.097664

>  <SCORE.INTRA.VDW.0>
-0.618248

>  <SCORE.INTRA.norm>
0.139469

>  <SCORE.RESTR>
0

>  <SCORE.RESTR.CAVITY>
0

>  <SCORE.RESTR.norm>
0

>  <SCORE.SYSTEM>
0

>  <SCORE.SYSTEM.CONST>
0

>  <SCORE.SYSTEM.DIHEDRAL>
0

>  <SCORE.SYSTEM.SOLV>
0

>  <SCORE.SYSTEM.norm>
0

>  <SCORE.heavy>
10

>  <SCORE.norm>
-0.351195

>  <RMSD>
12.398

$$$$
ligand
 OpenBabel11021811473D
libRbt.so/2013.1/901 2013/11/27
 10  9  0  0  0  0  0  0  0  0999 V2000
   27.9293   14.8737   11.9019 N   0  0  0  0  0  0  0  0  0  0  0  0
   27.7186   14.3074   10.5352 C   0  0  2  0  0  0  0  0  0  0  0  0
   28.3361   15.1815    9.4376 C   0  0  0  0  0  0  0  0  0  0  0  0
   28.0703   16.3880    9.3302 O   0  0  0  0  0  0  0  0  0  0  0  0
   26.2313   14.0553   10.2726 C   0  0  0  0  0  0  0  0  0  0  0  0
   25.9804   13.1575    9.0825 C   0  0  0  0  0  0  0  0  0  0  0  0
   26.2594   13.8643    7.7783 C   0  0  0  0  0  0  0  0  0  0  0  0
   25.9993   12.9475    6.5879 C   0  0  0  0  0  0  0  0  0  0  0  0
   26.3827   13.5489    5.2823 N   0  0  0  0  0  0  0  0  0  0  0  0
   29.1547   14.7156    8.6390 O   0  0  0  0  0  0  0  0  0  0  0  0
  2  1  1  1  0  0  0
  2  3  1  0  0  0  0
  2  5  1  0  0  0  0
  3  4  1  0  0  0  0
  3 10  1  0  0  0  0
  5  6  1  0  0  0  0
  6  7  1  0  0  0  0
  7  8  1  0  0  0  0
  8  9  1  0  0  0  0
M  END
>  <CHROM.1>
-53.87746052,-164.63603902,-72.62951937,-179.88521159,-174.44638404,27.22574116
14.32633465,8.86794148,1.07887136,0.68127763,1.51077815

>  <Name>
ligand

>  <RI>
0

>  <Rbt.Current_Directory>
/home/itssahil/PROJECTS/Mol_Feturizer/New_Systems/rnas/3DIY

>  <Rbt.Executable>
rbdock ($Id: //depot/dev/client3/rdock/2013.1/src/exe/rbdock.cxx#4 $)

>  <Rbt.Library>
libRbt.so (2013.1, Build901 2013/11/27)

>  <Rbt.Parameter_File>
/export/apps/rDock/src/rDock_2013.1_src/data/scripts/dock_solv.prm

>  <Rbt.Receptor>
prm/blind_docking_60.prm

>  <SCORE>
-5.27523

>  <SCORE.INTER>
-4.87153

>  <SCORE.INTER.CONST>
1

>  <SCORE.INTER.POLAR>
0

>  <SCORE.INTER.ROT>
5

>  <SCORE.INTER.SOLV>
11.8027

>  <SCORE.INTER.VDW>
-14.1152

>  <SCORE.INTER.norm>
-0.487153

>  <SCORE.INTRA>
-0.403691

>  <SCORE.INTRA.DIHEDRAL>
0.582419

>  <SCORE.INTRA.DIHEDRAL.0>
2.56603

>  <SCORE.INTRA.POLAR>
0

>  <SCORE.INTRA.POLAR.0>
0

>  <SCORE.INTRA.REPUL>
0

>  <SCORE.INTRA.REPUL.0>
0

>  <SCORE.INTRA.SOLV>
-1.45877

>  <SCORE.INTRA.SOLV.lig_0>
-32.0799

>  <SCORE.INTRA.VDW>
0.0344839

>  <SCORE.INTRA.VDW.0>
-0.618248

>  <SCORE.INTRA.norm>
-0.0403691

>  <SCORE.RESTR>
0

>  <SCORE.RESTR.CAVITY>
0

>  <SCORE.RESTR.norm>
0

>  <SCORE.SYSTEM>
0

>  <SCORE.SYSTEM.CONST>
0

>  <SCORE.SYSTEM.DIHEDRAL>
0

>  <SCORE.SYSTEM.SOLV>
0

>  <SCORE.SYSTEM.norm>
0

>  <SCORE.heavy>
10

>  <SCORE.norm>
-0.527523

>  <RMSD>
12.655

$$$$
ligand
 OpenBabel11021811473D
libRbt.so/2013.1/901 2013/11/27
 10  9  0  0  0  0  0  0  0  0999 V2000
   28.2179   16.0418    9.2661 N   0  0  0  0  0  0  0  0  0  0  0  0
   27.1449   15.4490   10.1207 C   0  0  2  0  0  0  0  0  0  0  0  0
   27.6908   14.4171   11.1142 C   0  0  0  0  0  0  0  0  0  0  0  0
   27.1746   14.2387   12.2276 O   0  0  0  0  0  0  0  0  0  0  0  0
   26.0283   14.8530    9.2591 C   0  0  0  0  0  0  0  0  0  0  0  0
   26.5307   13.8576    8.2382 C   0  0  0  0  0  0  0  0  0  0  0  0
   25.5455   13.6650    7.1109 C   0  0  0  0  0  0  0  0  0  0  0  0
   26.0345   12.6086    6.1260 C   0  0  0  0  0  0  0  0  0  0  0  0
   27.3478   12.9370    5.5089 N   0  0  0  0  0  0  0  0  0  0  0  0
   28.6500   13.6970   10.8204 O   0  0  0  0  0  0  0  0  0  0  0  0
  2  1  1  6  0  0  0
  2  3  1  0  0  0  0
  2  5  1  0  0  0  0
  3  4  1  0  0  0  0
  3 10  1  0  0  0  0
  5  6  1  0  0  0  0
  6  7  1  0  0  0  0
  7  8  1  0  0  0  0
  8  9  1  0  0  0  0
M  END
>  <CHROM.1>
148.32910211,54.06316154,-159.54497568,-177.19690151,-59.16302743,27.05064946
14.15802403,9.01216690,-1.30335656,0.39065134,-1.96738845

>  <Name>
ligand

>  <RI>
0

>  <Rbt.Current_Directory>
/home/itssahil/PROJECTS/Mol_Feturizer/New_Systems/rnas/3DIY

>  <Rbt.Executable>
rbdock ($Id: //depot/dev/client3/rdock/2013.1/src/exe/rbdock.cxx#4 $)

>  <Rbt.Library>
libRbt.so (2013.1, Build901 2013/11/27)

>  <Rbt.Parameter_File>
/export/apps/rDock/src/rDock_2013.1_src/data/scripts/dock_solv.prm

>  <Rbt.Receptor>
prm/blind_docking_60.prm

>  <SCORE>
-3.63822

>  <SCORE.INTER>
-4.19245

>  <SCORE.INTER.CONST>
1

>  <SCORE.INTER.POLAR>
0

>  <SCORE.INTER.ROT>
5

>  <SCORE.INTER.SOLV>
9.28322

>  <SCORE.INTER.VDW>
-12.8227

>  <SCORE.INTER.norm>
-0.419245

>  <SCORE.INTRA>
0.554236

>  <SCORE.INTRA.DIHEDRAL>
0.683582

>  <SCORE.INTRA.DIHEDRAL.0>
2.56603

>  <SCORE.INTRA.POLAR>
0

>  <SCORE.INTRA.POLAR.0>
0

>  <SCORE.INTRA.REPUL>
0

>  <SCORE.INTRA.REPUL.0>
0

>  <SCORE.INTRA.SOLV>
0.466775

>  <SCORE.INTRA.SOLV.lig_0>
-32.0799

>  <SCORE.INTRA.VDW>
-0.0209424

>  <SCORE.INTRA.VDW.0>
-0.618248

>  <SCORE.INTRA.norm>
0.0554236

>  <SCORE.RESTR>
0

>  <SCORE.RESTR.CAVITY>
0

>  <SCORE.RESTR.norm>
0

>  <SCORE.SYSTEM>
0

>  <SCORE.SYSTEM.CONST>
0

>  <SCORE.SYSTEM.DIHEDRAL>
0

>  <SCORE.SYSTEM.SOLV>
0

>  <SCORE.SYSTEM.norm>
0

>  <SCORE.heavy>
10

>  <SCORE.norm>
-0.363822

>  <RMSD>
12.666

$$$$
ligand
 OpenBabel11021811473D
libRbt.so/2013.1/901 2013/11/27
 10  9  0  0  0  0  0  0  0  0999 V2000
   27.8396   14.8728   11.9098 N   0  0  0  0  0  0  0  0  0  0  0  0
   27.6698   14.3120   10.5351 C   0  0  2  0  0  0  0  0  0  0  0  0
   28.3343   15.1817    9.4618 C   0  0  0  0  0  0  0  0  0  0  0  0
   29.1597   14.7203    8.6593 O   0  0  0  0  0  0  0  0  0  0  0  0
   26.1898   14.0771   10.2209 C   0  0  0  0  0  0  0  0  0  0  0  0
   25.9701   13.1813    9.0231 C   0  0  0  0  0  0  0  0  0  0  0  0
   26.2940   13.8867    7.7285 C   0  0  0  0  0  0  0  0  0  0  0  0
   26.1334   12.9505    6.5356 C   0  0  0  0  0  0  0  0  0  0  0  0
   26.5301   13.5672    5.2412 N   0  0  0  0  0  0  0  0  0  0  0  0
   28.0389   16.3742    9.3368 O   0  0  0  0  0  0  0  0  0  0  0  0
  2  1  1  1  0  0  0
  2  3  1  0  0  0  0
  2  5  1  0  0  0  0
  3  4  1  0  0  0  0
  3 10  1  0  0  0  0
  5  6  1  0  0  0  0
  6  7  1  0  0  0  0
  7  8  1  0  0  0  0
  8  9  1  0  0  0  0
M  END
>  <CHROM.1>
125.64971122,-164.45129350,-73.00719801,177.21932084,-176.03660745,27.23544570
14.33452648,8.84854865,1.13550614,0.67240857,1.47824320

>  <Name>
ligand

>  <RI>
0

>  <Rbt.Current_Directory>
/home/itssahil/PROJECTS/Mol_Feturizer/New_Systems/rnas/3DIY

>  <Rbt.Executable>
rbdock ($Id: //depot/dev/client3/rdock/2013.1/src/exe/rbdock.cxx#4 $)

>  <Rbt.Library>
libRbt.so (2013.1, Build901 2013/11/27)

>  <Rbt.Parameter_File>
/export/apps/rDock/src/rDock_2013.1_src/data/scripts/dock_solv.prm

>  <Rbt.Receptor>
prm/blind_docking_40.prm

>  <SCORE>
-5.30032

>  <SCORE.INTER>
-4.87756

>  <SCORE.INTER.CONST>
1

>  <SCORE.INTER.POLAR>
0

>  <SCORE.INTER.ROT>
5

>  <SCORE.INTER.SOLV>
11.4498

>  <SCORE.INTER.VDW>
-14.0016

>  <SCORE.INTER.norm>
-0.487756

>  <SCORE.INTRA>
-0.422763

>  <SCORE.INTRA.DIHEDRAL>
0.584235

>  <SCORE.INTRA.DIHEDRAL.0>
2.56603

>  <SCORE.INTRA.POLAR>
0

>  <SCORE.INTRA.POLAR.0>
0

>  <SCORE.INTRA.REPUL>
0

>  <SCORE.INTRA.REPUL.0>
0

>  <SCORE.INTRA.SOLV>
-1.47401

>  <SCORE.INTRA.SOLV.lig_0>
-32.0799

>  <SCORE.INTRA.VDW>
0.0221215

>  <SCORE.INTRA.VDW.0>
-0.618248

>  <SCORE.INTRA.norm>
-0.0422763

>  <SCORE.RESTR>
0

>  <SCORE.RESTR.CAVITY>
0

>  <SCORE.RESTR.norm>
0

>  <SCORE.SYSTEM>
0

>  <SCORE.SYSTEM.CONST>
0

>  <SCORE.SYSTEM.DIHEDRAL>
0

>  <SCORE.SYSTEM.SOLV>
0

>  <SCORE.SYSTEM.norm>
0

>  <SCORE.heavy>
10

>  <SCORE.norm>
-0.530032

>  <RMSD>
12.678

$$$$
ligand
 OpenBabel11021811473D
libRbt.so/2013.1/901 2013/11/27
 10  9  0  0  0  0  0  0  0  0999 V2000
   28.5182   14.4465   11.5698 N   0  0  0  0  0  0  0  0  0  0  0  0
   27.4771   15.0766   10.7026 C   0  0  2  0  0  0  0  0  0  0  0  0
   26.3441   14.1064   10.3490 C   0  0  0  0  0  0  0  0  0  0  0  0
   26.5656   12.9469    9.9690 O   0  0  0  0  0  0  0  0  0  0  0  0
   28.1069   15.6769    9.4428 C   0  0  0  0  0  0  0  0  0  0  0  0
   28.7497   14.6423    8.5473 C   0  0  0  0  0  0  0  0  0  0  0  0
   29.6072   15.2791    7.4807 C   0  0  0  0  0  0  0  0  0  0  0  0
   29.8358   14.3238    6.3143 C   0  0  0  0  0  0  0  0  0  0  0  0
   28.5889   13.9740    5.5822 N   0  0  0  0  0  0  0  0  0  0  0  0
   25.1611   14.4400   10.4673 O   0  0  0  0  0  0  0  0  0  0  0  0
  2  1  1  6  0  0  0
  2  3  1  0  0  0  0
  2  5  1  0  0  0  0
  3  4  1  0  0  0  0
  3 10  1  0  0  0  0
  5  6  1  0  0  0  0
  6  7  1  0  0  0  0
  7  8  1  0  0  0  0
  8  9  1  0  0  0  0
M  END
>  <CHROM.1>
-46.08075739,63.63296246,-167.83160962,-159.57892509,64.25792098,27.86359907
14.47034754,9.04498400,-2.22613700,-0.43112538,-1.82280926

>  <Name>
ligand

>  <RI>
0

>  <Rbt.Current_Directory>
/home/itssahil/PROJECTS/Mol_Feturizer/New_Systems/rnas/3DIY

>  <Rbt.Executable>
rbdock ($Id: //depot/dev/client3/rdock/2013.1/src/exe/rbdock.cxx#4 $)

>  <Rbt.Library>
libRbt.so (2013.1, Build901 2013/11/27)

>  <Rbt.Parameter_File>
/export/apps/rDock/src/rDock_2013.1_src/data/scripts/dock_solv.prm

>  <Rbt.Receptor>
prm/blind_docking_40.prm

>  <SCORE>
-4.33148

>  <SCORE.INTER>
-5.12956

>  <SCORE.INTER.CONST>
1

>  <SCORE.INTER.POLAR>
0

>  <SCORE.INTER.ROT>
5

>  <SCORE.INTER.SOLV>
12.0927

>  <SCORE.INTER.VDW>
-14.384

>  <SCORE.INTER.norm>
-0.512956

>  <SCORE.INTRA>
0.798083

>  <SCORE.INTRA.DIHEDRAL>
1.31636

>  <SCORE.INTRA.DIHEDRAL.0>
2.56603

>  <SCORE.INTRA.POLAR>
0

>  <SCORE.INTRA.POLAR.0>
0

>  <SCORE.INTRA.REPUL>
0

>  <SCORE.INTRA.REPUL.0>
0

>  <SCORE.INTRA.SOLV>
0.373058

>  <SCORE.INTRA.SOLV.lig_0>
-32.0799

>  <SCORE.INTRA.VDW>
-0.0466271

>  <SCORE.INTRA.VDW.0>
-0.618248

>  <SCORE.INTRA.norm>
0.0798083

>  <SCORE.RESTR>
0

>  <SCORE.RESTR.CAVITY>
0

>  <SCORE.RESTR.norm>
0

>  <SCORE.SYSTEM>
0

>  <SCORE.SYSTEM.CONST>
0

>  <SCORE.SYSTEM.DIHEDRAL>
0

>  <SCORE.SYSTEM.SOLV>
0

>  <SCORE.SYSTEM.norm>
0

>  <SCORE.heavy>
10

>  <SCORE.norm>
-0.433148

>  <RMSD>
12.787

$$$$
ligand
 OpenBabel11021811473D
libRbt.so/2013.1/901 2013/11/27
 10  9  0  0  0  0  0  0  0  0999 V2000
   28.2832   14.5585   11.5935 N   0  0  0  0  0  0  0  0  0  0  0  0
   27.9742   14.1430   10.1918 C   0  0  2  0  0  0  0  0  0  0  0  0
   28.3986   15.1961    9.1618 C   0  0  0  0  0  0  0  0  0  0  0  0
   27.9959   16.3679    9.2149 O   0  0  0  0  0  0  0  0  0  0  0  0
   26.4927   13.7864   10.0425 C   0  0  0  0  0  0  0  0  0  0  0  0
   26.1610   13.1677    8.7037 C   0  0  0  0  0  0  0  0  0  0  0  0
   26.0209   14.2119    7.6227 C   0  0  0  0  0  0  0  0  0  0  0  0
   25.7705   13.5679    6.2634 C   0  0  0  0  0  0  0  0  0  0  0  0
   26.9318   12.7904    5.7535 N   0  0  0  0  0  0  0  0  0  0  0  0
   29.1923   14.9177    8.2577 O   0  0  0  0  0  0  0  0  0  0  0  0
  2  1  1  1  0  0  0
  2  3  1  0  0  0  0
  2  5  1  0  0  0  0
  3  4  1  0  0  0  0
  3 10  1  0  0  0  0
  5  6  1  0  0  0  0
  6  7  1  0  0  0  0
  7  8  1  0  0  0  0
  8  9  1  0  0  0  0
M  END
>  <CHROM.1>
-55.97358223,-171.59314502,-80.02134613,176.54966905,-67.12985797,27.33755432
14.29697600,8.66444722,0.98051673,0.69560148,1.56727964

>  <Name>
ligand

>  <RI>
0

>  <Rbt.Current_Directory>
/home/itssahil/PROJECTS/Mol_Feturizer/New_Systems/rnas/3DIY

>  <Rbt.Executable>
rbdock ($Id: //depot/dev/client3/rdock/2013.1/src/exe/rbdock.cxx#4 $)

>  <Rbt.Library>
libRbt.so (2013.1, Build901 2013/11/27)

>  <Rbt.Parameter_File>
/export/apps/rDock/src/rDock_2013.1_src/data/scripts/dock_solv.prm

>  <Rbt.Receptor>
prm/blind_docking_40.prm

>  <SCORE>
-5.07095

>  <SCORE.INTER>
-5.15991

>  <SCORE.INTER.CONST>
1

>  <SCORE.INTER.POLAR>
0

>  <SCORE.INTER.ROT>
5

>  <SCORE.INTER.SOLV>
10.53

>  <SCORE.INTER.VDW>
-13.8833

>  <SCORE.INTER.norm>
-0.515991

>  <SCORE.INTRA>
0.0889604

>  <SCORE.INTRA.DIHEDRAL>
1.00287

>  <SCORE.INTRA.DIHEDRAL.0>
2.56603

>  <SCORE.INTRA.POLAR>
0

>  <SCORE.INTRA.POLAR.0>
0

>  <SCORE.INTRA.REPUL>
0

>  <SCORE.INTRA.REPUL.0>
0

>  <SCORE.INTRA.SOLV>
-0.614484

>  <SCORE.INTRA.SOLV.lig_0>
-32.0799

>  <SCORE.INTRA.VDW>
-0.105231

>  <SCORE.INTRA.VDW.0>
-0.618248

>  <SCORE.INTRA.norm>
0.00889604

>  <SCORE.RESTR>
0

>  <SCORE.RESTR.CAVITY>
0

>  <SCORE.RESTR.norm>
0

>  <SCORE.SYSTEM>
0

>  <SCORE.SYSTEM.CONST>
0

>  <SCORE.SYSTEM.DIHEDRAL>
0

>  <SCORE.SYSTEM.SOLV>
0

>  <SCORE.SYSTEM.norm>
0

>  <SCORE.heavy>
10

>  <SCORE.norm>
-0.507095

>  <RMSD>
12.804

$$$$
ligand
 OpenBabel11021811473D
libRbt.so/2013.1/901 2013/11/27
 10  9  0  0  0  0  0  0  0  0999 V2000
   25.9508   14.6080   11.2828 N   0  0  0  0  0  0  0  0  0  0  0  0
   27.0504   14.0071   10.4687 C   0  0  2  0  0  0  0  0  0  0  0  0
   28.1418   15.0246   10.1169 C   0  0  0  0  0  0  0  0  0  0  0  0
   28.1313   16.1814   10.5639 O   0  0  0  0  0  0  0  0  0  0  0  0
   26.4931   13.3344    9.2113 C   0  0  0  0  0  0  0  0  0  0  0  0
   25.7821   14.2962    8.2866 C   0  0  0  0  0  0  0  0  0  0  0  0
   25.4196   13.6467    6.9732 C   0  0  0  0  0  0  0  0  0  0  0  0
   26.6598   13.3929    6.1230 C   0  0  0  0  0  0  0  0  0  0  0  0
   26.3596   12.7520    4.8144 N   0  0  0  0  0  0  0  0  0  0  0  0
   29.0961   14.7108    9.3988 O   0  0  0  0  0  0  0  0  0  0  0  0
  2  1  1  6  0  0  0
  2  3  1  0  0  0  0
  2  5  1  0  0  0  0
  3  4  1  0  0  0  0
  3 10  1  0  0  0  0
  5  6  1  0  0  0  0
  6  7  1  0  0  0  0
  7  8  1  0  0  0  0
  8  9  1  0  0  0  0
M  END
>  <CHROM.1>
5.20436215,61.55782323,171.85145390,-71.01435933,179.97011993,26.93772076
14.22002654,8.72693837,1.26040656,0.33410863,1.28561501

>  <Name>
ligand

>  <RI>
0

>  <Rbt.Current_Directory>
/home/itssahil/PROJECTS/Mol_Feturizer/New_Systems/rnas/3DIY

>  <Rbt.Executable>
rbdock ($Id: //depot/dev/client3/rdock/2013.1/src/exe/rbdock.cxx#4 $)

>  <Rbt.Library>
libRbt.so (2013.1, Build901 2013/11/27)

>  <Rbt.Parameter_File>
/export/apps/rDock/src/rDock_2013.1_src/data/scripts/dock_solv.prm

>  <Rbt.Receptor>
prm/blind_docking_40.prm

>  <SCORE>
-3.70191

>  <SCORE.INTER>
-3.88462

>  <SCORE.INTER.CONST>
1

>  <SCORE.INTER.POLAR>
0

>  <SCORE.INTER.ROT>
5

>  <SCORE.INTER.SOLV>
10.2846

>  <SCORE.INTER.VDW>
-12.9513

>  <SCORE.INTER.norm>
-0.388462

>  <SCORE.INTRA>
0.182713

>  <SCORE.INTRA.DIHEDRAL>
-0.264351

>  <SCORE.INTRA.DIHEDRAL.0>
2.56603

>  <SCORE.INTRA.POLAR>
0

>  <SCORE.INTRA.POLAR.0>
0

>  <SCORE.INTRA.REPUL>
0

>  <SCORE.INTRA.REPUL.0>
0

>  <SCORE.INTRA.SOLV>
-0.50059

>  <SCORE.INTRA.SOLV.lig_0>
-32.0799

>  <SCORE.INTRA.VDW>
0.565183

>  <SCORE.INTRA.VDW.0>
-0.618248

>  <SCORE.INTRA.norm>
0.0182713

>  <SCORE.RESTR>
0

>  <SCORE.RESTR.CAVITY>
0

>  <SCORE.RESTR.norm>
0

>  <SCORE.SYSTEM>
0

>  <SCORE.SYSTEM.CONST>
0

>  <SCORE.SYSTEM.DIHEDRAL>
0

>  <SCORE.SYSTEM.SOLV>
0

>  <SCORE.SYSTEM.norm>
0

>  <SCORE.heavy>
10

>  <SCORE.norm>
-0.370191

>  <RMSD>
12.929

$$$$
ligand
 OpenBabel11021811473D
libRbt.so/2013.1/901 2013/11/27
 10  9  0  0  0  0  0  0  0  0999 V2000
   26.9989   14.0759   11.6821 N   0  0  0  0  0  0  0  0  0  0  0  0
   27.4292   14.2848   10.2664 C   0  0  2  0  0  0  0  0  0  0  0  0
   27.9911   15.6908   10.0266 C   0  0  0  0  0  0  0  0  0  0  0  0
   28.0348   16.5439   10.9257 O   0  0  0  0  0  0  0  0  0  0  0  0
   26.2862   13.9714    9.2971 C   0  0  0  0  0  0  0  0  0  0  0  0
   26.7196   13.9602    7.8488 C   0  0  0  0  0  0  0  0  0  0  0  0
   25.5869   13.5773    6.9275 C   0  0  0  0  0  0  0  0  0  0  0  0
   26.0388   13.5720    5.4711 C   0  0  0  0  0  0  0  0  0  0  0  0
   27.1102   12.5797    5.1871 N   0  0  0  0  0  0  0  0  0  0  0  0
   28.4567   16.0108    8.9286 O   0  0  0  0  0  0  0  0  0  0  0  0
  2  1  1  1  0  0  0
  2  3  1  0  0  0  0
  2  5  1  0  0  0  0
  3  4  1  0  0  0  0
  3 10  1  0  0  0  0
  5  6  1  0  0  0  0
  6  7  1  0  0  0  0
  7  8  1  0  0  0  0
  8  9  1  0  0  0  0
M  END
>  <CHROM.1>
-1.73514216,-171.21892798,177.00347368,179.93165376,62.22299566,27.08242229
14.46168721,8.66064663,1.15078267,0.90618775,1.47203753

>  <Name>
ligand

>  <RI>
0

>  <Rbt.Current_Directory>
/home/itssahil/PROJECTS/Mol_Feturizer/New_Systems/rnas/3DIY

>  <Rbt.Executable>
rbdock ($Id: //depot/dev/client3/rdock/2013.1/src/exe/rbdock.cxx#4 $)

>  <Rbt.Library>
libRbt.so (2013.1, Build901 2013/11/27)

>  <Rbt.Parameter_File>
/export/apps/rDock/src/rDock_2013.1_src/data/scripts/dock_solv.prm

>  <Rbt.Receptor>
prm/blind_docking_40.prm

>  <SCORE>
-4.31469

>  <SCORE.INTER>
-3.96828

>  <SCORE.INTER.CONST>
1

>  <SCORE.INTER.POLAR>
0

>  <SCORE.INTER.ROT>
5

>  <SCORE.INTER.SOLV>
10.6805

>  <SCORE.INTER.VDW>
-13.139

>  <SCORE.INTER.norm>
-0.396828

>  <SCORE.INTRA>
-0.346403

>  <SCORE.INTRA.DIHEDRAL>
-0.685021

>  <SCORE.INTRA.DIHEDRAL.0>
2.56603

>  <SCORE.INTRA.POLAR>
0

>  <SCORE.INTRA.POLAR.0>
0

>  <SCORE.INTRA.REPUL>
0

>  <SCORE.INTRA.REPUL.0>
0

>  <SCORE.INTRA.SOLV>
-0.670028

>  <SCORE.INTRA.SOLV.lig_0>
-32.0799

>  <SCORE.INTRA.VDW>
0.331121

>  <SCORE.INTRA.VDW.0>
-0.618248

>  <SCORE.INTRA.norm>
-0.0346403

>  <SCORE.RESTR>
0

>  <SCORE.RESTR.CAVITY>
0

>  <SCORE.RESTR.norm>
0

>  <SCORE.SYSTEM>
0

>  <SCORE.SYSTEM.CONST>
0

>  <SCORE.SYSTEM.DIHEDRAL>
0

>  <SCORE.SYSTEM.SOLV>
0

>  <SCORE.SYSTEM.norm>
0

>  <SCORE.heavy>
10

>  <SCORE.norm>
-0.431469

>  <RMSD>
12.932

$$$$
ligand
 OpenBabel11021811473D
libRbt.so/2013.1/901 2013/11/27
 10  9  0  0  0  0  0  0  0  0999 V2000
   25.3050   14.0432   10.5676 N   0  0  0  0  0  0  0  0  0  0  0  0
   26.6475   13.6410   10.0490 C   0  0  2  0  0  0  0  0  0  0  0  0
   27.7939   14.1749   10.9155 C   0  0  0  0  0  0  0  0  0  0  0  0
   27.5891   14.7607   11.9892 O   0  0  0  0  0  0  0  0  0  0  0  0
   26.8155   14.0611    8.5863 C   0  0  0  0  0  0  0  0  0  0  0  0
   25.8376   13.3813    7.6552 C   0  0  0  0  0  0  0  0  0  0  0  0
   26.0564   13.7879    6.2182 C   0  0  0  0  0  0  0  0  0  0  0  0
   27.3539   13.2026    5.6712 C   0  0  0  0  0  0  0  0  0  0  0  0
   27.6176   13.5691    4.2536 N   0  0  0  0  0  0  0  0  0  0  0  0
   28.9719   14.0048   10.5867 O   0  0  0  0  0  0  0  0  0  0  0  0
  2  1  1  1  0  0  0
  2  3  1  0  0  0  0
  2  5  1  0  0  0  0
  3  4  1  0  0  0  0
  3 10  1  0  0  0  0
  5  6  1  0  0  0  0
  6  7  1  0  0  0  0
  7  8  1  0  0  0  0
  8  9  1  0  0  0  0
M  END
>  <CHROM.1>
6.43859694,-63.23774532,-178.37968746,70.34890602,179.81718539,27.02596654
13.87434724,8.68100597,1.48990260,0.05087505,1.43944479

>  <Name>
ligand

>  <RI>
0

>  <Rbt.Current_Directory>
/home/itssahil/PROJECTS/Mol_Feturizer/New_Systems/rnas/3DIY

>  <Rbt.Executable>
rbdock ($Id: //depot/dev/client3/rdock/2013.1/src/exe/rbdock.cxx#4 $)

>  <Rbt.Library>
libRbt.so (2013.1, Build901 2013/11/27)

>  <Rbt.Parameter_File>
/export/apps/rDock/src/rDock_2013.1_src/data/scripts/dock_solv.prm

>  <Rbt.Receptor>
prm/blind_docking_100.prm

>  <SCORE>
-4.11602

>  <SCORE.INTER>
-4.20324

>  <SCORE.INTER.CONST>
1

>  <SCORE.INTER.POLAR>
0

>  <SCORE.INTER.ROT>
5

>  <SCORE.INTER.SOLV>
6.2189

>  <SCORE.INTER.VDW>
-11.8085

>  <SCORE.INTER.norm>
-0.420324

>  <SCORE.INTRA>
0.0872234

>  <SCORE.INTRA.DIHEDRAL>
-0.543765

>  <SCORE.INTRA.DIHEDRAL.0>
2.56603

>  <SCORE.INTRA.POLAR>
0

>  <SCORE.INTRA.POLAR.0>
0

>  <SCORE.INTRA.REPUL>
0

>  <SCORE.INTRA.REPUL.0>
0

>  <SCORE.INTRA.SOLV>
-0.488332

>  <SCORE.INTRA.SOLV.lig_0>
-32.0799

>  <SCORE.INTRA.VDW>
0.603272

>  <SCORE.INTRA.VDW.0>
-0.618248

>  <SCORE.INTRA.norm>
0.00872234

>  <SCORE.RESTR>
0

>  <SCORE.RESTR.CAVITY>
0

>  <SCORE.RESTR.norm>
0

>  <SCORE.SYSTEM>
0

>  <SCORE.SYSTEM.CONST>
0

>  <SCORE.SYSTEM.DIHEDRAL>
0

>  <SCORE.SYSTEM.SOLV>
0

>  <SCORE.SYSTEM.norm>
0

>  <SCORE.heavy>
10

>  <SCORE.norm>
-0.411602

>  <RMSD>
13.157

$$$$
ligand
 OpenBabel11021811473D
libRbt.so/2013.1/901 2013/11/27
 10  9  0  0  0  0  0  0  0  0999 V2000
   23.9825   13.3335    9.9581 N   0  0  0  0  0  0  0  0  0  0  0  0
   25.0234   14.4016    9.8649 C   0  0  2  0  0  0  0  0  0  0  0  0
   25.2381   14.8860    8.4264 C   0  0  0  0  0  0  0  0  0  0  0  0
   25.3457   14.0970    7.4758 O   0  0  0  0  0  0  0  0  0  0  0  0
   26.3389   13.9378   10.4963 C   0  0  0  0  0  0  0  0  0  0  0  0
   27.3276   15.0619   10.7065 C   0  0  0  0  0  0  0  0  0  0  0  0
   28.6163   14.8224    9.9579 C   0  0  0  0  0  0  0  0  0  0  0  0
   28.4129   14.9584    8.4528 C   0  0  0  0  0  0  0  0  0  0  0  0
   29.6747   14.8483    7.6724 N   0  0  0  0  0  0  0  0  0  0  0  0
   25.2749   16.0913    8.1601 O   0  0  0  0  0  0  0  0  0  0  0  0
  2  1  1  6  0  0  0
  2  3  1  0  0  0  0
  2  5  1  0  0  0  0
  3  4  1  0  0  0  0
  3 10  1  0  0  0  0
  5  6  1  0  0  0  0
  6  7  1  0  0  0  0
  7  8  1  0  0  0  0
  8  9  1  0  0  0  0
M  END
>  <CHROM.1>
-45.49725225,-167.37329230,-120.31482182,70.25979661,175.02056571,26.51856226
14.65483049,9.08541928,-2.98856273,-0.12750537,-1.31850442

>  <Name>
ligand

>  <RI>
0

>  <Rbt.Current_Directory>
/home/itssahil/PROJECTS/Mol_Feturizer/New_Systems/rnas/3DIY

>  <Rbt.Executable>
rbdock ($Id: //depot/dev/client3/rdock/2013.1/src/exe/rbdock.cxx#4 $)

>  <Rbt.Library>
libRbt.so (2013.1, Build901 2013/11/27)

>  <Rbt.Parameter_File>
/export/apps/rDock/src/rDock_2013.1_src/data/scripts/dock_solv.prm

>  <Rbt.Receptor>
prm/blind_docking_40.prm

>  <SCORE>
-1.68803

>  <SCORE.INTER>
-3.95005

>  <SCORE.INTER.CONST>
1

>  <SCORE.INTER.POLAR>
0

>  <SCORE.INTER.ROT>
5

>  <SCORE.INTER.SOLV>
12.7457

>  <SCORE.INTER.VDW>
-13.8153

>  <SCORE.INTER.norm>
-0.395005

>  <SCORE.INTRA>
2.26202

>  <SCORE.INTRA.DIHEDRAL>
6.22831

>  <SCORE.INTRA.DIHEDRAL.0>
2.56603

>  <SCORE.INTRA.POLAR>
0

>  <SCORE.INTRA.POLAR.0>
0

>  <SCORE.INTRA.REPUL>
0

>  <SCORE.INTRA.REPUL.0>
0

>  <SCORE.INTRA.SOLV>
-1.33171

>  <SCORE.INTRA.SOLV.lig_0>
-32.0799

>  <SCORE.INTRA.VDW>
-0.186283

>  <SCORE.INTRA.VDW.0>
-0.618248

>  <SCORE.INTRA.norm>
0.226202

>  <SCORE.RESTR>
0

>  <SCORE.RESTR.CAVITY>
0

>  <SCORE.RESTR.norm>
0

>  <SCORE.SYSTEM>
0

>  <SCORE.SYSTEM.CONST>
0

>  <SCORE.SYSTEM.DIHEDRAL>
0

>  <SCORE.SYSTEM.SOLV>
0

>  <SCORE.SYSTEM.norm>
0

>  <SCORE.heavy>
10

>  <SCORE.norm>
-0.168803

>  <RMSD>
13.157

$$$$
ligand
 OpenBabel11021811473D
libRbt.so/2013.1/901 2013/11/27
 10  9  0  0  0  0  0  0  0  0999 V2000
   26.4260   13.1652   10.1492 N   0  0  0  0  0  0  0  0  0  0  0  0
   27.0755   14.3437    9.4994 C   0  0  2  0  0  0  0  0  0  0  0  0
   27.6831   15.3136   10.5192 C   0  0  0  0  0  0  0  0  0  0  0  0
   28.1033   16.4337   10.1924 O   0  0  0  0  0  0  0  0  0  0  0  0
   26.0956   15.0611    8.5670 C   0  0  0  0  0  0  0  0  0  0  0  0
   25.5981   14.1864    7.4388 C   0  0  0  0  0  0  0  0  0  0  0  0
   26.7130   13.7941    6.5000 C   0  0  0  0  0  0  0  0  0  0  0  0
   26.1847   12.9702    5.3306 C   0  0  0  0  0  0  0  0  0  0  0  0
   27.2362   12.5957    4.3471 N   0  0  0  0  0  0  0  0  0  0  0  0
   27.7409   15.0222   11.7178 O   0  0  0  0  0  0  0  0  0  0  0  0
  2  1  1  1  0  0  0
  2  3  1  0  0  0  0
  2  5  1  0  0  0  0
  3  4  1  0  0  0  0
  3 10  1  0  0  0  0
  5  6  1  0  0  0  0
  6  7  1  0  0  0  0
  7  8  1  0  0  0  0
  8  9  1  0  0  0  0
M  END
>  <CHROM.1>
-170.01125683,-61.08966629,-64.89518883,-177.19158976,177.99668307,26.90187971
14.31420422,8.45963044,1.24851718,1.00664555,1.46677246

>  <Name>
ligand

>  <RI>
0

>  <Rbt.Current_Directory>
/home/itssahil/PROJECTS/Mol_Feturizer/New_Systems/rnas/3DIY

>  <Rbt.Executable>
rbdock ($Id: //depot/dev/client3/rdock/2013.1/src/exe/rbdock.cxx#4 $)

>  <Rbt.Library>
libRbt.so (2013.1, Build901 2013/11/27)

>  <Rbt.Parameter_File>
/export/apps/rDock/src/rDock_2013.1_src/data/scripts/dock_solv.prm

>  <Rbt.Receptor>
prm/blind_docking_40.prm

>  <SCORE>
-4.43977

>  <SCORE.INTER>
-4.31857

>  <SCORE.INTER.CONST>
1

>  <SCORE.INTER.POLAR>
0

>  <SCORE.INTER.ROT>
5

>  <SCORE.INTER.SOLV>
6.63911

>  <SCORE.INTER.VDW>
-12.0254

>  <SCORE.INTER.norm>
-0.431857

>  <SCORE.INTRA>
-0.121201

>  <SCORE.INTRA.DIHEDRAL>
-0.839149

>  <SCORE.INTRA.DIHEDRAL.0>
2.56603

>  <SCORE.INTRA.POLAR>
0

>  <SCORE.INTRA.POLAR.0>
0

>  <SCORE.INTRA.REPUL>
0

>  <SCORE.INTRA.REPUL.0>
0

>  <SCORE.INTRA.SOLV>
-0.141274

>  <SCORE.INTRA.SOLV.lig_0>
-32.0799

>  <SCORE.INTRA.VDW>
0.36901

>  <SCORE.INTRA.VDW.0>
-0.618248

>  <SCORE.INTRA.norm>
-0.0121201

>  <SCORE.RESTR>
0

>  <SCORE.RESTR.CAVITY>
0

>  <SCORE.RESTR.norm>
0

>  <SCORE.SYSTEM>
0

>  <SCORE.SYSTEM.CONST>
0

>  <SCORE.SYSTEM.DIHEDRAL>
0

>  <SCORE.SYSTEM.SOLV>
0

>  <SCORE.SYSTEM.norm>
0

>  <SCORE.heavy>
10

>  <SCORE.norm>
-0.443977

>  <RMSD>
13.252

$$$$
ligand
 OpenBabel11021811473D
libRbt.so/2013.1/901 2013/11/27
 10  9  0  0  0  0  0  0  0  0999 V2000
   25.4008   14.2537   10.3877 N   0  0  0  0  0  0  0  0  0  0  0  0
   26.7950   14.0588    9.8864 C   0  0  2  0  0  0  0  0  0  0  0  0
   27.8108   14.9380   10.6246 C   0  0  0  0  0  0  0  0  0  0  0  0
   27.8945   16.1586   10.4218 O   0  0  0  0  0  0  0  0  0  0  0  0
   26.8663   14.2797    8.3730 C   0  0  0  0  0  0  0  0  0  0  0  0
   25.9957   13.3236    7.5899 C   0  0  0  0  0  0  0  0  0  0  0  0
   26.1093   13.5523    6.1022 C   0  0  0  0  0  0  0  0  0  0  0  0
   27.4825   13.1381    5.5842 C   0  0  0  0  0  0  0  0  0  0  0  0
   27.6518   13.3489    4.1212 N   0  0  0  0  0  0  0  0  0  0  0  0
   28.5619   14.4603   11.4806 O   0  0  0  0  0  0  0  0  0  0  0  0
  2  1  1  1  0  0  0
  2  3  1  0  0  0  0
  2  5  1  0  0  0  0
  3  4  1  0  0  0  0
  3 10  1  0  0  0  0
  5  6  1  0  0  0  0
  6  7  1  0  0  0  0
  7  8  1  0  0  0  0
  8  9  1  0  0  0  0
M  END
>  <CHROM.1>
-74.21245069,-60.61892908,-178.94591802,69.36435389,-179.71743945,27.08083991
14.17311183,8.48606706,1.47164591,0.32208630,1.31938613

>  <Name>
ligand

>  <RI>
0

>  <Rbt.Current_Directory>
/home/itssahil/PROJECTS/Mol_Feturizer/New_Systems/rnas/3DIY

>  <Rbt.Executable>
rbdock ($Id: //depot/dev/client3/rdock/2013.1/src/exe/rbdock.cxx#4 $)

>  <Rbt.Library>
libRbt.so (2013.1, Build901 2013/11/27)

>  <Rbt.Parameter_File>
/export/apps/rDock/src/rDock_2013.1_src/data/scripts/dock_solv.prm

>  <Rbt.Receptor>
prm/blind_docking_100.prm

>  <SCORE>
-4.13364

>  <SCORE.INTER>
-4.09363

>  <SCORE.INTER.CONST>
1

>  <SCORE.INTER.POLAR>
0

>  <SCORE.INTER.ROT>
5

>  <SCORE.INTER.SOLV>
4.85261

>  <SCORE.INTER.VDW>
-11.28

>  <SCORE.INTER.norm>
-0.409363

>  <SCORE.INTRA>
-0.0400073

>  <SCORE.INTRA.DIHEDRAL>
-0.712117

>  <SCORE.INTRA.DIHEDRAL.0>
2.56603

>  <SCORE.INTRA.POLAR>
0

>  <SCORE.INTRA.POLAR.0>
0

>  <SCORE.INTRA.REPUL>
0

>  <SCORE.INTRA.REPUL.0>
0

>  <SCORE.INTRA.SOLV>
-0.456397

>  <SCORE.INTRA.SOLV.lig_0>
-32.0799

>  <SCORE.INTRA.VDW>
0.54425

>  <SCORE.INTRA.VDW.0>
-0.618248

>  <SCORE.INTRA.norm>
-0.00400073

>  <SCORE.RESTR>
0

>  <SCORE.RESTR.CAVITY>
0

>  <SCORE.RESTR.norm>
0

>  <SCORE.SYSTEM>
0

>  <SCORE.SYSTEM.CONST>
0

>  <SCORE.SYSTEM.DIHEDRAL>
0

>  <SCORE.SYSTEM.SOLV>
0

>  <SCORE.SYSTEM.norm>
0

>  <SCORE.heavy>
10

>  <SCORE.norm>
-0.413364

>  <RMSD>
13.265

$$$$
ligand
 OpenBabel11021811473D
libRbt.so/2013.1/901 2013/11/27
 10  9  0  0  0  0  0  0  0  0999 V2000
   20.2109   13.4652   13.0113 N   0  0  0  0  0  0  0  0  0  0  0  0
   21.2910   12.7924   12.2278 C   0  0  2  0  0  0  0  0  0  0  0  0
   22.1648   11.8816   13.0978 C   0  0  0  0  0  0  0  0  0  0  0  0
   22.2814   12.0541   14.3204 O   0  0  0  0  0  0  0  0  0  0  0  0
   22.1394   13.8204   11.4743 C   0  0  0  0  0  0  0  0  0  0  0  0
   23.1102   13.1924   10.5004 C   0  0  0  0  0  0  0  0  0  0  0  0
   23.8661   14.2342    9.7119 C   0  0  0  0  0  0  0  0  0  0  0  0
   24.8512   13.5861    8.7450 C   0  0  0  0  0  0  0  0  0  0  0  0
   25.5977   14.5683    7.9134 N   0  0  0  0  0  0  0  0  0  0  0  0
   22.7581   10.9146   12.6101 O   0  0  0  0  0  0  0  0  0  0  0  0
  2  1  1  1  0  0  0
  2  3  1  0  0  0  0
  2  5  1  0  0  0  0
  3  4  1  0  0  0  0
  3 10  1  0  0  0  0
  5  6  1  0  0  0  0
  6  7  1  0  0  0  0
  7  8  1  0  0  0  0
  8  9  1  0  0  0  0
M  END
>  <CHROM.1>
-24.28942905,-171.15444554,176.31983124,179.40407363,178.39330638,22.83891630
13.02539642,11.38931356,2.25748797,-0.55891585,2.36588503

>  <Name>
ligand

>  <RI>
0

>  <Rbt.Current_Directory>
/home/itssahil/PROJECTS/Mol_Feturizer/New_Systems/rnas/3DIY

>  <Rbt.Executable>
rbdock ($Id: //depot/dev/client3/rdock/2013.1/src/exe/rbdock.cxx#4 $)

>  <Rbt.Library>
libRbt.so (2013.1, Build901 2013/11/27)

>  <Rbt.Parameter_File>
/export/apps/rDock/src/rDock_2013.1_src/data/scripts/dock_solv.prm

>  <Rbt.Receptor>
prm/blind_docking_40.prm

>  <SCORE>
-3.88626

>  <SCORE.INTER>
-2.6201

>  <SCORE.INTER.CONST>
1

>  <SCORE.INTER.POLAR>
0

>  <SCORE.INTER.ROT>
5

>  <SCORE.INTER.SOLV>
4.53015

>  <SCORE.INTER.VDW>
-10.1901

>  <SCORE.INTER.norm>
-0.26201

>  <SCORE.INTRA>
-1.26616

>  <SCORE.INTRA.DIHEDRAL>
-0.610611

>  <SCORE.INTRA.DIHEDRAL.0>
2.56603

>  <SCORE.INTRA.POLAR>
0

>  <SCORE.INTRA.POLAR.0>
0

>  <SCORE.INTRA.REPUL>
0

>  <SCORE.INTRA.REPUL.0>
0

>  <SCORE.INTRA.SOLV>
-1.5882

>  <SCORE.INTRA.SOLV.lig_0>
-32.0799

>  <SCORE.INTRA.VDW>
-0.166748

>  <SCORE.INTRA.VDW.0>
-0.618248

>  <SCORE.INTRA.norm>
-0.126616

>  <SCORE.RESTR>
0

>  <SCORE.RESTR.CAVITY>
0

>  <SCORE.RESTR.norm>
0

>  <SCORE.SYSTEM>
0

>  <SCORE.SYSTEM.CONST>
0

>  <SCORE.SYSTEM.DIHEDRAL>
0

>  <SCORE.SYSTEM.SOLV>
0

>  <SCORE.SYSTEM.norm>
0

>  <SCORE.heavy>
10

>  <SCORE.norm>
-0.388626

>  <RMSD>
13.321

$$$$
ligand
 OpenBabel11021811473D
libRbt.so/2013.1/901 2013/11/27
 10  9  0  0  0  0  0  0  0  0999 V2000
   25.3650   13.4015    9.3710 N   0  0  0  0  0  0  0  0  0  0  0  0
   24.1154   14.1085    8.9566 C   0  0  2  0  0  0  0  0  0  0  0  0
   24.3964   15.3071    8.0431 C   0  0  0  0  0  0  0  0  0  0  0  0
   25.3751   16.0493    8.2139 O   0  0  0  0  0  0  0  0  0  0  0  0
   23.2926   14.5237   10.1792 C   0  0  0  0  0  0  0  0  0  0  0  0
   22.9140   13.3591   11.0657 C   0  0  0  0  0  0  0  0  0  0  0  0
   22.1558   13.8101   12.2905 C   0  0  0  0  0  0  0  0  0  0  0  0
   21.8820   12.6412   13.2307 C   0  0  0  0  0  0  0  0  0  0  0  0
   20.9345   11.6402   12.6707 N   0  0  0  0  0  0  0  0  0  0  0  0
   23.6697   15.5533    7.0755 O   0  0  0  0  0  0  0  0  0  0  0  0
  2  1  1  1  0  0  0
  2  3  1  0  0  0  0
  2  5  1  0  0  0  0
  3  4  1  0  0  0  0
  3 10  1  0  0  0  0
  5  6  1  0  0  0  0
  6  7  1  0  0  0  0
  7  8  1  0  0  0  0
  8  9  1  0  0  0  0
M  END
>  <CHROM.1>
-37.96824925,-57.76692772,177.54219434,-175.30025687,-67.27595316,23.42210383
14.07048979,10.07826964,-1.06757887,-0.20528139,2.21914978

>  <Name>
ligand

>  <RI>
0

>  <Rbt.Current_Directory>
/home/itssahil/PROJECTS/Mol_Feturizer/New_Systems/rnas/3DIY

>  <Rbt.Executable>
rbdock ($Id: //depot/dev/client3/rdock/2013.1/src/exe/rbdock.cxx#4 $)

>  <Rbt.Library>
libRbt.so (2013.1, Build901 2013/11/27)

>  <Rbt.Parameter_File>
/export/apps/rDock/src/rDock_2013.1_src/data/scripts/dock_solv.prm

>  <Rbt.Receptor>
prm/blind_docking_40.prm

>  <SCORE>
-3.95071

>  <SCORE.INTER>
-3.59079

>  <SCORE.INTER.CONST>
1

>  <SCORE.INTER.POLAR>
0

>  <SCORE.INTER.ROT>
5

>  <SCORE.INTER.SOLV>
7.1443

>  <SCORE.INTER.VDW>
-11.7086

>  <SCORE.INTER.norm>
-0.359079

>  <SCORE.INTRA>
-0.359925

>  <SCORE.INTRA.DIHEDRAL>
-0.632839

>  <SCORE.INTRA.DIHEDRAL.0>
2.56603

>  <SCORE.INTRA.POLAR>
0

>  <SCORE.INTRA.POLAR.0>
0

>  <SCORE.INTRA.REPUL>
0

>  <SCORE.INTRA.REPUL.0>
0

>  <SCORE.INTRA.SOLV>
0.19385

>  <SCORE.INTRA.SOLV.lig_0>
-32.0799

>  <SCORE.INTRA.VDW>
-0.140431

>  <SCORE.INTRA.VDW.0>
-0.618248

>  <SCORE.INTRA.norm>
-0.0359925

>  <SCORE.RESTR>
0

>  <SCORE.RESTR.CAVITY>
0

>  <SCORE.RESTR.norm>
0

>  <SCORE.SYSTEM>
0

>  <SCORE.SYSTEM.CONST>
0

>  <SCORE.SYSTEM.DIHEDRAL>
0

>  <SCORE.SYSTEM.SOLV>
0

>  <SCORE.SYSTEM.norm>
0

>  <SCORE.heavy>
10

>  <SCORE.norm>
-0.395071

>  <RMSD>
13.323

$$$$
ligand
 OpenBabel11021811473D
libRbt.so/2013.1/901 2013/11/27
 10  9  0  0  0  0  0  0  0  0999 V2000
   20.6398   14.6827   11.4594 N   0  0  0  0  0  0  0  0  0  0  0  0
   21.5468   13.5701   11.0442 C   0  0  2  0  0  0  0  0  0  0  0  0
   21.8869   12.6279   12.2046 C   0  0  0  0  0  0  0  0  0  0  0  0
   21.1419   11.6922   12.5323 O   0  0  0  0  0  0  0  0  0  0  0  0
   22.8151   14.1178   10.3842 C   0  0  0  0  0  0  0  0  0  0  0  0
   23.7179   13.0348    9.8387 C   0  0  0  0  0  0  0  0  0  0  0  0
   24.9825   13.6057    9.2444 C   0  0  0  0  0  0  0  0  0  0  0  0
   25.9097   14.1400   10.3307 C   0  0  0  0  0  0  0  0  0  0  0  0
   27.1737   14.7172    9.7993 N   0  0  0  0  0  0  0  0  0  0  0  0
   22.9425   12.7493   12.8338 O   0  0  0  0  0  0  0  0  0  0  0  0
  2  1  1  1  0  0  0
  2  3  1  0  0  0  0
  2  5  1  0  0  0  0
  3  4  1  0  0  0  0
  3 10  1  0  0  0  0
  5  6  1  0  0  0  0
  6  7  1  0  0  0  0
  7  8  1  0  0  0  0
  8  9  1  0  0  0  0
M  END
>  <CHROM.1>
84.22380356,-175.16359880,-177.75496732,71.18415006,-179.92802915,23.27321780
13.46964191,10.99700941,2.64619340,-0.13948566,2.33243006

>  <Name>
ligand

>  <RI>
0

>  <Rbt.Current_Directory>
/home/itssahil/PROJECTS/Mol_Feturizer/New_Systems/rnas/3DIY

>  <Rbt.Executable>
rbdock ($Id: //depot/dev/client3/rdock/2013.1/src/exe/rbdock.cxx#4 $)

>  <Rbt.Library>
libRbt.so (2013.1, Build901 2013/11/27)

>  <Rbt.Parameter_File>
/export/apps/rDock/src/rDock_2013.1_src/data/scripts/dock_solv.prm

>  <Rbt.Receptor>
prm/blind_docking_60.prm

>  <SCORE>
-2.19994

>  <SCORE.INTER>
-2.19916

>  <SCORE.INTER.CONST>
1

>  <SCORE.INTER.POLAR>
0

>  <SCORE.INTER.ROT>
5

>  <SCORE.INTER.SOLV>
6.89895

>  <SCORE.INTER.VDW>
-10.6991

>  <SCORE.INTER.norm>
-0.219916

>  <SCORE.INTRA>
-0.000786704

>  <SCORE.INTRA.DIHEDRAL>
-0.349646

>  <SCORE.INTRA.DIHEDRAL.0>
2.56603

>  <SCORE.INTRA.POLAR>
0

>  <SCORE.INTRA.POLAR.0>
0

>  <SCORE.INTRA.REPUL>
0

>  <SCORE.INTRA.REPUL.0>
0

>  <SCORE.INTRA.SOLV>
-1.40039

>  <SCORE.INTRA.SOLV.lig_0>
-32.0799

>  <SCORE.INTRA.VDW>
0.874232

>  <SCORE.INTRA.VDW.0>
-0.618248

>  <SCORE.INTRA.norm>
-7.86704e-05

>  <SCORE.RESTR>
0

>  <SCORE.RESTR.CAVITY>
0

>  <SCORE.RESTR.norm>
0

>  <SCORE.SYSTEM>
0

>  <SCORE.SYSTEM.CONST>
0

>  <SCORE.SYSTEM.DIHEDRAL>
0

>  <SCORE.SYSTEM.SOLV>
0

>  <SCORE.SYSTEM.norm>
0

>  <SCORE.heavy>
10

>  <SCORE.norm>
-0.219994

>  <RMSD>
13.353

$$$$
ligand
 OpenBabel11021811473D
libRbt.so/2013.1/901 2013/11/27
 10  9  0  0  0  0  0  0  0  0999 V2000
   20.7662   13.6287   12.4858 N   0  0  0  0  0  0  0  0  0  0  0  0
   21.7669   12.5943   12.0837 C   0  0  2  0  0  0  0  0  0  0  0  0
   22.0788   11.6097   13.2165 C   0  0  0  0  0  0  0  0  0  0  0  0
   22.4402   10.4444   12.9944 O   0  0  0  0  0  0  0  0  0  0  0  0
   23.0440   13.2492   11.5505 C   0  0  0  0  0  0  0  0  0  0  0  0
   22.8639   13.8864   10.1915 C   0  0  0  0  0  0  0  0  0  0  0  0
   24.1777   14.3518    9.6119 C   0  0  0  0  0  0  0  0  0  0  0  0
   23.9865   14.9473    8.2212 C   0  0  0  0  0  0  0  0  0  0  0  0
   25.2538   15.4144    7.5976 N   0  0  0  0  0  0  0  0  0  0  0  0
   22.0146   11.9598   14.3990 O   0  0  0  0  0  0  0  0  0  0  0  0
  2  1  1  1  0  0  0
  2  3  1  0  0  0  0
  2  5  1  0  0  0  0
  3  4  1  0  0  0  0
  3 10  1  0  0  0  0
  5  6  1  0  0  0  0
  6  7  1  0  0  0  0
  7  8  1  0  0  0  0
  8  9  1  0  0  0  0
M  END
>  <CHROM.1>
151.92003508,-71.67700854,-172.08699110,178.00029359,-179.59139251,22.84062336
13.17937330,11.26998021,2.07120688,-0.62066044,2.45118769

>  <Name>
ligand

>  <RI>
0

>  <Rbt.Current_Directory>
/home/itssahil/PROJECTS/Mol_Feturizer/New_Systems/rnas/3DIY

>  <Rbt.Executable>
rbdock ($Id: //depot/dev/client3/rdock/2013.1/src/exe/rbdock.cxx#4 $)

>  <Rbt.Library>
libRbt.so (2013.1, Build901 2013/11/27)

>  <Rbt.Parameter_File>
/export/apps/rDock/src/rDock_2013.1_src/data/scripts/dock_solv.prm

>  <Rbt.Receptor>
prm/blind_docking_40.prm

>  <SCORE>
-3.41514

>  <SCORE.INTER>
-2.54858

>  <SCORE.INTER.CONST>
1

>  <SCORE.INTER.POLAR>
0

>  <SCORE.INTER.ROT>
5

>  <SCORE.INTER.SOLV>
8.08478

>  <SCORE.INTER.VDW>
-11.3273

>  <SCORE.INTER.norm>
-0.254858

>  <SCORE.INTRA>
-0.86656

>  <SCORE.INTRA.DIHEDRAL>
-0.27742

>  <SCORE.INTRA.DIHEDRAL.0>
2.56603

>  <SCORE.INTRA.POLAR>
0

>  <SCORE.INTRA.POLAR.0>
0

>  <SCORE.INTRA.REPUL>
0

>  <SCORE.INTRA.REPUL.0>
0

>  <SCORE.INTRA.SOLV>
-0.86408

>  <SCORE.INTRA.SOLV.lig_0>
-32.0799

>  <SCORE.INTRA.VDW>
-0.29581

>  <SCORE.INTRA.VDW.0>
-0.618248

>  <SCORE.INTRA.norm>
-0.086656

>  <SCORE.RESTR>
0

>  <SCORE.RESTR.CAVITY>
0

>  <SCORE.RESTR.norm>
0

>  <SCORE.SYSTEM>
0

>  <SCORE.SYSTEM.CONST>
0

>  <SCORE.SYSTEM.DIHEDRAL>
0

>  <SCORE.SYSTEM.SOLV>
0

>  <SCORE.SYSTEM.norm>
0

>  <SCORE.heavy>
10

>  <SCORE.norm>
-0.341514

>  <RMSD>
13.386

$$$$
ligand
 OpenBabel11021811473D
libRbt.so/2013.1/901 2013/11/27
 10  9  0  0  0  0  0  0  0  0999 V2000
   26.7516   14.2278    7.9630 N   0  0  0  0  0  0  0  0  0  0  0  0
   25.2860   14.2741    8.2513 C   0  0  2  0  0  0  0  0  0  0  0  0
   24.6210   15.5412    7.7016 C   0  0  0  0  0  0  0  0  0  0  0  0
   23.5227   15.5111    7.1263 O   0  0  0  0  0  0  0  0  0  0  0  0
   25.0197   14.1135    9.7504 C   0  0  0  0  0  0  0  0  0  0  0  0
   23.5478   14.0828   10.0939 C   0  0  0  0  0  0  0  0  0  0  0  0
   23.3215   13.9756   11.5824 C   0  0  0  0  0  0  0  0  0  0  0  0
   21.8366   14.0508   11.9211 C   0  0  0  0  0  0  0  0  0  0  0  0
   21.0655   12.8608   11.4710 N   0  0  0  0  0  0  0  0  0  0  0  0
   25.1458   16.6494    7.8476 O   0  0  0  0  0  0  0  0  0  0  0  0
  2  1  1  1  0  0  0
  2  3  1  0  0  0  0
  2  5  1  0  0  0  0
  3  4  1  0  0  0  0
  3 10  1  0  0  0  0
  5  6  1  0  0  0  0
  6  7  1  0  0  0  0
  7  8  1  0  0  0  0
  8  9  1  0  0  0  0
M  END
>  <CHROM.1>
137.29252663,-177.10004164,-177.86962711,175.75061856,68.91625180,24.00307680
14.55973355,9.34994247,-0.88937717,-0.23389152,2.19343464

>  <Name>
ligand

>  <RI>
0

>  <Rbt.Current_Directory>
/home/itssahil/PROJECTS/Mol_Feturizer/New_Systems/rnas/3DIY

>  <Rbt.Executable>
rbdock ($Id: //depot/dev/client3/rdock/2013.1/src/exe/rbdock.cxx#4 $)

>  <Rbt.Library>
libRbt.so (2013.1, Build901 2013/11/27)

>  <Rbt.Parameter_File>
/export/apps/rDock/src/rDock_2013.1_src/data/scripts/dock_solv.prm

>  <Rbt.Receptor>
prm/blind_docking_40.prm

>  <SCORE>
-4.82109

>  <SCORE.INTER>
-3.96935

>  <SCORE.INTER.CONST>
1

>  <SCORE.INTER.POLAR>
0

>  <SCORE.INTER.ROT>
5

>  <SCORE.INTER.SOLV>
7.21503

>  <SCORE.INTER.VDW>
-11.9846

>  <SCORE.INTER.norm>
-0.396935

>  <SCORE.INTRA>
-0.851739

>  <SCORE.INTRA.DIHEDRAL>
-0.665036

>  <SCORE.INTRA.DIHEDRAL.0>
2.56603

>  <SCORE.INTRA.POLAR>
0

>  <SCORE.INTRA.POLAR.0>
0

>  <SCORE.INTRA.REPUL>
0

>  <SCORE.INTRA.REPUL.0>
0

>  <SCORE.INTRA.SOLV>
-0.804595

>  <SCORE.INTRA.SOLV.lig_0>
-32.0799

>  <SCORE.INTRA.VDW>
-0.116924

>  <SCORE.INTRA.VDW.0>
-0.618248

>  <SCORE.INTRA.norm>
-0.0851739

>  <SCORE.RESTR>
0

>  <SCORE.RESTR.CAVITY>
0

>  <SCORE.RESTR.norm>
0

>  <SCORE.SYSTEM>
0

>  <SCORE.SYSTEM.CONST>
0

>  <SCORE.SYSTEM.DIHEDRAL>
0

>  <SCORE.SYSTEM.SOLV>
0

>  <SCORE.SYSTEM.norm>
0

>  <SCORE.heavy>
10

>  <SCORE.norm>
-0.482109

>  <RMSD>
13.500

$$$$
ligand
 OpenBabel11021811473D
libRbt.so/2013.1/901 2013/11/27
 10  9  0  0  0  0  0  0  0  0999 V2000
   26.8629   14.4456    9.0284 N   0  0  0  0  0  0  0  0  0  0  0  0
   25.4943   13.8501    8.9546 C   0  0  2  0  0  0  0  0  0  0  0  0
   24.7495   14.2509    7.6761 C   0  0  0  0  0  0  0  0  0  0  0  0
   24.1225   13.4264    6.9941 O   0  0  0  0  0  0  0  0  0  0  0  0
   24.6799   14.1985   10.2035 C   0  0  0  0  0  0  0  0  0  0  0  0
   23.2944   13.5938   10.1988 C   0  0  0  0  0  0  0  0  0  0  0  0
   22.5327   13.9276   11.4586 C   0  0  0  0  0  0  0  0  0  0  0  0
   21.1284   13.3340   11.4272 C   0  0  0  0  0  0  0  0  0  0  0  0
   20.2984   13.7144   12.6018 N   0  0  0  0  0  0  0  0  0  0  0  0
   24.7191   15.4266    7.2999 O   0  0  0  0  0  0  0  0  0  0  0  0
  2  1  1  1  0  0  0
  2  3  1  0  0  0  0
  2  5  1  0  0  0  0
  3  4  1  0  0  0  0
  3 10  1  0  0  0  0
  5  6  1  0  0  0  0
  6  7  1  0  0  0  0
  7  8  1  0  0  0  0
  8  9  1  0  0  0  0
M  END
>  <CHROM.1>
134.84432068,-178.63933393,178.54511614,178.89123955,-175.84195777,23.78005573
14.02605869,9.54756367,-0.76468196,0.14585974,1.60970337

>  <Name>
ligand

>  <RI>
0

>  <Rbt.Current_Directory>
/home/itssahil/PROJECTS/Mol_Feturizer/New_Systems/rnas/3DIY

>  <Rbt.Executable>
rbdock ($Id: //depot/dev/client3/rdock/2013.1/src/exe/rbdock.cxx#4 $)

>  <Rbt.Library>
libRbt.so (2013.1, Build901 2013/11/27)

>  <Rbt.Parameter_File>
/export/apps/rDock/src/rDock_2013.1_src/data/scripts/dock_solv.prm

>  <Rbt.Receptor>
prm/blind_docking_40.prm

>  <SCORE>
-4.62095

>  <SCORE.INTER>
-3.19368

>  <SCORE.INTER.CONST>
1

>  <SCORE.INTER.POLAR>
0

>  <SCORE.INTER.ROT>
5

>  <SCORE.INTER.SOLV>
4.06706

>  <SCORE.INTER.VDW>
-10.4181

>  <SCORE.INTER.norm>
-0.319368

>  <SCORE.INTRA>
-1.42727

>  <SCORE.INTRA.DIHEDRAL>
-0.989737

>  <SCORE.INTRA.DIHEDRAL.0>
2.56603

>  <SCORE.INTRA.POLAR>
0

>  <SCORE.INTRA.POLAR.0>
0

>  <SCORE.INTRA.REPUL>
0

>  <SCORE.INTRA.REPUL.0>
0

>  <SCORE.INTRA.SOLV>
-1.60918

>  <SCORE.INTRA.SOLV.lig_0>
-32.0799

>  <SCORE.INTRA.VDW>
-0.127817

>  <SCORE.INTRA.VDW.0>
-0.618248

>  <SCORE.INTRA.norm>
-0.142727

>  <SCORE.RESTR>
0

>  <SCORE.RESTR.CAVITY>
0

>  <SCORE.RESTR.norm>
0

>  <SCORE.SYSTEM>
0

>  <SCORE.SYSTEM.CONST>
0

>  <SCORE.SYSTEM.DIHEDRAL>
0

>  <SCORE.SYSTEM.SOLV>
0

>  <SCORE.SYSTEM.norm>
0

>  <SCORE.heavy>
10

>  <SCORE.norm>
-0.462095

>  <RMSD>
13.540

$$$$
ligand
 OpenBabel11021811473D
libRbt.so/2013.1/901 2013/11/27
 10  9  0  0  0  0  0  0  0  0999 V2000
   19.7979   14.4647   11.3633 N   0  0  0  0  0  0  0  0  0  0  0  0
   21.1190   13.7712   11.2805 C   0  0  2  0  0  0  0  0  0  0  0  0
   21.8025   13.6482   12.6471 C   0  0  0  0  0  0  0  0  0  0  0  0
   21.6527   14.4994   13.5365 O   0  0  0  0  0  0  0  0  0  0  0  0
   22.0332   14.4590   10.2629 C   0  0  0  0  0  0  0  0  0  0  0  0
   23.3217   13.7077   10.0164 C   0  0  0  0  0  0  0  0  0  0  0  0
   24.1495   14.3548    8.9327 C   0  0  0  0  0  0  0  0  0  0  0  0
   25.4616   13.6072    8.7209 C   0  0  0  0  0  0  0  0  0  0  0  0
   26.3072   14.1886    7.6437 N   0  0  0  0  0  0  0  0  0  0  0  0
   22.5024   12.6688   12.9222 O   0  0  0  0  0  0  0  0  0  0  0  0
  2  1  1  1  0  0  0
  2  3  1  0  0  0  0
  2  5  1  0  0  0  0
  3  4  1  0  0  0  0
  3 10  1  0  0  0  0
  5  6  1  0  0  0  0
  6  7  1  0  0  0  0
  7  8  1  0  0  0  0
  8  9  1  0  0  0  0
M  END
>  <CHROM.1>
-31.54856080,-173.21812187,175.59991615,178.51540102,178.90951461,22.82066708
13.93229979,10.77152130,2.39677365,-0.26929367,1.87165442

>  <Name>
ligand

>  <RI>
0

>  <Rbt.Current_Directory>
/home/itssahil/PROJECTS/Mol_Feturizer/New_Systems/rnas/3DIY

>  <Rbt.Executable>
rbdock ($Id: //depot/dev/client3/rdock/2013.1/src/exe/rbdock.cxx#4 $)

>  <Rbt.Library>
libRbt.so (2013.1, Build901 2013/11/27)

>  <Rbt.Parameter_File>
/export/apps/rDock/src/rDock_2013.1_src/data/scripts/dock_solv.prm

>  <Rbt.Receptor>
prm/blind_docking_60.prm

>  <SCORE>
-3.8286

>  <SCORE.INTER>
-2.49643

>  <SCORE.INTER.CONST>
1

>  <SCORE.INTER.POLAR>
0

>  <SCORE.INTER.ROT>
5

>  <SCORE.INTER.SOLV>
5.64022

>  <SCORE.INTER.VDW>
-10.4777

>  <SCORE.INTER.norm>
-0.249643

>  <SCORE.INTRA>
-1.33218

>  <SCORE.INTRA.DIHEDRAL>
-0.700132

>  <SCORE.INTRA.DIHEDRAL.0>
2.56603

>  <SCORE.INTRA.POLAR>
0

>  <SCORE.INTRA.POLAR.0>
0

>  <SCORE.INTRA.REPUL>
0

>  <SCORE.INTRA.REPUL.0>
0

>  <SCORE.INTRA.SOLV>
-1.59227

>  <SCORE.INTRA.SOLV.lig_0>
-32.0799

>  <SCORE.INTRA.VDW>
-0.185973

>  <SCORE.INTRA.VDW.0>
-0.618248

>  <SCORE.INTRA.norm>
-0.133218

>  <SCORE.RESTR>
0

>  <SCORE.RESTR.CAVITY>
0

>  <SCORE.RESTR.norm>
0

>  <SCORE.SYSTEM>
0

>  <SCORE.SYSTEM.CONST>
0

>  <SCORE.SYSTEM.DIHEDRAL>
0

>  <SCORE.SYSTEM.SOLV>
0

>  <SCORE.SYSTEM.norm>
0

>  <SCORE.heavy>
10

>  <SCORE.norm>
-0.38286

>  <RMSD>
13.609

$$$$
ligand
 OpenBabel11021811473D
libRbt.so/2013.1/901 2013/11/27
 10  9  0  0  0  0  0  0  0  0999 V2000
   22.4216   13.9876    9.7907 N   0  0  0  0  0  0  0  0  0  0  0  0
   23.7338   14.6223    9.4612 C   0  0  2  0  0  0  0  0  0  0  0  0
   24.0258   14.6159    7.9564 C   0  0  0  0  0  0  0  0  0  0  0  0
   24.0892   13.5637    7.3030 O   0  0  0  0  0  0  0  0  0  0  0  0
   24.8703   13.9659   10.2498 C   0  0  0  0  0  0  0  0  0  0  0  0
   26.2229   14.5791    9.9670 C   0  0  0  0  0  0  0  0  0  0  0  0
   27.3329   13.8379   10.6720 C   0  0  0  0  0  0  0  0  0  0  0  0
   28.6809   14.5110   10.4373 C   0  0  0  0  0  0  0  0  0  0  0  0
   29.0726   14.5681    9.0032 N   0  0  0  0  0  0  0  0  0  0  0  0
   24.1729   15.6715    7.3326 O   0  0  0  0  0  0  0  0  0  0  0  0
  2  1  1  6  0  0  0
  2  3  1  0  0  0  0
  2  5  1  0  0  0  0
  3  4  1  0  0  0  0
  3 10  1  0  0  0  0
  5  6  1  0  0  0  0
  6  7  1  0  0  0  0
  7  8  1  0  0  0  0
  8  9  1  0  0  0  0
M  END
>  <CHROM.1>
-59.13488859,-179.38165589,-175.34068000,-176.99546173,-60.64121128,25.45785199
14.39380590,9.18043559,2.83532091,-0.07246676,-1.31927773

>  <Name>
ligand

>  <RI>
0

>  <Rbt.Current_Directory>
/home/itssahil/PROJECTS/Mol_Feturizer/New_Systems/rnas/3DIY

>  <Rbt.Executable>
rbdock ($Id: //depot/dev/client3/rdock/2013.1/src/exe/rbdock.cxx#4 $)

>  <Rbt.Library>
libRbt.so (2013.1, Build901 2013/11/27)

>  <Rbt.Parameter_File>
/export/apps/rDock/src/rDock_2013.1_src/data/scripts/dock_solv.prm

>  <Rbt.Receptor>
prm/blind_docking_40.prm

>  <SCORE>
-4.30631

>  <SCORE.INTER>
-3.53177

>  <SCORE.INTER.CONST>
1

>  <SCORE.INTER.POLAR>
0

>  <SCORE.INTER.ROT>
5

>  <SCORE.INTER.SOLV>
14.2094

>  <SCORE.INTER.VDW>
-14.0243

>  <SCORE.INTER.norm>
-0.353177

>  <SCORE.INTRA>
-0.774542

>  <SCORE.INTRA.DIHEDRAL>
-0.899836

>  <SCORE.INTRA.DIHEDRAL.0>
2.56603

>  <SCORE.INTRA.POLAR>
0

>  <SCORE.INTRA.POLAR.0>
0

>  <SCORE.INTRA.REPUL>
0

>  <SCORE.INTRA.REPUL.0>
0

>  <SCORE.INTRA.SOLV>
-0.679789

>  <SCORE.INTRA.SOLV.lig_0>
-32.0799

>  <SCORE.INTRA.VDW>
0.0152706

>  <SCORE.INTRA.VDW.0>
-0.618248

>  <SCORE.INTRA.norm>
-0.0774542

>  <SCORE.RESTR>
0

>  <SCORE.RESTR.CAVITY>
0

>  <SCORE.RESTR.norm>
0

>  <SCORE.SYSTEM>
0

>  <SCORE.SYSTEM.CONST>
0

>  <SCORE.SYSTEM.DIHEDRAL>
0

>  <SCORE.SYSTEM.SOLV>
0

>  <SCORE.SYSTEM.norm>
0

>  <SCORE.heavy>
10

>  <SCORE.norm>
-0.430631

>  <RMSD>
13.611

$$$$
ligand
 OpenBabel11021811473D
libRbt.so/2013.1/901 2013/11/27
 10  9  0  0  0  0  0  0  0  0999 V2000
   23.8345   13.7661   10.5082 N   0  0  0  0  0  0  0  0  0  0  0  0
   25.1013   13.4167    9.7967 C   0  0  2  0  0  0  0  0  0  0  0  0
   26.3458   13.9276   10.5319 C   0  0  0  0  0  0  0  0  0  0  0  0
   26.2946   14.8722   11.3338 O   0  0  0  0  0  0  0  0  0  0  0  0
   25.0689   13.9142    8.3491 C   0  0  0  0  0  0  0  0  0  0  0  0
   26.2501   13.4440    7.5311 C   0  0  0  0  0  0  0  0  0  0  0  0
   26.1577   13.9047    6.0966 C   0  0  0  0  0  0  0  0  0  0  0  0
   27.3961   13.4969    5.3058 C   0  0  0  0  0  0  0  0  0  0  0  0
   27.5363   12.0248    5.1429 N   0  0  0  0  0  0  0  0  0  0  0  0
   27.4442   13.3857   10.3750 O   0  0  0  0  0  0  0  0  0  0  0  0
  2  1  1  1  0  0  0
  2  3  1  0  0  0  0
  2  5  1  0  0  0  0
  3  4  1  0  0  0  0
  3 10  1  0  0  0  0
  5  6  1  0  0  0  0
  6  7  1  0  0  0  0
  7  8  1  0  0  0  0
  8  9  1  0  0  0  0
M  END
>  <CHROM.1>
-22.55698874,-172.96225925,177.66620805,176.49688084,66.02332293,26.16793101
13.62679375,8.52484868,1.83256294,-0.10163745,1.40070895

>  <Name>
ligand

>  <RI>
0

>  <Rbt.Current_Directory>
/home/itssahil/PROJECTS/Mol_Feturizer/New_Systems/rnas/3DIY

>  <Rbt.Executable>
rbdock ($Id: //depot/dev/client3/rdock/2013.1/src/exe/rbdock.cxx#4 $)

>  <Rbt.Library>
libRbt.so (2013.1, Build901 2013/11/27)

>  <Rbt.Parameter_File>
/export/apps/rDock/src/rDock_2013.1_src/data/scripts/dock_solv.prm

>  <Rbt.Receptor>
prm/blind_docking_100.prm

>  <SCORE>
-3.31134

>  <SCORE.INTER>
-2.59909

>  <SCORE.INTER.CONST>
1

>  <SCORE.INTER.POLAR>
0

>  <SCORE.INTER.ROT>
5

>  <SCORE.INTER.SOLV>
6.34911

>  <SCORE.INTER.VDW>
-10.7824

>  <SCORE.INTER.norm>
-0.259909

>  <SCORE.INTRA>
-0.71225

>  <SCORE.INTRA.DIHEDRAL>
-0.573637

>  <SCORE.INTRA.DIHEDRAL.0>
2.56603

>  <SCORE.INTRA.POLAR>
0

>  <SCORE.INTRA.POLAR.0>
0

>  <SCORE.INTRA.REPUL>
0

>  <SCORE.INTRA.REPUL.0>
0

>  <SCORE.INTRA.SOLV>
-0.741958

>  <SCORE.INTRA.SOLV.lig_0>
-32.0799

>  <SCORE.INTRA.VDW>
-0.0544526

>  <SCORE.INTRA.VDW.0>
-0.618248

>  <SCORE.INTRA.norm>
-0.071225

>  <SCORE.RESTR>
0

>  <SCORE.RESTR.CAVITY>
0

>  <SCORE.RESTR.norm>
0

>  <SCORE.SYSTEM>
0

>  <SCORE.SYSTEM.CONST>
0

>  <SCORE.SYSTEM.DIHEDRAL>
0

>  <SCORE.SYSTEM.SOLV>
0

>  <SCORE.SYSTEM.norm>
0

>  <SCORE.heavy>
10

>  <SCORE.norm>
-0.331134

>  <RMSD>
13.705

$$$$
ligand
 OpenBabel11021811473D
libRbt.so/2013.1/901 2013/11/27
 10  9  0  0  0  0  0  0  0  0999 V2000
   25.6676   13.7801    6.0579 N   0  0  0  0  0  0  0  0  0  0  0  0
   25.2333   13.9393    7.4788 C   0  0  2  0  0  0  0  0  0  0  0  0
   24.4654   15.2451    7.7136 C   0  0  0  0  0  0  0  0  0  0  0  0
   23.5627   15.3344    8.5594 O   0  0  0  0  0  0  0  0  0  0  0  0
   26.4265   13.8186    8.4306 C   0  0  0  0  0  0  0  0  0  0  0  0
   26.0268   13.8084    9.8886 C   0  0  0  0  0  0  0  0  0  0  0  0
   27.2277   13.8868   10.7997 C   0  0  0  0  0  0  0  0  0  0  0  0
   27.7998   15.2998   10.8372 C   0  0  0  0  0  0  0  0  0  0  0  0
   28.2524   15.7909    9.5078 N   0  0  0  0  0  0  0  0  0  0  0  0
   24.7484   16.2708    7.0870 O   0  0  0  0  0  0  0  0  0  0  0  0
  2  1  1  6  0  0  0
  2  3  1  0  0  0  0
  2  5  1  0  0  0  0
  3  4  1  0  0  0  0
  3 10  1  0  0  0  0
  5  6  1  0  0  0  0
  6  7  1  0  0  0  0
  7  8  1  0  0  0  0
  8  9  1  0  0  0  0
M  END
>  <CHROM.1>
148.09264636,-173.21207530,-171.88315550,75.55040268,-60.27688524,25.91700029
14.74575700,8.63503306,-2.55616676,-0.61603165,0.92963465

>  <Name>
ligand

>  <RI>
0

>  <Rbt.Current_Directory>
/home/itssahil/PROJECTS/Mol_Feturizer/New_Systems/rnas/3DIY

>  <Rbt.Executable>
rbdock ($Id: //depot/dev/client3/rdock/2013.1/src/exe/rbdock.cxx#4 $)

>  <Rbt.Library>
libRbt.so (2013.1, Build901 2013/11/27)

>  <Rbt.Parameter_File>
/export/apps/rDock/src/rDock_2013.1_src/data/scripts/dock_solv.prm

>  <Rbt.Receptor>
prm/blind_docking_100.prm

>  <SCORE>
-4.84273

>  <SCORE.INTER>
-5.91308

>  <SCORE.INTER.CONST>
1

>  <SCORE.INTER.POLAR>
0

>  <SCORE.INTER.ROT>
5

>  <SCORE.INTER.SOLV>
11.3974

>  <SCORE.INTER.VDW>
-14.6745

>  <SCORE.INTER.norm>
-0.591308

>  <SCORE.INTRA>
1.07035

>  <SCORE.INTRA.DIHEDRAL>
0.292073

>  <SCORE.INTRA.DIHEDRAL.0>
2.56603

>  <SCORE.INTRA.POLAR>
0

>  <SCORE.INTRA.POLAR.0>
0

>  <SCORE.INTRA.REPUL>
0

>  <SCORE.INTRA.REPUL.0>
0

>  <SCORE.INTRA.SOLV>
0.909813

>  <SCORE.INTRA.SOLV.lig_0>
-32.0799

>  <SCORE.INTRA.VDW>
0.469404

>  <SCORE.INTRA.VDW.0>
-0.618248

>  <SCORE.INTRA.norm>
0.107035

>  <SCORE.RESTR>
0

>  <SCORE.RESTR.CAVITY>
0

>  <SCORE.RESTR.norm>
0

>  <SCORE.SYSTEM>
0

>  <SCORE.SYSTEM.CONST>
0

>  <SCORE.SYSTEM.DIHEDRAL>
0

>  <SCORE.SYSTEM.SOLV>
0

>  <SCORE.SYSTEM.norm>
0

>  <SCORE.heavy>
10

>  <SCORE.norm>
-0.484273

>  <RMSD>
13.708

$$$$
ligand
 OpenBabel11021811473D
libRbt.so/2013.1/901 2013/11/27
 10  9  0  0  0  0  0  0  0  0999 V2000
   25.6374   13.9150    5.8849 N   0  0  0  0  0  0  0  0  0  0  0  0
   25.2686   14.0330    7.3282 C   0  0  2  0  0  0  0  0  0  0  0  0
   24.5765   15.3627    7.6488 C   0  0  0  0  0  0  0  0  0  0  0  0
   24.8134   16.3986    7.0094 O   0  0  0  0  0  0  0  0  0  0  0  0
   26.4914   13.8141    8.2233 C   0  0  0  0  0  0  0  0  0  0  0  0
   26.1597   13.8258    9.6982 C   0  0  0  0  0  0  0  0  0  0  0  0
   27.3799   13.5704   10.5493 C   0  0  0  0  0  0  0  0  0  0  0  0
   28.3944   14.7005   10.4114 C   0  0  0  0  0  0  0  0  0  0  0  0
   27.8641   16.0266   10.8279 N   0  0  0  0  0  0  0  0  0  0  0  0
   23.7248   15.4377    8.5398 O   0  0  0  0  0  0  0  0  0  0  0  0
  2  1  1  6  0  0  0
  2  3  1  0  0  0  0
  2  5  1  0  0  0  0
  3  4  1  0  0  0  0
  3 10  1  0  0  0  0
  5  6  1  0  0  0  0
  6  7  1  0  0  0  0
  7  8  1  0  0  0  0
  8  9  1  0  0  0  0
M  END
>  <CHROM.1>
-29.52169603,-175.96047592,178.46338800,65.22325643,60.21064868,26.00777876
14.73766370,8.61170837,-2.67242293,-0.74085511,0.77788504

>  <Name>
ligand

>  <RI>
0

>  <Rbt.Current_Directory>
/home/itssahil/PROJECTS/Mol_Feturizer/New_Systems/rnas/3DIY

>  <Rbt.Executable>
rbdock ($Id: //depot/dev/client3/rdock/2013.1/src/exe/rbdock.cxx#4 $)

>  <Rbt.Library>
libRbt.so (2013.1, Build901 2013/11/27)

>  <Rbt.Parameter_File>
/export/apps/rDock/src/rDock_2013.1_src/data/scripts/dock_solv.prm

>  <Rbt.Receptor>
prm/blind_docking_40.prm

>  <SCORE>
-4.99747

>  <SCORE.INTER>
-5.3129

>  <SCORE.INTER.CONST>
1

>  <SCORE.INTER.POLAR>
0

>  <SCORE.INTER.ROT>
5

>  <SCORE.INTER.SOLV>
13.3694

>  <SCORE.INTER.VDW>
-14.9317

>  <SCORE.INTER.norm>
-0.53129

>  <SCORE.INTRA>
0.315435

>  <SCORE.INTRA.DIHEDRAL>
-0.776249

>  <SCORE.INTRA.DIHEDRAL.0>
2.56603

>  <SCORE.INTRA.POLAR>
0

>  <SCORE.INTRA.POLAR.0>
0

>  <SCORE.INTRA.REPUL>
0

>  <SCORE.INTRA.REPUL.0>
0

>  <SCORE.INTRA.SOLV>
-0.0767593

>  <SCORE.INTRA.SOLV.lig_0>
-32.0799

>  <SCORE.INTRA.VDW>
0.741939

>  <SCORE.INTRA.VDW.0>
-0.618248

>  <SCORE.INTRA.norm>
0.0315435

>  <SCORE.RESTR>
0

>  <SCORE.RESTR.CAVITY>
0

>  <SCORE.RESTR.norm>
0

>  <SCORE.SYSTEM>
0

>  <SCORE.SYSTEM.CONST>
0

>  <SCORE.SYSTEM.DIHEDRAL>
0

>  <SCORE.SYSTEM.SOLV>
0

>  <SCORE.SYSTEM.norm>
0

>  <SCORE.heavy>
10

>  <SCORE.norm>
-0.499747

>  <RMSD>
13.727

$$$$
ligand
 OpenBabel11021811473D
libRbt.so/2013.1/901 2013/11/27
 10  9  0  0  0  0  0  0  0  0999 V2000
   25.5325   13.5516    5.6118 N   0  0  0  0  0  0  0  0  0  0  0  0
   25.3958   13.8734    7.0647 C   0  0  2  0  0  0  0  0  0  0  0  0
   24.5067   15.0974    7.3122 C   0  0  0  0  0  0  0  0  0  0  0  0
   23.5337   15.0592    8.0802 O   0  0  0  0  0  0  0  0  0  0  0  0
   26.7703   14.0450    7.7170 C   0  0  0  0  0  0  0  0  0  0  0  0
   26.6936   14.4939    9.1585 C   0  0  0  0  0  0  0  0  0  0  0  0
   28.0646   14.6551    9.7692 C   0  0  0  0  0  0  0  0  0  0  0  0
   27.9750   15.2153   11.1847 C   0  0  0  0  0  0  0  0  0  0  0  0
   27.1259   14.3978   12.0924 N   0  0  0  0  0  0  0  0  0  0  0  0
   24.7550   16.1823    6.7773 O   0  0  0  0  0  0  0  0  0  0  0  0
  2  1  1  6  0  0  0
  2  3  1  0  0  0  0
  2  5  1  0  0  0  0
  3  4  1  0  0  0  0
  3 10  1  0  0  0  0
  5  6  1  0  0  0  0
  6  7  1  0  0  0  0
  7  8  1  0  0  0  0
  8  9  1  0  0  0  0
M  END
>  <CHROM.1>
126.37165188,174.82297479,-179.90637838,175.41020804,56.33830672,26.00877534
14.68354476,8.47413128,-2.22856812,-0.43912383,1.25889577

>  <Name>
ligand

>  <RI>
0

>  <Rbt.Current_Directory>
/home/itssahil/PROJECTS/Mol_Feturizer/New_Systems/rnas/3DIY

>  <Rbt.Executable>
rbdock ($Id: //depot/dev/client3/rdock/2013.1/src/exe/rbdock.cxx#4 $)

>  <Rbt.Library>
libRbt.so (2013.1, Build901 2013/11/27)

>  <Rbt.Parameter_File>
/export/apps/rDock/src/rDock_2013.1_src/data/scripts/dock_solv.prm

>  <Rbt.Receptor>
prm/blind_docking_40.prm

>  <SCORE>
-4.24355

>  <SCORE.INTER>
-3.76852

>  <SCORE.INTER.CONST>
1

>  <SCORE.INTER.POLAR>
0

>  <SCORE.INTER.ROT>
5

>  <SCORE.INTER.SOLV>
14.3238

>  <SCORE.INTER.VDW>
-14.2203

>  <SCORE.INTER.norm>
-0.376852

>  <SCORE.INTRA>
-0.475025

>  <SCORE.INTRA.DIHEDRAL>
-0.786024

>  <SCORE.INTRA.DIHEDRAL.0>
2.56603

>  <SCORE.INTRA.POLAR>
0

>  <SCORE.INTRA.POLAR.0>
0

>  <SCORE.INTRA.REPUL>
0

>  <SCORE.INTRA.REPUL.0>
0

>  <SCORE.INTRA.SOLV>
-0.638228

>  <SCORE.INTRA.SOLV.lig_0>
-32.0799

>  <SCORE.INTRA.VDW>
0.237102

>  <SCORE.INTRA.VDW.0>
-0.618248

>  <SCORE.INTRA.norm>
-0.0475025

>  <SCORE.RESTR>
0

>  <SCORE.RESTR.CAVITY>
0

>  <SCORE.RESTR.norm>
0

>  <SCORE.SYSTEM>
0

>  <SCORE.SYSTEM.CONST>
0

>  <SCORE.SYSTEM.DIHEDRAL>
0

>  <SCORE.SYSTEM.SOLV>
0

>  <SCORE.SYSTEM.norm>
0

>  <SCORE.heavy>
10

>  <SCORE.norm>
-0.424355

>  <RMSD>
13.897

$$$$
ligand
 OpenBabel11021811473D
libRbt.so/2013.1/901 2013/11/27
 10  9  0  0  0  0  0  0  0  0999 V2000
   26.5729   14.1666   10.6153 N   0  0  0  0  0  0  0  0  0  0  0  0
   27.2590   13.9898    9.2996 C   0  0  2  0  0  0  0  0  0  0  0  0
   28.2798   15.0982    9.0179 C   0  0  0  0  0  0  0  0  0  0  0  0
   28.1043   16.2659    9.3969 O   0  0  0  0  0  0  0  0  0  0  0  0
   26.2388   13.8735    8.1638 C   0  0  0  0  0  0  0  0  0  0  0  0
   26.8677   13.5399    6.8301 C   0  0  0  0  0  0  0  0  0  0  0  0
   25.8447   13.5057    5.7208 C   0  0  0  0  0  0  0  0  0  0  0  0
   26.4858   13.1220    4.3915 C   0  0  0  0  0  0  0  0  0  0  0  0
   27.5434   14.0700    3.9486 N   0  0  0  0  0  0  0  0  0  0  0  0
   29.3379   14.8538    8.4302 O   0  0  0  0  0  0  0  0  0  0  0  0
  2  1  1  1  0  0  0
  2  3  1  0  0  0  0
  2  5  1  0  0  0  0
  3  4  1  0  0  0  0
  3 10  1  0  0  0  0
  5  6  1  0  0  0  0
  6  7  1  0  0  0  0
  7  8  1  0  0  0  0
  8  9  1  0  0  0  0
M  END
>  <CHROM.1>
-34.19581357,-173.60739656,-176.94721967,-178.07926425,-60.49007775,27.27980562
14.27494166,7.58599310,1.32506536,0.56816689,1.41783746

>  <Name>
ligand

>  <RI>
0

>  <Rbt.Current_Directory>
/home/itssahil/PROJECTS/Mol_Feturizer/New_Systems/rnas/3DIY

>  <Rbt.Executable>
rbdock ($Id: //depot/dev/client3/rdock/2013.1/src/exe/rbdock.cxx#4 $)

>  <Rbt.Library>
libRbt.so (2013.1, Build901 2013/11/27)

>  <Rbt.Parameter_File>
/export/apps/rDock/src/rDock_2013.1_src/data/scripts/dock_solv.prm

>  <Rbt.Receptor>
prm/blind_docking_60.prm

>  <SCORE>
-4.25081

>  <SCORE.INTER>
-3.44361

>  <SCORE.INTER.CONST>
1

>  <SCORE.INTER.POLAR>
0

>  <SCORE.INTER.ROT>
5

>  <SCORE.INTER.SOLV>
7.03489

>  <SCORE.INTER.VDW>
-11.574

>  <SCORE.INTER.norm>
-0.344361

>  <SCORE.INTRA>
-0.807198

>  <SCORE.INTRA.DIHEDRAL>
-0.760373

>  <SCORE.INTRA.DIHEDRAL.0>
2.56603

>  <SCORE.INTRA.POLAR>
0

>  <SCORE.INTRA.POLAR.0>
0

>  <SCORE.INTRA.REPUL>
0

>  <SCORE.INTRA.REPUL.0>
0

>  <SCORE.INTRA.SOLV>
-0.661364

>  <SCORE.INTRA.SOLV.lig_0>
-32.0799

>  <SCORE.INTRA.VDW>
-0.0963294

>  <SCORE.INTRA.VDW.0>
-0.618248

>  <SCORE.INTRA.norm>
-0.0807198

>  <SCORE.RESTR>
0

>  <SCORE.RESTR.CAVITY>
0

>  <SCORE.RESTR.norm>
0

>  <SCORE.SYSTEM>
0

>  <SCORE.SYSTEM.CONST>
0

>  <SCORE.SYSTEM.DIHEDRAL>
0

>  <SCORE.SYSTEM.SOLV>
0

>  <SCORE.SYSTEM.norm>
0

>  <SCORE.heavy>
10

>  <SCORE.norm>
-0.425081

>  <RMSD>
13.941

$$$$
ligand
 OpenBabel11021811473D
libRbt.so/2013.1/901 2013/11/27
 10  9  0  0  0  0  0  0  0  0999 V2000
   31.0053   15.3531    5.5292 N   0  0  0  0  0  0  0  0  0  0  0  0
   30.0325   14.5787    6.3580 C   0  0  2  0  0  0  0  0  0  0  0  0
   28.7964   14.1479    5.5604 C   0  0  0  0  0  0  0  0  0  0  0  0
   28.3571   14.8189    4.6145 O   0  0  0  0  0  0  0  0  0  0  0  0
   29.6378   15.3639    7.6118 C   0  0  0  0  0  0  0  0  0  0  0  0
   28.6829   14.6112    8.5100 C   0  0  0  0  0  0  0  0  0  0  0  0
   28.1777   15.4748    9.6402 C   0  0  0  0  0  0  0  0  0  0  0  0
   27.2676   14.6839   10.5739 C   0  0  0  0  0  0  0  0  0  0  0  0
   26.0370   14.1752    9.9106 N   0  0  0  0  0  0  0  0  0  0  0  0
   28.2135   13.0890    5.8133 O   0  0  0  0  0  0  0  0  0  0  0  0
  2  1  1  6  0  0  0
  2  3  1  0  0  0  0
  2  5  1  0  0  0  0
  3  4  1  0  0  0  0
  3 10  1  0  0  0  0
  5  6  1  0  0  0  0
  6  7  1  0  0  0  0
  7  8  1  0  0  0  0
  8  9  1  0  0  0  0
M  END
>  <CHROM.1>
-30.43550933,-178.38410274,-172.72520589,-177.34435584,-62.38276726,28.59883932
14.61796186,7.38461912,-1.04804237,0.47766051,1.29249668

>  <Name>
ligand

>  <RI>
0

>  <Rbt.Current_Directory>
/home/itssahil/PROJECTS/Mol_Feturizer/New_Systems/rnas/3DIY

>  <Rbt.Executable>
rbdock ($Id: //depot/dev/client3/rdock/2013.1/src/exe/rbdock.cxx#4 $)

>  <Rbt.Library>
libRbt.so (2013.1, Build901 2013/11/27)

>  <Rbt.Parameter_File>
/export/apps/rDock/src/rDock_2013.1_src/data/scripts/dock_solv.prm

>  <Rbt.Receptor>
prm/blind_docking_40.prm

>  <SCORE>
-4.43694

>  <SCORE.INTER>
-3.7586

>  <SCORE.INTER.CONST>
1

>  <SCORE.INTER.POLAR>
0

>  <SCORE.INTER.ROT>
5

>  <SCORE.INTER.SOLV>
11.4131

>  <SCORE.INTER.VDW>
-13.2434

>  <SCORE.INTER.norm>
-0.37586

>  <SCORE.INTRA>
-0.678348

>  <SCORE.INTRA.DIHEDRAL>
-0.676305

>  <SCORE.INTRA.DIHEDRAL.0>
2.56603

>  <SCORE.INTRA.POLAR>
0

>  <SCORE.INTRA.POLAR.0>
0

>  <SCORE.INTRA.REPUL>
0

>  <SCORE.INTRA.REPUL.0>
0

>  <SCORE.INTRA.SOLV>
-0.692351

>  <SCORE.INTRA.SOLV.lig_0>
-32.0799

>  <SCORE.INTRA.VDW>
0.0059796

>  <SCORE.INTRA.VDW.0>
-0.618248

>  <SCORE.INTRA.norm>
-0.0678348

>  <SCORE.RESTR>
0

>  <SCORE.RESTR.CAVITY>
0

>  <SCORE.RESTR.norm>
0

>  <SCORE.SYSTEM>
0

>  <SCORE.SYSTEM.CONST>
0

>  <SCORE.SYSTEM.DIHEDRAL>
0

>  <SCORE.SYSTEM.SOLV>
0

>  <SCORE.SYSTEM.norm>
0

>  <SCORE.heavy>
10

>  <SCORE.norm>
-0.443694

>  <RMSD>
13.951

$$$$
ligand
 OpenBabel11021811473D
libRbt.so/2013.1/901 2013/11/27
 10  9  0  0  0  0  0  0  0  0999 V2000
   21.4096   12.6907   12.8550 N   0  0  0  0  0  0  0  0  0  0  0  0
   21.8297   13.8299   11.9839 C   0  0  2  0  0  0  0  0  0  0  0  0
   20.6362   14.6311   11.4516 C   0  0  0  0  0  0  0  0  0  0  0  0
   20.0931   14.3618   10.3697 O   0  0  0  0  0  0  0  0  0  0  0  0
   22.7242   13.3416   10.8412 C   0  0  0  0  0  0  0  0  0  0  0  0
   23.2258   14.4610    9.9575 C   0  0  0  0  0  0  0  0  0  0  0  0
   24.0880   13.9432    8.8319 C   0  0  0  0  0  0  0  0  0  0  0  0
   24.5405   15.0769    7.9180 C   0  0  0  0  0  0  0  0  0  0  0  0
   25.4134   14.6247    6.8013 N   0  0  0  0  0  0  0  0  0  0  0  0
   20.1488   15.5572   12.1070 O   0  0  0  0  0  0  0  0  0  0  0  0
  2  1  1  6  0  0  0
  2  3  1  0  0  0  0
  2  5  1  0  0  0  0
  3  4  1  0  0  0  0
  3 10  1  0  0  0  0
  5  6  1  0  0  0  0
  6  7  1  0  0  0  0
  7  8  1  0  0  0  0
  8  9  1  0  0  0  0
M  END
>  <CHROM.1>
-91.26713315,-177.69798607,-179.22848742,177.74463283,179.06542035,22.37611335
14.26935697,10.30953891,-2.50306761,0.52666792,-0.89034568

>  <Name>
ligand

>  <RI>
0

>  <Rbt.Current_Directory>
/home/itssahil/PROJECTS/Mol_Feturizer/New_Systems/rnas/3DIY

>  <Rbt.Executable>
rbdock ($Id: //depot/dev/client3/rdock/2013.1/src/exe/rbdock.cxx#4 $)

>  <Rbt.Library>
libRbt.so (2013.1, Build901 2013/11/27)

>  <Rbt.Parameter_File>
/export/apps/rDock/src/rDock_2013.1_src/data/scripts/dock_solv.prm

>  <Rbt.Receptor>
prm/blind_docking_60.prm

>  <SCORE>
-3.49908

>  <SCORE.INTER>
-2.39112

>  <SCORE.INTER.CONST>
1

>  <SCORE.INTER.POLAR>
0

>  <SCORE.INTER.ROT>
5

>  <SCORE.INTER.SOLV>
7.79753

>  <SCORE.INTER.VDW>
-11.1266

>  <SCORE.INTER.norm>
-0.239112

>  <SCORE.INTRA>
-1.10796

>  <SCORE.INTRA.DIHEDRAL>
-1.05761

>  <SCORE.INTRA.DIHEDRAL.0>
2.56603

>  <SCORE.INTRA.POLAR>
0

>  <SCORE.INTRA.POLAR.0>
0

>  <SCORE.INTRA.REPUL>
0

>  <SCORE.INTRA.REPUL.0>
0

>  <SCORE.INTRA.SOLV>
-1.60888

>  <SCORE.INTRA.SOLV.lig_0>
-32.0799

>  <SCORE.INTRA.VDW>
0.225288

>  <SCORE.INTRA.VDW.0>
-0.618248

>  <SCORE.INTRA.norm>
-0.110796

>  <SCORE.RESTR>
0

>  <SCORE.RESTR.CAVITY>
0

>  <SCORE.RESTR.norm>
0

>  <SCORE.SYSTEM>
0

>  <SCORE.SYSTEM.CONST>
0

>  <SCORE.SYSTEM.DIHEDRAL>
0

>  <SCORE.SYSTEM.SOLV>
0

>  <SCORE.SYSTEM.norm>
0

>  <SCORE.heavy>
10

>  <SCORE.norm>
-0.349908

>  <RMSD>
14.141

$$$$
ligand
 OpenBabel11021811473D
libRbt.so/2013.1/901 2013/11/27
 10  9  0  0  0  0  0  0  0  0999 V2000
   26.0263   14.2250    9.8109 N   0  0  0  0  0  0  0  0  0  0  0  0
   24.6198   14.4124    9.3422 C   0  0  2  0  0  0  0  0  0  0  0  0
   23.6171   14.4535   10.5010 C   0  0  0  0  0  0  0  0  0  0  0  0
   23.9362   14.1431   11.6585 O   0  0  0  0  0  0  0  0  0  0  0  0
   24.2392   13.3408    8.3170 C   0  0  0  0  0  0  0  0  0  0  0  0
   24.8345   13.5868    6.9494 C   0  0  0  0  0  0  0  0  0  0  0  0
   26.3233   13.3386    6.9330 C   0  0  0  0  0  0  0  0  0  0  0  0
   26.9098   13.5962    5.5492 C   0  0  0  0  0  0  0  0  0  0  0  0
   28.3852   13.4148    5.4883 N   0  0  0  0  0  0  0  0  0  0  0  0
   22.4563   14.8361   10.3243 O   0  0  0  0  0  0  0  0  0  0  0  0
  2  1  1  1  0  0  0
  2  3  1  0  0  0  0
  2  5  1  0  0  0  0
  3  4  1  0  0  0  0
  3 10  1  0  0  0  0
  5  6  1  0  0  0  0
  6  7  1  0  0  0  0
  7  8  1  0  0  0  0
  8  9  1  0  0  0  0
M  END
>  <CHROM.1>
-11.03307838,-76.06470658,71.61239897,-179.77051657,177.86844634,25.10534379
13.93945516,8.52275402,-2.21724702,0.05428090,-1.73074245

>  <Name>
ligand

>  <RI>
0

>  <Rbt.Current_Directory>
/home/itssahil/PROJECTS/Mol_Feturizer/New_Systems/rnas/3DIY

>  <Rbt.Executable>
rbdock ($Id: //depot/dev/client3/rdock/2013.1/src/exe/rbdock.cxx#4 $)

>  <Rbt.Library>
libRbt.so (2013.1, Build901 2013/11/27)

>  <Rbt.Parameter_File>
/export/apps/rDock/src/rDock_2013.1_src/data/scripts/dock_solv.prm

>  <Rbt.Receptor>
prm/blind_docking_40.prm

>  <SCORE>
-1.74305

>  <SCORE.INTER>
-2.31057

>  <SCORE.INTER.CONST>
1

>  <SCORE.INTER.POLAR>
0

>  <SCORE.INTER.ROT>
5

>  <SCORE.INTER.SOLV>
5.64467

>  <SCORE.INTER.VDW>
-10.3553

>  <SCORE.INTER.norm>
-0.231057

>  <SCORE.INTRA>
0.567518

>  <SCORE.INTRA.DIHEDRAL>
0.574136

>  <SCORE.INTRA.DIHEDRAL.0>
2.56603

>  <SCORE.INTRA.POLAR>
0

>  <SCORE.INTRA.POLAR.0>
0

>  <SCORE.INTRA.REPUL>
0

>  <SCORE.INTRA.REPUL.0>
0

>  <SCORE.INTRA.SOLV>
0.457098

>  <SCORE.INTRA.SOLV.lig_0>
-32.0799

>  <SCORE.INTRA.VDW>
0.0519007

>  <SCORE.INTRA.VDW.0>
-0.618248

>  <SCORE.INTRA.norm>
0.0567518

>  <SCORE.RESTR>
0

>  <SCORE.RESTR.CAVITY>
0

>  <SCORE.RESTR.norm>
0

>  <SCORE.SYSTEM>
0

>  <SCORE.SYSTEM.CONST>
0

>  <SCORE.SYSTEM.DIHEDRAL>
0

>  <SCORE.SYSTEM.SOLV>
0

>  <SCORE.SYSTEM.norm>
0

>  <SCORE.heavy>
10

>  <SCORE.norm>
-0.174305

>  <RMSD>
14.209

$$$$
ligand
 OpenBabel11021811473D
libRbt.so/2013.1/901 2013/11/27
 10  9  0  0  0  0  0  0  0  0999 V2000
   25.5732   14.1100   10.2178 N   0  0  0  0  0  0  0  0  0  0  0  0
   24.3793   14.3619    9.3551 C   0  0  2  0  0  0  0  0  0  0  0  0
   23.0600   14.0983   10.0897 C   0  0  0  0  0  0  0  0  0  0  0  0
   22.0551   14.8025    9.9105 O   0  0  0  0  0  0  0  0  0  0  0  0
   24.4633   13.5529    8.0579 C   0  0  0  0  0  0  0  0  0  0  0  0
   25.6102   13.9731    7.1671 C   0  0  0  0  0  0  0  0  0  0  0  0
   25.6790   13.1391    5.9109 C   0  0  0  0  0  0  0  0  0  0  0  0
   26.7838   13.6315    4.9823 C   0  0  0  0  0  0  0  0  0  0  0  0
   28.1478   13.4953    5.5604 N   0  0  0  0  0  0  0  0  0  0  0  0
   22.9432   13.1438   10.8646 O   0  0  0  0  0  0  0  0  0  0  0  0
  2  1  1  1  0  0  0
  2  3  1  0  0  0  0
  2  5  1  0  0  0  0
  3  4  1  0  0  0  0
  3 10  1  0  0  0  0
  5  6  1  0  0  0  0
  6  7  1  0  0  0  0
  7  8  1  0  0  0  0
  8  9  1  0  0  0  0
M  END
>  <CHROM.1>
142.78974682,-65.26082074,178.93593635,176.37736797,64.00176223,24.83202223
13.82721967,8.23755459,-2.26863379,0.08479312,-1.61353024

>  <Name>
ligand

>  <RI>
0

>  <Rbt.Current_Directory>
/home/itssahil/PROJECTS/Mol_Feturizer/New_Systems/rnas/3DIY

>  <Rbt.Executable>
rbdock ($Id: //depot/dev/client3/rdock/2013.1/src/exe/rbdock.cxx#4 $)

>  <Rbt.Library>
libRbt.so (2013.1, Build901 2013/11/27)

>  <Rbt.Parameter_File>
/export/apps/rDock/src/rDock_2013.1_src/data/scripts/dock_solv.prm

>  <Rbt.Receptor>
prm/blind_docking_100.prm

>  <SCORE>
-3.08591

>  <SCORE.INTER>
-2.54625

>  <SCORE.INTER.CONST>
1

>  <SCORE.INTER.POLAR>
0

>  <SCORE.INTER.ROT>
5

>  <SCORE.INTER.SOLV>
6.2702

>  <SCORE.INTER.VDW>
-10.7209

>  <SCORE.INTER.norm>
-0.254625

>  <SCORE.INTRA>
-0.539658

>  <SCORE.INTRA.DIHEDRAL>
-0.84951

>  <SCORE.INTRA.DIHEDRAL.0>
2.56603

>  <SCORE.INTRA.POLAR>
0

>  <SCORE.INTRA.POLAR.0>
0

>  <SCORE.INTRA.REPUL>
0

>  <SCORE.INTRA.REPUL.0>
0

>  <SCORE.INTRA.SOLV>
0.134309

>  <SCORE.INTRA.SOLV.lig_0>
-32.0799

>  <SCORE.INTRA.VDW>
-0.182057

>  <SCORE.INTRA.VDW.0>
-0.618248

>  <SCORE.INTRA.norm>
-0.0539658

>  <SCORE.RESTR>
0

>  <SCORE.RESTR.CAVITY>
0

>  <SCORE.RESTR.norm>
0

>  <SCORE.SYSTEM>
0

>  <SCORE.SYSTEM.CONST>
0

>  <SCORE.SYSTEM.DIHEDRAL>
0

>  <SCORE.SYSTEM.SOLV>
0

>  <SCORE.SYSTEM.norm>
0

>  <SCORE.heavy>
10

>  <SCORE.norm>
-0.308591

>  <RMSD>
14.636

$$$$
ligand
 OpenBabel11021811473D
libRbt.so/2013.1/901 2013/11/27
 10  9  0  0  0  0  0  0  0  0999 V2000
   25.2422   14.2111   10.3525 N   0  0  0  0  0  0  0  0  0  0  0  0
   24.1054   14.3864    9.3985 C   0  0  2  0  0  0  0  0  0  0  0  0
   22.7485   14.0778   10.0415 C   0  0  0  0  0  0  0  0  0  0  0  0
   22.5928   13.1303   10.8264 O   0  0  0  0  0  0  0  0  0  0  0  0
   24.3220   13.5525    8.1328 C   0  0  0  0  0  0  0  0  0  0  0  0
   25.5638   13.9459    7.3656 C   0  0  0  0  0  0  0  0  0  0  0  0
   25.7695   13.0774    6.1483 C   0  0  0  0  0  0  0  0  0  0  0  0
   27.0373   13.4712    5.3981 C   0  0  0  0  0  0  0  0  0  0  0  0
   27.2901   12.6442    4.1875 N   0  0  0  0  0  0  0  0  0  0  0  0
   21.7649   14.7922    9.8248 O   0  0  0  0  0  0  0  0  0  0  0  0
  2  1  1  1  0  0  0
  2  3  1  0  0  0  0
  2  5  1  0  0  0  0
  3  4  1  0  0  0  0
  3 10  1  0  0  0  0
  5  6  1  0  0  0  0
  6  7  1  0  0  0  0
  7  8  1  0  0  0  0
  8  9  1  0  0  0  0
M  END
>  <CHROM.1>
-39.93995424,-61.43081205,178.25909675,-179.07083714,179.93131207,24.60520297
13.72580788,8.19262218,-2.23449189,0.03648782,-1.73152658

>  <Name>
ligand

>  <RI>
0

>  <Rbt.Current_Directory>
/home/itssahil/PROJECTS/Mol_Feturizer/New_Systems/rnas/3DIY

>  <Rbt.Executable>
rbdock ($Id: //depot/dev/client3/rdock/2013.1/src/exe/rbdock.cxx#4 $)

>  <Rbt.Library>
libRbt.so (2013.1, Build901 2013/11/27)

>  <Rbt.Parameter_File>
/export/apps/rDock/src/rDock_2013.1_src/data/scripts/dock_solv.prm

>  <Rbt.Receptor>
prm/blind_docking_40.prm

>  <SCORE>
-3.82022

>  <SCORE.INTER>
-2.76515

>  <SCORE.INTER.CONST>
1

>  <SCORE.INTER.POLAR>
0

>  <SCORE.INTER.ROT>
5

>  <SCORE.INTER.SOLV>
5.50707

>  <SCORE.INTER.VDW>
-10.6125

>  <SCORE.INTER.norm>
-0.276515

>  <SCORE.INTRA>
-1.05506

>  <SCORE.INTRA.DIHEDRAL>
-0.936852

>  <SCORE.INTRA.DIHEDRAL.0>
2.56603

>  <SCORE.INTRA.POLAR>
0

>  <SCORE.INTRA.POLAR.0>
0

>  <SCORE.INTRA.REPUL>
0

>  <SCORE.INTRA.REPUL.0>
0

>  <SCORE.INTRA.SOLV>
-0.681707

>  <SCORE.INTRA.SOLV.lig_0>
-32.0799

>  <SCORE.INTRA.VDW>
-0.245784

>  <SCORE.INTRA.VDW.0>
-0.618248

>  <SCORE.INTRA.norm>
-0.105506

>  <SCORE.RESTR>
0

>  <SCORE.RESTR.CAVITY>
0

>  <SCORE.RESTR.norm>
0

>  <SCORE.SYSTEM>
0

>  <SCORE.SYSTEM.CONST>
0

>  <SCORE.SYSTEM.DIHEDRAL>
0

>  <SCORE.SYSTEM.SOLV>
0

>  <SCORE.SYSTEM.norm>
0

>  <SCORE.heavy>
10

>  <SCORE.norm>
-0.382022

>  <RMSD>
14.790

$$$$
ligand
 OpenBabel11021811473D
libRbt.so/2013.1/901 2013/11/27
 10  9  0  0  0  0  0  0  0  0999 V2000
   20.2622   13.7305   12.4597 N   0  0  0  0  0  0  0  0  0  0  0  0
   20.7418   14.4840   11.2616 C   0  0  2  0  0  0  0  0  0  0  0  0
   19.7061   14.5078   10.1317 C   0  0  0  0  0  0  0  0  0  0  0  0
   18.6560   13.8504   10.1880 O   0  0  0  0  0  0  0  0  0  0  0  0
   22.0841   13.9334   10.7724 C   0  0  0  0  0  0  0  0  0  0  0  0
   22.7392   14.8050    9.7251 C   0  0  0  0  0  0  0  0  0  0  0  0
   23.9962   14.1741    9.1771 C   0  0  0  0  0  0  0  0  0  0  0  0
   24.6135   15.0368    8.0817 C   0  0  0  0  0  0  0  0  0  0  0  0
   25.8488   14.4527    7.4934 N   0  0  0  0  0  0  0  0  0  0  0  0
   19.8687   15.2181    9.1348 O   0  0  0  0  0  0  0  0  0  0  0  0
  2  1  1  1  0  0  0
  2  3  1  0  0  0  0
  2  5  1  0  0  0  0
  3  4  1  0  0  0  0
  3 10  1  0  0  0  0
  5  6  1  0  0  0  0
  6  7  1  0  0  0  0
  7  8  1  0  0  0  0
  8  9  1  0  0  0  0
M  END
>  <CHROM.1>
-6.79339235,-169.62354072,-174.94681187,177.63490263,-179.29964881,21.81750453
14.42087671,9.82319321,-2.68558258,0.07703649,-1.26091040

>  <Name>
ligand

>  <RI>
0

>  <Rbt.Current_Directory>
/home/itssahil/PROJECTS/Mol_Feturizer/New_Systems/rnas/3DIY

>  <Rbt.Executable>
rbdock ($Id: //depot/dev/client3/rdock/2013.1/src/exe/rbdock.cxx#4 $)

>  <Rbt.Library>
libRbt.so (2013.1, Build901 2013/11/27)

>  <Rbt.Parameter_File>
/export/apps/rDock/src/rDock_2013.1_src/data/scripts/dock_solv.prm

>  <Rbt.Receptor>
prm/blind_docking_60.prm

>  <SCORE>
-5.15916

>  <SCORE.INTER>
-4.16287

>  <SCORE.INTER.CONST>
1

>  <SCORE.INTER.POLAR>
0

>  <SCORE.INTER.ROT>
5

>  <SCORE.INTER.SOLV>
4.40141

>  <SCORE.INTER.VDW>
-11.1757

>  <SCORE.INTER.norm>
-0.416287

>  <SCORE.INTRA>
-0.996298

>  <SCORE.INTRA.DIHEDRAL>
-0.480985

>  <SCORE.INTRA.DIHEDRAL.0>
2.56603

>  <SCORE.INTRA.POLAR>
0

>  <SCORE.INTRA.POLAR.0>
0

>  <SCORE.INTRA.REPUL>
0

>  <SCORE.INTRA.REPUL.0>
0

>  <SCORE.INTRA.SOLV>
-1.58496

>  <SCORE.INTRA.SOLV.lig_0>
-32.0799

>  <SCORE.INTRA.VDW>
0.0366729

>  <SCORE.INTRA.VDW.0>
-0.618248

>  <SCORE.INTRA.norm>
-0.0996298

>  <SCORE.RESTR>
0

>  <SCORE.RESTR.CAVITY>
0

>  <SCORE.RESTR.norm>
0

>  <SCORE.SYSTEM>
0

>  <SCORE.SYSTEM.CONST>
0

>  <SCORE.SYSTEM.DIHEDRAL>
0

>  <SCORE.SYSTEM.SOLV>
0

>  <SCORE.SYSTEM.norm>
0

>  <SCORE.heavy>
10

>  <SCORE.norm>
-0.515916

>  <RMSD>
14.914

$$$$
ligand
 OpenBabel11021811473D
libRbt.so/2013.1/901 2013/11/27
 10  9  0  0  0  0  0  0  0  0999 V2000
   16.9638   33.2716   21.5608 N   0  0  0  0  0  0  0  0  0  0  0  0
   18.2148   34.0046   21.1995 C   0  0  2  0  0  0  0  0  0  0  0  0
   18.8812   34.6599   22.4147 C   0  0  0  0  0  0  0  0  0  0  0  0
   19.1346   34.0237   23.4486 O   0  0  0  0  0  0  0  0  0  0  0  0
   17.9466   35.0294   20.0940 C   0  0  0  0  0  0  0  0  0  0  0  0
   17.4839   34.4014   18.7991 C   0  0  0  0  0  0  0  0  0  0  0  0
   17.3224   35.4279   17.7044 C   0  0  0  0  0  0  0  0  0  0  0  0
   16.7481   34.7991   16.4394 C   0  0  0  0  0  0  0  0  0  0  0  0
   17.6322   33.7644   15.8385 N   0  0  0  0  0  0  0  0  0  0  0  0
   19.2237   35.8460   22.3895 O   0  0  0  0  0  0  0  0  0  0  0  0
  2  1  1  1  0  0  0
  2  3  1  0  0  0  0
  2  5  1  0  0  0  0
  3  4  1  0  0  0  0
  3 10  1  0  0  0  0
  5  6  1  0  0  0  0
  6  7  1  0  0  0  0
  7  8  1  0  0  0  0
  8  9  1  0  0  0  0
M  END
>  <CHROM.1>
51.78400956,-62.74269767,-175.98575581,-175.38957778,-63.06718775,17.97445891
34.53636101,20.02783574,1.04144097,1.04335496,2.03626374

>  <Name>
ligand

>  <RI>
0

>  <Rbt.Current_Directory>
/home/itssahil/PROJECTS/Mol_Feturizer/New_Systems/rnas/3DIY

>  <Rbt.Executable>
rbdock ($Id: //depot/dev/client3/rdock/2013.1/src/exe/rbdock.cxx#4 $)

>  <Rbt.Library>
libRbt.so (2013.1, Build901 2013/11/27)

>  <Rbt.Parameter_File>
/export/apps/rDock/src/rDock_2013.1_src/data/scripts/dock_solv.prm

>  <Rbt.Receptor>
prm/blind_docking_60.prm

>  <SCORE>
-2.35109

>  <SCORE.INTER>
-2.59765

>  <SCORE.INTER.CONST>
1

>  <SCORE.INTER.POLAR>
0

>  <SCORE.INTER.ROT>
5

>  <SCORE.INTER.SOLV>
5.99133

>  <SCORE.INTER.VDW>
-10.6622

>  <SCORE.INTER.norm>
-0.259765

>  <SCORE.INTRA>
0.246559

>  <SCORE.INTRA.DIHEDRAL>
-0.83424

>  <SCORE.INTRA.DIHEDRAL.0>
2.56603

>  <SCORE.INTRA.POLAR>
0

>  <SCORE.INTRA.POLAR.0>
0

>  <SCORE.INTRA.REPUL>
0

>  <SCORE.INTRA.REPUL.0>
0

>  <SCORE.INTRA.SOLV>
0.140518

>  <SCORE.INTRA.SOLV.lig_0>
-32.0799

>  <SCORE.INTRA.VDW>
0.59342

>  <SCORE.INTRA.VDW.0>
-0.618248

>  <SCORE.INTRA.norm>
0.0246559

>  <SCORE.RESTR>
0

>  <SCORE.RESTR.CAVITY>
0

>  <SCORE.RESTR.norm>
0

>  <SCORE.SYSTEM>
0

>  <SCORE.SYSTEM.CONST>
0

>  <SCORE.SYSTEM.DIHEDRAL>
0

>  <SCORE.SYSTEM.SOLV>
0

>  <SCORE.SYSTEM.norm>
0

>  <SCORE.heavy>
10

>  <SCORE.norm>
-0.235109

>  <RMSD>
22.509

$$$$
ligand
 OpenBabel11021811473D
libRbt.so/2013.1/901 2013/11/27
 10  9  0  0  0  0  0  0  0  0999 V2000
   12.2428   27.4886   14.2759 N   0  0  0  0  0  0  0  0  0  0  0  0
   10.9876   27.9359   14.9524 C   0  0  2  0  0  0  0  0  0  0  0  0
   11.1334   29.3159   15.6037 C   0  0  0  0  0  0  0  0  0  0  0  0
   10.1496   29.9906   15.9427 O   0  0  0  0  0  0  0  0  0  0  0  0
   10.5124   26.8915   15.9661 C   0  0  0  0  0  0  0  0  0  0  0  0
   10.2505   25.5372   15.3474 C   0  0  0  0  0  0  0  0  0  0  0  0
    9.7352   24.5469   16.3634 C   0  0  0  0  0  0  0  0  0  0  0  0
    9.7556   23.1267   15.8084 C   0  0  0  0  0  0  0  0  0  0  0  0
   11.1263   22.6181   15.5332 N   0  0  0  0  0  0  0  0  0  0  0  0
   12.2475   29.7895   15.8477 O   0  0  0  0  0  0  0  0  0  0  0  0
  2  1  1  1  0  0  0
  2  3  1  0  0  0  0
  2  5  1  0  0  0  0
  3  4  1  0  0  0  0
  3 10  1  0  0  0  0
  5  6  1  0  0  0  0
  6  7  1  0  0  0  0
  7  8  1  0  0  0  0
  8  9  1  0  0  0  0
M  END
>  <CHROM.1>
163.27280221,-58.53705440,-177.88373279,-167.97265238,65.21221035,10.81878208
26.76739188,15.57734293,-1.37957854,-0.52111736,-3.07372732

>  <Name>
ligand

>  <RI>
0

>  <Rbt.Current_Directory>
/home/itssahil/PROJECTS/Mol_Feturizer/New_Systems/rnas/3DIY

>  <Rbt.Executable>
rbdock ($Id: //depot/dev/client3/rdock/2013.1/src/exe/rbdock.cxx#4 $)

>  <Rbt.Library>
libRbt.so (2013.1, Build901 2013/11/27)

>  <Rbt.Parameter_File>
/export/apps/rDock/src/rDock_2013.1_src/data/scripts/dock_solv.prm

>  <Rbt.Receptor>
prm/blind_docking_40.prm

>  <SCORE>
-2.00173

>  <SCORE.INTER>
-1.91019

>  <SCORE.INTER.CONST>
1

>  <SCORE.INTER.POLAR>
0

>  <SCORE.INTER.ROT>
5

>  <SCORE.INTER.SOLV>
2.65289

>  <SCORE.INTER.VDW>
-9.09109

>  <SCORE.INTER.norm>
-0.191019

>  <SCORE.INTRA>
-0.0915333

>  <SCORE.INTRA.DIHEDRAL>
-0.374851

>  <SCORE.INTRA.DIHEDRAL.0>
2.56603

>  <SCORE.INTRA.POLAR>
0

>  <SCORE.INTRA.POLAR.0>
0

>  <SCORE.INTRA.REPUL>
0

>  <SCORE.INTRA.REPUL.0>
0

>  <SCORE.INTRA.SOLV>
0.292419

>  <SCORE.INTRA.SOLV.lig_0>
-32.0799

>  <SCORE.INTRA.VDW>
-0.0503171

>  <SCORE.INTRA.VDW.0>
-0.618248

>  <SCORE.INTRA.norm>
-0.00915333

>  <SCORE.RESTR>
0

>  <SCORE.RESTR.CAVITY>
0

>  <SCORE.RESTR.norm>
0

>  <SCORE.SYSTEM>
0

>  <SCORE.SYSTEM.CONST>
0

>  <SCORE.SYSTEM.DIHEDRAL>
0

>  <SCORE.SYSTEM.SOLV>
0

>  <SCORE.SYSTEM.norm>
0

>  <SCORE.heavy>
10

>  <SCORE.norm>
-0.200173

>  <RMSD>
23.176

$$$$
ligand
 OpenBabel11021811473D
libRbt.so/2013.1/901 2013/11/27
 10  9  0  0  0  0  0  0  0  0999 V2000
   14.1710   30.9181   11.3292 N   0  0  0  0  0  0  0  0  0  0  0  0
   15.3674   31.3852   12.0931 C   0  0  2  0  0  0  0  0  0  0  0  0
   16.1938   30.2227   12.6550 C   0  0  0  0  0  0  0  0  0  0  0  0
   15.6630   29.2095   13.1343 O   0  0  0  0  0  0  0  0  0  0  0  0
   14.9608   32.3625   13.1994 C   0  0  0  0  0  0  0  0  0  0  0  0
   16.1417   32.9607   13.9294 C   0  0  0  0  0  0  0  0  0  0  0  0
   15.7050   33.8560   15.0634 C   0  0  0  0  0  0  0  0  0  0  0  0
   16.9039   34.3689   15.8538 C   0  0  0  0  0  0  0  0  0  0  0  0
   16.5261   35.1562   17.0584 N   0  0  0  0  0  0  0  0  0  0  0  0
   17.4279   30.2420   12.6149 O   0  0  0  0  0  0  0  0  0  0  0  0
  2  1  1  1  0  0  0
  2  3  1  0  0  0  0
  2  5  1  0  0  0  0
  3  4  1  0  0  0  0
  3 10  1  0  0  0  0
  5  6  1  0  0  0  0
  6  7  1  0  0  0  0
  7  8  1  0  0  0  0
  8  9  1  0  0  0  0
M  END
>  <CHROM.1>
-39.66592674,-175.03821291,-176.69598533,175.78265123,-174.74592676,15.92382584
32.03365828,13.69631452,1.74072057,0.61738242,-2.51904116

>  <Name>
ligand

>  <RI>
0

>  <Rbt.Current_Directory>
/home/itssahil/PROJECTS/Mol_Feturizer/New_Systems/rnas/3DIY

>  <Rbt.Executable>
rbdock ($Id: //depot/dev/client3/rdock/2013.1/src/exe/rbdock.cxx#4 $)

>  <Rbt.Library>
libRbt.so (2013.1, Build901 2013/11/27)

>  <Rbt.Parameter_File>
/export/apps/rDock/src/rDock_2013.1_src/data/scripts/dock_solv.prm

>  <Rbt.Receptor>
prm/blind_docking_100.prm

>  <SCORE>
-0.0574033

>  <SCORE.INTER>
1.28533

>  <SCORE.INTER.CONST>
1

>  <SCORE.INTER.POLAR>
0

>  <SCORE.INTER.ROT>
5

>  <SCORE.INTER.SOLV>
8.67105

>  <SCORE.INTER.VDW>
-8.9668

>  <SCORE.INTER.norm>
0.128533

>  <SCORE.INTRA>
-1.34273

>  <SCORE.INTRA.DIHEDRAL>
-0.659736

>  <SCORE.INTRA.DIHEDRAL.0>
2.56603

>  <SCORE.INTRA.POLAR>
0

>  <SCORE.INTRA.POLAR.0>
0

>  <SCORE.INTRA.REPUL>
0

>  <SCORE.INTRA.REPUL.0>
0

>  <SCORE.INTRA.SOLV>
-1.59463

>  <SCORE.INTRA.SOLV.lig_0>
-32.0799

>  <SCORE.INTRA.VDW>
-0.21555

>  <SCORE.INTRA.VDW.0>
-0.618248

>  <SCORE.INTRA.norm>
-0.134273

>  <SCORE.RESTR>
0

>  <SCORE.RESTR.CAVITY>
0

>  <SCORE.RESTR.norm>
0

>  <SCORE.SYSTEM>
0

>  <SCORE.SYSTEM.CONST>
0

>  <SCORE.SYSTEM.DIHEDRAL>
0

>  <SCORE.SYSTEM.SOLV>
0

>  <SCORE.SYSTEM.norm>
0

>  <SCORE.heavy>
10

>  <SCORE.norm>
-0.00574033

>  <RMSD>
23.198

$$$$
ligand
 OpenBabel11021811473D
libRbt.so/2013.1/901 2013/11/27
 10  9  0  0  0  0  0  0  0  0999 V2000
   11.5685   27.5567   13.7939 N   0  0  0  0  0  0  0  0  0  0  0  0
   11.6489   28.3180   15.0772 C   0  0  2  0  0  0  0  0  0  0  0  0
   10.7171   29.5352   15.0952 C   0  0  0  0  0  0  0  0  0  0  0  0
   10.6607   30.3345   14.1487 O   0  0  0  0  0  0  0  0  0  0  0  0
   13.0940   28.7211   15.3827 C   0  0  0  0  0  0  0  0  0  0  0  0
   13.2552   29.3827   16.7324 C   0  0  0  0  0  0  0  0  0  0  0  0
   14.7079   29.5987   17.0810 C   0  0  0  0  0  0  0  0  0  0  0  0
   14.8613   30.1176   18.5067 C   0  0  0  0  0  0  0  0  0  0  0  0
   16.2766   30.1989   18.9581 N   0  0  0  0  0  0  0  0  0  0  0  0
    9.9581   29.7410   16.0473 O   0  0  0  0  0  0  0  0  0  0  0  0
  2  1  1  6  0  0  0
  2  3  1  0  0  0  0
  2  5  1  0  0  0  0
  3  4  1  0  0  0  0
  3 10  1  0  0  0  0
  5  6  1  0  0  0  0
  6  7  1  0  0  0  0
  7  8  1  0  0  0  0
  8  9  1  0  0  0  0
M  END
>  <CHROM.1>
-47.22090991,-174.66315196,172.35638122,-173.47998822,173.31431716,12.64364528
29.37453080,16.07598994,-2.55718740,-0.38138924,0.83166662

>  <Name>
ligand

>  <RI>
0

>  <Rbt.Current_Directory>
/home/itssahil/PROJECTS/Mol_Feturizer/New_Systems/rnas/3DIY

>  <Rbt.Executable>
rbdock ($Id: //depot/dev/client3/rdock/2013.1/src/exe/rbdock.cxx#4 $)

>  <Rbt.Library>
libRbt.so (2013.1, Build901 2013/11/27)

>  <Rbt.Parameter_File>
/export/apps/rDock/src/rDock_2013.1_src/data/scripts/dock_solv.prm

>  <Rbt.Receptor>
prm/blind_docking_40.prm

>  <SCORE>
-1.53516

>  <SCORE.INTER>
-0.358965

>  <SCORE.INTER.CONST>
1

>  <SCORE.INTER.POLAR>
0

>  <SCORE.INTER.ROT>
5

>  <SCORE.INTER.SOLV>
2.86999

>  <SCORE.INTER.VDW>
-8.12931

>  <SCORE.INTER.norm>
-0.0358965

>  <SCORE.INTRA>
-1.17619

>  <SCORE.INTRA.DIHEDRAL>
-0.304797

>  <SCORE.INTRA.DIHEDRAL.0>
2.56603

>  <SCORE.INTRA.POLAR>
0

>  <SCORE.INTRA.POLAR.0>
0

>  <SCORE.INTRA.REPUL>
0

>  <SCORE.INTRA.REPUL.0>
0

>  <SCORE.INTRA.SOLV>
-1.59578

>  <SCORE.INTRA.SOLV.lig_0>
-32.0799

>  <SCORE.INTRA.VDW>
-0.225906

>  <SCORE.INTRA.VDW.0>
-0.618248

>  <SCORE.INTRA.norm>
-0.117619

>  <SCORE.RESTR>
0

>  <SCORE.RESTR.CAVITY>
0

>  <SCORE.RESTR.norm>
0

>  <SCORE.SYSTEM>
0

>  <SCORE.SYSTEM.CONST>
0

>  <SCORE.SYSTEM.DIHEDRAL>
0

>  <SCORE.SYSTEM.SOLV>
0

>  <SCORE.SYSTEM.norm>
0

>  <SCORE.heavy>
10

>  <SCORE.norm>
-0.153516

>  <RMSD>
23.287

$$$$
ligand
 OpenBabel11021811473D
libRbt.so/2013.1/901 2013/11/27
 10  9  0  0  0  0  0  0  0  0999 V2000
   17.1042   32.1379   13.1945 N   0  0  0  0  0  0  0  0  0  0  0  0
   17.5889   33.5242   13.4709 C   0  0  2  0  0  0  0  0  0  0  0  0
   16.5052   34.4094   14.0971 C   0  0  0  0  0  0  0  0  0  0  0  0
   15.4000   34.5757   13.5598 O   0  0  0  0  0  0  0  0  0  0  0  0
   18.1639   34.1636   12.2041 C   0  0  0  0  0  0  0  0  0  0  0  0
   19.4508   33.5183   11.7426 C   0  0  0  0  0  0  0  0  0  0  0  0
   19.9833   34.1648   10.4869 C   0  0  0  0  0  0  0  0  0  0  0  0
   19.1438   33.7839    9.2722 C   0  0  0  0  0  0  0  0  0  0  0  0
   19.2052   32.3349    8.9408 N   0  0  0  0  0  0  0  0  0  0  0  0
   16.6865   34.9619   15.1865 O   0  0  0  0  0  0  0  0  0  0  0  0
  2  1  1  6  0  0  0
  2  3  1  0  0  0  0
  2  5  1  0  0  0  0
  3  4  1  0  0  0  0
  3 10  1  0  0  0  0
  5  6  1  0  0  0  0
  6  7  1  0  0  0  0
  7  8  1  0  0  0  0
  8  9  1  0  0  0  0
M  END
>  <CHROM.1>
-55.18364009,-68.36117429,179.53015582,-72.99791283,-65.02615182,17.89320146
33.77852791,12.24033352,2.35075525,0.67812801,0.78733238

>  <Name>
ligand

>  <RI>
0

>  <Rbt.Current_Directory>
/home/itssahil/PROJECTS/Mol_Feturizer/New_Systems/rnas/3DIY

>  <Rbt.Executable>
rbdock ($Id: //depot/dev/client3/rdock/2013.1/src/exe/rbdock.cxx#4 $)

>  <Rbt.Library>
libRbt.so (2013.1, Build901 2013/11/27)

>  <Rbt.Parameter_File>
/export/apps/rDock/src/rDock_2013.1_src/data/scripts/dock_solv.prm

>  <Rbt.Receptor>
prm/blind_docking_60.prm

>  <SCORE>
-0.859739

>  <SCORE.INTER>
-1.40103

>  <SCORE.INTER.CONST>
1

>  <SCORE.INTER.POLAR>
0

>  <SCORE.INTER.ROT>
5

>  <SCORE.INTER.SOLV>
3.19534

>  <SCORE.INTER.VDW>
-8.93247

>  <SCORE.INTER.norm>
-0.140103

>  <SCORE.INTRA>
0.541292

>  <SCORE.INTRA.DIHEDRAL>
0.0545637

>  <SCORE.INTRA.DIHEDRAL.0>
2.56603

>  <SCORE.INTRA.POLAR>
0

>  <SCORE.INTRA.POLAR.0>
0

>  <SCORE.INTRA.REPUL>
0

>  <SCORE.INTRA.REPUL.0>
0

>  <SCORE.INTRA.SOLV>
0.535377

>  <SCORE.INTRA.SOLV.lig_0>
-32.0799

>  <SCORE.INTRA.VDW>
0.246321

>  <SCORE.INTRA.VDW.0>
-0.618248

>  <SCORE.INTRA.norm>
0.0541292

>  <SCORE.RESTR>
0

>  <SCORE.RESTR.CAVITY>
0

>  <SCORE.RESTR.norm>
0

>  <SCORE.SYSTEM>
0

>  <SCORE.SYSTEM.CONST>
0

>  <SCORE.SYSTEM.DIHEDRAL>
0

>  <SCORE.SYSTEM.SOLV>
0

>  <SCORE.SYSTEM.norm>
0

>  <SCORE.heavy>
10

>  <SCORE.norm>
-0.0859739

>  <RMSD>
23.644

$$$$
ligand
 OpenBabel11021811473D
libRbt.so/2013.1/901 2013/11/27
 10  9  0  0  0  0  0  0  0  0999 V2000
   10.8895   29.4605   12.9221 N   0  0  0  0  0  0  0  0  0  0  0  0
   10.3260   28.6780   14.0637 C   0  0  2  0  0  0  0  0  0  0  0  0
   10.5383   29.3748   15.4125 C   0  0  0  0  0  0  0  0  0  0  0  0
   11.6458   29.8110   15.7605 O   0  0  0  0  0  0  0  0  0  0  0  0
   10.8895   27.2544   14.0799 C   0  0  0  0  0  0  0  0  0  0  0  0
   10.2643   26.3785   15.1416 C   0  0  0  0  0  0  0  0  0  0  0  0
   10.8352   24.9813   15.1234 C   0  0  0  0  0  0  0  0  0  0  0  0
   10.2108   24.1165   16.2131 C   0  0  0  0  0  0  0  0  0  0  0  0
   10.8208   22.7636   16.3177 N   0  0  0  0  0  0  0  0  0  0  0  0
    9.5955   29.5585   16.1887 O   0  0  0  0  0  0  0  0  0  0  0  0
  2  1  1  6  0  0  0
  2  3  1  0  0  0  0
  2  5  1  0  0  0  0
  3  4  1  0  0  0  0
  3 10  1  0  0  0  0
  5  6  1  0  0  0  0
  6  7  1  0  0  0  0
  7  8  1  0  0  0  0
  8  9  1  0  0  0  0
M  END
>  <CHROM.1>
-49.46375364,-174.98592721,179.60924084,179.12474115,-175.00243132,10.60490908
27.26563415,15.14969386,-1.49236037,-1.39565663,3.02583164

>  <Name>
ligand

>  <RI>
0

>  <Rbt.Current_Directory>
/home/itssahil/PROJECTS/Mol_Feturizer/New_Systems/rnas/3DIY

>  <Rbt.Executable>
rbdock ($Id: //depot/dev/client3/rdock/2013.1/src/exe/rbdock.cxx#4 $)

>  <Rbt.Library>
libRbt.so (2013.1, Build901 2013/11/27)

>  <Rbt.Parameter_File>
/export/apps/rDock/src/rDock_2013.1_src/data/scripts/dock_solv.prm

>  <Rbt.Receptor>
prm/blind_docking_40.prm

>  <SCORE>
-1.87356

>  <SCORE.INTER>
-0.444337

>  <SCORE.INTER.CONST>
1

>  <SCORE.INTER.POLAR>
0

>  <SCORE.INTER.ROT>
5

>  <SCORE.INTER.SOLV>
2.89581

>  <SCORE.INTER.VDW>
-8.19483

>  <SCORE.INTER.norm>
-0.0444337

>  <SCORE.INTRA>
-1.42922

>  <SCORE.INTRA.DIHEDRAL>
-0.812306

>  <SCORE.INTRA.DIHEDRAL.0>
2.56603

>  <SCORE.INTRA.POLAR>
0

>  <SCORE.INTRA.POLAR.0>
0

>  <SCORE.INTRA.REPUL>
0

>  <SCORE.INTRA.REPUL.0>
0

>  <SCORE.INTRA.SOLV>
-1.5982

>  <SCORE.INTRA.SOLV.lig_0>
-32.0799

>  <SCORE.INTRA.VDW>
-0.223971

>  <SCORE.INTRA.VDW.0>
-0.618248

>  <SCORE.INTRA.norm>
-0.142922

>  <SCORE.RESTR>
0

>  <SCORE.RESTR.CAVITY>
0

>  <SCORE.RESTR.norm>
0

>  <SCORE.SYSTEM>
0

>  <SCORE.SYSTEM.CONST>
0

>  <SCORE.SYSTEM.DIHEDRAL>
0

>  <SCORE.SYSTEM.SOLV>
0

>  <SCORE.SYSTEM.norm>
0

>  <SCORE.heavy>
10

>  <SCORE.norm>
-0.187356

>  <RMSD>
23.748

$$$$
ligand
 OpenBabel11021811473D
libRbt.so/2013.1/901 2013/11/27
 10  9  0  0  0  0  0  0  0  0999 V2000
   12.3206   25.3519   16.2946 N   0  0  0  0  0  0  0  0  0  0  0  0
   11.2911   26.4298   16.4006 C   0  0  2  0  0  0  0  0  0  0  0  0
    9.8674   25.8714   16.5062 C   0  0  0  0  0  0  0  0  0  0  0  0
    9.2925   25.3483   15.5399 O   0  0  0  0  0  0  0  0  0  0  0  0
   11.4145   27.4181   15.2377 C   0  0  0  0  0  0  0  0  0  0  0  0
   10.5082   28.6198   15.3786 C   0  0  0  0  0  0  0  0  0  0  0  0
   10.7213   29.6164   14.2651 C   0  0  0  0  0  0  0  0  0  0  0  0
   10.2252   29.0676   12.9317 C   0  0  0  0  0  0  0  0  0  0  0  0
   10.4380   29.9996   11.7918 N   0  0  0  0  0  0  0  0  0  0  0  0
    9.2541   25.8919   17.5779 O   0  0  0  0  0  0  0  0  0  0  0  0
  2  1  1  6  0  0  0
  2  3  1  0  0  0  0
  2  5  1  0  0  0  0
  3  4  1  0  0  0  0
  3 10  1  0  0  0  0
  5  6  1  0  0  0  0
  6  7  1  0  0  0  0
  7  8  1  0  0  0  0
  8  9  1  0  0  0  0
M  END
>  <CHROM.1>
-71.94433908,-173.15654815,176.18962788,69.24476612,-178.76036801,10.50192374
27.34064549,15.20353741,-1.60660782,-0.03628043,-0.76483016

>  <Name>
ligand

>  <RI>
0

>  <Rbt.Current_Directory>
/home/itssahil/PROJECTS/Mol_Feturizer/New_Systems/rnas/3DIY

>  <Rbt.Executable>
rbdock ($Id: //depot/dev/client3/rdock/2013.1/src/exe/rbdock.cxx#4 $)

>  <Rbt.Library>
libRbt.so (2013.1, Build901 2013/11/27)

>  <Rbt.Parameter_File>
/export/apps/rDock/src/rDock_2013.1_src/data/scripts/dock_solv.prm

>  <Rbt.Receptor>
prm/blind_docking_40.prm

>  <SCORE>
-2.10743

>  <SCORE.INTER>
-1.6661

>  <SCORE.INTER.CONST>
1

>  <SCORE.INTER.POLAR>
0

>  <SCORE.INTER.ROT>
5

>  <SCORE.INTER.SOLV>
2.26116

>  <SCORE.INTER.VDW>
-8.79779

>  <SCORE.INTER.norm>
-0.16661

>  <SCORE.INTRA>
-0.441327

>  <SCORE.INTRA.DIHEDRAL>
-0.495503

>  <SCORE.INTRA.DIHEDRAL.0>
2.56603

>  <SCORE.INTRA.POLAR>
0

>  <SCORE.INTRA.POLAR.0>
0

>  <SCORE.INTRA.REPUL>
0

>  <SCORE.INTRA.REPUL.0>
0

>  <SCORE.INTRA.SOLV>
-1.36139

>  <SCORE.INTRA.SOLV.lig_0>
-32.0799

>  <SCORE.INTRA.VDW>
0.487119

>  <SCORE.INTRA.VDW.0>
-0.618248

>  <SCORE.INTRA.norm>
-0.0441327

>  <SCORE.RESTR>
0

>  <SCORE.RESTR.CAVITY>
0

>  <SCORE.RESTR.norm>
0

>  <SCORE.SYSTEM>
0

>  <SCORE.SYSTEM.CONST>
0

>  <SCORE.SYSTEM.DIHEDRAL>
0

>  <SCORE.SYSTEM.SOLV>
0

>  <SCORE.SYSTEM.norm>
0

>  <SCORE.heavy>
10

>  <SCORE.norm>
-0.210743

>  <RMSD>
23.965

$$$$
ligand
 OpenBabel11021811473D
libRbt.so/2013.1/901 2013/11/27
 10  9  0  0  0  0  0  0  0  0999 V2000
   15.3124   35.4637   20.4695 N   0  0  0  0  0  0  0  0  0  0  0  0
   16.4869   36.2907   20.8813 C   0  0  2  0  0  0  0  0  0  0  0  0
   16.3629   37.7501   20.4287 C   0  0  0  0  0  0  0  0  0  0  0  0
   15.9998   38.0548   19.2827 O   0  0  0  0  0  0  0  0  0  0  0  0
   17.7943   35.6657   20.3870 C   0  0  0  0  0  0  0  0  0  0  0  0
   18.1362   34.3694   21.0856 C   0  0  0  0  0  0  0  0  0  0  0  0
   18.5639   34.5987   22.5150 C   0  0  0  0  0  0  0  0  0  0  0  0
   18.9895   33.2936   23.1791 C   0  0  0  0  0  0  0  0  0  0  0  0
   17.8991   32.2844   23.2544 N   0  0  0  0  0  0  0  0  0  0  0  0
   16.5880   38.6795   21.2100 O   0  0  0  0  0  0  0  0  0  0  0  0
  2  1  1  6  0  0  0
  2  3  1  0  0  0  0
  2  5  1  0  0  0  0
  3  4  1  0  0  0  0
  3 10  1  0  0  0  0
  5  6  1  0  0  0  0
  6  7  1  0  0  0  0
  7  8  1  0  0  0  0
  8  9  1  0  0  0  0
M  END
>  <CHROM.1>
-45.26655689,-68.85867291,-71.40350858,-176.40918037,-61.61378505,17.20509076
35.68698018,21.25534522,2.10146425,-0.69690011,-0.15419537

>  <Name>
ligand

>  <RI>
0

>  <Rbt.Current_Directory>
/home/itssahil/PROJECTS/Mol_Feturizer/New_Systems/rnas/3DIY

>  <Rbt.Executable>
rbdock ($Id: //depot/dev/client3/rdock/2013.1/src/exe/rbdock.cxx#4 $)

>  <Rbt.Library>
libRbt.so (2013.1, Build901 2013/11/27)

>  <Rbt.Parameter_File>
/export/apps/rDock/src/rDock_2013.1_src/data/scripts/dock_solv.prm

>  <Rbt.Receptor>
prm/blind_docking_80.prm

>  <SCORE>
-1.9845

>  <SCORE.INTER>
-2.15866

>  <SCORE.INTER.CONST>
1

>  <SCORE.INTER.POLAR>
0

>  <SCORE.INTER.ROT>
5

>  <SCORE.INTER.SOLV>
5.99497

>  <SCORE.INTER.VDW>
-10.3708

>  <SCORE.INTER.norm>
-0.215866

>  <SCORE.INTRA>
0.174157

>  <SCORE.INTRA.DIHEDRAL>
-0.0615658

>  <SCORE.INTRA.DIHEDRAL.0>
2.56603

>  <SCORE.INTRA.POLAR>
0

>  <SCORE.INTRA.POLAR.0>
0

>  <SCORE.INTRA.REPUL>
0

>  <SCORE.INTRA.REPUL.0>
0

>  <SCORE.INTRA.SOLV>
0.523647

>  <SCORE.INTRA.SOLV.lig_0>
-32.0799

>  <SCORE.INTRA.VDW>
-0.0568836

>  <SCORE.INTRA.VDW.0>
-0.618248

>  <SCORE.INTRA.norm>
0.0174157

>  <SCORE.RESTR>
0

>  <SCORE.RESTR.CAVITY>
0

>  <SCORE.RESTR.norm>
0

>  <SCORE.SYSTEM>
0

>  <SCORE.SYSTEM.CONST>
0

>  <SCORE.SYSTEM.DIHEDRAL>
0

>  <SCORE.SYSTEM.SOLV>
0

>  <SCORE.SYSTEM.norm>
0

>  <SCORE.heavy>
10

>  <SCORE.norm>
-0.19845

>  <RMSD>
24.002

$$$$
ligand
 OpenBabel11021811473D
libRbt.so/2013.1/901 2013/11/27
 10  9  0  0  0  0  0  0  0  0999 V2000
   12.5986   30.5096   12.3168 N   0  0  0  0  0  0  0  0  0  0  0  0
   11.1161   30.3449   12.4060 C   0  0  2  0  0  0  0  0  0  0  0  0
   10.3634   31.6471   12.1096 C   0  0  0  0  0  0  0  0  0  0  0  0
    9.6597   31.7845   11.0977 O   0  0  0  0  0  0  0  0  0  0  0  0
   10.7122   29.7678   13.7654 C   0  0  0  0  0  0  0  0  0  0  0  0
   11.2466   28.3738   14.0032 C   0  0  0  0  0  0  0  0  0  0  0  0
   10.7807   27.8125   15.3247 C   0  0  0  0  0  0  0  0  0  0  0  0
   11.3121   26.3998   15.5417 C   0  0  0  0  0  0  0  0  0  0  0  0
   10.8943   25.8026   16.8386 N   0  0  0  0  0  0  0  0  0  0  0  0
   10.4048   32.5986   12.8957 O   0  0  0  0  0  0  0  0  0  0  0  0
  2  1  1  1  0  0  0
  2  3  1  0  0  0  0
  2  5  1  0  0  0  0
  3  4  1  0  0  0  0
  3 10  1  0  0  0  0
  5  6  1  0  0  0  0
  6  7  1  0  0  0  0
  7  8  1  0  0  0  0
  8  9  1  0  0  0  0
M  END
>  <CHROM.1>
112.47281796,-63.73563495,-177.52187151,179.23672624,179.38671999,10.89042212
29.54300847,13.61447536,-1.66633216,-0.44348092,2.45430212

>  <Name>
ligand

>  <RI>
0

>  <Rbt.Current_Directory>
/home/itssahil/PROJECTS/Mol_Feturizer/New_Systems/rnas/3DIY

>  <Rbt.Executable>
rbdock ($Id: //depot/dev/client3/rdock/2013.1/src/exe/rbdock.cxx#4 $)

>  <Rbt.Library>
libRbt.so (2013.1, Build901 2013/11/27)

>  <Rbt.Parameter_File>
/export/apps/rDock/src/rDock_2013.1_src/data/scripts/dock_solv.prm

>  <Rbt.Receptor>
prm/blind_docking_40.prm

>  <SCORE>
-1.6228

>  <SCORE.INTER>
-0.661657

>  <SCORE.INTER.CONST>
1

>  <SCORE.INTER.POLAR>
0

>  <SCORE.INTER.ROT>
5

>  <SCORE.INTER.SOLV>
3.53568

>  <SCORE.INTER.VDW>
-8.553

>  <SCORE.INTER.norm>
-0.0661657

>  <SCORE.INTRA>
-0.961139

>  <SCORE.INTRA.DIHEDRAL>
-0.896274

>  <SCORE.INTRA.DIHEDRAL.0>
2.56603

>  <SCORE.INTRA.POLAR>
0

>  <SCORE.INTRA.POLAR.0>
0

>  <SCORE.INTRA.REPUL>
0

>  <SCORE.INTRA.REPUL.0>
0

>  <SCORE.INTRA.SOLV>
-0.756013

>  <SCORE.INTRA.SOLV.lig_0>
-32.0799

>  <SCORE.INTRA.VDW>
-0.134995

>  <SCORE.INTRA.VDW.0>
-0.618248

>  <SCORE.INTRA.norm>
-0.0961139

>  <SCORE.RESTR>
0

>  <SCORE.RESTR.CAVITY>
0

>  <SCORE.RESTR.norm>
0

>  <SCORE.SYSTEM>
0

>  <SCORE.SYSTEM.CONST>
0

>  <SCORE.SYSTEM.DIHEDRAL>
0

>  <SCORE.SYSTEM.SOLV>
0

>  <SCORE.SYSTEM.norm>
0

>  <SCORE.heavy>
10

>  <SCORE.norm>
-0.16228

>  <RMSD>
25.111

$$$$
ligand
 OpenBabel11021811473D
libRbt.so/2013.1/901 2013/11/27
 10  9  0  0  0  0  0  0  0  0999 V2000
   10.5267   29.2463   11.1000 N   0  0  0  0  0  0  0  0  0  0  0  0
   10.0477   30.2320   12.1159 C   0  0  2  0  0  0  0  0  0  0  0  0
   10.1210   31.6771   11.6097 C   0  0  0  0  0  0  0  0  0  0  0  0
    9.8674   31.9755   10.4329 O   0  0  0  0  0  0  0  0  0  0  0  0
   10.8064   30.0673   13.4356 C   0  0  0  0  0  0  0  0  0  0  0  0
   10.5233   28.7522   14.1253 C   0  0  0  0  0  0  0  0  0  0  0  0
   11.2106   28.6630   15.4663 C   0  0  0  0  0  0  0  0  0  0  0  0
   12.7263   28.6137   15.3066 C   0  0  0  0  0  0  0  0  0  0  0  0
   13.4562   28.5438   16.6011 N   0  0  0  0  0  0  0  0  0  0  0  0
   10.4023   32.6052   12.3740 O   0  0  0  0  0  0  0  0  0  0  0  0
  2  1  1  6  0  0  0
  2  3  1  0  0  0  0
  2  5  1  0  0  0  0
  3  4  1  0  0  0  0
  3 10  1  0  0  0  0
  5  6  1  0  0  0  0
  6  7  1  0  0  0  0
  7  8  1  0  0  0  0
  8  9  1  0  0  0  0
M  END
>  <CHROM.1>
37.27501157,-66.39140241,-176.04453294,-66.86935127,179.21536073,10.96388686
30.07610715,13.23643661,2.52336808,-1.05822718,-0.09617724

>  <Name>
ligand

>  <RI>
0

>  <Rbt.Current_Directory>
/home/itssahil/PROJECTS/Mol_Feturizer/New_Systems/rnas/3DIY

>  <Rbt.Executable>
rbdock ($Id: //depot/dev/client3/rdock/2013.1/src/exe/rbdock.cxx#4 $)

>  <Rbt.Library>
libRbt.so (2013.1, Build901 2013/11/27)

>  <Rbt.Parameter_File>
/export/apps/rDock/src/rDock_2013.1_src/data/scripts/dock_solv.prm

>  <Rbt.Receptor>
prm/blind_docking_40.prm

>  <SCORE>
-1.09536

>  <SCORE.INTER>
-1.58428

>  <SCORE.INTER.CONST>
1

>  <SCORE.INTER.POLAR>
0

>  <SCORE.INTER.ROT>
5

>  <SCORE.INTER.SOLV>
2.15025

>  <SCORE.INTER.VDW>
-8.70627

>  <SCORE.INTER.norm>
-0.158428

>  <SCORE.INTRA>
0.488907

>  <SCORE.INTRA.DIHEDRAL>
-0.657627

>  <SCORE.INTRA.DIHEDRAL.0>
2.56603

>  <SCORE.INTRA.POLAR>
0

>  <SCORE.INTRA.POLAR.0>
0

>  <SCORE.INTRA.REPUL>
0

>  <SCORE.INTRA.REPUL.0>
0

>  <SCORE.INTRA.SOLV>
-0.528636

>  <SCORE.INTRA.SOLV.lig_0>
-32.0799

>  <SCORE.INTRA.VDW>
1.08204

>  <SCORE.INTRA.VDW.0>
-0.618248

>  <SCORE.INTRA.norm>
0.0488907

>  <SCORE.RESTR>
1.36413e-05

>  <SCORE.RESTR.CAVITY>
1.36413e-05

>  <SCORE.RESTR.norm>
1.36413e-06

>  <SCORE.SYSTEM>
0

>  <SCORE.SYSTEM.CONST>
0

>  <SCORE.SYSTEM.DIHEDRAL>
0

>  <SCORE.SYSTEM.SOLV>
0

>  <SCORE.SYSTEM.norm>
0

>  <SCORE.heavy>
10

>  <SCORE.norm>
-0.109536

>  <RMSD>
25.537

$$$$
ligand
 OpenBabel11021811473D
libRbt.so/2013.1/901 2013/11/27
 10  9  0  0  0  0  0  0  0  0999 V2000
   11.0475   30.5719    8.7245 N   0  0  0  0  0  0  0  0  0  0  0  0
   10.3961   30.7021   10.0630 C   0  0  2  0  0  0  0  0  0  0  0  0
    9.1044   31.5258   10.0080 C   0  0  0  0  0  0  0  0  0  0  0  0
    9.0061   32.5497    9.3152 O   0  0  0  0  0  0  0  0  0  0  0  0
   11.3749   31.2733   11.0927 C   0  0  0  0  0  0  0  0  0  0  0  0
   10.8831   31.1458   12.5165 C   0  0  0  0  0  0  0  0  0  0  0  0
   10.9942   29.7283   13.0232 C   0  0  0  0  0  0  0  0  0  0  0  0
   10.6816   29.6497   14.5137 C   0  0  0  0  0  0  0  0  0  0  0  0
   10.9261   28.3043   15.0999 N   0  0  0  0  0  0  0  0  0  0  0  0
    8.0978   31.1724   10.6299 O   0  0  0  0  0  0  0  0  0  0  0  0
  2  1  1  6  0  0  0
  2  3  1  0  0  0  0
  2  5  1  0  0  0  0
  3  4  1  0  0  0  0
  3 10  1  0  0  0  0
  5  6  1  0  0  0  0
  6  7  1  0  0  0  0
  7  8  1  0  0  0  0
  8  9  1  0  0  0  0
M  END
>  <CHROM.1>
-40.40827176,-167.28831865,74.79347649,172.03812555,-173.41833940,10.21881488
30.68356248,11.48741018,-1.83782781,-0.32097887,1.94073812

>  <Name>
ligand

>  <RI>
0

>  <Rbt.Current_Directory>
/home/itssahil/PROJECTS/Mol_Feturizer/New_Systems/rnas/3DIY

>  <Rbt.Executable>
rbdock ($Id: //depot/dev/client3/rdock/2013.1/src/exe/rbdock.cxx#4 $)

>  <Rbt.Library>
libRbt.so (2013.1, Build901 2013/11/27)

>  <Rbt.Parameter_File>
/export/apps/rDock/src/rDock_2013.1_src/data/scripts/dock_solv.prm

>  <Rbt.Receptor>
prm/blind_docking_40.prm

>  <SCORE>
-0.204024

>  <SCORE.INTER>
0.260866

>  <SCORE.INTER.CONST>
1

>  <SCORE.INTER.POLAR>
0

>  <SCORE.INTER.ROT>
5

>  <SCORE.INTER.SOLV>
2.73066

>  <SCORE.INTER.VDW>
-7.66964

>  <SCORE.INTER.norm>
0.0260866

>  <SCORE.INTRA>
-0.46489

>  <SCORE.INTRA.DIHEDRAL>
0.903123

>  <SCORE.INTRA.DIHEDRAL.0>
2.56603

>  <SCORE.INTRA.POLAR>
0

>  <SCORE.INTRA.POLAR.0>
0

>  <SCORE.INTRA.REPUL>
0

>  <SCORE.INTRA.REPUL.0>
0

>  <SCORE.INTRA.SOLV>
-1.31789

>  <SCORE.INTRA.SOLV.lig_0>
-32.0799

>  <SCORE.INTRA.VDW>
-0.257508

>  <SCORE.INTRA.VDW.0>
-0.618248

>  <SCORE.INTRA.norm>
-0.046489

>  <SCORE.RESTR>
0

>  <SCORE.RESTR.CAVITY>
0

>  <SCORE.RESTR.norm>
0

>  <SCORE.SYSTEM>
0

>  <SCORE.SYSTEM.CONST>
0

>  <SCORE.SYSTEM.DIHEDRAL>
0

>  <SCORE.SYSTEM.SOLV>
0

>  <SCORE.SYSTEM.norm>
0

>  <SCORE.heavy>
10

>  <SCORE.norm>
-0.0204024

>  <RMSD>
26.952

$$$$
ligand
 OpenBabel11021811473D
libRbt.so/2013.1/901 2013/11/27
 10  9  0  0  0  0  0  0  0  0999 V2000
   12.4150   35.6095   30.3293 N   0  0  0  0  0  0  0  0  0  0  0  0
   13.1507   36.6350   29.5292 C   0  0  2  0  0  0  0  0  0  0  0  0
   14.5234   36.1384   29.0613 C   0  0  0  0  0  0  0  0  0  0  0  0
   15.2693   35.4755   29.7977 O   0  0  0  0  0  0  0  0  0  0  0  0
   13.2712   37.9491   30.3056 C   0  0  0  0  0  0  0  0  0  0  0  0
   11.9428   38.6377   30.5209 C   0  0  0  0  0  0  0  0  0  0  0  0
   12.0910   39.9001   31.3350 C   0  0  0  0  0  0  0  0  0  0  0  0
   10.7380   40.5586   31.5823 C   0  0  0  0  0  0  0  0  0  0  0  0
   10.8267   41.8148   32.3744 N   0  0  0  0  0  0  0  0  0  0  0  0
   14.9196   36.3535   27.9116 O   0  0  0  0  0  0  0  0  0  0  0  0
  2  1  1  1  0  0  0
  2  3  1  0  0  0  0
  2  5  1  0  0  0  0
  3  4  1  0  0  0  0
  3 10  1  0  0  0  0
  5  6  1  0  0  0  0
  6  7  1  0  0  0  0
  7  8  1  0  0  0  0
  8  9  1  0  0  0  0
M  END
>  <CHROM.1>
-41.00107127,-66.92319721,177.75939330,-178.14511487,-179.62209280,12.95141653
37.88564319,30.25738095,0.87308767,-0.62015971,-3.09283730

>  <Name>
ligand

>  <RI>
0

>  <Rbt.Current_Directory>
/home/itssahil/PROJECTS/Mol_Feturizer/New_Systems/rnas/3DIY

>  <Rbt.Executable>
rbdock ($Id: //depot/dev/client3/rdock/2013.1/src/exe/rbdock.cxx#4 $)

>  <Rbt.Library>
libRbt.so (2013.1, Build901 2013/11/27)

>  <Rbt.Parameter_File>
/export/apps/rDock/src/rDock_2013.1_src/data/scripts/dock_solv.prm

>  <Rbt.Receptor>
prm/blind_docking_80.prm

>  <SCORE>
-3.91871

>  <SCORE.INTER>
-2.88041

>  <SCORE.INTER.CONST>
1

>  <SCORE.INTER.POLAR>
0

>  <SCORE.INTER.ROT>
5

>  <SCORE.INTER.SOLV>
4.21993

>  <SCORE.INTER.VDW>
-10.2602

>  <SCORE.INTER.norm>
-0.288041

>  <SCORE.INTRA>
-1.0383

>  <SCORE.INTRA.DIHEDRAL>
-0.727722

>  <SCORE.INTRA.DIHEDRAL.0>
2.56603

>  <SCORE.INTRA.POLAR>
0

>  <SCORE.INTRA.POLAR.0>
0

>  <SCORE.INTRA.REPUL>
0

>  <SCORE.INTRA.REPUL.0>
0

>  <SCORE.INTRA.SOLV>
-0.75124

>  <SCORE.INTRA.SOLV.lig_0>
-32.0799

>  <SCORE.INTRA.VDW>
-0.298823

>  <SCORE.INTRA.VDW.0>
-0.618248

>  <SCORE.INTRA.norm>
-0.10383

>  <SCORE.RESTR>
0

>  <SCORE.RESTR.CAVITY>
0

>  <SCORE.RESTR.norm>
0

>  <SCORE.SYSTEM>
0

>  <SCORE.SYSTEM.CONST>
0

>  <SCORE.SYSTEM.DIHEDRAL>
0

>  <SCORE.SYSTEM.SOLV>
0

>  <SCORE.SYSTEM.norm>
0

>  <SCORE.heavy>
10

>  <SCORE.norm>
-0.391871

>  <RMSD>
29.877

$$$$
ligand
 OpenBabel11021811473D
libRbt.so/2013.1/901 2013/11/27
 10  9  0  0  0  0  0  0  0  0999 V2000
    1.4170   41.4604    9.2785 N   0  0  0  0  0  0  0  0  0  0  0  0
   -0.0520   41.2778    9.0741 C   0  0  2  0  0  0  0  0  0  0  0  0
   -0.8510   41.4646   10.3689 C   0  0  0  0  0  0  0  0  0  0  0  0
   -0.8590   42.5393   10.9878 O   0  0  0  0  0  0  0  0  0  0  0  0
   -0.3484   39.9207    8.4301 C   0  0  0  0  0  0  0  0  0  0  0  0
   -1.7705   39.7953    7.9328 C   0  0  0  0  0  0  0  0  0  0  0  0
   -2.0154   38.4645    7.2641 C   0  0  0  0  0  0  0  0  0  0  0  0
   -3.4484   38.3595    6.7535 C   0  0  0  0  0  0  0  0  0  0  0  0
   -4.4630   38.3193    7.8408 N   0  0  0  0  0  0  0  0  0  0  0  0
   -1.5490   40.5525   10.8227 O   0  0  0  0  0  0  0  0  0  0  0  0
  2  1  1  1  0  0  0
  2  3  1  0  0  0  0
  2  5  1  0  0  0  0
  3  4  1  0  0  0  0
  3 10  1  0  0  0  0
  5  6  1  0  0  0  0
  6  7  1  0  0  0  0
  7  8  1  0  0  0  0
  8  9  1  0  0  0  0
M  END
>  <CHROM.1>
61.77820814,-167.83033180,178.12244898,-179.32765294,-67.07208453,-1.40597568
40.22725262,8.90940911,-0.90124025,-0.31130295,-2.17661235

>  <Name>
ligand

>  <RI>
0

>  <Rbt.Current_Directory>
/home/itssahil/PROJECTS/Mol_Feturizer/New_Systems/rnas/3DIY

>  <Rbt.Executable>
rbdock ($Id: //depot/dev/client3/rdock/2013.1/src/exe/rbdock.cxx#4 $)

>  <Rbt.Library>
libRbt.so (2013.1, Build901 2013/11/27)

>  <Rbt.Parameter_File>
/export/apps/rDock/src/rDock_2013.1_src/data/scripts/dock_solv.prm

>  <Rbt.Receptor>
prm/blind_docking_100.prm

>  <SCORE>
-3.99614

>  <SCORE.INTER>
-4.12558

>  <SCORE.INTER.CONST>
1

>  <SCORE.INTER.POLAR>
0

>  <SCORE.INTER.ROT>
5

>  <SCORE.INTER.SOLV>
12.6814

>  <SCORE.INTER.VDW>
-13.9109

>  <SCORE.INTER.norm>
-0.412558

>  <SCORE.INTRA>
0.129432

>  <SCORE.INTRA.DIHEDRAL>
-0.297695

>  <SCORE.INTRA.DIHEDRAL.0>
2.56603

>  <SCORE.INTRA.POLAR>
0

>  <SCORE.INTRA.POLAR.0>
0

>  <SCORE.INTRA.REPUL>
0

>  <SCORE.INTRA.REPUL.0>
0

>  <SCORE.INTRA.SOLV>
-0.765823

>  <SCORE.INTRA.SOLV.lig_0>
-32.0799

>  <SCORE.INTRA.VDW>
0.661191

>  <SCORE.INTRA.VDW.0>
-0.618248

>  <SCORE.INTRA.norm>
0.0129432

>  <SCORE.RESTR>
0

>  <SCORE.RESTR.CAVITY>
0

>  <SCORE.RESTR.norm>
0

>  <SCORE.SYSTEM>
0

>  <SCORE.SYSTEM.CONST>
0

>  <SCORE.SYSTEM.DIHEDRAL>
0

>  <SCORE.SYSTEM.SOLV>
0

>  <SCORE.SYSTEM.norm>
0

>  <SCORE.heavy>
10

>  <SCORE.norm>
-0.399614

>  <RMSD>
41.794

$$$$
ligand
 OpenBabel11021811473D
libRbt.so/2013.1/901 2013/11/27
 10  9  0  0  0  0  0  0  0  0999 V2000
    0.9073   48.9257    2.6282 N   0  0  0  0  0  0  0  0  0  0  0  0
    0.1334   47.7926    3.2200 C   0  0  2  0  0  0  0  0  0  0  0  0
    0.9883   46.5340    3.4067 C   0  0  0  0  0  0  0  0  0  0  0  0
    1.5316   45.9600    2.4510 O   0  0  0  0  0  0  0  0  0  0  0  0
   -1.1185   47.4949    2.3903 C   0  0  0  0  0  0  0  0  0  0  0  0
   -0.8094   47.1267    0.9570 C   0  0  0  0  0  0  0  0  0  0  0  0
   -2.0277   46.5999    0.2382 C   0  0  0  0  0  0  0  0  0  0  0  0
   -3.0883   47.6845    0.0836 C   0  0  0  0  0  0  0  0  0  0  0  0
   -4.3185   47.2153   -0.6092 N   0  0  0  0  0  0  0  0  0  0  0  0
    1.1958   46.0671    4.5310 O   0  0  0  0  0  0  0  0  0  0  0  0
  2  1  1  6  0  0  0
  2  3  1  0  0  0  0
  2  5  1  0  0  0  0
  3  4  1  0  0  0  0
  3 10  1  0  0  0  0
  5  6  1  0  0  0  0
  6  7  1  0  0  0  0
  7  8  1  0  0  0  0
  8  9  1  0  0  0  0
M  END
>  <CHROM.1>
-60.66793119,59.40805841,169.65810046,65.89612852,-179.49172620,-0.63293966
47.11230245,1.94327750,-0.01570603,-0.69492372,0.11767399

>  <Name>
ligand

>  <RI>
0

>  <Rbt.Current_Directory>
/home/itssahil/PROJECTS/Mol_Feturizer/New_Systems/rnas/3DIY

>  <Rbt.Executable>
rbdock ($Id: //depot/dev/client3/rdock/2013.1/src/exe/rbdock.cxx#4 $)

>  <Rbt.Library>
libRbt.so (2013.1, Build901 2013/11/27)

>  <Rbt.Parameter_File>
/export/apps/rDock/src/rDock_2013.1_src/data/scripts/dock_solv.prm

>  <Rbt.Receptor>
prm/blind_docking_100.prm

>  <SCORE>
-7.13987

>  <SCORE.INTER>
-7.45704

>  <SCORE.INTER.CONST>
1

>  <SCORE.INTER.POLAR>
0

>  <SCORE.INTER.ROT>
5

>  <SCORE.INTER.SOLV>
7.60319

>  <SCORE.INTER.VDW>
-14.4391

>  <SCORE.INTER.norm>
-0.745704

>  <SCORE.INTRA>
0.317167

>  <SCORE.INTRA.DIHEDRAL>
-0.448928

>  <SCORE.INTRA.DIHEDRAL.0>
2.56603

>  <SCORE.INTRA.POLAR>
0

>  <SCORE.INTRA.POLAR.0>
0

>  <SCORE.INTRA.REPUL>
0

>  <SCORE.INTRA.REPUL.0>
0

>  <SCORE.INTRA.SOLV>
-0.460202

>  <SCORE.INTRA.SOLV.lig_0>
-32.0799

>  <SCORE.INTRA.VDW>
0.771732

>  <SCORE.INTRA.VDW.0>
-0.618248

>  <SCORE.INTRA.norm>
0.0317167

>  <SCORE.RESTR>
0

>  <SCORE.RESTR.CAVITY>
0

>  <SCORE.RESTR.norm>
0

>  <SCORE.SYSTEM>
0

>  <SCORE.SYSTEM.CONST>
0

>  <SCORE.SYSTEM.DIHEDRAL>
0

>  <SCORE.SYSTEM.SOLV>
0

>  <SCORE.SYSTEM.norm>
0

>  <SCORE.heavy>
10

>  <SCORE.norm>
-0.713987

>  <RMSD>
47.886

$$$$
ligand
 OpenBabel11021811473D
libRbt.so/2013.1/901 2013/11/27
 10  9  0  0  0  0  0  0  0  0999 V2000
    1.1904   48.7721    3.3160 N   0  0  0  0  0  0  0  0  0  0  0  0
    0.2151   47.6962    2.9633 C   0  0  2  0  0  0  0  0  0  0  0  0
    0.8685   46.3108    2.9017 C   0  0  0  0  0  0  0  0  0  0  0  0
    0.5061   45.3794    3.6359 O   0  0  0  0  0  0  0  0  0  0  0  0
   -0.5114   48.0257    1.6564 C   0  0  0  0  0  0  0  0  0  0  0  0
   -1.7384   47.1732    1.4258 C   0  0  0  0  0  0  0  0  0  0  0  0
   -2.5403   47.6539    0.2408 C   0  0  0  0  0  0  0  0  0  0  0  0
   -3.9035   46.9726    0.1849 C   0  0  0  0  0  0  0  0  0  0  0  0
   -4.7868   47.5027   -0.8883 N   0  0  0  0  0  0  0  0  0  0  0  0
    1.7614   46.0646    2.0851 O   0  0  0  0  0  0  0  0  0  0  0  0
  2  1  1  6  0  0  0
  2  3  1  0  0  0  0
  2  5  1  0  0  0  0
  3  4  1  0  0  0  0
  3 10  1  0  0  0  0
  5  6  1  0  0  0  0
  6  7  1  0  0  0  0
  7  8  1  0  0  0  0
  8  9  1  0  0  0  0
M  END
>  <CHROM.1>
119.77628594,-165.46991720,171.67378546,-168.65965642,174.51684383,-0.87003561
47.12298566,1.75824737,-0.13258813,-0.56881377,-0.04957567

>  <Name>
ligand

>  <RI>
0

>  <Rbt.Current_Directory>
/home/itssahil/PROJECTS/Mol_Feturizer/New_Systems/rnas/3DIY

>  <Rbt.Executable>
rbdock ($Id: //depot/dev/client3/rdock/2013.1/src/exe/rbdock.cxx#4 $)

>  <Rbt.Library>
libRbt.so (2013.1, Build901 2013/11/27)

>  <Rbt.Parameter_File>
/export/apps/rDock/src/rDock_2013.1_src/data/scripts/dock_solv.prm

>  <Rbt.Receptor>
prm/blind_docking_80.prm

>  <SCORE>
-6.03989

>  <SCORE.INTER>
-5.27635

>  <SCORE.INTER.CONST>
1

>  <SCORE.INTER.POLAR>
0

>  <SCORE.INTER.ROT>
5

>  <SCORE.INTER.SOLV>
8.33234

>  <SCORE.INTER.VDW>
-13.2283

>  <SCORE.INTER.norm>
-0.527635

>  <SCORE.INTRA>
-0.763535

>  <SCORE.INTRA.DIHEDRAL>
0.650372

>  <SCORE.INTRA.DIHEDRAL.0>
2.56603

>  <SCORE.INTRA.POLAR>
0

>  <SCORE.INTRA.POLAR.0>
0

>  <SCORE.INTRA.REPUL>
0

>  <SCORE.INTRA.REPUL.0>
0

>  <SCORE.INTRA.SOLV>
-1.60332

>  <SCORE.INTRA.SOLV.lig_0>
-32.0799

>  <SCORE.INTRA.VDW>
-0.287059

>  <SCORE.INTRA.VDW.0>
-0.618248

>  <SCORE.INTRA.norm>
-0.0763535

>  <SCORE.RESTR>
0

>  <SCORE.RESTR.CAVITY>
0

>  <SCORE.RESTR.norm>
0

>  <SCORE.SYSTEM>
0

>  <SCORE.SYSTEM.CONST>
0

>  <SCORE.SYSTEM.DIHEDRAL>
0

>  <SCORE.SYSTEM.SOLV>
0

>  <SCORE.SYSTEM.norm>
0

>  <SCORE.heavy>
10

>  <SCORE.norm>
-0.603989

>  <RMSD>
48.123

$$$$
ligand
 OpenBabel11021811473D
libRbt.so/2013.1/901 2013/11/27
 10  9  0  0  0  0  0  0  0  0999 V2000
    0.4670   49.2257    2.0441 N   0  0  0  0  0  0  0  0  0  0  0  0
   -0.2394   48.0512    2.6396 C   0  0  2  0  0  0  0  0  0  0  0  0
    0.4048   47.5829    3.9494 C   0  0  0  0  0  0  0  0  0  0  0  0
    0.7247   46.3998    4.1390 O   0  0  0  0  0  0  0  0  0  0  0  0
   -0.3390   46.9049    1.6295 C   0  0  0  0  0  0  0  0  0  0  0  0
   -0.7994   47.3548    0.2616 C   0  0  0  0  0  0  0  0  0  0  0  0
   -2.1899   47.9406    0.3027 C   0  0  0  0  0  0  0  0  0  0  0  0
   -3.2409   46.8526    0.4950 C   0  0  0  0  0  0  0  0  0  0  0  0
   -4.6353   47.3712    0.5037 N   0  0  0  0  0  0  0  0  0  0  0  0
    0.6620   48.3838    4.8535 O   0  0  0  0  0  0  0  0  0  0  0  0
  2  1  1  6  0  0  0
  2  3  1  0  0  0  0
  2  5  1  0  0  0  0
  3  4  1  0  0  0  0
  3 10  1  0  0  0  0
  5  6  1  0  0  0  0
  6  7  1  0  0  0  0
  7  8  1  0  0  0  0
  8  9  1  0  0  0  0
M  END
>  <CHROM.1>
-128.35393784,-46.53035421,-62.43302533,-73.15872157,-178.34434784,-0.89689645
47.59771824,2.11887926,-0.63479237,-0.45057670,-1.14692568

>  <Name>
ligand

>  <RI>
0

>  <Rbt.Current_Directory>
/home/itssahil/PROJECTS/Mol_Feturizer/New_Systems/rnas/3DIY

>  <Rbt.Executable>
rbdock ($Id: //depot/dev/client3/rdock/2013.1/src/exe/rbdock.cxx#4 $)

>  <Rbt.Library>
libRbt.so (2013.1, Build901 2013/11/27)

>  <Rbt.Parameter_File>
/export/apps/rDock/src/rDock_2013.1_src/data/scripts/dock_solv.prm

>  <Rbt.Receptor>
prm/blind_docking_100.prm

>  <SCORE>
-4.15631

>  <SCORE.INTER>
-6.03645

>  <SCORE.INTER.CONST>
1

>  <SCORE.INTER.POLAR>
0

>  <SCORE.INTER.ROT>
5

>  <SCORE.INTER.SOLV>
6.11853

>  <SCORE.INTER.VDW>
-12.9971

>  <SCORE.INTER.norm>
-0.603645

>  <SCORE.INTRA>
1.88014

>  <SCORE.INTRA.DIHEDRAL>
0.38706

>  <SCORE.INTRA.DIHEDRAL.0>
2.56603

>  <SCORE.INTRA.POLAR>
0

>  <SCORE.INTRA.POLAR.0>
0

>  <SCORE.INTRA.REPUL>
0

>  <SCORE.INTRA.REPUL.0>
0

>  <SCORE.INTRA.SOLV>
0.401925

>  <SCORE.INTRA.SOLV.lig_0>
-32.0799

>  <SCORE.INTRA.VDW>
1.48564

>  <SCORE.INTRA.VDW.0>
-0.618248

>  <SCORE.INTRA.norm>
0.188014

>  <SCORE.RESTR>
0

>  <SCORE.RESTR.CAVITY>
0

>  <SCORE.RESTR.norm>
0

>  <SCORE.SYSTEM>
0

>  <SCORE.SYSTEM.CONST>
0

>  <SCORE.SYSTEM.DIHEDRAL>
0

>  <SCORE.SYSTEM.SOLV>
0

>  <SCORE.SYSTEM.norm>
0

>  <SCORE.heavy>
10

>  <SCORE.norm>
-0.415631

>  <RMSD>
48.293

$$$$
ligand
 OpenBabel11021811473D
libRbt.so/2013.1/901 2013/11/27
 10  9  0  0  0  0  0  0  0  0999 V2000
   -1.0037   49.2883    2.4250 N   0  0  0  0  0  0  0  0  0  0  0  0
   -0.7860   47.8784    2.8698 C   0  0  2  0  0  0  0  0  0  0  0  0
    0.3357   47.7584    3.9077 C   0  0  0  0  0  0  0  0  0  0  0  0
    0.9075   46.6821    4.1370 O   0  0  0  0  0  0  0  0  0  0  0  0
   -0.5325   46.9611    1.6704 C   0  0  0  0  0  0  0  0  0  0  0  0
   -1.8030   46.5106    0.9860 C   0  0  0  0  0  0  0  0  0  0  0  0
   -2.5086   47.6569    0.3030 C   0  0  0  0  0  0  0  0  0  0  0  0
   -3.8263   47.2029   -0.3157 C   0  0  0  0  0  0  0  0  0  0  0  0
   -4.5765   48.3006   -0.9831 N   0  0  0  0  0  0  0  0  0  0  0  0
    0.7353   48.7477    4.5295 O   0  0  0  0  0  0  0  0  0  0  0  0
  2  1  1  6  0  0  0
  2  3  1  0  0  0  0
  2  5  1  0  0  0  0
  3  4  1  0  0  0  0
  3 10  1  0  0  0  0
  5  6  1  0  0  0  0
  6  7  1  0  0  0  0
  7  8  1  0  0  0  0
  8  9  1  0  0  0  0
M  END
>  <CHROM.1>
-160.48850231,-82.21149062,67.66709681,-176.83069999,178.99493497,-1.27308412
47.69669436,1.98537708,0.27264329,-0.76796245,0.34460671

>  <Name>
ligand

>  <RI>
0

>  <Rbt.Current_Directory>
/home/itssahil/PROJECTS/Mol_Feturizer/New_Systems/rnas/3DIY

>  <Rbt.Executable>
rbdock ($Id: //depot/dev/client3/rdock/2013.1/src/exe/rbdock.cxx#4 $)

>  <Rbt.Library>
libRbt.so (2013.1, Build901 2013/11/27)

>  <Rbt.Parameter_File>
/export/apps/rDock/src/rDock_2013.1_src/data/scripts/dock_solv.prm

>  <Rbt.Receptor>
prm/blind_docking_60.prm

>  <SCORE>
-5.33419

>  <SCORE.INTER>
-6.41997

>  <SCORE.INTER.CONST>
1

>  <SCORE.INTER.POLAR>
0

>  <SCORE.INTER.ROT>
5

>  <SCORE.INTER.SOLV>
4.26857

>  <SCORE.INTER.VDW>
-12.6362

>  <SCORE.INTER.norm>
-0.641997

>  <SCORE.INTRA>
1.08578

>  <SCORE.INTRA.DIHEDRAL>
1.08652

>  <SCORE.INTRA.DIHEDRAL.0>
2.56603

>  <SCORE.INTRA.POLAR>
0

>  <SCORE.INTRA.POLAR.0>
0

>  <SCORE.INTRA.REPUL>
0

>  <SCORE.INTRA.REPUL.0>
0

>  <SCORE.INTRA.SOLV>
0.343324

>  <SCORE.INTRA.SOLV.lig_0>
-32.0799

>  <SCORE.INTRA.VDW>
0.370858

>  <SCORE.INTRA.VDW.0>
-0.618248

>  <SCORE.INTRA.norm>
0.108578

>  <SCORE.RESTR>
0

>  <SCORE.RESTR.CAVITY>
0

>  <SCORE.RESTR.norm>
0

>  <SCORE.SYSTEM>
0

>  <SCORE.SYSTEM.CONST>
0

>  <SCORE.SYSTEM.DIHEDRAL>
0

>  <SCORE.SYSTEM.SOLV>
0

>  <SCORE.SYSTEM.norm>
0

>  <SCORE.heavy>
10

>  <SCORE.norm>
-0.533419

>  <RMSD>
48.660

$$$$
ligand
 OpenBabel11021811473D
libRbt.so/2013.1/901 2013/11/27
 10  9  0  0  0  0  0  0  0  0999 V2000
   -4.7137   49.1902   -0.7763 N   0  0  0  0  0  0  0  0  0  0  0  0
   -4.4653   47.8004   -1.2660 C   0  0  2  0  0  0  0  0  0  0  0  0
   -5.7459   47.1143   -1.7551 C   0  0  0  0  0  0  0  0  0  0  0  0
   -6.8122   47.7324   -1.8921 O   0  0  0  0  0  0  0  0  0  0  0  0
   -3.7612   46.9625   -0.1952 C   0  0  0  0  0  0  0  0  0  0  0  0
   -2.3553   47.4332    0.1003 C   0  0  0  0  0  0  0  0  0  0  0  0
   -1.6771   46.5619    1.1295 C   0  0  0  0  0  0  0  0  0  0  0  0
   -0.2944   47.0998    1.4821 C   0  0  0  0  0  0  0  0  0  0  0  0
   -0.3277   48.4361    2.1351 N   0  0  0  0  0  0  0  0  0  0  0  0
   -5.7479   45.9193   -2.0665 O   0  0  0  0  0  0  0  0  0  0  0  0
  2  1  1  1  0  0  0
  2  3  1  0  0  0  0
  2  5  1  0  0  0  0
  3  4  1  0  0  0  0
  3 10  1  0  0  0  0
  5  6  1  0  0  0  0
  6  7  1  0  0  0  0
  7  8  1  0  0  0  0
  8  9  1  0  0  0  0
M  END
>  <CHROM.1>
9.39623766,-66.72372786,-178.33326797,-176.40012645,64.13437033,-3.62853360
47.40962664,-0.32988919,3.00741557,0.55466918,-2.96616354

>  <Name>
ligand

>  <RI>
0

>  <Rbt.Current_Directory>
/home/itssahil/PROJECTS/Mol_Feturizer/New_Systems/rnas/3DIY

>  <Rbt.Executable>
rbdock ($Id: //depot/dev/client3/rdock/2013.1/src/exe/rbdock.cxx#4 $)

>  <Rbt.Library>
libRbt.so (2013.1, Build901 2013/11/27)

>  <Rbt.Parameter_File>
/export/apps/rDock/src/rDock_2013.1_src/data/scripts/dock_solv.prm

>  <Rbt.Receptor>
prm/blind_docking_80.prm

>  <SCORE>
-3.52422

>  <SCORE.INTER>
-3.32973

>  <SCORE.INTER.CONST>
1

>  <SCORE.INTER.POLAR>
0

>  <SCORE.INTER.ROT>
5

>  <SCORE.INTER.SOLV>
4.07777

>  <SCORE.INTER.VDW>
-10.5124

>  <SCORE.INTER.norm>
-0.332973

>  <SCORE.INTRA>
-0.197891

>  <SCORE.INTRA.DIHEDRAL>
-0.730738

>  <SCORE.INTRA.DIHEDRAL.0>
2.56603

>  <SCORE.INTRA.POLAR>
0

>  <SCORE.INTRA.POLAR.0>
0

>  <SCORE.INTRA.REPUL>
0

>  <SCORE.INTRA.REPUL.0>
0

>  <SCORE.INTRA.SOLV>
0.145706

>  <SCORE.INTRA.SOLV.lig_0>
-32.0799

>  <SCORE.INTRA.VDW>
0.0946253

>  <SCORE.INTRA.VDW.0>
-0.618248

>  <SCORE.INTRA.norm>
-0.0197891

>  <SCORE.RESTR>
0.00340105

>  <SCORE.RESTR.CAVITY>
0.00340105

>  <SCORE.RESTR.norm>
0.000340105

>  <SCORE.SYSTEM>
0

>  <SCORE.SYSTEM.CONST>
0

>  <SCORE.SYSTEM.DIHEDRAL>
0

>  <SCORE.SYSTEM.SOLV>
0

>  <SCORE.SYSTEM.norm>
0

>  <SCORE.heavy>
10

>  <SCORE.norm>
-0.352422

>  <RMSD>
51.137

$$$$
ligand
 OpenBabel11021811473D
libRbt.so/2013.1/901 2013/11/27
 10  9  0  0  0  0  0  0  0  0999 V2000
   -6.1013   50.1732    1.2593 N   0  0  0  0  0  0  0  0  0  0  0  0
   -5.1729   49.5098    2.2242 C   0  0  2  0  0  0  0  0  0  0  0  0
   -5.5532   49.7821    3.6841 C   0  0  0  0  0  0  0  0  0  0  0  0
   -6.2009   50.7853    4.0190 O   0  0  0  0  0  0  0  0  0  0  0  0
   -3.7210   49.9079    1.9456 C   0  0  0  0  0  0  0  0  0  0  0  0
   -2.7226   49.1467    2.7878 C   0  0  0  0  0  0  0  0  0  0  0  0
   -1.3031   49.5630    2.4876 C   0  0  0  0  0  0  0  0  0  0  0  0
   -0.3057   48.7515    3.3074 C   0  0  0  0  0  0  0  0  0  0  0  0
    1.1131   49.1043    3.0320 N   0  0  0  0  0  0  0  0  0  0  0  0
   -5.2552   48.9844    4.5783 O   0  0  0  0  0  0  0  0  0  0  0  0
  2  1  1  6  0  0  0
  2  3  1  0  0  0  0
  2  5  1  0  0  0  0
  3  4  1  0  0  0  0
  3 10  1  0  0  0  0
  5  6  1  0  0  0  0
  6  7  1  0  0  0  0
  7  8  1  0  0  0  0
  8  9  1  0  0  0  0
M  END
>  <CHROM.1>
-24.70425736,-173.43072339,179.97621772,-177.93437014,178.94212853,-3.54343824
49.57699806,2.96527999,3.14083463,-0.16150250,1.74400702

>  <Name>
ligand

>  <RI>
0

>  <Rbt.Current_Directory>
/home/itssahil/PROJECTS/Mol_Feturizer/New_Systems/rnas/3DIY

>  <Rbt.Executable>
rbdock ($Id: //depot/dev/client3/rdock/2013.1/src/exe/rbdock.cxx#4 $)

>  <Rbt.Library>
libRbt.so (2013.1, Build901 2013/11/27)

>  <Rbt.Parameter_File>
/export/apps/rDock/src/rDock_2013.1_src/data/scripts/dock_solv.prm

>  <Rbt.Receptor>
prm/blind_docking_100.prm

>  <SCORE>
-3.01939

>  <SCORE.INTER>
-1.69367

>  <SCORE.INTER.CONST>
1

>  <SCORE.INTER.POLAR>
0

>  <SCORE.INTER.ROT>
5

>  <SCORE.INTER.SOLV>
7.83233

>  <SCORE.INTER.VDW>
-10.6732

>  <SCORE.INTER.norm>
-0.169367

>  <SCORE.INTRA>
-1.32571

>  <SCORE.INTRA.DIHEDRAL>
-0.782877

>  <SCORE.INTRA.DIHEDRAL.0>
2.56603

>  <SCORE.INTRA.POLAR>
0

>  <SCORE.INTRA.POLAR.0>
0

>  <SCORE.INTRA.REPUL>
0

>  <SCORE.INTRA.REPUL.0>
0

>  <SCORE.INTRA.SOLV>
-1.59079

>  <SCORE.INTRA.SOLV.lig_0>
-32.0799

>  <SCORE.INTRA.VDW>
-0.138877

>  <SCORE.INTRA.VDW.0>
-0.618248

>  <SCORE.INTRA.norm>
-0.132571

>  <SCORE.RESTR>
0

>  <SCORE.RESTR.CAVITY>
0

>  <SCORE.RESTR.norm>
0

>  <SCORE.SYSTEM>
0

>  <SCORE.SYSTEM.CONST>
0

>  <SCORE.SYSTEM.DIHEDRAL>
0

>  <SCORE.SYSTEM.SOLV>
0

>  <SCORE.SYSTEM.norm>
0

>  <SCORE.heavy>
10

>  <SCORE.norm>
-0.301939

>  <RMSD>
51.191

$$$$
ligand
 OpenBabel11021811473D
libRbt.so/2013.1/901 2013/11/27
 10  9  0  0  0  0  0  0  0  0999 V2000
   -4.3521   48.8922    1.7729 N   0  0  0  0  0  0  0  0  0  0  0  0
   -5.4864   49.8200    2.0654 C   0  0  2  0  0  0  0  0  0  0  0  0
   -5.6644   50.0721    3.5670 C   0  0  0  0  0  0  0  0  0  0  0  0
   -5.2314   49.2851    4.4220 O   0  0  0  0  0  0  0  0  0  0  0  0
   -6.7839   49.3124    1.4304 C   0  0  0  0  0  0  0  0  0  0  0  0
   -7.8830   50.3501    1.4104 C   0  0  0  0  0  0  0  0  0  0  0  0
   -7.5704   51.4797    0.4593 C   0  0  0  0  0  0  0  0  0  0  0  0
   -8.6581   52.5478    0.4955 C   0  0  0  0  0  0  0  0  0  0  0  0
   -9.9747   52.0693   -0.0054 N   0  0  0  0  0  0  0  0  0  0  0  0
   -6.2186   51.0960    3.9786 O   0  0  0  0  0  0  0  0  0  0  0  0
  2  1  1  1  0  0  0
  2  3  1  0  0  0  0
  2  5  1  0  0  0  0
  3  4  1  0  0  0  0
  3 10  1  0  0  0  0
  5  6  1  0  0  0  0
  6  7  1  0  0  0  0
  7  8  1  0  0  0  0
  8  9  1  0  0  0  0
M  END
>  <CHROM.1>
-21.93677621,-166.52053770,68.79398399,-177.51283988,-65.42484052,-6.77786612
50.49483374,1.99884931,-0.40062600,0.71095279,-1.89944602

>  <Name>
ligand

>  <RI>
0

>  <Rbt.Current_Directory>
/home/itssahil/PROJECTS/Mol_Feturizer/New_Systems/rnas/3DIY

>  <Rbt.Executable>
rbdock ($Id: //depot/dev/client3/rdock/2013.1/src/exe/rbdock.cxx#4 $)

>  <Rbt.Library>
libRbt.so (2013.1, Build901 2013/11/27)

>  <Rbt.Parameter_File>
/export/apps/rDock/src/rDock_2013.1_src/data/scripts/dock_solv.prm

>  <Rbt.Receptor>
prm/blind_docking_80.prm

>  <SCORE>
-0.219388

>  <SCORE.INTER>
-0.0599507

>  <SCORE.INTER.CONST>
1

>  <SCORE.INTER.POLAR>
0

>  <SCORE.INTER.ROT>
5

>  <SCORE.INTER.SOLV>
2.40771

>  <SCORE.INTER.VDW>
-7.77587

>  <SCORE.INTER.norm>
-0.00599507

>  <SCORE.INTRA>
-0.159437

>  <SCORE.INTRA.DIHEDRAL>
0.142446

>  <SCORE.INTRA.DIHEDRAL.0>
2.56603

>  <SCORE.INTRA.POLAR>
0

>  <SCORE.INTRA.POLAR.0>
0

>  <SCORE.INTRA.REPUL>
0

>  <SCORE.INTRA.REPUL.0>
0

>  <SCORE.INTRA.SOLV>
-0.412527

>  <SCORE.INTRA.SOLV.lig_0>
-32.0799

>  <SCORE.INTRA.VDW>
-0.0243968

>  <SCORE.INTRA.VDW.0>
-0.618248

>  <SCORE.INTRA.norm>
-0.0159437

>  <SCORE.RESTR>
0

>  <SCORE.RESTR.CAVITY>
0

>  <SCORE.RESTR.norm>
0

>  <SCORE.SYSTEM>
0

>  <SCORE.SYSTEM.CONST>
0

>  <SCORE.SYSTEM.DIHEDRAL>
0

>  <SCORE.SYSTEM.SOLV>
0

>  <SCORE.SYSTEM.norm>
0

>  <SCORE.heavy>
10

>  <SCORE.norm>
-0.0219388

>  <RMSD>
54.155

$$$$
ligand
 OpenBabel11021811473D
libRbt.so/2013.1/901 2013/11/27
 10  9  0  0  0  0  0  0  0  0999 V2000
   -8.1194   49.0318   -3.4534 N   0  0  0  0  0  0  0  0  0  0  0  0
   -8.3642   48.0792   -2.3284 C   0  0  2  0  0  0  0  0  0  0  0  0
   -9.8241   48.0878   -1.8609 C   0  0  0  0  0  0  0  0  0  0  0  0
  -10.4526   47.0403   -1.6471 O   0  0  0  0  0  0  0  0  0  0  0  0
   -7.4074   48.3522   -1.1646 C   0  0  0  0  0  0  0  0  0  0  0  0
   -6.0288   47.7695   -1.3777 C   0  0  0  0  0  0  0  0  0  0  0  0
   -5.1526   47.9431   -0.1610 C   0  0  0  0  0  0  0  0  0  0  0  0
   -3.8240   47.2141   -0.3300 C   0  0  0  0  0  0  0  0  0  0  0  0
   -2.8985   47.3951    0.8207 N   0  0  0  0  0  0  0  0  0  0  0  0
  -10.4165   49.1496   -1.6450 O   0  0  0  0  0  0  0  0  0  0  0  0
  2  1  1  6  0  0  0
  2  3  1  0  0  0  0
  2  5  1  0  0  0  0
  3  4  1  0  0  0  0
  3 10  1  0  0  0  0
  5  6  1  0  0  0  0
  6  7  1  0  0  0  0
  7  8  1  0  0  0  0
  8  9  1  0  0  0  0
M  END
>  <CHROM.1>
134.45660200,-79.93164448,-174.63017825,173.52649618,177.79568591,-7.29361850
48.00699661,-1.30895522,-2.79194166,0.07747522,2.13209505

>  <Name>
ligand

>  <RI>
0

>  <Rbt.Current_Directory>
/home/itssahil/PROJECTS/Mol_Feturizer/New_Systems/rnas/3DIY

>  <Rbt.Executable>
rbdock ($Id: //depot/dev/client3/rdock/2013.1/src/exe/rbdock.cxx#4 $)

>  <Rbt.Library>
libRbt.so (2013.1, Build901 2013/11/27)

>  <Rbt.Parameter_File>
/export/apps/rDock/src/rDock_2013.1_src/data/scripts/dock_solv.prm

>  <Rbt.Receptor>
prm/blind_docking_60.prm

>  <SCORE>
-2.05275

>  <SCORE.INTER>
-1.55696

>  <SCORE.INTER.CONST>
1

>  <SCORE.INTER.POLAR>
0

>  <SCORE.INTER.ROT>
5

>  <SCORE.INTER.SOLV>
5.51534

>  <SCORE.INTER.VDW>
-9.80975

>  <SCORE.INTER.norm>
-0.155696

>  <SCORE.INTRA>
-0.495792

>  <SCORE.INTRA.DIHEDRAL>
0.700128

>  <SCORE.INTRA.DIHEDRAL.0>
2.56603

>  <SCORE.INTRA.POLAR>
0

>  <SCORE.INTRA.POLAR.0>
0

>  <SCORE.INTRA.REPUL>
0

>  <SCORE.INTRA.REPUL.0>
0

>  <SCORE.INTRA.SOLV>
-0.977985

>  <SCORE.INTRA.SOLV.lig_0>
-32.0799

>  <SCORE.INTRA.VDW>
-0.356863

>  <SCORE.INTRA.VDW.0>
-0.618248

>  <SCORE.INTRA.norm>
-0.0495792

>  <SCORE.RESTR>
0

>  <SCORE.RESTR.CAVITY>
0

>  <SCORE.RESTR.norm>
0

>  <SCORE.SYSTEM>
0

>  <SCORE.SYSTEM.CONST>
0

>  <SCORE.SYSTEM.DIHEDRAL>
0

>  <SCORE.SYSTEM.SOLV>
0

>  <SCORE.SYSTEM.norm>
0

>  <SCORE.heavy>
10

>  <SCORE.norm>
-0.205275

>  <RMSD>
54.394

$$$$
