@<TRIPOS>MOLECULE
3DIY_rdock.pdb
 3705 4147 0 0 0
SMALL
GASTEIGER

@<TRIPOS>ATOM
      1  P         35.1720   -6.0340   10.9380 P.3     2  G2          0.1280
      2  C5'       34.2990   -6.2450    8.4390 C.3     2  G2          0.1795
      3  O5'       34.1350   -6.5540    9.8320 O.3     2  G2         -0.3259
      4  C4'       33.1560   -6.7970    7.5990 C.3     2  G2          0.1772
      5  O4'       33.1550   -8.2530    7.6330 O.3     2  G2         -0.3307
      6  C3'       31.7600   -6.4170    8.0720 C.3     2  G2          0.1860
      7  O3'       31.3950   -5.1250    7.6190 O.3     2  G2         -0.3112
      8  C2'       30.9310   -7.5380    7.4500 C.3     2  G2          0.2309
      9  O2'       30.7470   -7.3990    6.0560 O.3     2  G2         -0.2156
     10  C1'       31.8250   -8.7380    7.7430 C.3     2  G2          0.2408
     11  N1        28.7050  -11.5420   10.6760 N.ar    2  G2         -0.1709
     12  C2        28.5990  -11.2270    9.3400 C.ar    2  G2          0.2606
     13  N2        27.5330  -11.7170    8.6970 N.pl3   2  G2         -0.0859
     14  N3        29.4810  -10.4880    8.6770 N.ar    2  G2         -0.1918
     15  C4        30.5030  -10.0710    9.4680 C.ar    2  G2          0.1723
     16  C5        30.6920  -10.3310   10.8090 C.ar    2  G2          0.1748
     17  C6        29.7460  -11.1250   11.5020 C.ar    2  G2          0.3023
     18  O6        29.7540  -11.4580   12.6930 O.2     2  G2         -0.2633
     19  N7        31.8550   -9.7280   11.2630 N.ar    2  G2         -0.2173
     20  C8        32.3380   -9.1270   10.2120 C.ar    2  G2          0.1817
     21  N9        31.5750   -9.2930    9.0790 N.ar    2  G2         -0.2693
     22  OP1       35.4630   -4.5940   10.7400 O.3     2  G2         -0.1955
     23  OP2       34.6700   -6.5120   12.2460 O.co2   2  G2         -0.7863
     24  P         30.5180   -4.1670    8.5610 P.3     3  C3          0.2141
     25  C5'       28.2980   -5.0290    7.4940 C.3     3  C3          0.1812
     26  O5'       29.1140   -4.9270    8.6550 O.3     3  C3         -0.3114
     27  C4'       27.1260   -5.9590    7.7200 C.3     3  C3          0.1773
     28  O4'       27.5850   -7.2550    8.1700 O.3     3  C3         -0.3307
     29  C3'       26.1760   -5.5130    8.8160 C.3     3  C3          0.1860
     30  O3'       25.2840   -4.5370    8.3210 O.3     3  C3         -0.3112
     31  C2'       25.4770   -6.8210    9.1540 C.3     3  C3          0.2309
     32  O2'       24.4900   -7.1780    8.2070 O.3     3  C3         -0.2156
     33  C1'       26.6520   -7.7920    9.0940 C.3     3  C3          0.2420
     34  N1        27.3120   -7.9970   10.4260 N.ar    3  C3         -0.2535
     35  C2        26.7100   -8.8230   11.3860 C.ar    3  C3          0.3532
     36  O2        25.6390   -9.3850   11.1430 O.2     3  C3         -0.2443
     37  N3        27.3210   -8.9950   12.5820 N.ar    3  C3         -0.1739
     38  C4        28.4790   -8.3910   12.8410 C.ar    3  C3          0.1759
     39  N4        29.0300   -8.6040   14.0400 N.pl3   3  C3         -0.1070
     40  C5        29.1150   -7.5460   11.8850 C.ar    3  C3          0.0566
     41  C6        28.5010   -7.3840   10.7080 C.ar    3  C3          0.0850
     42  OP1       30.3150   -2.8960    7.8360 O.2     3  C3         -0.5172
     43  OP2       31.1170   -4.1500    9.9130 O.co2   3  C3         -0.4373
     44  P         24.8640   -3.3160    9.2600 P.3     4  C4          0.2141
     45  C5'       22.4990   -4.3310    9.7420 C.3     4  C4          0.1812
     46  O5'       23.7770   -3.9650   10.2340 O.3     4  C4         -0.3114
     47  C4'       21.7820   -5.1940   10.7600 C.3     4  C4          0.1773
     48  O4'       22.5660   -6.3830   11.0460 O.3     4  C4         -0.3307
     49  C3'       21.6020   -4.5590   12.1310 C.3     4  C4          0.1860
     50  O3'       20.5220   -3.6480   12.1610 O.3     4  C4         -0.3112
     51  C2'       21.3180   -5.7930   12.9670 C.3     4  C4          0.2309
     52  O2'       20.0160   -6.3020   12.7660 O.3     4  C4         -0.2156
     53  C1'       22.3540   -6.7580   12.4000 C.3     4  C4          0.2420
     54  N1        23.6420   -6.7480   13.1770 N.ar    4  C4         -0.2535
     55  C2        23.7200   -7.4260   14.4050 C.ar    4  C4          0.3532
     56  O2        22.7370   -8.0320   14.8440 O.2     4  C4         -0.2443
     57  N3        24.8900   -7.4070   15.0900 N.ar    4  C4         -0.1739
     58  C4        25.9470   -6.7490   14.6000 C.ar    4  C4          0.1759
     59  N4        27.0760   -6.7610   15.3120 N.pl3   4  C4         -0.1070
     60  C5        25.8930   -6.0480   13.3590 C.ar    4  C4          0.0566
     61  C6        24.7330   -6.0780   12.6920 C.ar    4  C4          0.0850
     62  OP1       24.1980   -2.3110    8.3980 O.2     4  C4         -0.5172
     63  OP2       26.0330   -2.9410   10.0960 O.co2   4  C4         -0.4373
     64  P         20.6280   -2.3160   13.0480 P.3     5  G5          0.2141
     65  C5'       19.3040   -3.4780   15.0170 C.3     5  G5          0.1812
     66  O5'       20.4980   -2.8370   14.5600 O.3     5  G5         -0.3114
     67  C4'       19.5360   -4.2160   16.3230 C.3     5  G5          0.1773
     68  O4'       20.5730   -5.2190   16.1660 O.3     5  G5         -0.3307
     69  C3'       20.0630   -3.4090   17.5050 C.3     5  G5          0.1860
     70  O3'       19.0730   -2.5670   18.0840 O.3     5  G5         -0.3112
     71  C2'       20.4060   -4.5750   18.4240 C.3     5  G5          0.2309
     72  O2'       19.2480   -5.2440   18.9000 O.3     5  G5         -0.2156
     73  C1'       21.1580   -5.4660   17.4390 C.3     5  G5          0.2408
     74  N1        25.6060   -6.2360   19.8210 N.ar    5  G5         -0.1709
     75  C2        24.3340   -6.6230   20.1860 C.ar    5  G5          0.2606
     76  N2        24.2190   -7.3030   21.3340 N.pl3   5  G5         -0.0859
     77  N3        23.2450   -6.3570   19.4720 N.ar    5  G5         -0.1918
     78  C4        23.5240   -5.6580   18.3400 C.ar    5  G5          0.1723
     79  C5        24.7560   -5.2250   17.8890 C.ar    5  G5          0.1748
     80  C6        25.9150   -5.5200   18.6620 C.ar    5  G5          0.3023
     81  O6        27.0950   -5.2230   18.4270 O.2     5  G5         -0.2633
     82  N7        24.6220   -4.5420   16.6870 N.ar    5  G5         -0.2173
     83  C8        23.3380   -4.5770   16.4440 C.ar    5  G5          0.1817
     84  N9        22.6070   -5.2370   17.4040 N.ar    5  G5         -0.2693
     85  OP1       19.4340   -1.5090   12.7020 O.2     5  G5         -0.5172
     86  OP2       21.9900   -1.7350   12.9300 O.co2   5  G5         -0.4373
     87  P         19.4870   -1.2490   18.9080 P.3     6  A6          0.2141
     88  C5'       18.9170   -2.5260   21.1050 C.3     6  A6          0.1812
     89  O5'       19.8570   -1.7600   20.3760 O.3     6  A6         -0.3114
     90  C4'       19.5850   -3.1950   22.2870 C.3     6  A6          0.1773
     91  O4'       20.5490   -4.1810   21.8420 O.3     6  A6         -0.3307
     92  C3'       20.3890   -2.2580   23.1710 C.3     6  A6          0.1860
     93  O3'       19.5210   -1.5590   24.0340 O.3     6  A6         -0.3112
     94  C2'       21.2470   -3.2710   23.9120 C.3     6  A6          0.2309
     95  O2'       20.5400   -3.9500   24.9320 O.3     6  A6         -0.2156
     96  C1'       21.6100   -4.2240   22.7770 C.3     6  A6          0.2408
     97  N1        26.7440   -4.2700   23.0640 N.ar    6  A6         -0.2040
     98  C2        25.7960   -4.7510   23.8840 C.ar    6  A6          0.2016
     99  N3        24.4730   -4.7040   23.7420 N.ar    6  A6         -0.2048
    100  C4        24.1330   -4.0720   22.6070 C.ar    6  A6          0.1692
    101  C5        24.9870   -3.5260   21.6690 C.ar    6  A6          0.1518
    102  C6        26.3650   -3.6430   21.9280 C.ar    6  A6          0.1919
    103  N6        27.3010   -3.1620   21.1090 N.pl3   6  A6         -0.1054
    104  N7        24.2780   -2.9570   20.6230 N.ar    6  A6         -0.2193
    105  C8        23.0240   -3.1660   20.9470 C.ar    6  A6          0.1816
    106  N9        22.8640   -3.8370   22.1310 N.ar    6  A6         -0.2693
    107  OP1       18.2550   -0.4270   18.9750 O.3     6  A6         -0.4373
    108  OP2       20.7420   -0.6890   18.3540 O.co2   6  A6         -0.5172
    109  P         19.8830   -0.0940   24.5650 P.3     7  C7          0.2141
    110  C5'       20.8960   -0.9560   26.8200 C.3     7  C7          0.1812
    111  O5'       21.1300   -0.3400   25.5480 O.3     7  C7         -0.3114
    112  C4'       22.1610   -1.5000   27.4580 C.3     7  C7          0.1773
    113  O4'       22.8820   -2.3520   26.5280 O.3     7  C7         -0.3307
    114  C3'       23.1910   -0.4450   27.8230 C.3     7  C7          0.1860
    115  O3'       22.8610    0.2360   29.0340 O.3     7  C7         -0.3112
    116  C2'       24.4750   -1.2750   27.8960 C.3     7  C7          0.2309
    117  O2'       24.6230   -2.0340   29.0800 O.3     7  C7         -0.2156
    118  C1'       24.2840   -2.1940   26.6950 C.3     7  C7          0.2420
    119  N1        24.9350   -1.6140   25.4560 N.ar    7  C7         -0.2535
    120  C2        26.3320   -1.6850   25.3230 C.ar    7  C7          0.3532
    121  O2        27.0080   -2.2320   26.2040 O.2     7  C7         -0.2443
    122  N3        26.9170   -1.1600   24.2220 N.ar    7  C7         -0.1739
    123  C4        26.1790   -0.5790   23.2840 C.ar    7  C7          0.1759
    124  N4        26.8270   -0.0860   22.2270 N.pl3   7  C7         -0.1070
    125  C5        24.7590   -0.4850   23.3860 C.ar    7  C7          0.0566
    126  C6        24.1860   -1.0090   24.4760 C.ar    7  C7          0.0850
    127  OP1       18.7110    0.3360   25.3640 O.3     7  C7         -0.4373
    128  OP2       20.3160    0.7350   23.4150 O.co2   7  C7         -0.5172
    129  P         23.3260    1.7620   29.1890 P.3     8  G8          0.2141
    130  C5'       25.4480    0.9440   30.5670 C.3     8  G8          0.1812
    131  O5'       24.9010    1.6400   29.4460 O.3     8  G8         -0.3114
    132  C4'       26.9660    0.9970   30.5280 C.3     8  G8          0.1773
    133  O4'       27.4850    0.3220   29.3510 O.3     8  G8         -0.3307
    134  C3'       27.5560    2.3930   30.4040 C.3     8  G8          0.1860
    135  O3'       27.5190    3.0650   31.6480 O.3     8  G8         -0.3112
    136  C2'       28.9740    2.0680   29.9500 C.3     8  G8          0.2309
    137  O2'       29.7750    1.5770   31.0020 O.3     8  G8         -0.2156
    138  C1'       28.7070    0.9410   28.9680 C.3     8  G8          0.2408
    139  N1        31.3280    2.3740   24.8140 N.ar    8  G8         -0.1709
    140  C2        31.7960    2.0490   26.0660 C.ar    8  G8          0.2606
    141  N2        33.1220    2.1080   26.2280 N.pl3   8  G8         -0.0859
    142  N3        31.0150    1.6900   27.0850 N.ar    8  G8         -0.1918
    143  C4        29.6980    1.6880   26.7480 C.ar    8  G8          0.1723
    144  C5        29.1390    1.9970   25.5260 C.ar    8  G8          0.1748
    145  C6        29.9830    2.3720   24.4520 C.ar    8  G8          0.3023
    146  O6        29.6690    2.6880   23.2970 O.2     8  G8         -0.2633
    147  N7        27.7600    1.8680   25.5760 N.ar    8  G8         -0.2173
    148  C8        27.5140    1.4950   26.8020 C.ar    8  G8          0.1817
    149  N9        28.6420    1.3640   27.5730 N.ar    8  G8         -0.2693
    150  OP1       22.6660    2.3360   30.3800 O.3     8  G8         -0.4373
    151  OP2       23.2050    2.4210   27.8690 O.co2   8  G8         -0.5172
    152  P         27.7940    4.6430   31.7180 P.3     9  G9          0.2141
    153  C5'       29.6740    5.8420   30.4170 C.3     9  G9          0.1812
    154  O5'       29.3040    4.7460   31.2040 O.3     9  G9         -0.3114
    155  C4'       31.1110    5.7050   29.9840 C.3     9  G9          0.1773
    156  O4'       31.2210    4.7110   28.9360 O.3     9  G9         -0.3307
    157  C3'       31.6490    6.9830   29.3760 C.3     9  G9          0.1860
    158  O3'       32.1830    7.7670   30.4280 O.3     9  G9         -0.3112
    159  C2'       32.7180    6.4540   28.4270 C.3     9  G9          0.2309
    160  O2'       33.9050    6.0900   29.1080 O.3     9  G9         -0.2156
    161  C1'       32.0510    5.1900   27.8900 C.3     9  G9          0.2408
    162  N1        31.8460    6.1040   22.8060 N.ar    9  G9         -0.1709
    163  C2        32.9470    6.0890   23.6280 C.ar    9  G9          0.2606
    164  N2        34.1160    6.3390   23.0230 N.pl3   9  G9         -0.0859
    165  N3        32.9010    5.8440   24.9410 N.ar    9  G9         -0.1918
    166  C4        31.6390    5.6100   25.3830 C.ar    9  G9          0.1723
    167  C5        30.4840    5.6110   24.6300 C.ar    9  G9          0.1748
    168  C6        30.5470    5.8700   23.2400 C.ar    9  G9          0.3023
    169  O6        29.6100    5.9040   22.4290 O.2     9  G9         -0.2633
    170  N7        29.3800    5.3290   25.4170 N.ar    9  G9         -0.2173
    171  C8        29.8760    5.1730   26.6110 C.ar    9  G9          0.1817
    172  N9        31.2390    5.3310   26.6780 N.ar    9  G9         -0.2693
    173  OP1       27.7830    5.0450   33.1450 O.3     9  G9         -0.4373
    174  OP2       26.9010    5.3260   30.7500 O.co2   9  G9         -0.5172
    175  P         32.1550    9.3630   30.3550 P.3    10  A10         0.2141
    176  C5'       34.6870    9.5020   29.6700 C.3    10  A10         0.1812
    177  O5'       33.3300    9.6920   29.3240 O.3    10  A10        -0.3114
    178  C4'       35.5750    9.9150   28.5120 C.3    10  A10         0.1773
    179  O4'       35.3030    9.0670   27.3730 O.3    10  A10        -0.3307
    180  C3'       35.3510   11.3350   28.0140 C.3    10  A10         0.1860
    181  O3'       36.2040   12.2040   28.7350 O.3    10  A10        -0.3112
    182  C2'       35.7460   11.2420   26.5440 C.3    10  A10         0.2309
    183  O2'       37.1420   11.3500   26.3510 O.3    10  A10        -0.2156
    184  C1'       35.3230    9.8270   26.1780 C.3    10  A10         0.2408
    185  N1        32.9510    9.7180   21.6050 N.ar   10  A10        -0.2040
    186  C2        34.2340    9.8640   21.9370 C.ar   10  A10         0.2016
    187  N3        34.7680    9.8830   23.1600 N.ar   10  A10        -0.2048
    188  C4        33.8380    9.7380   24.1230 C.ar   10  A10         0.1692
    189  C5        32.4800    9.5790   23.9310 C.ar   10  A10         0.1518
    190  C6        32.0330    9.5700   22.5850 C.ar   10  A10         0.1919
    191  N6        30.7550    9.4260   22.2220 N.pl3  10  A10        -0.1054
    192  N7        31.8320    9.4570   25.1520 N.ar   10  A10        -0.2193
    193  C8        32.8000    9.5350   26.0350 C.ar   10  A10         0.1816
    194  N9        34.0380    9.7110   25.4850 N.ar   10  A10        -0.2693
    195  OP1       32.5280    9.8340   31.7120 O.3    10  A10        -0.4373
    196  OP2       30.8850    9.8130   29.7300 O.co2  10  A10        -0.5172
    197  P         35.8480   13.7460   28.9430 P.3    11  G11         0.2141
    198  C5'       37.3960   14.7020   27.0610 C.3    11  G11         0.1812
    199  O5'       36.0860   14.3680   27.4820 O.3    11  G11        -0.3114
    200  C4'       37.4580   15.0560   25.5900 C.3    11  G11         0.1773
    201  O4'       36.5670   14.2090   24.8360 O.3    11  G11        -0.3307
    202  C3'       37.0890   16.4960   25.2480 C.3    11  G11         0.1860
    203  O3'       38.1740   17.1090   24.5290 O.3    11  G11        -0.3112
    204  C2'       35.8390   16.3410   24.3810 C.3    11  G11         0.2309
    205  O2'       35.7100   17.3250   23.3660 O.3    11  G11        -0.2156
    206  C1'       36.0610   14.9680   23.7670 C.3    11  G11         0.2408
    207  N1        31.5810   12.8690   25.0370 N.ar   11  G11        -0.1709
    208  C2        32.5480   13.4040   25.8570 C.ar   11  G11         0.2606
    209  N2        32.2990   13.3880   27.1730 N.pl3  11  G11        -0.0859
    210  N3        33.6870   13.9220   25.4100 N.ar   11  G11        -0.1918
    211  C4        33.7880   13.8740   24.0540 C.ar   11  G11         0.1723
    212  C5        32.8810   13.3620   23.1540 C.ar   11  G11         0.1748
    213  C6        31.6740   12.8110   23.6480 C.ar   11  G11         0.3023
    214  O6        30.7550   12.3130   22.9950 O.2    11  G11        -0.2633
    215  N7        33.3450   13.4920   21.8500 N.ar   11  G11        -0.2173
    216  C8        34.5050   14.0680   21.9850 C.ar   11  G11         0.1817
    217  N9        34.8380   14.3350   23.2890 N.ar   11  G11        -0.2693
    218  OP1       36.8570   14.2860   29.8900 O.3    11  G11        -0.4373
    219  OP2       34.4000   13.8780   29.2430 O.co2  11  G11        -0.5172
    220  P         39.4130   17.7890   25.2850 P.3    12  G12         0.2141
    221  C5'       38.2820   20.0410   24.8080 C.3    12  G12         0.1812
    222  O5'       38.7610   19.1400   25.7760 O.3    12  G12        -0.3114
    223  C4'       37.1320   20.8210   25.4080 C.3    12  G12         0.1773
    224  O4'       36.1180   19.8860   25.8770 O.3    12  G12        -0.3307
    225  C3'       37.5210   21.7030   26.5860 C.3    12  G12         0.1860
    226  O3'       37.0340   23.0320   26.3720 O.3    12  G12        -0.3112
    227  C2'       36.8660   21.0020   27.7730 C.3    12  G12         0.2309
    228  O2'       36.4510   21.9200   28.7580 O.3    12  G12        -0.2156
    229  C1'       35.6490   20.3640   27.1130 C.3    12  G12         0.2408
    230  N1        32.1010   16.6060   27.2210 N.ar   12  G12        -0.1709
    231  C2        32.5180   17.3540   26.1530 C.ar   12  G12         0.2606
    232  N2        31.9120   17.0720   24.9970 N.pl3  12  G12        -0.0859
    233  N3        33.4530   18.3050   26.2180 N.ar   12  G12        -0.1918
    234  C4        33.9570   18.4570   27.4750 C.ar   12  G12         0.1723
    235  C5        33.5980   17.7470   28.6040 C.ar   12  G12         0.1748
    236  C6        32.6020   16.7440   28.5110 C.ar   12  G12         0.3023
    237  O6        32.1680   16.0170   29.4120 O.2    12  G12        -0.2633
    238  N7        34.3210   18.1610   29.7090 N.ar   12  G12        -0.2173
    239  C8        35.0880   19.1000   29.2370 C.ar   12  G12         0.1817
    240  N9        34.9390   19.3390   27.8900 N.ar   12  G12        -0.2693
    241  OP1       40.4500   18.1270   24.2950 O.2    12  G12        -0.5172
    242  OP2       39.7940   16.9930   26.4710 O.co2  12  G12        -0.4373
    243  P         37.9730   24.2030   25.7830 P.3    13  C13         0.2141
    244  C5'       37.3530   25.3880   28.0570 C.3    13  C13         0.1812
    245  O5'       37.5210   25.4760   26.6420 O.3    13  C13        -0.3114
    246  C4'       36.0100   25.9650   28.4730 C.3    13  C13         0.1773
    247  O4'       36.0210   27.4090   28.3100 O.3    13  C13        -0.3307
    248  C3'       34.8150   25.4670   27.6650 C.3    13  C13         0.1860
    249  O3'       33.7390   25.2150   28.5420 O.3    13  C13        -0.3112
    250  C2'       34.4780   26.6250   26.7250 C.3    13  C13         0.2309
    251  O2'       33.1010   26.6860   26.4240 O.3    13  C13        -0.2156
    252  C1'       34.8780   27.8230   27.5770 C.3    13  C13         0.2420
    253  N1        35.1800   29.0720   26.7970 N.ar   13  C13        -0.2535
    254  C2        34.2650   30.1470   26.8310 C.ar   13  C13         0.3532
    255  O2        33.2200   30.0590   27.4920 O.2    13  C13        -0.2443
    256  N3        34.5490   31.2790   26.1260 N.ar   13  C13        -0.1739
    257  C4        35.6790   31.3620   25.4160 C.ar   13  C13         0.1759
    258  N4        35.8930   32.4970   24.7410 N.pl3  13  C13        -0.1070
    259  C5        36.6270   30.2840   25.3690 C.ar   13  C13         0.0566
    260  C6        36.3400   29.1710   26.0660 C.ar   13  C13         0.0850
    261  OP1       37.5590   24.4220   24.3810 O.2    13  C13        -0.5172
    262  OP2       39.4030   23.9320   26.0750 O.co2  13  C13        -0.4373
    263  P         33.0400   23.7870   28.5850 P.3    14  G14         0.2141
    264  C5'       32.8690   23.3040   25.9890 C.3    14  G14         0.1812
    265  O5'       32.2390   23.6940   27.2010 O.3    14  G14        -0.3114
    266  C4'       31.9500   22.5280   25.0640 C.3    14  G14         0.1773
    267  O4'       32.1410   21.1020   25.2690 O.3    14  G14        -0.3307
    268  C3'       30.4570   22.7330   25.2470 C.3    14  G14         0.1860
    269  O3'       30.0390   23.8880   24.5290 O.3    14  G14        -0.3112
    270  C2'       29.9230   21.4150   24.6840 C.3    14  G14         0.2309
    271  O2'       29.9690   21.3230   23.2700 O.3    14  G14        -0.2156
    272  C1'       30.9000   20.4280   25.3130 C.3    14  G14         0.2408
    273  N1        27.6060   18.0970   28.4360 N.ar   14  G14        -0.1709
    274  C2        27.6150   18.1470   27.0620 C.ar   14  G14         0.2606
    275  N2        26.6300   17.5010   26.4280 N.pl3  14  G14        -0.0859
    276  N3        28.5360   18.7870   26.3550 N.ar   14  G14        -0.1918
    277  C4        29.4730   19.3860   27.1380 C.ar   14  G14         0.1723
    278  C5        29.5480   19.3920   28.5150 C.ar   14  G14         0.1748
    279  C6        28.5560   18.7090   29.2570 C.ar   14  G14         0.3023
    280  O6        28.4630   18.6060   30.4850 O.2    14  G14        -0.2633
    281  N7        30.6500   20.1160   28.9450 N.ar   14  G14        -0.2173
    282  C8        31.2110   20.5290   27.8400 C.ar   14  G14         0.1817
    283  N9        30.5550   20.1220   26.7000 N.ar   14  G14        -0.2693
    284  OP1       32.0450   23.8530   29.6750 O.3    14  G14        -0.4373
    285  OP2       34.0960   22.7570   28.6460 O.co2  14  G14        -0.5172
    286  P         28.7480   24.7160   24.9840 P.3    15  C15         0.2141
    287  C5'       27.3020   23.3650   23.2430 C.3    15  C15         0.1812
    288  O5'       27.5720   23.6930   24.6060 O.3    15  C15        -0.3114
    289  C4'       26.0780   22.4800   23.1230 C.3    15  C15         0.1773
    290  O4'       26.2970   21.2050   23.7890 O.3    15  C15        -0.3307
    291  C3'       24.8450   23.0480   23.7940 C.3    15  C15         0.1860
    292  O3'       24.1840   23.9400   22.9300 O.3    15  C15        -0.3112
    293  C2'       24.0330   21.7870   24.0670 C.3    15  C15         0.2309
    294  O2'       23.3050   21.3610   22.9310 O.3    15  C15        -0.2156
    295  C1'       25.1230   20.7870   24.4640 C.3    15  C15         0.2420
    296  N1        25.3490   20.7670   25.9690 N.ar   15  C15        -0.2535
    297  C2        24.4840   20.0370   26.8070 C.ar   15  C15         0.3532
    298  O2        23.5570   19.4030   26.3070 O.2    15  C15        -0.2443
    299  N3        24.6800   20.0410   28.1520 N.ar   15  C15        -0.1739
    300  C4        25.6870   20.7430   28.6740 C.ar   15  C15         0.1759
    301  N4        25.8520   20.7190   29.9930 N.pl3  15  C15        -0.1070
    302  C5        26.5780   21.4960   27.8590 C.ar   15  C15         0.0566
    303  C6        26.3760   21.4790   26.5330 C.ar   15  C15         0.0850
    304  OP1       28.6770   25.8990   24.1020 O.2    15  C15        -0.5172
    305  OP2       28.7260   24.9180   26.4510 O.co2  15  C15        -0.4373
    306  P         23.4740   25.2260   23.5590 P.3    16  G16         0.2141
    307  C5'       20.9890   24.4020   23.3590 C.3    16  G16         0.1812
    308  O5'       22.1310   24.6150   24.1690 O.3    16  G16        -0.3114
    309  C4'       20.0440   23.4260   24.0320 C.3    16  G16         0.1773
    310  O4'       20.8020   22.3950   24.7100 O.3    16  G16        -0.3307
    311  C3'       19.1860   23.9930   25.1460 C.3    16  G16         0.1860
    312  O3'       18.0780   24.7270   24.6120 O.3    16  G16        -0.3112
    313  C2'       18.7800   22.6970   25.8440 C.3    16  G16         0.2309
    314  O2'       17.8350   21.9220   25.1300 O.3    16  G16        -0.2156
    315  C1'       20.0990   21.9340   25.8500 C.3    16  G16         0.2408
    316  N1        20.5700   21.1130   30.9080 N.ar   16  G16        -0.1709
    317  C2        19.5480   20.7440   30.0620 C.ar   16  G16         0.2606
    318  N2        18.5370   20.0730   30.6250 N.pl3  16  G16        -0.0859
    319  N3        19.5290   21.0060   28.7560 N.ar   16  G16        -0.1918
    320  C4        20.6320   21.6920   28.3430 C.ar   16  G16         0.1723
    321  C5        21.7000   22.1060   29.1120 C.ar   16  G16         0.1748
    322  C6        21.7090   21.8110   30.4980 C.ar   16  G16         0.3023
    323  O6        22.5750   22.1000   31.3290 O.2    16  G16        -0.2633
    324  N7        22.6360   22.7750   28.3350 N.ar   16  G16        -0.2173
    325  C8        22.1320   22.7580   27.1330 C.ar   16  G16         0.1817
    326  N9        20.9150   22.1190   27.0560 N.ar   16  G16        -0.2693
    327  OP1       23.1220   26.1470   22.4500 O.2    16  G16        -0.5172
    328  OP2       24.2960   25.7170   24.6930 O.co2  16  G16        -0.4373
    329  P         17.4630   25.9770   25.4090 P.3    17  C17         0.2141
    330  C5'       15.4390   24.5830   26.3320 C.3    17  C17         0.1812
    331  O5'       16.6620   25.2690   26.5970 O.3    17  C17        -0.3114
    332  C4'       14.8850   23.9900   27.6130 C.3    17  C17         0.1773
    333  O4'       15.8490   23.0500   28.1620 O.3    17  C17        -0.3307
    334  C3'       14.6700   24.9780   28.7550 C.3    17  C17         0.1860
    335  O3'       13.4430   25.6890   28.6180 O.3    17  C17        -0.3112
    336  C2'       14.6820   24.0330   29.9520 C.3    17  C17         0.2309
    337  O2'       13.4810   23.2990   30.1100 O.3    17  C17        -0.2156
    338  C1'       15.8230   23.0880   29.5820 C.3    17  C17         0.2420
    339  N1        17.1530   23.5260   30.1390 N.ar   17  C17        -0.2535
    340  C2        17.4660   23.3050   31.4960 C.ar   17  C17         0.3532
    341  O2        16.6510   22.7370   32.2400 O.2    17  C17        -0.2443
    342  N3        18.6720   23.7230   31.9690 N.ar   17  C17        -0.1739
    343  C4        19.5430   24.3330   31.1520 C.ar   17  C17         0.1759
    344  N4        20.7190   24.7210   31.6520 N.pl3  17  C17        -0.1070
    345  C5        19.2490   24.5710   29.7740 C.ar   17  C17         0.0566
    346  C6        18.0580   24.1540   29.3220 C.ar   17  C17         0.0850
    347  OP1       16.4690   26.6660   24.5510 O.2    17  C17        -0.5172
    348  OP2       18.6030   26.7460   25.9720 O.co2  17  C17        -0.4373
    349  P         13.3350   27.2500   28.9880 P.3    18  C18         0.2141
    350  C5'       12.3540   26.5040   31.2880 C.3    18  C18         0.1812
    351  O5'       13.3880   27.1940   30.5880 O.3    18  C18        -0.3114
    352  C4'       12.7260   26.2250   32.7310 C.3    18  C18         0.1773
    353  O4'       13.9250   25.4150   32.8070 O.3    18  C18        -0.3307
    354  C3'       13.0970   27.4500   33.5420 C.3    18  C18         0.1860
    355  O3'       11.9260   28.1670   33.8920 O.3    18  C18        -0.3112
    356  C2'       13.7900   26.7770   34.7240 C.3    18  C18         0.2309
    357  O2'       12.9160   26.1360   35.6340 O.3    18  C18        -0.2156
    358  C1'       14.6330   25.7350   33.9930 C.3    18  C18         0.2420
    359  N1        16.0160   26.2310   33.6630 N.ar   18  C18        -0.2535
    360  C2        16.9710   26.3700   34.6890 C.ar   18  C18         0.3532
    361  O2        16.6680   26.0750   35.8530 O.2    18  C18        -0.2443
    362  N3        18.2120   26.8250   34.3800 N.ar   18  C18        -0.1739
    363  C4        18.5120   27.1340   33.1150 C.ar   18  C18         0.1759
    364  N4        19.7450   27.5720   32.8570 N.pl3  18  C18        -0.1070
    365  C5        17.5630   27.0090   32.0530 C.ar   18  C18         0.0566
    366  C6        16.3430   26.5550   32.3700 C.ar   18  C18         0.0850
    367  OP1       11.9930   27.7160   28.5620 O.3    18  C18        -0.4373
    368  OP2       14.5300   27.9780   28.4960 O.co2  18  C18        -0.5172
    369  P         11.9430   29.7540   34.1010 P.3    19  C19         0.2141
    370  C5'       11.9450   29.2390   36.6980 C.3    19  C19         0.1812
    371  O5'       12.5220   29.8980   35.5830 O.3    19  C19        -0.3114
    372  C4'       12.8820   29.3690   37.8850 C.3    19  C19         0.1773
    373  O4'       14.1290   28.6880   37.5950 O.3    19  C19        -0.3307
    374  C3'       13.3090   30.7900   38.2150 C.3    19  C19         0.1860
    375  O3'       12.3610   31.3820   39.0820 O.3    19  C19        -0.3112
    376  C2'       14.6510   30.5830   38.9090 C.3    19  C19         0.2309
    377  O2'       14.5030   30.3160   40.2910 O.3    19  C19        -0.2156
    378  C1'       15.2220   29.3610   38.1970 C.3    19  C19         0.2420
    379  N1        16.2450   29.6680   37.1410 N.ar   19  C19        -0.2535
    380  C2        17.5960   29.8780   37.4810 C.ar   19  C19         0.3532
    381  O2        17.9420   29.8140   38.6680 O.2    19  C19        -0.2443
    382  N3        18.4980   30.1480   36.4930 N.ar   19  C19        -0.1739
    383  C4        18.0970   30.2080   35.2180 C.ar   19  C19         0.1759
    384  N4        19.0000   30.4740   34.2680 N.pl3  19  C19        -0.1070
    385  C5        16.7350   29.9990   34.8510 C.ar   19  C19         0.0566
    386  C6        15.8590   29.7350   35.8290 C.ar   19  C19         0.0850
    387  OP1       10.5300   30.1900   34.0790 O.3    19  C19        -0.4373
    388  OP2       12.9260   30.3890   33.1900 O.co2  19  C19        -0.5172
    389  P         11.8660   32.8820   38.8180 P.3    20  G20         0.2141
    390  C5'       13.5830   33.8440   40.5720 C.3    20  G20         0.1812
    391  O5'       13.1450   33.7550   39.2220 O.3    20  G20        -0.3114
    392  C4'       14.9610   34.4760   40.6280 C.3    20  G20         0.1773
    393  O4'       15.8930   33.6180   39.9310 O.3    20  G20        -0.3307
    394  C3'       15.0780   35.8290   39.9410 C.3    20  G20         0.1860
    395  O3'       14.7910   36.8910   40.8500 O.3    20  G20        -0.3112
    396  C2'       16.5410   35.8490   39.5180 C.3    20  G20         0.2309
    397  O2'       17.3990   36.2910   40.5520 O.3    20  G20        -0.2156
    398  C1'       16.8260   34.3830   39.1970 C.3    20  G20         0.2408
    399  N1        19.3550   33.7050   34.7710 N.ar   20  G20        -0.1709
    400  C2        19.8540   34.0160   36.0140 C.ar   20  G20         0.2606
    401  N2        21.1830   34.1690   36.0950 N.pl3  20  G20        -0.0859
    402  N3        19.0960   34.1680   37.1010 N.ar   20  G20        -0.1918
    403  C4        17.7690   33.9840   36.8540 C.ar   20  G20         0.1723
    404  C5        17.1770   33.6730   35.6460 C.ar   20  G20         0.1748
    405  C6        17.9970   33.5120   34.4980 C.ar   20  G20         0.3023
    406  O6        17.6330   33.2440   33.3430 O.2    20  G20        -0.2633
    407  N7        15.8030   33.5700   35.7800 N.ar   20  G20        -0.2173
    408  C8        15.5890   33.8100   37.0450 C.ar   20  G20         0.1817
    409  N9        16.7320   34.0690   37.7660 N.ar   20  G20        -0.2693
    410  OP1       10.7820   33.1500   39.7870 O.3    20  G20        -0.4373
    411  OP2       11.6350   33.0850   37.3650 O.co2  20  G20        -0.5172
    412  P         13.4870   37.8000   40.6470 P.3    21  A21         0.2141
    413  C5'       13.8410   39.5590   42.6040 C.3    21  A21         0.1812
    414  O5'       13.9460   39.2260   41.2190 O.3    21  A21        -0.3114
    415  C4'       15.0550   40.3550   43.0490 C.3    21  A21         0.1773
    416  O4'       16.2620   39.5950   42.7860 O.3    21  A21        -0.3307
    417  C3'       15.2970   41.6400   42.2790 C.3    21  A21         0.1860
    418  O3'       14.4830   42.6880   42.7740 O.3    21  A21        -0.3112
    419  C2'       16.7860   41.8790   42.5260 C.3    21  A21         0.2309
    420  O2'       17.0840   42.4380   43.7900 O.3    21  A21        -0.2156
    421  C1'       17.3330   40.4630   42.4500 C.3    21  A21         0.2408
    422  N1        21.2910   40.4760   39.1170 N.ar   21  A21        -0.2040
    423  C2        21.1970   40.9320   40.3740 C.ar   21  A21         0.2016
    424  N3        20.1390   40.8990   41.1920 N.ar   21  A21        -0.2048
    425  C4        19.0770   40.3250   40.6010 C.ar   21  A21         0.1692
    426  C5        19.0310   39.8110   39.3180 C.ar   21  A21         0.1518
    427  C6        20.2070   39.8950   38.5510 C.ar   21  A21         0.1919
    428  N6        20.2750   39.4390   37.2990 N.pl3  21  A21        -0.1054
    429  N7        17.7850   39.2950   39.0310 N.ar   21  A21        -0.2193
    430  C8        17.1080   39.4990   40.1340 C.ar   21  A21         0.1816
    431  N9        17.8220   40.1150   41.1230 N.ar   21  A21        -0.2693
    432  OP1       12.4460   37.2410   41.5430 O.3    21  A21        -0.4373
    433  OP2       13.2440   37.9700   39.1890 O.co2  21  A21        -0.5172
    434  P         13.7410   43.6740   41.7560 P.3    22  G22         0.2141
    435  C5'       15.8970   45.1730   41.3300 C.3    22  G22         0.1812
    436  O5'       14.9180   44.2510   40.8360 O.3    22  G22        -0.3114
    437  C4'       17.1290   45.1510   40.4380 C.3    22  G22         0.1773
    438  O4'       17.5730   43.7980   40.1370 O.3    22  G22        -0.3307
    439  C3'       16.9330   45.7580   39.0610 C.3    22  G22         0.1860
    440  O3'       16.9670   47.1670   39.1570 O.3    22  G22        -0.3112
    441  C2'       18.1390   45.1760   38.3310 C.3    22  G22         0.2309
    442  O2'       19.3530   45.8050   38.6950 O.3    22  G22        -0.2156
    443  C1'       18.1150   43.7360   38.8240 C.3    22  G22         0.2408
    444  N1        17.7230   41.0990   34.4220 N.ar   22  G22        -0.1709
    445  C2        18.7760   41.8430   34.8910 C.ar   22  G22         0.2606
    446  N2        19.8470   41.8890   34.0940 N.pl3  22  G22        -0.0859
    447  N3        18.7760   42.4910   36.0540 N.ar   22  G22        -0.1918
    448  C4        17.6100   42.3390   36.7370 C.ar   22  G22         0.1723
    449  C5        16.5020   41.6160   36.3470 C.ar   22  G22         0.1748
    450  C6        16.5190   40.9330   35.1050 C.ar   22  G22         0.3023
    451  O6        15.6230   40.2440   34.6050 O.2    22  G22        -0.2633
    452  N7        15.5050   41.6850   37.3020 N.ar   22  G22        -0.2173
    453  C8        16.0130   42.4410   38.2340 C.ar   22  G22         0.1817
    454  N9        17.2920   42.8730   37.9720 N.ar   22  G22        -0.2693
    455  OP1       13.1800   44.7750   42.5740 O.3    22  G22        -0.4373
    456  OP2       12.8510   42.8750   40.8890 O.co2  22  G22        -0.5172
    457  P         16.2730   48.0860   38.0490 P.3    23  A23         0.2141
    458  C5'       18.6080   48.5280   36.8870 C.3    23  A23         0.1812
    459  O5'       17.3030   47.9400   36.8250 O.3    23  A23        -0.3114
    460  C4'       19.4430   48.1730   35.6700 C.3    23  A23         0.1773
    461  O4'       19.6330   46.7310   35.5810 O.3    23  A23        -0.3307
    462  C3'       18.8240   48.5460   34.3310 C.3    23  A23         0.1860
    463  O3'       19.0640   49.9040   34.0060 O.3    23  A23        -0.3112
    464  C2'       19.5360   47.5810   33.3880 C.3    23  A23         0.2309
    465  O2'       20.8300   48.0110   33.0260 O.3    23  A23        -0.2156
    466  C1'       19.5870   46.3080   34.2280 C.3    23  A23         0.2408
    467  N1        17.0460   43.0950   31.0680 N.ar   23  A23        -0.2040
    468  C2        18.2320   43.7050   30.9440 C.ar   23  A23         0.2016
    469  N3        18.8340   44.5310   31.8050 N.ar   23  A23        -0.2048
    470  C4        18.0950   44.7180   32.9130 C.ar   23  A23         0.1692
    471  C5        16.8620   44.1570   33.1780 C.ar   23  A23         0.1518
    472  C6        16.3230   43.3070   32.1950 C.ar   23  A23         0.1919
    473  N6        15.1370   42.7070   32.3380 N.pl3  23  A23        -0.1054
    474  N7        16.3940   44.5600   34.4080 N.ar   23  A23        -0.2193
    475  C8        17.3320   45.3530   34.8600 C.ar   23  A23         0.1816
    476  N9        18.3950   45.4900   34.0140 N.ar   23  A23        -0.2693
    477  OP1       16.2720   49.4860   38.5330 O.3    23  A23        -0.4373
    478  OP2       14.9940   47.4540   37.6610 O.co2  23  A23        -0.5172
    479  P         17.9450   50.7410   33.2170 P.3    24  U24         0.2141
    480  C5'       19.0600   50.1410   30.9230 C.3    24  U24         0.1812
    481  O5'       17.9550   49.9850   31.8100 O.3    24  U24        -0.3114
    482  C4'       18.9910   49.1190   29.8060 C.3    24  U24         0.1773
    483  O4'       18.7380   47.7940   30.3340 O.3    24  U24        -0.3307
    484  C3'       17.8500   49.3300   28.8300 C.3    24  U24         0.1860
    485  O3'       18.1860   50.3330   27.8950 O.3    24  U24        -0.3112
    486  C2'       17.7740   47.9540   28.1900 C.3    24  U24         0.2309
    487  O2'       18.8330   47.7130   27.2830 O.3    24  U24        -0.2156
    488  C1'       17.9400   47.0640   29.4150 C.3    24  U24         0.2420
    489  N1        16.6450   46.6340   30.0560 N.ar   24  U24        -0.2534
    490  C2        15.9140   45.5970   29.4980 C.ar   24  U24         0.3546
    491  O2        16.2550   44.9890   28.5010 O.2    24  U24        -0.2443
    492  N3        14.7540   45.2750   30.1640 N.ar   24  U24        -0.1530
    493  C4        14.2560   45.8820   31.3060 C.ar   24  U24         0.2846
    494  O4        13.2000   45.4970   31.7960 O.2    24  U24        -0.2650
    495  C5        15.0660   46.9540   31.8280 C.ar   24  U24         0.0814
    496  C6        16.2010   47.2790   31.1990 C.ar   24  U24         0.0870
    497  OP1       18.4420   52.1230   33.0390 O.2    24  U24        -0.5172
    498  OP2       16.6160   50.5280   33.8310 O.co2  24  U24        -0.4373
    499  P         17.1290   51.4820   27.5780 P.3    25  G25         0.2141
    500  C5'       15.9200   50.0990   25.7360 C.3    25  G25         0.1812
    501  O5'       15.8620   50.6760   27.0210 O.3    25  G25        -0.3114
    502  C4'       14.8440   49.0500   25.5470 C.3    25  G25         0.1773
    503  O4'       14.7110   48.1850   26.7000 O.3    25  G25        -0.3307
    504  C3'       13.4560   49.6100   25.3410 C.3    25  G25         0.1860
    505  O3'       13.3750   49.9930   23.9880 O.3    25  G25        -0.3112
    506  C2'       12.5840   48.4070   25.7040 C.3    25  G25         0.2309
    507  O2'       12.5430   47.4150   24.6960 O.3    25  G25        -0.2156
    508  C1'       13.3490   47.8310   26.8880 C.3    25  G25         0.2408
    509  N1        10.4600   46.8840   31.0290 N.ar   25  G25        -0.1709
    510  C2        10.5250   46.1870   29.8510 C.ar   25  G25         0.2606
    511  N2         9.7320   45.1080   29.7720 N.pl3  25  G25        -0.0859
    512  N3        11.3130   46.5280   28.8320 N.ar   25  G25        -0.1918
    513  C4        12.0480   47.6430   29.0850 C.ar   25  G25         0.1723
    514  C5        12.0480   48.4030   30.2330 C.ar   25  G25         0.1748
    515  C6        11.2040   48.0250   31.3100 C.ar   25  G25         0.3023
    516  O6        11.0640   48.5750   32.4130 O.2    25  G25        -0.2633
    517  N7        12.9300   49.4690   30.1170 N.ar   25  G25        -0.2173
    518  C8        13.4400   49.3370   28.9280 C.ar   25  G25         0.1817
    519  N9        12.9490   48.2570   28.2340 N.ar   25  G25        -0.2693
    520  OP1       17.7120   52.3050   26.4940 O.2    25  G25        -0.5172
    521  OP2       16.7280   52.1250   28.8520 O.co2  25  G25        -0.4373
    522  P         12.9610   51.4870   23.6140 P.3    26  A26         0.2141
    523  C5'       13.5480   53.8470   24.5200 C.3    26  A26         0.1812
    524  O5'       13.7060   52.4400   24.6470 O.3    26  A26        -0.3114
    525  C4'       13.1490   54.4640   25.8500 C.3    26  A26         0.1773
    526  O4'       11.9290   53.8510   26.3430 O.3    26  A26        -0.3307
    527  C3'       14.1840   54.3240   26.9610 C.3    26  A26         0.1860
    528  O3'       14.3170   55.5650   27.6370 O.3    26  A26        -0.3112
    529  C2'       13.5550   53.2460   27.8460 C.3    26  A26         0.2309
    530  O2'       13.9860   53.2910   29.1900 O.3    26  A26        -0.2156
    531  C1'       12.0730   53.5880   27.7200 C.3    26  A26         0.2408
    532  N1         9.2370   51.3650   31.4620 N.ar   26  A26        -0.2040
    533  C2         9.9780   52.4830   31.4560 C.ar   26  A26         0.2016
    534  N3        10.6890   53.0100   30.4520 N.ar   26  A26        -0.2048
    535  C4        10.5990   52.2630   29.3330 C.ar   26  A26         0.1692
    536  C5         9.8740   51.0890   29.1920 C.ar   26  A26         0.1518
    537  C6         9.1610   50.6340   30.3250 C.ar   26  A26         0.1919
    538  N6         8.4210   49.5240   30.3230 N.pl3  26  A26        -0.1054
    539  N7        10.0020   50.5860   27.9090 N.ar   26  A26        -0.2193
    540  C8        10.7880   51.4510   27.3100 C.ar   26  A26         0.1816
    541  N9        11.1880   52.4890   28.1040 N.ar   26  A26        -0.2693
    542  OP1       11.5090   51.5750   23.8780 O.3    26  A26        -0.4373
    543  OP2       13.5290   51.8070   22.2860 O.co2  26  A26        -0.5172
    544  P         15.3780   56.6830   27.1930 P.3    27  G27         0.2141
    545  C5'       13.9260   58.9060   27.5450 C.3    27  G27         0.1812
    546  O5'       14.8880   57.9600   28.0330 O.3    27  G27        -0.3114
    547  C4'       12.4790   58.4120   27.5670 C.3    27  G27         0.1773
    548  O4'       11.9900   58.2030   28.9250 O.3    27  G27        -0.3307
    549  C3'       11.4640   59.3630   26.9160 C.3    27  G27         0.1860
    550  O3'       10.5050   58.6020   26.1640 O.3    27  G27        -0.3112
    551  C2'       10.8470   60.0430   28.1370 C.3    27  G27         0.2309
    552  O2'        9.5950   60.6490   27.8930 O.3    27  G27        -0.2156
    553  C1'       10.7150   58.8140   29.0300 C.3    27  G27         0.2408
    554  N1         8.1090   57.2990   33.1710 N.ar   27  G27        -0.1709
    555  C2         8.1710   56.7170   31.9240 C.ar   27  G27         0.2606
    556  N2         7.4540   55.5970   31.7550 N.pl3  27  G27        -0.0859
    557  N3         8.8880   57.2010   30.9120 N.ar   27  G27        -0.1918
    558  C4         9.5530   58.3400   31.2450 C.ar   27  G27         0.1723
    559  C5         9.5530   58.9930   32.4600 C.ar   27  G27         0.1748
    560  C6         8.7850   58.4670   33.5320 C.ar   27  G27         0.3023
    561  O6         8.6680   58.9250   34.6820 O.2    27  G27        -0.2633
    562  N7        10.3580   60.1240   32.4120 N.ar   27  G27        -0.2173
    563  C8        10.8220   60.1340   31.1960 C.ar   27  G27         0.1817
    564  N9        10.3790   59.0840   30.4280 N.ar   27  G27        -0.2693
    565  OP1       15.2230   56.9690   25.7480 O.2    27  G27        -0.5172
    566  OP2       16.6920   56.2510   27.7230 O.co2  27  G27        -0.4373
    567  P          9.5470   59.2650   25.0640 P.3    28  U28         0.2141
    568  C5'       10.4560   57.4980   23.3290 C.3    28  U28         0.1812
    569  O5'        9.3490   58.0670   24.0220 O.3    28  U28        -0.3114
    570  C4'       10.1340   56.0910   22.8540 C.3    28  U28         0.1773
    571  O4'       10.4910   55.1480   23.8940 O.3    28  U28        -0.3307
    572  C3'        8.6660   55.7920   22.5650 C.3    28  U28         0.1860
    573  O3'        8.3330   56.1520   21.2250 O.3    28  U28        -0.3112
    574  C2'        8.6040   54.2840   22.7730 C.3    28  U28         0.2309
    575  O2'        9.1400   53.5710   21.6750 O.3    28  U28        -0.2156
    576  C1'        9.5260   54.1100   23.9740 C.3    28  U28         0.2420
    577  N1         8.8810   54.1120   25.3500 N.ar   28  U28        -0.2534
    578  C2         8.0660   53.0600   25.7650 C.ar   28  U28         0.3546
    579  O2         7.7830   52.0930   25.0880 O.2    28  U28        -0.2443
    580  N3         7.5630   53.1820   27.0370 N.ar   28  U28        -0.1530
    581  C4         7.7860   54.2180   27.9250 C.ar   28  U28         0.2846
    582  O4         7.2650   54.1890   29.0320 O.2    28  U28        -0.2650
    583  C5         8.6420   55.2700   27.4410 C.ar   28  U28         0.0814
    584  C6         9.1430   55.1760   26.2030 C.ar   28  U28         0.0870
    585  OP1       10.2880   60.3650   24.4030 O.2    28  U28        -0.5172
    586  OP2        8.2300   59.5210   25.6930 O.co2  28  U28        -0.4373
    587  P          6.8600   56.6430   20.8300 P.3    29  A29         0.2141
    588  C5'        5.8400   54.3310   20.1160 C.3    29  A29         0.1812
    589  O5'        5.9240   55.3690   21.0980 O.3    29  A29        -0.3114
    590  C4'        5.0400   53.1310   20.5990 C.3    29  A29         0.1773
    591  O4'        5.5640   52.6580   21.8660 O.3    29  A29        -0.3307
    592  C3'        3.5700   53.3870   20.9010 C.3    29  A29         0.1860
    593  O3'        2.7730   53.3910   19.7200 O.3    29  A29        -0.3112
    594  C2'        3.2430   52.2070   21.8070 C.3    29  A29         0.2309
    595  O2'        3.0920   50.9880   21.1070 O.3    29  A29        -0.2156
    596  C1'        4.5010   52.1560   22.6610 C.3    29  A29         0.2408
    597  N1         2.4700   52.3370   27.4110 N.ar   29  A29        -0.2040
    598  C2         2.3200   51.4600   26.4080 C.ar   29  A29         0.2016
    599  N3         2.8820   51.4790   25.1950 N.ar   29  A29        -0.2048
    600  C4         3.6820   52.5520   25.0370 C.ar   29  A29         0.1692
    601  C5         3.9330   53.5380   25.9740 C.ar   29  A29         0.1518
    602  C6         3.2810   53.4040   27.2230 C.ar   29  A29         0.1919
    603  N6         3.4250   54.2790   28.2220 N.pl3  29  A29        -0.1054
    604  N7         4.8060   54.4860   25.4660 N.ar   29  A29        -0.2193
    605  C8         5.0620   54.0600   24.2510 C.ar   29  A29         0.1816
    606  N9         4.4160   52.9000   23.9220 N.ar   29  A29        -0.2693
    607  OP1        6.8890   56.8950   19.3720 O.2    29  A29        -0.5172
    608  OP2        6.4720   57.7230   21.7640 O.co2  29  A29        -0.4373
    609  P          1.6260   54.4980   19.5520 P.3    30  G30         0.2141
    610  C5'       -0.1850   53.1490   20.9260 C.3    30  G30         0.1812
    611  O5'        0.7020   54.2640   20.8420 O.3    30  G30        -0.3114
    612  C4'       -0.6560   52.9420   22.3530 C.3    30  G30         0.1773
    613  O4'        0.4610   52.9700   23.2790 O.3    30  G30        -0.3307
    614  C3'       -1.5480   54.0360   22.9050 C.3    30  G30         0.1860
    615  O3'       -2.8620   53.9500   22.3770 O.3    30  G30        -0.3112
    616  C2'       -1.4550   53.7620   24.4060 C.3    30  G30         0.2309
    617  O2'       -2.1960   52.6390   24.8500 O.3    30  G30        -0.2156
    618  C1'        0.0470   53.5090   24.5270 C.3    30  G30         0.2408
    619  N1         1.0620   57.1700   27.9440 N.ar   30  G30        -0.1709
    620  C2         0.2420   56.0680   28.0640 C.ar   30  G30         0.2606
    621  N2        -0.3930   55.9120   29.2330 N.pl3  30  G30        -0.0859
    622  N3         0.0570   55.1740   27.0990 N.ar   30  G30        -0.1918
    623  C4         0.7700   55.4710   25.9810 C.ar   30  G30         0.1723
    624  C5         1.6120   56.5450   25.7660 C.ar   30  G30         0.1748
    625  C6         1.8010   57.4910   26.8020 C.ar   30  G30         0.3023
    626  O6         2.5130   58.5050   26.7820 O.2    30  G30        -0.2633
    627  N7         2.1540   56.5030   24.4910 N.ar   30  G30        -0.2173
    628  C8         1.6390   55.4230   23.9670 C.ar   30  G30         0.1817
    629  N9         0.7920   54.7400   24.8120 N.ar   30  G30        -0.2693
    630  OP1        0.8530   54.1640   18.3340 O.2    30  G30        -0.5172
    631  OP2        2.2500   55.8400   19.6750 O.co2  30  G30        -0.4373
    632  P         -3.6090   55.2830   21.8960 P.3    31  G31         0.2141
    633  C5'       -4.9890   55.1920   24.1180 C.3    31  G31         0.1812
    634  O5'       -4.1070   55.9210   23.2750 O.3    31  G31        -0.3114
    635  C4'       -5.1130   55.8650   25.4670 C.3    31  G31         0.1773
    636  O4'       -3.8280   55.8700   26.1420 O.3    31  G31        -0.3307
    637  C3'       -5.4990   57.3340   25.4210 C.3    31  G31         0.1860
    638  O3'       -6.8980   57.4940   25.1770 O.3    31  G31        -0.3112
    639  C2'       -5.0600   57.7670   26.8180 C.3    31  G31         0.2309
    640  O2'       -5.9540   57.3710   27.8410 O.3    31  G31        -0.2156
    641  C1'       -3.7210   57.0360   26.9460 C.3    31  G31         0.2408
    642  N1        -0.6770   61.0290   27.9430 N.ar   31  G31        -0.1709
    643  C2        -1.7040   60.5090   28.7010 C.ar   31  G31         0.2606
    644  N2        -1.9560   61.1240   29.8660 N.pl3  31  G31        -0.0859
    645  N3        -2.4290   59.4550   28.3370 N.ar   31  G31        -0.1918
    646  C4        -2.0460   58.9490   27.1340 C.ar   31  G31         0.1723
    647  C5        -1.0370   59.3980   26.3060 C.ar   31  G31         0.1748
    648  C6        -0.2700   60.5230   26.7050 C.ar   31  G31         0.3023
    649  O6         0.6660   61.0630   26.0990 O.2    31  G31        -0.2633
    650  N7        -0.9510   58.6190   25.1610 N.ar   31  G31        -0.2173
    651  C8        -1.8930   57.7300   25.3120 C.ar   31  G31         0.1817
    652  N9        -2.5990   57.8620   26.4870 N.ar   31  G31        -0.2693
    653  OP1       -4.7780   54.8640   21.0900 O.2    31  G31        -0.5172
    654  OP2       -2.6080   56.2060   21.3150 O.co2  31  G31        -0.4373
    655  P         -7.4560   58.7100   24.2850 P.3    32  C32         0.2141
    656  C5'       -8.0520   60.0320   26.4630 C.3    32  C32         0.1812
    657  O5'       -7.3000   59.9730   25.2550 O.3    32  C32        -0.3114
    658  C4'       -7.5050   61.0810   27.4160 C.3    32  C32         0.1773
    659  O4'       -6.0930   60.8680   27.6660 O.3    32  C32        -0.3307
    660  C3'       -7.5370   62.5090   26.9040 C.3    32  C32         0.1860
    661  O3'       -8.8450   63.0510   26.9770 O.3    32  C32        -0.3112
    662  C2'       -6.5620   63.1750   27.8690 C.3    32  C32         0.2309
    663  O2'       -7.0850   63.3970   29.1660 O.3    32  C32        -0.2156
    664  C1'       -5.4630   62.1180   27.9170 C.3    32  C32         0.2420
    665  N1        -4.3520   62.3630   26.9240 N.ar   32  C32        -0.2535
    666  C2        -3.4460   63.4270   27.1210 C.ar   32  C32         0.3532
    667  O2        -3.5540   64.1700   28.1100 O.2    32  C32        -0.2443
    668  N3        -2.4570   63.6160   26.2050 N.ar   32  C32        -0.1739
    669  C4        -2.3470   62.8090   25.1420 C.ar   32  C32         0.1759
    670  N4        -1.3550   63.0420   24.2760 N.pl3  32  C32        -0.1070
    671  C5        -3.2530   61.7260   24.9220 C.ar   32  C32         0.0566
    672  C6        -4.2240   61.5460   25.8280 C.ar   32  C32         0.0850
    673  OP1       -8.8970   58.4690   24.0510 O.3    32  C32        -0.4373
    674  OP2       -6.5550   58.8980   23.1230 O.co2  32  C32        -0.5172
    675  P         -9.4710   63.7790   25.6950 P.3    33  U33         0.2141
    676  C5'       -8.5730   66.1060   26.5680 C.3    33  U33         0.1812
    677  O5'       -8.5830   65.1060   25.5460 O.3    33  U33        -0.3114
    678  C4'       -7.3140   66.9570   26.5090 C.3    33  U33         0.1773
    679  O4'       -6.1200   66.1270   26.4880 O.3    33  U33        -0.3307
    680  C3'       -7.1370   67.8080   25.2590 C.3    33  U33         0.1860
    681  O3'       -8.0170   68.9380   25.2310 O.3    33  U33        -0.3112
    682  C2'       -5.6620   68.1750   25.4040 C.3    33  U33         0.2309
    683  O2'       -5.4160   69.1340   26.4160 O.3    33  U33        -0.2156
    684  C1'       -5.0790   66.8170   25.8050 C.3    33  U33         0.2420
    685  N1        -4.5460   66.0170   24.6230 N.ar   33  U33        -0.2534
    686  C2        -3.2770   66.2910   24.1230 C.ar   33  U33         0.3546
    687  O2        -2.5340   67.1450   24.5780 O.2    33  U33        -0.2443
    688  N3        -2.8900   65.5200   23.0470 N.ar   33  U33        -0.1530
    689  C4        -3.6230   64.5200   22.4260 C.ar   33  U33         0.2846
    690  O4        -3.1420   63.9140   21.4730 O.2    33  U33        -0.2650
    691  C5        -4.9300   64.2880   22.9920 C.ar   33  U33         0.0814
    692  C6        -5.3290   65.0270   24.0400 C.ar   33  U33         0.0870
    693  OP1      -10.8530   64.1720   26.0480 O.3    33  U33        -0.4373
    694  OP2       -9.2250   62.9170   24.5120 O.co2  33  U33        -0.5172
    695  P         -8.8560   69.2710   23.9010 P.3    34  G34         0.2141
    696  C5'       -7.5640   71.3130   22.8400 C.3    34  G34         0.1812
    697  O5'       -7.7470   69.8970   22.9270 O.3    34  G34        -0.3114
    698  C4'       -6.0960   71.7110   22.7620 C.3    34  G34         0.1773
    699  O4'       -5.1880   70.6090   23.0290 O.3    34  G34        -0.3307
    700  C3'       -5.6210   72.1850   21.3980 C.3    34  G34         0.1860
    701  O3'       -6.1420   73.4750   21.0860 O.3    34  G34        -0.3112
    702  C2'       -4.1190   72.2120   21.6540 C.3    34  G34         0.2309
    703  O2'       -3.7180   73.3230   22.4330 O.3    34  G34        -0.2156
    704  C1'       -3.9270   70.9160   22.4470 C.3    34  G34         0.2408
    705  N1        -0.2230   69.0620   19.4150 N.ar   34  G34        -0.1709
    706  C2        -0.2810   70.2720   20.0710 C.ar   34  G34         0.2606
    707  N2         0.7670   71.0910   19.9030 N.pl3  34  G34        -0.0859
    708  N3        -1.2990   70.6490   20.8390 N.ar   34  G34        -0.1918
    709  C4        -2.2800   69.7070   20.9060 C.ar   34  G34         0.1723
    710  C5        -2.3110   68.4720   20.2870 C.ar   34  G34         0.1748
    711  C6        -1.2170   68.0810   19.4710 C.ar   34  G34         0.3023
    712  O6        -1.0730   67.0210   18.8440 O.2    34  G34        -0.2633
    713  N7        -3.4820   67.7930   20.5970 N.ar   34  G34        -0.2173
    714  C8        -4.1270   68.6120   21.3800 C.ar   34  G34         0.1817
    715  N9        -3.4640   69.7960   21.6170 N.ar   34  G34        -0.2693
    716  OP1       -9.8670   70.2980   24.2480 O.3    34  G34        -0.4373
    717  OP2       -9.3010   67.9950   23.2920 O.co2  34  G34        -0.5172
    718  P         -6.5550   73.8490   19.5820 P.3    35  U35         0.2141
    719  C5'       -4.5020   75.1300   18.5060 C.3    35  U35         0.1812
    720  O5'       -5.1490   73.8920   18.8070 O.3    35  U35        -0.3114
    721  C4'       -3.2310   74.9270   17.6960 C.3    35  U35         0.1773
    722  O4'       -2.4940   73.7740   18.1790 O.3    35  U35        -0.3307
    723  C3'       -3.4130   74.6230   16.2140 C.3    35  U35         0.1860
    724  O3'       -3.6960   75.7950   15.4590 O.3    35  U35        -0.3112
    725  C2'       -2.0290   74.0800   15.8770 C.3    35  U35         0.2309
    726  O2'       -1.0580   75.0980   15.7050 O.3    35  U35        -0.2156
    727  C1'       -1.7150   73.2410   17.1160 C.3    35  U35         0.2420
    728  N1        -1.9820   71.7620   16.9210 N.ar   35  U35        -0.2534
    729  C2        -1.0650   70.9780   16.2260 C.ar   35  U35         0.3546
    730  O2        -0.0250   71.3960   15.7440 O.2    35  U35        -0.2443
    731  N3        -1.4070   69.6510   16.1070 N.ar   35  U35        -0.1530
    732  C4        -2.5450   69.0340   16.5970 C.ar   35  U35         0.2846
    733  O4        -2.7090   67.8330   16.4100 O.2    35  U35        -0.2650
    734  C5        -3.4530   69.9040   17.3050 C.ar   35  U35         0.0814
    735  C6        -3.1430   71.2030   17.4360 C.ar   35  U35         0.0870
    736  OP1       -7.1470   75.2060   19.6230 O.3    35  U35        -0.4373
    737  OP2       -7.3440   72.7270   19.0200 O.co2  35  U35        -0.5172
    738  P         -4.6080   75.7480   14.1400 P.3    36  C36         0.2141
    739  C5'       -3.9050   74.4770   11.9230 C.3    36  C36         0.1812
    740  O5'       -4.1300   74.4440   13.3350 O.3    36  C36        -0.3114
    741  C4'       -2.4450   74.2010   11.6010 C.3    36  C36         0.1773
    742  O4'       -1.8310   73.5000   12.7150 O.3    36  C36        -0.3307
    743  C3'       -2.2140   73.3020   10.3930 C.3    36  C36         0.1860
    744  O3'       -2.0480   74.0710    9.2060 O.3    36  C36        -0.3112
    745  C2'       -0.9410   72.5460   10.7670 C.3    36  C36         0.2309
    746  O2'        0.2460   73.2710   10.5120 O.3    36  C36        -0.2156
    747  C1'       -1.1290   72.3530   12.2690 C.3    36  C36         0.2420
    748  N1        -1.8690   71.0830   12.6440 N.ar   36  C36        -0.2535
    749  C2        -1.2500   69.8260   12.4880 C.ar   36  C36         0.3532
    750  O2        -0.0970   69.7540   12.0430 O.2    36  C36        -0.2443
    751  N3        -1.9380   68.7040   12.8300 N.ar   36  C36        -0.1739
    752  C4        -3.1840   68.7920   13.3070 C.ar   36  C36         0.1759
    753  N4        -3.8160   67.6620   13.6290 N.pl3  36  C36        -0.1070
    754  C5        -3.8350   70.0490   13.4780 C.ar   36  C36         0.0566
    755  C6        -3.1480   71.1480   13.1390 C.ar   36  C36         0.0850
    756  OP1       -4.2890   76.9630   13.3550 O.2    36  C36        -0.5172
    757  OP2       -6.0000   75.5110   14.5780 O.co2  36  C36        -0.4373
    758  P         -2.5960   73.5130    7.8070 P.3    37  C37         0.2141
    759  C5'       -0.3470   72.3680    7.0070 C.3    37  C37         0.1812
    760  O5'       -1.6760   72.2300    7.5190 O.3    37  C37        -0.3114
    761  C4'        0.2970   71.0190    6.7230 C.3    37  C37         0.1773
    762  O4'        0.3460   70.2260    7.9390 O.3    37  C37        -0.3307
    763  C3'       -0.4360   70.1340    5.7230 C.3    37  C37         0.1860
    764  O3'       -0.0900   70.4730    4.3830 O.3    37  C37        -0.3112
    765  C2'        0.0610   68.7460    6.1130 C.3    37  C37         0.2309
    766  O2'        1.3330   68.4270    5.5790 O.3    37  C37        -0.2156
    767  C1'        0.1280   68.8550    7.6360 C.3    37  C37         0.2420
    768  N1        -1.1200   68.3540    8.3310 N.ar   37  C37        -0.2535
    769  C2        -1.4640   66.9850    8.2970 C.ar   37  C37         0.3532
    770  O2        -0.7430   66.1720    7.7040 O.2    37  C37        -0.2443
    771  N3        -2.5940   66.5760    8.9350 N.ar   37  C37        -0.1739
    772  C4        -3.3680   67.4610    9.5750 C.ar   37  C37         0.1759
    773  N4        -4.4680   67.0090   10.1830 N.pl3  37  C37        -0.1070
    774  C5        -3.0450   68.8500    9.6200 C.ar   37  C37         0.0566
    775  C6        -1.9280   69.2430    8.9930 C.ar   37  C37         0.0850
    776  OP1       -2.3380   74.5490    6.7810 O.2    37  C37        -0.5172
    777  OP2       -3.9780   73.0300    8.0270 O.co2  37  C37        -0.4373
    778  P         -1.1670   70.3140    3.2060 P.3    38  C38         0.2141
    779  C5'       -0.1740   67.9780    2.4600 C.3    38  C38         0.1812
    780  O5'       -1.2610   68.7280    3.0030 O.3    38  C38        -0.3114
    781  C4'       -0.4700   66.4880    2.4960 C.3    38  C38         0.1773
    782  O4'       -0.8000   66.0870    3.8490 O.3    38  C38        -0.3307
    783  C3'       -1.6650   66.0540    1.6590 C.3    38  C38         0.1860
    784  O3'       -1.2570   65.7770    0.3200 O.3    38  C38        -0.3112
    785  C2'       -2.1600   64.7980    2.3710 C.3    38  C38         0.2309
    786  O2'       -1.6150   63.6080    1.8310 O.3    38  C38        -0.2156
    787  C1'       -1.6880   64.9820    3.8150 C.3    38  C38         0.2420
    788  N1        -2.8200   65.1870    4.7900 N.ar   38  C38        -0.2535
    789  C2        -3.5500   64.0820    5.2700 C.ar   38  C38         0.3532
    790  O2        -3.2640   62.9360    4.8970 O.2    38  C38        -0.2443
    791  N3        -4.5680   64.2990    6.1470 N.ar   38  C38        -0.1739
    792  C4        -4.8670   65.5410    6.5430 C.ar   38  C38         0.1759
    793  N4        -5.8760   65.6970    7.4060 N.pl3  38  C38        -0.1070
    794  C5        -4.1430   66.6770    6.0680 C.ar   38  C38         0.0566
    795  C6        -3.1420   66.4540    5.2040 C.ar   38  C38         0.0850
    796  OP1       -0.5960   70.9330    1.9900 O.2    38  C38        -0.5172
    797  OP2       -2.4820   70.7790    3.7040 O.co2  38  C38        -0.4373
    798  P         -1.9480   66.5180   -0.9250 P.3    39  A39         0.2141
    799  C5'       -3.7750   64.6100   -1.0520 C.3    39  A39         0.1812
    800  O5'       -3.4610   65.9940   -0.8920 O.3    39  A39        -0.3114
    801  C4'       -5.1530   64.3280   -0.4850 C.3    39  A39         0.1773
    802  O4'       -5.2350   64.8290    0.8730 O.3    39  A39        -0.3307
    803  C3'       -6.2950   64.9870   -1.2560 C.3    39  A39         0.1860
    804  O3'       -7.2100   63.9800   -1.6790 O.3    39  A39        -0.3112
    805  C2'       -6.9080   65.9830   -0.2670 C.3    39  A39         0.2309
    806  O2'       -8.3150   66.0940   -0.3820 O.3    39  A39        -0.2156
    807  C1'       -6.5200   65.3760    1.0770 C.3    39  A39         0.2408
    808  N1        -8.7430   67.1580    5.4010 N.ar   39  A39        -0.2040
    809  C2        -9.0930   66.1680    4.5640 C.ar   39  A39         0.2016
    810  N3        -8.4700   65.7550    3.4550 N.ar   39  A39        -0.2048
    811  C4        -7.3540   66.4760    3.2190 C.ar   39  A39         0.1692
    812  C5        -6.8710   67.5220    3.9900 C.ar   39  A39         0.1518
    813  C6        -7.6190   67.8670    5.1400 C.ar   39  A39         0.1919
    814  N6        -7.2680   68.8530    5.9730 N.pl3  39  A39        -0.1054
    815  N7        -5.7030   68.0330    3.4490 N.ar   39  A39        -0.2193
    816  C8        -5.5060   67.3000    2.3790 C.ar   39  A39         0.1816
    817  N9        -6.4610   66.3410    2.1760 N.ar   39  A39        -0.2693
    818  OP1       -1.3180   66.0040   -2.1630 O.2    39  A39        -0.5172
    819  OP2       -1.9450   67.9740   -0.6520 O.co2  39  A39        -0.4373
    820  P         -7.2230   63.4850   -3.2020 P.3    40  U40         0.2141
    821  C5'       -6.6290   60.9360   -2.7790 C.3    40  U40         0.1812
    822  O5'       -7.6130   61.9350   -3.0770 O.3    40  U40        -0.3114
    823  C4'       -7.1560   59.8770   -1.8150 C.3    40  U40         0.1773
    824  O4'       -7.5290   60.4860   -0.5490 O.3    40  U40        -0.3307
    825  C3'       -8.3840   59.0850   -2.2680 C.3    40  U40         0.1860
    826  O3'       -8.2910   57.7320   -1.8080 O.3    40  U40        -0.3112
    827  C2'       -9.5240   59.8240   -1.5680 C.3    40  U40         0.2309
    828  O2'      -10.6850   59.0310   -1.4140 O.3    40  U40        -0.2156
    829  C1'       -8.8560   60.1070   -0.2230 C.3    40  U40         0.2420
    830  N1        -9.5040   61.1610    0.6410 N.ar   40  U40        -0.2534
    831  C2       -10.3580   60.7720    1.6650 C.ar   40  U40         0.3546
    832  O2       -10.6370   59.6120    1.9170 O.2    40  U40        -0.2443
    833  N3       -10.8900   61.8080    2.4000 N.ar   40  U40        -0.1530
    834  C4       -10.6620   63.1640    2.2230 C.ar   40  U40         0.2846
    835  O4       -11.2120   63.9730    2.9630 O.2    40  U40        -0.2650
    836  C5        -9.7620   63.4950    1.1440 C.ar   40  U40         0.0814
    837  C6        -9.2310   62.5030    0.4130 C.ar   40  U40         0.0870
    838  OP1       -5.8500   63.6000   -3.7490 O.3    40  U40        -0.4373
    839  OP2       -8.3410   64.1820   -3.8770 O.co2  40  U40        -0.5172
    840  P         -7.5700   56.5690   -2.6430 P.3    41  C41         0.2141
    841  C5'       -6.4060   55.8930   -0.3900 C.3    41  C41         0.1812
    842  O5'       -6.2730   56.2320   -1.7660 O.3    41  C41        -0.3114
    843  C4'       -5.4140   56.6690    0.4540 C.3    41  C41         0.1773
    844  O4'       -5.9210   57.9840    0.7520 O.3    41  C41        -0.3307
    845  C3'       -5.1830   56.0900    1.8370 C.3    41  C41         0.1860
    846  O3'       -4.1800   55.0850    1.7610 O.3    41  C41        -0.3112
    847  C2'       -4.7520   57.2940    2.6810 C.3    41  C41         0.2309
    848  O2'       -3.3720   57.3160    2.9940 O.3    41  C41        -0.2156
    849  C1'       -5.1190   58.4860    1.7980 C.3    41  C41         0.2420
    850  N1        -5.8650   59.5620    2.5180 N.ar   41  C41        -0.2535
    851  C2        -7.1150   59.3180    3.1300 C.ar   41  C41         0.3532
    852  O2        -7.6370   58.1920    3.0850 O.2    41  C41        -0.2443
    853  N3        -7.7330   60.3500    3.7690 N.ar   41  C41        -0.1739
    854  C4        -7.1680   61.5620    3.8120 C.ar   41  C41         0.1759
    855  N4        -7.8260   62.5290    4.4550 N.pl3  41  C41        -0.1070
    856  C5        -5.9060   61.8290    3.1990 C.ar   41  C41         0.0566
    857  C6        -5.3010   60.8100    2.5720 C.ar   41  C41         0.0850
    858  OP1       -7.1090   57.1320   -3.9330 O.2    41  C41        -0.5172
    859  OP2       -8.4690   55.3930   -2.6200 O.co2  41  C41        -0.4373
    860  P         -4.3770   53.6970    2.5270 P.3    42  A42         0.2141
    861  C5'       -3.1500   54.4220    4.7390 C.3    42  A42         0.1812
    862  O5'       -4.3740   54.1580    4.0590 O.3    42  A42        -0.3114
    863  C4'       -3.0720   53.6110    6.0220 C.3    42  A42         0.1773
    864  O4'       -4.2930   53.7880    6.7890 O.3    42  A42        -0.3307
    865  C3'       -2.9060   52.1050    5.8280 C.3    42  A42         0.1860
    866  O3'       -1.8420   51.6100    6.6430 O.3    42  A42        -0.3112
    867  C2'       -4.2550   51.5490    6.2760 C.3    42  A42         0.2309
    868  O2'       -4.1690   50.2600    6.8440 O.3    42  A42        -0.2156
    869  C1'       -4.6460   52.5490    7.3540 C.3    42  A42         0.2408
    870  N1        -8.1400   52.3730   11.1820 N.ar   42  A42        -0.2040
    871  C2        -6.8030   52.4260   11.1990 C.ar   42  A42         0.2016
    872  N3        -5.9530   52.4740   10.1680 N.ar   42  A42        -0.2048
    873  C4        -6.6060   52.4640    8.9890 C.ar   42  A42         0.1692
    874  C5        -7.9800   52.4120    8.8160 C.ar   42  A42         0.1518
    875  C6        -8.7690   52.3620    9.9860 C.ar   42  A42         0.1919
    876  N6       -10.1030   52.3120    9.9680 N.pl3  42  A42        -0.1054
    877  N7        -8.3030   52.4200    7.4700 N.ar   42  A42        -0.2193
    878  C8        -7.1390   52.4730    6.8660 C.ar   42  A42         0.1816
    879  N9        -6.0660   52.5020    7.7170 N.ar   42  A42        -0.2693
    880  OP1       -3.1810   52.8650    2.2660 O.3    42  A42        -0.4373
    881  OP2       -5.7230   53.1760    2.1920 O.co2  42  A42        -0.5172
    882  P         -0.3020   51.8310    6.2570 P.3    43  G43         0.2141
    883  C5'        0.4290   50.7770    8.5500 C.3    43  G43         0.1812
    884  O5'        0.4420   50.7100    7.1200 O.3    43  G43        -0.3114
    885  C4'        0.6740   49.4230    9.2030 C.3    43  G43         0.1773
    886  O4'       -0.4570   48.5440    8.9560 O.3    43  G43        -0.3307
    887  C3'        1.9070   48.6650    8.7180 C.3    43  G43         0.1860
    888  O3'        2.5030   47.9140    9.7770 O.3    43  G43        -0.3112
    889  C2'        1.3200   47.7600    7.6410 C.3    43  G43         0.2309
    890  O2'        2.0720   46.5850    7.4320 O.3    43  G43        -0.2156
    891  C1'       -0.0670   47.4250    8.1830 C.3    43  G43         0.2408
    892  N1        -1.9840   44.2880    4.6560 N.ar   43  G43        -0.1709
    893  C2        -1.0540   44.0320    5.6400 C.ar   43  G43         0.2606
    894  N2        -0.5600   42.7890    5.6990 N.pl3  43  G43        -0.0859
    895  N3        -0.6310   44.9360    6.5150 N.ar   43  G43        -0.1918
    896  C4        -1.2220   46.1440    6.3300 C.ar   43  G43         0.1723
    897  C5        -2.1580   46.5000    5.3830 C.ar   43  G43         0.1748
    898  C6        -2.6020   45.5250    4.4510 C.ar   43  G43         0.3023
    899  O6        -3.4310   45.6630    3.5350 O.2    43  G43        -0.2633
    900  N7        -2.5140   47.8350    5.5210 N.ar   43  G43        -0.2173
    901  C8        -1.8000   48.2480    6.5300 C.ar   43  G43         0.1817
    902  N9        -0.9990   47.2750    7.0760 N.ar   43  G43        -0.2693
    903  OP1        0.1220   53.1600    6.7620 O.3    43  G43        -0.4373
    904  OP2       -0.1700   51.5250    4.8120 O.co2  43  G43        -0.5172
    905  P          4.0860   47.9280   10.0150 P.3    44  G44         0.2141
    906  C5'        6.0850   47.9190    8.3070 C.3    44  G44         0.1812
    907  O5'        4.6840   47.8480    8.5310 O.3    44  G44        -0.3114
    908  C4'        6.5470   46.9430    7.2360 C.3    44  G44         0.1773
    909  O4'        6.5900   45.5840    7.7470 O.3    44  G44        -0.3307
    910  C3'        5.6790   46.8110    5.9910 C.3    44  G44         0.1860
    911  O3'        5.8320   47.9210    5.1240 O.3    44  G44        -0.3112
    912  C2'        6.2820   45.5350    5.4120 C.3    44  G44         0.2309
    913  O2'        7.5470   45.7260    4.8050 O.3    44  G44        -0.2156
    914  C1'        6.4070   44.6790    6.6710 C.3    44  G44         0.2408
    915  N1         3.6060   40.7530    5.0310 N.ar   44  G44        -0.1709
    916  C2         4.7930   41.2480    4.5430 C.ar   44  G44         0.2606
    917  N2         5.3200   40.6380    3.4760 N.pl3  44  G44        -0.0859
    918  N3         5.4320   42.2860    5.0630 N.ar   44  G44        -0.1918
    919  C4         4.7850   42.8020    6.1350 C.ar   44  G44         0.1723
    920  C5         3.6030   42.3800    6.7000 C.ar   44  G44         0.1748
    921  C6         2.9270   41.2710    6.1360 C.ar   44  G44         0.3023
    922  O6         1.8620   40.7600    6.5110 O.2    44  G44        -0.2633
    923  N7         3.2680   43.1730    7.7880 N.ar   44  G44        -0.2173
    924  C8         4.2390   44.0430    7.8520 C.ar   44  G44         0.1817
    925  N9         5.2020   43.8760    6.8850 N.ar   44  G44        -0.2693
    926  OP1        4.4570   46.6770   10.7090 O.3    44  G44        -0.4373
    927  OP2        4.4330   49.2420   10.5990 O.co2  44  G44        -0.5172
    928  P          4.7280   48.2330    4.0080 P.3    45  G45         0.2141
    929  C5'        5.9610   47.1210    1.9240 C.3    45  G45         0.1812
    930  O5'        4.9420   47.0630    2.9280 O.3    45  G45        -0.3114
    931  C4'        5.7820   46.0700    0.8330 C.3    45  G45         0.1773
    932  O4'        5.8870   44.7250    1.3710 O.3    45  G45        -0.3307
    933  C3'        4.4300   46.0490    0.1380 C.3    45  G45         0.1860
    934  O3'        4.3030   47.0800   -0.8300 O.3    45  G45        -0.3112
    935  C2'        4.4180   44.6460   -0.4710 C.3    45  G45         0.2309
    936  O2'        5.1950   44.5030   -1.6450 O.3    45  G45        -0.2156
    937  C1'        5.0140   43.8450    0.6790 C.3    45  G45         0.2408
    938  N1         1.1730   40.5430    1.5290 N.ar   45  G45        -0.1709
    939  C2         2.0070   40.6380    0.4360 C.ar   45  G45         0.2606
    940  N2         1.7920   39.7540   -0.5470 N.pl3  45  G45        -0.0859
    941  N3         2.9840   41.5400    0.3130 N.ar   45  G45        -0.1918
    942  C4         3.0690   42.3620    1.3930 C.ar   45  G45         0.1723
    943  C5         2.2840   42.3420    2.5280 C.ar   45  G45         0.1748
    944  C6         1.2510   41.3780    2.6450 C.ar   45  G45         0.3023
    945  O6         0.4600   41.2300    3.5810 O.2    45  G45        -0.2633
    946  N7         2.6720   43.3360    3.4130 N.ar   45  G45        -0.2173
    947  C8         3.6630   43.9290    2.8120 C.ar   45  G45         0.1817
    948  N9         3.9660   43.3920    1.5860 N.ar   45  G45        -0.2693
    949  OP1        5.0600   49.5380    3.3920 O.2    45  G45        -0.5172
    950  OP2        3.3920   48.0340    4.6210 O.co2  45  G45        -0.4373
    951  P          2.8680   47.7650   -0.9920 P.3    46  G46         0.2141
    952  C5'        2.2260   46.1860   -2.9900 C.3    46  G46         0.1812
    953  O5'        1.9690   46.6240   -1.6630 O.3    46  G46        -0.3114
    954  C4'        1.4400   44.9270   -3.2950 C.3    46  G46         0.1773
    955  O4'        1.7270   43.8990   -2.3080 O.3    46  G46        -0.3307
    956  C3'       -0.0750   45.0580   -3.2270 C.3    46  G46         0.1860
    957  O3'       -0.6130   45.6890   -4.3690 O.3    46  G46        -0.3112
    958  C2'       -0.4490   43.5850   -3.1740 C.3    46  G46         0.2309
    959  O2'       -0.3700   42.9270   -4.4240 O.3    46  G46        -0.2156
    960  C1'        0.5940   43.0600   -2.1930 C.3    46  G46         0.2408
    961  N1        -2.8780   41.1200    0.9700 N.ar   46  G46        -0.1709
    962  C2        -2.5980   40.7840   -0.3350 C.ar   46  G46         0.2606
    963  N2        -3.3350   39.8080   -0.8800 N.pl3  46  G46        -0.0859
    964  N3        -1.6540   41.3720   -1.0580 N.ar   46  G46        -0.1918
    965  C4        -0.9950   42.3420   -0.3680 C.ar   46  G46         0.1723
    966  C5        -1.2000   42.7520    0.9280 C.ar   46  G46         0.1748
    967  C6        -2.2140   42.1140    1.6930 C.ar   46  G46         0.3023
    968  O6        -2.5470   42.3330    2.8660 O.2    46  G46        -0.2633
    969  N7        -0.3160   43.7750    1.2600 N.ar   46  G46        -0.2173
    970  C8         0.3900   43.9600    0.1810 C.ar   46  G46         0.1817
    971  N9         0.0370   43.1210   -0.8460 N.ar   46  G46        -0.2693
    972  OP1        3.0130   48.8900   -1.9490 O.2    46  G46        -0.5172
    973  OP2        2.3150   47.9780    0.3680 O.co2  46  G46        -0.4373
    974  P         -2.0750   46.3370   -4.3160 P.3    47  A47         0.2141
    975  C5'       -3.2690   44.2700   -5.3720 C.3    47  A47         0.1812
    976  O5'       -3.0770   45.0990   -4.2340 O.3    47  A47        -0.3114
    977  C4'       -4.4150   43.2980   -5.1830 C.3    47  A47         0.1773
    978  O4'       -4.0790   42.3150   -4.1730 O.3    47  A47        -0.3307
    979  C3'       -5.6920   43.9450   -4.6840 C.3    47  A47         0.1860
    980  O3'       -6.4200   44.4870   -5.7620 O.3    47  A47        -0.3112
    981  C2'       -6.3860   42.7600   -4.0290 C.3    47  A47         0.2309
    982  O2'       -7.0240   41.9040   -4.9560 O.3    47  A47        -0.2156
    983  C1'       -5.2000   42.0890   -3.3340 C.3    47  A47         0.2408
    984  N1        -6.7570   42.3210    1.5920 N.ar   47  A47        -0.2040
    985  C2        -7.2020   41.6030    0.5480 C.ar   47  A47         0.2016
    986  N3        -6.7490   41.5870   -0.7120 N.ar   47  A47        -0.2048
    987  C4        -5.7080   42.4290   -0.8630 C.ar   47  A47         0.1692
    988  C5        -5.1420   43.2290    0.1170 C.ar   47  A47         0.1518
    989  C6        -5.7080   43.1550    1.4040 C.ar   47  A47         0.1919
    990  N6        -5.2450   43.8750    2.4270 N.pl3  47  A47        -0.1054
    991  N7        -4.0880   43.9670   -0.3830 N.ar   47  A47        -0.2193
    992  C8        -4.0410   43.6050   -1.6410 C.ar   47  A47         0.1816
    993  N9        -4.9810   42.6740   -2.0050 N.ar   47  A47        -0.2693
    994  OP1       -2.2980   47.0370   -5.5970 O.2    47  A47        -0.5172
    995  OP2       -2.2030   47.0730   -3.0440 O.co2  47  A47        -0.4373
    996  P         -7.2670   45.8210   -5.5330 P.3    48  G48         0.2141
    997  C5'       -9.4590   44.3980   -5.2650 C.3    48  G48         0.1812
    998  O5'       -8.5030   45.2830   -4.6690 O.3    48  G48        -0.3114
    999  C4'      -10.3480   43.7370   -4.2260 C.3    48  G48         0.1773
   1000  O4'       -9.5560   43.1250   -3.1740 O.3    48  G48        -0.3307
   1001  C3'      -11.2570   44.6900   -3.4720 C.3    48  G48         0.1860
   1002  O3'      -12.3960   45.0320   -4.2360 O.3    48  G48        -0.3112
   1003  C2'      -11.5970   43.8640   -2.2380 C.3    48  G48         0.2309
   1004  O2'      -12.5710   42.8740   -2.4920 O.3    48  G48        -0.2156
   1005  C1'      -10.2340   43.2480   -1.9320 C.3    48  G48         0.2408
   1006  N1        -9.4990   44.6860    2.9250 N.ar   48  G48        -0.1709
   1007  C2       -10.4190   43.8010    2.4090 C.ar   48  G48         0.2606
   1008  N2       -11.2490   43.2190    3.2860 N.pl3  48  G48        -0.0859
   1009  N3       -10.5200   43.5060    1.1170 N.ar   48  G48        -0.1918
   1010  C4        -9.6080   44.1740    0.3630 C.ar   48  G48         0.1723
   1011  C5        -8.6550   45.0760    0.7860 C.ar   48  G48         0.1748
   1012  C6        -8.5580   45.3820    2.1660 C.ar   48  G48         0.3023
   1013  O6        -7.7760   46.1670    2.7220 O.2    48  G48        -0.2633
   1014  N7        -7.9130   45.5500   -0.2870 N.ar   48  G48        -0.2173
   1015  C8        -8.4190   44.9340   -1.3200 C.ar   48  G48         0.1817
   1016  N9        -9.4510   44.0760   -1.0070 N.ar   48  G48        -0.2693
   1017  OP1       -7.7820   46.2850   -6.8450 O.2    48  G48        -0.5172
   1018  OP2       -6.4510   46.7220   -4.6880 O.co2  48  G48        -0.4373
   1019  P        -13.1690   46.3960   -3.9070 P.3    49  G49         0.2141
   1020  C5'      -14.1150   47.0260   -1.5490 C.3    49  G49         0.1812
   1021  O5'      -13.9340   46.0340   -2.5440 O.3    49  G49        -0.3114
   1022  C4'      -14.6370   46.4210   -0.2650 C.3    49  G49         0.1773
   1023  O4'      -13.5840   45.6660    0.3850 O.3    49  G49        -0.3307
   1024  C3'      -15.0380   47.4680    0.7570 C.3    49  G49         0.1860
   1025  O3'      -16.3830   47.8950    0.5340 O.3    49  G49        -0.3112
   1026  C2'      -14.8110   46.7370    2.0800 C.3    49  G49         0.2309
   1027  O2'      -15.8520   45.8420    2.4270 O.3    49  G49        -0.2156
   1028  C1'      -13.5190   45.9810    1.7670 C.3    49  G49         0.2408
   1029  N1       -10.4870   48.0990    5.3200 N.ar   49  G49        -0.1709
   1030  C2       -11.6490   47.3790    5.4840 C.ar   49  G49         0.2606
   1031  N2       -12.0640   47.1960    6.7450 N.pl3  49  G49        -0.0859
   1032  N3       -12.3550   46.8690    4.4790 N.ar   49  G49        -0.1918
   1033  C4       -11.8060   47.1450    3.2670 C.ar   49  G49         0.1723
   1034  C5       -10.6550   47.8630    3.0030 C.ar   49  G49         0.1748
   1035  C6        -9.9060   48.3950    4.0860 C.ar   49  G49         0.3023
   1036  O6        -8.8560   49.0530    4.0460 O.2    49  G49        -0.2633
   1037  N7       -10.4210   47.9300    1.6370 N.ar   49  G49        -0.2173
   1038  C8       -11.4160   47.2680    1.1140 C.ar   49  G49         0.1817
   1039  N9       -12.3020   46.7580    2.0370 N.ar   49  G49        -0.2693
   1040  OP1      -14.1710   46.6160   -4.9770 O.2    49  G49        -0.5172
   1041  OP2      -12.1650   47.4490   -3.6140 O.co2  49  G49        -0.4373
   1042  P        -16.8030   49.4270    0.7670 P.3    50  A50         0.2141
   1043  C5'      -17.8900   48.7400    3.0400 C.3    50  A50         0.1812
   1044  O5'      -16.8890   49.4950    2.3620 O.3    50  A50        -0.3114
   1045  C4'      -17.7040   48.8040    4.5410 C.3    50  A50         0.1773
   1046  O4'      -16.4100   48.2570    4.8940 O.3    50  A50        -0.3307
   1047  C3'      -17.6700   50.2090    5.1100 C.3    50  A50         0.1860
   1048  O3'      -18.9870   50.7000    5.2750 O.3    50  A50        -0.3112
   1049  C2'      -16.9150   49.9830    6.4160 C.3    50  A50         0.2309
   1050  O2'      -17.6760   49.3410    7.4220 O.3    50  A50        -0.2156
   1051  C1'      -15.8260   49.0350    5.9280 C.3    50  A50         0.2408
   1052  N1       -11.4560   51.4980    7.1670 N.ar   50  A50        -0.2040
   1053  C2       -12.4480   51.0040    7.9260 C.ar   50  A50         0.2016
   1054  N3       -13.5580   50.3750    7.5360 N.ar   50  A50        -0.2048
   1055  C4       -13.6130   50.2680    6.1930 C.ar   50  A50         0.1692
   1056  C5       -12.6730   50.7300    5.2860 C.ar   50  A50         0.1518
   1057  C6       -11.5370   51.3770    5.8200 C.ar   50  A50         0.1919
   1058  N6       -10.5510   51.8710    5.0620 N.pl3  50  A50        -0.1054
   1059  N7       -13.0570   50.4450    3.9880 N.ar   50  A50        -0.2193
   1060  C8       -14.2040   49.8280    4.1350 C.ar   50  A50         0.1816
   1061  N9       -14.6050   49.6850    5.4360 N.ar   50  A50        -0.2693
   1062  OP1      -18.1590   49.6100    0.2030 O.2    50  A50        -0.5172
   1063  OP2      -15.7110   50.3280    0.3270 O.co2  50  A50        -0.4373
   1064  P        -19.3900   52.1000    4.6060 P.3    51  A51         0.2141
   1065  C5'      -19.0510   53.3330    6.9140 C.3    51  A51         0.1812
   1066  O5'      -18.6390   53.1560    5.5520 O.3    51  A51        -0.3114
   1067  C4'      -17.9290   53.8500    7.7990 C.3    51  A51         0.1773
   1068  O4'      -16.7340   53.0410    7.6360 O.3    51  A51        -0.3307
   1069  C3'      -17.4530   55.2630    7.4980 C.3    51  A51         0.1860
   1070  O3'      -18.3380   56.2300    8.0520 O.3    51  A51        -0.3112
   1071  C2'      -16.0690   55.2490    8.1500 C.3    51  A51         0.2309
   1072  O2'      -16.0820   55.4040    9.5560 O.3    51  A51        -0.2156
   1073  C1'      -15.5750   53.8510    7.7740 C.3    51  A51         0.2408
   1074  N1       -11.0640   55.0100    5.5380 N.ar   51  A51        -0.2040
   1075  C2       -11.4730   55.0760    6.8140 C.ar   51  A51         0.2016
   1076  N3       -12.6640   54.7520    7.3230 N.ar   51  A51        -0.2048
   1077  C4       -13.5050   54.3130    6.3680 C.ar   51  A51         0.1692
   1078  C5       -13.2280   54.1910    5.0160 C.ar   51  A51         0.1518
   1079  C6       -11.9310   54.5680    4.5990 C.ar   51  A51         0.1919
   1080  N6       -11.5150   54.5030    3.3320 N.pl3  51  A51        -0.1054
   1081  N7       -14.3310   53.7070    4.3330 N.ar   51  A51        -0.2193
   1082  C8       -15.2370   53.5500    5.2670 C.ar   51  A51         0.1816
   1083  N9       -14.8080   53.8880    6.5240 N.ar   51  A51        -0.2693
   1084  OP1      -20.8530   52.2510    4.7540 O.3    51  A51        -0.4373
   1085  OP2      -18.7990   52.1900    3.2520 O.co2  51  A51        -0.5172
   1086  P        -19.1360   57.2490    7.0990 P.3    52  U52         0.2141
   1087  C5'      -17.6650   59.2920    7.8360 C.3    52  U52         0.1812
   1088  O5'      -18.0480   58.3820    6.8060 O.3    52  U52        -0.3114
   1089  C4'      -16.8900   60.4610    7.2590 C.3    52  U52         0.1773
   1090  O4'      -15.6340   59.9640    6.7320 O.3    52  U52        -0.3307
   1091  C3'      -17.6070   61.2180    6.1280 C.3    52  U52         0.1860
   1092  O3'      -17.9590   62.6150    6.4030 O.3    52  U52        -0.3112
   1093  C2'      -16.7130   61.0150    4.8960 C.3    52  U52         0.2309
   1094  O2'      -16.5310   62.1930    4.1340 O.3    52  U52        -0.2156
   1095  C1'      -15.3750   60.5290    5.4620 C.3    52  U52         0.2420
   1096  N1       -14.6770   59.5220    4.5660 N.ar   52  U52        -0.2534
   1097  C2       -13.4710   59.8550    3.9610 C.ar   52  U52         0.3546
   1098  O2       -12.9080   60.9260    4.1090 O.2    52  U52        -0.2443
   1099  N3       -12.9290   58.8750    3.1600 N.ar   52  U52        -0.1530
   1100  C4       -13.4570   57.6220    2.9000 C.ar   52  U52         0.2846
   1101  O4       -12.8540   56.8560    2.1580 O.2    52  U52        -0.2650
   1102  C5       -14.7100   57.3410    3.5570 C.ar   52  U52         0.0814
   1103  C6       -15.2570   58.2790    4.3440 C.ar   52  U52         0.0870
   1104  OP1      -20.2410   57.8390    7.8920 O.3    52  U52        -0.4373
   1105  OP2      -19.4440   56.5710    5.8200 O.co2  52  U52        -0.5172
   1106  P        -17.1500   63.6770    7.3070 P.3    53  C53         0.2141
   1107  C5'      -17.0340   63.9380    9.9340 C.3    53  C53         0.1812
   1108  O5'      -17.6930   63.3910    8.7880 O.3    53  C53        -0.3114
   1109  C4'      -17.5190   63.2710   11.2120 C.3    53  C53         0.1773
   1110  O4'      -18.9630   63.1410   11.1830 O.3    53  C53        -0.3307
   1111  C3'      -16.9660   61.8700   11.4430 C.3    53  C53         0.1860
   1112  O3'      -16.3690   61.7840   12.7320 O.3    53  C53        -0.3112
   1113  C2'      -18.1660   60.9320   11.3260 C.3    53  C53         0.2309
   1114  O2'      -18.1280   59.8790   12.2700 O.3    53  C53        -0.2156
   1115  C1'      -19.3400   61.8540   11.6270 C.3    53  C53         0.2420
   1116  N1       -20.5970   61.4390   10.9330 N.ar   53  C53        -0.2535
   1117  C2       -21.6220   60.8000   11.6530 C.ar   53  C53         0.3532
   1118  O2       -21.4900   60.5800   12.8660 O.2    53  C53        -0.2443
   1119  N3       -22.7510   60.4350   10.9900 N.ar   53  C53        -0.1739
   1120  C4       -22.8720   60.6790    9.6780 C.ar   53  C53         0.1759
   1121  N4       -24.0010   60.3010    9.0710 N.pl3  53  C53        -0.1070
   1122  C5       -21.8420   61.3240    8.9270 C.ar   53  C53         0.0566
   1123  C6       -20.7360   61.6810    9.5900 C.ar   53  C53         0.0850
   1124  OP1      -17.6400   65.0160    6.9050 O.2    53  C53        -0.5172
   1125  OP2      -15.6930   63.3890    7.2600 O.co2  53  C53        -0.4373
   1126  P        -14.7760   61.7650   12.8720 P.3    54  G54         0.2141
   1127  C5'      -14.6930   59.2150   12.2090 C.3    54  G54         0.1812
   1128  O5'      -14.3180   60.5610   11.9220 O.3    54  G54        -0.3114
   1129  C4'      -14.2470   58.2750   11.1030 C.3    54  G54         0.1773
   1130  O4'      -14.6220   58.7890    9.7950 O.3    54  G54        -0.3307
   1131  C3'      -12.7440   58.0710   11.0050 C.3    54  G54         0.1860
   1132  O3'      -12.3040   57.1120   11.9610 O.3    54  G54        -0.3112
   1133  C2'      -12.6350   57.5470    9.5800 C.3    54  G54         0.2309
   1134  O2'      -13.0300   56.1920    9.4760 O.3    54  G54        -0.2156
   1135  C1'      -13.6120   58.4710    8.8510 C.3    54  G54         0.2408
   1136  N1       -10.1070   60.6110    5.7540 N.ar   54  G54        -0.1709
   1137  C2       -10.4190   59.2790    5.9130 C.ar   54  G54         0.2606
   1138  N2        -9.7250   58.4070    5.1680 N.pl3  54  G54        -0.0859
   1139  N3       -11.3540   58.8350    6.7490 N.ar   54  G54        -0.1918
   1140  C4       -11.9730   59.8390    7.4310 C.ar   54  G54         0.1723
   1141  C5       -11.7240   61.1950    7.3400 C.ar   54  G54         0.1748
   1142  C6       -10.7240   61.6570    6.4450 C.ar   54  G54         0.3023
   1143  O6       -10.3720   62.8270    6.2340 O.2    54  G54        -0.2633
   1144  N7       -12.5530   61.9090    8.1950 N.ar   54  G54        -0.2173
   1145  C8       -13.2720   60.9900    8.7770 C.ar   54  G54         0.1817
   1146  N9       -12.9830   59.7070    8.3690 N.ar   54  G54        -0.2693
   1147  OP1      -14.4400   61.4220   14.2740 O.3    54  G54        -0.4373
   1148  OP2      -14.2750   63.0260   12.2780 O.co2  54  G54        -0.5172
   1149  P        -11.0230   57.3840   12.8840 P.3    55  G55         0.2141
   1150  C5'       -9.7970   55.8260   11.1560 C.3    55  G55         0.1812
   1151  O5'       -9.7810   57.0080   11.9530 O.3    55  G55        -0.3114
   1152  C4'       -8.8000   55.9210   10.0170 C.3    55  G55         0.1773
   1153  O4'       -9.2800   56.7970    8.9680 O.3    55  G55        -0.3307
   1154  C3'       -7.4650   56.5310   10.3950 C.3    55  G55         0.1860
   1155  O3'       -6.6680   55.5880   11.0790 O.3    55  G55        -0.3112
   1156  C2'       -6.9210   56.8990    9.0200 C.3    55  G55         0.2309
   1157  O2'       -6.4080   55.8080    8.2810 O.3    55  G55        -0.2156
   1158  C1'       -8.1790   57.4550    8.3630 C.3    55  G55         0.2408
   1159  N1        -6.2540   62.0450    7.1840 N.ar   55  G55        -0.1709
   1160  C2        -5.8330   60.7900    6.7910 C.ar   55  G55         0.2606
   1161  N2        -4.7650   60.7300    5.9830 N.pl3  55  G55        -0.0859
   1162  N3        -6.4200   59.6610    7.1650 N.ar   55  G55        -0.1918
   1163  C4        -7.4840   59.8750    7.9820 C.ar   55  G55         0.1723
   1164  C5        -7.9780   61.0840    8.4320 C.ar   55  G55         0.1748
   1165  C6        -7.3450   62.2880    8.0250 C.ar   55  G55         0.3023
   1166  O6        -7.6510   63.4520    8.3250 O.2    55  G55        -0.2633
   1167  N7        -9.0800   60.8840    9.2510 N.ar   55  G55        -0.2173
   1168  C8        -9.2240   59.5880    9.2820 C.ar   55  G55         0.1817
   1169  N9        -8.2940   58.9060    8.5340 N.ar   55  G55        -0.2693
   1170  OP1      -11.0890   56.4200   14.0010 O.3    55  G55        -0.4373
   1171  OP2      -10.9330   58.8330   13.1650 O.co2  55  G55        -0.5172
   1172  P         -5.6170   56.0790   12.1760 P.3    56  G56         0.2141
   1173  C5'       -3.7360   55.6630   10.3930 C.3    56  G56         0.1812
   1174  O5'       -4.4010   56.5620   11.2680 O.3    56  G56        -0.3114
   1175  C4'       -2.8450   56.4430    9.4490 C.3    56  G56         0.1773
   1176  O4'       -3.6440   57.3150    8.6080 O.3    56  G56        -0.3307
   1177  C3'       -1.8760   57.3910   10.1370 C.3    56  G56         0.1860
   1178  O3'       -0.7330   56.7080   10.6340 O.3    56  G56        -0.3112
   1179  C2'       -1.5670   58.3530    8.9960 C.3    56  G56         0.2309
   1180  O2'       -0.6820   57.8170    8.0330 O.3    56  G56        -0.2156
   1181  C1'       -2.9650   58.5420    8.4130 C.3    56  G56         0.2408
   1182  N1        -3.3040   63.5750    9.2300 N.ar   56  G56        -0.1709
   1183  C2        -2.4110   62.8760    8.4430 C.ar   56  G56         0.2606
   1184  N2        -1.4910   63.5970    7.7910 N.pl3  56  G56        -0.0859
   1185  N3        -2.4190   61.5550    8.3030 N.ar   56  G56        -0.1918
   1186  C4        -3.4090   60.9690    9.0270 C.ar   56  G56         0.1723
   1187  C5        -4.3470   61.5780    9.8390 C.ar   56  G56         0.1748
   1188  C6        -4.3280   62.9890    9.9800 C.ar   56  G56         0.3023
   1189  O6        -5.0850   63.6970   10.6600 O.2    56  G56        -0.2633
   1190  N7        -5.1930   60.6360   10.4070 N.ar   56  G56        -0.2173
   1191  C8        -4.7600   59.5000    9.9410 C.ar   56  G56         0.1817
   1192  N9        -3.6860   59.6200    9.0900 N.ar   56  G56        -0.2693
   1193  OP1       -5.2000   54.8950   12.9590 O.3    56  G56        -0.4373
   1194  OP2       -6.1500   57.2700   12.8720 O.co2  56  G56        -0.5172
   1195  P         -0.0240   57.2040   11.9860 P.3    57  G57         0.2141
   1196  C5'        1.8020   58.4060   10.5290 C.3    57  G57         0.1812
   1197  O5'        0.7530   58.5100   11.4910 O.3    57  G57        -0.3114
   1198  C4'        2.2210   59.7770   10.0350 C.3    57  G57         0.1773
   1199  O4'        1.0740   60.5010    9.5270 O.3    57  G57        -0.3307
   1200  C3'        2.7780   60.7060   11.1000 C.3    57  G57         0.1860
   1201  O3'        4.1310   60.3940   11.3880 O.3    57  G57        -0.3112
   1202  C2'        2.6360   62.0470   10.4000 C.3    57  G57         0.2309
   1203  O2'        3.6160   62.2470    9.3980 O.3    57  G57        -0.2156
   1204  C1'        1.2480   61.8860    9.7810 C.3    57  G57         0.2408
   1205  N1        -1.0150   65.9830   11.8550 N.ar   57  G57        -0.1709
   1206  C2         0.0790   65.9210   11.0180 C.ar   57  G57         0.2606
   1207  N2         0.6480   67.0890   10.6880 N.pl3  57  G57        -0.0859
   1208  N3         0.5800   64.7880   10.5370 N.ar   57  G57        -0.1918
   1209  C4        -0.1060   63.6930   10.9650 C.ar   57  G57         0.1723
   1210  C5        -1.2060   63.6530   11.7990 C.ar   57  G57         0.1748
   1211  C6        -1.7310   64.8710   12.3040 C.ar   57  G57         0.3023
   1212  O6        -2.7020   65.0280   13.0570 O.2    57  G57        -0.2633
   1213  N7        -1.6220   62.3450   12.0030 N.ar   57  G57        -0.2173
   1214  C8        -0.7820   61.6320   11.3040 C.ar   57  G57         0.1817
   1215  N9         0.1680   62.3780   10.6440 N.ar   57  G57        -0.2693
   1216  OP1        0.9620   56.1710   12.3840 O.2    57  G57        -0.5172
   1217  OP2       -1.0570   57.6340   12.9540 O.co2  57  G57        -0.4373
   1218  P          4.7230   60.6650   12.8520 P.3    58  A58         0.2141
   1219  C5'        6.1360   62.6690   11.8630 C.3    58  A58         0.1812
   1220  O5'        5.1380   62.2110   12.7790 O.3    58  A58        -0.3114
   1221  C4'        6.2920   64.1800   11.9210 C.3    58  A58         0.1773
   1222  O4'        5.0920   64.8250   11.4170 O.3    58  A58        -0.3307
   1223  C3'        6.4870   64.7680   13.3130 C.3    58  A58         0.1860
   1224  O3'        7.8580   64.7040   13.7050 O.3    58  A58        -0.3112
   1225  C2'        5.9850   66.1980   13.1220 C.3    58  A58         0.2309
   1226  O2'        6.9460   67.0560   12.5310 O.3    58  A58        -0.2156
   1227  C1'        4.7950   65.9790   12.1860 C.3    58  A58         0.2408
   1228  N1         0.8800   68.1820   14.7720 N.ar   58  A58        -0.2040
   1229  C2         1.9850   68.7040   14.2130 C.ar   58  A58         0.2016
   1230  N3         2.9630   68.0750   13.5530 N.ar   58  A58        -0.2048
   1231  C4         2.7340   66.7480   13.4870 C.ar   58  A58         0.1692
   1232  C5         1.6450   66.0710   14.0160 C.ar   58  A58         0.1518
   1233  C6         0.6750   66.8470   14.6900 C.ar   58  A58         0.1919
   1234  N6        -0.4220   66.3240   15.2460 N.pl3  58  A58        -0.1054
   1235  N7         1.7380   64.7160   13.7600 N.ar   58  A58        -0.2193
   1236  C8         2.8620   64.6000   13.0950 C.ar   58  A58         0.1816
   1237  N9         3.5200   65.7840   12.8890 N.ar   58  A58        -0.2693
   1238  OP1        5.9320   59.8230   13.0060 O.2    58  A58        -0.5172
   1239  OP2        3.6260   60.5570   13.8420 O.co2  58  A58        -0.4373
   1240  P          8.2510   64.3270   15.2150 P.3    59  C59         0.2141
   1241  C5'        8.6280   66.8890   15.7380 C.3    59  C59         0.1812
   1242  O5'        7.9110   65.6820   16.0030 O.3    59  C59        -0.3114
   1243  C4'        7.9030   68.1010   16.2990 C.3    59  C59         0.1773
   1244  O4'        6.5860   68.2130   15.6960 O.3    59  C59        -0.3307
   1245  C3'        7.6170   68.0600   17.7950 C.3    59  C59         0.1860
   1246  O3'        8.7350   68.4930   18.5590 O.3    59  C59        -0.3112
   1247  C2'        6.4380   69.0210   17.9190 C.3    59  C59         0.2309
   1248  O2'        6.8270   70.3790   17.9490 O.3    59  C59        -0.2156
   1249  C1'        5.6530   68.7080   16.6470 C.3    59  C59         0.2420
   1250  N1         4.5380   67.7140   16.8830 N.ar   59  C59        -0.2535
   1251  C2         3.3060   68.1520   17.4100 C.ar   59  C59         0.3532
   1252  O2         3.1250   69.3490   17.6750 O.2    59  C59        -0.2443
   1253  N3         2.3220   67.2370   17.6160 N.ar   59  C59        -0.1739
   1254  C4         2.5260   65.9470   17.3280 C.ar   59  C59         0.1759
   1255  N4         1.5220   65.0960   17.5520 N.pl3  59  C59        -0.1070
   1256  C5         3.7650   65.4760   16.7960 C.ar   59  C59         0.0566
   1257  C6         4.7270   66.3850   16.5950 C.ar   59  C59         0.0850
   1258  OP1        9.7110   64.0810   15.2600 O.2    59  C59        -0.5172
   1259  OP2        7.3350   63.2650   15.6940 O.co2  59  C59        -0.4373
   1260  P          9.0210   67.8400   19.9960 P.3    60  G60         0.2141
   1261  C5'        7.3570   68.1280   22.0430 C.3    60  G60         0.1812
   1262  O5'        7.5680   67.7680   20.6780 O.3    60  G60        -0.3114
   1263  C4'        6.8690   69.5620   22.1910 C.3    60  G60         0.1773
   1264  O4'        5.9280   69.9020   21.1350 O.3    60  G60        -0.3307
   1265  C3'        6.1210   69.8300   23.4930 C.3    60  G60         0.1860
   1266  O3'        7.0170   70.2760   24.5070 O.3    60  G60        -0.3112
   1267  C2'        5.1070   70.8970   23.0880 C.3    60  G60         0.2309
   1268  O2'        5.6610   72.1970   23.0390 O.3    60  G60        -0.2156
   1269  C1'        4.7260   70.4190   21.6860 C.3    60  G60         0.2408
   1270  N1         0.0920   68.7900   23.2730 N.ar   60  G60        -0.1709
   1271  C2         0.7550   69.9530   23.6010 C.ar   60  G60         0.2606
   1272  N2         0.1250   70.7840   24.4440 N.pl3  60  G60        -0.0859
   1273  N3         1.9560   70.2780   23.1300 N.ar   60  G60        -0.1918
   1274  C4         2.4640   69.3370   22.2870 C.ar   60  G60         0.1723
   1275  C5         1.8740   68.1470   21.9030 C.ar   60  G60         0.1748
   1276  C6         0.5910   67.8110   22.4110 C.ar   60  G60         0.3023
   1277  O6        -0.0830   66.7970   22.1780 O.2    60  G60        -0.2633
   1278  N7         2.6950   67.4480   21.0310 N.ar   60  G60        -0.2173
   1279  C8         3.7450   68.2100   20.9040 C.ar   60  G60         0.1817
   1280  N9         3.6870   69.3770   21.6350 N.ar   60  G60        -0.2693
   1281  OP1        9.8770   68.7910   20.7460 O.3    60  G60        -0.4373
   1282  OP2        9.4880   66.4520   19.7690 O.co2  60  G60        -0.5172
   1283  P          7.2460   69.3890   25.8220 P.3    61  G61         0.2141
   1284  C5'        5.5660   70.8150   27.2630 C.3    61  G61         0.1812
   1285  O5'        5.8720   69.5760   26.6240 O.3    61  G61        -0.3114
   1286  C4'        4.2330   70.7630   27.9910 C.3    61  G61         0.1773
   1287  O4'        3.1430   70.6990   27.0340 O.3    61  G61        -0.3307
   1288  C3'        4.0270   69.5590   28.9010 C.3    61  G61         0.1860
   1289  O3'        4.5850   69.8130   30.1820 O.3    61  G61        -0.3112
   1290  C2'        2.5050   69.4470   28.9370 C.3    61  G61         0.2309
   1291  O2'        1.8950   70.3530   29.8380 O.3    61  G61        -0.2156
   1292  C1'        2.1460   69.8030   27.4950 C.3    61  G61         0.2408
   1293  N1        -0.4780   65.6450   26.0660 N.ar   61  G61        -0.1709
   1294  C2        -0.7830   66.5730   27.0410 C.ar   61  G61         0.2606
   1295  N2        -1.9250   66.3770   27.7180 N.pl3  61  G61        -0.0859
   1296  N3        -0.0180   67.6240   27.3250 N.ar   61  G61        -0.1918
   1297  C4         1.0980   67.6780   26.5490 C.ar   61  G61         0.1723
   1298  C5         1.4860   66.8000   25.5560 C.ar   61  G61         0.1748
   1299  C6         0.6630   65.6840   25.2590 C.ar   61  G61         0.3023
   1300  O6         0.8500   64.8010   24.4090 O.2    61  G61        -0.2633
   1301  N7         2.6900   67.1950   24.9900 N.ar   61  G61        -0.2173
   1302  C8         3.0020   68.2820   25.6390 C.ar   61  G61         0.1817
   1303  N9         2.0850   68.6420   26.6010 N.ar   61  G61        -0.2693
   1304  OP1        8.3480   70.0080   26.5930 O.3    61  G61        -0.4373
   1305  OP2        7.3480   67.9670   25.4170 O.co2  61  G61        -0.5172
   1306  P          5.2400   68.6280   31.0360 P.3    62  C62         0.2141
   1307  C5'        3.2080   68.3110   32.6700 C.3    62  C62         0.1812
   1308  O5'        3.9590   67.8220   31.5580 O.3    62  C62        -0.3114
   1309  C4'        1.9110   67.5450   32.8450 C.3    62  C62         0.1773
   1310  O4'        1.1770   67.5370   31.5910 O.3    62  C62        -0.3307
   1311  C3'        2.0480   66.0650   33.1810 C.3    62  C62         0.1860
   1312  O3'        2.3490   65.8370   34.5560 O.3    62  C62        -0.3112
   1313  C2'        0.6540   65.5810   32.7950 C.3    62  C62         0.2309
   1314  O2'       -0.3450   65.9630   33.7230 O.3    62  C62        -0.2156
   1315  C1'        0.4630   66.3170   31.4680 C.3    62  C62         0.2420
   1316  N1         0.9390   65.5230   30.2680 N.ar   62  C62        -0.2535
   1317  C2         0.1270   64.5020   29.7330 C.ar   62  C62         0.3532
   1318  O2        -0.9780   64.2590   30.2370 O.2    62  C62        -0.2443
   1319  N3         0.5770   63.7960   28.6590 N.ar   62  C62        -0.1739
   1320  C4         1.7710   64.0650   28.1200 C.ar   62  C62         0.1759
   1321  N4         2.1640   63.3410   27.0660 N.pl3  62  C62        -0.1070
   1322  C5         2.6140   65.0930   28.6460 C.ar   62  C62         0.0566
   1323  C6         2.1620   65.7830   29.7030 C.ar   62  C62         0.0850
   1324  OP1        5.9330   69.2450   32.1900 O.3    62  C62        -0.4373
   1325  OP2        6.0030   67.7440   30.1270 O.co2  62  C62        -0.5172
   1326  P          3.5000   64.7970   34.9820 P.3    63  U63         0.2141
   1327  C5'        1.8100   62.7930   35.1630 C.3    63  U63         0.1812
   1328  O5'        2.9490   63.3640   34.5280 O.3    63  U63        -0.3114
   1329  C4'        1.1430   61.7460   34.2870 C.3    63  U63         0.1773
   1330  O4'        1.0630   62.1590   32.8960 O.3    63  U63        -0.3307
   1331  C3'        1.8740   60.4200   34.1730 C.3    63  U63         0.1860
   1332  O3'        1.7940   59.6670   35.3820 O.3    63  U63        -0.3112
   1333  C2'        1.1000   59.7930   33.0180 C.3    63  U63         0.2309
   1334  O2'       -0.1750   59.3030   33.3920 O.3    63  U63        -0.2156
   1335  C1'        0.9500   60.9950   32.0850 C.3    63  U63         0.2420
   1336  N1         1.9470   61.0200   30.9440 N.ar   63  U63        -0.2534
   1337  C2         1.8090   60.1260   29.8880 C.ar   63  U63         0.3546
   1338  O2         0.9210   59.2950   29.8090 O.2    63  U63        -0.2443
   1339  N3         2.7630   60.2330   28.9020 N.ar   63  U63        -0.1530
   1340  C4         3.8230   61.1230   28.8540 C.ar   63  U63         0.2846
   1341  O4         4.5950   61.0950   27.8990 O.2    63  U63        -0.2650
   1342  C5         3.9090   62.0190   29.9820 C.ar   63  U63         0.0814
   1343  C6         2.9900   61.9360   30.9580 C.ar   63  U63         0.0870
   1344  OP1        3.5860   64.8310   36.4590 O.3    63  U63        -0.4373
   1345  OP2        4.7060   65.0690   34.1680 O.co2  63  U63        -0.5172
   1346  P          3.0680   58.8250   35.8670 P.3    64  G64         0.2141
   1347  C5'        2.2020   56.7030   34.5750 C.3    64  G64         0.1812
   1348  O5'        3.2040   57.7040   34.7370 O.3    64  G64        -0.3114
   1349  C4'        2.4280   55.9100   33.2990 C.3    64  G64         0.1773
   1350  O4'        2.2870   56.7680   32.1320 O.3    64  G64        -0.3307
   1351  C3'        3.8230   55.3190   33.1320 C.3    64  G64         0.1860
   1352  O3'        4.0400   54.1460   33.9040 O.3    64  G64        -0.3112
   1353  C2'        3.8320   55.0640   31.6330 C.3    64  G64         0.2309
   1354  O2'        3.0250   53.9600   31.2830 O.3    64  G64        -0.2156
   1355  C1'        3.2200   56.3730   31.1350 C.3    64  G64         0.2408
   1356  N1         6.6000   58.5500   27.9440 N.ar   64  G64        -0.1709
   1357  C2         5.7580   57.4830   27.7150 C.ar   64  G64         0.2606
   1358  N2         5.8170   56.9270   26.4950 N.pl3  64  G64        -0.0859
   1359  N3         4.9140   57.0000   28.6250 N.ar   64  G64        -0.1918
   1360  C4         4.9730   57.6720   29.8050 C.ar   64  G64         0.1723
   1361  C5         5.7820   58.7410   30.1230 C.ar   64  G64         0.1748
   1362  C6         6.6770   59.2480   29.1510 C.ar   64  G64         0.3023
   1363  O6         7.4660   60.1940   29.2700 O.2    64  G64        -0.2633
   1364  N7         5.5620   59.1600   31.4250 N.ar   64  G64        -0.2173
   1365  C8         4.6420   58.3510   31.8630 C.ar   64  G64         0.1817
   1366  N9         4.2270   57.4210   30.9380 N.ar   64  G64        -0.2693
   1367  OP1        2.7190   58.1820   37.1510 O.3    64  G64        -0.4373
   1368  OP2        4.2700   59.6860   35.7860 O.co2  64  G64        -0.5172
   1369  P          5.5370   53.8410   34.4030 P.3    65  A65         0.2141
   1370  C5'        6.2790   51.6610   33.1130 C.3    65  A65         0.1812
   1371  O5'        6.1380   53.0740   33.1280 O.3    65  A65        -0.3114
   1372  C4'        4.9910   50.9380   32.7620 C.3    65  A65         0.1773
   1373  O4'        4.3580   51.5360   31.6010 O.3    65  A65        -0.3307
   1374  C3'        5.2180   49.4890   32.3560 C.3    65  A65         0.1860
   1375  O3'        5.2830   48.6360   33.4820 O.3    65  A65        -0.3112
   1376  C2'        3.9990   49.1940   31.4970 C.3    65  A65         0.2309
   1377  O2'        2.8490   48.9290   32.2730 O.3    65  A65        -0.2156
   1378  C1'        3.8720   50.5140   30.7370 C.3    65  A65         0.2408
   1379  N1         4.3230   48.4800   25.9810 N.ar   65  A65        -0.2040
   1380  C2         3.4960   48.2000   26.9970 C.ar   65  A65         0.2016
   1381  N3         3.4360   48.7640   28.2060 N.ar   65  A65        -0.2048
   1382  C4         4.3620   49.7320   28.3420 C.ar   65  A65         0.1692
   1383  C5         5.2780   50.1310   27.3840 C.ar   65  A65         0.1518
   1384  C6         5.2390   49.4580   26.1420 C.ar   65  A65         0.1919
   1385  N6         6.0590   49.7320   25.1250 N.pl3  65  A65        -0.1054
   1386  N7         6.0710   51.1540   27.8640 N.ar   65  A65        -0.2193
   1387  C8         5.6260   51.3540   29.0820 C.ar   65  A65         0.1816
   1388  N9         4.5890   50.5340   29.4460 N.ar   65  A65        -0.2693
   1389  OP1        5.4780   52.9270   35.5710 O.3    65  A65        -0.4373
   1390  OP2        6.2580   55.1300   34.5330 O.co2  65  A65        -0.5172
   1391  P          6.4090   47.5010   33.5250 P.3    66  A66         0.2141
   1392  C5'        4.7040   45.7250   32.6310 C.3    66  A66         0.1812
   1393  O5'        5.9040   46.4590   32.4210 O.3    66  A66        -0.3114
   1394  C4'        4.3060   44.9980   31.3650 C.3    66  A66         0.1773
   1395  O4'        4.1420   45.9380   30.2740 O.3    66  A66        -0.3307
   1396  C3'        5.3480   44.0360   30.8360 C.3    66  A66         0.1860
   1397  O3'        5.2690   42.8190   31.5460 O.3    66  A66        -0.3112
   1398  C2'        4.9030   43.9160   29.3820 C.3    66  A66         0.2309
   1399  O2'        3.7300   43.1430   29.2320 O.3    66  A66        -0.2156
   1400  C1'        4.5950   45.3690   29.0600 C.3    66  A66         0.2408
   1401  N1         7.5940   46.6460   25.0170 N.ar   66  A66        -0.2040
   1402  C2         6.5690   45.7890   25.1280 C.ar   66  A66         0.2016
   1403  N3         5.8310   45.4980   26.2060 N.ar   66  A66        -0.2048
   1404  C4         6.2380   46.1980   27.2810 C.ar   66  A66         0.1692
   1405  C5         7.2770   47.1160   27.3150 C.ar   66  A66         0.1518
   1406  C6         7.9800   47.3390   26.1100 C.ar   66  A66         0.1919
   1407  N6         8.9980   48.2000   25.9980 N.pl3  66  A66        -0.1054
   1408  N7         7.4060   47.6540   28.5820 N.ar   66  A66        -0.2193
   1409  C8         6.4660   47.0620   29.2780 C.ar   66  A66         0.1816
   1410  N9         5.7190   46.1670   28.5610 N.ar   66  A66        -0.2693
   1411  OP1        6.3300   46.8600   34.8570 O.3    66  A66        -0.4373
   1412  OP2        7.6930   48.0840   33.0660 O.co2  66  A66        -0.5172
   1413  P          6.5430   41.8580   31.6390 P.3    67  A67         0.2141
   1414  C5'        5.5190   40.3660   29.7400 C.3    67  A67         0.1812
   1415  O5'        6.5900   41.1960   30.1840 O.3    67  A67        -0.3114
   1416  C4'        5.6910   40.0040   28.2770 C.3    67  A67         0.1773
   1417  O4'        5.6380   41.1970   27.4500 O.3    67  A67        -0.3307
   1418  C3'        7.0360   39.3930   27.9310 C.3    67  A67         0.1860
   1419  O3'        7.0670   38.0210   28.2740 O.3    67  A67        -0.3112
   1420  C2'        7.0500   39.6390   26.4290 C.3    67  A67         0.2309
   1421  O2'        6.1580   38.7790   25.7510 O.3    67  A67        -0.2156
   1422  C1'        6.5380   41.0720   26.3570 C.3    67  A67         0.2408
   1423  N1         9.9900   44.0010   23.8070 N.ar   67  A67        -0.2040
   1424  C2         9.1230   43.0690   23.3770 C.ar   67  A67         0.2016
   1425  N3         8.2520   42.3430   24.0900 N.ar   67  A67        -0.2048
   1426  C4         8.3170   42.6460   25.4020 C.ar   67  A67         0.1692
   1427  C5         9.1620   43.5770   25.9850 C.ar   67  A67         0.1518
   1428  C6        10.0350   44.2810   25.1320 C.ar   67  A67         0.1919
   1429  N6        10.8980   45.2030   25.5730 N.pl3  67  A67        -0.1054
   1430  N7         8.9680   43.6290   27.3460 N.ar   67  A67        -0.2193
   1431  C8         8.0270   42.7420   27.5600 C.ar   67  A67         0.1816
   1432  N9         7.5810   42.1050   26.4350 N.ar   67  A67        -0.2693
   1433  OP1        6.2480   40.8150   32.6520 O.3    67  A67        -0.4373
   1434  OP2        7.7610   42.6910   31.7740 O.co2  67  A67        -0.5172
   1435  P          8.4480   37.3200   28.7100 P.3    68  G68         0.2141
   1436  C5'        8.8940   36.3890   26.3050 C.3    68  G68         0.1812
   1437  O5'        9.2510   37.3130   27.3320 O.3    68  G68        -0.3114
   1438  C4'        9.5060   36.8470   25.0020 C.3    68  G68         0.1773
   1439  O4'        9.2530   38.2660   24.8530 O.3    68  G68        -0.3307
   1440  C3'       11.0190   36.7840   24.9520 C.3    68  G68         0.1860
   1441  O3'       11.4920   35.4590   24.7570 O.3    68  G68        -0.3112
   1442  C2'       11.2670   37.7220   23.7750 C.3    68  G68         0.2309
   1443  O2'       10.9420   37.1440   22.5300 O.3    68  G68        -0.2156
   1444  C1'       10.2920   38.8580   24.0970 C.3    68  G68         0.2408
   1445  N1        13.4190   42.8980   24.0670 N.ar   68  G68        -0.1709
   1446  C2        12.9730   42.1390   23.0050 C.ar   68  G68         0.2606
   1447  N2        13.4170   42.4920   21.7890 N.pl3  68  G68        -0.0859
   1448  N3        12.1480   41.1040   23.1300 N.ar   68  G68        -0.1918
   1449  C4        11.7960   40.8830   24.4250 C.ar   68  G68         0.1723
   1450  C5        12.1920   41.5800   25.5470 C.ar   68  G68         0.1748
   1451  C6        13.0720   42.6800   25.4010 C.ar   68  G68         0.3023
   1452  O6        13.5280   43.4200   26.2830 O.2    68  G68        -0.2633
   1453  N7        11.6120   41.0440   26.6870 N.ar   68  G68        -0.2173
   1454  C8        10.8970   40.0480   26.2460 C.ar   68  G68         0.1817
   1455  N9        10.9510   39.8940   24.8860 N.ar   68  G68        -0.2693
   1456  OP1        8.1810   35.9020   29.0580 O.2    68  G68        -0.5172
   1457  OP2        9.1440   38.2060   29.6760 O.co2  68  G68        -0.4373
   1458  P         12.5570   34.8300   25.7830 P.3    69  G69         0.2141
   1459  C5'       14.5250   35.4970   24.1210 C.3    69  G69         0.1812
   1460  O5'       13.9170   35.5880   25.4030 O.3    69  G69        -0.3114
   1461  C4'       15.6690   36.4920   23.9870 C.3    69  G69         0.1773
   1462  O4'       15.1230   37.8360   23.8270 O.3    69  G69        -0.3307
   1463  C3'       16.6210   36.6370   25.1760 C.3    69  G69         0.1860
   1464  O3'       17.6240   35.6300   25.2410 O.3    69  G69        -0.3112
   1465  C2'       17.2070   38.0110   24.8690 C.3    69  G69         0.2309
   1466  O2'       18.1130   37.9870   23.7860 O.3    69  G69        -0.2156
   1467  C1'       15.9200   38.7720   24.5360 C.3    69  G69         0.2408
   1468  N1        16.0020   41.8890   28.5930 N.ar   69  G69        -0.1709
   1469  C2        16.8590   41.8340   27.5150 C.ar   69  G69         0.2606
   1470  N2        17.8700   42.7130   27.5080 N.pl3  69  G69        -0.0859
   1471  N3        16.7350   40.9770   26.5090 N.ar   69  G69        -0.1918
   1472  C4        15.6640   40.1570   26.6590 C.ar   69  G69         0.1723
   1473  C5        14.7570   40.1310   27.6970 C.ar   69  G69         0.1748
   1474  C6        14.9010   41.0500   28.7700 C.ar   69  G69         0.3023
   1475  O6        14.1820   41.1740   29.7740 O.2    69  G69        -0.2633
   1476  N7        13.8050   39.1470   27.4840 N.ar   69  G69        -0.2173
   1477  C8        14.1420   38.6070   26.3480 C.ar   69  G69         0.1817
   1478  N9        15.2590   39.1710   25.7810 N.ar   69  G69        -0.2693
   1479  OP1       12.6910   33.3890   25.4960 O.2    69  G69        -0.5172
   1480  OP2       12.2100   35.2670   27.1570 O.co2  69  G69        -0.4373
   1481  P         18.2230   35.1750   26.6590 P.3    70  C70         0.2141
   1482  C5'       20.3240   36.8190   26.7380 C.3    70  C70         0.1812
   1483  O5'       19.0110   36.4750   27.1770 O.3    70  C70        -0.3114
   1484  C4'       20.8670   38.0140   27.5060 C.3    70  C70         0.1773
   1485  O4'       19.8380   39.0140   27.7220 O.3    70  C70        -0.3307
   1486  C3'       21.3580   37.7120   28.9110 C.3    70  C70         0.1860
   1487  O3'       22.6920   37.2480   28.8540 O.3    70  C70        -0.3112
   1488  C2'       21.2950   39.0800   29.5770 C.3    70  C70         0.2309
   1489  O2'       22.3630   39.9190   29.1990 O.3    70  C70        -0.2156
   1490  C1'       20.0140   39.6400   28.9860 C.3    70  C70         0.2420
   1491  N1        18.8010   39.4450   29.8480 N.ar   70  C70        -0.2535
   1492  C2        18.6720   40.1370   31.0760 C.ar   70  C70         0.3532
   1493  O2        19.5680   40.9030   31.4680 O.2    70  C70        -0.2443
   1494  N3        17.5500   39.9400   31.8230 N.ar   70  C70        -0.1739
   1495  C4        16.5980   39.1110   31.3850 C.ar   70  C70         0.1759
   1496  N4        15.5190   38.9470   32.1450 N.pl3  70  C70        -0.1070
   1497  C5        16.7060   38.4070   30.1500 C.ar   70  C70         0.0566
   1498  C6        17.8100   38.6040   29.4220 C.ar   70  C70         0.0850
   1499  OP1       19.1730   34.0600   26.4250 O.2    70  C70        -0.5172
   1500  OP2       17.0890   34.9830   27.5890 O.co2  70  C70        -0.4373
   1501  P         23.1600   36.0460   29.7950 P.3    71  G71         0.2141
   1502  C5'       23.8180   37.5750   31.8650 C.3    71  G71         0.1812
   1503  O5'       22.9300   36.6330   31.2710 O.3    71  G71        -0.3114
   1504  C4'       23.2150   38.0680   33.1650 C.3    71  G71         0.1773
   1505  O4'       21.8470   38.4850   32.9370 O.3    71  G71        -0.3307
   1506  C3'       23.1040   37.0180   34.2560 C.3    71  G71         0.1860
   1507  O3'       24.3000   37.0100   35.0140 O.3    71  G71        -0.3112
   1508  C2'       21.9400   37.5340   35.0930 C.3    71  G71         0.2309
   1509  O2'       22.3620   38.5460   35.9900 O.3    71  G71        -0.2156
   1510  C1'       21.0320   38.1750   34.0520 C.3    71  G71         0.2408
   1511  N1        16.1270   36.8820   34.9300 N.ar   71  G71        -0.1709
   1512  C2        16.9700   37.6340   35.7050 C.ar   71  G71         0.2606
   1513  N2        16.4410   38.1060   36.8430 N.pl3  71  G71        -0.0859
   1514  N3        18.2350   37.9060   35.3780 N.ar   71  G71        -0.1918
   1515  C4        18.6090   37.3510   34.1940 C.ar   71  G71         0.1723
   1516  C5        17.8330   36.5840   33.3570 C.ar   71  G71         0.1748
   1517  C6        16.4900   36.3100   33.7180 C.ar   71  G71         0.3023
   1518  O6        15.6570   35.6370   33.1000 O.2    71  G71        -0.2633
   1519  N7        18.5520   36.1880   32.2450 N.ar   71  G71        -0.2173
   1520  C8        19.7280   36.7190   32.4220 C.ar   71  G71         0.1817
   1521  N9        19.8480   37.4350   33.5880 N.ar   71  G71        -0.2693
   1522  OP1       24.6130   35.8720   29.5230 O.2    71  G71        -0.5172
   1523  OP2       22.2090   34.9140   29.6450 O.co2  71  G71        -0.4373
   1524  P         25.4120   35.8760   34.8010 P.3    72  A72         0.2141
   1525  C5'       27.2570   36.4810   36.5850 C.3    72  A72         0.1812
   1526  O5'       26.0420   35.8070   36.2740 O.3    72  A72        -0.3114
   1527  C4'       27.4530   36.5170   38.0870 C.3    72  A72         0.1773
   1528  O4'       26.3590   37.2560   38.6830 O.3    72  A72        -0.3307
   1529  C3'       27.4470   35.1490   38.7440 C.3    72  A72         0.1860
   1530  O3'       28.7870   34.6840   38.9150 O.3    72  A72        -0.3112
   1531  C2'       26.7210   35.3750   40.0760 C.3    72  A72         0.2309
   1532  O2'       27.5800   35.7270   41.1440 O.3    72  A72        -0.2156
   1533  C1'       25.8050   36.5560   39.7820 C.3    72  A72         0.2408
   1534  N1        20.8350   37.2660   40.9860 N.ar   72  A72        -0.2040
   1535  C2        21.9590   37.7350   41.5440 C.ar   72  A72         0.2016
   1536  N3        23.2200   37.5040   41.1790 N.ar   72  A72        -0.2048
   1537  C4        23.2890   36.6880   40.1120 C.ar   72  A72         0.1692
   1538  C5        22.2220   36.1290   39.4380 C.ar   72  A72         0.1518
   1539  C6        20.9400   36.4420   39.9160 C.ar   72  A72         0.1919
   1540  N6        19.8400   35.9510   39.3460 N.pl3  72  A72        -0.1054
   1541  N7        22.6430   35.3440   38.3870 N.ar   72  A72        -0.2193
   1542  C8        23.9510   35.4410   38.4450 C.ar   72  A72         0.1816
   1543  N9        24.4130   36.2310   39.4640 N.ar   72  A72        -0.2693
   1544  OP1       26.4190   36.4170   33.8510 O.2    72  A72        -0.5172
   1545  OP2       24.7520   34.5720   34.5200 O.co2  72  A72        -0.4373
   1546  P         29.5430   33.7520   37.8460 P.3    73  G73         0.2141
   1547  C5'       29.1510   31.2590   38.5950 C.3    73  G73         0.1812
   1548  O5'       29.9110   32.4550   38.7110 O.3    73  G73        -0.3114
   1549  C4'       28.1310   31.1360   39.7140 C.3    73  G73         0.1773
   1550  O4'       27.0820   32.1330   39.5570 O.3    73  G73        -0.3307
   1551  C3'       27.3880   29.8110   39.7430 C.3    73  G73         0.1860
   1552  O3'       28.1040   28.8960   40.5310 O.3    73  G73        -0.3112
   1553  C2'       26.0700   30.2000   40.4010 C.3    73  G73         0.2309
   1554  O2'       26.2160   30.3470   41.7940 O.3    73  G73        -0.2156
   1555  C1'       25.8030   31.5640   39.7820 C.3    73  G73         0.2408
   1556  N1        21.2670   30.8160   37.4520 N.ar   73  G73        -0.1709
   1557  C2        21.5740   30.7600   38.7900 C.ar   73  G73         0.2606
   1558  N2        20.5610   30.4720   39.6140 N.pl3  73  G73        -0.0859
   1559  N3        22.7890   30.9720   39.2920 N.ar   73  G73        -0.1918
   1560  C4        23.7090   31.2530   38.3360 C.ar   73  G73         0.1723
   1561  C5        23.4990   31.3340   36.9770 C.ar   73  G73         0.1748
   1562  C6        22.1970   31.1070   36.4530 C.ar   73  G73         0.3023
   1563  O6        21.8370   31.1410   35.2670 O.2    73  G73        -0.2633
   1564  N7        24.6790   31.6490   36.3160 N.ar   73  G73        -0.2173
   1565  C8        25.5610   31.7480   37.2690 C.ar   73  G73         0.1817
   1566  N9        25.0520   31.5230   38.5240 N.ar   73  G73        -0.2693
   1567  OP1       30.7870   34.4820   37.5000 O.3    73  G73        -0.4373
   1568  OP2       28.6290   33.3250   36.7600 O.co2  73  G73        -0.5172
   1569  P         28.1030   27.3410   40.1620 P.3    74  G74         0.2141
   1570  C5'       26.2080   26.6460   41.8280 C.3    74  G74         0.1812
   1571  O5'       26.6250   26.8460   40.4970 O.3    74  G74        -0.3114
   1572  C4'       24.7000   26.4890   41.8930 C.3    74  G74         0.1773
   1573  O4'       24.0520   27.5820   41.1910 O.3    74  G74        -0.3307
   1574  C3'       24.1190   25.2450   41.2330 C.3    74  G74         0.1860
   1575  O3'       24.3320   24.0680   42.0360 O.3    74  G74        -0.3112
   1576  C2'       22.6590   25.6870   41.1430 C.3    74  G74         0.2309
   1577  O2'       21.9930   25.6740   42.3830 O.3    74  G74        -0.2156
   1578  C1'       22.8110   27.1360   40.6840 C.3    74  G74         0.2408
   1579  N1        19.9730   27.0430   36.4650 N.ar   74  G74        -0.1709
   1580  C2        19.5940   26.8850   37.7820 C.ar   74  G74         0.2606
   1581  N2        18.2960   26.6730   38.0290 N.pl3  74  G74        -0.0859
   1582  N3        20.4340   26.9330   38.8010 N.ar   74  G74        -0.1918
   1583  C4        21.7080   27.1550   38.4010 C.ar   74  G74         0.1723
   1584  C5        22.1850   27.3230   37.1210 C.ar   74  G74         0.1748
   1585  C6        21.2810   27.2700   36.0320 C.ar   74  G74         0.3023
   1586  O6        21.5290   27.3970   34.8230 O.2    74  G74        -0.2633
   1587  N7        23.5560   27.5240   37.1360 N.ar   74  G74        -0.2173
   1588  C8        23.8740   27.4740   38.3990 C.ar   74  G74         0.1817
   1589  N9        22.8030   27.2580   39.2280 N.ar   74  G74        -0.2693
   1590  OP1       29.0750   26.7160   41.0810 O.3    74  G74        -0.4373
   1591  OP2       28.2510   27.1750   38.7010 O.co2  74  G74        -0.5172
   1592  P         24.3890   22.5890   41.3910 P.3    75  G75         0.2141
   1593  C5'       21.8740   22.1250   42.0940 C.3    75  G75         0.1812
   1594  O5'       22.8440   22.2940   41.0510 O.3    75  G75        -0.3114
   1595  C4'       20.4480   22.0890   41.5620 C.3    75  G75         0.1773
   1596  O4'       20.1580   23.3120   40.8320 O.3    75  G75        -0.3307
   1597  C3'       20.1380   20.9920   40.5510 C.3    75  G75         0.1860
   1598  O3'       19.8900   19.7290   41.1650 O.3    75  G75        -0.3112
   1599  C2'       18.9120   21.5690   39.8390 C.3    75  G75         0.2309
   1600  O2'       17.7010   21.4550   40.5600 O.3    75  G75        -0.2156
   1601  C1'       19.3240   23.0330   39.7130 C.3    75  G75         0.2408
   1602  N1        19.0700   23.5520   34.6100 N.ar   75  G75        -0.1709
   1603  C2        18.0730   23.2230   35.5010 C.ar   75  G75         0.2606
   1604  N2        16.8600   23.0080   34.9700 N.pl3  75  G75        -0.0859
   1605  N3        18.2510   23.1170   36.8170 N.ar   75  G75        -0.1918
   1606  C4        19.5320   23.3680   37.1850 C.ar   75  G75         0.1723
   1607  C5        20.5950   23.6990   36.3720 C.ar   75  G75         0.1748
   1608  C6        20.3920   23.8130   34.9720 C.ar   75  G75         0.3023
   1609  O6        21.2290   24.1000   34.1020 O.2    75  G75        -0.2633
   1610  N7        21.7540   23.8750   37.1140 N.ar   75  G75        -0.2173
   1611  C8        21.3750   23.6500   38.3390 C.ar   75  G75         0.1817
   1612  N9        20.0400   23.3380   38.4650 N.ar   75  G75        -0.2693
   1613  OP1       24.8240   21.6550   42.4520 O.3    75  G75        -0.4373
   1614  OP2       25.1420   22.6450   40.1120 O.co2  75  G75        -0.5172
   1615  P         20.4690   18.3950   40.4720 P.3    76  C76         0.2141
   1616  C5'       18.1000   18.0390   39.3470 C.3    76  C76         0.1812
   1617  O5'       19.5130   18.2170   39.2040 O.3    76  C76        -0.3114
   1618  C4'       17.4190   18.0520   37.9860 C.3    76  C76         0.1773
   1619  O4'       17.5370   19.3680   37.3760 O.3    76  C76        -0.3307
   1620  C3'       18.0150   17.1390   36.9200 C.3    76  C76         0.1860
   1621  O3'       17.6330   15.7800   37.1010 O.3    76  C76        -0.3112
   1622  C2'       17.4090   17.7650   35.6720 C.3    76  C76         0.2309
   1623  O2'       16.0300   17.4970   35.5500 O.3    76  C76        -0.2156
   1624  C1'       17.6280   19.2400   35.9680 C.3    76  C76         0.2420
   1625  N1        18.9560   19.7520   35.4730 N.ar   76  C76        -0.2535
   1626  C2        19.0940   20.1540   34.1270 C.ar   76  C76         0.3532
   1627  O2        18.1210   20.0860   33.3570 O.2    76  C76        -0.2443
   1628  N3        20.3000   20.6130   33.6950 N.ar   76  C76        -0.1739
   1629  C4        21.3340   20.6750   34.5400 C.ar   76  C76         0.1759
   1630  N4        22.4980   21.1310   34.0750 N.pl3  76  C76        -0.1070
   1631  C5        21.2180   20.2740   35.9040 C.ar   76  C76         0.0566
   1632  C6        20.0300   19.8250   36.3190 C.ar   76  C76         0.0850
   1633  OP1       20.2370   17.2570   41.3910 O.3    76  C76        -0.4373
   1634  OP2       21.8440   18.6860   39.9880 O.co2  76  C76        -0.5172
   1635  P         18.5710   14.5850   36.5790 P.3    77  G77         0.2141
   1636  C5'       17.2610   14.3960   34.3170 C.3    77  G77         0.1812
   1637  O5'       18.4740   14.6990   34.9910 O.3    77  G77        -0.3114
   1638  C4'       17.3640   14.8070   32.8600 C.3    77  G77         0.1773
   1639  O4'       17.7370   16.2070   32.7470 O.3    77  G77        -0.3307
   1640  C3'       18.4220   14.0880   32.0360 C.3    77  G77         0.1860
   1641  O3'       17.9550   12.8100   31.6600 O.3    77  G77        -0.3112
   1642  C2'       18.5020   15.0340   30.8490 C.3    77  G77         0.2309
   1643  O2'       17.3610   14.9470   30.0170 O.3    77  G77        -0.2156
   1644  C1'       18.4930   16.3860   31.5590 C.3    77  G77         0.2408
   1645  N1        22.6930   18.6820   29.7570 N.ar   77  G77        -0.1709
   1646  C2        21.5470   18.3000   29.0980 C.ar   77  G77         0.2606
   1647  N2        21.4900   18.5530   27.7880 N.pl3  77  G77        -0.0859
   1648  N3        20.5140   17.7060   29.6790 N.ar   77  G77        -0.1918
   1649  C4        20.7090   17.5100   31.0060 C.ar   77  G77         0.1723
   1650  C5        21.8100   17.8490   31.7580 C.ar   77  G77         0.1748
   1651  C6        22.9110   18.4900   31.1250 C.ar   77  G77         0.3023
   1652  O6        23.9740   18.8710   31.6450 O.2    77  G77        -0.2633
   1653  N7        21.6260   17.4840   33.0840 N.ar   77  G77        -0.2173
   1654  C8        20.4430   16.9400   33.1010 C.ar   77  G77         0.1817
   1655  N9        19.8230   16.9190   31.8770 N.ar   77  G77        -0.2693
   1656  OP1       17.9290   13.3190   36.9920 O.3    77  G77        -0.4373
   1657  OP2       19.9770   14.8640   36.9600 O.co2  77  G77        -0.5172
   1658  P         18.9610   11.5870   31.4250 P.3    78  C78         0.2141
   1659  C5'       20.9820   11.8400   29.7480 C.3    78  C78         0.1812
   1660  O5'       19.5910   11.9380   30.0020 O.3    78  C78        -0.3114
   1661  C4'       21.3080   12.8850   28.7040 C.3    78  C78         0.1773
   1662  O4'       21.5750   14.1440   29.3590 O.3    78  C78        -0.3307
   1663  C3'       22.5540   12.6210   27.8890 C.3    78  C78         0.1860
   1664  O3'       22.2560   11.7940   26.7780 O.3    78  C78        -0.3112
   1665  C2'       22.9380   14.0190   27.4300 C.3    78  C78         0.2309
   1666  O2'       22.2650   14.3870   26.2450 O.3    78  C78        -0.2156
   1667  C1'       22.4850   14.9030   28.5850 C.3    78  C78         0.2420
   1668  N1        23.6060   15.4030   29.4570 N.ar   78  C78        -0.2535
   1669  C2        24.5990   16.2480   28.9260 C.ar   78  C78         0.3532
   1670  O2        24.5590   16.5840   27.7370 O.2    78  C78        -0.2443
   1671  N3        25.5970   16.6860   29.7390 N.ar   78  C78        -0.1739
   1672  C4        25.6290   16.3210   31.0240 C.ar   78  C78         0.1759
   1673  N4        26.6330   16.7800   31.7730 N.pl3  78  C78        -0.1070
   1674  C5        24.6330   15.4710   31.5880 C.ar   78  C78         0.0566
   1675  C6        23.6560   15.0420   30.7770 C.ar   78  C78         0.0850
   1676  OP1       18.1680   10.3530   31.2500 O.2    78  C78        -0.5172
   1677  OP2       20.0100   11.6400   32.4690 O.co2  78  C78        -0.4373
   1678  P         23.4330   10.8560   26.2370 P.3    79  C79         0.2141
   1679  C5'       24.1400   12.4270   24.2230 C.3    79  C79         0.1812
   1680  O5'       24.4020   11.9170   25.5280 O.3    79  C79        -0.3114
   1681  C4'       25.4440   12.8640   23.5760 C.3    79  C79         0.1773
   1682  O4'       26.0550   13.9010   24.3840 O.3    79  C79        -0.3307
   1683  C3'       26.4980   11.7640   23.4280 C.3    79  C79         0.1860
   1684  O3'       27.1770   11.8720   22.1840 O.3    79  C79        -0.3112
   1685  C2'       27.4370   12.0350   24.5950 C.3    79  C79         0.2309
   1686  O2'       28.7500   11.6220   24.3350 O.3    79  C79        -0.2156
   1687  C1'       27.3970   13.5510   24.6560 C.3    79  C79         0.2420
   1688  N1        27.8300   14.0810   25.9830 N.ar   79  C79        -0.2535
   1689  C2        28.9940   14.8540   26.0750 C.ar   79  C79         0.3532
   1690  O2        29.6490   15.0950   25.0510 O.2    79  C79        -0.2443
   1691  N3        29.3740   15.3160   27.2970 N.ar   79  C79        -0.1739
   1692  C4        28.6520   15.0370   28.3850 C.ar   79  C79         0.1759
   1693  N4        29.0650   15.5130   29.5610 N.pl3  79  C79        -0.1070
   1694  C5        27.4650   14.2550   28.3110 C.ar   79  C79         0.0566
   1695  C6        27.0990   13.8010   27.1050 C.ar   79  C79         0.0850
   1696  OP1       22.9010    9.8950   25.2330 O.2    79  C79        -0.5172
   1697  OP2       24.1420   10.3580   27.4410 O.co2  79  C79        -0.4373
   1698  P         26.5890   11.2060   20.8550 P.3    80  G80         0.2141
   1699  C5'       24.3020   11.7470   19.7100 C.3    80  G80         0.1812
   1700  O5'       25.3900   12.1820   20.4910 O.3    80  G80        -0.3114
   1701  C4'       23.4690   12.9530   19.3180 C.3    80  G80         0.1773
   1702  O4'       24.2510   13.8110   18.4410 O.3    80  G80        -0.3307
   1703  C3'       22.1660   12.6340   18.5890 C.3    80  G80         0.1860
   1704  O3'       21.0550   13.3330   19.1930 O.3    80  G80        -0.3112
   1705  C2'       22.4600   13.1200   17.1690 C.3    80  G80         0.2309
   1706  O2'       21.3130   13.5740   16.4790 O.3    80  G80        -0.2156
   1707  C1'       23.3940   14.2940   17.4430 C.3    80  G80         0.2408
   1708  N1        26.6240   17.7910   15.5520 N.ar   80  G80        -0.1709
   1709  C2        26.0690   17.7140   16.8010 C.ar   80  G80         0.2606
   1710  N2        26.4130   18.6860   17.6500 N.pl3  80  G80        -0.0859
   1711  N3        25.2340   16.7550   17.1870 N.ar   80  G80        -0.1918
   1712  C4        24.9960   15.8440   16.2080 C.ar   80  G80         0.1723
   1713  C5        25.5060   15.8350   14.9260 C.ar   80  G80         0.1748
   1714  C6        26.3900   16.8720   14.5340 C.ar   80  G80         0.3023
   1715  O6        26.9490   17.0380   13.4430 O.2    80  G80        -0.2633
   1716  N7        25.0240   14.7400   14.2140 N.ar   80  G80        -0.2173
   1717  C8        24.2490   14.1230   15.0650 C.ar   80  G80         0.1817
   1718  N9        24.1810   14.7320   16.2970 N.ar   80  G80        -0.2693
   1719  OP1       26.0810    9.8590   21.1950 O.3    80  G80        -0.4373
   1720  OP2       27.6070   11.3580   19.7970 O.co2  80  G80        -0.5172
   1721  P         20.3580   12.8630   20.5670 P.3    81  A81         0.2141
   1722  C5'       21.0160   14.9710   21.9870 C.3    81  A81         0.1812
   1723  O5'       21.2540   13.6000   21.6660 O.3    81  A81        -0.3114
   1724  C4'       22.0650   15.4430   22.9740 C.3    81  A81         0.1773
   1725  O4'       23.3380   15.4840   22.2830 O.3    81  A81        -0.3307
   1726  C3'       21.9090   16.8540   23.5100 C.3    81  A81         0.1860
   1727  O3'       20.9580   16.9150   24.5840 O.3    81  A81        -0.3112
   1728  C2'       23.3350   17.1040   23.9880 C.3    81  A81         0.2309
   1729  O2'       23.5810   16.5790   25.2750 O.3    81  A81        -0.2156
   1730  C1'       24.1980   16.3650   22.9660 C.3    81  A81         0.2408
   1731  N1        28.2030   19.4780   22.1510 N.ar   81  A81        -0.2040
   1732  C2        27.9040   18.6480   23.1620 C.ar   81  A81         0.2016
   1733  N3        26.8360   17.8580   23.3040 N.ar   81  A81        -0.2048
   1734  C4        26.0070   17.9710   22.2470 C.ar   81  A81         0.1692
   1735  C5        26.1840   18.7720   21.1330 C.ar   81  A81         0.1518
   1736  C6        27.3510   19.5670   21.1070 C.ar   81  A81         0.1919
   1737  N6        27.6630   20.3990   20.1130 N.pl3  81  A81        -0.1054
   1738  N7        25.1240   18.6160   20.2550 N.ar   81  A81        -0.2193
   1739  C8        24.3400   17.7430   20.8440 C.ar   81  A81         0.1816
   1740  N9        24.8180   17.3070   22.0440 N.ar   81  A81        -0.2693
   1741  OP1       20.5600   11.4020   20.7440 O.3    81  A81        -0.4373
   1742  OP2       18.9880   13.4430   20.5860 O.co2  81  A81        -0.5172
   1743  P         19.5310   17.6570   24.4460 P.3    82  A82         0.2141
   1744  C5'       19.4280   19.3600   22.4410 C.3    82  A82         0.1812
   1745  O5'       19.8580   19.0610   23.7590 O.3    82  A82        -0.3114
   1746  C4'       20.4320   20.2910   21.8000 C.3    82  A82         0.1773
   1747  O4'       21.5550   19.5230   21.3040 O.3    82  A82        -0.3307
   1748  C3'       19.9400   21.0370   20.5760 C.3    82  A82         0.1860
   1749  O3'       19.1990   22.1740   20.9760 O.3    82  A82        -0.3112
   1750  C2'       21.2670   21.4010   19.9210 C.3    82  A82         0.2309
   1751  O2'       21.9260   22.4640   20.5840 O.3    82  A82        -0.2156
   1752  C1'       22.0350   20.0960   20.1040 C.3    82  A82         0.2408
   1753  N1        23.2650   18.8290   15.2720 N.ar   82  A82        -0.2040
   1754  C2        23.6750   19.8280   16.0670 C.ar   82  A82         0.2016
   1755  N3        23.3160   20.0970   17.3240 N.ar   82  A82        -0.2048
   1756  C4        22.4180   19.1960   17.7650 C.ar   82  A82         0.1692
   1757  C5        21.9010   18.1210   17.0610 C.ar   82  A82         0.1518
   1758  C6        22.3650   17.9460   15.7430 C.ar   82  A82         0.1919
   1759  N6        21.9720   16.9580   14.9430 N.pl3  82  A82        -0.1054
   1760  N7        20.9990   17.4140   17.8370 N.ar   82  A82        -0.2193
   1761  C8        20.9900   18.0680   18.9770 C.ar   82  A82         0.1816
   1762  N9        21.8240   19.1530   19.0050 N.ar   82  A82        -0.2693
   1763  OP1       19.0760   17.9730   25.8180 O.3    82  A82        -0.4373
   1764  OP2       18.6550   16.8670   23.5540 O.co2  82  A82        -0.5172
   1765  P         18.1370   22.8210   19.9740 P.3    83  G83         0.2141
   1766  C5'       19.7540   24.7530   19.1570 C.3    83  G83         0.1812
   1767  O5'       19.0960   23.5260   18.9150 O.3    83  G83        -0.3114
   1768  C4'       20.6240   25.0510   17.9500 C.3    83  G83         0.1773
   1769  O4'       21.4810   23.9070   17.6620 O.3    83  G83        -0.3307
   1770  C3'       19.8790   25.2350   16.6360 C.3    83  G83         0.1860
   1771  O3'       19.2520   26.4970   16.5300 O.3    83  G83        -0.3112
   1772  C2'       21.0250   25.0450   15.6530 C.3    83  G83         0.2309
   1773  O2'       21.9000   26.1550   15.5830 O.3    83  G83        -0.2156
   1774  C1'       21.7250   23.8300   16.2640 C.3    83  G83         0.2408
   1775  N1        21.8940   20.6610   12.2730 N.ar   83  G83        -0.1709
   1776  C2        22.5920   21.8190   12.5140 C.ar   83  G83         0.2606
   1777  N2        23.4560   22.1950   11.5680 N.pl3  83  G83        -0.0859
   1778  N3        22.4630   22.5600   13.6070 N.ar   83  G83        -0.1918
   1779  C4        21.5520   22.0470   14.4630 C.ar   83  G83         0.1723
   1780  C5        20.8020   20.9010   14.3190 C.ar   83  G83         0.1748
   1781  C6        20.9520   20.1160   13.1450 C.ar   83  G83         0.3023
   1782  O6        20.3670   19.0670   12.8300 O.2    83  G83        -0.2633
   1783  N7        19.9850   20.7170   15.4210 N.ar   83  G83        -0.2173
   1784  C8        20.2550   21.7360   16.1930 C.ar   83  G83         0.1817
   1785  N9        21.2040   22.5880   15.6800 N.ar   83  G83        -0.2693
   1786  OP1       17.3750   23.8360   20.7380 O.3    83  G83        -0.4373
   1787  OP2       17.4300   21.7440   19.2370 O.co2  83  G83        -0.5172
   1788  P         17.8050   26.5890   15.8360 P.3    84  G84         0.2141
   1789  C5'       18.9390   27.5940   13.6820 C.3    84  G84         0.1812
   1790  O5'       18.1820   26.5510   14.2800 O.3    84  G84        -0.3114
   1791  C4'       19.5930   27.1320   12.3910 C.3    84  G84         0.1773
   1792  O4'       20.3630   25.9090   12.5620 O.3    84  G84        -0.3307
   1793  C3'       18.6390   26.7750   11.2710 C.3    84  G84         0.1860
   1794  O3'       18.0950   27.9380   10.7040 O.3    84  G84        -0.3112
   1795  C2'       19.6130   26.0720   10.3370 C.3    84  G84         0.2309
   1796  O2'       20.4470   26.9610    9.6230 O.3    84  G84        -0.2156
   1797  C1'       20.4020   25.2130   11.3290 C.3    84  G84         0.2408
   1798  N1        19.1260   20.8120    9.0530 N.ar   84  G84        -0.1709
   1799  C2        19.8510   21.8670    8.5530 C.ar   84  G84         0.2606
   1800  N2        20.2880   21.7390    7.2970 N.pl3  84  G84        -0.0859
   1801  N3        20.1320   22.9700    9.2420 N.ar   84  G84        -0.1918
   1802  C4        19.6210   22.9380   10.5060 C.ar   84  G84         0.1723
   1803  C5        18.8850   21.9350   11.0910 C.ar   84  G84         0.1748
   1804  C6        18.5990   20.7700   10.3430 C.ar   84  G84         0.3023
   1805  O6        17.9600   19.7800   10.7110 O.2    84  G84        -0.2633
   1806  N7        18.5360   22.2700   12.3900 N.ar   84  G84        -0.2173
   1807  C8        19.0520   23.4520   12.5660 C.ar   84  G84         0.1817
   1808  N9        19.7350   23.9200   11.4720 N.ar   84  G84        -0.2693
   1809  OP1       17.2030   27.8890   16.2050 O.3    84  G84        -0.4373
   1810  OP2       17.0460   25.3420   16.0910 O.co2  84  G84        -0.5172
   1811  P         16.6410   27.8970   10.0280 P.3    85  G85         0.2141
   1812  C5'       17.6990   27.5770    7.6280 C.3    85  G85         0.1812
   1813  O5'       16.9180   27.0400    8.6970 O.3    85  G85        -0.3114
   1814  C4'       17.8280   26.5670    6.5060 C.3    85  G85         0.1773
   1815  O4'       18.4110   25.3360    7.0130 O.3    85  G85        -0.3307
   1816  C3'       16.5160   26.1110    5.8940 C.3    85  G85         0.1860
   1817  O3'       16.0870   27.0160    4.8880 O.3    85  G85        -0.3112
   1818  C2'       16.9010   24.7550    5.3070 C.3    85  G85         0.2309
   1819  O2'       17.6300   24.8590    4.1030 O.3    85  G85        -0.2156
   1820  C1'       17.8020   24.2060    6.4030 C.3    85  G85         0.2408
   1821  N1        15.3150   19.8540    7.5950 N.ar   85  G85        -0.1709
   1822  C2        15.8440   20.2410    6.3850 C.ar   85  G85         0.2606
   1823  N2        15.7070   19.3730    5.3800 N.pl3  85  G85        -0.0859
   1824  N3        16.4700   21.3990    6.1720 N.ar   85  G85        -0.1918
   1825  C4        16.5360   22.1660    7.2980 C.ar   85  G85         0.1723
   1826  C5        16.0360   21.8620    8.5500 C.ar   85  G85         0.1748
   1827  C6        15.3730   20.6260    8.7570 C.ar   85  G85         0.3023
   1828  O6        14.8730   20.2110    9.8100 O.2    85  G85        -0.2633
   1829  N7        16.2860   22.8880    9.4450 N.ar   85  G85        -0.2173
   1830  C8        16.9230   23.7770    8.7360 C.ar   85  G85         0.1817
   1831  N9        17.1140   23.4140    7.4270 N.ar   85  G85        -0.2693
   1832  OP1       16.2640   29.2820    9.6560 O.2    85  G85        -0.5172
   1833  OP2       15.7400   27.1300   10.9190 O.co2  85  G85        -0.4373
   1834  P         14.5460   27.4410    4.7980 P.3    86  U86         0.2141
   1835  C5'       14.3120   25.5900    2.9360 C.3    86  U86         0.1812
   1836  O5'       13.8490   26.1540    4.1560 O.3    86  U86        -0.3114
   1837  C4'       13.7730   24.1800    2.7530 C.3    86  U86         0.1773
   1838  O4'       14.4230   23.2380    3.6540 O.3    86  U86        -0.3307
   1839  C3'       12.2930   24.0040    3.0640 C.3    86  U86         0.1860
   1840  O3'       11.4900   24.5060    2.0180 O.3    86  U86        -0.3112
   1841  C2'       12.2340   22.4860    3.1960 C.3    86  U86         0.2309
   1842  O2'       12.3120   21.8160    1.9550 O.3    86  U86        -0.2156
   1843  C1'       13.4910   22.2370    4.0290 C.3    86  U86         0.2420
   1844  N1        13.2120   22.3000    5.5060 N.ar   86  U86        -0.2534
   1845  C2        12.6460   21.2020    6.1360 C.ar   86  U86         0.3546
   1846  O2        12.3600   20.1600    5.5730 O.2    86  U86        -0.2443
   1847  N3        12.4260   21.3560    7.4810 N.ar   86  U86        -0.1530
   1848  C4        12.6980   22.4710    8.2520 C.ar   86  U86         0.2846
   1849  O4        12.4410   22.4440    9.4480 O.2    86  U86        -0.2650
   1850  C5        13.2820   23.5800    7.5390 C.ar   86  U86         0.0814
   1851  C6        13.5090   23.4520    6.2230 C.ar   86  U86         0.0870
   1852  OP1       14.4620   28.5620    3.8410 O.2    86  U86        -0.5172
   1853  OP2       14.0170   27.5910    6.1760 O.co2  86  U86        -0.4373
   1854  P         10.0370   25.1130    2.3170 P.3    87  G87         0.2141
   1855  C5'        8.9690   22.8220    1.5700 C.3    87  G87         0.1812
   1856  O5'        9.1600   23.7980    2.5940 O.3    87  G87        -0.3114
   1857  C4'        8.2930   21.5880    2.1320 C.3    87  G87         0.1773
   1858  O4'        9.1290   20.9450    3.1350 O.3    87  G87        -0.3307
   1859  C3'        7.0020   21.8590    2.8800 C.3    87  G87         0.1860
   1860  O3'        5.9480   21.9720    1.9790 O.3    87  G87        -0.3112
   1861  C2'        6.8640   20.5950    3.7060 C.3    87  G87         0.2309
   1862  O2'        6.4390   19.5110    2.9050 O.3    87  G87        -0.2156
   1863  C1'        8.3070   20.4020    4.1630 C.3    87  G87         0.2408
   1864  N1         8.0000   20.1660    9.2940 N.ar   87  G87        -0.1709
   1865  C2         7.5060   19.2860    8.3570 C.ar   87  G87         0.2606
   1866  N2         6.8640   18.2160    8.8430 N.pl3  87  G87        -0.0859
   1867  N3         7.6420   19.4460    7.0350 N.ar   87  G87        -0.1918
   1868  C4         8.3220   20.5830    6.7160 C.ar   87  G87         0.1723
   1869  C5         8.8500   21.5190    7.5850 C.ar   87  G87         0.1748
   1870  C6         8.6990   21.3320    8.9830 C.ar   87  G87         0.3023
   1871  O6         9.0970   22.0680    9.8950 O.2    87  G87        -0.2633
   1872  N7         9.4730   22.5450    6.8880 N.ar   87  G87        -0.2173
   1873  C8         9.3160   22.2150    5.6360 C.ar   87  G87         0.1817
   1874  N9         8.6290   21.0380    5.4480 N.ar   87  G87        -0.2693
   1875  OP1        9.5880   25.7720    1.0660 O.2    87  G87        -0.5172
   1876  OP2       10.0650   25.9060    3.5630 O.co2  87  G87        -0.4373
   1877  P          4.7560   22.9880    2.2930 P.3    88  C88         0.2141
   1878  C5'        3.2480   21.0420    3.2370 C.3    88  C88         0.1812
   1879  O5'        3.9670   22.2600    3.4810 O.3    88  C88        -0.3114
   1880  C4'        2.6940   20.4550    4.5220 C.3    88  C88         0.1773
   1881  O4'        3.7700   20.0140    5.3900 O.3    88  C88        -0.3307
   1882  C3'        1.9330   21.4260    5.4070 C.3    88  C88         0.1860
   1883  O3'        0.6420   21.6810    4.8880 O.3    88  C88        -0.3112
   1884  C2'        1.9350   20.6480    6.7220 C.3    88  C88         0.2309
   1885  O2'        1.0030   19.5880    6.7650 O.3    88  C88        -0.2156
   1886  C1'        3.3680   20.1220    6.7410 C.3    88  C88         0.2420
   1887  N1         4.2400   21.0730    7.5110 N.ar   88  C88        -0.2535
   1888  C2         4.3090   20.9430    8.9100 C.ar   88  C88         0.3532
   1889  O2         3.6820   20.0370    9.4760 O.2    88  C88        -0.2443
   1890  N3         5.0730   21.8120    9.6180 N.ar   88  C88        -0.1739
   1891  C4         5.7430   22.7800    8.9890 C.ar   88  C88         0.1759
   1892  N4         6.4750   23.6070    9.7380 N.pl3  88  C88        -0.1070
   1893  C5         5.6840   22.9410    7.5700 C.ar   88  C88         0.0566
   1894  C6         4.9270   22.0770    6.8790 C.ar   88  C88         0.0850
   1895  OP1        3.9160   22.9950    1.0730 O.2    88  C88        -0.5172
   1896  OP2        5.2860   24.2630    2.8270 O.co2  88  C88        -0.4373
   1897  P         -0.1440   23.0270    5.2570 P.3    89  A89         0.2141
   1898  C5'       -1.2940   22.1430    7.4500 C.3    89  A89         0.1812
   1899  O5'       -0.2910   22.9460    6.8470 O.3    89  A89        -0.3114
   1900  C4'       -1.1710   22.1720    8.9610 C.3    89  A89         0.1773
   1901  O4'        0.1670   21.7840    9.3730 O.3    89  A89        -0.3307
   1902  C3'       -1.3410   23.5270    9.6260 C.3    89  A89         0.1860
   1903  O3'       -2.6960   23.8980    9.7000 O.3    89  A89        -0.3112
   1904  C2'       -0.7740   23.1950   10.9950 C.3    89  A89         0.2309
   1905  O2'       -1.6260   22.3440   11.7260 O.3    89  A89        -0.2156
   1906  C1'        0.4840   22.4390   10.5920 C.3    89  A89         0.2408
   1907  N1         4.0010   25.2760   13.0180 N.ar   89  A89        -0.2040
   1908  C2         3.0380   24.4560   13.4580 C.ar   89  A89         0.2016
   1909  N3         2.1570   23.7450   12.7540 N.ar   89  A89        -0.2048
   1910  C4         2.3280   23.9330   11.4360 C.ar   89  A89         0.1692
   1911  C5         3.2700   24.7410   10.8250 C.ar   89  A89         0.1518
   1912  C6         4.1500   25.4410   11.6870 C.ar   89  A89         0.1919
   1913  N6         5.1180   26.2580   11.2660 N.pl3  89  A89        -0.1054
   1914  N7         3.1420   24.6790    9.4450 N.ar   89  A89        -0.2193
   1915  C8         2.1410   23.8470    9.2620 C.ar   89  A89         0.1816
   1916  N9         1.6080   23.3560   10.4220 N.ar   89  A89        -0.2693
   1917  OP1       -1.4900   22.9190    4.6430 O.2    89  A89        -0.5172
   1918  OP2        0.7060   24.2040    4.9570 O.co2  89  A89        -0.4373
   1919  P         -3.0850   25.4480    9.7150 P.3    90  G90         0.2141
   1920  C5'       -3.6650   25.4220   12.2600 C.3    90  G90         0.1812
   1921  O5'       -2.8080   25.8740   11.2250 O.3    90  G90        -0.3114
   1922  C4'       -3.1000   25.8280   13.5990 C.3    90  G90         0.1773
   1923  O4'       -1.7420   25.3340   13.7090 O.3    90  G90        -0.3307
   1924  C3'       -2.9430   27.3230   13.8090 C.3    90  G90         0.1860
   1925  O3'       -4.1880   27.9290   14.1320 O.3    90  G90        -0.3112
   1926  C2'       -1.9550   27.3100   14.9690 C.3    90  G90         0.2309
   1927  O2'       -2.5410   26.9270   16.1980 O.3    90  G90        -0.2156
   1928  C1'       -0.9760   26.2440   14.4770 C.3    90  G90         0.2408
   1929  N1         3.3020   28.9730   14.5190 N.ar   90  G90        -0.1709
   1930  C2         2.5160   28.5510   15.5690 C.ar   90  G90         0.2606
   1931  N2         2.9100   28.8940   16.8020 N.pl3  90  G90        -0.0859
   1932  N3         1.4110   27.8330   15.4210 N.ar   90  G90        -0.1918
   1933  C4         1.1470   27.5630   14.1170 C.ar   90  G90         0.1723
   1934  C5         1.8600   27.9400   12.9990 C.ar   90  G90         0.1748
   1935  C6         3.0460   28.7070   13.1720 C.ar   90  G90         0.3023
   1936  O6         3.8240   29.1430   12.3050 O.2    90  G90        -0.2633
   1937  N7         1.2460   27.4600   11.8450 N.ar   90  G90        -0.2173
   1938  C8         0.1990   26.8190   12.2820 C.ar   90  G90         0.1817
   1939  N9         0.0770   26.8340   13.6530 N.ar   90  G90        -0.2693
   1940  OP1       -4.5390   25.5640    9.4460 O.3    90  G90        -0.4373
   1941  OP2       -2.1100   26.1670    8.8710 O.co2  90  G90        -0.5172
   1942  P         -4.5040   29.4520   13.7430 P.3    91  A91         0.2141
   1943  C5'       -3.8440   30.1390   16.1970 C.3    91  A91         0.1812
   1944  O5'       -3.6120   30.2690   14.7920 O.3    91  A91        -0.3114
   1945  C4'       -2.7670   30.8460   16.9990 C.3    91  A91         0.1773
   1946  O4'       -1.4790   30.2000   16.7990 O.3    91  A91        -0.3307
   1947  C3'       -2.5230   32.2940   16.6060 C.3    91  A91         0.1860
   1948  O3'       -3.4630   33.1510   17.2430 O.3    91  A91        -0.3112
   1949  C2'       -1.0860   32.5040   17.0810 C.3    91  A91         0.2309
   1950  O2'       -0.9790   32.7350   18.4700 O.3    91  A91        -0.2156
   1951  C1'       -0.4470   31.1700   16.7170 C.3    91  A91         0.2408
   1952  N1         3.4970   32.6990   13.8130 N.ar   91  A91        -0.2040
   1953  C2         3.2530   32.8080   15.1270 C.ar   91  A91         0.2016
   1954  N3         2.2000   32.3780   15.8160 N.ar   91  A91        -0.2048
   1955  C4         1.3150   31.7750   15.0050 C.ar   91  A91         0.1692
   1956  C5         1.4210   31.5930   13.6340 C.ar   91  A91         0.1518
   1957  C6         2.5890   32.0920   13.0220 C.ar   91  A91         0.1919
   1958  N6         2.8440   32.0010   11.7160 N.pl3  91  A91        -0.1054
   1959  N7         0.3120   30.9310   13.1360 N.ar   91  A91        -0.2193
   1960  C8        -0.4310   30.7360   14.2020 C.ar   91  A91         0.1816
   1961  N9         0.1150   31.2130   15.3670 N.ar   91  A91        -0.2693
   1962  OP1       -5.9330   29.6910   14.0280 O.3    91  A91        -0.4373
   1963  OP2       -4.0150   29.7420   12.3780 O.co2  91  A91        -0.5172
   1964  P         -3.9210   34.5130   16.5300 P.3    92  G92         0.2141
   1965  C5'       -2.1810   35.8910   17.9630 C.3    92  G92         0.1812
   1966  O5'       -2.6200   35.4250   16.6940 O.3    92  G92        -0.3114
   1967  C4'       -0.8010   36.4970   17.8150 C.3    92  G92         0.1773
   1968  O4'        0.0770   35.5490   17.1660 O.3    92  G92        -0.3307
   1969  C3'       -0.7340   37.6810   16.8750 C.3    92  G92         0.1860
   1970  O3'       -1.1800   38.8450   17.5210 O.3    92  G92        -0.3112
   1971  C2'        0.7440   37.7230   16.5070 C.3    92  G92         0.2309
   1972  O2'        1.5850   38.3180   17.4690 O.3    92  G92        -0.2156
   1973  C1'        1.0560   36.2400   16.4130 C.3    92  G92         0.2408
   1974  N1         3.5700   36.0850   12.0120 N.ar   92  G92        -0.1709
   1975  C2         3.9470   36.6480   13.2150 C.ar   92  G92         0.2606
   1976  N2         5.1460   37.2480   13.2660 N.pl3  92  G92        -0.0859
   1977  N3         3.1940   36.6190   14.3030 N.ar   92  G92        -0.1918
   1978  C4         2.0170   35.9760   14.0940 C.ar   92  G92         0.1723
   1979  C5         1.5510   35.3870   12.9420 C.ar   92  G92         0.1748
   1980  C6         2.3620   35.4170   11.7850 C.ar   92  G92         0.3023
   1981  O6         2.1060   34.9410   10.6700 O.2    92  G92        -0.2633
   1982  N7         0.2930   34.8360   13.1380 N.ar   92  G92        -0.2173
   1983  C8         0.0220   35.1000   14.3850 C.ar   92  G92         0.1817
   1984  N9         1.0250   35.7850   15.0270 N.ar   92  G92        -0.2693
   1985  OP1       -5.0420   35.0950   17.2960 O.3    92  G92        -0.4373
   1986  OP2       -4.0820   34.2580   15.0830 O.co2  92  G92        -0.5172
   1987  P         -2.1330   39.8220   16.6960 P.3    93  U93         0.2141
   1988  C5'       -0.1050   41.3850   16.1110 C.3    93  U93         0.1812
   1989  O5'       -1.1220   40.5040   15.6600 O.3    93  U93        -0.3114
   1990  C4'        0.9080   41.6340   15.0130 C.3    93  U93         0.1773
   1991  O4'        1.4910   40.3810   14.5780 O.3    93  U93        -0.3307
   1992  C3'        0.3530   42.2280   13.7230 C.3    93  U93         0.1860
   1993  O3'        0.1260   43.6230   13.8510 O.3    93  U93        -0.3112
   1994  C2'        1.4870   41.9150   12.7570 C.3    93  U93         0.2309
   1995  O2'        2.5850   42.7990   12.8750 O.3    93  U93        -0.2156
   1996  C1'        1.8830   40.5140   13.2220 C.3    93  U93         0.2420
   1997  N1         1.2470   39.4660   12.3710 N.ar   93  U93        -0.2534
   1998  C2         1.9000   39.0900   11.2150 C.ar   93  U93         0.3546
   1999  O2         2.9720   39.5670   10.8750 O.2    93  U93        -0.2443
   2000  N3         1.2540   38.1270   10.4730 N.ar   93  U93        -0.1530
   2001  C4         0.0460   37.5180   10.7660 C.ar   93  U93         0.2846
   2002  O4        -0.4070   36.6710   10.0080 O.2    93  U93        -0.2650
   2003  C5        -0.5780   37.9630   11.9850 C.ar   93  U93         0.0814
   2004  C6         0.0310   38.9010   12.7260 C.ar   93  U93         0.0870
   2005  OP1       -2.6650   40.8330   17.6320 O.3    93  U93        -0.4373
   2006  OP2       -3.0640   38.9940   15.8980 O.co2  93  U93        -0.5172
   2007  P         -1.3630   44.2000   13.9040 P.3    94  U94         0.2141
   2008  C5'       -1.0420   46.2890   12.2980 C.3    94  U94         0.1812
   2009  O5'       -1.4940   44.9510   12.4940 O.3    94  U94        -0.3114
   2010  C4'       -2.0950   47.1330   11.5860 C.3    94  U94         0.1773
   2011  O4'       -2.3340   46.6330   10.2440 O.3    94  U94        -0.3307
   2012  C3'       -3.4680   47.1970   12.2410 C.3    94  U94         0.1860
   2013  O3'       -3.9740   48.5180   12.1040 O.3    94  U94        -0.3112
   2014  C2'       -4.2890   46.1900   11.4380 C.3    94  U94         0.2309
   2015  O2'       -5.6720   46.4710   11.4360 O.3    94  U94        -0.2156
   2016  C1'       -3.7050   46.3600   10.0430 C.3    94  U94         0.2420
   2017  N1        -3.8410   45.1280    9.2070 N.ar   94  U94        -0.2534
   2018  C2        -4.6820   45.1280    8.1080 C.ar   94  U94         0.3546
   2019  O2        -5.3380   46.0890    7.7570 O.2    94  U94        -0.2443
   2020  N3        -4.7330   43.9420    7.4170 N.ar   94  U94        -0.1530
   2021  C4        -4.0440   42.7780    7.7120 C.ar   94  U94         0.2846
   2022  O4        -4.1950   41.7920    7.0040 O.2    94  U94        -0.2650
   2023  C5        -3.1860   42.8460    8.8650 C.ar   94  U94         0.0814
   2024  C6        -3.1200   43.9930    9.5510 C.ar   94  U94         0.0870
   2025  OP1       -1.4070   45.1550   15.0330 O.3    94  U94        -0.4373
   2026  OP2       -2.3240   43.0760   13.8650 O.co2  94  U94        -0.5172
   2027  P         -4.8210   49.1900   13.2800 P.3    95  C95         0.2141
   2028  C5'       -7.2690   48.6040   14.0460 C.3    95  C95         0.1812
   2029  O5'       -6.3080   48.6690   12.9940 O.3    95  C95        -0.3114
   2030  C4'       -8.6400   48.2540   13.5010 C.3    95  C95         0.1773
   2031  O4'       -9.0280   49.2370   12.5080 O.3    95  C95        -0.3307
   2032  C3'       -8.7330   46.9340   12.7490 C.3    95  C95         0.1860
   2033  O3'       -8.9180   45.8370   13.6350 O.3    95  C95        -0.3112
   2034  C2'       -9.9560   47.1720   11.8710 C.3    95  C95         0.2309
   2035  O2'      -11.1720   47.0830   12.5930 O.3    95  C95        -0.2156
   2036  C1'       -9.7220   48.6100   11.4380 C.3    95  C95         0.2420
   2037  N1        -8.9740   48.7660   10.1290 N.ar   95  C95        -0.2535
   2038  C2        -9.6720   48.6880    8.9140 C.ar   95  C95         0.3532
   2039  O2       -10.8890   48.4790    8.9190 O.2    95  C95        -0.2443
   2040  N3        -8.9890   48.8420    7.7510 N.ar   95  C95        -0.1739
   2041  C4        -7.6720   49.0650    7.7590 C.ar   95  C95         0.1759
   2042  N4        -7.0490   49.2090    6.5870 N.pl3  95  C95        -0.1070
   2043  C5        -6.9380   49.1470    8.9760 C.ar   95  C95         0.0566
   2044  C6        -7.6230   48.9960   10.1160 C.ar   95  C95         0.0850
   2045  OP1       -4.7710   50.6520   13.0780 O.2    95  C95        -0.5172
   2046  OP2       -4.3490   48.6140   14.5630 O.co2  95  C95        -0.4373
   2047  P         -8.4830   44.3610   13.1870 P.3    96  C96         0.2141
   2048  C5'      -10.8620   43.6500   12.2780 C.3    96  C96         0.1812
   2049  O5'       -9.5150   44.0230   12.0090 O.3    96  C96        -0.3114
   2050  C4'      -11.5720   43.2430   10.9990 C.3    96  C96         0.1773
   2051  O4'      -11.5990   44.3540   10.0690 O.3    96  C96        -0.3307
   2052  C3'      -10.8850   42.1580   10.1820 C.3    96  C96         0.1860
   2053  O3'      -11.0770   40.8690   10.7260 O.3    96  C96        -0.3112
   2054  C2'      -11.5600   42.3330    8.8270 C.3    96  C96         0.2309
   2055  O2'      -12.8560   41.7740    8.7410 O.3    96  C96        -0.2156
   2056  C1'      -11.6450   43.8520    8.7410 C.3    96  C96         0.2420
   2057  N1       -10.5400   44.4270    7.9030 N.ar   96  C96        -0.2535
   2058  C2       -10.6290   44.3470    6.5020 C.ar   96  C96         0.3532
   2059  O2       -11.6180   43.8090    5.9780 O.2    96  C96        -0.2443
   2060  N3        -9.6250   44.8730    5.7510 N.ar   96  C96        -0.1739
   2061  C4        -8.5760   45.4470    6.3440 C.ar   96  C96         0.1759
   2062  N4        -7.6170   45.9470    5.5610 N.pl3  96  C96        -0.1070
   2063  C5        -8.4630   45.5340    7.7640 C.ar   96  C96         0.0566
   2064  C6        -9.4550   45.0160    8.4960 C.ar   96  C96         0.0850
   2065  OP1       -8.7220   43.4670   14.3460 O.3    96  C96        -0.4373
   2066  OP2       -7.1300   44.4320   12.5820 O.co2  96  C96        -0.5172
   2067  P         -9.9170   39.7800   10.5550 P.3    97  U97         0.2141
   2068  C5'      -11.3390   38.6080    8.6710 C.3    97  U97         0.1812
   2069  O5'      -10.1360   39.2870    9.0430 O.3    97  U97        -0.3114
   2070  C4'      -11.4020   38.3160    7.1810 C.3    97  U97         0.1773
   2071  O4'      -11.5210   39.5600    6.4430 O.3    97  U97        -0.3307
   2072  C3'      -10.1760   37.6440    6.5760 C.3    97  U97         0.1860
   2073  O3'      -10.1590   36.2260    6.7860 O.3    97  U97        -0.3112
   2074  C2'      -10.3320   38.0380    5.1060 C.3    97  U97         0.2309
   2075  O2'      -11.3060   37.2860    4.4090 O.3    97  U97        -0.2156
   2076  C1'      -10.7960   39.4820    5.2290 C.3    97  U97         0.2420
   2077  N1        -9.6610   40.4820    5.1890 N.ar   97  U97        -0.2534
   2078  C2        -9.2250   40.9470    3.9570 C.ar   97  U97         0.3546
   2079  O2        -9.7100   40.5980    2.8970 O.2    97  U97        -0.2443
   2080  N3        -8.1900   41.8580    4.0010 N.ar   97  U97        -0.1530
   2081  C4        -7.5530   42.3400    5.1290 C.ar   97  U97         0.2846
   2082  O4        -6.6410   43.1470    5.0100 O.2    97  U97        -0.2650
   2083  C5        -8.0500   41.8120    6.3760 C.ar   97  U97         0.0814
   2084  C6        -9.0590   40.9250    6.3600 C.ar   97  U97         0.0870
   2085  OP1      -10.1980   38.6690   11.4940 O.3    97  U97        -0.4373
   2086  OP2       -8.6040   40.4630   10.6260 O.co2  97  U97        -0.5172
   2087  P         -8.7720   35.4200    6.7080 P.3    98  C98         0.2141
   2088  C5'       -8.9290   34.8120    4.1480 C.3    98  C98         0.1812
   2089  O5'       -8.3500   35.6100    5.1770 O.3    98  C98        -0.3114
   2090  C4'       -8.2340   35.0580    2.8230 C.3    98  C98         0.1773
   2091  O4'       -8.3460   36.4640    2.4850 O.3    98  C98        -0.3307
   2092  C3'       -6.7320   34.8000    2.8180 C.3    98  C98         0.1860
   2093  O3'       -6.4120   33.4220    2.6800 O.3    98  C98        -0.3112
   2094  C2'       -6.3120   35.6230    1.6060 C.3    98  C98         0.2309
   2095  O2'       -6.5920   35.0030    0.3670 O.3    98  C98        -0.2156
   2096  C1'       -7.1810   36.8660    1.7780 C.3    98  C98         0.2420
   2097  N1        -6.4600   37.9900    2.4890 N.ar   98  C98        -0.2535
   2098  C2        -5.4880   38.7400    1.7940 C.ar   98  C98         0.3532
   2099  O2        -5.2310   38.4780    0.6120 O.2    98  C98        -0.2443
   2100  N3        -4.8460   39.7470    2.4420 N.ar   98  C98        -0.1739
   2101  C4        -5.1340   40.0170    3.7190 C.ar   98  C98         0.1759
   2102  N4        -4.4720   41.0210    4.3030 N.pl3  98  C98        -0.1070
   2103  C5        -6.1100   39.2690    4.4490 C.ar   98  C98         0.0566
   2104  C6        -6.7410   38.2790    3.8010 C.ar   98  C98         0.0850
   2105  OP1       -9.0380   33.9860    6.9570 O.2    98  C98        -0.5172
   2106  OP2       -7.7720   36.1270    7.5440 O.co2  98  C98        -0.4373
   2107  P         -5.0100   32.8590    3.2210 P.3    99  C99         0.2141
   2108  C5'       -3.9020   32.7980    0.8160 C.3    99  C99         0.1812
   2109  O5'       -3.9660   33.3730    2.1210 O.3    99  C99        -0.3114
   2110  C4'       -2.8170   33.4580   -0.0180 C.3    99  C99         0.1773
   2111  O4'       -3.1390   34.8620   -0.2000 O.3    99  C99        -0.3307
   2112  C3'       -1.4230   33.4920    0.5990 C.3    99  C99         0.1860
   2113  O3'       -0.6970   32.2750    0.4420 O.3    99  C99        -0.3112
   2114  C2'       -0.7910   34.6440   -0.1780 C.3    99  C99         0.2309
   2115  O2'       -0.3560   34.2870   -1.4730 O.3    99  C99        -0.2156
   2116  C1'       -1.9500   35.6330   -0.2430 C.3    99  C99         0.2420
   2117  N1        -1.8940   36.6060    0.9020 N.ar   99  C99        -0.2535
   2118  C2        -1.0430   37.7290    0.8390 C.ar   99  C99         0.3532
   2119  O2        -0.3450   37.9310   -0.1640 O.2    99  C99        -0.2443
   2120  N3        -1.0070   38.5830    1.8970 N.ar   99  C99        -0.1739
   2121  C4        -1.7640   38.3530    2.9760 C.ar   99  C99         0.1759
   2122  N4        -1.6980   39.2150    3.9900 N.pl3  99  C99        -0.1070
   2123  C5        -2.6260   37.2200    3.0650 C.ar   99  C99         0.0566
   2124  C6        -2.6580   36.3870    2.0180 C.ar   99  C99         0.0850
   2125  OP1       -5.0740   31.3800    3.1860 O.2    99  C99        -0.5172
   2126  OP2       -4.6800   33.5340    4.4970 O.co2  99  C99        -0.4373
   2127  P          0.4640   31.9010    1.4860 P.3   100  C100        0.2141
   2128  C5'        2.5530   32.9810    0.2650 C.3   100  C100        0.1812
   2129  O5'        1.5540   33.0570    1.2740 O.3   100  C100       -0.3114
   2130  C4'        3.3530   34.2700    0.2060 C.3   100  C100        0.1773
   2131  O4'        2.4700   35.4150    0.3200 O.3   100  C100       -0.3307
   2132  C3'        4.3350   34.5030    1.3430 C.3   100  C100        0.1860
   2133  O3'        5.5170   33.7460    1.1720 O.3   100  C100       -0.3112
   2134  C2'        4.5830   35.9980    1.1720 C.3   100  C100        0.2309
   2135  O2'        5.4020   36.3360    0.0670 O.3   100  C100       -0.2156
   2136  C1'        3.1570   36.4880    0.9390 C.3   100  C100        0.2420
   2137  N1         2.4770   36.8760    2.2160 N.ar  100  C100       -0.2535
   2138  C2         2.8700   38.0510    2.8850 C.ar  100  C100        0.3532
   2139  O2         3.7670   38.7590    2.4110 O.2   100  C100       -0.2443
   2140  N3         2.2540   38.3880    4.0470 N.ar  100  C100       -0.1739
   2141  C4         1.2870   37.6110    4.5400 C.ar  100  C100        0.1759
   2142  N4         0.7080   37.9860    5.6840 N.pl3 100  C100       -0.1070
   2143  C5         0.8740   36.4110    3.8810 C.ar  100  C100        0.0566
   2144  C6         1.4880   36.0860    2.7350 C.ar  100  C100        0.0850
   2145  OP1        1.0390   30.5990    1.0810 O.2   100  C100       -0.5172
   2146  OP2       -0.0730   32.0670    2.8560 O.co2 100  C100       -0.4373
   2147  P          6.2040   33.0300    2.4330 P.3   101  G101        0.2141
   2148  C5'        7.9990   34.9480    2.3880 C.3   101  G101        0.1812
   2149  O5'        7.0170   34.2250    3.1290 O.3   101  G101       -0.3114
   2150  C4'        8.3490   36.2700    3.0450 C.3   101  G101        0.1773
   2151  O4'        7.2000   37.1520    3.0930 O.3   101  G101       -0.3307
   2152  C3'        8.7810   36.1470    4.4920 C.3   101  G101        0.1860
   2153  O3'       10.1550   35.8350    4.5340 O.3   101  G101       -0.3112
   2154  C2'        8.4720   37.5340    5.0420 C.3   101  G101        0.2309
   2155  O2'        9.4430   38.5090    4.7150 O.3   101  G101       -0.2156
   2156  C1'        7.1710   37.8550    4.3240 C.3   101  G101        0.2408
   2157  N1         4.1900   38.9460    8.3170 N.ar  101  G101       -0.1709
   2158  C2         5.3410   39.5700    7.8880 C.ar  101  G101        0.2606
   2159  N2         5.7630   40.6270    8.5950 N.pl3 101  G101       -0.0859
   2160  N3         6.0340   39.1850    6.8250 N.ar  101  G101       -0.1918
   2161  C4         5.4840   38.1090    6.2070 C.ar  101  G101        0.1723
   2162  C5         4.3410   37.4190    6.5560 C.ar  101  G101        0.1748
   2163  C6         3.6030   37.8400    7.6970 C.ar  101  G101        0.3023
   2164  O6         2.5620   37.3540    8.1650 O.2   101  G101       -0.2633
   2165  N7         4.1130   36.3750    5.6680 N.ar  101  G101       -0.2173
   2166  C8         5.1010   36.4560    4.8200 C.ar  101  G101        0.1817
   2167  N9         5.9740   37.4850    5.0810 N.ar  101  G101       -0.2693
   2168  OP1        7.1890   32.0550    1.9050 O.2   101  G101       -0.5172
   2169  OP2        5.1120   32.5870    3.3350 O.co2 101  G101       -0.4373
   2170  P         10.6630   34.6890    5.5230 P.3   102  C102        0.2141
   2171  C5'       11.4550   36.6410    7.1290 C.3   102  C102        0.1812
   2172  O5'       10.7040   35.4340    6.9430 O.3   102  C102       -0.3114
   2173  C4'       10.9400   37.4600    8.3060 C.3   102  C102        0.1773
   2174  O4'        9.5820   37.9150    8.0660 O.3   102  C102       -0.3307
   2175  C3'       10.8230   36.7290    9.6370 C.3   102  C102        0.1860
   2176  O3'       12.0640   36.6200   10.2950 O.3   102  C102       -0.3112
   2177  C2'        9.8490   37.6130   10.4040 C.3   102  C102        0.2309
   2178  O2'       10.4490   38.7680   10.9500 O.3   102  C102       -0.2156
   2179  C1'        8.8760   37.9900    9.2950 C.3   102  C102        0.2420
   2180  N1         7.6840   37.0920    9.2600 N.ar  102  C102       -0.2535
   2181  C2         6.6400   37.3160   10.1680 C.ar  102  C102        0.3532
   2182  O2         6.7340   38.2500   10.9710 O.2   102  C102       -0.2443
   2183  N3         5.5530   36.4970   10.1410 N.ar  102  C102       -0.1739
   2184  C4         5.4880   35.4950    9.2580 C.ar  102  C102        0.1759
   2185  N4         4.4000   34.7280    9.2690 N.pl3 102  C102       -0.1070
   2186  C5         6.5370   35.2420    8.3230 C.ar  102  C102        0.0566
   2187  C6         7.6020   36.0570    8.3600 C.ar  102  C102        0.0850
   2188  OP1       12.0410   34.3510    5.1030 O.2   102  C102       -0.5172
   2189  OP2        9.6240   33.6340    5.6060 O.co2 102  C102       -0.4373
   2190  P         12.3500   35.2710   11.0950 P.3   103  U103        0.2141
   2191  C5'       11.8890   36.4180   13.4040 C.3   103  U103        0.1812
   2192  O5'       11.4980   35.4730   12.4230 O.3   103  U103       -0.3114
   2193  C4'       10.9190   36.3520   14.5620 C.3   103  U103        0.1773
   2194  O4'        9.5980   36.7420   14.1040 O.3   103  U103       -0.3307
   2195  C3'       10.6940   34.9550   15.1170 C.3   103  U103        0.1860
   2196  O3'       11.7460   34.5790   15.9930 O.3   103  U103       -0.3112
   2197  C2'        9.3700   35.1770   15.8280 C.3   103  U103        0.2309
   2198  O2'        9.5160   35.9790   16.9800 O.3   103  U103       -0.2156
   2199  C1'        8.6160   35.9630   14.7660 C.3   103  U103        0.2420
   2200  N1         7.8300   35.1190   13.7800 N.ar  103  U103       -0.2534
   2201  C2         6.5810   34.6330   14.1450 C.ar  103  U103        0.3546
   2202  O2         6.0530   34.8330   15.2260 O.2   103  U103       -0.2443
   2203  N3         5.9490   33.8860   13.1850 N.ar  103  U103       -0.1530
   2204  C4         6.4190   33.5810   11.9210 C.ar  103  U103        0.2846
   2205  O4         5.7280   32.8960   11.1780 O.2   103  U103       -0.2650
   2206  C5         7.7180   34.1120   11.5970 C.ar  103  U103        0.0814
   2207  C6         8.3540   34.8430   12.5230 C.ar  103  U103        0.0870
   2208  OP1       13.7900   35.2240   11.4250 O.3   103  U103       -0.4373
   2209  OP2       11.7250   34.1480   10.3570 O.co2 103  U103       -0.5172
   2210  P         12.2030   33.0470   16.1390 P.3   104  C104        0.2141
   2211  C5'       10.8240   32.6960   18.3470 C.3   104  C104        0.1812
   2212  O5'       10.9890   32.3990   16.9620 O.3   104  C104       -0.3114
   2213  C4'        9.4310   32.3470   18.8340 C.3   104  C104        0.1773
   2214  O4'        8.4350   32.9100   17.9420 O.3   104  C104       -0.3307
   2215  C3'        9.0810   30.8690   18.8260 C.3   104  C104        0.1860
   2216  O3'        9.6260   30.1810   19.9340 O.3   104  C104       -0.3112
   2217  C2'        7.5590   30.9290   18.8610 C.3   104  C104        0.2309
   2218  O2'        7.0370   31.3040   20.1170 O.3   104  C104       -0.2156
   2219  C1'        7.3080   32.0510   17.8620 C.3   104  C104        0.2420
   2220  N1         7.0990   31.5800   16.4420 N.ar  104  C104       -0.2535
   2221  C2         5.9160   30.9050   16.0920 C.ar  104  C104        0.3532
   2222  O2         5.0520   30.6970   16.9450 O.2   104  C104       -0.2443
   2223  N3         5.7360   30.4930   14.8130 N.ar  104  C104       -0.1739
   2224  C4         6.6780   30.7230   13.9000 C.ar  104  C104        0.1759
   2225  N4         6.4520   30.2930   12.6560 N.pl3 104  C104       -0.1070
   2226  C5         7.8920   31.4030   14.2250 C.ar  104  C104        0.0566
   2227  C6         8.0570   31.8070   15.4910 C.ar  104  C104        0.0850
   2228  OP1       13.4170   33.0240   16.9840 O.3   104  C104       -0.4373
   2229  OP2       12.2430   32.4280   14.7940 O.co2 104  C104       -0.5172
   2230  P         10.2580   28.7360   19.6660 P.3   105  U105        0.2141
   2231  C5'        8.1820   27.6710   20.8260 C.3   105  U105        0.1812
   2232  O5'        8.9580   27.8110   19.6400 O.3   105  U105       -0.3114
   2233  C4'        6.8820   26.9380   20.5520 C.3   105  U105        0.1773
   2234  O4'        6.0330   27.7140   19.6610 O.3   105  U105       -0.3307
   2235  C3'        7.0160   25.5920   19.8560 C.3   105  U105        0.1860
   2236  O3'        7.4200   24.5760   20.7680 O.3   105  U105       -0.3112
   2237  C2'        5.5780   25.4370   19.3800 C.3   105  U105        0.2309
   2238  O2'        4.6640   25.1960   20.4300 O.3   105  U105       -0.2156
   2239  C1'        5.3240   26.8300   18.8110 C.3   105  U105        0.2420
   2240  N1         5.7620   26.9480   17.3650 N.ar  105  U105       -0.2534
   2241  C2         4.9630   26.3650   16.3900 C.ar  105  U105        0.3546
   2242  O2         3.9220   25.7770   16.6410 O.2   105  U105       -0.2443
   2243  N3         5.4260   26.5020   15.0990 N.ar  105  U105       -0.1530
   2244  C4         6.5870   27.1380   14.6930 C.ar  105  U105        0.2846
   2245  O4         6.8700   27.1760   13.5010 O.2   105  U105       -0.2650
   2246  C5         7.3700   27.7160   15.7570 C.ar  105  U105        0.0814
   2247  C6         6.9380   27.6040   17.0210 C.ar  105  U105        0.0870
   2248  OP1       11.0730   28.3690   20.8440 O.3   105  U105       -0.4373
   2249  OP2       10.8600   28.7100   18.3140 O.co2 105  U105       -0.5172
   2250  P          8.3270   23.3350   20.2980 P.3   106  G106        0.2141
   2251  C5'        6.2900   21.7140   20.4630 C.3   106  G106        0.1812
   2252  O5'        7.2530   22.3550   19.6460 O.3   106  G106       -0.3114
   2253  C4'        5.2900   20.9960   19.5850 C.3   106  G106        0.1773
   2254  O4'        4.6440   21.9680   18.7260 O.3   106  G106       -0.3307
   2255  C3'        5.8730   19.9830   18.6100 C.3   106  G106        0.1860
   2256  O3'        6.1280   18.7420   19.2500 O.3   106  G106       -0.3112
   2257  C2'        4.7180   19.8950   17.6220 C.3   106  G106        0.2309
   2258  O2'        3.6190   19.1690   18.1410 O.3   106  G106       -0.2156
   2259  C1'        4.3700   21.3750   17.4650 C.3   106  G106        0.2408
   2260  N1         5.1350   21.9830   12.4400 N.ar  106  G106       -0.1709
   2261  C2         4.1920   21.2170   13.0890 C.ar  106  G106        0.2606
   2262  N2         3.3430   20.5250   12.3180 N.pl3 106  G106       -0.0859
   2263  N3         4.0880   21.1410   14.4140 N.ar  106  G106       -0.1918
   2264  C4         5.0160   21.8990   15.0550 C.ar  106  G106        0.1723
   2265  C5         5.9960   22.6900   14.4940 C.ar  106  G106        0.1748
   2266  C6         6.0950   22.7680   13.0790 C.ar  106  G106        0.3023
   2267  O6         6.9020   23.4210   12.4020 O.2   106  G106       -0.2633
   2268  N7         6.7520   23.3090   15.4820 N.ar  106  G106       -0.2173
   2269  C8         6.2240   22.8910   16.5970 C.ar  106  G106        0.1817
   2270  N9         5.1630   22.0300   16.4200 N.ar  106  G106       -0.2693
   2271  OP1        8.8950   22.6880   21.5040 O.3   106  G106       -0.4373
   2272  OP2        9.2290   23.7800   19.2120 O.co2 106  G106       -0.5172
   2273  P          7.3340   17.7810   18.8000 P.3   107  C107        0.2141
   2274  C5'        5.7480   16.3310   17.2880 C.3   107  C107        0.1812
   2275  O5'        6.8550   17.2170   17.3840 O.3   107  C107       -0.3114
   2276  C4'        5.4050   16.1320   15.8310 C.3   107  C107        0.1773
   2277  O4'        5.1150   17.4140   15.2130 O.3   107  C107       -0.3307
   2278  C3'        6.5690   15.6340   14.9980 C.3   107  C107        0.1860
   2279  O3'        6.8160   14.2670   15.2080 O.3   107  C107       -0.3112
   2280  C2'        6.0860   15.9920   13.5920 C.3   107  C107        0.2309
   2281  O2'        5.0680   15.1650   13.0640 O.3   107  C107       -0.2156
   2282  C1'        5.5270   17.3860   13.8560 C.3   107  C107        0.2420
   2283  N1         6.5410   18.4500   13.5650 N.ar  107  C107       -0.2535
   2284  C2         6.7570   18.8320   12.2290 C.ar  107  C107        0.3532
   2285  O2         6.1080   18.2930   11.3210 O.2   107  C107       -0.2443
   2286  N3         7.6770   19.7930   11.9610 N.ar  107  C107       -0.1739
   2287  C4         8.3610   20.3600   12.9540 C.ar  107  C107        0.1759
   2288  N4         9.2440   21.3030   12.6260 N.pl3 107  C107       -0.1070
   2289  C5         8.1610   19.9910   14.3190 C.ar  107  C107        0.0566
   2290  C6         7.2530   19.0400   14.5740 C.ar  107  C107        0.0850
   2291  OP1        7.3770   16.6480   19.7530 O.3   107  C107       -0.4373
   2292  OP2        8.5460   18.5980   18.5570 O.co2 107  C107       -0.5172
   2293  P          8.3070   13.6900   15.0660 P.3   108  A108        0.2141
   2294  C5'        7.8190   12.8510   12.6280 C.3   108  A108        0.1812
   2295  O5'        8.5550   13.7240   13.4810 O.3   108  A108       -0.3114
   2296  C4'        7.9710   13.2160   11.1620 C.3   108  A108        0.1773
   2297  O4'        7.6970   14.6240   10.9680 O.3   108  A108       -0.3307
   2298  C3'        9.3630   13.0460   10.5680 C.3   108  A108        0.1860
   2299  O3'        9.5980   11.6860   10.2220 O.3   108  A108       -0.3112
   2300  C2'        9.2660   13.9500    9.3420 C.3   108  A108        0.2309
   2301  O2'        8.5130   13.3730    8.2900 O.3   108  A108       -0.2156
   2302  C1'        8.4940   15.1320    9.9080 C.3   108  A108        0.2408
   2303  N1        11.4180   19.2590    8.7760 N.ar  108  A108       -0.2040
   2304  C2        10.8110   18.3610    7.9900 C.ar  108  A108        0.2016
   2305  N3        10.0670   17.3090    8.3480 N.ar  108  A108       -0.2048
   2306  C4         9.9670   17.2070    9.6880 C.ar  108  A108        0.1692
   2307  C5        10.5360   18.0590   10.6210 C.ar  108  A108        0.1518
   2308  C6        11.3010   19.1380   10.1170 C.ar  108  A108        0.1919
   2309  N6        11.9110   20.0390   10.8910 N.pl3 108  A108       -0.1054
   2310  N7        10.2190   17.6560   11.9070 N.ar  108  A108       -0.2193
   2311  C8         9.4800   16.5880   11.7300 C.ar  108  A108        0.1816
   2312  N9         9.2910   16.2510   10.4170 N.ar  108  A108       -0.2693
   2313  OP1        8.2400   12.2900   15.5430 O.2   108  A108       -0.5172
   2314  OP2        9.2700   14.6180   15.6990 O.co2 108  A108       -0.4373
   2315  P         11.0320   11.0200   10.4830 P.3   109  U109        0.2141
   2316  C5'       11.6240   11.5720    7.9590 C.3   109  U109        0.1812
   2317  O5'       11.9270   11.7300    9.3610 O.3   109  U109       -0.3114
   2318  C4'       12.4710   12.5140    7.1180 C.3   109  U109        0.1773
   2319  O4'       12.0800   13.8870    7.3800 O.3   109  U109       -0.3307
   2320  C3'       13.9650   12.4660    7.4150 C.3   109  U109        0.1860
   2321  O3'       14.5840   11.4800    6.5990 O.3   109  U109       -0.3112
   2322  C2'       14.4250   13.8640    7.0280 C.3   109  U109        0.2309
   2323  O2'       14.7310   13.9520    5.6520 O.3   109  U109       -0.2156
   2324  C1'       13.2140   14.7360    7.3640 C.3   109  U109        0.2420
   2325  N1        13.3710   15.4860    8.6710 N.ar  109  U109       -0.2534
   2326  C2        13.9530   16.7440    8.6620 C.ar  109  U109        0.3546
   2327  O2        14.3430   17.3010    7.6490 O.2   109  U109       -0.2443
   2328  N3        14.0660   17.3420    9.8940 N.ar  109  U109       -0.1530
   2329  C4        13.6690   16.8310   11.1130 C.ar  109  U109        0.2846
   2330  O4        13.8370   17.4910   12.1310 O.2   109  U109       -0.2650
   2331  C5        13.0750   15.5220   11.0560 C.ar  109  U109        0.0814
   2332  C6        12.9540   14.9160    9.8670 C.ar  109  U109        0.0870
   2333  OP1       10.9530    9.5700   10.1730 O.2   109  U109       -0.5172
   2334  OP2       11.4940   11.4610   11.8160 O.co2 109  U109       -0.4373
   2335  P         15.2610   10.1650    7.2160 P.3   110  G110        0.2141
   2336  C5'       17.7540   10.7440    6.8870 C.3   110  G110        0.1812
   2337  O5'       16.6580   10.7070    7.7640 O.3   110  G110       -0.3114
   2338  C4'       18.6480   11.9250    7.2080 C.3   110  G110        0.1773
   2339  O4'       19.2200   11.7130    8.5240 O.3   110  G110       -0.3307
   2340  C3'       19.7980   12.0900    6.2120 C.3   110  G110        0.1860
   2341  O3'       19.4800   13.1240    5.2240 O.3   110  G110       -0.3112
   2342  C2'       21.0310   12.3410    7.1010 C.3   110  G110        0.2309
   2343  O2'       21.3570   13.7130    7.2610 O.3   110  G110       -0.2156
   2344  C1'       20.6380   11.7490    8.4670 C.3   110  G110        0.2408
   2345  N1        21.2970    6.7460    7.2650 N.ar  110  G110       -0.1709
   2346  C2        20.6800    7.7310    6.5240 C.ar  110  G110        0.2606
   2347  N2        20.1770    7.3660    5.3340 N.pl3 110  G110       -0.0859
   2348  N3        20.5630    8.9940    6.9220 N.ar  110  G110       -0.1918
   2349  C4        21.1150    9.2150    8.1450 C.ar  110  G110        0.1723
   2350  C5        21.7520    8.2900    8.9560 C.ar  110  G110        0.1748
   2351  C6        21.8690    6.9460    8.5200 C.ar  110  G110        0.3023
   2352  O6        22.4040    6.0000    9.1100 O.2   110  G110       -0.2633
   2353  N7        22.1920    8.8810   10.1330 N.ar  110  G110       -0.2173
   2354  C8        21.8200   10.1300   10.0210 C.ar  110  G110        0.1817
   2355  N9        21.1650   10.4200    8.8390 N.ar  110  G110       -0.2693
   2356  OP1       15.4830    9.2350    6.0830 O.2   110  G110       -0.5172
   2357  OP2       14.5030    9.7250    8.4090 O.co2 110  G110       -0.4373
   2358  P         18.4540   12.7950    4.0160 P.3   111  C111        0.2141
   2359  C5'       19.9620   14.3430    2.4720 C.3   111  C111        0.1812
   2360  O5'       18.6730   13.9010    2.8740 O.3   111  C111       -0.3114
   2361  C4'       20.1050   15.8610    2.4770 C.3   111  C111        0.1773
   2362  O4'       18.9260   16.5640    2.9530 O.3   111  C111       -0.3307
   2363  C3'       21.2020   16.3580    3.3960 C.3   111  C111        0.1860
   2364  O3'       22.4480   16.1940    2.7650 O.3   111  C111       -0.3112
   2365  C2'       20.8370   17.8240    3.5650 C.3   111  C111        0.2309
   2366  O2'       21.2570   18.6340    2.4860 O.3   111  C111       -0.2156
   2367  C1'       19.3130   17.7360    3.6600 C.3   111  C111        0.2420
   2368  N1        18.8290   17.6830    5.0970 N.ar  111  C111       -0.2535
   2369  C2        18.9980   18.7920    5.9460 C.ar  111  C111        0.3532
   2370  O2        19.5320   19.8190    5.5130 O.2   111  C111       -0.2443
   2371  N3        18.5660   18.7110    7.2360 N.ar  111  C111       -0.1739
   2372  C4        17.9860   17.5960    7.6890 C.ar  111  C111        0.1759
   2373  N4        17.5750   17.5660    8.9590 N.pl3 111  C111       -0.1070
   2374  C5        17.8030   16.4570    6.8500 C.ar  111  C111        0.0566
   2375  C6        18.2370   16.5460    5.5850 C.ar  111  C111        0.0850
   2376  OP1       17.0870   13.0110    4.5480 O.3   111  C111       -0.4373
   2377  OP2       18.8450   11.4740    3.4610 O.co2 111  C111       -0.5172
   2378  P         23.6950   15.6880    3.6230 P.3   112  C112        0.2141
   2379  C5'       24.6770   18.1350    3.6840 C.3   112  C112        0.1812
   2380  O5'       24.1350   17.0180    4.3990 O.3   112  C112       -0.3114
   2381  C4'       24.8780   19.3160    4.6140 C.3   112  C112        0.1773
   2382  O4'       23.6140   19.7090    5.2000 O.3   112  C112       -0.3307
   2383  C3'       25.7260   19.0110    5.8310 C.3   112  C112        0.1860
   2384  O3'       27.0910   19.0510    5.5000 O.3   112  C112       -0.3112
   2385  C2'       25.3220   20.1250    6.7810 C.3   112  C112        0.2309
   2386  O2'       25.9530   21.3480    6.4850 O.3   112  C112       -0.2156
   2387  C1'       23.8260   20.2200    6.5050 C.3   112  C112        0.2420
   2388  N1        22.9920   19.4750    7.5200 N.ar  112  C112       -0.2535
   2389  C2        22.7850   20.0420    8.7920 C.ar  112  C112        0.3532
   2390  O2        23.2840   21.1400    9.0570 O.2   112  C112       -0.2443
   2391  N3        22.0400   19.3710    9.7100 N.ar  112  C112       -0.1739
   2392  C4        21.5090   18.1850    9.4020 C.ar  112  C112        0.1759
   2393  N4        20.7830   17.5660   10.3380 N.pl3 112  C112       -0.1070
   2394  C5        21.7060   17.5880    8.1180 C.ar  112  C112        0.0566
   2395  C6        22.4450   18.2580    7.2210 C.ar  112  C112        0.0850
   2396  OP1       24.7580   15.3090    2.6600 O.2   112  C112       -0.5172
   2397  OP2       23.2130   14.7290    4.6480 O.co2 112  C112       -0.4373
   2398  P         28.0750   18.0250    6.2270 P.3   113  U113        0.2141
   2399  C5'       28.9440   19.7490    7.9790 C.3   113  U113        0.1812
   2400  O5'       28.1650   18.5920    7.7190 O.3   113  U113       -0.3114
   2401  C4'       28.7730   20.2060    9.4100 C.3   113  U113        0.1773
   2402  O4'       27.3670   20.3900    9.6860 O.3   113  U113       -0.3307
   2403  C3'       29.1860   19.2150   10.4790 C.3   113  U113        0.1860
   2404  O3'       30.5950   19.2090   10.6190 O.3   113  U113       -0.3112
   2405  C2'       28.4900   19.8450   11.6800 C.3   113  U113        0.2309
   2406  O2'       29.1850   20.9690   12.1750 O.3   113  U113       -0.2156
   2407  C1'       27.1600   20.3040   11.0790 C.3   113  U113        0.2420
   2408  N1        26.0210   19.3790   11.3800 N.ar  113  U113       -0.2534
   2409  C2        25.3020   19.5780   12.5440 C.ar  113  U113        0.3546
   2410  O2        25.5430   20.4700   13.3390 O.2   113  U113       -0.2443
   2411  N3        24.2810   18.6820   12.7550 N.ar  113  U113       -0.1530
   2412  C4        23.9120   17.6270   11.9410 C.ar  113  U113        0.2846
   2413  O4        22.9740   16.9130   12.2730 O.2   113  U113       -0.2650
   2414  C5        24.7040   17.4810   10.7440 C.ar  113  U113        0.0814
   2415  C6        25.7070   18.3420   10.5170 C.ar  113  U113        0.0870
   2416  OP1       29.3970   18.1580    5.5690 O.2   113  U113       -0.5172
   2417  OP2       27.3960   16.7150    6.3180 O.co2 113  U113       -0.4373
   2418  P         31.4550   17.8570   10.6580 P.3   114  G114        0.2141
   2419  C5'       30.5310   16.4960   12.7680 C.3   114  G114        0.1812
   2420  O5'       31.4200   17.4840   12.2200 O.3   114  G114       -0.3114
   2421  C4'       30.7410   16.3250   14.2620 C.3   114  G114        0.1773
   2422  O4'       31.9550   15.5610   14.5020 O.3   114  G114       -0.3307
   2423  C3'       30.9680   17.6120   15.0420 C.3   114  G114        0.1860
   2424  O3'       29.7420   18.2400   15.3740 O.3   114  G114       -0.3112
   2425  C2'       31.6910   17.0910   16.2770 C.3   114  G114        0.2309
   2426  O2'       30.8170   16.5380   17.2470 O.3   114  G114       -0.2156
   2427  C1'       32.6230   16.0510   15.6480 C.3   114  G114        0.2408
   2428  N1        36.9240   18.3310   17.1690 N.ar  114  G114       -0.1709
   2429  C2        35.9030   17.8130   17.9290 C.ar  114  G114        0.2606
   2430  N2        36.0340   17.9110   19.2610 N.pl3 114  G114       -0.0859
   2431  N3        34.8250   17.2310   17.4140 N.ar  114  G114       -0.1918
   2432  C4        34.8410   17.2100   16.0540 C.ar  114  G114        0.1723
   2433  C5        35.8120   17.7030   15.2090 C.ar  114  G114        0.1748
   2434  C6        36.9560   18.3160   15.7730 C.ar  114  G114        0.3023
   2435  O6        37.9170   18.8070   15.1760 O.2   114  G114       -0.2633
   2436  N7        35.4700   17.4910   13.8790 N.ar  114  G114       -0.2173
   2437  C8        34.3170   16.8810   13.9440 C.ar  114  G114        0.1817
   2438  N9        33.8740   16.6720   15.2290 N.ar  114  G114       -0.2693
   2439  OP1       32.8440   18.2560   10.3590 O.3   114  G114       -0.4373
   2440  OP2       30.8080   16.7990    9.8380 O.co2 114  G114       -0.5172
   2441  P         29.6480   19.8380   15.4990 P.3   115  G115        0.2141
   2442  C5'       30.0310   19.7080   18.0940 C.3   115  G115        0.1812
   2443  O5'       30.4360   20.1940   16.8350 O.3   115  G115       -0.3114
   2444  C4'       31.0410   20.1500   19.1290 C.3   115  G115        0.1773
   2445  O4'       32.3380   19.5360   18.8850 O.3   115  G115       -0.3307
   2446  C3'       31.3270   21.6420   19.1160 C.3   115  G115        0.1860
   2447  O3'       30.3470   22.3080   19.8780 O.3   115  G115       -0.3112
   2448  C2'       32.6670   21.6600   19.8100 C.3   115  G115        0.2309
   2449  O2'       32.5100   21.3580   21.1810 O.3   115  G115       -0.2156
   2450  C1'       33.3620   20.4800   19.1510 C.3   115  G115        0.2408
   2451  N1        37.6370   22.4720   17.1330 N.ar  115  G115       -0.1709
   2452  C2        37.2590   22.3760   18.4520 C.ar  115  G115        0.2606
   2453  N2        38.1360   22.8640   19.3360 N.pl3 115  G115       -0.0859
   2454  N3        36.1110   21.8380   18.8700 N.ar  115  G115       -0.1918
   2455  C4        35.3470   21.3890   17.8400 C.ar  115  G115        0.1723
   2456  C5        35.6360   21.4420   16.4880 C.ar  115  G115        0.1748
   2457  C6        36.8630   22.0210   16.0660 C.ar  115  G115        0.3023
   2458  O6        37.2860   22.1570   14.9140 O.2   115  G115       -0.2633
   2459  N7        34.6090   20.8840   15.7350 N.ar  115  G115       -0.2173
   2460  C8        33.7400   20.5120   16.6330 C.ar  115  G115        0.1817
   2461  N9        34.1130   20.7860   17.9310 N.ar  115  G115       -0.2693
   2462  OP1       28.2130   20.1610   15.6600 O.3   115  G115       -0.4373
   2463  OP2       30.4470   20.4350   14.4090 O.co2 115  G115       -0.5172
   2464  P         29.8530   23.7640   19.4630 P.3   116  G116        0.2141
   2465  C5'       30.9240   24.9020   21.5590 C.3   116  G116        0.1812
   2466  O5'       30.9630   24.6650   20.1550 O.3   116  G116       -0.3114
   2467  C4'       32.2770   25.4290   21.9940 C.3   116  G116        0.1773
   2468  O4'       33.3160   24.5010   21.5670 O.3   116  G116       -0.3307
   2469  C3'       32.7070   26.7420   21.3550 C.3   116  G116        0.1860
   2470  O3'       32.0770   27.8650   21.9600 O.3   116  G116       -0.3112
   2471  C2'       34.1980   26.6540   21.6440 C.3   116  G116        0.2309
   2472  O2'       34.4950   26.8080   23.0160 O.3   116  G116       -0.2156
   2473  C1'       34.4720   25.2200   21.2060 C.3   116  G116        0.2408
   2474  N1        37.8240   25.8770   17.4330 N.ar  116  G116       -0.1709
   2475  C2        37.9850   26.0580   18.7890 C.ar  116  G116        0.2606
   2476  N2        39.1860   26.4640   19.2130 N.pl3 116  G116       -0.0859
   2477  N3        37.0280   25.8450   19.6780 N.ar  116  G116       -0.1918
   2478  C4        35.8700   25.4330   19.1020 C.ar  116  G116        0.1723
   2479  C5        35.6120   25.2280   17.7680 C.ar  116  G116        0.1748
   2480  C6        36.6400   25.4530   16.8250 C.ar  116  G116        0.3023
   2481  O6        36.5880   25.3110   15.5920 O.2   116  G116       -0.2633
   2482  N7        34.3070   24.8100   17.5830 N.ar  116  G116       -0.2173
   2483  C8        33.8050   24.7730   18.7860 C.ar  116  G116        0.1817
   2484  N9        34.6970   25.1320   19.7640 N.ar  116  G116       -0.2693
   2485  OP1       28.5540   24.0280   20.1230 O.3   116  G116       -0.4373
   2486  OP2       30.0120   23.9090   17.9980 O.co2 116  G116       -0.5172
   2487  P         31.8300   29.2140   21.1250 P.3   117  G117        0.2141
   2488  C5'       34.1620   30.1730   21.9210 C.3   117  G117        0.1812
   2489  O5'       33.3200   29.7450   20.8400 O.3   117  G117       -0.3114
   2490  C4'       35.5930   30.4250   21.4770 C.3   117  G117        0.1773
   2491  O4'       36.1160   29.2850   20.7590 O.3   117  G117       -0.3307
   2492  C3'       35.7610   31.5630   20.4890 C.3   117  G117        0.1860
   2493  O3'       35.7810   32.7890   21.1750 O.3   117  G117       -0.3112
   2494  C2'       37.1180   31.2390   19.8900 C.3   117  G117        0.2309
   2495  O2'       38.1900   31.5760   20.7490 O.3   117  G117       -0.2156
   2496  C1'       36.9990   29.7270   19.7440 C.3   117  G117        0.2408
   2497  N1        37.9130   29.2790   14.7400 N.ar  117  G117       -0.1709
   2498  C2        38.7190   29.8010   15.7270 C.ar  117  G117        0.2606
   2499  N2        39.9180   30.2550   15.3400 N.pl3 117  G117       -0.0859
   2500  N3        38.3710   29.8680   17.0070 N.ar  117  G117       -0.1918
   2501  C4        37.1310   29.3650   17.2290 C.ar  117  G117        0.1723
   2502  C5        36.2530   28.8280   16.3110 C.ar  117  G117        0.1748
   2503  C6        36.6360   28.7580   14.9500 C.ar  117  G117        0.3023
   2504  O6        35.9890   28.3040   13.9970 O.2   117  G117       -0.2633
   2505  N7        35.0820   28.4180   16.9250 N.ar  117  G117       -0.2173
   2506  C8        35.2680   28.7150   18.1810 C.ar  117  G117        0.1817
   2507  N9        36.4880   29.2910   18.4430 N.ar  117  G117       -0.2693
   2508  OP1       31.1270   30.1710   22.0060 O.3   117  G117       -0.4373
   2509  OP2       31.2550   28.8640   19.8090 O.co2 117  G117       -0.5172
   2510  P         35.1530   34.0860   20.4890 P.3   118  G118        0.2141
   2511  C5'       37.5970   34.9330   20.0260 C.3   118  G118        0.1812
   2512  O5'       36.3290   34.5370   19.5080 O.3   118  G118       -0.3114
   2513  C4'       38.5670   35.1610   18.8850 C.3   118  G118        0.1773
   2514  O4'       38.8360   33.9070   18.2080 O.3   118  G118       -0.3307
   2515  C3'       38.0430   36.0680   17.7840 C.3   118  G118        0.1860
   2516  O3'       38.2140   37.4330   18.1370 O.3   118  G118       -0.3112
   2517  C2'       38.9120   35.6390   16.6060 C.3   118  G118        0.2309
   2518  O2'       40.2270   36.1660   16.6510 O.3   118  G118       -0.2156
   2519  C1'       38.9470   34.1290   16.8120 C.3   118  G118        0.2408
   2520  N1        37.3070   32.2200   12.3520 N.ar  118  G118       -0.1709
   2521  C2        38.4610   32.9170   12.6270 C.ar  118  G118        0.2606
   2522  N2        39.2880   33.1310   11.5960 N.pl3 118  G118       -0.0859
   2523  N3        38.7850   33.3680   13.8370 N.ar  118  G118       -0.1918
   2524  C4        37.8450   33.0690   14.7740 C.ar  118  G118        0.1723
   2525  C5        36.6630   32.3820   14.5940 C.ar  118  G118        0.1748
   2526  C6        36.3340   31.9040   13.3000 C.ar  118  G118        0.3023
   2527  O6        35.3260   31.2780   12.9540 O.2   118  G118       -0.2633
   2528  N7        35.9670   32.2770   15.7890 N.ar  118  G118       -0.2173
   2529  C8        36.7280   32.8930   16.6510 C.ar  118  G118        0.1817
   2530  N9        37.8870   33.4000   16.1130 N.ar  118  G118       -0.2693
   2531  OP1       34.9940   35.0880   21.5650 O.3   118  G118       -0.4373
   2532  OP2       33.9860   33.7070   19.6550 O.co2 118  G118       -0.5172
   2533  P         37.0720   38.5000   17.7810 P.3   119  U119        0.2141
   2534  C5'       38.3390   39.3040   15.6190 C.3   119  U119        0.1812
   2535  O5'       37.2050   38.6530   16.1910 O.3   119  U119       -0.3114
   2536  C4'       38.4680   39.0220   14.1330 C.3   119  U119        0.1773
   2537  O4'       38.5110   37.5910   13.9120 O.3   119  U119       -0.3307
   2538  C3'       37.3130   39.4530   13.2390 C.3   119  U119        0.1860
   2539  O3'       37.2850   40.8620   12.9950 O.3   119  U119       -0.3112
   2540  C2'       37.6500   38.6390   11.9930 C.3   119  U119        0.2309
   2541  O2'       38.7810   39.1230   11.2880 O.3   119  U119       -0.2156
   2542  C1'       37.9760   37.2930   12.6320 C.3   119  U119        0.2420
   2543  N1        36.7940   36.3570   12.7590 N.ar  119  U119       -0.2534
   2544  C2        36.3410   35.6680   11.6430 C.ar  119  U119        0.3546
   2545  O2        36.8390   35.7680   10.5370 O.2   119  U119       -0.2443
   2546  N3        35.2600   34.8410   11.8640 N.ar  119  U119       -0.1530
   2547  C4        34.5970   34.6310   13.0640 C.ar  119  U119        0.2846
   2548  O4        33.6470   33.8540   13.1090 O.2   119  U119       -0.2650
   2549  C5        35.1240   35.3800   14.1810 C.ar  119  U119        0.0814
   2550  C6        36.1750   36.1920   13.9910 C.ar  119  U119        0.0870
   2551  OP1       37.4500   39.7690   18.4420 O.3   119  U119       -0.4373
   2552  OP2       35.7470   37.8990   18.0500 O.co2 119  U119       -0.5172
   2553  P         35.8720   41.5970   12.7950 P.3   120  A120        0.2141
   2554  C5'       36.2000   41.5080   10.1900 C.3   120  A120        0.1812
   2555  O5'       35.4150   41.1420   11.3280 O.3   120  A120       -0.3114
   2556  C4'       35.7020   40.8230    8.9330 C.3   120  A120        0.1773
   2557  O4'       35.8100   39.3810    9.0550 O.3   120  A120       -0.3307
   2558  C3'       34.2310   41.0490    8.6260 C.3   120  A120        0.1860
   2559  O3'       34.0280   42.3030    8.0060 O.3   120  A120       -0.3112
   2560  C2'       33.9390   39.8760    7.6950 C.3   120  A120        0.2309
   2561  O2'       34.3860   40.0840    6.3650 O.3   120  A120       -0.2156
   2562  C1'       34.7250   38.7600    8.3820 C.3   120  A120        0.2408
   2563  N1        31.3060   34.9290    9.0890 N.ar  120  A120       -0.2040
   2564  C2        31.8780   35.4100    7.9740 C.ar  120  A120        0.2016
   2565  N3        32.7600   36.4090    7.8650 N.ar  120  A120       -0.2048
   2566  C4        33.0580   36.9510    9.0680 C.ar  120  A120        0.1692
   2567  C5        32.5450   36.5600   10.2940 C.ar  120  A120        0.1518
   2568  C6        31.6220   35.4860   10.2830 C.ar  120  A120        0.1919
   2569  N6        31.0460   35.0050   11.3860 N.pl3 120  A120       -0.1054
   2570  N7        33.0670   37.3340   11.3160 N.ar  120  A120       -0.2193
   2571  C8        33.8730   38.1630   10.6970 C.ar  120  A120        0.1816
   2572  N9        33.9230   37.9920    9.3420 N.ar  120  A120       -0.2693
   2573  OP1       36.0980   43.0610   12.7850 O.2   120  A120       -0.5172
   2574  OP2       34.9330   41.0090   13.7730 O.co2 120  A120       -0.4373
   2575  P         32.6930   43.1260    8.3160 P.3   121  U121        0.2141
   2576  C5'       31.6160   42.3630    6.0400 C.3   121  U121        0.1812
   2577  O5'       31.5720   42.3620    7.4680 O.3   121  U121       -0.3114
   2578  C4'       30.7500   41.2570    5.4680 C.3   121  U121        0.1773
   2579  O4'       31.1720   39.9650    5.9860 O.3   121  U121       -0.3307
   2580  C3'       29.2820   41.3290    5.8580 C.3   121  U121        0.1860
   2581  O3'       28.5740   42.2680    5.0760 O.3   121  U121       -0.3112
   2582  C2'       28.8440   39.8960    5.5920 C.3   121  U121        0.2309
   2583  O2'       28.6600   39.6110    4.2190 O.3   121  U121       -0.2156
   2584  C1'       30.0390   39.1270    6.1570 C.3   121  U121        0.2420
   2585  N1        29.8240   38.7380    7.6110 N.ar  121  U121       -0.2534
   2586  C2        29.0790   37.6010    7.8920 C.ar  121  U121        0.3546
   2587  O2        28.5900   36.8810    7.0310 O.2   121  U121       -0.2443
   2588  N3        28.9230   37.3250    9.2330 N.ar  121  U121       -0.1530
   2589  C4        29.4150   38.0510   10.3030 C.ar  121  U121        0.2846
   2590  O4        29.1850   37.6770   11.4490 O.2   121  U121       -0.2650
   2591  C5        30.1740   39.2200    9.9350 C.ar  121  U121        0.0814
   2592  C6        30.3440   39.5130    8.6380 C.ar  121  U121        0.0870
   2593  OP1       32.8820   44.4790    7.7480 O.2   121  U121       -0.5172
   2594  OP2       32.3460   42.9590    9.7430 O.co2 121  U121       -0.4373
   2595  P         27.4800   43.1890    5.7980 P.3   122  G122        0.2141
   2596  C5'       25.4900   41.7360    4.8270 C.3   122  G122        0.1812
   2597  O5'       26.2240   42.2030    5.9640 O.3   122  G122       -0.3114
   2598  C4'       24.7320   40.4540    5.1280 C.3   122  G122        0.1773
   2599  O4'       25.6160   39.4660    5.7210 O.3   122  G122       -0.3307
   2600  C3'       23.6180   40.5490    6.1580 C.3   122  G122        0.1860
   2601  O3'       22.4430   41.1190    5.6210 O.3   122  G122       -0.3112
   2602  C2'       23.4180   39.0730    6.4700 C.3   122  G122        0.2309
   2603  O2'       22.7010   38.3740    5.4700 O.3   122  G122       -0.2156
   2604  C1'       24.8650   38.5900    6.5470 C.3   122  G122        0.2408
   2605  N1        24.5620   36.3740   11.1120 N.ar  122  G122       -0.1709
   2606  C2        23.9470   36.0320    9.9280 C.ar  122  G122        0.2606
   2607  N2        23.1470   34.9610    9.9560 N.pl3 122  G122       -0.0859
   2608  N3        24.1110   36.6970    8.7890 N.ar  122  G122       -0.1918
   2609  C4        24.9570   37.7510    8.9300 C.ar  122  G122        0.1723
   2610  C5        25.6150   38.1740   10.0620 C.ar  122  G122        0.1748
   2611  C6        25.4310   37.4560   11.2670 C.ar  122  G122        0.3023
   2612  O6        25.9370   37.6830   12.3710 O.2   122  G122       -0.2633
   2613  N7        26.3880   39.2920    9.7960 N.ar  122  G122       -0.2173
   2614  C8        26.1840   39.5230    8.5300 C.ar  122  G122        0.1817
   2615  N9        25.3310   38.6220    7.9360 N.ar  122  G122       -0.2693
   2616  OP1       27.1510   44.3020    4.8760 O.2   122  G122       -0.5172
   2617  OP2       27.9620   43.4880    7.1680 O.co2 122  G122       -0.4373
   2618  P         21.4430   41.9100    6.5910 P.3   123  G123        0.2141
   2619  C5'       19.7330   39.9200    6.7560 C.3   123  G123        0.1812
   2620  O5'       20.7150   40.7310    7.3880 O.3   123  G123       -0.3114
   2621  C4'       19.3090   38.7880    7.6740 C.3   123  G123        0.1773
   2622  O4'       20.4700   38.0520    8.1550 O.3   123  G123       -0.3307
   2623  C3'       18.6070   39.1850    8.9650 C.3   123  G123        0.1860
   2624  O3'       17.2670   39.6020    8.7380 O.3   123  G123       -0.3112
   2625  C2'       18.6850   37.8360    9.6650 C.3   123  G123        0.2309
   2626  O2'       17.8160   36.8780    9.0880 O.3   123  G123       -0.2156
   2627  C1'       20.1540   37.4770    9.4080 C.3   123  G123        0.2408
   2628  N1        21.6610   37.1840   14.2960 N.ar  123  G123       -0.1709
   2629  C2        20.6870   36.4710   13.6310 C.ar  123  G123        0.2606
   2630  N2        20.0190   35.5570   14.3440 N.pl3 123  G123       -0.0859
   2631  N3        20.3850   36.6390   12.3470 N.ar  123  G123       -0.1918
   2632  C4        21.1470   37.5950   11.7540 C.ar  123  G123        0.1723
   2633  C5        22.1390   38.3610   12.3270 C.ar  123  G123        0.1748
   2634  C6        22.4480   38.1710   13.7000 C.ar  123  G123        0.3023
   2635  O6        23.2980   38.7600   14.3770 O.2   123  G123       -0.2633
   2636  N7        22.6840   39.2320   11.3940 N.ar  123  G123       -0.2173
   2637  C8        22.0220   38.9800   10.2960 C.ar  123  G123        0.1817
   2638  N9        21.0720   37.9930   10.4330 N.ar  123  G123       -0.2693
   2639  OP1       20.4540   42.6390    5.7520 O.2   123  G123       -0.5172
   2640  OP2       22.2570   42.6450    7.5870 O.co2 123  G123       -0.4373
   2641  P         16.5610   40.6910    9.6860 P.3   124  G124        0.2141
   2642  C5'       15.3200   38.9910   11.2550 C.3   124  G124        0.1812
   2643  O5'       16.3840   39.9280   11.0840 O.3   124  G124       -0.3114
   2644  C4'       15.3720   38.2910   12.6010 C.3   124  G124        0.1773
   2645  O4'       16.7040   37.7680   12.8340 O.3   124  G124       -0.3307
   2646  C3'       15.0950   39.1610   13.8200 C.3   124  G124        0.1860
   2647  O3'       13.7050   39.3110   14.0320 O.3   124  G124       -0.3112
   2648  C2'       15.6940   38.2850   14.9040 C.3   124  G124        0.2309
   2649  O2'       14.8470   37.1970   15.2170 O.3   124  G124       -0.2156
   2650  C1'       16.9720   37.7880   14.2260 C.3   124  G124        0.2408
   2651  N1        20.4240   39.3330   17.6950 N.ar  124  G124       -0.1709
   2652  C2        19.3660   38.4620   17.8380 C.ar  124  G124        0.2606
   2653  N2        19.1920   37.9290   19.0560 N.pl3 124  G124       -0.0859
   2654  N3        18.5300   38.1370   16.8540 N.ar  124  G124       -0.1918
   2655  C4        18.8320   38.7570   15.6860 C.ar  124  G124        0.1723
   2656  C5        19.8630   39.6430   15.4420 C.ar  124  G124        0.1748
   2657  C6        20.7520   39.9800   16.5040 C.ar  124  G124        0.3023
   2658  O6        21.7260   40.7430   16.4820 O.2   124  G124       -0.2633
   2659  N7        19.8400   40.0640   14.1160 N.ar  124  G124       -0.2173
   2660  C8        18.8200   39.4330   13.6000 C.ar  124  G124        0.1817
   2661  N9        18.1540   38.6210   14.4920 N.ar  124  G124       -0.2693
   2662  OP1       15.2280   40.9650    9.1010 O.2   124  G124       -0.5172
   2663  OP2       17.5060   41.8100    9.9170 O.co2 124  G124       -0.4373
   2664  P         13.0690   40.7480   14.3420 P.3   125  G125        0.2141
   2665  C5'       13.4530   40.5930   16.9560 C.3   125  G125        0.1812
   2666  O5'       13.8030   41.1700   15.7060 O.3   125  G125       -0.3114
   2667  C4'       14.4100   41.0560   18.0360 C.3   125  G125        0.1773
   2668  O4'       15.7590   40.6060   17.7490 O.3   125  G125       -0.3307
   2669  C3'       14.5420   42.5620   18.1620 C.3   125  G125        0.1860
   2670  O3'       13.4550   43.0720   18.9160 O.3   125  G125       -0.3112
   2671  C2'       15.8890   42.6790   18.8720 C.3   125  G125        0.2309
   2672  O2'       15.8250   42.4830   20.2750 O.3   125  G125       -0.2156
   2673  C1'       16.6940   41.5610   18.2070 C.3   125  G125        0.2408
   2674  N1        21.1210   43.6550   16.7450 N.ar  125  G125       -0.1709
   2675  C2        20.7340   43.2260   17.9960 C.ar  125  G125        0.2606
   2676  N2        21.6250   43.3750   18.9860 N.pl3 125  G125       -0.0859
   2677  N3        19.5520   42.6850   18.2560 N.ar  125  G125       -0.1918
   2678  C4        18.7630   42.6040   17.1530 C.ar  125  G125        0.1723
   2679  C5        19.0640   42.9980   15.8660 C.ar  125  G125        0.1748
   2680  C6        20.3310   43.5750   15.5970 C.ar  125  G125        0.3023
   2681  O6        20.7690   43.9830   14.5090 O.2   125  G125       -0.2633
   2682  N7        17.9970   42.7470   15.0130 N.ar  125  G125       -0.2173
   2683  C8        17.0890   42.2210   15.7840 C.ar  125  G125        0.1817
   2684  N9        17.4830   42.0910   17.0960 N.ar  125  G125       -0.2693
   2685  OP1       11.6150   40.5790   14.5910 O.3   125  G125       -0.4373
   2686  OP2       13.5220   41.6810   13.2820 O.co2 125  G125       -0.5172
   2687  P         12.5220   44.2190   18.3110 P.3   126  A126        0.2141
   2688  C5'       13.2330   46.7140   18.0150 C.3   126  A126        0.1812
   2689  O5'       13.3490   45.5120   18.7400 O.3   126  A126       -0.3114
   2690  C4'       14.1840   47.7450   18.5860 C.3   126  A126        0.1773
   2691  O4'       13.8960   47.9470   19.9920 O.3   126  A126       -0.3307
   2692  C3'       15.6490   47.3480   18.5490 C.3   126  A126        0.1860
   2693  O3'       16.2000   47.6990   17.3010 O.3   126  A126       -0.3112
   2694  C2'       16.2310   48.1890   19.6740 C.3   126  A126        0.2309
   2695  O2'       16.4250   49.5360   19.3070 O.3   126  A126       -0.2156
   2696  C1'       15.1080   48.1450   20.6960 C.3   126  A126        0.2408
   2697  N1        17.6620   46.7670   24.9590 N.ar  126  A126       -0.2040
   2698  C2        17.8460   47.7880   24.1110 C.ar  126  A126        0.2016
   2699  N3        17.1430   48.0810   23.0170 N.ar  126  A126       -0.2048
   2700  C4        16.1530   47.1870   22.8110 C.ar  126  A126        0.1692
   2701  C5        15.8490   46.0920   23.5950 C.ar  126  A126        0.1518
   2702  C6        16.6570   45.8880   24.7310 C.ar  126  A126        0.1919
   2703  N6        16.4820   44.8650   25.5750 N.pl3 126  A126       -0.1054
   2704  N7        14.7720   45.3970   23.0810 N.ar  126  A126       -0.2193
   2705  C8        14.4420   46.0750   22.0100 C.ar  126  A126        0.1816
   2706  N9        15.2350   47.1650   21.7820 N.ar  126  A126       -0.2693
   2707  OP1       11.2320   44.2140   19.0330 O.3   126  A126       -0.4373
   2708  OP2       12.5150   44.1250   16.8330 O.co2 126  A126       -0.5172
   2709  P         17.3990   46.8350   16.6810 P.3   127  A127        0.2141
   2710  C5'       19.2790   48.2620   17.8190 C.3   127  A127        0.1812
   2711  O5'       18.5750   47.0370   17.7370 O.3   127  A127       -0.3114
   2712  C4'       20.2470   48.1700   18.9760 C.3   127  A127        0.1773
   2713  O4'       19.5210   47.8370   20.1810 O.3   127  A127       -0.3307
   2714  C3'       21.2900   47.0810   18.8020 C.3   127  A127        0.1860
   2715  O3'       22.3840   47.6770   18.1230 O.3   127  A127       -0.3112
   2716  C2'       21.6080   46.7110   20.2450 C.3   127  A127        0.2309
   2717  O2'       22.5990   47.5650   20.7730 O.3   127  A127       -0.2156
   2718  C1'       20.3010   46.9810   20.9920 C.3   127  A127        0.2408
   2719  N1        18.9480   43.5350   24.6350 N.ar  127  A127       -0.2040
   2720  C2        19.8620   44.5150   24.6360 C.ar  127  A127        0.2016
   2721  N3        20.1670   45.3750   23.6610 N.ar  127  A127       -0.2048
   2722  C4        19.4200   45.1580   22.5620 C.ar  127  A127        0.1692
   2723  C5        18.4450   44.1860   22.4150 C.ar  127  A127        0.1518
   2724  C6        18.2100   43.3410   23.5210 C.ar  127  A127        0.1919
   2725  N6        17.2990   42.3630   23.5160 N.pl3 127  A127       -0.1054
   2726  N7        17.8730   44.2490   21.1600 N.ar  127  A127       -0.2193
   2727  C8        18.5040   45.2420   20.5800 C.ar  127  A127        0.1816
   2728  N9        19.4590   45.8360   21.3590 N.ar  127  A127       -0.2693
   2729  OP1       17.7750   47.4900   15.4040 O.2   127  A127       -0.5172
   2730  OP2       17.0470   45.3930   16.7270 O.co2 127  A127       -0.4373
   2731  P         23.5990   46.8780   17.4550 P.3   128  U128        0.2141
   2732  C5'       25.8100   46.2820   18.8030 C.3   128  U128        0.1812
   2733  O5'       24.7830   47.2160   18.4830 O.3   128  U128       -0.3114
   2734  C4'       26.4490   46.5740   20.1530 C.3   128  U128        0.1773
   2735  O4'       25.7420   47.5980   20.9020 O.3   128  U128       -0.3307
   2736  C3'       26.4160   45.4090   21.1220 C.3   128  U128        0.1860
   2737  O3'       27.3840   44.4290   20.7590 O.3   128  U128       -0.3112
   2738  C2'       26.7070   46.0880   22.4610 C.3   128  U128        0.2309
   2739  O2'       28.0930   46.2630   22.6810 O.3   128  U128       -0.2156
   2740  C1'       26.0200   47.4460   22.2930 C.3   128  U128        0.2420
   2741  N1        24.7450   47.7140   23.1040 N.ar  128  U128       -0.2534
   2742  C2        23.6820   46.8140   23.1640 C.ar  128  U128        0.3546
   2743  O2        23.6500   45.7400   22.6020 O.2   128  U128       -0.2443
   2744  N3        22.6030   47.2160   23.9110 N.ar  128  U128       -0.1530
   2745  C4        22.4630   48.3990   24.6110 C.ar  128  U128        0.2846
   2746  O4        21.4280   48.6050   25.2420 O.2   128  U128       -0.2650
   2747  C5        23.5950   49.2930   24.5150 C.ar  128  U128        0.0814
   2748  C6        24.6610   48.9250   23.7810 C.ar  128  U128        0.0870
   2749  OP1       23.8820   47.5670   16.1750 O.2   128  U128       -0.5172
   2750  OP2       23.3380   45.4170   17.4640 O.co2 128  U128       -0.4373
   2751  P         26.9140   42.9190   20.4970 P.3   129  A129        0.2141
   2752  C5'       27.1610   42.5320   23.1150 C.3   129  A129        0.1812
   2753  O5'       26.3330   42.4990   21.9340 O.3   129  A129       -0.3114
   2754  C4'       26.3360   42.4540   24.3890 C.3   129  A129        0.1773
   2755  O4'       25.1560   43.2970   24.2960 O.3   129  A129       -0.3307
   2756  C3'       25.7700   41.0750   24.6770 C.3   129  A129        0.1860
   2757  O3'       26.7330   40.2640   25.3240 O.3   129  A129       -0.3112
   2758  C2'       24.5850   41.4080   25.5760 C.3   129  A129        0.2309
   2759  O2'       24.9650   41.7330   26.9000 O.3   129  A129       -0.2156
   2760  C1'       24.0320   42.6510   24.8790 C.3   129  A129        0.2408
   2761  N1        19.5220   40.3740   23.5810 N.ar  129  A129       -0.2040
   2762  C2        20.1930   40.3950   24.7380 C.ar  129  A129        0.2016
   2763  N3        21.3510   40.9990   25.0130 N.ar  129  A129       -0.2048
   2764  C4        21.8460   41.6540   23.9420 C.ar  129  A129        0.1692
   2765  C5        21.2580   41.7170   22.6920 C.ar  129  A129        0.1518
   2766  C6        20.0360   41.0340   22.5190 C.ar  129  A129        0.1919
   2767  N6        19.3600   41.0160   21.3640 N.pl3 129  A129       -0.1054
   2768  N7        22.0310   42.4640   21.8270 N.ar  129  A129       -0.2193
   2769  C8        23.0550   42.8310   22.5560 C.ar  129  A129        0.1816
   2770  N9        23.0200   42.3850   23.8460 N.ar  129  A129       -0.2693
   2771  OP1       28.1200   42.1130   20.2010 O.3   129  A129       -0.4373
   2772  OP2       25.7990   42.9240   19.5240 O.co2 129  A129       -0.5172
   2773  P         27.2320   38.9070   24.6370 P.3   130  C130        0.2141
   2774  C5'       25.2220   37.4310   25.4260 C.3   130  C130        0.1812
   2775  O5'       25.8990   38.0780   24.3600 O.3   130  C130       -0.3114
   2776  C4'       23.8930   36.9230   24.9210 C.3   130  C130        0.1773
   2777  O4'       23.1290   38.0590   24.4490 O.3   130  C130       -0.3307
   2778  C3'       24.0060   36.0600   23.6840 C.3   130  C130        0.1860
   2779  O3'       24.3740   34.7290   24.0230 O.3   130  C130       -0.3112
   2780  C2'       22.6000   36.2090   23.1070 C.3   130  C130        0.2309
   2781  O2'       21.6290   35.4360   23.7810 O.3   130  C130       -0.2156
   2782  C1'       22.3430   37.6960   23.3320 C.3   130  C130        0.2420
   2783  N1        22.6930   38.5350   22.1380 N.ar  130  C130       -0.2535
   2784  C2        21.8100   38.5810   21.0480 C.ar  130  C130        0.3532
   2785  O2        20.7530   37.9470   21.0900 O.2   130  C130       -0.2443
   2786  N3        22.1330   39.3290   19.9630 N.ar  130  C130       -0.1739
   2787  C4        23.2800   40.0120   19.9340 C.ar  130  C130        0.1759
   2788  N4        23.5380   40.7350   18.8440 N.pl3 130  C130       -0.1070
   2789  C5        24.2010   39.9820   21.0230 C.ar  130  C130        0.0566
   2790  C6        23.8690   39.2370   22.0900 C.ar  130  C130        0.0850
   2791  OP1       28.0450   38.1750   25.6410 O.3   130  C130       -0.4373
   2792  OP2       27.7890   39.2500   23.3060 O.co2 130  C130       -0.5172
   2793  P         25.0490   33.7690   22.9260 P.3   131  C131        0.2141
   2794  C5'       22.7440   32.6630   22.2630 C.3   131  C131        0.1812
   2795  O5'       23.8430   33.4830   21.9130 O.3   131  C131       -0.3114
   2796  C4'       21.7600   32.6430   21.1110 C.3   131  C131        0.1773
   2797  O4'       21.3470   33.9990   20.8010 O.3   131  C131       -0.3307
   2798  C3'       22.3220   32.1660   19.7830 C.3   131  C131        0.1860
   2799  O3'       22.3530   30.7630   19.7320 O.3   131  C131       -0.3112
   2800  C2'       21.3010   32.7400   18.8120 C.3   131  C131        0.2309
   2801  O2'       20.0930   32.0050   18.7790 O.3   131  C131       -0.2156
   2802  C1'       21.0580   34.1140   19.4180 C.3   131  C131        0.2420
   2803  N1        21.8910   35.1870   18.7870 N.ar  131  C131       -0.2535
   2804  C2        21.5180   35.6920   17.5360 C.ar  131  C131        0.3532
   2805  O2        20.5100   35.2400   16.9870 O.2   131  C131       -0.2443
   2806  N3        22.2710   36.6680   16.9610 N.ar  131  C131       -0.1739
   2807  C4        23.3570   37.1400   17.5910 C.ar  131  C131        0.1759
   2808  N4        24.0650   38.1030   16.9930 N.pl3 131  C131       -0.1070
   2809  C5        23.7610   36.6390   18.8670 C.ar  131  C131        0.0566
   2810  C6        23.0060   35.6760   19.4170 C.ar  131  C131        0.0850
   2811  OP1       25.4250   32.5180   23.6290 O.3   131  C131       -0.4373
   2812  OP2       26.0660   34.5270   22.1540 O.co2 131  C131       -0.5172
   2813  P         23.4270   30.0370   18.8000 P.3   132  C132        0.2141
   2814  C5'       21.6640   29.8120   16.8880 C.3   132  C132        0.1812
   2815  O5'       22.8960   30.3520   17.3250 O.3   132  C132       -0.3114
   2816  C4'       21.3800   30.2730   15.4780 C.3   132  C132        0.1773
   2817  O4'       21.1770   31.7090   15.4460 O.3   132  C132       -0.3307
   2818  C3'       22.5210   30.0750   14.5010 C.3   132  C132        0.1860
   2819  O3'       22.5590   28.7290   14.1100 O.3   132  C132       -0.3112
   2820  C2'       22.0580   31.0090   13.3900 C.3   132  C132        0.2309
   2821  O2'       20.9320   30.5150   12.6910 O.3   132  C132       -0.2156
   2822  C1'       21.6340   32.2190   14.2060 C.3   132  C132        0.2420
   2823  N1        22.7300   33.2230   14.4170 N.ar  132  C132       -0.2535
   2824  C2        23.0750   34.0830   13.3640 C.ar  132  C132        0.3532
   2825  O2        22.4730   33.9910   12.2920 O.2   132  C132       -0.2443
   2826  N3        24.0630   35.0000   13.5510 N.ar  132  C132       -0.1739
   2827  C4        24.6940   35.0750   14.7260 C.ar  132  C132        0.1759
   2828  N4        25.6540   35.9890   14.8500 N.pl3 132  C132       -0.1070
   2829  C5        24.3680   34.2120   15.8200 C.ar  132  C132        0.0566
   2830  C6        23.3890   33.3150   15.6210 C.ar  132  C132        0.0850
   2831  OP1       23.3320   28.5810   19.0640 O.3   132  C132       -0.4373
   2832  OP2       24.7250   30.7330   18.9420 O.co2 132  C132       -0.5172
   2833  P         23.8990   28.0920   13.5300 P.3   133  A133        0.2141
   2834  C5'       23.0560   28.3210   11.0830 C.3   133  A133        0.1812
   2835  O5'       23.9780   28.7510   12.0720 O.3   133  A133       -0.3114
   2836  C4'       23.2380   29.0720    9.7850 C.3   133  A133        0.1773
   2837  O4'       23.0960   30.4890   10.0230 O.3   133  A133       -0.3307
   2838  C3'       24.6080   28.9280    9.1530 C.3   133  A133        0.1860
   2839  O3'       24.6310   27.7570    8.3720 O.3   133  A133       -0.3112
   2840  C2'       24.6750   30.1880    8.3010 C.3   133  A133        0.2309
   2841  O2'       23.8880   30.1090    7.1310 O.3   133  A133       -0.2156
   2842  C1'       24.0320   31.1980    9.2370 C.3   133  A133        0.2408
   2843  N1        27.4030   35.0720    9.7220 N.ar  133  A133       -0.2040
   2844  C2        26.7230   34.6070    8.6630 C.ar  133  A133        0.2016
   2845  N3        25.8600   33.5890    8.6090 N.ar  133  A133       -0.2048
   2846  C4        25.7190   33.0070    9.8130 C.ar  133  A133        0.1692
   2847  C5        26.3520   33.3680   10.9870 C.ar  133  A133        0.1518
   2848  C6        27.2400   34.4640   10.9170 C.ar  133  A133        0.1919
   2849  N6        27.9260   34.9260   11.9640 N.pl3 133  A133       -0.1054
   2850  N7        25.9680   32.5390   12.0290 N.ar  133  A133       -0.2193
   2851  C8        25.1190   31.7100   11.4680 C.ar  133  A133        0.1816
   2852  N9        24.9280   31.9300   10.1320 N.ar  133  A133       -0.2693
   2853  OP1       23.6420   26.6390   13.4200 O.2   133  A133       -0.5172
   2854  OP2       25.0790   28.5480   14.2950 O.co2 133  A133       -0.4373
   2855  P         25.9370   26.8460    8.2900 P.3   134  U134        0.2141
   2856  C5'       26.5700   27.7310    5.8950 C.3   134  U134        0.1812
   2857  O5'       26.8940   27.6460    7.2870 O.3   134  U134       -0.3114
   2858  C4'       27.3160   28.8740    5.2280 C.3   134  U134        0.1773
   2859  O4'       27.0110   30.1300    5.8930 O.3   134  U134       -0.3307
   2860  C3'       28.8360   28.7960    5.3020 C.3   134  U134        0.1860
   2861  O3'       29.3510   27.9240    4.3170 O.3   134  U134       -0.3112
   2862  C2'       29.2240   30.2510    5.0570 C.3   134  U134        0.2309
   2863  O2'       29.0900   30.6680    3.7120 O.3   134  U134       -0.2156
   2864  C1'       28.1670   30.9620    5.8920 C.3   134  U134        0.2420
   2865  N1        28.6200   31.3230    7.2980 N.ar  134  U134       -0.2534
   2866  C2        29.3940   32.4640    7.4730 C.ar  134  U134        0.3546
   2867  O2        29.7470   33.1900    6.5580 O.2   134  U134       -0.2443
   2868  N3        29.7570   32.7320    8.7740 N.ar  134  U134       -0.1530
   2869  C4        29.4370   31.9910    9.8960 C.ar  134  U134        0.2846
   2870  O4        29.8390   32.3610   10.9930 O.2   134  U134       -0.2650
   2871  C5        28.6300   30.8190    9.6410 C.ar  134  U134        0.0814
   2872  C6        28.2590   30.5350    8.3830 C.ar  134  U134        0.0870
   2873  OP1       25.5080   25.5840    7.6420 O.2   134  U134       -0.5172
   2874  OP2       26.6000   26.8350    9.6180 O.co2 134  U134       -0.4373
   2875  P         30.6260   27.0110    4.6460 P.3   135  A135        0.2141
   2876  C5'       31.9250   28.7310    3.0970 C.3   135  A135        0.1812
   2877  O5'       31.8800   27.9340    4.2770 O.3   135  A135       -0.3114
   2878  C4'       32.9370   29.8560    3.2590 C.3   135  A135        0.1773
   2879  O4'       32.3800   30.9300    4.0670 O.3   135  A135       -0.3307
   2880  C3'       34.2490   29.5010    3.9610 C.3   135  A135        0.1860
   2881  O3'       35.1500   28.8660    3.0600 O.3   135  A135       -0.3112
   2882  C2'       34.7230   30.8860    4.3940 C.3   135  A135        0.2309
   2883  O2'       35.3080   31.6450    3.3500 O.3   135  A135       -0.2156
   2884  C1'       33.4110   31.5310    4.8400 C.3   135  A135        0.2408
   2885  N1        34.3010   33.3600    9.6180 N.ar  135  A135       -0.2040
   2886  C2        34.7330   33.7520    8.4140 C.ar  135  A135        0.2016
   2887  N3        34.4550   33.2280    7.2140 N.ar  135  A135       -0.2048
   2888  C4        33.6340   32.1640    7.3060 C.ar  135  A135        0.1692
   2889  C5        33.1110   31.6380    8.4770 C.ar  135  A135        0.1518
   2890  C6        33.4770   32.2880    9.6880 C.ar  135  A135        0.1919
   2891  N6        33.0550   31.9000   10.8960 N.pl3 135  A135       -0.1054
   2892  N7        32.3090   30.5410    8.1940 N.ar  135  A135       -0.2193
   2893  C8        32.3630   30.4310    6.8870 C.ar  135  A135        0.1816
   2894  N9        33.1440   31.3790    6.2800 N.ar  135  A135       -0.2693
   2895  OP1       30.5920   25.8470    3.7340 O.2   135  A135       -0.5172
   2896  OP2       30.6690   26.8070    6.1110 O.co2 135  A135       -0.4373
   2897  P         36.3020   27.8680    3.5690 P.3   136  C136        0.2141
   2898  C5'       38.2320   29.6500    3.4670 C.3   136  C136        0.1812
   2899  O5'       37.3470   28.8630    4.2560 O.3   136  C136       -0.3114
   2900  C4'       38.9480   30.6510    4.3510 C.3   136  C136        0.1773
   2901  O4'       37.9780   31.4300    5.1040 O.3   136  C136       -0.3307
   2902  C3'       39.8190   30.0320    5.4340 C.3   136  C136        0.1860
   2903  O3'       41.0740   29.6010    4.9120 O.3   136  C136       -0.3112
   2904  C2'       39.9290   31.2110    6.3950 C.3   136  C136        0.2309
   2905  O2'       40.7690   32.2420    5.9100 O.3   136  C136       -0.2156
   2906  C1'       38.4850   31.6970    6.4030 C.3   136  C136        0.2420
   2907  N1        37.6100   31.0740    7.4760 N.ar  136  C136       -0.2535
   2908  C2        37.6320   31.5780    8.7910 C.ar  136  C136        0.3532
   2909  O2        38.3730   32.5280    9.0710 O.2   136  C136       -0.2443
   2910  N3        36.8300   31.0060    9.7350 N.ar  136  C136       -0.1739
   2911  C4        36.0330   29.9810    9.4190 C.ar  136  C136        0.1759
   2912  N4        35.2680   29.4540   10.3770 N.pl3 136  C136       -0.1070
   2913  C5        35.9920   29.4460    8.0970 C.ar  136  C136        0.0566
   2914  C6        36.7830   30.0180    7.1760 C.ar  136  C136        0.0850
   2915  OP1       36.9580   27.2610    2.3850 O.2   136  C136       -0.5172
   2916  OP2       35.7330   26.9900    4.6220 O.co2 136  C136       -0.4373
   2917  P         41.8070   28.3130    5.5240 P.3   137  C137        0.2141
   2918  C5'       43.3310   29.8340    7.0380 C.3   137  C137        0.1812
   2919  O5'       42.3210   28.8310    6.9480 O.3   137  C137       -0.3114
   2920  C4'       43.4210   30.4040    8.4430 C.3   137  C137        0.1773
   2921  O4'       42.1280   30.9230    8.8490 O.3   137  C137       -0.3307
   2922  C3'       43.7300   29.4380    9.5810 C.3   137  C137        0.1860
   2923  O3'       45.0910   29.0150    9.6060 O.3   137  C137       -0.3112
   2924  C2'       43.3550   30.3150   10.7660 C.3   137  C137        0.2309
   2925  O2'       44.2560   31.3860   10.9560 O.3   137  C137       -0.2156
   2926  C1'       42.0210   30.8590   10.2630 C.3   137  C137        0.2420
   2927  N1        40.8430   30.0180   10.6740 N.ar  137  C137       -0.2535
   2928  C2        40.4380   30.0120   12.0200 C.ar  137  C137        0.3532
   2929  O2        41.0540   30.7010   12.8460 O.2   137  C137       -0.2443
   2930  N3        39.3730   29.2490   12.3860 N.ar  137  C137       -0.1739
   2931  C4        38.7260   28.5160   11.4750 C.ar  137  C137        0.1759
   2932  N4        37.6870   27.7860   11.8860 N.pl3 137  C137       -0.1070
   2933  C5        39.1170   28.5030   10.1000 C.ar  137  C137        0.0566
   2934  C6        40.1670   29.2640    9.7510 C.ar  137  C137        0.0850
   2935  OP1       42.9760   28.0230    4.6710 O.2   137  C137       -0.5172
   2936  OP2       40.8060   27.2490    5.7620 O.co2 137  C137       -0.4373
   2937  P         45.4510   27.5650    9.0320 P.3   138  A138        0.2141
   2938  C5'       46.2940   26.2320   11.1190 C.3   138  A138        0.1812
   2939  O5'       46.6060   27.0540   10.0050 O.3   138  A138       -0.3114
   2940  C4'       46.2830   27.0310   12.4050 C.3   138  A138        0.1773
   2941  O4'       45.2010   28.0010   12.3850 O.3   138  A138       -0.3307
   2942  C3'       46.0070   26.1720   13.6210 C.3   138  A138        0.1860
   2943  O3'       47.2130   25.6550   14.1410 O.3   138  A138       -0.3112
   2944  C2'       45.3590   27.1630   14.5780 C.3   138  A138        0.2309
   2945  O2'       46.3200   27.9500   15.2510 O.3   138  A138       -0.2156
   2946  C1'       44.4950   27.9910   13.6210 C.3   138  A138        0.2408
   2947  N1        40.0200   26.7560   15.9220 N.ar  138  A138       -0.2040
   2948  C2        41.1450   27.3140   16.3870 C.ar  138  A138        0.2016
   2949  N3        42.2680   27.6040   15.7230 N.ar  138  A138       -0.2048
   2950  C4        42.1810   27.2680   14.4210 C.ar  138  A138        0.1692
   2951  C5        41.0890   26.6900   13.7960 C.ar  138  A138        0.1518
   2952  C6        39.9570   26.4270   14.6120 C.ar  138  A138        0.1919
   2953  N6        38.8260   25.8720   14.1660 N.pl3 138  A138       -0.1054
   2954  N7        41.3540   26.4830   12.4520 N.ar  138  A138       -0.2193
   2955  C8        42.5790   26.9350   12.3010 C.ar  138  A138        0.1816
   2956  N9        43.1450   27.4290   13.4470 N.ar  138  A138       -0.2693
   2957  OP1       46.0150   27.7640    7.6760 O.2   138  A138       -0.5172
   2958  OP2       44.2640   26.6960    9.2180 O.co2 138  A138       -0.4373
   2959  P         47.2570   24.1550   14.7030 P.3   139  C139        0.2141
   2960  C5'       46.7230   24.8030   17.2050 C.3   139  C139        0.1812
   2961  O5'       46.2900   24.2030   15.9830 O.3   139  C139       -0.3114
   2962  C4'       45.6040   24.8760   18.2350 C.3   139  C139        0.1773
   2963  O4'       44.4180   25.4960   17.6690 O.3   139  C139       -0.3307
   2964  C3'       45.0870   23.5410   18.7370 C.3   139  C139        0.1860
   2965  O3'       45.9370   23.0190   19.7480 O.3   139  C139       -0.3112
   2966  C2'       43.7180   23.9370   19.2770 C.3   139  C139        0.2309
   2967  O2'       43.7960   24.5970   20.5230 O.3   139  C139       -0.2156
   2968  C1'       43.2430   24.9170   18.2150 C.3   139  C139        0.2420
   2969  N1        42.4050   24.2980   17.1220 N.ar  139  C139       -0.2535
   2970  C2        41.0610   23.9460   17.3590 C.ar  139  C139        0.3532
   2971  O2        40.5540   24.1370   18.4700 O.2   139  C139       -0.2443
   2972  N3        40.3320   23.3950   16.3480 N.ar  139  C139       -0.1739
   2973  C4        40.8910   23.1950   15.1470 C.ar  139  C139        0.1759
   2974  N4        40.1420   22.6490   14.1900 N.pl3 139  C139       -0.1070
   2975  C5        42.2480   23.5450   14.8780 C.ar  139  C139        0.0566
   2976  C6        42.9510   24.0880   15.8810 C.ar  139  C139        0.0850
   2977  OP1       48.6390   23.8690   15.1610 O.3   139  C139       -0.4373
   2978  OP2       46.6320   23.2880   13.6790 O.co2 139  C139       -0.5172
   2979  P         46.2230   21.4450   19.7680 P.3   140  U140        0.2141
   2980  C5'       44.2320   21.0520   21.4570 C.3   140  U140        0.1812
   2981  O5'       44.7860   20.8460   20.1530 O.3   140  U140       -0.3114
   2982  C4'       42.7960   20.5750   21.5390 C.3   140  U140        0.1773
   2983  O4'       41.9900   21.3160   20.5960 O.3   140  U140       -0.3307
   2984  C3'       42.5680   19.1320   21.1210 C.3   140  U140        0.1860
   2985  O3'       42.9120   18.2330   22.1640 O.3   140  U140       -0.3112
   2986  C2'       41.0790   19.1510   20.8030 C.3   140  U140        0.2309
   2987  O2'       40.2380   19.2010   21.9330 O.3   140  U140       -0.2156
   2988  C1'       40.9790   20.4740   20.0600 C.3   140  U140        0.2420
   2989  N1        41.1190   20.2960   18.5710 N.ar  140  U140       -0.2534
   2990  C2        40.0740   19.7310   17.8630 C.ar  140  U140        0.3546
   2991  O2        39.0290   19.3650   18.3730 O.2   140  U140       -0.2443
   2992  N3        40.2900   19.6060   16.5130 N.ar  140  U140       -0.1530
   2993  C4        41.4210   19.9770   15.8090 C.ar  140  U140        0.2846
   2994  O4        41.4710   19.7980   14.5950 O.2   140  U140       -0.2650
   2995  C5        42.4670   20.5560   16.6110 C.ar  140  U140        0.0814
   2996  C6        42.2800   20.6920   17.9290 C.ar  140  U140        0.0870
   2997  OP1       47.1910   21.1600   20.8520 O.3   140  U140       -0.4373
   2998  OP2       46.5140   21.0150   18.3800 O.co2 140  U140       -0.5172
   2999  P         43.8720   16.9780   21.8890 P.3   141  G141        0.2141
   3000  C5'       41.8750   15.5820   22.7790 C.3   141  G141        0.1812
   3001  O5'       42.7970   15.8140   21.7270 O.3   141  G141       -0.3114
   3002  C4'       40.5720   15.0530   22.2270 C.3   141  G141        0.1773
   3003  O4'       39.9440   16.0210   21.3480 O.3   141  G141       -0.3307
   3004  C3'       40.6970   13.8280   21.3380 C.3   141  G141        0.1860
   3005  O3'       40.9800   12.6740   22.1100 O.3   141  G141       -0.3112
   3006  C2'       39.2960   13.8250   20.7420 C.3   141  G141        0.2309
   3007  O2'       38.3110   13.3630   21.6460 O.3   141  G141       -0.2156
   3008  C1'       39.1120   15.3160   20.4420 C.3   141  G141        0.2408
   3009  N1        37.9250   15.1730   15.4530 N.ar  141  G141       -0.1709
   3010  C2        37.1850   14.7320   16.5270 C.ar  141  G141        0.2606
   3011  N2        35.9980   14.1880   16.2210 N.pl3 141  G141       -0.0859
   3012  N3        37.5850   14.8190   17.8000 N.ar  141  G141       -0.1918
   3013  C4        38.8120   15.3950   17.9130 C.ar  141  G141        0.1723
   3014  C5        39.6160   15.8630   16.8990 C.ar  141  G141        0.1748
   3015  C6        39.1800   15.7610   15.5550 C.ar  141  G141        0.3023
   3016  O6        39.7690   16.1190   14.5300 O.2   141  G141       -0.2633
   3017  N7        40.7940   16.3780   17.4080 N.ar  141  G141       -0.2173
   3018  C8        40.6890   16.2200   18.6940 C.ar  141  G141        0.1817
   3019  N9        39.5130   15.6370   19.0750 N.ar  141  G141       -0.2693
   3020  OP1       44.6630   16.7520   23.1230 O.3   141  G141       -0.4373
   3021  OP2       44.5630   17.1230   20.5880 O.co2 141  G141       -0.5172
   3022  P         41.9430   11.5260   21.5440 P.3   142  U142        0.2141
   3023  C5'       39.9030   10.0870   20.7250 C.3   142  U142        0.1812
   3024  O5'       41.0690   10.8200   20.4160 O.3   142  U142       -0.3114
   3025  C4'       39.2130    9.7310   19.4270 C.3   142  U142        0.1773
   3026  O4'       38.8350   10.9690   18.7740 O.3   142  U142       -0.3307
   3027  C3'       40.0830    9.0610   18.3780 C.3   142  U142        0.1860
   3028  O3'       40.2050    7.6800   18.6130 O.3   142  U142       -0.3112
   3029  C2'       39.2490    9.3350   17.1400 C.3   142  U142        0.2309
   3030  O2'       38.0950    8.5220   17.0660 O.3   142  U142       -0.2156
   3031  C1'       38.8610   10.7890   17.3700 C.3   142  U142        0.2420
   3032  N1        39.8210   11.7390   16.7260 N.ar  142  U142       -0.2534
   3033  C2        39.7250   11.9500   15.3620 C.ar  142  U142        0.3546
   3034  O2        38.8990   11.4140   14.6550 O.2   142  U142       -0.2443
   3035  N3        40.6380   12.8270   14.8350 N.ar  142  U142       -0.1530
   3036  C4        41.6290   13.4940   15.5240 C.ar  142  U142        0.2846
   3037  O4        42.3630   14.2460   14.9040 O.2   142  U142       -0.2650
   3038  C5        41.6850   13.2300   16.9420 C.ar  142  U142        0.0814
   3039  C6        40.7940   12.3830   17.4800 C.ar  142  U142        0.0870
   3040  OP1       42.2240   10.5780   22.6490 O.3   142  U142       -0.4373
   3041  OP2       43.0410   12.1740   20.8040 O.co2 142  U142       -0.5172
   3042  P         41.6320    6.9610   18.6640 P.3   143  C143        0.2141
   3043  C5'       40.7140    5.2020   16.9300 C.3   143  C143        0.1812
   3044  O5'       41.7040    6.1590   17.2890 O.3   143  C143       -0.3114
   3045  C4'       40.3370    5.3450   15.4660 C.3   143  C143        0.1773
   3046  O4'       39.9460    6.7210   15.2460 O.3   143  C143       -0.3307
   3047  C3'       41.4420    5.1350   14.4380 C.3   143  C143        0.1860
   3048  O3'       41.6620    3.7620   14.1450 O.3   143  C143       -0.3112
   3049  C2'       40.8610    5.8780   13.2430 C.3   143  C143        0.2309
   3050  O2'       39.8380    5.1680   12.5810 O.3   143  C143       -0.2156
   3051  C1'       40.2410    7.0930   13.9130 C.3   143  C143        0.2420
   3052  N1        41.1180    8.2990   13.8750 N.ar  143  C143       -0.2535
   3053  C2        41.1710    9.0680   12.6970 C.ar  143  C143        0.3532
   3054  O2        40.4910    8.7390   11.7120 O.2   143  C143       -0.2443
   3055  N3        41.9750   10.1660   12.6700 N.ar  143  C143       -0.1739
   3056  C4        42.6890   10.4970   13.7510 C.ar  143  C143        0.1759
   3057  N4        43.4580   11.5800   13.6760 N.pl3 143  C143       -0.1070
   3058  C5        42.6500    9.7330   14.9540 C.ar  143  C143        0.0566
   3059  C6        41.8620    8.6500   14.9700 C.ar  143  C143        0.0850
   3060  OP1       41.5700    6.0030   19.7870 O.3   143  C143       -0.4373
   3061  OP2       42.7030    7.9810   18.5890 O.co2 143  C143       -0.5172
   3062  P         43.1060    3.2810   13.6280 P.3   144  A144        0.2141
   3063  C5'       42.3880    3.2100   11.0780 C.3   144  A144        0.1812
   3064  O5'       43.1480    3.8320   12.1190 O.3   144  A144       -0.3114
   3065  C4'       42.4920    3.9640    9.7610 C.3   144  A144        0.1773
   3066  O4'       42.0550    5.3370    9.9210 O.3   144  A144       -0.3307
   3067  C3'       43.8980    4.1030    9.2040 C.3   144  A144        0.1860
   3068  O3'       44.2960    2.9370    8.5090 O.3   144  A144       -0.3112
   3069  C2'       43.7620    5.3080    8.2820 C.3   144  A144        0.2309
   3070  O2'       43.1520    4.9910    7.0480 O.3   144  A144       -0.2156
   3071  C1'       42.8420    6.1930    9.1130 C.3   144  A144        0.2408
   3072  N1        45.5000   10.6290    9.3870 N.ar  144  A144       -0.2040
   3073  C2        44.9620    9.9860    8.3420 C.ar  144  A144        0.2016
   3074  N3        44.2840    8.8340    8.3370 N.ar  144  A144       -0.2048
   3075  C4        44.1790    8.3160    9.5830 C.ar  144  A144        0.1692
   3076  C5        44.6840    8.8670   10.7500 C.ar  144  A144        0.1518
   3077  C6        45.3800   10.0870   10.6240 C.ar  144  A144        0.1919
   3078  N6        45.9210   10.7190   11.6710 N.pl3 144  A144       -0.1054
   3079  N7        44.3870    8.0710   11.8450 N.ar  144  A144       -0.2193
   3080  C8        43.7160    7.0670   11.3300 C.ar  144  A144        0.1816
   3081  N9        43.5500    7.1450    9.9710 N.ar  144  A144       -0.2693
   3082  OP1       43.1210    1.7990   13.6130 O.2   144  A144       -0.5172
   3083  OP2       44.1380    3.9910   14.4180 O.co2 144  A144       -0.4373
   3084  P         45.8170    2.4690    8.6600 P.3   145  C145        0.2141
   3085  C5'       46.3770    3.4620    6.3070 C.3   145  C145        0.1812
   3086  O5'       46.5890    3.4930    7.7110 O.3   145  C145       -0.3114
   3087  C4'       47.0310    4.6580    5.6560 C.3   145  C145        0.1773
   3088  O4'       46.4390    5.8730    6.1820 O.3   145  C145       -0.3307
   3089  C3'       48.5010    4.8250    5.9930 C.3   145  C145        0.1860
   3090  O3'       49.3260    3.9370    5.2660 O.3   145  C145       -0.3112
   3091  C2'       48.6930    6.2910    5.6210 C.3   145  C145        0.2309
   3092  O2'       48.7400    6.5150    4.2240 O.3   145  C145       -0.2156
   3093  C1'       47.4280    6.8900    6.2410 C.3   145  C145        0.2420
   3094  N1        47.6560    7.3370    7.6620 N.ar  145  C145       -0.2535
   3095  C2        48.2590    8.5820    7.9180 C.ar  145  C145        0.3532
   3096  O2        48.5890    9.3130    6.9820 O.2   145  C145       -0.2443
   3097  N3        48.4710    8.9690    9.2020 N.ar  145  C145       -0.1739
   3098  C4        48.1130    8.1720   10.2100 C.ar  145  C145        0.1759
   3099  N4        48.3470    8.5990   11.4460 N.pl3 145  C145       -0.1070
   3100  C5        47.5010    6.9050    9.9860 C.ar  145  C145        0.0566
   3101  C6        47.2990    6.5340    8.7120 C.ar  145  C145        0.0850
   3102  OP1       45.9410    1.1020    8.1070 O.2   145  C145       -0.5172
   3103  OP2       46.2400    2.7450   10.0510 O.co2 145  C145       -0.4373
   3104  P         50.6700    3.3990    5.9560 P.3   146  G146        0.2141
   3105  C5'       52.3810    4.9620    4.7050 C.3   146  G146        0.1812
   3106  O5'       51.6310    4.6750    5.8780 O.3   146  G146       -0.3114
   3107  C4'       53.1430    6.2630    4.8580 C.3   146  G146        0.1773
   3108  O4'       52.2650    7.3050    5.3500 O.3   146  G146       -0.3307
   3109  C3'       54.2450    6.2510    5.9010 C.3   146  G146        0.1860
   3110  O3'       55.4020    5.5860    5.4310 O.3   146  G146       -0.3112
   3111  C2'       54.4620    7.7460    6.0780 C.3   146  G146        0.2309
   3112  O2'       55.1420    8.3440    4.9900 O.3   146  G146       -0.2156
   3113  C1'       53.0100    8.2120    6.1490 C.3   146  G146        0.2408
   3114  N1        53.0880   10.5720   10.6880 N.ar  146  G146       -0.1709
   3115  C2        53.7430   10.8930    9.5190 C.ar  146  G146        0.2606
   3116  N2        54.5220   11.9840    9.5480 N.pl3 146  G146       -0.0859
   3117  N3        53.6410   10.1950    8.3900 N.ar  146  G146       -0.1918
   3118  C4        52.8170    9.1240    8.5160 C.ar  146  G146        0.1723
   3119  C5        52.1220    8.7200    9.6340 C.ar  146  G146        0.1748
   3120  C6        52.2440    9.4720   10.8330 C.ar  146  G146        0.3023
   3121  O6        51.7020    9.2630   11.9240 O.2   146  G146       -0.2633
   3122  N7        51.3880    7.5740    9.3630 N.ar  146  G146       -0.2173
   3123  C8        51.6470    7.3160    8.1100 C.ar  146  G146        0.1817
   3124  N9        52.5070    8.2160    7.5270 N.ar  146  G146       -0.2693
   3125  OP1       51.2270    2.3190    5.1080 O.2   146  G146       -0.5172
   3126  OP2       50.3940    3.1470    7.3920 O.co2 146  G146       -0.4373
   3127  P         56.2340    4.6760    6.4530 P.3   147  G147        0.2141
   3128  C5'       57.9720    6.6120    6.7650 C.3   147  G147        0.1812
   3129  O5'       56.9850    5.7740    7.3400 O.3   147  G147       -0.3114
   3130  C4'       58.3240    7.7540    7.6980 C.3   147  G147        0.1773
   3131  O4'       57.1360    8.5000    8.0680 O.3   147  G147       -0.3307
   3132  C3'       58.9130    7.3700    9.0470 C.3   147  G147        0.1860
   3133  O3'       60.2730    6.9430    8.9340 O.3   147  G147       -0.3112
   3134  C2'       58.7330    8.6900    9.7940 C.3   147  G147        0.2309
   3135  O2'       59.6360    9.7120    9.4020 O.3   147  G147       -0.2156
   3136  C1'       57.3090    9.0360    9.3670 C.3   147  G147        0.2408
   3137  N1        55.2200    9.2210   13.9920 N.ar  147  G147       -0.1709
   3138  C2        56.1900   10.0280   13.4410 C.ar  147  G147        0.2606
   3139  N2        56.6750   11.0120   14.2100 N.pl3 147  G147       -0.0859
   3140  N3        56.6550    9.8790   12.2080 N.ar  147  G147       -0.1918
   3141  C4        56.0670    8.8420   11.5580 C.ar  147  G147        0.1723
   3142  C5        55.0990    7.9820   12.0190 C.ar  147  G147        0.1748
   3143  C6        54.6120    8.1520   13.3310 C.ar  147  G147        0.3023
   3144  O6        53.7510    7.4750   13.9010 O.2   147  G147       -0.2633
   3145  N7        54.7570    7.0480   11.0550 N.ar  147  G147       -0.2173
   3146  C8        55.5140    7.3570   10.0400 C.ar  147  G147        0.1817
   3147  N9        56.3330    8.4390   10.2720 N.ar  147  G147       -0.2693
   3148  OP1       57.2130    3.8870    5.6720 O.2   147  G147       -0.5172
   3149  OP2       55.2820    3.9660    7.3420 O.co2 147  G147       -0.4373
   3150  P         60.8660    5.9230   10.0150 P.3   148  A148        0.2141
   3151  C5'       62.2900    7.8380   11.0750 C.3   148  A148        0.1812
   3152  O5'       61.2290    6.9110   11.2090 O.3   148  A148       -0.3114
   3153  C4'       62.3820    8.6690   12.3350 C.3   148  A148        0.1773
   3154  O4'       61.1220    9.3490   12.5520 O.3   148  A148       -0.3307
   3155  C3'       62.5520    7.8830   13.6230 C.3   148  A148        0.1860
   3156  O3'       63.8850    7.4480   13.8070 O.3   148  A148       -0.3112
   3157  C2'       62.1400    8.9460   14.6270 C.3   148  A148        0.2309
   3158  O2'       63.0960    9.9800   14.7360 O.3   148  A148       -0.2156
   3159  C1'       60.8780    9.4610   13.9450 C.3   148  A148        0.2408
   3160  N1        57.3720    8.3340   17.5850 N.ar  148  A148       -0.2040
   3161  C2        58.4430    9.1390   17.5950 C.ar  148  A148        0.2016
   3162  N3        59.3160    9.3860   16.6140 N.ar  148  A148       -0.2048
   3163  C4        59.0070    8.7000   15.4990 C.ar  148  A148        0.1692
   3164  C5        57.9400    7.8360   15.3390 C.ar  148  A148        0.1518
   3165  C6        57.0870    7.6560   16.4540 C.ar  148  A148        0.1919
   3166  N6        56.0190    6.8540   16.4490 N.pl3 148  A148       -0.1054
   3167  N7        57.9350    7.3080   14.0590 N.ar  148  A148       -0.2193
   3168  C8        58.9790    7.8500   13.4830 C.ar  148  A148        0.1816
   3169  N9        59.6740    8.7030   14.2930 N.ar  148  A148       -0.2693
   3170  OP1       62.1060    5.3230    9.4730 O.2   148  A148       -0.5172
   3171  OP2       59.7790    5.0500   10.5040 O.co2 148  A148       -0.4373
   3172  P         64.1700    6.0160   14.4640 P.3   149  G149        0.2141
   3173  C5'       64.6380    7.1230   16.8250 C.3   149  G149        0.1812
   3174  O5'       63.8560    6.2450   16.0170 O.3   149  G149       -0.3114
   3175  C4'       63.8940    7.5230   18.0910 C.3   149  G149        0.1773
   3176  O4'       62.5470    7.9770   17.7800 O.3   149  G149       -0.3307
   3177  C3'       63.6640    6.4220   19.1220 C.3   149  G149        0.1860
   3178  O3'       64.8220    6.1460   19.8980 O.3   149  G149       -0.3112
   3179  C2'       62.5350    7.0290   19.9530 C.3   149  G149        0.2309
   3180  O2'       62.9620    8.0050   20.8900 O.3   149  G149       -0.2156
   3181  C1'       61.6690    7.6390   18.8450 C.3   149  G149        0.2408
   3182  N1        57.3960    5.0770   19.9880 N.ar  149  G149       -0.1709
   3183  C2        58.0980    5.9840   20.7540 C.ar  149  G149        0.2606
   3184  N2        57.6130    6.2510   21.9760 N.pl3 149  G149       -0.0859
   3185  N3        59.2050    6.5950   20.3430 N.ar  149  G149       -0.1918
   3186  C4        59.5700    6.2230   19.0850 C.ar  149  G149        0.1723
   3187  C5        58.9380    5.3260   18.2460 C.ar  149  G149        0.1748
   3188  C6        57.7540    4.6810   18.6940 C.ar  149  G149        0.3023
   3189  O6        57.0590    3.8510   18.0850 O.2   149  G149       -0.2633
   3190  N7        59.6200    5.2130   17.0390 N.ar  149  G149       -0.2173
   3191  C8        60.6300    6.0270   17.1680 C.ar  149  G149        0.1817
   3192  N9        60.6640    6.6810   18.3790 N.ar  149  G149       -0.2693
   3193  OP1       65.6110    5.7360   14.2760 O.3   149  G149       -0.4373
   3194  OP2       63.1520    5.0690   13.9550 O.co2 149  G149       -0.5172
   3195  P         65.1620    4.6340   20.3050 P.3   150  G150        0.2141
   3196  C5'       64.1820    4.3610   22.7440 C.3   150  G150        0.1812
   3197  O5'       63.9840    4.2770   21.3300 O.3   150  G150       -0.3114
   3198  C4'       62.8560    4.4020   23.4850 C.3   150  G150        0.1773
   3199  O4'       61.8040    4.8590   22.5940 O.3   150  G150       -0.3307
   3200  C3'       62.3590    3.0580   24.0040 C.3   150  G150        0.1860
   3201  O3'       62.9340    2.7480   25.2740 O.3   150  G150       -0.3112
   3202  C2'       60.8540    3.3040   24.1000 C.3   150  G150        0.2309
   3203  O2'       60.4550    4.0120   25.2650 O.3   150  G150       -0.2156
   3204  C1'       60.6000    4.1600   22.8610 C.3   150  G150        0.2408
   3205  N1        56.9880    1.2020   20.7380 N.ar  150  G150       -0.1709
   3206  C2        57.0150    1.7740   22.0010 C.ar  150  G150        0.2606
   3207  N2        55.9530    1.5290   22.7930 N.pl3 150  G150       -0.0859
   3208  N3        58.0140    2.5310   22.4500 N.ar  150  G150       -0.1918
   3209  C4        59.0090    2.6770   21.5220 C.ar  150  G150        0.1723
   3210  C5        59.0710    2.1410   20.2420 C.ar  150  G150        0.1748
   3211  C6        57.9950    1.3420   19.7740 C.ar  150  G150        0.3023
   3212  O6        57.8720    0.7850   18.6660 O.2   150  G150       -0.2633
   3213  N7        60.2490    2.5150   19.5980 N.ar  150  G150       -0.2173
   3214  C8        60.8670    3.2520   20.4820 C.ar  150  G150        0.1817
   3215  N9        60.1780    3.3970   21.6760 N.ar  150  G150       -0.2693
   3216  OP1       66.4570    4.6250   21.0290 O.3   150  G150       -0.4373
   3217  OP2       64.9830    3.7920   19.0980 O.co2 150  G150       -0.5172
   3218  P         63.7190    1.3710   25.5270 P.3   151  U151        0.2141
   3219  C5'       61.3430    0.4940   26.3640 C.3   151  U151        0.1812
   3220  O5'       62.5650    0.2660   25.6450 O.3   151  U151       -0.3114
   3221  C4'       60.1910   -0.2760   25.7270 C.3   151  U151        0.1773
   3222  O4'       60.0840    0.0230   24.3060 O.3   151  U151       -0.3307
   3223  C3'       60.3050   -1.7960   25.8420 C.3   151  U151        0.1860
   3224  O3'       59.0420   -2.3560   26.2250 O.3   151  U151       -0.3112
   3225  C2'       60.7780   -2.2480   24.4530 C.3   151  U151        0.2309
   3226  O2'       60.3040   -3.5320   24.0830 O.3   151  U151       -0.2156
   3227  C1'       60.2390   -1.1500   23.5230 C.3   151  U151        0.2420
   3228  N1        61.1260   -0.8330   22.3320 N.ar  151  U151       -0.2534
   3229  C2        60.5890   -0.8280   21.0380 C.ar  151  U151        0.3546
   3230  O2        59.4210   -1.0650   20.7800 O.2   151  U151       -0.2443
   3231  N3        61.4790   -0.5260   20.0300 N.ar  151  U151       -0.1530
   3232  C4        62.8350   -0.2340   20.1710 C.ar  151  U151        0.2846
   3233  O4        63.5050    0.0170   19.1700 O.2   151  U151       -0.2650
   3234  C5        63.3320   -0.2590   21.5430 C.ar  151  U151        0.0814
   3235  C6        62.4780   -0.5510   22.5400 C.ar  151  U151        0.0870
   3236  OP1       64.3870    1.4710   26.8430 O.3   151  U151       -0.4373
   3237  OP2       64.5290    1.0730   24.3230 O.co2 151  U151       -0.5172
   3238  P         58.7080   -2.6720   27.7650 P.3   152  C152        0.2141
   3239  C5'       56.1410   -2.2590   28.3060 C.3   152  C152        0.1812
   3240  O5'       57.4410   -1.7200   28.0290 O.3   152  C152       -0.3114
   3241  C4'       55.1720   -2.0620   27.1430 C.3   152  C152        0.1773
   3242  O4'       55.8930   -1.9490   25.8810 O.3   152  C152       -0.3307
   3243  C3'       54.1540   -3.1900   26.9320 C.3   152  C152        0.1860
   3244  O3'       52.9030   -2.6850   26.4500 O.3   152  C152       -0.3112
   3245  C2'       54.8160   -4.0030   25.8260 C.3   152  C152        0.2309
   3246  O2'       53.9070   -4.8430   25.1370 O.3   152  C152       -0.2156
   3247  C1'       55.2760   -2.8280   24.9570 C.3   152  C152        0.2420
   3248  N1        56.1920   -3.0730   23.7680 N.ar  152  C152       -0.2535
   3249  C2        57.0120   -4.2180   23.6060 C.ar  152  C152        0.3532
   3250  O2        57.0410   -5.1240   24.4540 O.2   152  C152       -0.2443
   3251  N3        57.7830   -4.3130   22.4860 N.ar  152  C152       -0.1739
   3252  C4        57.7650   -3.3480   21.5590 C.ar  152  C152        0.1759
   3253  N4        58.5450   -3.4970   20.4810 N.pl3 152  C152       -0.1070
   3254  C5        56.9470   -2.1850   21.7030 C.ar  152  C152        0.0566
   3255  C6        56.1920   -2.0960   22.8060 C.ar  152  C152        0.0850
   3256  OP1       59.8270   -2.1840   28.6090 O.3   152  C152       -0.4373
   3257  OP2       58.3070   -4.0990   27.8500 O.co2 152  C152       -0.5172
   3258  P         51.8620   -1.8530   27.3400 P.3   153  U153        0.2141
   3259  C5'       50.0310   -0.6100   25.8480 C.3   153  U153        0.1812
   3260  O5'       50.5780   -1.8280   26.3710 O.3   153  U153       -0.3114
   3261  C4'       50.7310   -0.1300   24.5810 C.3   153  U153        0.1773
   3262  O4'       51.7410   -1.0550   24.0890 O.3   153  U153       -0.3307
   3263  C3'       49.7990    0.1330   23.3970 C.3   153  U153        0.1860
   3264  O3'       49.7590    1.5320   23.1400 O.3   153  U153       -0.3112
   3265  C2'       50.4440   -0.6220   22.2340 C.3   153  U153        0.2309
   3266  O2'       50.3930    0.0850   21.0070 O.3   153  U153       -0.2156
   3267  C1'       51.8850   -0.7490   22.7160 C.3   153  U153        0.2420
   3268  N1        52.6720   -1.7870   21.9620 N.ar  153  U153       -0.2534
   3269  C2        53.3690   -1.4170   20.8150 C.ar  153  U153        0.3546
   3270  O2        53.3980   -0.2820   20.3710 O.2   153  U153       -0.2443
   3271  N3        54.0480   -2.4410   20.1900 N.ar  153  U153       -0.1530
   3272  C4        54.0980   -3.7710   20.5850 C.ar  153  U153        0.2846
   3273  O4        54.7490   -4.5790   19.9310 O.2   153  U153       -0.2650
   3274  C5        53.3510   -4.0790   21.7800 C.ar  153  U153        0.0814
   3275  C6        52.6790   -3.1000   22.4060 C.ar  153  U153        0.0870
   3276  OP1       52.3950   -0.4760   27.5010 O.2   153  U153       -0.5172
   3277  OP2       51.5200   -2.6630   28.5360 O.co2 153  U153       -0.4373
   3278  P         48.4840    2.4250   23.5040 P.3   154  C154        0.2141
   3279  C5'       49.6630    3.6690   25.5100 C.3   154  C154        0.1812
   3280  O5'       49.1660    3.7160   24.1660 O.3   154  C154       -0.3114
   3281  C4'       51.0010    4.3740   25.6730 C.3   154  C154        0.1773
   3282  O4'       52.0820    3.5390   25.1820 O.3   154  C154       -0.3307
   3283  C3'       51.2050    5.6630   24.8920 C.3   154  C154        0.1860
   3284  O3'       50.5140    6.7470   25.4820 O.3   154  C154       -0.3112
   3285  C2'       52.7160    5.8020   25.0210 C.3   154  C154        0.2309
   3286  O2'       53.1360    6.2220   26.3060 O.3   154  C154       -0.2156
   3287  C1'       53.1550    4.3650   24.7520 C.3   154  C154        0.2420
   3288  N1        53.4810    4.1220   23.2960 N.ar  154  C154       -0.2535
   3289  C2        54.7120    4.5560   22.7590 C.ar  154  C154        0.3532
   3290  O2        55.5420    5.1300   23.4780 O.2   154  C154       -0.2443
   3291  N3        54.9670    4.3280   21.4430 N.ar  154  C154       -0.1739
   3292  C4        54.0640    3.7060   20.6750 C.ar  154  C154        0.1759
   3293  N4        54.3610    3.5030   19.3900 N.pl3 154  C154       -0.1070
   3294  C5        52.8100    3.2620   21.1920 C.ar  154  C154        0.0566
   3295  C6        52.5680    3.4900   22.4890 C.ar  154  C154        0.0850
   3296  OP1       47.6640    1.7140   24.5180 O.3   154  C154       -0.4373
   3297  OP2       47.8690    2.8460   22.2260 O.co2 154  C154       -0.5172
   3298  P         50.1160    8.0330   24.6120 P.3   155  U155        0.2141
   3299  C5'       52.1320    9.5660   25.3180 C.3   155  U155        0.1812
   3300  O5'       51.5300    8.7280   24.3360 O.3   155  U155       -0.3114
   3301  C4'       53.4530   10.1120   24.8140 C.3   155  U155        0.1773
   3302  O4'       54.2800    9.0140   24.3490 O.3   155  U155       -0.3307
   3303  C3'       53.3840   11.0320   23.6010 C.3   155  U155        0.1860
   3304  O3'       52.9770   12.3590   23.9370 O.3   155  U155       -0.3112
   3305  C2'       54.8370   10.9560   23.1460 C.3   155  U155        0.2309
   3306  O2'       55.7230   11.6740   23.9840 O.3   155  U155       -0.2156
   3307  C1'       55.0930    9.4570   23.2740 C.3   155  U155        0.2420
   3308  N1        54.7890    8.6840   22.0130 N.ar  155  U155       -0.2534
   3309  C2        55.6670    8.7500   20.9430 C.ar  155  U155        0.3546
   3310  O2        56.6900    9.4030   20.9510 O.2   155  U155       -0.2443
   3311  N3        55.3080    8.0150   19.8390 N.ar  155  U155       -0.1530
   3312  C4        54.1750    7.2320   19.6960 C.ar  155  U155        0.2846
   3313  O4        53.9790    6.6300   18.6470 O.2   155  U155       -0.2650
   3314  C5        53.3030    7.2080   20.8450 C.ar  155  U155        0.0814
   3315  C6        53.6370    7.9160   21.9330 C.ar  155  U155        0.0870
   3316  OP1       49.3040    8.9130   25.4830 O.3   155  U155       -0.4373
   3317  OP2       49.5790    7.5990   23.3010 O.co2 155  U155       -0.5172
   3318  P         52.0690   13.2210   22.9260 P.3   156  C156        0.2141
   3319  C5'       54.1590   14.4160   21.8820 C.3   156  C156        0.1812
   3320  O5'       53.0600   13.5310   21.7090 O.3   156  C156       -0.3114
   3321  C4'       55.1300   14.2870   20.7260 C.3   156  C156        0.1773
   3322  O4'       55.4560   12.8940   20.5110 O.3   156  C156       -0.3307
   3323  C3'       54.5930   14.7230   19.3710 C.3   156  C156        0.1860
   3324  O3'       54.6030   16.1390   19.2520 O.3   156  C156       -0.3112
   3325  C2'       55.6030   14.0450   18.4510 C.3   156  C156        0.2309
   3326  O2'       56.8630   14.6910   18.3910 O.3   156  C156       -0.2156
   3327  C1'       55.7480   12.6920   19.1400 C.3   156  C156        0.2420
   3328  N1        54.8560   11.6420   18.5450 N.ar  156  C156       -0.2535
   3329  C2        55.2120   11.0630   17.3140 C.ar  156  C156        0.3532
   3330  O2        56.2500   11.4290   16.7450 O.2   156  C156       -0.2443
   3331  N3        54.4020   10.1120   16.7730 N.ar  156  C156       -0.1739
   3332  C4        53.2880    9.7380   17.4080 C.ar  156  C156        0.1759
   3333  N4        52.5310    8.8010   16.8350 N.pl3 156  C156       -0.1070
   3334  C5        52.9050   10.3130   18.6590 C.ar  156  C156        0.0566
   3335  C6        53.7110   11.2500   19.1840 C.ar  156  C156        0.0850
   3336  OP1       51.7320   14.4860   23.6110 O.3   156  C156       -0.4373
   3337  OP2       50.9810   12.3690   22.3920 O.co2 156  C156       -0.5172
   3338  P         53.6060   16.8940   18.2520 P.3   157  C157        0.2141
   3339  C5'       55.4800   17.3180   16.4810 C.3   157  C157        0.1812
   3340  O5'       54.2710   16.6490   16.8200 O.3   157  C157       -0.3114
   3341  C4'       55.9020   17.0110   15.0610 C.3   157  C157        0.1773
   3342  O4'       56.2820   15.6170   14.9760 O.3   157  C157       -0.3307
   3343  C3'       54.8160   17.1370   14.0110 C.3   157  C157        0.1860
   3344  O3'       54.6370   18.4800   13.6200 O.3   157  C157       -0.3112
   3345  C2'       55.3980   16.2730   12.9020 C.3   157  C157        0.2309
   3346  O2'       56.4610   16.8880   12.2000 O.3   157  C157       -0.2156
   3347  C1'       55.9100   15.0890   13.7160 C.3   157  C157        0.2420
   3348  N1        54.8760   14.0160   13.8870 N.ar  157  C157       -0.2535
   3349  C2        54.5600   13.1680   12.8130 C.ar  157  C157        0.3532
   3350  O2        55.1420   13.3010   11.7320 O.2   157  C157       -0.2443
   3351  N3        53.6130   12.2100   12.9890 N.ar  157  C157       -0.1739
   3352  C4        52.9960   12.0860   14.1690 C.ar  157  C157        0.1759
   3353  N4        52.0740   11.1310   14.2980 N.pl3 157  C157       -0.1070
   3354  C5        53.2950   12.9350   15.2710 C.ar  157  C157        0.0566
   3355  C6        54.2310   13.8710   15.0840 C.ar  157  C157        0.0850
   3356  OP1       53.6960   18.3300   18.5930 O.3   157  C157       -0.4373
   3357  OP2       52.2910   16.2150   18.2560 O.co2 157  C157       -0.5172
   3358  P         53.1730   19.0410   13.2800 P.3   158  G158        0.2141
   3359  C5'       53.6480   18.7040   10.7100 C.3   158  G158        0.1812
   3360  O5'       52.8780   18.3450   11.8610 O.3   158  G158       -0.3114
   3361  C4'       53.4790   17.7250    9.5570 C.3   158  G158        0.1773
   3362  O4'       53.7400   16.3730    9.9930 O.3   158  G158       -0.3307
   3363  C3'       52.0850   17.6080    8.9670 C.3   158  G158        0.1860
   3364  O3'       51.7820   18.6970    8.1040 O.3   158  G158       -0.3112
   3365  C2'       52.2070   16.2930    8.2080 C.3   158  G158        0.2309
   3366  O2'       52.9110   16.4180    6.9940 O.3   158  G158       -0.2156
   3367  C1'       53.0230   15.4610    9.1830 C.3   158  G158        0.2408
   3368  N1        49.9780   11.3640    9.5120 N.ar  158  G158       -0.1709
   3369  C2        50.6560   11.8510    8.4160 C.ar  158  G158        0.2606
   3370  N2        50.5090   11.1720    7.2690 N.pl3 158  G158       -0.0859
   3371  N3        51.4300   12.9360    8.4460 N.ar  158  G158       -0.1918
   3372  C4        51.4740   13.5070    9.6800 C.ar  158  G158        0.1723
   3373  C5        50.8320   13.0920   10.8290 C.ar  158  G158        0.1748
   3374  C6        50.0130   11.9370   10.7850 C.ar  158  G158        0.3023
   3375  O6        49.3690   11.4250   11.7100 O.2   158  G158       -0.2633
   3376  N7        51.1220   13.9450   11.8880 N.ar  158  G158       -0.2173
   3377  C8        51.9200   14.8390   11.3730 C.ar  158  G158        0.1817
   3378  N9        52.1790   14.6370   10.0380 N.ar  158  G158       -0.2693
   3379  OP1       53.3020   20.5010   13.0890 O.2   158  G158       -0.5172
   3380  OP2       52.2120   18.5330   14.2920 O.co2 158  G158       -0.4373
   3381  P         50.2650   19.2010    8.0220 P.3   159  U159        0.2141
   3382  C5'       49.8070   17.7870    5.8600 C.3   159  U159        0.1812
   3383  O5'       49.5450   17.9940    7.2540 O.3   159  U159       -0.3114
   3384  C4'       49.1040   16.5590    5.3050 C.3   159  U159        0.1773
   3385  O4'       49.4960   15.3570    6.0240 O.3   159  U159       -0.3307
   3386  C3'       47.5900   16.5480    5.4250 C.3   159  U159        0.1860
   3387  O3'       46.9860   17.4050    4.4620 O.3   159  U159       -0.3112
   3388  C2'       47.3320   15.0710    5.1560 C.3   159  U159        0.2309
   3389  O2'       47.5090   14.7110    3.7980 O.3   159  U159       -0.2156
   3390  C1'       48.4180   14.4370    6.0200 C.3   159  U159        0.2420
   3391  N1        47.9780   14.1700    7.4240 N.ar  159  U159       -0.2534
   3392  C2        47.0120   13.2050    7.6760 C.ar  159  U159        0.3546
   3393  O2        46.4720   12.5330    6.8140 O.2   159  U159       -0.2443
   3394  N3        46.6800   13.0480    9.0020 N.ar  159  U159       -0.1530
   3395  C4        47.2030   13.7410   10.0800 C.ar  159  U159        0.2846
   3396  O4        46.8050   13.4910   11.2130 O.2   159  U159       -0.2650
   3397  C5        48.1970   14.7270    9.7430 C.ar  159  U159        0.0814
   3398  C6        48.5390   14.8960    8.4590 C.ar  159  U159        0.0870
   3399  OP1       50.2150   20.3960    7.1470 O.2   159  U159       -0.5172
   3400  OP2       49.7260   19.2690    9.4010 O.co2 159  U159       -0.4373
   3401  P         45.6190   18.1570    4.8280 P.3   160  G160        0.2141
   3402  C5'       44.1000   16.3430    3.7000 C.3   160  G160        0.1812
   3403  O5'       44.5280   16.9880    4.8920 O.3   160  G160       -0.3114
   3404  C4'       43.4210   15.0150    3.9800 C.3   160  G160        0.1773
   3405  O4'       44.1940   14.1970    4.8900 O.3   160  G160       -0.3307
   3406  C3'       42.0720   15.1080    4.6660 C.3   160  G160        0.1860
   3407  O3'       41.0850   15.4970    3.7350 O.3   160  G160       -0.3112
   3408  C2'       41.9090   13.6660    5.1400 C.3   160  G160        0.2309
   3409  O2'       41.6090   12.7300    4.1230 O.3   160  G160       -0.2156
   3410  C1'       43.3100   13.3920    5.6500 C.3   160  G160        0.2408
   3411  N1        42.3420   11.8420   10.4180 N.ar  160  G160       -0.1709
   3412  C2        42.0170   11.2370    9.2240 C.ar  160  G160        0.2606
   3413  N2        41.3560   10.0790    9.3110 N.pl3 160  G160       -0.0859
   3414  N3        42.3190   11.7340    8.0290 N.ar  160  G160       -0.1918
   3415  C4        42.9910   12.9150    8.1230 C.ar  160  G160        0.1723
   3416  C5        43.3580   13.5950    9.2660 C.ar  160  G160        0.1748
   3417  C6        43.0280   13.0500   10.5300 C.ar  160  G160        0.3023
   3418  O6        43.2760   13.5130   11.6480 O.2   160  G160       -0.2633
   3419  N7        44.0330   14.7670    8.9440 N.ar  160  G160       -0.2173
   3420  C8        44.0600   14.7770    7.6380 C.ar  160  G160        0.1817
   3421  N9        43.4500   13.6860    7.0730 N.ar  160  G160       -0.2693
   3422  OP1       45.2980   19.0670    3.7040 O.2   160  G160       -0.5172
   3423  OP2       45.7520   18.6820    6.2090 O.co2 160  G160       -0.4373
   3424  P         39.7970   16.3320    4.1850 P.3   161  G161        0.2141
   3425  C5'       38.5240   14.0320    3.8000 C.3   161  G161        0.1812
   3426  O5'       38.7870   15.1720    4.6370 O.3   161  G161       -0.3114
   3427  C4'       37.7780   12.9490    4.5590 C.3   161  G161        0.1773
   3428  O4'       38.6650   12.3210    5.5160 O.3   161  G161       -0.3307
   3429  C3'       36.6280   13.4520    5.4090 C.3   161  G161        0.1860
   3430  O3'       35.4630   13.5210    4.6260 O.3   161  G161       -0.3112
   3431  C2'       36.5180   12.3900    6.4960 C.3   161  G161        0.2309
   3432  O2'       35.7230   11.2880    6.1070 O.3   161  G161       -0.2156
   3433  C1'       37.9640   11.9520    6.6900 C.3   161  G161        0.2408
   3434  N1        38.7690   11.7940   11.7690 N.ar  161  G161       -0.1709
   3435  C2        38.0670   10.9160   10.9760 C.ar  161  G161        0.2606
   3436  N2        37.5150    9.8710   11.6010 N.pl3 161  G161       -0.0859
   3437  N3        37.9190   11.0510    9.6590 N.ar  161  G161       -0.1918
   3438  C4        38.5420   12.1600    9.1720 C.ar  161  G161        0.1723
   3439  C5        39.2620   13.0950    9.8890 C.ar  161  G161        0.1748
   3440  C6        39.4150   12.9330   11.2960 C.ar  161  G161        0.3023
   3441  O6        40.0200   13.6640   12.0950 O.2   161  G161       -0.2633
   3442  N7        39.7430   14.0850    9.0420 N.ar  161  G161       -0.2173
   3443  C8        39.3140   13.7410    7.8600 C.ar  161  G161        0.1817
   3444  N9        38.5800   12.5830    7.8560 N.ar  161  G161       -0.2693
   3445  OP1       39.2830   16.9960    2.9650 O.2   161  G161       -0.5172
   3446  OP2       40.1050   17.1510    5.3800 O.co2 161  G161       -0.4373
   3447  P         34.3260   14.5980    4.9760 P.3   162  A162        0.2141
   3448  C5'       32.8710   12.6800    6.0710 C.3   162  A162        0.1812
   3449  O5'       33.5430   13.9330    6.2060 O.3   162  A162       -0.3114
   3450  C4'       32.7450   11.9830    7.4190 C.3   162  A162        0.1773
   3451  O4'       33.9360   12.1940    8.2250 O.3   162  A162       -0.3307
   3452  C3'       31.5880   12.4560    8.2920 C.3   162  A162        0.1860
   3453  O3'       31.1430   11.3600    9.0680 O.3   162  A162       -0.3112
   3454  C2'       32.2580   13.5380    9.1350 C.3   162  A162        0.2309
   3455  O2'       31.5870   13.8750   10.3300 O.3   162  A162       -0.2156
   3456  C1'       33.5790   12.8480    9.4290 C.3   162  A162        0.2408
   3457  N1        36.9020   14.1870   13.0780 N.ar  162  A162       -0.2040
   3458  C2        35.9970   13.2000   13.0120 C.ar  162  A162        0.2016
   3459  N3        35.1630   12.9150   12.0170 N.ar  162  A162       -0.2048
   3460  C4        35.3200   13.7770   10.9970 C.ar  162  A162        0.1692
   3461  C5        36.2100   14.8370   10.9170 C.ar  162  A162        0.1518
   3462  C6        37.0410   15.0390   12.0400 C.ar  162  A162        0.1919
   3463  N6        37.9550   16.0070   12.1350 N.pl3 162  A162       -0.1054
   3464  N7        36.0820   15.4980    9.7010 N.ar  162  A162       -0.2193
   3465  C8        35.1270   14.8350    9.0840 C.ar  162  A162        0.1816
   3466  N9        34.6280   13.7840    9.8110 N.ar  162  A162       -0.2693
   3467  OP1       33.4240   14.6650    3.7940 O.2   162  A162       -0.5172
   3468  OP2       34.9800   15.8300    5.4870 O.co2 162  A162       -0.4373
   3469  P         29.6350   10.8290    9.0030 P.3   163  G163        0.2141
   3470  C5'       30.0460   10.6920   11.5870 C.3   163  G163        0.1812
   3471  O5'       29.1770   11.0380   10.5190 O.3   163  G163       -0.3114
   3472  C4'       29.2920   10.6250   12.9020 C.3   163  G163        0.1773
   3473  O4'       30.2600   10.6180   13.9750 O.3   163  G163       -0.3307
   3474  C3'       28.3350   11.7750   13.2210 C.3   163  G163        0.1860
   3475  O3'       27.2220   11.2880   13.9810 O.3   163  G163       -0.3112
   3476  C2'       29.2050   12.6760   14.0920 C.3   163  G163        0.2309
   3477  O2'       28.4560   13.5240   14.9370 O.3   163  G163       -0.2156
   3478  C1'       29.9250   11.6130   14.9150 C.3   163  G163        0.2408
   3479  N1        32.2930   12.6370   19.3220 N.ar  163  G163       -0.1709
   3480  C2        31.0110   12.1800   19.1130 C.ar  163  G163        0.2606
   3481  N2        30.2650   11.9700   20.2060 N.pl3 163  G163       -0.0859
   3482  N3        30.4960   11.9410   17.9110 N.ar  163  G163       -0.1918
   3483  C4        31.3760   12.2030   16.9130 C.ar  163  G163        0.1723
   3484  C5        32.6720   12.6580   17.0220 C.ar  163  G163        0.1748
   3485  C6        33.2100   12.9060   18.3020 C.ar  163  G163        0.3023
   3486  O6        34.3470   13.3130   18.5710 O.2   163  G163       -0.2633
   3487  N7        33.2570   12.8030   15.7750 N.ar  163  G163       -0.2173
   3488  C8        32.3190   12.4450   14.9450 C.ar  163  G163        0.1817
   3489  N9        31.1490   12.0680   15.5630 N.ar  163  G163       -0.2693
   3490  OP1       29.6740    9.3690    8.7420 O.3   163  G163       -0.4373
   3491  OP2       28.8390   11.7320    8.1410 O.co2 163  G163       -0.5172
   3492  P         25.8340   10.7910   13.3500 P.3   164  A164        0.2141
   3493  C5'       25.8170    8.1360   13.3150 C.3   164  A164        0.1812
   3494  O5'       26.2410    9.3730   12.7380 O.3   164  A164       -0.3114
   3495  C4'       25.9340    7.0370   12.2720 C.3   164  A164        0.1773
   3496  O4'       25.0340    7.3140   11.1570 O.3   164  A164       -0.3307
   3497  C3'       27.3270    6.8870   11.6720 C.3   164  A164        0.1860
   3498  O3'       27.6320    5.5180   11.5100 O.3   164  A164       -0.3112
   3499  C2'       27.1890    7.6080   10.3300 C.3   164  A164        0.2309
   3500  O2'       28.0550    7.1660    9.3060 O.3   164  A164       -0.2156
   3501  C1'       25.7540    7.2860    9.9410 C.3   164  A164        0.2408
   3502  N1        23.9690    8.3340    5.1830 N.ar  164  A164       -0.2040
   3503  C2        24.3100    7.1670    5.7510 C.ar  164  A164        0.2016
   3504  N3        24.7640    6.9550    6.9940 N.ar  164  A164       -0.2048
   3505  C4        24.8650    8.1090    7.6950 C.ar  164  A164        0.1692
   3506  C5        24.5460    9.3800    7.2340 C.ar  164  A164        0.1518
   3507  C6        24.0800    9.4770    5.9080 C.ar  164  A164        0.1919
   3508  N6        23.7440   10.6500    5.3610 N.pl3 164  A164       -0.1054
   3509  N7        24.7600   10.3400    8.2110 N.ar  164  A164       -0.2193
   3510  C8        25.2000    9.6410    9.2330 C.ar  164  A164        0.1816
   3511  N9        25.2780    8.2920    9.0020 N.ar  164  A164       -0.2693
   3512  OP1       25.4520   11.7100   12.2520 O.2   164  A164       -0.5172
   3513  OP2       24.9040   10.5370   14.4780 O.co2 164  A164       -0.4373
   3514  P         28.6470    4.7400   12.4760 P.3   165  G165        0.2141
   3515  C5'       30.8300    5.9450   11.6150 C.3   165  G165        0.1812
   3516  O5'       29.8790    5.7440   12.6510 O.3   165  G165       -0.3114
   3517  C4'       31.9870    6.7530   12.1570 C.3   165  G165        0.1773
   3518  O4'       31.5020    7.9460   12.8190 O.3   165  G165       -0.3307
   3519  C3'       32.7730    6.0430   13.2360 C.3   165  G165        0.1860
   3520  O3'       33.7270    5.1980   12.6350 O.3   165  G165       -0.3112
   3521  C2'       33.4330    7.2190   13.9370 C.3   165  G165        0.2309
   3522  O2'       34.5470    7.7030   13.2130 O.3   165  G165       -0.2156
   3523  C1'       32.3170    8.2520   13.9320 C.3   165  G165        0.2408
   3524  N1        32.2480    9.2320   18.9310 N.ar  165  G165       -0.1709
   3525  C2        33.2750    9.3780   18.0320 C.ar  165  G165        0.2606
   3526  N2        34.4350    9.8380   18.5190 N.pl3 165  G165       -0.0859
   3527  N3        33.1660    9.0860   16.7430 N.ar  165  G165       -0.1918
   3528  C4        31.9300    8.6320   16.4130 C.ar  165  G165        0.1723
   3529  C5        30.8400    8.4580   17.2400 C.ar  165  G165        0.1748
   3530  C6        30.9710    8.7770   18.6170 C.ar  165  G165        0.3023
   3531  O6        30.1210    8.6930   19.5160 O.2   165  G165       -0.2633
   3532  N7        29.7490    7.9750   16.5240 N.ar  165  G165       -0.2173
   3533  C8        30.2000    7.8680   15.3030 C.ar  165  G165        0.1817
   3534  N9        31.5160    8.2490   15.1560 N.ar  165  G165       -0.2693
   3535  OP1       29.0860    3.5360   11.7330 O.2   165  G165       -0.5172
   3536  OP2       28.0210    4.5930   13.8110 O.co2 165  G165       -0.4373
   3537  P         34.1690    3.8480   13.3620 P.3   166  C166        0.2141
   3538  C5'       36.2130    5.0420   14.5700 C.3   166  C166        0.1812
   3539  O5'       34.9630    4.3520   14.6580 O.3   166  C166       -0.3114
   3540  C4'       36.6250    5.5880   15.9310 C.3   166  C166        0.1773
   3541  O4'       35.6830    6.5830   16.4120 O.3   166  C166       -0.3307
   3542  C3'       36.6460    4.5650   17.0540 C.3   166  C166        0.1860
   3543  O3'       37.8360    3.7980   17.0100 O.3   166  C166       -0.3112
   3544  C2'       36.5810    5.4570   18.2860 C.3   166  C166        0.2309
   3545  O2'       37.8210    6.0420   18.6130 O.3   166  C166       -0.2156
   3546  C1'       35.6080    6.5310   17.8250 C.3   166  C166        0.2420
   3547  N1        34.2240    6.2110   18.2730 N.ar  166  C166       -0.2535
   3548  C2        33.8680    6.4370   19.6150 C.ar  166  C166        0.3532
   3549  O2        34.7040    6.9060   20.4000 O.2   166  C166       -0.2443
   3550  N3        32.6100    6.1350   20.0250 N.ar  166  C166       -0.1739
   3551  C4        31.7340    5.6300   19.1570 C.ar  166  C166        0.1759
   3552  N4        30.5090    5.3490   19.6010 N.pl3 166  C166       -0.1070
   3553  C5        32.0760    5.3920   17.7910 C.ar  166  C166        0.0566
   3554  C6        33.3180    5.6880   17.3940 C.ar  166  C166        0.0850
   3555  OP1       35.0840    3.1460   12.4260 O.2   166  C166       -0.5172
   3556  OP2       32.9660    3.1620   13.8850 O.co2 166  C166       -0.4373
   3557  P         37.8100    2.2760   17.4820 P.3   167  C167        0.2141
   3558  C5'       38.9450    2.8420   19.7880 C.3   167  C167        0.1812
   3559  O5'       37.7960    2.3930   19.0750 O.3   167  C167       -0.3114
   3560  C4'       38.6420    2.9630   21.2690 C.3   167  C167        0.1773
   3561  O4'       37.5450    3.8810   21.5090 O.3   167  C167       -0.3307
   3562  C3'       38.1330    1.6870   21.8920 C.3   167  C167        0.1860
   3563  O3'       39.2190    0.8490   22.1710 O.3   167  C167       -0.3112
   3564  C2'       37.4550    2.2120   23.1520 C.3   167  C167        0.2309
   3565  O2'       38.3490    2.6020   24.1770 O.3   167  C167       -0.2156
   3566  C1'       36.7610    3.4440   22.6060 C.3   167  C167        0.2420
   3567  N1        35.3440    3.1940   22.1840 N.ar  167  C167       -0.2535
   3568  C2        34.3300    3.0940   23.1550 C.ar  167  C167        0.3532
   3569  O2        34.6060    3.2060   24.3530 O.2   167  C167       -0.2443
   3570  N3        33.0460    2.8770   22.7580 N.ar  167  C167       -0.1739
   3571  C4        32.7610    2.7590   21.4560 C.ar  167  C167        0.1759
   3572  N4        31.4880    2.5460   21.1130 N.pl3 167  C167       -0.1070
   3573  C5        33.7720    2.8560   20.4500 C.ar  167  C167        0.0566
   3574  C6        35.0300    3.0700   20.8580 C.ar  167  C167        0.0850
   3575  OP1       39.0920    1.6640   17.0760 O.3   167  C167       -0.4373
   3576  OP2       36.5180    1.7000   17.0460 O.co2 167  C167       -0.5172
   3577  P         39.0770   -0.7190   21.8970 P.3   168  G168        0.2141
   3578  C5'       38.1940   -1.2950   24.2760 C.3   168  G168        0.1812
   3579  O5'       37.9090   -1.1590   22.8990 O.3   168  G168       -0.3114
   3580  C4'       36.9380   -1.3630   25.1200 C.3   168  G168        0.1773
   3581  O4'       35.9430   -0.4090   24.6980 O.3   168  G168       -0.3307
   3582  C3'       36.1630   -2.6580   25.0660 C.3   168  G168        0.1860
   3583  O3'       36.8870   -3.6430   25.7670 O.3   168  G168       -0.3112
   3584  C2'       34.9030   -2.2120   25.7990 C.3   168  G168        0.2309
   3585  O2'       35.1040   -2.0860   27.1910 O.3   168  G168       -0.2156
   3586  C1'       34.6920   -0.8230   25.2120 C.3   168  G168        0.2408
   3587  N1        29.7330   -1.1440   24.0580 N.ar  168  G168       -0.1709
   3588  C2        30.3460   -1.2700   25.2840 C.ar  168  G168        0.2606
   3589  N2        29.5500   -1.5120   26.3370 N.pl3 168  G168       -0.0859
   3590  N3        31.6590   -1.1630   25.4610 N.ar  168  G168       -0.1918
   3591  C4        32.3220   -0.9180   24.3000 C.ar  168  G168        0.1723
   3592  C5        31.7950   -0.7840   23.0340 C.ar  168  G168        0.1748
   3593  C6        30.3970   -0.8980   22.8610 C.ar  168  G168        0.3023
   3594  O6        29.7460   -0.8100   21.8160 O.2   168  G168       -0.2633
   3595  N7        32.8010   -0.5480   22.1060 N.ar  168  G168       -0.2173
   3596  C8        33.8980   -0.5480   22.8140 C.ar  168  G168        0.1817
   3597  N9        33.6860   -0.7710   24.1540 N.ar  168  G168       -0.2693
   3598  OP1       40.3670   -1.3190   22.3150 O.3   168  G168       -0.4373
   3599  OP2       38.5600   -0.9450   20.5260 O.co2 168  G168       -0.5172
   3600  P         36.6320   -5.1890   25.4740 P.3   169  U169        0.2141
   3601  C5'       35.0760   -5.4790   27.5830 C.3   169  U169        0.1812
   3602  O5'       35.2190   -5.4540   26.1740 O.3   169  U169       -0.3114
   3603  C4'       33.6320   -5.7680   27.9300 C.3   169  U169        0.1773
   3604  O4'       32.7860   -4.6840   27.4750 O.3   169  U169       -0.3307
   3605  C3'       33.0410   -6.9660   27.2150 C.3   169  U169        0.1860
   3606  O3'       33.4210   -8.1680   27.8370 O.3   169  U169       -0.3112
   3607  C2'       31.5490   -6.6930   27.3560 C.3   169  U169        0.2309
   3608  O2'       31.0570   -7.0200   28.6380 O.3   169  U169       -0.2156
   3609  C1'       31.5040   -5.1870   27.1310 C.3   169  U169        0.2420
   3610  N1        31.1320   -4.8450   25.7130 N.ar  169  U169       -0.2534
   3611  C2        29.7900   -4.8200   25.3540 C.ar  169  U169        0.3546
   3612  O2        28.8790   -5.0530   26.1320 O.2   169  U169       -0.2443
   3613  N3        29.5420   -4.5090   24.0360 N.ar  169  U169       -0.1530
   3614  C4        30.4890   -4.2300   23.0630 C.ar  169  U169        0.2846
   3615  O4        30.1280   -3.9650   21.9240 O.2   169  U169       -0.2650
   3616  C5        31.8620   -4.2820   23.5000 C.ar  169  U169        0.0814
   3617  C6        32.1250   -4.5790   24.7810 C.ar  169  U169        0.0870
   3618  OP1       37.6980   -5.9310   26.1960 O.3   169  U169       -0.4373
   3619  OP2       36.4360   -5.3800   24.0130 O.co2 169  U169       -0.5172
   3620  P         33.3980   -9.4920   26.9480 P.3   170  C170        0.2141
   3621  C5'       31.1900  -10.3640   25.7120 C.3   170  C170        0.1812
   3622  O5'       31.8340   -9.8400   26.8850 O.3   170  C170       -0.3114
   3623  C4'       29.7030  -10.0740   25.8040 C.3   170  C170        0.1773
   3624  O4'       29.4660   -8.6580   25.5910 O.3   170  C170       -0.3307
   3625  C3'       28.8030  -10.7450   24.7800 C.3   170  C170        0.1860
   3626  O3'       28.4910  -12.0660   25.1630 O.3   170  C170       -0.3112
   3627  C2'       27.5850   -9.8330   24.8700 C.3   170  C170        0.2309
   3628  O2'       26.8650   -9.9580   26.0790 O.3   170  C170       -0.2156
   3629  C1'       28.2710   -8.4770   24.8500 C.3   170  C170        0.2420
   3630  N1        28.5500   -7.9280   23.4590 N.ar  170  C170       -0.2535
   3631  C2        27.4790   -7.5500   22.6360 C.ar  170  C170        0.3532
   3632  O2        26.3230   -7.6770   23.0470 O.2   170  C170       -0.2443
   3633  N3        27.7360   -7.0470   21.3950 N.ar  170  C170       -0.1739
   3634  C4        28.9920   -6.9140   20.9560 C.ar  170  C170        0.1759
   3635  N4        29.1760   -6.4190   19.7280 N.pl3 170  C170       -0.1070
   3636  C5        30.1020   -7.2920   21.7710 C.ar  170  C170        0.0566
   3637  C6        29.8340   -7.7800   22.9940 C.ar  170  C170        0.0850
   3638  OP1       34.1040  -10.5480   27.7140 O.3   170  C170       -0.4373
   3639  OP2       33.8410   -9.1410   25.5800 O.co2 170  C170       -0.5172
   3640  P         28.4080  -13.2470   24.0840 P.3   171  G171        0.2141
   3641  C5'       25.7850  -13.3510   24.2690 C.3   171  G171        0.1812
   3642  O5'       26.9420  -13.0900   23.4730 O.3   171  G171       -0.3114
   3643  C4'       24.5100  -12.9870   23.5260 C.3   171  G171        0.1773
   3644  O4'       24.4720  -11.5490   23.3030 O.3   171  G171       -0.3307
   3645  C3'       24.3610  -13.5960   22.1350 C.3   171  G171        0.1860
   3646  O3'       23.8300  -14.9160   22.1750 O.3   171  G171       -0.3112
   3647  C2'       23.4160  -12.6000   21.4690 C.3   171  G171        0.2309
   3648  O2'       22.0570  -12.7850   21.8030 O.3   171  G171       -0.2156
   3649  C1'       23.9230  -11.2730   22.0260 C.3   171  G171        0.2408
   3650  N1        24.8090   -8.8810   17.6130 N.ar  171  G171       -0.1709
   3651  C2        23.6170   -9.2980   18.1550 C.ar  171  G171        0.2606
   3652  N2        22.5140   -9.0480   17.4390 N.pl3 171  G171       -0.0859
   3653  N3        23.5170   -9.9140   19.3250 N.ar  171  G171       -0.1918
   3654  C4        24.7210  -10.0900   19.9280 C.ar  171  G171        0.1723
   3655  C5        25.9630   -9.7120   19.4700 C.ar  171  G171        0.1748
   3656  C6        26.0550   -9.0510   18.2160 C.ar  171  G171        0.3023
   3657  O6        27.0670   -8.6380   17.6340 O.2   171  G171       -0.2633
   3658  N7        26.9510  -10.0730   20.3810 N.ar  171  G171       -0.2173
   3659  C8        26.3000  -10.6480   21.3520 C.ar  171  G171        0.1817
   3660  N9        24.9400  -10.6900   21.1500 N.ar  171  G171       -0.2693
   3661  OP1       28.4890  -14.5250   24.8230 O.3   171  G171       -0.4373
   3662  OP2       29.3870  -12.9640   23.0140 O.co2 171  G171       -0.5172
   3663  P         24.4350  -16.0390   21.1980 P.3   172  G172        0.2141
   3664  C5'       22.2920  -15.7630   19.6980 C.3   172  G172        0.1812
   3665  O5'       23.7160  -15.7200   19.8020 O.3   172  G172       -0.3114
   3666  C4'       21.7750  -14.9440   18.5270 C.3   172  G172        0.1773
   3667  O4'       22.1900  -13.5550   18.6340 O.3   172  G172       -0.3307
   3668  C3'       22.2850  -15.3640   17.1590 C.3   172  G172        0.1860
   3669  O3'       21.5910  -16.5090   16.6900 O.3   172  G172       -0.3112
   3670  C2'       21.9840  -14.1020   16.3530 C.3   172  G172        0.2309
   3671  O2'       20.6160  -13.9310   16.0400 O.3   172  G172       -0.2156
   3672  C1'       22.4240  -13.0230   17.3390 C.3   172  G172        0.2408
   3673  N1        25.9720  -10.7210   14.4530 N.ar  172  G172       -0.1709
   3674  C2        24.6250  -10.8640   14.2180 C.ar  172  G172        0.2606
   3675  N2        24.1640  -10.3340   13.0800 N.pl3 172  G172       -0.0859
   3676  N3        23.7900  -11.4840   15.0460 N.ar  172  G172       -0.1918
   3677  C4        24.4200  -11.9630   16.1490 C.ar  172  G172        0.1723
   3678  C5        25.7590  -11.8690   16.4680 C.ar  172  G172        0.1748
   3679  C6        26.6360  -11.2030   15.5800 C.ar  172  G172        0.3023
   3680  O6        27.8570  -11.0280   15.7020 O.2   172  G172       -0.2633
   3681  N7        26.0240  -12.4830   17.6810 N.ar  172  G172       -0.2173
   3682  C8        24.8630  -12.9300   18.0680 C.ar  172  G172        0.1817
   3683  N9        23.8370  -12.6520   17.1940 N.ar  172  G172       -0.2693
   3684  OP1       24.0090  -17.3760   21.6720 O.3   172  G172       -0.4373
   3685  OP2       25.8810  -15.7670   21.0360 O.co2 172  G172       -0.5172
   3686  P         22.3790  -17.6440   15.8740 P.3   173  U173        0.2141
   3687  C5'       21.7210  -16.6030   13.5260 C.3   173  U173        0.1813
   3688  O5'       22.7300  -16.9280   14.4860 O.3   173  U173       -0.3114
   3689  C4'       22.2620  -15.6480   12.4760 C.3   173  U173        0.1801
   3690  O4'       22.8880  -14.5090   13.1230 O.3   173  U173       -0.3306
   3691  C3'       23.3610  -16.2100   11.5830 C.3   173  U173        0.2161
   3692  O3'       22.8220  -16.9710   10.5070 O.3   173  U173       -0.2175
   3693  C2'       24.0370  -14.9330   11.0980 C.3   173  U173        0.2338
   3694  O2'       23.3320  -14.3040   10.0470 O.3   173  U173       -0.2155
   3695  C1'       23.9990  -14.0690   12.3580 C.3   173  U173        0.2421
   3696  N1        25.2670  -14.1230   13.1820 N.ar  173  U173       -0.2534
   3697  C2        26.4080  -13.4510   12.7560 C.ar  173  U173        0.3546
   3698  O2        26.4790  -12.7930   11.7330 O.2   173  U173       -0.2443
   3699  N3        27.4990  -13.5720   13.5860 N.ar  173  U173       -0.1530
   3700  C4        27.5710  -14.2790   14.7740 C.ar  173  U173        0.2846
   3701  O4        28.6190  -14.2950   15.4100 O.2   173  U173       -0.2650
   3702  C5        26.3540  -14.9500   15.1580 C.ar  173  U173        0.0814
   3703  C6        25.2780  -14.8470   14.3650 C.ar  173  U173        0.0870
   3704  OP1       21.4330  -18.7530   15.6200 O.2   173  U173       -0.5172
   3705  OP2       23.6640  -17.9090   16.5610 O.co2 173  U173       -0.4373
@<TRIPOS>BOND
     1  1017   996    2
     2   980   996    1
     3   980   979    1
     4   994   974    2
     5   996  1018    1
     6   996   998    1
     7   975   977    1
     8   975   976    1
     9   997   998    1
    10   997   999    1
    11   977   979    1
    12   977   978    1
    13  1040  1019    2
    14   982   981    1
    15   979   981    1
    16   959   958    1
    17   957   974    1
    18   957   956    1
    19   974   976    1
    20   974   995    1
    21  1002  1019    1
    22  1002  1001    1
    23   999  1001    1
    24   999  1000    1
    25   978   983    1
    26   981   983    1
    27   858   840    2
    28  1019  1041    1
    29  1019  1021    1
    30   839   820    2
    31   838   820    1
    32  1001  1003    1
    33   983   993    1
    34   954   956    1
    35   954   952    1
    36   954   955    1
    37   956   958    1
    38   820   822    1
    39   820   804    1
    40   958   960    1
    41  1000  1005    1
    42   822   821    1
    43   952   953    1
    44   821   823    1
    45   840   859    1
    46   840   826    1
    47   840   842    1
    48  1021  1020    1
    49  1004  1003    1
    50   955   960    1
    51   825   823    1
    52   825   826    1
    53   825   827    1
    54  1003  1005    1
    55   960   971    1
    56   818   798    2
    57   993   992   ar
    58   993   987   ar
    59   972   951    2
    60  1005  1016    1
    61   823   824    1
    62   842   841    1
    63   804   803    1
    64   953   951    1
    65   936   935    1
    66   992   991   ar
    67   827   828    1
    68   827   829    1
    69  1020  1022    1
    70  2115  2114    1
    71  1015  1016   ar
    72  1015  1014   ar
    73   803   801    1
    74   803   805    1
    75   964   965   ar
    76   964   962   ar
    77   799   800    1
    78   799   801    1
    79  1016  1010   ar
    80   951   934    1
    81   951   973    1
    82   798   800    1
    83   798   819    1
    84   798   784    1
    85   963   962    1
    86   987   986   ar
    87   987   988   ar
    88   971   965   ar
    89   971   970   ar
    90   934   933    1
    91   986   985   ar
    92   824   829    1
    93   940   939    1
    94   801   802    1
    95   935   933    1
    96   935   937    1
    97   841   843    1
    98   991   988   ar
    99   806   805    1
   100   965   966   ar
   101   962   961   ar
   102  1014  1011   ar
   103   805   807    1
   104  1022  1023    1
   105  1022  1024    1
   106  2116  2111    1
   107  2116  2114    1
   108  2116  2117    1
   109   829   830    1
   110  2111  2110    1
   111  2114  2112    1
   112  2119  2118    2
   113  2110  2112    1
   114  2110  2108    1
   115  2135  2134    1
   116   988   989   ar
   117   933   931    1
   118   970   969   ar
   119  1062  1042    2
   120  2130  2128    1
   121  2130  2131    1
   122  2130  2132    1
   123  2128  2129    1
   124   941   939   ar
   125   941   942   ar
   126  2131  2136    1
   127   784   783    1
   128  1063  1042    1
   129  1010  1011   ar
   130  1010  1009   ar
   131  2095  2094    1
   132  1023  1028    1
   133   837   830   ar
   134   837   836   ar
   135   939   938   ar
   136  2113  2112    1
   137  2113  2127    1
   138   843   844    1
   139   843   845    1
   140  1025  1024    1
   141  1025  1042    1
   142   985   984   ar
   143  2099  2098    2
   144   830   831   ar
   145   937   932    1
   146   937   948    1
   147   844   849    1
   148  1024  1026    1
   149  1042  1044    1
   150  1011  1012   ar
   151  2108  2109    1
   152   931   932    1
   153   931   929    1
   154  2118  2117   ar
   155  2118  2120   ar
   156   802   807    1
   157  2117  2124   ar
   158   966   969   ar
   159   966   967   ar
   160  2136  2134    1
   161  2136  2137    1
   162   961   967   ar
   163  1875  1854    2
   164  1895  1877    2
   165   807   817    1
   166  2145  2127    2
   167  1038  1037   ar
   168  1038  1039   ar
   169  1009  1007   ar
   170   836   834   ar
   171  2133  2132    1
   172  2133  2147    1
   173  2134  2132    1
   174  2129  2127    1
   175   942   948   ar
   176   942   943   ar
   177   989   984   ar
   178   989   990    1
   179  2127  2146    1
   180   938   944   ar
   181  1855  1857    1
   182  1855  1856    1
   183   948   947   ar
   184  2094  2096    1
   185  2094  2092    1
   186  1037  1034   ar
   187   783   785    1
   188   783   781    1
   189   831   832    2
   190   831   833   ar
   191   967   968    2
   192   846   845    1
   193   846   860    1
   194  1028  1039    1
   195  1028  1026    1
   196  2096  2091    1
   197  2096  2097    1
   198  2098  2100   ar
   199  2098  2097   ar
   200   849   850    1
   201   849   847    1
   202   786   785    1
   203   845   847    1
   204  2120  2121   ar
   205  2168  2147    2
   206   929   930    1
   207  1842  1841    1
   208  1860  1877    1
   209  1860  1859    1
   210   796   778    2
   211  2124  2123   ar
   212  1840  1854    1
   213  1840  1839    1
   214  1039  1033   ar
   215  1026  1027    1
   216  2109  2107    1
   217  1857  1859    1
   218  1857  1858    1
   219  1101  1100    2
   220  1012  1013    2
   221  1012  1006   ar
   222   817   816   ar
   223   817   811   ar
   224   881   860    2
   225  2137  2144   ar
   226  2137  2138   ar
   227   834   833   ar
   228   834   835    2
   229   880   860    1
   230  1877  1896    1
   231  1877  1879    1
   232  1854  1856    1
   233  1854  1876    1
   234  1044  1043    1
   235   785   787    1
   236   816   815   ar
   237  2915  2897    2
   238  2148  2150    1
   239  2148  2149    1
   240  1007  1006   ar
   241  1007  1008    1
   242  2139  2138    2
   243  2147  2149    1
   244  2147  2169    1
   245  2100  2101   ar
   246   779   781    1
   247   779   780    1
   248  2359  2361    1
   249  2359  2360    1
   250  2361  2362    1
   251  2361  2363    1
   252  2091  2090    1
   253  2366  2365    1
   254  2097  2104   ar
   255   781   782    1
   256   850   857   ar
   257   850   851   ar
   258   860   862    1
   259   943   944   ar
   260   943   946   ar
   261   857   856   ar
   262   944   945    2
   263  2396  2378    2
   264  2093  2092    1
   265  2093  2107    1
   266   847   848    1
   267  2144  2143   ar
   268  1837  1835    1
   269  1837  1839    1
   270  1837  1838    1
   271  2364  2363    1
   272  2364  2378    1
   273   947   946   ar
   274  2092  2090    1
   275  2090  2088    1
   276  2360  2358    1
   277  1859  1861    1
   278  2138  2140   ar
   279  2079  2078    2
   280  1100  1099   ar
   281  1100  1102   ar
   282  1862  1861    1
   283   930   928    1
   284  1835  1836    1
   285  2362  2367    1
   286  3445  3424    2
   287  2121  2123   ar
   288  2121  2122    1
   289   780   778    1
   290  1034  1033   ar
   291  1034  1035   ar
   292  1043  1045    1
   293  2150  2151    1
   294  2150  2152    1
   295  2881  2897    1
   296  2881  2880    1
   297  1839  1841    1
   298   852   851    2
   299  2151  2156    1
   300  2876  2878    1
   301  2876  2877    1
   302   851   853   ar
   303  1858  1863    1
   304  1099  1097   ar
   305  2125  2107    2
   306  1841  1843    1
   307   856   854   ar
   308   778   797    1
   309   778   764    1
   310   811   810   ar
   311   811   812   ar
   312  2107  2126    1
   313  1878  1879    1
   314  1878  1880    1
   315  1085  1064    2
   316  2878  2880    1
   317  2878  2879    1
   318  1033  1032   ar
   319  1080  1079    1
   320  2883  2882    1
   321   949   928    2
   322  2363  2365    1
   323   815   812   ar
   324   810   809   ar
   325  2377  2358    2
   326  2898  2899    1
   327  2898  2900    1
   328   917   916    1
   329   899   898    2
   330  1102  1103   ar
   331  2365  2367    1
   332  2897  2899    1
   333  2897  2916    1
   334  2378  2380    1
   335  2378  2397    1
   336  1838  1843    1
   337  2367  2368    1
   338  2379  2380    1
   339  2379  2381    1
   340  3402  3404    1
   341  3402  3403    1
   342  3422  3401    2
   343  1861  1863    1
   344  2863  2862    1
   345  2101  2102    1
   346  2101  2103   ar
   347  2895  2875    2
   348  3407  3424    1
   349  3407  3406    1
   350   853   854   ar
   351  3467  3447    2
   352  3389  3388    1
   353  3425  3427    1
   354  3425  3426    1
   355  2104  2103   ar
   356   854   855    1
   357   787   782    1
   358   787   788    1
   359  1852  1834    2
   360  2143  2141   ar
   361  2078  2080   ar
   362  2078  2077   ar
   363  1097  1098    2
   364  1097  1096   ar
   365  2880  2882    1
   366  3404  3406    1
   367  3404  3405    1
   368  1059  1060   ar
   369  1059  1056   ar
   370   812   813   ar
   371  2080  2081   ar
   372   928   950    1
   373   928   911    1
   374  2358  2376    1
   375  2358  2341    1
   376  1843  1844    1
   377  1036  1035    2
   378  2140  2141   ar
   379   862   861    1
   380  2879  2884    1
   381  1035  1029   ar
   382  1819  1818    1
   383  3409  3408    1
   384  1094  1093    1
   385  1060  1061   ar
   386  2088  2089    1
   387  1836  1834    1
   388  1863  1874    1
   389  3424  3426    1
   390  3424  3446    1
   391  2583  2582    1
   392  3092  3091    1
   393  2877  2875    1
   394  2861  2875    1
   395  2861  2860    1
   396  2156  2154    1
   397  2156  2167    1
   398  1081  1078   ar
   399  1081  1082   ar
   400  1103  1096   ar
   401  2900  2901    1
   402  2900  2902    1
   403   764   763    1
   404  2882  2884    1
   405  2075  2074    1
   406   898   892   ar
   407   898   897   ar
   408  3387  3401    1
   409  3387  3386    1
   410  1032  1030   ar
   411  2152  2153    1
   412  2152  2154    1
   413  1880  1881    1
   414  1880  1882    1
   415  2153  2170    1
   416  2141  2142    1
   417  1045  1046    1
   418  1045  1047    1
   419   916   915   ar
   420   916   918   ar
   421  3427  3429    1
   422  3427  3428    1
   423   809   808   ar
   424  1096  1095    1
   425  1079  1078   ar
   426  1079  1074   ar
   427  1064  1084    1
   428  1064  1048    1
   429  1064  1066    1
   430  2381  2382    1
   431  2381  2383    1
   432  3430  3447    1
   433  3430  3429    1
   434  1917  1897    2
   435  2875  2896    1
   436   892   893   ar
   437  3406  3408    1
   438  2935  2917    2
   439  3105  3107    1
   440  3105  3106    1
   441  2155  2154    1
   442   861   863    1
   443   788   795   ar
   444   788   789   ar
   445  1834  1817    1
   446  1834  1853    1
   447   913   912    1
   448   904   882    2
   449  2166  2167   ar
   450  2166  2165   ar
   451  2596  2598    1
   452  2596  2597    1
   453  3401  3403    1
   454  3401  3423    1
   455  2884  2894    1
   456  3107  3108    1
   457  3107  3109    1
   458  2616  2595    2
   459  1817  1816    1
   460  1883  1897    1
   461  1883  1882    1
   462  3405  3410    1
   463  1046  1051    1
   464  1093  1095    1
   465  1093  1091    1
   466   790   789    2
   467  2903  2902    1
   468  2903  2917    1
   469  1918  1897    1
   470  3447  3468    1
   471  3447  3449    1
   472  3112  3111    1
   473  2082  2081    2
   474  1078  1077   ar
   475   915   921   ar
   476  2862  2860    1
   477  2862  2864    1
   478  1058  1057    1
   479   918   919   ar
   480  2581  2595    1
   481  2581  2580    1
   482  2167  2161   ar
   483  2368  2375   ar
   484  2368  2369   ar
   485  2188  2170    2
   486  2901  2906    1
   487  2074  2076    1
   488  2074  2072    1
   489  3125  3104    2
   490  1047  1048    1
   491  1047  1049    1
   492   911   910    1
   493  2598  2599    1
   494  2598  2600    1
   495  2081  2083   ar
   496   813   808   ar
   497   813   814    1
   498  3408  3410    1
   499  3388  3386    1
   500  3388  3390    1
   501  1138  1137    1
   502  2089  2087    1
   503  3502  3503   ar
   504  3502  3507   ar
   505  2077  2076    1
   506  2077  2084   ar
   507  2382  2387    1
   508   795   794   ar
   509  2341  2340    1
   510  2858  2860    1
   511  2858  2859    1
   512  2858  2856    1
   513  2076  2071    1
   514  1897  1899    1
   515  3090  3104    1
   516  3090  3089    1
   517  1082  1083   ar
   518   789   791   ar
   519  1056  1057   ar
   520  1056  1055   ar
   521  3384  3386    1
   522  3384  3382    1
   523  3384  3385    1
   524  1818  1816    1
   525  1818  1820    1
   526  1029  1030   ar
   527  2347  2346    1
   528  3108  3113    1
   529  3508  3507    1
   530  1823  1822    1
   531   897   900   ar
   532   897   896   ar
   533  1881  1886    1
   534  1882  1884    1
   535  3429  3431    1
   536   912   910    1
   537   912   914    1
   538  3110  3109    1
   539  3110  3127    1
   540  2902  2904    1
   541  1061  1051    1
   542  1061  1055   ar
   543  1874  1873   ar
   544  1874  1868   ar
   545  1095  1090    1
   546  2578  2580    1
   547  2578  2579    1
   548  2578  2576    1
   549  2603  2602    1
   550  1030  1031    1
   551  2384  2383    1
   552  2384  2398    1
   553  1844  1845   ar
   554  1844  1851   ar
   555  2370  2369    2
   556  3428  3433    1
   557   900   901   ar
   558  2170  2189    1
   559  2170  2172    1
   560  2917  2936    1
   561  2917  2919    1
   562  1074  1075   ar
   563  1066  1065    1
   564  2062  2061    1
   565  2416  2398    2
   566  1846  1845    2
   567   766   765    1
   568  2375  2374   ar
   569  2582  2580    1
   570  2582  2584    1
   571  3091  3089    1
   572  3091  3093    1
   573  2601  2600    1
   574  2601  2618    1
   575  1873  1872   ar
   576   893   894    1
   577   893   895   ar
   578  3410  3421    1
   579  2323  2322    1
   580  3087  3089    1
   581  3087  3088    1
   582  3087  3085    1
   583  2165  2162   ar
   584  3148  3127    2
   585  2599  2604    1
   586   763   765    1
   587   763   761    1
   588  2060  2061   ar
   589  2060  2058   ar
   590  3503  3504   ar
   591  2639  2618    2
   592  1136  1137   ar
   593  1136  1142   ar
   594  2595  2597    1
   595  2595  2617    1
   596  1105  1086    2
   597  1057  1052   ar
   598   865   863    1
   599   865   867    1
   600   865   866    1
   601  2383  2385    1
   602  3382  3383    1
   603  3106  3104    1
   604  2864  2859    1
   605  2864  2865    1
   606  1816  1814    1
   607  2856  2857    1
   608  3109  3111    1
   609  3507  3506   ar
   610  2905  2904    1
   611  1137  1139   ar
   612  1051  1049    1
   613  2369  2371   ar
   614  3104  3126    1
   615  2059  2058    2
   616  1161  1160    1
   617  2579  2584    1
   618   910   908    1
   619  3390  3385    1
   620  3390  3391    1
   621   863   864    1
   622  2576  2577    1
   623     9     8    1
   624   794   792   ar
   625  3448  3449    1
   626  3448  3450    1
   627  3111  3113    1
   628  2356  2335    2
   629  3432  3431    1
   630   765   767    1
   631  1091  1092    1
   632  1091  1089    1
   633   919   920   ar
   634   919   925   ar
   635  1845  1847   ar
   636   921   922    2
   637   921   920   ar
   638   791   792   ar
   639  3113  3124    1
   640  2584  2585    1
   641  2600  2602    1
   642  1824  1822   ar
   643  1824  1825   ar
   644  3088  3093    1
   645  1055  1054   ar
   646  2161  2162   ar
   647  2161  2160   ar
   648  2340  2342    1
   649  2340  2338    1
   650  1851  1850   ar
   651  2398  2417    1
   652  2398  2400    1
   653  1143  1142    2
   654  3093  3094    1
   655   882   866    1
   656   882   903    1
   657   882   884    1
   658   867   868    1
   659   867   869    1
   660  2894  2893   ar
   661  2894  2888   ar
   662  3085  3086    1
   663   896   895   ar
   664   896   902   ar
   665  2061  2063   ar
   666  2084  2083   ar
   667  2561  2560    1
   668  1077  1083   ar
   669  1077  1076   ar
   670  1822  1821   ar
   671  2904  2906    1
   672  1820  1815    1
   673  1820  1831    1
   674  1092  1106    1
   675  2906  2907    1
   676  1049  1050    1
   677  2071  2070    1
   678  1142  1141   ar
   679  3127  3129    1
   680  3127  3149    1
   681  2602  2604    1
   682  2386  2385    1
   683  3431  3433    1
   684  2058  2057   ar
   685  2387  2385    1
   686  2387  2388    1
   687  1814  1815    1
   688  1814  1812    1
   689  2346  2348   ar
   690  2346  2345   ar
   691  1083  1073    1
   692   901   902   ar
   693   792   793    1
   694  2604  2615    1
   695  2162  2163   ar
   696  2867  2866    2
   697  2072  2073    1
   698  2072  2070    1
   699  2042  2041    1
   700  2618  2620    1
   701  2618  2640    1
   702  2321  2335    1
   703  2321  2320    1
   704   914   925    1
   705   914   909    1
   706  3433  3444    1
   707   920   923   ar
   708  2087  2073    1
   709  2087  2105    2
   710  2087  2106    1
   711  1868  1867   ar
   712  1868  1869   ar
   713  1884  1886    1
   714  1884  1885    1
   715   761   759    1
   716   761   762    1
   717  1090  1089    1
   718  1886  1887    1
   719  1139  1140   ar
   720  2619  2620    1
   721  2619  2621    1
   722  3128  3129    1
   723  3128  3130    1
   724   776   758    2
   725   864   869    1
   726  1160  1162   ar
   727  1160  1159   ar
   728  1088  1086    1
   729  1088  1087    1
   730  3393  3392    2
   731  1075  1076   ar
   732  2160  2158   ar
   733  1899  1898    1
   734  2374  2372   ar
   735   878   877   ar
   736   878   879   ar
   737  1894  1887   ar
   738  1894  1893   ar
   739   925   924   ar
   740  2336  2338    1
   741  2336  2337    1
   742  2893  2892   ar
   743  1872  1869   ar
   744  1124  1106    2
   745  1065  1067    1
   746  2348  2349   ar
   747  2172  2171    1
   748  2919  2918    1
   749  3096  3095    2
   750  3366  3365    1
   751  3504  3505   ar
   752  2022  2021    2
   753   759   760    1
   754  2322  2324    1
   755  2322  2320    1
   756  2587  2586    2
   757  1867  1865   ar
   758  2918  2920    1
   759  3070  3069    1
   760  3421  3420   ar
   761  3421  3415   ar
   762   902   891    1
   763  1086  1104    1
   764  1086  1070    1
   765  2342  2343    1
   766  2342  2344    1
   767  2318  2319    1
   768  2318  2320    1
   769  2318  2316    1
   770   884   883    1
   771  2171  2173    1
   772  2841  2840    1
   773  3399  3381    2
   774  1162  1163   ar
   775  1052  1053   ar
   776  2914  2907   ar
   777  2914  2913   ar
   778  2070  2068    1
   779  1159  1165   ar
   780  2338  2339    1
   781  2887  2888   ar
   782  2887  2886   ar
   783  2335  2337    1
   784  2335  2357    1
   785  2395  2388   ar
   786  2395  2394   ar
   787  3506  3505   ar
   788  3506  3509   ar
   789  2371  2372   ar
   790   908   909    1
   791   908   906    1
   792  3383  3381    1
   793  1089  1087    1
   794  1125  1106    1
   795  2345  2351   ar
   796  3370  3369    1
   797  2857  2855    1
   798  1800  1799    1
   799  2865  2866   ar
   800  2865  2872   ar
   801  1825  1831   ar
   802  1825  1826   ar
   803  2888  2889   ar
   804  1106  1108    1
   805  1141  1140   ar
   806  1141  1144   ar
   807   869   879    1
   808  2324  2319    1
   809  2324  2325    1
   810  2020  2021   ar
   811  2020  2018   ar
   812  3450  3451    1
   813  3450  3452    1
   814  3391  3392   ar
   815  3391  3398   ar
   816  1831  1830   ar
   817  1140  1146   ar
   818   890   889    1
   819     8    10    1
   820     8     6    1
   821  1898  1900    1
   822  2577  2575    1
   823   877   874   ar
   824  2866  2868   ar
   825  2907  2908   ar
   826  1847  1848   ar
   827    25    27    1
   828    25    26    1
   829  1069  1067    1
   830  1069  1070    1
   831  1069  1071    1
   832  1887  1888   ar
   833   760   758    1
   834  2388  2389   ar
   835  3124  3123   ar
   836  3124  3118   ar
   837  1054  1053   ar
   838  1850  1848   ar
   839  1893  1891   ar
   840  1869  1870   ar
   841  1821  1827   ar
   842     4     5    1
   843     4     6    1
   844     4     2    1
   845  2585  2586   ar
   846  2585  2592   ar
   847     7     6    1
   848     7    24    1
   849  1812  1813    1
   850     5    10    1
   851  1068  1073    1
   852  1068  1067    1
   853   767   762    1
   854   767   768    1
   855  3420  3419   ar
   856   889   891    1
   857   889   887    1
   858  2873  2855    2
   859  2327  2326    2
   860  3094  3095   ar
   861  3094  3101   ar
   862  2621  2622    1
   863  2621  2623    1
   864  2957  2937    2
   865  3392  3394   ar
   866  2372  2373    1
   867  2560  2562    1
   868  2560  2558    1
   869  3505  3511   ar
   870  2163  2164    2
   871  2163  2157   ar
   872  3130  3131    1
   873  3130  3132    1
   874   770   769    2
   875  3086  3084    1
   876  2021  2023   ar
   877   879   873   ar
   878  2400  2399    1
   879    27    28    1
   880    27    29    1
   881    10    21    1
   882  2593  2575    2
   883  2040  2041   ar
   884  2040  2038   ar
   885  2019  2018    2
   886  2041  2043   ar
   887  2063  2064   ar
   888  1073  1071    1
   889   923   924   ar
   890  1184  1183    1
   891   758   777    1
   892   758   744    1
   893    42    24    2
   894  3444  3443   ar
   895  3444  3438   ar
   896  3443  3442   ar
   897  2565  2564   ar
   898  2565  2566   ar
   899  2158  2157   ar
   900  2158  2159    1
   901  2586  2588   ar
   902  2057  2064   ar
   903  2057  2056    1
   904  3095  3097   ar
   905  2615  2614   ar
   906  2615  2609   ar
   907  2316  2317    1
   908  2564  2563   ar
   909  2399  2401    1
   910  1163  1164   ar
   911  1163  1169   ar
   912  2304  2305   ar
   913  2304  2303   ar
   914  2559  2575    1
   915  2559  2558    1
   916  3381  3364    1
   917  3381  3400    1
   918  1165  1166    2
   919  1165  1164   ar
   920  3414  3415   ar
   921  3414  3412   ar
   922  1180  1179    1
   923  2174  2173    1
   924  2174  2179    1
   925  3131  3136    1
   926  2913  2911   ar
   927  3364  3363    1
   928  3102  3084    2
   929  2018  2017   ar
   930  3123  3122   ar
   931  2394  2392   ar
   932  3415  3416   ar
   933  3491  3469    2
   934  2349  2355   ar
   935  2349  2350   ar
   936  1071  1072    1
   937  2622  2627    1
   938    28    33    1
   939   891   886    1
   940  2892  2889   ar
   941  1144  1145   ar
   942    32    31    1
   943  3365  3363    1
   944  3365  3367    1
   945  3509  3510   ar
   946  3451  3456    1
   947  1848  1849    2
   948  1157  1156    1
   949  3069  3071    1
   950  3069  3067    1
   951  2301  2300    1
   952  2855  2839    1
   953  2855  2874    1
   954  3452  3453    1
   955  3452  3454    1
   956   769   768   ar
   957   769   771   ar
   958  2840  2838    1
   959  2840  2842    1
   960  1185  1183   ar
   961  1185  1186   ar
   962  2173  2175    1
   963   906   907    1
   964  2575  2594    1
   965    30    29    1
   966    30    44    1
   967  2186  2187   ar
   968  2186  2184   ar
   969   768   775   ar
   970  3074  3073   ar
   971  3074  3075   ar
   972  3073  3072   ar
   973  2305  2306   ar
   974  1865  1866    1
   975  1865  1864   ar
   976  2187  2180   ar
   977  1158  1169    1
   978  1158  1153    1
   979  1158  1156    1
   980  1146  1145   ar
   981  1146  1135    1
   982  2839  2838    1
   983  2562  2557    1
   984  2562  2572    1
   985  2872  2871   ar
   986  3117  3118   ar
   987  3117  3115   ar
   988    62    44    2
   989  1181  1176    1
   990  1181  1179    1
   991  1181  1192    1
   992  2886  2885   ar
   993  3369  3371   ar
   994  3369  3368   ar
   995  1164  1167   ar
   996     2     3    1
   997  2920  2921    1
   998  2920  2922    1
   999  1183  1182   ar
  1000  3371  3372   ar
  1001  3398  3397   ar
  1002  2344  2339    1
  1003  2344  2355    1
  1004  2889  2890   ar
  1005  3068  3084    1
  1006  3068  3067    1
  1007  3118  3119   ar
  1008  2351  2350   ar
  1009  2351  2352    2
  1010  2614  2613   ar
  1011   907   905    1
  1012  1169  1168   ar
  1013   883   885    1
  1014  1826  1827   ar
  1015  1826  1829   ar
  1016  1799  1798   ar
  1017  1799  1801   ar
  1018    24    26    1
  1019    24    43    1
  1020  1176  1175    1
  1021  2845  2844   ar
  1022  2845  2846   ar
  1023  2558  2556    1
  1024  2592  2591   ar
  1025  3084  3103    1
  1026  2326  2325   ar
  1027  2326  2328   ar
  1028  2844  2843   ar
  1029  2068  2069    1
  1030  2325  2332   ar
  1031    14    12   ar
  1032    14    15   ar
  1033    13    12    1
  1034  1813  1811    1
  1035  3101  3100   ar
  1036   887   885    1
  1037   887   888    1
  1038  1830  1829   ar
  1039  2624  2623    1
  1040  2624  2641    1
  1041  2055  2054    1
  1042  2056  2054    1
  1043  2056  2051    1
  1044  3490  3469    1
  1045  1827  1828    2
  1046  2868  2869   ar
  1047  2303  2308   ar
  1048  1108  1107    1
  1049  2608  2609   ar
  1050  2608  2606   ar
  1051  2908  2909    2
  1052  2908  2910   ar
  1053  2389  2390    2
  1054  2389  2391   ar
  1055   874   873   ar
  1056   874   875   ar
  1057    29    31    1
  1058  2054  2052    1
  1059  2355  2354   ar
  1060  2921  2926    1
  1061  1135  1133    1
  1062  1135  1130    1
  1063  2023  2024   ar
  1064  1941  1919    2
  1065  1888  1889    2
  1066  1888  1890   ar
  1067  2038  2039    2
  1068  2038  2037   ar
  1069  1122  1123   ar
  1070  1122  1120   ar
  1071  2609  2610   ar
  1072  2556  2557    1
  1073  2556  2554    1
  1074  3133  3132    1
  1075  3133  3150    1
  1076   771   772   ar
  1077  3419  3416   ar
  1078  2350  2353   ar
  1079   886   885    1
  1080  1900  1901    1
  1081  1900  1902    1
  1082  2623  2625    1
  1083  3363  3361    1
  1084  1153  1152    1
  1085  2043  2044   ar
  1086  1870  1864   ar
  1087  1870  1871    2
  1088  1891  1890   ar
  1089  1891  1892    1
  1090   873   872   ar
  1091   775   774   ar
  1092  1179  1177    1
  1093  3394  3395   ar
  1094  3511  3510   ar
  1095  3511  3501    1
  1096  3469  3453    1
  1097  3469  3471    1
  1098  1156  1154    1
  1099  1186  1192   ar
  1100  1186  1187   ar
  1101  2937  2958    1
  1102  2937  2923    1
  1103  2937  2939    1
  1104  3442  3439   ar
  1105  2069  2067    1
  1106  3132  3134    1
  1107  1798  1804   ar
  1108  2566  2572   ar
  1109  2566  2567   ar
  1110  1121  1120    1
  1111    21    15   ar
  1112    21    20   ar
  1113  3465  3464   ar
  1114  3465  3466   ar
  1115  2626  2625    1
  1116  2563  2568   ar
  1117  1192  1191   ar
  1118    33    31    1
  1119    33    34    1
  1120  2662  2641    2
  1121  3071  3066    1
  1122  3071  3081    1
  1123  3454  3456    1
  1124  3454  3455    1
  1125  2838  2836    1
  1126  3438  3437   ar
  1127  3438  3439   ar
  1128  3367  3362    1
  1129  3367  3378    1
  1130  3097  3098   ar
  1131  3067  3065    1
  1132   744   743    1
  1133  2017  2024   ar
  1134  2017  2016    1
  1135  3412  3413    1
  1136  3412  3411   ar
  1137  1182  1188   ar
  1138  2588  2589   ar
  1139  2842  2837    1
  1140  2842  2852    1
  1141  1801  1802   ar
  1142  1167  1168   ar
  1143  2184  2185    1
  1144  2184  2183   ar
  1145  2180  2179    1
  1146  2180  2181   ar
  1147    44    63    1
  1148    44    46    1
  1149  1915  1914   ar
  1150  1915  1916   ar
  1151  3416  3417   ar
  1152  2179  2177    1
  1153  3500  3499    1
  1154    12    11   ar
  1155  2300  2302    1
  1156  2300  2298    1
  1157  2572  2571   ar
  1158  2317  2315    1
  1159  3122  3119   ar
  1160  3136  3134    1
  1161  3136  3147    1
  1162  1901  1906    1
  1163  3072  3077   ar
  1164  1203  1202    1
  1165  3135  3134    1
  1166  2392  2391   ar
  1167  2392  2393    1
  1168  2627  2625    1
  1169  2627  2638    1
  1170  2401  2402    1
  1171  2401  2403    1
  1172  2911  2910   ar
  1173  2911  2912    1
  1174  3456  3466    1
  1175  1914  1911   ar
  1176  1940  1919    1
  1177  1175  1177    1
  1178  1175  1173    1
  1179    15    16   ar
  1180  3170  3150    2
  1181  1134  1133    1
  1182  3368  3374   ar
  1183  3115  3116    1
  1184  3115  3114   ar
  1185  1199  1204    1
  1186  1199  1198    1
  1187  3361  3362    1
  1188  3361  3359    1
  1189   772   774   ar
  1190   772   773    1
  1191  1133  1131    1
  1192  2922  2923    1
  1193  2922  2924    1
  1194  3075  3081   ar
  1195  3075  3076   ar
  1196  1123  1116   ar
  1197  2885  2890   ar
  1198  1796  1795    1
  1199  1902  1903    1
  1200  1902  1904    1
  1201  3119  3120   ar
  1202  2175  2176    1
  1203  2175  2177    1
  1204  2871  2869   ar
  1205  1832  1811    2
  1206  3437  3435   ar
  1207  1120  1119   ar
  1208  3372  3378   ar
  1209  3372  3373   ar
  1210  2641  2663    1
  1211  2641  2643    1
  1212  2402  2407    1
  1213  2890  2891    1
  1214  2306  2312   ar
  1215  2306  2307   ar
  1216  1903  1919    1
  1217  3464  3461   ar
  1218  1919  1921    1
  1219  2843  2848   ar
  1220    45    46    1
  1221    45    47    1
  1222  3397  3395   ar
  1223  2934  2933   ar
  1224  2934  2927   ar
  1225  3065  3066    1
  1226  3065  3063    1
  1227   888   905    1
  1228  1204  1202    1
  1229  1204  1215    1
  1230  2836  2837    1
  1231  2836  2834    1
  1232  1130  1129    1
  1233  2613  2610   ar
  1234  3466  3460   ar
  1235  2846  2852   ar
  1236  2846  2847   ar
  1237     3     1    1
  1238  2440  2418    2
  1239  1187  1188   ar
  1240  1187  1190   ar
  1241  2332  2331   ar
  1242  3439  3440   ar
  1243  2328  2329   ar
  1244  2869  2870    2
  1245  2302  2312    1
  1246  2302  2297    1
  1247  2606  2607    1
  1248  2606  2605   ar
  1249  1107  1109    1
  1250  2591  2589   ar
  1251  3501  3499    1
  1252  3501  3496    1
  1253  1191  1190   ar
  1254   876   875    1
  1255  3081  3080   ar
  1256  1188  1189    2
  1257   875   870   ar
  1258  3100  3098   ar
  1259  2939  2938    1
  1260  2002  2001    2
  1261  3150  3171    1
  1262  3150  3152    1
  1263   905   927    2
  1264   905   926    1
  1265  1152  1154    1
  1266  1152  1150    1
  1267  2354  2353   ar
  1268  1811  1794    1
  1269  1811  1833    1
  1270  1198  1196    1
  1271  1198  1200    1
  1272  3378  3377   ar
  1273  3146  3147   ar
  1274  3146  3145   ar
  1275  2016  2011    1
  1276  2016  2014    1
  1277  3694  3693    1
  1278  2610  2611   ar
  1279  2051  2050    1
  1280  3395  3396    2
  1281  2933  2931   ar
  1282  2044  2037   ar
  1283  2308  2307   ar
  1284  2308  2309    1
  1285  2037  2036    1
  1286  2852  2851   ar
  1287  1177  1178    1
  1288  2183  2181   ar
  1289  2181  2182    2
  1290   872   871   ar
  1291  2333  2315    2
  1292  2052  2053    1
  1293  2052  2050    1
  1294  2554  2555    1
  1295  3098  3099    1
  1296    20    19   ar
  1297  2299  2315    1
  1298  2299  2298    1
  1299  2011  2010    1
  1300  2926  2927    1
  1301  2926  2924    1
  1302  3147  3141   ar
  1303  2568  2567   ar
  1304  2568  2569    1
  1305  2567  2570   ar
  1306  2176  2190    1
  1307  2637  2638   ar
  1308  2637  2636   ar
  1309  2589  2590    2
  1310  3499  3497    1
  1311  1795  1793    1
  1312  1795  1797    1
  1313  1804  1805    2
  1314  1804  1803   ar
  1315  2209  2190    2
  1316  2439  2418    1
  1317  1173  1174    1
  1318   743   745    1
  1319   743   741    1
  1320  1154  1155    1
  1321  1202  1200    1
  1322  2177  2178    1
  1323  2312  2311   ar
  1324  3411  3417   ar
  1325  1916  1906    1
  1326  1916  1910   ar
  1327    34    41   ar
  1328    34    35   ar
  1329  2638  2632   ar
  1330  2000  2001   ar
  1331  2000  1998   ar
  1332  2403  2404    1
  1333  2403  2405    1
  1334  2315  2334    1
  1335  1802  1803   ar
  1336  1802  1808   ar
  1337  3692  3691    1
  1338   746   745    1
  1339  2415  2414   ar
  1340  2415  2408   ar
  1341  3471  3470    1
  1342  1196  1197    1
  1343  3417  3418    2
  1344  1208  1209   ar
  1345  1208  1206   ar
  1346  2545  2544    2
  1347  2067  2086    2
  1348  2067  2053    1
  1349  2067  2085    1
  1350  2298  2296    1
  1351  1906  1904    1
  1352  2404  2418    1
  1353  2307  2310   ar
  1354  3077  3076   ar
  1355  3077  3078    1
  1356  1178  1195    1
  1357  1215  1209   ar
  1358  1215  1214   ar
  1359  2418  2420    1
  1360  1981  1980    2
  1361  2927  2928   ar
  1362    11    17   ar
  1363  3114  3120   ar
  1364  1207  1206    1
  1365  2571  2570   ar
  1366  1794  1793    1
  1367    41    40   ar
  1368  3359  3360    1
  1369    22     1    1
  1370  2414  2412   ar
  1371  3076  3079   ar
  1372    47    48    1
  1373    47    49    1
  1374  2924  2925    1
  1375  2001  2003   ar
  1376   745   747    1
  1377  3374  3373   ar
  1378  3374  3375    2
  1379    16    19   ar
  1380    16    17   ar
  1381  1911  1910   ar
  1382  1911  1912   ar
  1383  3373  3376   ar
  1384  3120  3121    2
  1385  1999  1998    2
  1386  2848  2847   ar
  1387  2848  2849    1
  1388  3461  3460   ar
  1389  3461  3462   ar
  1390  1116  1115    1
  1391  1116  1117   ar
  1392     1    23    1
  1393  1209  1210   ar
  1394  2297  2296    1
  1395  3435  3436    1
  1396  3435  3434   ar
  1397  2847  2850   ar
  1398  1119  1117   ar
  1399  1904  1905    1
  1400  3460  3459   ar
  1401  2050  2048    1
  1402  1131  1129    1
  1403  1131  1132    1
  1404  1206  1205   ar
  1405    48    53    1
  1406  3145  3142   ar
  1407  2331  2329   ar
  1408  3151  3152    1
  1409  3151  3153    1
  1410  3063  3064    1
  1411  1155  1172    1
  1412  2407  2408    1
  1413  2407  2405    1
  1414  2834  2835    1
  1415  2643  2642    1
  1416  1803  1806   ar
  1417  2190  2208    1
  1418  2190  2192    1
  1419  3693  3691    1
  1420  3693  3695    1
  1421  1200  1201    1
  1422  1129  1127    1
  1423  2605  2611   ar
  1424  2329  2330    2
  1425  2938  2940    1
  1426    36    35    2
  1427  1150  1151    1
  1428  3496  3495    1
  1429  2296  2294    1
  1430  2205  2204    2
  1431   870   871   ar
  1432  1110  1109    1
  1433  1110  1115    1
  1434  1109  1111    1
  1435  1998  1997   ar
  1436  1921  1920    1
  1437  2642  2644    1
  1438  1913  1912    1
  1439  2611  2612    2
  1440  1174  1172    1
  1441  1793  1791    1
  1442  2541  2540    1
  1443  3440  3434   ar
  1444  3440  3441    2
  1445  1214  1213   ar
  1446  2285  2284    2
  1447  1113  1111    1
  1448  1113  1115    1
  1449  1113  1114    1
  1450  2555  2553    1
  1451  1797  1808    1
  1452  1797  1792    1
  1453  3080  3079   ar
  1454  3377  3376   ar
  1455  2408  2409   ar
  1456    35    37   ar
  1457  1201  1218    1
  1458  2636  2633   ar
  1459  1222  1221    1
  1460  1222  1227    1
  1461  2015  2014    1
  1462  1910  1909   ar
  1463  2036  2034    1
  1464  2036  2031    1
  1465  2014  2012    1
  1466  1111  1112    1
  1467  2851  2850   ar
  1468  1808  1807   ar
  1469  2931  2932    1
  1470  2931  2930   ar
  1471  1197  1195    1
  1472    17    18    2
  1473  3498  3497    1
  1474  3498  3514    1
  1475  3141  3142   ar
  1476  3141  3140   ar
  1477  1777  1776    1
  1478  3691  3689    1
  1479  2010  2012    1
  1480  2010  2008    1
  1481  3470  3472    1
  1482  2522  2521    1
  1483  2206  2204   ar
  1484  2206  2207   ar
  1485   741   739    1
  1486   741   742    1
  1487  3515  3517    1
  1488  3515  3516    1
  1489  2544  2546   ar
  1490  2544  2543   ar
  1491  1117  1118    2
  1492  3497  3495    1
  1493  2405  2406    1
  1494  1912  1907   ar
  1495  3054  3053    2
  1496  1958  1957    1
  1497  2311  2310   ar
  1498  3350  3349    2
  1499  3535  3514    2
  1500  3698  3697    2
  1501  2632  2633   ar
  1502  2632  2631   ar
  1503  1980  1974   ar
  1504  1980  1979   ar
  1505  1210  1213   ar
  1506  1210  1211   ar
  1507  1937  1938   ar
  1508  1937  1934   ar
  1509  1205  1211   ar
  1510  3360  3358    1
  1511  1219  1221    1
  1512  1219  1220    1
  1513  2546  2547   ar
  1514  2034  2035    1
  1515  2034  2032    1
  1516    40    38   ar
  1517  1221  1223    1
  1518  2204  2203   ar
  1519  1128  1127    1
  1520  1128  1126    1
  1521   739   740    1
  1522  2412  2413    2
  1523  2412  2411   ar
  1524  1151  1149    1
  1525  2286  2284   ar
  1526  2286  2287   ar
  1527  1132  1149    1
  1528  2003  2004   ar
  1529  1195  1216    2
  1530  1195  1217    1
  1531  2540  2542    1
  1532  2540  2538    1
  1533  2049  2048    1
  1534  2049  2047    1
  1535  1974  1975   ar
  1536  3459  3458   ar
  1537  3142  3143   ar
  1538  2928  2930   ar
  1539  2928  2929    2
  1540  3462  3463    1
  1541  3462  3457   ar
  1542   750   749    2
  1543  2835  2833    1
  1544  2013  2012    1
  1545  2013  2027    1
  1546  3064  3062    1
  1547    49    50    1
  1548    49    51    1
  1549  3517  3518    1
  1550  3517  3519    1
  1551    50    64    1
  1552  1172  1194    2
  1553  1172  1193    1
  1554  1227  1237    1
  1555  1227  1225    1
  1556  3346  3345    1
  1557  3140  3138   ar
  1558  2420  2419    1
  1559  2284  2283   ar
  1560  3512  3492    2
  1561  1920  1922    1
  1562   747   748    1
  1563   747   742    1
  1564  3495  3493    1
  1565  1775  1776   ar
  1566  1775  1781   ar
  1567  1148  1126    2
  1568  1938  1939   ar
  1569  2825  2824    2
  1570  2008  2009    1
  1571  2955  2954   ar
  1572  2955  2956   ar
  1573  1211  1212    2
  1574  1936  1935    2
  1575  2262  2261    1
  1576  2633  2634   ar
  1577  3153  3154    1
  1578  3153  3155    1
  1579  2631  2629   ar
  1580  2520  2521   ar
  1581  2520  2526   ar
  1582  3695  3690    1
  1583  3695  3696    1
  1584  1997  2004   ar
  1585  1997  1996    1
  1586  1963  1942    2
  1587  2941  2940    1
  1588  2941  2946    1
  1589  1806  1807   ar
  1590  1791  1792    1
  1591  1791  1789    1
  1592    53    51    1
  1593    53    54    1
  1594  2267  2266    2
  1595  2940  2942    1
  1596  2192  2191    1
  1597  3555  3537    2
  1598  2260  2266   ar
  1599  2260  2261   ar
  1600  2954  2951   ar
  1601  3514  3516    1
  1602  3514  3536    1
  1603  3689  3690    1
  1604  3689  3687    1
  1605   749   748   ar
  1606   749   751   ar
  1607  2009  2007    1
  1608  2031  2030    1
  1609  1776  1778   ar
  1610  2207  2200   ar
  1611  1226  1225    1
  1612  2409  2411   ar
  1613  2409  2410    2
  1614  3154  3159    1
  1615  3050  3049    1
  1616  2066  2047    2
  1617    37    38   ar
  1618  2644  2645    1
  1619  2644  2646    1
  1620  2288  2287    1
  1621  2521  2523   ar
  1622  2294  2295    1
  1623  2542  2543    1
  1624  2542  2537    1
  1625  3520  3519    1
  1626  3520  3537    1
  1627   748   755   ar
  1628  2225  2224    1
  1629  3055  3053   ar
  1630  3055  3056   ar
  1631  2821  2820    1
  1632    61    54   ar
  1633    61    60   ar
  1634  3053  3052   ar
  1635    85    64    2
  1636  1112  1126    1
  1637  3494  3493    1
  1638  3494  3492    1
  1639  2032  2030    1
  1640  2032  2033    1
  1641  1909  1908   ar
  1642  3697  3696   ar
  1643  3697  3699   ar
  1644  1994  1995    1
  1645  1994  1996    1
  1646  1994  1992    1
  1647  2543  2550   ar
  1648    52    51    1
  1649  2419  2421    1
  1650  1220  1218    1
  1651  2573  2553    2
  1652  2553  2539    1
  1653  2553  2574    1
  1654  3349  3351   ar
  1655  3349  3348   ar
  1656  3518  3523    1
  1657   751   752   ar
  1658  1782  1781    2
  1659  2645  2650    1
  1660    38    39    1
  1661  1218  1238    2
  1662  1218  1239    1
  1663  1126  1147    1
  1664  1149  1171    2
  1665  1149  1170    1
  1666  1237  1236   ar
  1667  1237  1231   ar
  1668  3472  3474    1
  1669  3472  3473    1
  1670  3345  3347    1
  1671  3345  3343    1
  1672    86    64    1
  1673  1979  1982   ar
  1674  1979  1978   ar
  1675  2287  2289   ar
  1676  2527  2526    2
  1677  3351  3352   ar
  1678  2029  2027    1
  1679  2029  2028    1
  1680  2539  2538    1
  1681  1934  1935   ar
  1682  1934  1933   ar
  1683  3458  3457   ar
  1684  1907  1908   ar
  1685  1957  1956   ar
  1686  1957  1952   ar
  1687    64    66    1
  1688  2547  2548    2
  1689  2547  2549   ar
  1690  2281  2280    1
  1691  2045  2027    2
  1692  2266  2265   ar
  1693  3675  3674    1
  1694  2261  2263   ar
  1695  3379  3358    2
  1696  1236  1235   ar
  1697  1225  1223    1
  1698  1959  1956   ar
  1699  1959  1960   ar
  1700  1982  1983   ar
  1701   755   754   ar
  1702  1781  1780   ar
  1703  1935  1929   ar
  1704    54    55   ar
  1705  3696  3703   ar
  1706  2203  2201   ar
  1707  2047  2033    1
  1708  2047  2065    1
  1709  3522  3521    1
  1710  1975  1976    1
  1711  1975  1977   ar
  1712  3474  3475    1
  1713  3474  3476    1
  1714  1996  1991    1
  1715  3519  3521    1
  1716  2538  2536    1
  1717  3049  3051    1
  1718  3049  3047    1
  1719  2027  2046    1
  1720  3358  3344    1
  1721  3358  3380    1
  1722  2686  2664    2
  1723  2526  2525   ar
  1724   752   754   ar
  1725   752   753    1
  1726  1223  1224    1
  1727  3143  3144    2
  1728  3143  3137   ar
  1729   740   738    1
  1730  3492  3475    1
  1731  3492  3513    1
  1732   756   738    2
  1733    60    58   ar
  1734  3537  3556    1
  1735  3537  3539    1
  1736  2824  2826   ar
  1737  2824  2823   ar
  1738  2820  2822    1
  1739  2820  2818    1
  1740  2191  2193    1
  1741  2853  2833    2
  1742  3138  3137   ar
  1743  3138  3139    1
  1744  1715  1714    2
  1745  2956  2946    1
  1746  2956  2950   ar
  1747  2295  2293    1
  1748  3168  3167   ar
  1749  3168  3169   ar
  1750  1231  1230   ar
  1751  1231  1232   ar
  1752  2245  2244    2
  1753  2030  2028    1
  1754  3687  3688    1
  1755  2833  2819    1
  1756  2833  2854    1
  1757  2826  2827   ar
  1758  1230  1229   ar
  1759  2283  2282    1
  1760  2283  2290   ar
  1761  3699  3700   ar
  1762  2280  2282    1
  1763  2280  2278    1
  1764  1922  1923    1
  1765  1922  1924    1
  1766  2660  2659   ar
  1767  2660  2661   ar
  1768  1778  1779   ar
  1769  3082  3062    2
  1770  3344  3343    1
  1771  2946  2944    1
  1772  2942  2943    1
  1773  2942  2944    1
  1774  3155  3156    1
  1775  3155  3157    1
  1776  3062  3048    1
  1777  3062  3083    1
  1778  2629  2628   ar
  1779  2629  2630    1
  1780  1956  1955   ar
  1781  1939  1933   ar
  1782  1939  1928    1
  1783  3057  3056    1
  1784  2978  2959    2
  1785  1789  1790    1
  1786  2634  2628   ar
  1787  2634  2635    2
  1788  1224  1240    1
  1789  1923  1928    1
  1790  3347  3348    1
  1791  3347  3342    1
  1792  1992  1993    1
  1793  1992  1990    1
  1794  1942  1962    1
  1795  1942  1925    1
  1796  1942  1944    1
  1797  3056  3058   ar
  1798  1235  1232   ar
  1799  2200  2201   ar
  1800  2200  2199    1
  1801  2951  2950   ar
  1802  2951  2952   ar
  1803  3156  3172    1
  1804  1924  1925    1
  1805  1924  1926    1
  1806  1952  1953   ar
  1807  2646  2647    1
  1808  2646  2648    1
  1809  2523  2524   ar
  1810  1993  2007    1
  1811  2282  2277    1
  1812  2026  2007    2
  1813  3052  3051    1
  1814  3052  3059   ar
  1815  2436  2437   ar
  1816  2436  2433   ar
  1817  3348  3355   ar
  1818  2224  2226   ar
  1819  2224  2223   ar
  1820  2007  2025    1
  1821  2537  2536    1
  1822  3051  3046    1
  1823  3523  3521    1
  1824  3523  3534    1
  1825  2437  2438   ar
  1826  3159  3169    1
  1827  3159  3157    1
  1828  3194  3172    2
  1829  3473  3478    1
  1830  2550  2549   ar
  1831  2504  2503    2
  1832  3343  3341    1
  1833  1232  1233   ar
  1834  2647  2664    1
  1835  3167  3164   ar
  1836  3476  3478    1
  1837  3476  3477    1
  1838  1978  1977   ar
  1839  1978  1984   ar
  1840  2194  2193    1
  1841  2194  2199    1
  1842  2819  2818    1
  1843  2659  2656   ar
  1844  1933  1932   ar
  1845  2536  2534    1
  1846   738   757    1
  1847   738   724    1
  1848  2943  2959    1
  1849  2201  2202    2
  1850  3048  3047    1
  1851  2953  2952    1
  1852  3352  3353    1
  1853  3352  3354   ar
  1854  2974  2973    1
  1855  1960  1961   ar
  1856  2822  2823    1
  1857  2822  2817    1
  1858  1229  1228   ar
  1859  1716  1713   ar
  1860  1716  1717   ar
  1861  3674  3673   ar
  1862  3674  3676   ar
  1863  2226  2227   ar
  1864  2650  2661    1
  1865  2650  2648    1
  1866  2421  2422    1
  1867  2421  2423    1
  1868  3193  3172    1
  1869  1790  1788    1
  1870  3169  3163   ar
  1871  1780  1779   ar
  1872  1780  1783   ar
  1873  2289  2290   ar
  1874  2664  2685    1
  1875  2664  2666    1
  1876  3703  3702   ar
  1877  1983  1984   ar
  1878    55    56    2
  1879    55    57   ar
  1880  2463  2441    2
  1881  2263  2264   ar
  1882  2823  2830   ar
  1883  2950  2949   ar
  1884  3047  3045    1
  1885  3673  3679   ar
  1886  1779  1785   ar
  1887  3172  3174    1
  1888  1928  1926    1
  1889  3688  3686    1
  1890  2661  2655   ar
  1891  2265  2264   ar
  1892  2265  2268   ar
  1893  2818  2816    1
  1894  2422  2427    1
  1895  2681  2680    2
  1896  1929  1930   ar
  1897  3016  3015    2
  1898  1714  1713   ar
  1899  1714  1708   ar
  1900    66    65    1
  1901  2193  2195    1
  1902  3538  3539    1
  1903  3538  3540    1
  1904  2944  2945    1
  1905  1991  1990    1
  1906  2525  2524   ar
  1907  2525  2528   ar
  1908  2994  2993    2
  1909    58    57   ar
  1910    58    59    1
  1911  2952  2947   ar
  1912  3157  3158    1
  1913  3034  3033    2
  1914  1233  1228   ar
  1915  1233  1234    1
  1916  2244  2243   ar
  1917  2244  2246   ar
  1918  2959  2977    1
  1919  2959  2961    1
  1920  2827  2828    1
  1921  2827  2829   ar
  1922  2497  2503   ar
  1923  2497  2498   ar
  1924  2199  2197    1
  1925  3700  3702   ar
  1926  3700  3701    2
  1927  2524  2530   ar
  1928  1944  1943    1
  1929  2229  2210    2
  1930  2223  2221   ar
  1931  3035  3033   ar
  1932  3035  3036   ar
  1933  2975  2973   ar
  1934  2975  2976   ar
  1935  3037  3036    2
  1936  2648  2649    1
  1937  2458  2457    2
  1938  3478  3489    1
  1939  1713  1712   ar
  1940  1759  1758    1
  1941  3488  3489   ar
  1942  3488  3487   ar
  1943  2503  2502   ar
  1944  3058  3059   ar
  1945  1926  1927    1
  1946  3342  3341    1
  1947  2278  2279    1
  1948  2278  2276    1
  1949  1955  1961   ar
  1950  1955  1954   ar
  1951  1990  1988    1
  1952  2682  2683   ar
  1953  2682  2679   ar
  1954    65    67    1
  1955  1984  1973    1
  1956  2423  2424    1
  1957  2423  2425    1
  1958  3676  3677   ar
  1959  2264  2270   ar
  1960  3341  3339    1
  1961  1717  1718   ar
  1962  2293  2279    1
  1963  2293  2313    2
  1964  2293  2314    1
  1965  1986  1964    2
  1966  3355  3354   ar
  1967  2243  2241   ar
  1968  2195  2197    1
  1969  2195  2196    1
  1970  1953  1954   ar
  1971  2973  2972   ar
  1972  3534  3533   ar
  1973  3534  3528   ar
  1974  2435  2434    2
  1975  2433  2434   ar
  1976  2433  2432   ar
  1977  2277  2276    1
  1978  1240  1258    2
  1979  1240  1259    1
  1980  1240  1242    1
  1981  2438  2427    1
  1982  2438  2432   ar
  1983  3046  3045    1
  1984  1753  1758   ar
  1985  1753  1754   ar
  1986  3533  3532   ar
  1987  3164  3163   ar
  1988  3164  3165   ar
  1989  2499  2498    1
  1990  3033  3032   ar
  1991  1961  1951    1
  1992  2424  2441    1
  1993  2729  2709    2
  1994  1932  1930   ar
  1995  1783  1784   ar
  1996  2656  2655   ar
  1997  2656  2657   ar
  1998  2817  2816    1
  1999  3009  3015   ar
  2000  3009  3010   ar
  2001   724   723    1
  2002  3045  3043    1
  2003  2816  2814    1
  2004  2268  2269   ar
  2005  2227  2220   ar
  2006  3163  3162   ar
  2007  2441  2462    1
  2008  2441  2443    1
  2009  3036  3038   ar
  2010  1708  1709   ar
  2011  3015  3014   ar
  2012  3489  3483   ar
  2013  1930  1931    1
  2014  3679  3680    2
  2015  3679  3678   ar
  2016  1773  1772    1
  2017  2481  2480    2
  2018  2680  2679   ar
  2019  2680  2674   ar
  2020  2534  2535    1
  2021  3704  3686    2
  2022  2830  2829   ar
  2023  2427  2425    1
  2024  1772  1774    1
  2025  1772  1770    1
  2026  1989  1988    1
  2027  1989  1987    1
  2028  1785  1784   ar
  2029  1785  1774    1
  2030  2655  2654   ar
  2031  1244  1243    1
  2032  1244  1249    1
  2033   726   725    1
  2034  2666  2665    1
  2035  2949  2948   ar
  2036  2498  2500   ar
  2037  2459  2456   ar
  2038  2459  2460   ar
  2039  1241  1242    1
  2040  1241  1243    1
  2041  1758  1757   ar
  2042   730   729    2
  2043  2246  2247   ar
  2044  2434  2428   ar
  2045  3487  3484   ar
  2046  2683  2684   ar
  2047  2528  2529   ar
  2048  2993  2992   ar
  2049  2993  2995   ar
  2050  2197  2198    1
  2051  2276  2274    1
  2052  1788  1810    2
  2053  1788  1809    1
  2054  1788  1771    1
  2055  2679  2678   ar
  2056  3686  3705    1
  2057  3686  3669    1
  2058   725   723    1
  2059   725   727    1
  2060  2976  2969   ar
  2061  2006  1987    2
  2062  2947  2948   ar
  2063  3540  3541    1
  2064  3540  3542    1
  2065  2961  2960    1
  2066  2196  2210    1
  2067  3174  3173    1
  2068  3671  3670    1
  2069  2432  2431   ar
  2070  2457  2456   ar
  2071  2457  2451   ar
  2072  1754  1755   ar
  2073  2221  2220   ar
  2074  2221  2222    2
  2075   731   729   ar
  2076   731   732   ar
  2077  2530  2529   ar
  2078  2530  2519    1
  2079  2210  2212    1
  2080  2210  2228    1
  2081  3677  3678   ar
  2082  3677  3683   ar
  2083    68    67    1
  2084    68    73    1
  2085  2749  2731    2
  2086  2535  2533    1
  2087  1943  1945    1
  2088  1712  1718   ar
  2089  1712  1711   ar
  2090   723   721    1
  2091  3011  3010    1
  2092   729   728   ar
  2093  1774  1769    1
  2094  2425  2426    1
  2095  1718  1707    1
  2096  1243  1245    1
  2097  2502  2505   ar
  2098  2502  2501   ar
  2099    67    69    1
  2100  2972  2970   ar
  2101  3670  3668    1
  2102  3670  3672    1
  2103  2241  2242    2
  2104  2241  2240   ar
  2105   733   732    2
  2106  3541  3546    1
  2107  1973  1971    1
  2108  1973  1968    1
  2109  3528  3527   ar
  2110  3528  3529   ar
  2111  2270  2269   ar
  2112  2270  2259    1
  2113  2220  2219    1
  2114    83    82   ar
  2115    83    84   ar
  2116  3166  3165    1
  2117  3165  3160   ar
  2118  3678  3681   ar
  2119  1706  1705    1
  2120  3339  3340    1
  2121  2658  2657    2
  2122  2456  2455   ar
  2123  2657  2651   ar
  2124  1971  1969    1
  2125  1971  1972    1
  2126  2992  2990   ar
  2127  3532  3529   ar
  2128  3010  3012   ar
  2129  1964  1966    1
  2130  1964  1948    1
  2131  1964  1985    1
  2132  1771  1770    1
  2133  1257  1256   ar
  2134  1257  1250   ar
  2135   732   734   ar
  2136  1947  1945    1
  2137  1947  1949    1
  2138  1947  1948    1
  2139  2517  2518    1
  2140  2517  2519    1
  2141  2517  2515    1
  2142  2995  2996   ar
  2143  3162  3161   ar
  2144  2460  2461   ar
  2145  1770  1768    1
  2146  1249  1250    1
  2147  1249  1247    1
  2148  2709  2730    1
  2149  2709  2693    1
  2150  2709  2711    1
  2151    82    79   ar
  2152  3669  3668    1
  2153  1966  1965    1
  2154  1987  1970    1
  2155  1987  2005    1
  2156  1951  1946    1
  2157  1951  1949    1
  2158  3032  3031    1
  2159  3032  3039   ar
  2160  3527  3525   ar
  2161  2674  2675   ar
  2162  3330  3329    2
  2163  3331  3329   ar
  2164  3331  3332   ar
  2165  1256  1254   ar
  2166  1946  1945    1
  2167  1709  1711   ar
  2168  1709  1710    1
  2169  2519  2514    1
  2170  3340  3338    1
  2171  3173  3175    1
  2172  2480  2474   ar
  2173  2480  2479   ar
  2174  2708  2687    2
  2175  3333  3332    1
  2176  2443  2442    1
  2177  2654  2652   ar
  2178  1969  1970    1
  2179  1969  1967    1
  2180  1250  1251   ar
  2181  2814  2815    1
  2182  3014  3017   ar
  2183  3014  3013   ar
  2184  3483  3484   ar
  2185  3483  3482   ar
  2186   728   727    1
  2187   728   735   ar
  2188  2505  2506   ar
  2189  3043  3044    1
  2190  3038  3039   ar
  2191  2665  2667    1
  2192  2806  2804   ar
  2193  2806  2807   ar
  2194  2212  2211    1
  2195  2805  2804    2
  2196  2808  2807    1
  2197  2500  2501   ar
  2198  3543  3542    1
  2199  3543  3557    1
  2200  2247  2240   ar
  2201  3484  3485   ar
  2202  3190  3191   ar
  2203  3190  3187   ar
  2204  3576  3557    2
  2205  3542  3544    1
  2206  1757  1756   ar
  2207  1757  1760   ar
  2208  3030  3029    1
  2209  3575  3557    1
  2210  1949  1950    1
  2211  2684  2678   ar
  2212  2684  2673    1
  2213   727   722    1
  2214  2969  2970   ar
  2215  2969  2968    1
  2216  2451  2452   ar
  2217  3029  3031    1
  2218  3029  3027    1
  2219  2678  2677   ar
  2220  3668  3666    1
  2221  1968  1967    1
  2222  3191  3192   ar
  2223  2428  2429   ar
  2224  1705  1707    1
  2225  1705  1703    1
  2226  3683  3672    1
  2227  3683  3682   ar
  2228  2960  2962    1
  2229  2501  2507   ar
  2230  3529  3530   ar
  2231  2274  2275    1
  2232  3044  3042    1
  2233  2693  2692    1
  2234   734   735   ar
  2235  3329  3328   ar
  2236  1755  1756   ar
  2237  2815  2813    1
  2238  1254  1255    1
  2239  1254  1253   ar
  2240  3672  3667    1
  2241  2970  2971    2
  2242  2240  2239    1
  2243  3031  3026    1
  2244  2275  2273    1
  2245  3554  3553   ar
  2246  3554  3547   ar
  2247    84    73    1
  2248    84    78   ar
  2249  3017  3018   ar
  2250  3332  3334   ar
  2251  1251  1253   ar
  2252  1251  1252    2
  2253  2431  2429   ar
  2254  2474  2475   ar
  2255    73    71    1
  2256  3652  3651    1
  2257  1707  1702    1
  2258  2731  2750    1
  2259  2731  2715    1
  2260  2731  2733    1
  2261  2259  2257    1
  2262  2259  2254    1
  2263  3557  3559    1
  2264    69    70    1
  2265    69    71    1
  2266  2804  2803   ar
  2267  2482  2479   ar
  2268  2482  2483   ar
  2269  3160  3161   ar
  2270  2807  2809   ar
  2271  3650  3651   ar
  2272  3650  3656   ar
  2273  2257  2258    1
  2274  2257  2255    1
  2275  3657  3656    2
  2276  1769  1768    1
  2277  2963  2968    1
  2278  2963  2962    1
  2279  3681  3682   ar
  2280  2651  2652   ar
  2281   721   722    1
  2282   721   719    1
  2283  2711  2710    1
  2284  2668  2667    1
  2285  2668  2673    1
  2286  1756  1762   ar
  2287  2479  2478   ar
  2288  3176  3175    1
  2289  3176  3181    1
  2290  2533  2552    2
  2291  2533  2516    1
  2292  2533  2551    1
  2293  2515  2516    1
  2294  2515  2513    1
  2295  3553  3551   ar
  2296  1245  1247    1
  2297  1245  1246    1
  2298  3012  3013   ar
  2299  1967  1965    1
  2300  2710  2712    1
  2301  3546  3547    1
  2302  3546  3544    1
  2303  1760  1761   ar
  2304  2652  2653    1
  2305  2455  2461   ar
  2306  2455  2454   ar
  2307  2219  2214    1
  2308  2219  2217    1
  2309  2990  2991    2
  2310  2990  2989   ar
  2311    79    78   ar
  2312    79    80   ar
  2313  3482  3480   ar
  2314  3013  3019   ar
  2315  1247  1248    1
  2316  2429  2430    1
  2317  2996  2989   ar
  2318  2461  2450    1
  2319  2214  2213    1
  2320  1768  1766    1
  2321  2675  2677   ar
  2322  2675  2676    1
  2323  2486  2464    2
  2324  2688  2690    1
  2325  2688  2689    1
  2326  3525  3526    1
  2327  3525  3524   ar
  2328  2667  2669    1
  2329    70    87    1
  2330  3189  3188    2
  2331  3175  3177    1
  2332  2442  2444    1
  2333  2715  2714    1
  2334  3651  3653   ar
  2335  2669  2671    1
  2336  2669  2670    1
  2337  2506  2507   ar
  2338  2673  2671    1
  2339  2514  2513    1
  2340  2968  2966    1
  2341  3656  3655   ar
  2342  2962  2964    1
  2343  3187  3188   ar
  2344  3187  3186   ar
  2345  3338  3357    2
  2346  3338  3356    1
  2347  3338  3324    1
  2348  3547  3548   ar
  2349  3544  3545    1
  2350  3485  3486    2
  2351  3485  3479   ar
  2352  2687  2689    1
  2353  2687  2670    1
  2354  2687  2707    1
  2355  2249  2230    2
  2356   630   609    2
  2357    78    77   ar
  2358  2211  2213    1
  2359   108    87    2
  2360  3027  3028    1
  2361  3027  3025    1
  2362  3192  3181    1
  2363  3192  3186   ar
  2364  2998  2979    2
  2365  3326  3325    1
  2366    71    72    1
  2367    81    80    2
  2368  1702  1701    1
  2369  2507  2496    1
  2370  3325  3327    1
  2371  3325  3323    1
  2372  2452  2454   ar
  2373  2452  2453    1
  2374  2733  2732    1
  2375   719   720    1
  2376  3666  3667    1
  2377  3666  3664    1
  2378  3328  3327    1
  2379  3328  3335   ar
  2380  2692  2690    1
  2381  2692  2694    1
  2382  2292  2273    2
  2383  1246  1260    1
  2384  2989  2988    1
  2385  2690  2691    1
  2386  1703  1704    1
  2387  1703  1701    1
  2388  3061  3042    2
  2389  2255  2256    1
  2390  2255  2253    1
  2391  3028  3042    1
  2392  3530  3524   ar
  2393  3530  3531    2
  2394  3313  3312    2
  2395  3334  3335   ar
  2396    80    74   ar
  2397  3042  3060    1
  2398  3212  3211    2
  2399  3188  3182   ar
  2400  3018  3019   ar
  2401  2254  2253    1
  2402  2964  2966    1
  2403  2964  2965    1
  2404  3026  3025    1
  2405  2801  2800    1
  2406  2483  2484   ar
  2407  2803  2810   ar
  2408  2803  2802    1
  2409  2475  2476    1
  2410  2475  2477   ar
  2411  2273  2256    1
  2412  2273  2291    1
  2413  2813  2832    2
  2414  2813  2831    1
  2415  2813  2799    1
  2416  2714  2712    1
  2417  2714  2716    1
  2418  2732  2734    1
  2419   720   718    1
  2420  2239  2237    1
  2421  2239  2234    1
  2422  2800  2802    1
  2423  2800  2798    1
  2424  2215  2213    1
  2425  2215  2217    1
  2426  2215  2216    1
  2427  2788  2787    1
  2428   712   711    2
  2429  3181  3179    1
  2430  2217  2218    1
  2431  2809  2810   ar
  2432  2671  2672    1
  2433  2513  2511    1
  2434  2445  2444    1
  2435  2445  2450    1
  2436    87   107    1
  2437    87    89    1
  2438  1767  1766    1
  2439  1767  1765    1
  2440  2712  2713    1
  2441  1761  1762   ar
  2442  1762  1752    1
  2443   737   718    2
  2444  3019  3008    1
  2445  3559  3558    1
  2446  3186  3185   ar
  2447  3217  3195    2
  2448  2478  2477   ar
  2449  2478  2484   ar
  2450  3480  3479   ar
  2451  3480  3481    1
  2452  2446  2444    1
  2453  2446  2448    1
  2454  2446  2447    1
  2455  3177  3178    1
  2456  3177  3179    1
  2457  3327  3322    1
  2458  2450  2448    1
  2459  3551  3552    1
  2460  3551  3550   ar
  2461  3233  3232    2
  2462  1704  1721    1
  2463  2272  2250    2
  2464  1787  1765    2
  2465  3324  3323    1
  2466  2966  2967    1
  2467  2695  2694    1
  2468  1701  1699    1
  2469  3653  3654   ar
  2470  3323  3321    1
  2471   607   587    2
  2472  2237  2235    1
  2473  2237  2238    1
  2474  3293  3292    1
  2475   705   711   ar
  2476   705   706   ar
  2477  2802  2797    1
  2478  3025  3023    1
  2479  2464  2447    1
  2480  2464  2485    1
  2481  2464  2466    1
  2482  3655  3654   ar
  2483  3655  3658   ar
  2484   711   710   ar
  2485    77    75   ar
  2486  2512  2511    1
  2487  2512  2510    1
  2488  2772  2751    2
  2489   609   631    1
  2490   609   593    1
  2491   609   611    1
  2492   718   736    1
  2493   718   701    1
  2494  2253  2251    1
  2495  3213  3210   ar
  2496  3213  3214   ar
  2497  3548  3550   ar
  2498  3548  3549    2
  2499  2232  2230    1
  2500  2232  2231    1
  2501  2252  2250    1
  2502  2252  2251    1
  2503  2532  2510    2
  2504  2234  2233    1
  2505  2230  2216    1
  2506  2230  2248    1
  2507  2694  2696    1
  2508  3312  3311   ar
  2509  3312  3314   ar
  2510  3664  3665    1
  2511  1699  1700    1
  2512   593   592    1
  2513  3635  3634    1
  2514  2799  2798    1
  2515  2496  2494    1
  2516  2496  2491    1
  2517  2965  2979    1
  2518  2484  2473    1
  2519  2979  2981    1
  2520  2979  2997    1
  2521  1282  1260    2
  2522  3211  3210   ar
  2523  3211  3205   ar
  2524  2798  2796    1
  2525  3558  3560    1
  2526  1720  1698    2
  2527  3665  3663    1
  2528  2509  2487    2
  2529  2448  2449    1
  2530    74    75   ar
  2531  3311  3309   ar
  2532  2235  2233    1
  2533  2235  2236    1
  2534  2494  2492    1
  2535  2494  2495    1
  2536  3178  3195    1
  2537   707   706    1
  2538  1750  1752    1
  2539  1750  1748    1
  2540  1750  1751    1
  2541  3654  3660   ar
  2542  3273  3272    2
  2543  2787  2786   ar
  2544  2787  2789   ar
  2545  3179  3180    1
  2546  2786  2784   ar
  2547  1765  1786    1
  2548  1765  1749    1
  2549  3182  3183   ar
  2550  2691  2696    1
  2551  1260  1262    1
  2552  1260  1281    1
  2553  3231  3232   ar
  2554  3231  3229   ar
  2555  2988  2983    1
  2556  2988  2986    1
  2557   706   708   ar
  2558  1752  1747    1
  2559  1737  1736    1
  2560   588   590    1
  2561   588   589    1
  2562  2734  2735    1
  2563  2734  2736    1
  2564  2981  2980    1
  2565  2466  2465    1
  2566  3232  3234   ar
  2567  2713  2718    1
  2568    75    76    1
  2569  3271  3272   ar
  2570  3271  3269   ar
  2571  2771  2751    1
  2572  3210  3209   ar
  2573  2716  2717    1
  2574  2716  2718    1
  2575  1738  1739   ar
  2576  1738  1735   ar
  2577   710   713   ar
  2578   710   709   ar
  2579  2250  2236    1
  2580  2250  2271    1
  2581  3195  3216    1
  2582  3195  3197    1
  2583  3185  3183   ar
  2584  3270  3269    2
  2585    89    88    1
  2586  3658  3659   ar
  2587  3024  3023    1
  2588  3024  3022    1
  2589  3008  3006    1
  2590  3008  3003    1
  2591  3573  3574   ar
  2592  3573  3571   ar
  2593  3253  3252    1
  2594  3214  3215   ar
  2595  2492  2493    1
  2596  2492  2490    1
  2597  2510  2493    1
  2598  2510  2531    1
  2599  1700  1698    1
  2600  2751  2737    1
  2601  2751  2753    1
  2602  3322  3321    1
  2603  3599  3577    2
  2604  2233  2231    1
  2605  1721  1742    2
  2606  1721  1741    1
  2607  1721  1723    1
  2608  1748  1749    1
  2609  1748  1746    1
  2610  2727  2726   ar
  2611  2727  2728   ar
  2612  3272  3274   ar
  2613  3021  2999    2
  2614  2983  2982    1
  2615   713   714   ar
  2616   590   592    1
  2617   590   591    1
  2618   104   105   ar
  2619   104   101   ar
  2620  3292  3294   ar
  2621  3292  3291   ar
  2622  1262  1261    1
  2623  2696  2706    1
  2624  3321  3319    1
  2625  3205  3206   ar
  2626  3006  3004    1
  2627  3006  3007    1
  2628  3183  3184    1
  2629  2737  2736    1
  2630  2491  2490    1
  2631  3230  3229    2
  2632  2797  2796    1
  2633  2986  2984    1
  2634  2986  2987    1
  2635  3041  3022    2
  2636  3269  3268   ar
  2637   587   589    1
  2638   587   573    1
  2639   587   608    1
  2640   708   709   ar
  2641  2489  2487    1
  2642  2489  2488    1
  2643   611   610    1
  2644  1739  1740   ar
  2645  3314  3315   ar
  2646  1698  1719    1
  2647  1698  1684    1
  2648  3574  3567   ar
  2649   592   594    1
  2650  2735  2740    1
  2651  1279  1278   ar
  2652  1279  1280   ar
  2653   709   715   ar
  2654   610   612    1
  2655  3309  3310    2
  2656  3309  3308   ar
  2657   105   106   ar
  2658  3634  3633   ar
  2659  3634  3636   ar
  2660  2718  2728    1
  2661  3266  3265    1
  2662  2789  2790   ar
  2663  1278  1275   ar
  2664  3685  3663    2
  2665  3229  3228   ar
  2666  2784  2785    2
  2667  2784  2783   ar
  2668   701   700    1
  2669   653   632    2
  2670    88    90    1
  2671   595   594    1
  2672  1736  1735   ar
  2673  1736  1731   ar
  2674   103   102    1
  2675  2796  2794    1
  2676  3572  3571    1
  2677  2984  2982    1
  2678  2984  2985    1
  2679  2736  2738    1
  2680  2487  2470    1
  2681  2487  2508    1
  2682  1735  1734   ar
  2683  1264  1269    1
  2684  1264  1263    1
  2685  3660  3659   ar
  2686  3660  3649    1
  2687  2726  2723   ar
  2688  3294  3295   ar
  2689  3663  3684    1
  2690  3663  3646    1
  2691  2473  2468    1
  2692  2473  2471    1
  2693   573   572    1
  2694  3560  3561    1
  2695  3560  3562    1
  2696  1747  1746    1
  2697   654   632    1
  2698  3197  3196    1
  2699  3004  3005    1
  2700  3004  3002    1
  2701  3003  3002    1
  2702  2469  2471    1
  2703  2469  2470    1
  2704  2469  2467    1
  2705  2728  2722   ar
  2706  2767  2766    1
  2707   714   715   ar
  2708  3633  3631   ar
  2709   700   702    1
  2710   700   698    1
  2711  3291  3289   ar
  2712  3571  3570   ar
  2713  2980  2982    1
  2714  3647  3648    1
  2715  3647  3649    1
  2716  3647  3645    1
  2717   690   689    2
  2718  2490  2488    1
  2719  3561  3566    1
  2720  3209  3215   ar
  2721  3209  3208   ar
  2722  3234  3235   ar
  2723  3022  3005    1
  2724  3022  3040    1
  2725  2465  2467    1
  2726  3252  3254   ar
  2727  3252  3251   ar
  2728  2468  2467    1
  2729   185   186   ar
  2730   185   190   ar
  2731   715   704    1
  2732  1280  1269    1
  2733  1280  1274   ar
  2734  2471  2472    1
  2735   702   703    1
  2736   702   704    1
  2737  1723  1722    1
  2738   101   102   ar
  2739   101   100   ar
  2740   575   574    1
  2741  3215  3204    1
  2742  1269  1267    1
  2743  3254  3255   ar
  2744  3320  3319    1
  2745  3320  3318    1
  2746  3001  2999    1
  2747  3001  3000    1
  2748  3636  3637   ar
  2749  3274  3275   ar
  2750  2706  2705   ar
  2751  2706  2700   ar
  2752  1447  1446    1
  2753  1746  1744    1
  2754   594   596    1
  2755  3594  3593    2
  2756  2768  2769   ar
  2757  2768  2765   ar
  2758    91    90    1
  2759    91    96    1
  2760   215   216   ar
  2761   215   212   ar
  2762   591   596    1
  2763  2999  2985    1
  2764  2999  3020    1
  2765  3562  3563    1
  2766  3562  3564    1
  2767   632   615    1
  2768   632   634    1
  2769  3577  3563    1
  2770  3577  3598    1
  2771  3577  3579    1
  2772  1275  1274   ar
  2773  1275  1276   ar
  2774  2795  2794    1
  2775  2795  2793    1
  2776  3615  3614    2
  2777   102    97   ar
  2778  3315  3308   ar
  2779  2753  2752    1
  2780   186   187   ar
  2781  3268  3275   ar
  2782  3268  3267    1
  2783   216   217   ar
  2784  1722  1724    1
  2785  3206  3208   ar
  2786  3206  3207    1
  2787  2705  2704   ar
  2788  3308  3307    1
  2789  3649  3644    1
  2790  1261  1263    1
  2791  1740  1734   ar
  2792  1740  1730    1
  2793  2790  2783   ar
  2794  3595  3596   ar
  2795  3595  3592   ar
  2796   106   100   ar
  2797   106    96    1
  2798  3645  3646    1
  2799  3645  3643    1
  2800  2783  2782    1
  2801  1731  1732   ar
  2802  2812  2793    2
  2803  1277  1276    2
  2804  3567  3566    1
  2805  3567  3568   ar
  2806  1684  1683    1
  2807  1263  1265    1
  2808   191   190    1
  2809  3297  3278    2
  2810   124   123    1
  2811  3002  3000    1
  2812  3265  3267    1
  2813  3265  3263    1
  2814  1734  1733   ar
  2815  1725  1730    1
  2816  1725  1724    1
  2817   543   522    2
  2818    90    92    1
  2819  1274  1273   ar
  2820  2740  2738    1
  2821  2740  2741    1
  2822  3228  3235   ar
  2823  3228  3227    1
  2824   612   614    1
  2825   612   613    1
  2826   615   614    1
  2827  3337  3318    2
  2828  1276  1270   ar
  2829  2723  2722   ar
  2830  2723  2724   ar
  2831   689   691   ar
  2832   689   688   ar
  2833   169   168    2
  2834  1744  1745    1
  2835   704   699    1
  2836   327   306    2
  2837  2738  2739    1
  2838  3251  3249   ar
  2839  3295  3288   ar
  2840  2766  2765   ar
  2841  2766  2761   ar
  2842  1443  1442    1
  2843  2769  2770   ar
  2844  2722  2721   ar
  2845   572   574    1
  2846   572   570    1
  2847   190   189   ar
  2848  3199  3204    1
  2849  3199  3198    1
  2850  2743  2742    2
  2851  3566  3564    1
  2852   100    99   ar
  2853  3631  3632    2
  2854  3631  3630   ar
  2855   596   606    1
  2856  2765  2764   ar
  2857  3267  3262    1
  2858  3196  3198    1
  2859  3570  3568   ar
  2860  3289  3288   ar
  2861  3289  3290    2
  2862   698   696    1
  2863   698   699    1
  2864   574   576    1
  2865    96    94    1
  2866   162   168   ar
  2867   162   163   ar
  2868  3255  3248   ar
  2869  2700  2699   ar
  2870  2700  2701   ar
  2871  3596  3597   ar
  2872   696   697    1
  2873   570   568    1
  2874   570   571    1
  2875  3204  3202    1
  2876  3593  3592   ar
  2877  3593  3587   ar
  2878  3579  3578    1
  2879   614   616    1
  2880  2793  2811    1
  2881  2793  2779    1
  2882  3318  3336    1
  2883  3318  3304    1
  2884   697   695    1
  2885   292   306    1
  2886   292   291    1
  2887   294   293    1
  2888  1730  1728    1
  2889  1724  1726    1
  2890   691   692   ar
  2891  3637  3630   ar
  2892   214   213    2
  2893  1446  1448   ar
  2894  1446  1445   ar
  2895  3662  3640    2
  2896  2699  2698   ar
  2897   164   163    1
  2898  3592  3591   ar
  2899  1268  1267    1
  2900   688   686   ar
  2901  3614  3616   ar
  2902  3614  3613   ar
  2903    97    98   ar
  2904  2704  2701   ar
  2905  1267  1265    1
  2906  2741  2742   ar
  2907  2741  2748   ar
  2908  2780  2782    1
  2909  2780  2778    1
  2910  2780  2781    1
  2911  2752  2754    1
  2912   674   655    2
  2913   289   287    1
  2914   289   290    1
  2915   289   291    1
  2916  1448  1449   ar
  2917  1273  1271   ar
  2918  3264  3263    1
  2919  3264  3278    1
  2920  3305  3307    1
  2921  3305  3303    1
  2922  3305  3306    1
  2923  3564  3565    1
  2924   212   213   ar
  2925   212   211   ar
  2926  3568  3569    2
  2927   187   188   ar
  2928  1732  1733   ar
  2929  2742  2744   ar
  2930    92    94    1
  2931    92    93    1
  2932   168   167   ar
  2933   287   288    1
  2934   271   270    1
  2935  1270  1271   ar
  2936  3307  3302    1
  2937   634   633    1
  2938   613   618    1
  2939   123   125   ar
  2940   123   122   ar
  2941   217   206    1
  2942   217   211   ar
  2943   717   695    2
  2944  3288  3287    1
  2945   146   145    2
  2946  3317  3298    2
  2947  3644  3643    1
  2948  2792  2773    2
  2949   568   569    1
  2950  2782  2777    1
  2951   307   309    1
  2952   307   308    1
  2953   205   204    1
  2954  1424  1423   ar
  2955  1424  1425   ar
  2956   125   126   ar
  2957  3263  3261    1
  2958   128   109    2
  2959  1683  1681    1
  2960  1683  1685    1
  2961  3630  3629    1
  2962  3642  3640    1
  2963  3642  3641    1
  2964  3198  3200    1
  2965  1265  1266    1
  2966  3616  3617   ar
  2967  3278  3280    1
  2968  3278  3296    1
  2969  1726  1728    1
  2970  1726  1727    1
  2971  2725  2724    1
  2972  2724  2719   ar
  2973  3227  3222    1
  2974  3227  3225    1
  2975  3643  3641    1
  2976  1764  1743    2
  2977   306   308    1
  2978   306   328    1
  2979  1681  1679    1
  2980  1681  1682    1
  2981  2761  2762   ar
  2982  2701  2702   ar
  2983  1271  1272    1
  2984  3303  3304    1
  2985  3303  3301    1
  2986  3249  3248   ar
  2987  3249  3250    2
  2988   522   542    1
  2989   522   505    1
  2990   522   524    1
  2991   163   165   ar
  2992   213   207   ar
  2993  2721  2720   ar
  2994  2778  2779    1
  2995  2778  2776    1
  2996    99    98   ar
  2997  1745  1743    1
  2998   206   204    1
  2999   206   201    1
  3000  3248  3247    1
  3001  1442  1444    1
  3002  1442  1440    1
  3003  2748  2747   ar
  3004  1466  1465    1
  3005   290   295    1
  3006   291   293    1
  3007  1423  1428   ar
  3008  1462  1461    1
  3009  1462  1467    1
  3010  2770  2764   ar
  3011  2770  2760    1
  3012   571   576    1
  3013   695   716    1
  3014   695   681    1
  3015  2744  2745   ar
  3016    94    95    1
  3017   606   605   ar
  3018   606   600   ar
  3019   189   188   ar
  3020   189   192   ar
  3021  2764  2763   ar
  3022   628   627   ar
  3023   628   629   ar
  3024   576   577    1
  3025  1461  1459    1
  3026  1461  1463    1
  3027  1728  1729    1
  3028   505   504    1
  3029  3200  3202    1
  3030  3200  3201    1
  3031  3619  3600    2
  3032   569   567    1
  3033   309   310    1
  3034   309   311    1
  3035    93   109    1
  3036  3613  3611   ar
  3037   692   685   ar
  3038   673   655    1
  3039   211   210   ar
  3040  3587  3588   ar
  3041   293   295    1
  3042  1445  1451   ar
  3043  3226  3225    1
  3044  3640  3661    1
  3045  3640  3626    1
  3046  3262  3261    1
  3047  1425  1426   ar
  3048  1444  1439    1
  3049  1444  1455    1
  3050  3202  3203    1
  3051   304   286    2
  3052  2698  2697   ar
  3053   633   635    1
  3054  1459  1460    1
  3055   686   687    2
  3056   686   685   ar
  3057   188   194   ar
  3058  3597  3591   ar
  3059  3597  3586    1
  3060  3280  3279    1
  3061   122   120   ar
  3062  1679  1680    1
  3063   605   604   ar
  3064   670   669    1
  3065  3578  3580    1
  3066   655   638    1
  3067   655   657    1
  3068   241   220    2
  3069  2755  2754    1
  3070  2755  2760    1
  3071  3591  3590   ar
  3072  3222  3221    1
  3073  3237  3218    2
  3074  1686  1685    1
  3075  3300  3298    1
  3076  3300  3299    1
  3077  3302  3301    1
  3078  2775  2773    1
  3079  2775  2774    1
  3080   261   243    2
  3081   204   202    1
  3082  1682  1687    1
  3083  2754  2756    1
  3084   585   567    2
  3085   616   618    1
  3086   616   617    1
  3087  1300  1299    2
  3088  1449  1455   ar
  3089  1449  1450   ar
  3090  1743  1727    1
  3091  1743  1763    1
  3092  2777  2776    1
  3093   145   139   ar
  3094   145   144   ar
  3095  3225  3223    1
  3096   295   296    1
  3097   126   119   ar
  3098   627   624   ar
  3099  1266  1283    1
  3100   694   675    2
  3101  2747  2745   ar
  3102   523   524    1
  3103   523   525    1
  3104   618   629    1
  3105   269   286    1
  3106   269   268    1
  3107   203   202    1
  3108   203   220    1
  3109  1467  1465    1
  3110  1467  1478    1
  3111   347   329    2
  3112   109   127    1
  3113   109   111    1
  3114  3261  3259    1
  3115  1685  1687    1
  3116   288   286    1
  3117  2745  2746    2
  3118   312   311    1
  3119   312   329    1
  3120  3298  3284    1
  3121  3298  3316    1
  3122   685   684    1
  3123   167   166   ar
  3124   167   170   ar
  3125  2719  2720   ar
  3126  2773  2757    1
  3127  2773  2791    1
  3128  1687  1688    1
  3129  2756  2757    1
  3130  2756  2758    1
  3131   270   268    1
  3132   270   272    1
  3133   507   506    1
  3134  3581  3580    1
  3135  3581  3586    1
  3136   310   315    1
  3137  2702  2697   ar
  3138  2702  2703    1
  3139  2762  2763   ar
  3140   258   257    1
  3141  3287  3285    1
  3142  3287  3282    1
  3143  1441  1440    1
  3144  1441  1458    1
  3145  3625  3627    1
  3146  3625  3626    1
  3147  3625  3623    1
  3148  3617  3610   ar
  3149   221   223    1
  3150   221   222    1
  3151   629   623   ar
  3152   139   140   ar
  3153  3301  3299    1
  3154   201   200    1
  3155  3629  3627    1
  3156  3629  3624    1
  3157  1439  1438    1
  3158  1465  1463    1
  3159  3627  3628    1
  3160  2760  2758    1
  3161  1455  1454   ar
  3162  3283  3285    1
  3163  3283  3284    1
  3164  3283  3281    1
  3165  2776  2774    1
  3166   671   669   ar
  3167   671   672   ar
  3168   165   166   ar
  3169  1440  1438    1
  3170  3247  3245    1
  3171  3247  3242    1
  3172   286   305    1
  3173  1301  1298   ar
  3174  1301  1302   ar
  3175   232   231    1
  3176  1438  1436    1
  3177  1401  1402   ar
  3178  1401  1406   ar
  3179  3285  3286    1
  3180   207   208   ar
  3181   600   599   ar
  3182   600   601   ar
  3183  1690  1689    2
  3184   266   268    1
  3185   266   267    1
  3186   266   264    1
  3187   567   586    1
  3188   567   550    1
  3189  3582  3580    1
  3190  3582  3583    1
  3191  3582  3584    1
  3192   579   578    2
  3193  1385  1384    1
  3194  1402  1403   ar
  3195   314   313    1
  3196  1428  1429    1
  3197  1428  1427   ar
  3198  3246  3245    1
  3199   669   668   ar
  3200   311   313    1
  3201   192   193   ar
  3202   650   651   ar
  3203   650   647   ar
  3204  1463  1464    1
  3205   638   637    1
  3206  3282  3281    1
  3207   599   598   ar
  3208  3586  3584    1
  3209   681   680    1
  3210  1696  1678    2
  3211  1464  1481    1
  3212   202   200    1
  3213   657   656    1
  3214   680   682    1
  3215   680   678    1
  3216  1299  1298   ar
  3217  1299  1293   ar
  3218   267   272    1
  3219  3201  3218    1
  3220  3588  3590   ar
  3221  3588  3589    1
  3222   220   222    1
  3223   220   242    1
  3224   651   652   ar
  3225   272   283    1
  3226   120   119   ar
  3227   120   121    2
  3228   504   502    1
  3229   504   506    1
  3230   577   578   ar
  3231   577   584   ar
  3232  3611  3610   ar
  3233  3611  3612    2
  3234   259   257   ar
  3235   259   260   ar
  3236   166   172   ar
  3237  1451  1450   ar
  3238  1451  1452    2
  3239  1426  1427   ar
  3240  1426  1432   ar
  3241  1460  1458    1
  3242   682   684    1
  3243   682   683    1
  3244   223   224    1
  3245   223   225    1
  3246   329   348    1
  3247   329   331    1
  3248   210   208   ar
  3249   257   256   ar
  3250  1305  1283    2
  3251   170   171   ar
  3252   637   635    1
  3253   637   639    1
  3254   119   118    1
  3255   604   601   ar
  3256   635   636    1
  3257  3600  3583    1
  3258  3600  3602    1
  3259  3600  3618    1
  3260   194   193   ar
  3261   194   184    1
  3262  1479  1458    2
  3263  3279  3281    1
  3264   144   147   ar
  3265   144   143   ar
  3266  3218  3220    1
  3267  3218  3236    1
  3268  1680  1678    1
  3269   677   675    1
  3270   677   676    1
  3271  1450  1453   ar
  3272   502   500    1
  3273   502   503    1
  3274   111   110    1
  3275  1298  1297   ar
  3276  2758  2759    1
  3277   147   148   ar
  3278  3639  3620    2
  3279   200   198    1
  3280  3624  3623    1
  3281  1302  1303   ar
  3282  3220  3219    1
  3283   675   693    1
  3284   675   661    1
  3285   506   508    1
  3286  3621  3623    1
  3287  3621  3622    1
  3288  3610  3609    1
  3289  3221  3223    1
  3290  3221  3219    1
  3291   500   501    1
  3292   565   544    2
  3293  1421  1420    1
  3294   578   580   ar
  3295   624   623   ar
  3296   624   625   ar
  3297  1478  1477   ar
  3298  1478  1472   ar
  3299   243   262    1
  3300   243   226    1
  3301   243   245    1
  3302  1458  1480    1
  3303  3584  3585    1
  3304   684   679    1
  3305  1283  1304    1
  3306  1283  1285    1
  3307  3245  3243    1
  3308   672   665   ar
  3309  3223  3224    1
  3310   313   315    1
  3311  3259  3260    1
  3312   315   326    1
  3313   525   526    1
  3314   525   527    1
  3315   208   209    1
  3316   224   229    1
  3317  3242  3241    1
  3318   296   303   ar
  3319   296   297   ar
  3320   601   602   ar
  3321   623   622   ar
  3322  1379  1384   ar
  3323  1379  1380   ar
  3324  1688  1689   ar
  3325  1688  1695   ar
  3326  1427  1430   ar
  3327   264   265    1
  3328  1407  1406    1
  3329   260   253   ar
  3330  1293  1294   ar
  3331   140   141    1
  3332   140   142   ar
  3333  1689  1691   ar
  3334   649   648    2
  3335  1406  1405   ar
  3336   256   254   ar
  3337   636   641    1
  3338  1384  1383   ar
  3339   231   233   ar
  3340   231   230   ar
  3341   550   549    1
  3342  3602  3601    1
  3343   184   182    1
  3344   184   179    1
  3345   584   583   ar
  3346   668   666   ar
  3347  1403  1404   ar
  3348   233   234   ar
  3349  3224  3238    1
  3350  1678  1664    1
  3351  1678  1697    1
  3352  1666  1665    1
  3353  1454  1453   ar
  3354  1436  1437    1
  3355   647   648   ar
  3356   647   646   ar
  3357   298   297    2
  3358   330   331    1
  3359   330   332    1
  3360   526   531    1
  3361  1477  1476   ar
  3362   183   182    1
  3363   276   274   ar
  3364   276   277   ar
  3365  1422  1420    1
  3366  1422  1432    1
  3367  1422  1417    1
  3368  3260  3258    1
  3369   226   225    1
  3370   598   597   ar
  3371   251   250    1
  3372  1499  1481    2
  3373   275   274    1
  3374  1420  1418    1
  3375  1432  1431   ar
  3376  3244  3243    1
  3377  3244  3258    1
  3378   656   658    1
  3379   652   641    1
  3380   652   646   ar
  3381   679   678    1
  3382   520   499    2
  3383  1358  1357    1
  3384   678   676    1
  3385  1471  1472   ar
  3386  1471  1469   ar
  3387   113   118    1
  3388   113   112    1
  3389   303   302   ar
  3390   182   180    1
  3391  1297  1303   ar
  3392  1297  1296   ar
  3393   225   227    1
  3394  1303  1292    1
  3395   171   172   ar
  3396  1285  1284    1
  3397   245   244    1
  3398  1481  1483    1
  3399  1481  1500    1
  3400  1472  1473   ar
  3401   172   161    1
  3402   118   116    1
  3403   503   508    1
  3404   283   277   ar
  3405   283   282   ar
  3406   648   642   ar
  3407   250   252    1
  3408   250   248    1
  3409  1482  1483    1
  3410  1482  1484    1
  3411   143   142   ar
  3412   143   149   ar
  3413  1664  1663    1
  3414   626   625    2
  3415   253   254   ar
  3416   253   252    1
  3417   148   149   ar
  3418   625   619   ar
  3419   297   299   ar
  3420   639   641    1
  3421   639   640    1
  3422   110   112    1
  3423   254   255    2
  3424  3622  3620    1
  3425   508   519    1
  3426   660   661    1
  3427   660   658    1
  3428   660   662    1
  3429   549   547    1
  3430   549   551    1
  3431   665   666   ar
  3432   665   664    1
  3433  3243  3241    1
  3434  3620  3638    1
  3435  3620  3606    1
  3436   527   528    1
  3437   527   529    1
  3438  1380  1381   ar
  3439   501   499    1
  3440  1287  1292    1
  3441  1287  1286    1
  3442   580   581   ar
  3443  1294  1296   ar
  3444  1294  1295    1
  3445   326   325   ar
  3446   326   320   ar
  3447   198   199    1
  3448   274   273   ar
  3449  1321  1320    1
  3450   622   620   ar
  3451  1695  1694   ar
  3452   229   227    1
  3453   229   240    1
  3454   666   667    2
  3455  3609  3607    1
  3456  3609  3604    1
  3457   325   324   ar
  3458   646   645   ar
  3459   277   278   ar
  3460  3241  3239    1
  3461   544   528    1
  3462   544   566    1
  3463   544   546    1
  3464   265   263    1
  3465  3605  3607    1
  3466  3605  3606    1
  3467  3605  3603    1
  3468   230   236   ar
  3469   602   597   ar
  3470   602   603    1
  3471  1284  1286    1
  3472  1404  1405   ar
  3473  1404  1410   ar
  3474   487   486    1
  3475  1691  1692   ar
  3476   540   539   ar
  3477   540   541   ar
  3478  1405  1408   ar
  3479  1437  1435    1
  3480  3258  3276    2
  3481  3258  3277    1
  3482  1430  1431   ar
  3483  3607  3608    1
  3484   179   178    1
  3485  1383  1386   ar
  3486  1383  1382   ar
  3487   658   659    1
  3488  1665  1663    1
  3489  1665  1667    1
  3490   583   581   ar
  3491  1417  1416    1
  3492   112   114    1
  3493  3604  3603    1
  3494   234   240   ar
  3495   234   235   ar
  3496   199   197    1
  3497  1476  1473   ar
  3498  1292  1290    1
  3499  1484  1485    1
  3500  1484  1486    1
  3501  1470  1469    1
  3502  1469  1468   ar
  3503   545   547    1
  3504   545   546    1
  3505   547   548    1
  3506   149   138    1
  3507   252   247    1
  3508   499   485    1
  3509   499   521    1
  3510  3601  3603    1
  3511   332   333    1
  3512   332   334    1
  3513   248   246    1
  3514   248   249    1
  3515   659   664    1
  3516  1473  1474   ar
  3517  1357  1356   ar
  3518  1357  1359   ar
  3519   531   529    1
  3520   531   541    1
  3521  1485  1490    1
  3522  1670  1669    2
  3523  3238  3257    2
  3524  3238  3240    1
  3525  3238  3256    1
  3526   227   228    1
  3527  1647  1646    1
  3528   114   116    1
  3529   114   115    1
  3530   282   281   ar
  3531   529   530    1
  3532   302   300   ar
  3533  1386  1387   ar
  3534   151   129    2
  3535   662   664    1
  3536   662   663    1
  3537  1663  1661    1
  3538   240   239   ar
  3539   161   159    1
  3540   161   156    1
  3541   552   551    1
  3542   485   484    1
  3543   116   117    1
  3544  1341  1340    2
  3545   539   536   ar
  3546   581   582    2
  3547  1418  1419    1
  3548  1418  1416    1
  3549   642   643   ar
  3550   619   620   ar
  3551  1356  1362   ar
  3552  1286  1288    1
  3553   180   178    1
  3554   180   181    1
  3555  3240  3239    1
  3556   244   246    1
  3557   620   621    1
  3558   541   535   ar
  3559  1320  1322   ar
  3560  1320  1319   ar
  3561   551   553    1
  3562   299   300   ar
  3563   333   338    1
  3564   486   484    1
  3565   486   488    1
  3566  1381  1382   ar
  3567   519   518   ar
  3568   519   513   ar
  3569  1419  1435    1
  3570  1416  1414    1
  3571   247   246    1
  3572  1694  1692   ar
  3573   324   321   ar
  3574   645   643   ar
  3575  1382  1388   ar
  3576   320   319   ar
  3577   320   321   ar
  3578  1692  1693    1
  3579   159   160    1
  3580   159   157    1
  3581   273   279   ar
  3582   368   349    2
  3583   491   490    2
  3584   236   235   ar
  3585   236   237    2
  3586   178   176    1
  3587   278   281   ar
  3588   278   279   ar
  3589   249   263    1
  3590  1410  1400    1
  3591  1410  1409   ar
  3592   367   349    1
  3593  1408  1409   ar
  3594   263   285    2
  3595   263   284    1
  3596  1667  1662    1
  3597  1667  1668    1
  3598  1468  1474   ar
  3599   235   238   ar
  3600   335   334    1
  3601   335   349    1
  3602  1359  1360   ar
  3603  1322  1323   ar
  3604  1319  1317   ar
  3605   300   301    1
  3606   643   644    1
  3607  1661  1662    1
  3608  1661  1659    1
  3609  1435  1456    2
  3610  1435  1457    1
  3611   181   197    1
  3612   334   336    1
  3613   319   317   ar
  3614  1474  1475    2
  3615   484   482    1
  3616   512   513   ar
  3617   512   510   ar
  3618  1340  1339   ar
  3619  1340  1342   ar
  3620  1487  1486    1
  3621  1487  1501    1
  3622  1288  1290    1
  3623  1288  1289    1
  3624  1339  1337   ar
  3625  1486  1488    1
  3626   548   553    1
  3627  1669  1668   ar
  3628  1669  1671   ar
  3629   518   517   ar
  3630   156   155    1
  3631  1290  1291    1
  3632   197   219    2
  3633   197   218    1
  3634   138   133    1
  3635   138   136    1
  3636  1490  1488    1
  3637  1490  1491    1
  3638   349   351    1
  3639   553   564    1
  3640   115   129    1
  3641  1400  1398    1
  3642  1400  1395    1
  3643  1387  1388   ar
  3644   513   514   ar
  3645  1646  1648   ar
  3646  1646  1645   ar
  3647   321   322   ar
  3648  1362  1363    2
  3649  1362  1361   ar
  3650   129   131    1
  3651   129   150    1
  3652   536   535   ar
  3653   536   537   ar
  3654  1489  1488    1
  3655  1399  1398    1
  3656   239   238   ar
  3657   279   280    2
  3658   346   345   ar
  3659   346   339   ar
  3660   177   176    1
  3661   177   175    1
  3662   535   534   ar
  3663   133   132    1
  3664   157   155    1
  3665   157   158    1
  3666  1398  1396    1
  3667   488   489    1
  3668   488   483    1
  3669  1498  1491   ar
  3670  1498  1497   ar
  3671   131   130    1
  3672  1388  1378    1
  3673  1668  1675   ar
  3674   490   489   ar
  3675   490   492   ar
  3676  1522  1501    2
  3677   338   336    1
  3678   338   339    1
  3679  1523  1501    1
  3680  1648  1649   ar
  3681  1323  1316   ar
  3682   196   175    2
  3683  1317  1318    2
  3684  1317  1316   ar
  3685  1671  1672   ar
  3686  1414  1415    1
  3687  1659  1660    1
  3688  1645  1651   ar
  3689   511   510    1
  3690   345   343   ar
  3691  1501  1503    1
  3692  1360  1361   ar
  3693  1360  1366   ar
  3694   482   483    1
  3695   482   480    1
  3696  1338  1337    2
  3697  1491  1492   ar
  3698   510   509   ar
  3699  1337  1336   ar
  3700   136   134    1
  3701   136   137    1
  3702   336   337    1
  3703  1342  1343   ar
  3704   155   153    1
  3705  1660  1658    1
  3706  1643  1642    1
  3707   489   496   ar
  3708   317   318    1
  3709   317   316   ar
  3710   517   514   ar
  3711  1361  1364   ar
  3712  1325  1306    2
  3713   339   340   ar
  3714  1497  1495   ar
  3715   492   493   ar
  3716  1289  1306    1
  3717  1415  1413    1
  3718   514   515   ar
  3719  1316  1315    1
  3720  1395  1394    1
  3721   538   537    1
  3722   537   532   ar
  3723   175   158    1
  3724   175   195    1
  3725   134   132    1
  3726   134   135    1
  3727   153   154    1
  3728   564   563   ar
  3729   564   558   ar
  3730   534   533   ar
  3731   322   316   ar
  3732   322   323    2
  3733   132   130    1
  3734   351   350    1
  3735  1378  1376    1
  3736  1378  1373    1
  3737   174   152    2
  3738  1675  1674   ar
  3739  1396  1394    1
  3740  1396  1397    1
  3741  1642  1644    1
  3742  1642  1640    1
  3743   557   558   ar
  3744   557   555   ar
  3745   480   481    1
  3746  1366  1355    1
  3747  1366  1365   ar
  3748   468   467   ar
  3749   468   469   ar
  3750  1336  1343   ar
  3751  1336  1335    1
  3752  1649  1650   ar
  3753  1649  1655   ar
  3754  1672  1674   ar
  3755  1672  1673    1
  3756   509   515   ar
  3757  1306  1308    1
  3758  1306  1324    1
  3759   467   472   ar
  3760  1492  1493    2
  3761  1492  1494   ar
  3762  1651  1652    2
  3763  1651  1650   ar
  3764  1355  1353    1
  3765  1355  1350    1
  3766   343   344    1
  3767   343   342   ar
  3768   563   562   ar
  3769   496   495   ar
  3770   154   152    1
  3771   558   559   ar
  3772  1676  1658    2
  3773  1503  1502    1
  3774  1354  1353    1
  3775   350   352    1
  3776   493   494    2
  3777   493   495   ar
  3778   515   516    2
  3779  1394  1392    1
  3780  1495  1494   ar
  3781  1495  1496    1
  3782  1658  1641    1
  3783  1658  1677    1
  3784  1364  1365   ar
  3785   533   532   ar
  3786  1315  1310    1
  3787  1315  1313    1
  3788   340   342   ar
  3789   340   341    2
  3790  1376  1377    1
  3791  1376  1374    1
  3792  1397  1413    1
  3793  1308  1307    1
  3794  1644  1655    1
  3795  1644  1639    1
  3796  1310  1309    1
  3797  1373  1372    1
  3798  1353  1351    1
  3799  1413  1434    2
  3800  1413  1433    1
  3801   135   152    1
  3802  1641  1640    1
  3803   152   173    1
  3804   556   555    1
  3805  1650  1653   ar
  3806   469   470   ar
  3807   481   479    1
  3808  1502  1504    1
  3809  1655  1654   ar
  3810   555   554   ar
  3811  1640  1638    1
  3812   365   366   ar
  3813   365   363   ar
  3814  1335  1330    1
  3815  1335  1333    1
  3816  1350  1349    1
  3817   472   473    1
  3818   472   471   ar
  3819  1519  1520   ar
  3820  1519  1516   ar
  3821  1374  1372    1
  3822  1374  1375    1
  3823   366   359   ar
  3824   562   559   ar
  3825  1393  1392    1
  3826  1393  1391    1
  3827  1520  1521   ar
  3828   559   560   ar
  3829  1307  1309    1
  3830   352   353    1
  3831   352   354    1
  3832  1639  1638    1
  3833  1372  1370    1
  3834  1313  1311    1
  3835  1313  1314    1
  3836   353   358    1
  3837  1309  1311    1
  3838   364   363    1
  3839  1638  1636    1
  3840  1330  1329    1
  3841   470   471   ar
  3842   470   476   ar
  3843  1505  1504    1
  3844  1505  1510    1
  3845  1333  1334    1
  3846  1333  1331    1
  3847   465   464    1
  3848   497   479    2
  3849  1412  1391    2
  3850  1653  1654   ar
  3851  1518  1517    2
  3852  1370  1371    1
  3853   363   362   ar
  3854  1371  1369    1
  3855  1351  1349    1
  3856  1351  1352    1
  3857  1504  1506    1
  3858   554   560   ar
  3859   471   474   ar
  3860  1311  1312    1
  3861   388   369    2
  3862   479   498    1
  3863   479   463    1
  3864  1349  1347    1
  3865   406   405    2
  3866  1627  1626    2
  3867  1516  1517   ar
  3868  1516  1515   ar
  3869   464   466    1
  3870   464   462    1
  3871  1375  1391    1
  3872  1391  1411    1
  3873   560   561    2
  3874   354   355    1
  3875   354   356    1
  3876  1521  1510    1
  3877  1521  1515   ar
  3878   359   358    1
  3879   359   360   ar
  3880  1628  1626   ar
  3881  1628  1629   ar
  3882  1517  1511   ar
  3883  1544  1524    2
  3884   355   369    1
  3885  1352  1369    1
  3886   358   356    1
  3887   463   462    1
  3888   476   466    1
  3889   476   475   ar
  3890  1510  1508    1
  3891  1630  1629    1
  3892   387   369    1
  3893   446   445    1
  3894   369   371    1
  3895  1609  1608    2
  3896  1626  1625   ar
  3897  1345  1326    2
  3898  1331  1329    1
  3899  1331  1332    1
  3900  1515  1514   ar
  3901   466   461    1
  3902  1506  1507    1
  3903  1506  1508    1
  3904   384   383    1
  3905  1329  1327    1
  3906  1636  1637    1
  3907   462   460    1
  3908   362   360   ar
  3909  1369  1390    2
  3910  1369  1389    1
  3911   474   475   ar
  3912   444   445   ar
  3913   444   450   ar
  3914   405   399   ar
  3915   405   404   ar
  3916  1545  1524    1
  3917  1328  1326    1
  3918  1328  1327    1
  3919  1629  1631   ar
  3920  1312  1326    1
  3921  1347  1348    1
  3922   451   450    2
  3923  1602  1608   ar
  3924  1602  1603   ar
  3925   360   361    2
  3926   356   357    1
  3927  1348  1346    1
  3928   399   400   ar
  3929  1524  1507    1
  3930  1524  1526    1
  3931  1586  1585    2
  3932   385   383   ar
  3933   385   386   ar
  3934   445   447   ar
  3935  1511  1512   ar
  3936  1604  1603    1
  3937  1608  1607   ar
  3938  1326  1344    1
  3939  1637  1635    1
  3940  1508  1509    1
  3941   450   449   ar
  3942   383   382   ar
  3943  1563  1562    2
  3944  1514  1512   ar
  3945  1332  1346    1
  3946  1625  1624    1
  3947  1625  1632   ar
  3948  1603  1605   ar
  3949  1623  1622    1
  3950   461   460    1
  3951   371   370    1
  3952   404   407   ar
  3953   404   403   ar
  3954   460   458    1
  3955  1622  1624    1
  3956  1622  1620    1
  3957  1512  1513    1
  3958   407   408   ar
  3959  1368  1346    2
  3960   386   379   ar
  3961  1346  1367    1
  3962  1631  1632   ar
  3963  1624  1619    1
  3964   400   401    1
  3965   400   402   ar
  3966  1585  1579   ar
  3967  1585  1584   ar
  3968   447   448   ar
  3969  1526  1525    1
  3970  1564  1561   ar
  3971  1564  1565   ar
  3972   449   448   ar
  3973   449   452   ar
  3974  1607  1610   ar
  3975  1607  1606   ar
  3976  1562  1561   ar
  3977  1562  1556   ar
  3978  1579  1580   ar
  3979   382   380   ar
  3980  1635  1657    2
  3981  1635  1656    1
  3982  1635  1621    1
  3983  1525  1527    1
  3984   370   372    1
  3985   448   454   ar
  3986  1568  1546    2
  3987  1605  1606   ar
  3988   459   458    1
  3989   459   457    1
  3990   403   402   ar
  3991   403   409   ar
  3992  1620  1621    1
  3993  1620  1618    1
  3994  1561  1560   ar
  3995   408   409   ar
  3996  1610  1611   ar
  3997  1584  1587   ar
  3998  1584  1583   ar
  3999  1587  1588   ar
  4000   379   380   ar
  4001   379   378    1
  4002  1606  1612   ar
  4003  1565  1566   ar
  4004   428   427    1
  4005   452   453   ar
  4006   411   389    2
  4007  1619  1618    1
  4008  1556  1557   ar
  4009   380   381    2
  4010  1567  1546    1
  4011   373   372    1
  4012   373   378    1
  4013   478   457    2
  4014   409   398    1
  4015  1580  1581    1
  4016  1580  1582   ar
  4017  1546  1548    1
  4018  1546  1530    1
  4019   372   374    1
  4020   454   453   ar
  4021   454   443    1
  4022  1618  1616    1
  4023   457   477    1
  4024   457   440    1
  4025  1527  1528    1
  4026  1527  1529    1
  4027   378   376    1
  4028   374   376    1
  4029   374   375    1
  4030   441   442    1
  4031   441   443    1
  4032   441   439    1
  4033  1560  1566   ar
  4034  1560  1559   ar
  4035  1611  1612   ar
  4036  1541  1542   ar
  4037  1541  1538   ar
  4038  1588  1589   ar
  4039  1583  1582   ar
  4040  1583  1589   ar
  4041  1542  1543   ar
  4042  1612  1601    1
  4043  1566  1555    1
  4044   427   422   ar
  4045   427   426   ar
  4046  1547  1548    1
  4047  1547  1549    1
  4048  1528  1533    1
  4049  1591  1569    2
  4050  1529  1530    1
  4051  1529  1531    1
  4052  1557  1559   ar
  4053  1557  1558    1
  4054   389   375    1
  4055   389   391    1
  4056   389   410    1
  4057   443   438    1
  4058   376   377    1
  4059   429   426   ar
  4060   429   430   ar
  4061   439   440    1
  4062   439   437    1
  4063   422   423   ar
  4064   433   412    2
  4065   398   396    1
  4066   398   393    1
  4067  1617  1616    1
  4068  1617  1615    1
  4069   391   390    1
  4070  1589  1578    1
  4071   426   425   ar
  4072  1540  1539    1
  4073  1538  1539   ar
  4074  1538  1537   ar
  4075  1543  1533    1
  4076  1543  1537   ar
  4077   396   394    1
  4078   396   397    1
  4079  1550  1549    1
  4080  1550  1555    1
  4081  1601  1599    1
  4082  1601  1596    1
  4083  1549  1551    1
  4084  1551  1553    1
  4085  1551  1552    1
  4086  1555  1553    1
  4087  1533  1531    1
  4088  1599  1597    1
  4089  1599  1600    1
  4090  1539  1534   ar
  4091   393   392    1
  4092   394   392    1
  4093   394   395    1
  4094  1634  1615    2
  4095  1531  1532    1
  4096  1614  1592    2
  4097  1537  1536   ar
  4098   430   431   ar
  4099   438   437    1
  4100  1569  1571    1
  4101  1569  1552    1
  4102  1569  1590    1
  4103   423   424   ar
  4104  1553  1554    1
  4105   437   435    1
  4106  1615  1598    1
  4107  1615  1633    1
  4108  1571  1570    1
  4109  1597  1598    1
  4110  1597  1595    1
  4111   390   392    1
  4112   425   431   ar
  4113   425   424   ar
  4114   412   395    1
  4115   412   414    1
  4116   412   432    1
  4117  1578  1576    1
  4118  1578  1573    1
  4119  1596  1595    1
  4120   436   435    1
  4121   436   434    1
  4122   456   434    2
  4123  1534  1535   ar
  4124  1594  1592    1
  4125  1594  1593    1
  4126   431   421    1
  4127  1576  1574    1
  4128  1576  1577    1
  4129  1536  1535   ar
  4130  1573  1572    1
  4131   414   413    1
  4132  1574  1572    1
  4133  1574  1575    1
  4134  1592  1575    1
  4135  1592  1613    1
  4136  1595  1593    1
  4137   434   455    1
  4138   434   418    1
  4139  1570  1572    1
  4140   417   419    1
  4141   417   418    1
  4142   417   415    1
  4143   421   419    1
  4144   421   416    1
  4145   419   420    1
  4146   413   415    1
  4147   416   415    1
