lig.pdb
 OpenBabel03051820513D

 27 29  0  0  1  0  0  0  0  0999 V2000
    1.9720  -14.3150  -11.4910 N   0  0  0  0  0  0  0  0  0  0  0  0
    3.1260  -14.7430  -12.3390 C   0  0  2  0  0  0  0  0  0  0  0  0
    2.7160  -15.9600  -13.1630 C   0  0  0  0  0  0  0  0  0  0  0  0
    3.5670  -16.5800  -13.7900 O   0  0  0  0  0  0  0  0  0  0  0  0
    1.5460  -16.3570  -13.2360 O   0  0  0  0  0  0  0  0  0  0  0  0
    4.4190  -15.0030  -11.5400 C   0  0  0  0  0  0  0  0  0  0  0  0
    5.3960  -13.8080  -11.3850 C   0  0  0  0  0  0  0  0  0  0  0  0
    6.9650  -14.0530  -10.4460 S   0  0  2  0  0  0  0  0  0  0  0  0
    7.9260  -15.0470  -11.6070 C   0  0  0  0  0  0  0  0  0  0  0  0
    6.5410  -15.3240   -9.2350 C   0  0  0  0  0  0  0  0  0  0  0  0
    5.8800  -14.6790   -8.0240 C   0  0  1  0  0  0  0  0  0  0  0  0
    4.6730  -14.0080   -8.3530 O   0  0  0  0  0  0  0  0  0  0  0  0
    5.4640  -15.6760   -6.9760 C   0  0  1  0  0  0  0  0  0  0  0  0
    6.5720  -16.0700   -6.2190 O   0  0  0  0  0  0  0  0  0  0  0  0
    4.4690  -14.8530   -6.1880 C   0  0  1  0  0  0  0  0  0  0  0  0
    5.1450  -14.0280   -5.2610 O   0  0  0  0  0  0  0  0  0  0  0  0
    3.8000  -13.9730   -7.2380 C   0  0  2  0  0  0  0  0  0  0  0  0
    2.4160  -14.3760   -7.6100 N   0  0  0  0  0  0  0  0  0  0  0  0
    1.3210  -13.5490   -7.6060 C   0  0  0  0  0  0  0  0  0  0  0  0
    0.2340  -14.2500   -7.9990 N   0  0  0  0  0  0  0  0  0  0  0  0
    0.6090  -15.5120   -8.2650 C   0  0  0  0  0  0  0  0  0  0  0  0
   -0.0990  -16.6200   -8.7050 C   0  0  0  0  0  0  0  0  0  0  0  0
   -1.4010  -16.5320   -8.9430 N   0  0  0  0  0  0  0  0  0  0  0  0
    0.5690  -17.8130   -8.8980 N   0  0  0  0  0  0  0  0  0  0  0  0
    1.9340  -17.9170   -8.6620 C   0  0  0  0  0  0  0  0  0  0  0  0
    2.6230  -16.8020   -8.2300 N   0  0  0  0  0  0  0  0  0  0  0  0
    1.9770  -15.6170   -8.0260 C   0  0  0  0  0  0  0  0  0  0  0  0
  2  3  1  1  0  0  0
  2  6  1  0  0  0  0
  2  1  1  0  0  0  0
  4  3  2  0  0  0  0
  5  3  1  0  0  0  0
  6  7  2  0  0  0  0
  7  8  1  0  0  0  0
  8  9  1  6  0  0  0
  8 10  1  0  0  0  0
 11 10  1  6  0  0  0
 11 13  1  0  0  0  0
 12 11  1  0  0  0  0
 12 17  1  0  0  0  0
 13 14  1  1  0  0  0
 13 15  1  0  0  0  0
 15 16  1  1  0  0  0
 17 18  1  6  0  0  0
 17 15  1  0  0  0  0
 18 19  1  0  0  0  0
 20 19  2  0  0  0  0
 21 27  2  0  0  0  0
 21 20  1  0  0  0  0
 22 21  1  0  0  0  0
 23 22  1  0  0  0  0
 24 22  2  0  0  0  0
 24 25  1  0  0  0  0
 25 26  2  0  0  0  0
 26 27  1  0  0  0  0
 27 18  1  0  0  0  0
M  END
$$$$
