lig.pdb
 OpenBabel11021811493D
libRbt.so/2013.1/901 2013/11/27
 27 29  0  0  0  0  0  0  0  0999 V2000
    1.6490  -15.6801  -11.0216 N   0  0  0  0  0  0  0  0  0  0  0  0
    2.7099  -15.1521  -11.9324 C   0  0  2  0  0  0  0  0  0  0  0  0
    2.6911  -15.9469  -13.2347 C   0  0  0  0  0  0  0  0  0  0  0  0
    3.7179  -16.4884  -13.6274 O   0  0  0  0  0  0  0  0  0  0  0  0
    1.6747  -16.0705  -13.9301 O   0  0  0  0  0  0  0  0  0  0  0  0
    4.1152  -15.1279  -11.2979 C   0  0  0  0  0  0  0  0  0  0  0  0
    4.7006  -13.7338  -10.9511 C   0  0  0  0  0  0  0  0  0  0  0  0
    6.3806  -13.6332  -10.1956 S   0  0  2  0  0  0  0  0  0  0  0  0
    7.3804  -14.4924  -11.4292 C   0  0  0  0  0  0  0  0  0  0  0  0
    6.3412  -14.8943   -8.9033 C   0  0  0  0  0  0  0  0  0  0  0  0
    5.6246  -14.3486   -7.6753 C   0  0  1  0  0  0  0  0  0  0  0  0
    4.3794  -13.7450   -7.9924 O   0  0  0  0  0  0  0  0  0  0  0  0
    5.2640  -15.4162   -6.6775 C   0  0  1  0  0  0  0  0  0  0  0  0
    6.3870  -15.7690   -5.9223 O   0  0  0  0  0  0  0  0  0  0  0  0
    4.2072  -14.6964   -5.8691 C   0  0  1  0  0  0  0  0  0  0  0  0
    4.8159  -13.8702   -4.8976 O   0  0  0  0  0  0  0  0  0  0  0  0
    3.4932  -13.8171   -6.8897 C   0  0  2  0  0  0  0  0  0  0  0  0
    2.1436  -14.2940   -7.2988 N   0  0  0  0  0  0  0  0  0  0  0  0
    1.0364  -13.4993   -7.4587 C   0  0  0  0  0  0  0  0  0  0  0  0
   -0.0103  -14.2672   -7.8357 N   0  0  0  0  0  0  0  0  0  0  0  0
    0.4031  -15.5416   -7.9305 C   0  0  0  0  0  0  0  0  0  0  0  0
   -0.2554  -16.7097   -8.2834 C   0  0  0  0  0  0  0  0  0  0  0  0
   -1.5404  -16.6816   -8.6111 N   0  0  0  0  0  0  0  0  0  0  0  0
    0.4445  -17.9000   -8.2954 N   0  0  0  0  0  0  0  0  0  0  0  0
    1.7928  -17.9426   -7.9639 C   0  0  0  0  0  0  0  0  0  0  0  0
    2.4327  -16.7690   -7.6209 N   0  0  0  0  0  0  0  0  0  0  0  0
    1.7543  -15.5848   -7.5957 C   0  0  0  0  0  0  0  0  0  0  0  0
  2  3  1  6  0  0  0
  2  6  1  0  0  0  0
  2  1  1  0  0  0  0
  4  3  2  0  0  0  0
  5  3  1  0  0  0  0
  6  7  2  0  0  0  0
  8  7  1  6  0  0  0
  8  9  1  0  0  0  0
  8 10  1  0  0  0  0
 11 10  1  6  0  0  0
 11 13  1  0  0  0  0
 12 11  1  0  0  0  0
 12 17  1  0  0  0  0
 13 14  1  1  0  0  0
 13 15  1  0  0  0  0
 15 16  1  1  0  0  0
 17 18  1  6  0  0  0
 17 15  1  0  0  0  0
 18 19  1  0  0  0  0
 20 19  2  0  0  0  0
 21 27  2  0  0  0  0
 21 20  1  0  0  0  0
 22 21  1  0  0  0  0
 23 22  1  0  0  0  0
 24 22  2  0  0  0  0
 24 25  1  0  0  0  0
 25 26  2  0  0  0  0
 26 27  1  0  0  0  0
 27 18  1  0  0  0  0
M  END
>  <CHROM.1>
-125.08722142,-109.15813355,56.96122436,-80.06399795,49.24949956,-103.03142119
3.31943587,-15.17787625,-9.01465407,-2.71068936,0.32350056,1.46747757

>  <Name>
lig.pdb

>  <RI>
0

>  <Rbt.Current_Directory>
/home/itssahil/PROJECTS/Mol_Feturizer/New_Systems/rnas/4b5r

>  <Rbt.Executable>
rbdock ($Id: //depot/dev/client3/rdock/2013.1/src/exe/rbdock.cxx#4 $)

>  <Rbt.Library>
libRbt.so (2013.1, Build901 2013/11/27)

>  <Rbt.Parameter_File>
/export/apps/rDock/src/rDock_2013.1_src/data/scripts/dock_solv.prm

>  <Rbt.Receptor>
prm/pocket_docking_2.prm

>  <SCORE>
-19.9178

>  <SCORE.INTER>
-20.8248

>  <SCORE.INTER.CONST>
1

>  <SCORE.INTER.POLAR>
0

>  <SCORE.INTER.ROT>
6

>  <SCORE.INTER.SOLV>
15.7243

>  <SCORE.INTER.VDW>
-26.7246

>  <SCORE.INTER.norm>
-0.771289

>  <SCORE.INTRA>
0.836962

>  <SCORE.INTRA.DIHEDRAL>
-0.651143

>  <SCORE.INTRA.DIHEDRAL.0>
10.2917

>  <SCORE.INTRA.POLAR>
0

>  <SCORE.INTRA.POLAR.0>
0

>  <SCORE.INTRA.REPUL>
0

>  <SCORE.INTRA.REPUL.0>
0

>  <SCORE.INTRA.SOLV>
1.75033

>  <SCORE.INTRA.SOLV.lig_0>
-39.6315

>  <SCORE.INTRA.VDW>
0.287366

>  <SCORE.INTRA.VDW.0>
-4.02152

>  <SCORE.INTRA.norm>
0.0309986

>  <SCORE.RESTR>
0.0699965

>  <SCORE.RESTR.CAVITY>
0.0699965

>  <SCORE.RESTR.norm>
0.00259246

>  <SCORE.SYSTEM>
0

>  <SCORE.SYSTEM.CONST>
0

>  <SCORE.SYSTEM.DIHEDRAL>
0

>  <SCORE.SYSTEM.SOLV>
0

>  <SCORE.SYSTEM.norm>
0

>  <SCORE.heavy>
27

>  <SCORE.norm>
-0.737698

>  <RMSD>
0.604

$$$$
lig.pdb
 OpenBabel11021811493D
libRbt.so/2013.1/901 2013/11/27
 27 29  0  0  0  0  0  0  0  0999 V2000
    1.8942  -15.7190  -11.5423 N   0  0  0  0  0  0  0  0  0  0  0  0
    3.1068  -15.2436  -12.2754 C   0  0  2  0  0  0  0  0  0  0  0  0
    3.2736  -16.0650  -13.5504 C   0  0  0  0  0  0  0  0  0  0  0  0
    4.0778  -16.9894  -13.5731 O   0  0  0  0  0  0  0  0  0  0  0  0
    2.6303  -15.8379  -14.5831 O   0  0  0  0  0  0  0  0  0  0  0  0
    4.3898  -15.2495  -11.4199 C   0  0  0  0  0  0  0  0  0  0  0  0
    5.1413  -13.8996  -11.2794 C   0  0  0  0  0  0  0  0  0  0  0  0
    6.6873  -13.8384  -10.2747 S   0  0  2  0  0  0  0  0  0  0  0  0
    7.8320  -14.7617  -11.3218 C   0  0  0  0  0  0  0  0  0  0  0  0
    6.4014  -15.0650   -8.9803 C   0  0  0  0  0  0  0  0  0  0  0  0
    5.7065  -14.4079   -7.7950 C   0  0  1  0  0  0  0  0  0  0  0  0
    4.4808  -13.7887   -8.1548 O   0  0  0  0  0  0  0  0  0  0  0  0
    5.3141  -15.3876   -6.7219 C   0  0  1  0  0  0  0  0  0  0  0  0
    6.4271  -15.7210   -5.9434 O   0  0  0  0  0  0  0  0  0  0  0  0
    4.2836  -14.5766   -5.9677 C   0  0  1  0  0  0  0  0  0  0  0  0
    4.9216  -13.7021   -5.0593 O   0  0  0  0  0  0  0  0  0  0  0  0
    3.5958  -13.7511   -7.0494 C   0  0  2  0  0  0  0  0  0  0  0  0
    2.2302  -14.2121   -7.4220 N   0  0  0  0  0  0  0  0  0  0  0  0
    1.1425  -13.3975   -7.6122 C   0  0  0  0  0  0  0  0  0  0  0  0
    0.0724  -14.1554   -7.9407 N   0  0  0  0  0  0  0  0  0  0  0  0
    0.4516  -15.4434   -7.9746 C   0  0  0  0  0  0  0  0  0  0  0  0
   -0.2405  -16.6100   -8.2622 C   0  0  0  0  0  0  0  0  0  0  0  0
   -1.5277  -16.5644   -8.5796 N   0  0  0  0  0  0  0  0  0  0  0  0
    0.4280  -17.8175   -8.2201 N   0  0  0  0  0  0  0  0  0  0  0  0
    1.7780  -17.8790   -7.8987 C   0  0  0  0  0  0  0  0  0  0  0  0
    2.4516  -16.7069   -7.6211 N   0  0  0  0  0  0  0  0  0  0  0  0
    1.8045  -15.5055   -7.6499 C   0  0  0  0  0  0  0  0  0  0  0  0
  2  3  1  6  0  0  0
  2  6  1  0  0  0  0
  2  1  1  0  0  0  0
  4  3  2  0  0  0  0
  5  3  1  0  0  0  0
  6  7  2  0  0  0  0
  8  7  1  6  0  0  0
  8  9  1  0  0  0  0
  8 10  1  0  0  0  0
 11 10  1  6  0  0  0
 11 13  1  0  0  0  0
 12 11  1  0  0  0  0
 12 17  1  0  0  0  0
 13 14  1  1  0  0  0
 13 15  1  0  0  0  0
 15 16  1  1  0  0  0
 17 18  1  6  0  0  0
 17 15  1  0  0  0  0
 18 19  1  0  0  0  0
 20 19  2  0  0  0  0
 21 27  2  0  0  0  0
 21 20  1  0  0  0  0
 22 21  1  0  0  0  0
 23 22  1  0  0  0  0
 24 22  2  0  0  0  0
 24 25  1  0  0  0  0
 25 26  2  0  0  0  0
 26 27  1  0  0  0  0
 27 18  1  0  0  0  0
M  END
>  <CHROM.1>
-99.81901995,-122.92911887,70.47882238,-88.53133424,57.18427500,-104.44758976
3.51557055,-15.19726951,-9.13710748,0.89317654,-0.28624005,-1.72363683

>  <Name>
lig.pdb

>  <RI>
0

>  <Rbt.Current_Directory>
/home/itssahil/PROJECTS/Mol_Feturizer/New_Systems/rnas/4b5r

>  <Rbt.Executable>
rbdock ($Id: //depot/dev/client3/rdock/2013.1/src/exe/rbdock.cxx#4 $)

>  <Rbt.Library>
libRbt.so (2013.1, Build901 2013/11/27)

>  <Rbt.Parameter_File>
/export/apps/rDock/src/rDock_2013.1_src/data/scripts/dock_solv.prm

>  <Rbt.Receptor>
prm/pocket_docking_2.prm

>  <SCORE>
-20.1825

>  <SCORE.INTER>
-19.8398

>  <SCORE.INTER.CONST>
1

>  <SCORE.INTER.POLAR>
0

>  <SCORE.INTER.ROT>
6

>  <SCORE.INTER.SOLV>
15.8665

>  <SCORE.INTER.VDW>
-26.1154

>  <SCORE.INTER.norm>
-0.734809

>  <SCORE.INTRA>
-0.355872

>  <SCORE.INTRA.DIHEDRAL>
-0.66953

>  <SCORE.INTRA.DIHEDRAL.0>
10.2917

>  <SCORE.INTRA.POLAR>
0

>  <SCORE.INTRA.POLAR.0>
0

>  <SCORE.INTRA.REPUL>
0

>  <SCORE.INTRA.REPUL.0>
0

>  <SCORE.INTRA.SOLV>
-0.926198

>  <SCORE.INTRA.SOLV.lig_0>
-39.6315

>  <SCORE.INTRA.VDW>
0.441992

>  <SCORE.INTRA.VDW.0>
-4.02152

>  <SCORE.INTRA.norm>
-0.0131804

>  <SCORE.RESTR>
0.0132084

>  <SCORE.RESTR.CAVITY>
0.0132084

>  <SCORE.RESTR.norm>
0.000489198

>  <SCORE.SYSTEM>
0

>  <SCORE.SYSTEM.CONST>
0

>  <SCORE.SYSTEM.DIHEDRAL>
0

>  <SCORE.SYSTEM.SOLV>
0

>  <SCORE.SYSTEM.norm>
0

>  <SCORE.heavy>
27

>  <SCORE.norm>
-0.7475

>  <RMSD>
0.626

$$$$
lig.pdb
 OpenBabel11021811493D
libRbt.so/2013.1/901 2013/11/27
 27 29  0  0  0  0  0  0  0  0999 V2000
    1.3203  -15.1994  -11.2104 N   0  0  0  0  0  0  0  0  0  0  0  0
    2.5734  -14.7301  -11.8763 C   0  0  2  0  0  0  0  0  0  0  0  0
    2.9959  -15.7551  -12.9246 C   0  0  0  0  0  0  0  0  0  0  0  0
    3.4179  -16.8481  -12.5656 O   0  0  0  0  0  0  0  0  0  0  0  0
    2.9381  -15.5330  -14.1408 O   0  0  0  0  0  0  0  0  0  0  0  0
    3.7174  -14.4148  -10.8915 C   0  0  0  0  0  0  0  0  0  0  0  0
    5.1069  -14.1101  -11.5103 C   0  0  0  0  0  0  0  0  0  0  0  0
    6.5210  -13.7313  -10.3877 S   0  0  2  0  0  0  0  0  0  0  0  0
    7.9064  -14.4364  -11.3058 C   0  0  0  0  0  0  0  0  0  0  0  0
    6.3649  -14.9643   -9.0773 C   0  0  0  0  0  0  0  0  0  0  0  0
    5.6964  -14.3382   -7.8605 C   0  0  1  0  0  0  0  0  0  0  0  0
    4.4418  -13.7496   -8.1686 O   0  0  0  0  0  0  0  0  0  0  0  0
    5.3705  -15.3387   -6.7843 C   0  0  1  0  0  0  0  0  0  0  0  0
    6.5201  -15.6488   -6.0506 O   0  0  0  0  0  0  0  0  0  0  0  0
    4.3468  -14.5639   -5.9844 C   0  0  1  0  0  0  0  0  0  0  0  0
    4.9937  -13.6810   -5.0906 O   0  0  0  0  0  0  0  0  0  0  0  0
    3.5974  -13.7473   -7.0313 C   0  0  2  0  0  0  0  0  0  0  0  0
    2.2321  -14.2422   -7.3588 N   0  0  0  0  0  0  0  0  0  0  0  0
    1.0909  -13.4802   -7.3583 C   0  0  0  0  0  0  0  0  0  0  0  0
    0.0390  -14.2560   -7.7033 N   0  0  0  0  0  0  0  0  0  0  0  0
    0.4817  -15.5027   -7.9351 C   0  0  0  0  0  0  0  0  0  0  0  0
   -0.1690  -16.6644   -8.3218 C   0  0  0  0  0  0  0  0  0  0  0  0
   -1.4785  -16.6601   -8.5337 N   0  0  0  0  0  0  0  0  0  0  0  0
    0.5635  -17.8229   -8.4894 N   0  0  0  0  0  0  0  0  0  0  0  0
    1.9367  -17.8396   -8.2804 C   0  0  0  0  0  0  0  0  0  0  0  0
    2.5680  -16.6723   -7.9015 N   0  0  0  0  0  0  0  0  0  0  0  0
    1.8581  -15.5202   -7.7231 C   0  0  0  0  0  0  0  0  0  0  0  0
  2  3  1  6  0  0  0
  2  6  1  0  0  0  0
  2  1  1  0  0  0  0
  4  3  2  0  0  0  0
  5  3  1  0  0  0  0
  6  7  2  0  0  0  0
  8  7  1  6  0  0  0
  8  9  1  0  0  0  0
  8 10  1  0  0  0  0
 11 10  1  6  0  0  0
 11 13  1  0  0  0  0
 12 11  1  0  0  0  0
 12 17  1  0  0  0  0
 13 14  1  1  0  0  0
 13 15  1  0  0  0  0
 15 16  1  1  0  0  0
 17 18  1  6  0  0  0
 17 15  1  0  0  0  0
 18 19  1  0  0  0  0
 20 19  2  0  0  0  0
 21 27  2  0  0  0  0
 21 20  1  0  0  0  0
 22 21  1  0  0  0  0
 23 22  1  0  0  0  0
 24 22  2  0  0  0  0
 24 25  1  0  0  0  0
 25 26  2  0  0  0  0
 26 27  1  0  0  0  0
 27 18  1  0  0  0  0
M  END
>  <CHROM.1>
-69.83359771,171.87009877,146.77328209,-99.74668969,55.36385404,-111.94586668
3.44543668,-15.09045213,-9.06031888,2.93235305,0.30096737,1.46957681

>  <Name>
lig.pdb

>  <RI>
0

>  <Rbt.Current_Directory>
/home/itssahil/PROJECTS/Mol_Feturizer/New_Systems/rnas/4b5r

>  <Rbt.Executable>
rbdock ($Id: //depot/dev/client3/rdock/2013.1/src/exe/rbdock.cxx#4 $)

>  <Rbt.Library>
libRbt.so (2013.1, Build901 2013/11/27)

>  <Rbt.Parameter_File>
/export/apps/rDock/src/rDock_2013.1_src/data/scripts/dock_solv.prm

>  <Rbt.Receptor>
prm/pocket_docking_2.prm

>  <SCORE>
-18.6328

>  <SCORE.INTER>
-19.467

>  <SCORE.INTER.CONST>
1

>  <SCORE.INTER.POLAR>
0

>  <SCORE.INTER.ROT>
6

>  <SCORE.INTER.SOLV>
16.3715

>  <SCORE.INTER.VDW>
-26.0352

>  <SCORE.INTER.norm>
-0.721002

>  <SCORE.INTRA>
0.833643

>  <SCORE.INTRA.DIHEDRAL>
1.55253

>  <SCORE.INTRA.DIHEDRAL.0>
10.2917

>  <SCORE.INTRA.POLAR>
0

>  <SCORE.INTRA.POLAR.0>
0

>  <SCORE.INTRA.REPUL>
0

>  <SCORE.INTRA.REPUL.0>
0

>  <SCORE.INTRA.SOLV>
1.4028

>  <SCORE.INTRA.SOLV.lig_0>
-39.6315

>  <SCORE.INTRA.VDW>
-0.644021

>  <SCORE.INTRA.VDW.0>
-4.02152

>  <SCORE.INTRA.norm>
0.0308757

>  <SCORE.RESTR>
0.000619413

>  <SCORE.RESTR.CAVITY>
0.000619413

>  <SCORE.RESTR.norm>
2.29412e-05

>  <SCORE.SYSTEM>
0

>  <SCORE.SYSTEM.CONST>
0

>  <SCORE.SYSTEM.DIHEDRAL>
0

>  <SCORE.SYSTEM.SOLV>
0

>  <SCORE.SYSTEM.norm>
0

>  <SCORE.heavy>
27

>  <SCORE.norm>
-0.690103

>  <RMSD>
0.665

$$$$
lig.pdb
 OpenBabel11021811493D
libRbt.so/2013.1/901 2013/11/27
 27 29  0  0  0  0  0  0  0  0999 V2000
    1.4903  -14.5722  -12.1122 N   0  0  0  0  0  0  0  0  0  0  0  0
    2.7897  -14.6948  -12.8406 C   0  0  2  0  0  0  0  0  0  0  0  0
    3.1136  -16.1726  -13.0389 C   0  0  0  0  0  0  0  0  0  0  0  0
    4.0650  -16.4940  -13.7412 O   0  0  0  0  0  0  0  0  0  0  0  0
    2.4494  -17.0799  -12.5216 O   0  0  0  0  0  0  0  0  0  0  0  0
    3.9524  -13.9406  -12.1644 C   0  0  0  0  0  0  0  0  0  0  0  0
    4.7974  -14.7379  -11.1363 C   0  0  0  0  0  0  0  0  0  0  0  0
    6.1998  -13.8930  -10.2860 S   0  0  2  0  0  0  0  0  0  0  0  0
    7.5941  -14.3792  -11.3247 C   0  0  0  0  0  0  0  0  0  0  0  0
    6.5140  -14.9369   -8.8460 C   0  0  0  0  0  0  0  0  0  0  0  0
    5.7120  -14.4256   -7.6566 C   0  0  1  0  0  0  0  0  0  0  0  0
    4.5328  -13.7385   -8.0474 O   0  0  0  0  0  0  0  0  0  0  0  0
    5.2078  -15.5285   -6.7650 C   0  0  1  0  0  0  0  0  0  0  0  0
    6.2362  -15.9846   -5.9342 O   0  0  0  0  0  0  0  0  0  0  0  0
    4.1154  -14.8011   -6.0128 C   0  0  1  0  0  0  0  0  0  0  0  0
    4.6688  -14.0667   -4.9397 O   0  0  0  0  0  0  0  0  0  0  0  0
    3.5441  -13.8267   -7.0369 C   0  0  2  0  0  0  0  0  0  0  0  0
    2.2176  -14.2056   -7.5966 N   0  0  0  0  0  0  0  0  0  0  0  0
    1.2581  -13.3248   -8.0283 C   0  0  0  0  0  0  0  0  0  0  0  0
    0.1863  -14.0188   -8.4723 N   0  0  0  0  0  0  0  0  0  0  0  0
    0.4400  -15.3314   -8.3432 C   0  0  0  0  0  0  0  0  0  0  0  0
   -0.3064  -16.4582   -8.6524 C   0  0  0  0  0  0  0  0  0  0  0  0
   -1.5157  -16.3359   -9.1836 N   0  0  0  0  0  0  0  0  0  0  0  0
    0.2271  -17.7078   -8.4064 N   0  0  0  0  0  0  0  0  0  0  0  0
    1.4961  -17.8509   -7.8595 C   0  0  0  0  0  0  0  0  0  0  0  0
    2.2265  -16.7179   -7.5638 N   0  0  0  0  0  0  0  0  0  0  0  0
    1.7112  -15.4749   -7.7926 C   0  0  0  0  0  0  0  0  0  0  0  0
  2  3  1  1  0  0  0
  2  6  1  0  0  0  0
  2  1  1  0  0  0  0
  4  3  2  0  0  0  0
  5  3  1  0  0  0  0
  6  7  2  0  0  0  0
  8  7  1  6  0  0  0
  8  9  1  0  0  0  0
  8 10  1  0  0  0  0
 11 10  1  6  0  0  0
 11 13  1  0  0  0  0
 12 11  1  0  0  0  0
 12 17  1  0  0  0  0
 13 14  1  1  0  0  0
 13 15  1  0  0  0  0
 15 16  1  1  0  0  0
 17 18  1  6  0  0  0
 17 15  1  0  0  0  0
 18 19  1  0  0  0  0
 20 19  2  0  0  0  0
 21 27  2  0  0  0  0
 21 20  1  0  0  0  0
 22 21  1  0  0  0  0
 23 22  1  0  0  0  0
 24 22  2  0  0  0  0
 24 25  1  0  0  0  0
 25 26  2  0  0  0  0
 26 27  1  0  0  0  0
 27 18  1  0  0  0  0
M  END
>  <CHROM.1>
172.17016669,90.84767933,-95.46751447,-92.14224545,27.10753025,-90.76072965
3.35765199,-15.15088677,-9.17949766,-3.02383551,0.27162956,1.49539884

>  <Name>
lig.pdb

>  <RI>
0

>  <Rbt.Current_Directory>
/home/itssahil/PROJECTS/Mol_Feturizer/New_Systems/rnas/4b5r

>  <Rbt.Executable>
rbdock ($Id: //depot/dev/client3/rdock/2013.1/src/exe/rbdock.cxx#4 $)

>  <Rbt.Library>
libRbt.so (2013.1, Build901 2013/11/27)

>  <Rbt.Parameter_File>
/export/apps/rDock/src/rDock_2013.1_src/data/scripts/dock_solv.prm

>  <Rbt.Receptor>
prm/pocket_docking_2.prm

>  <SCORE>
-14.594

>  <SCORE.INTER>
-16.8681

>  <SCORE.INTER.CONST>
1

>  <SCORE.INTER.POLAR>
0

>  <SCORE.INTER.ROT>
6

>  <SCORE.INTER.SOLV>
20.1307

>  <SCORE.INTER.VDW>
-25.5556

>  <SCORE.INTER.norm>
-0.624744

>  <SCORE.INTRA>
2.21863

>  <SCORE.INTRA.DIHEDRAL>
3.57796

>  <SCORE.INTRA.DIHEDRAL.0>
10.2917

>  <SCORE.INTRA.POLAR>
0

>  <SCORE.INTRA.POLAR.0>
0

>  <SCORE.INTRA.REPUL>
0

>  <SCORE.INTRA.REPUL.0>
0

>  <SCORE.INTRA.SOLV>
-1.44086

>  <SCORE.INTRA.SOLV.lig_0>
-39.6315

>  <SCORE.INTRA.VDW>
1.15009

>  <SCORE.INTRA.VDW.0>
-4.02152

>  <SCORE.INTRA.norm>
0.0821716

>  <SCORE.RESTR>
0.0554763

>  <SCORE.RESTR.CAVITY>
0.0554763

>  <SCORE.RESTR.norm>
0.00205468

>  <SCORE.SYSTEM>
0

>  <SCORE.SYSTEM.CONST>
0

>  <SCORE.SYSTEM.DIHEDRAL>
0

>  <SCORE.SYSTEM.SOLV>
0

>  <SCORE.SYSTEM.norm>
0

>  <SCORE.heavy>
27

>  <SCORE.norm>
-0.540518

>  <RMSD>
0.670

$$$$
lig.pdb
 OpenBabel11021811493D
libRbt.so/2013.1/901 2013/11/27
 27 29  0  0  0  0  0  0  0  0999 V2000
    1.9503  -15.7739  -11.3398 N   0  0  0  0  0  0  0  0  0  0  0  0
    3.1033  -15.1064  -12.0173 C   0  0  2  0  0  0  0  0  0  0  0  0
    3.3211  -15.7508  -13.3832 C   0  0  0  0  0  0  0  0  0  0  0  0
    4.3889  -16.2995  -13.6293 O   0  0  0  0  0  0  0  0  0  0  0  0
    2.4609  -15.7430  -14.2731 O   0  0  0  0  0  0  0  0  0  0  0  0
    4.3959  -15.0985  -11.1765 C   0  0  0  0  0  0  0  0  0  0  0  0
    5.1051  -13.7302  -10.9995 C   0  0  0  0  0  0  0  0  0  0  0  0
    6.6603  -13.6516  -10.0101 S   0  0  2  0  0  0  0  0  0  0  0  0
    7.8288  -14.4746  -11.1132 C   0  0  0  0  0  0  0  0  0  0  0  0
    6.4428  -14.9496   -8.7734 C   0  0  0  0  0  0  0  0  0  0  0  0
    5.7195  -14.3846   -7.5580 C   0  0  1  0  0  0  0  0  0  0  0  0
    4.4941  -13.7528   -7.8963 O   0  0  0  0  0  0  0  0  0  0  0  0
    5.3180  -15.4413   -6.5643 C   0  0  1  0  0  0  0  0  0  0  0  0
    6.4201  -15.8187   -5.7904 O   0  0  0  0  0  0  0  0  0  0  0  0
    4.2655  -14.6953   -5.7744 C   0  0  1  0  0  0  0  0  0  0  0  0
    4.8776  -13.8815   -4.7946 O   0  0  0  0  0  0  0  0  0  0  0  0
    3.5888  -13.8018   -6.8079 C   0  0  2  0  0  0  0  0  0  0  0  0
    2.2351  -14.2478   -7.2379 N   0  0  0  0  0  0  0  0  0  0  0  0
    1.1519  -13.4266   -7.4255 C   0  0  0  0  0  0  0  0  0  0  0  0
    0.0929  -14.1711   -7.8151 N   0  0  0  0  0  0  0  0  0  0  0  0
    0.4751  -15.4564   -7.8908 C   0  0  0  0  0  0  0  0  0  0  0  0
   -0.2066  -16.6106   -8.2456 C   0  0  0  0  0  0  0  0  0  0  0  0
   -1.4842  -16.5528   -8.5975 N   0  0  0  0  0  0  0  0  0  0  0  0
    0.4625  -17.8184   -8.2339 N   0  0  0  0  0  0  0  0  0  0  0  0
    1.8030  -17.8924   -7.8770 C   0  0  0  0  0  0  0  0  0  0  0  0
    2.4664  -16.7323   -7.5325 N   0  0  0  0  0  0  0  0  0  0  0  0
    1.8183  -15.5310   -7.5305 C   0  0  0  0  0  0  0  0  0  0  0  0
  2  3  1  6  0  0  0
  2  6  1  0  0  0  0
  2  1  1  0  0  0  0
  4  3  2  0  0  0  0
  5  3  1  0  0  0  0
  6  7  2  0  0  0  0
  8  7  1  6  0  0  0
  8  9  1  0  0  0  0
  8 10  1  0  0  0  0
 11 10  1  6  0  0  0
 11 13  1  0  0  0  0
 12 11  1  0  0  0  0
 12 17  1  0  0  0  0
 13 14  1  1  0  0  0
 13 15  1  0  0  0  0
 15 16  1  1  0  0  0
 17 18  1  6  0  0  0
 17 15  1  0  0  0  0
 18 19  1  0  0  0  0
 20 19  2  0  0  0  0
 21 27  2  0  0  0  0
 21 20  1  0  0  0  0
 22 21  1  0  0  0  0
 23 22  1  0  0  0  0
 24 22  2  0  0  0  0
 24 25  1  0  0  0  0
 25 26  2  0  0  0  0
 26 27  1  0  0  0  0
 27 18  1  0  0  0  0
M  END
>  <CHROM.1>
-119.26369583,-128.94707386,71.50838884,-87.75928750,54.16076499,-102.57986384
3.52863313,-15.13314483,-8.96878520,0.81692708,-0.29826010,-1.67288672

>  <Name>
lig.pdb

>  <RI>
0

>  <Rbt.Current_Directory>
/home/itssahil/PROJECTS/Mol_Feturizer/New_Systems/rnas/4b5r

>  <Rbt.Executable>
rbdock ($Id: //depot/dev/client3/rdock/2013.1/src/exe/rbdock.cxx#4 $)

>  <Rbt.Library>
libRbt.so (2013.1, Build901 2013/11/27)

>  <Rbt.Parameter_File>
/export/apps/rDock/src/rDock_2013.1_src/data/scripts/dock_solv.prm

>  <Rbt.Receptor>
prm/pocket_docking_5.prm

>  <SCORE>
-20.8761

>  <SCORE.INTER>
-20.8887

>  <SCORE.INTER.CONST>
1

>  <SCORE.INTER.POLAR>
0

>  <SCORE.INTER.ROT>
6

>  <SCORE.INTER.SOLV>
15.0254

>  <SCORE.INTER.VDW>
-26.5343

>  <SCORE.INTER.norm>
-0.773656

>  <SCORE.INTRA>
0.0126164

>  <SCORE.INTRA.DIHEDRAL>
-0.561123

>  <SCORE.INTRA.DIHEDRAL.0>
10.2917

>  <SCORE.INTRA.POLAR>
0

>  <SCORE.INTRA.POLAR.0>
0

>  <SCORE.INTRA.REPUL>
0

>  <SCORE.INTRA.REPUL.0>
0

>  <SCORE.INTRA.SOLV>
-0.354867

>  <SCORE.INTRA.SOLV.lig_0>
-39.6315

>  <SCORE.INTRA.VDW>
0.470612

>  <SCORE.INTRA.VDW.0>
-4.02152

>  <SCORE.INTRA.norm>
0.000467275

>  <SCORE.RESTR>
0

>  <SCORE.RESTR.CAVITY>
0

>  <SCORE.RESTR.norm>
0

>  <SCORE.SYSTEM>
0

>  <SCORE.SYSTEM.CONST>
0

>  <SCORE.SYSTEM.DIHEDRAL>
0

>  <SCORE.SYSTEM.SOLV>
0

>  <SCORE.SYSTEM.norm>
0

>  <SCORE.heavy>
27

>  <SCORE.norm>
-0.773189

>  <RMSD>
0.677

$$$$
lig.pdb
 OpenBabel11021811493D
libRbt.so/2013.1/901 2013/11/27
 27 29  0  0  0  0  0  0  0  0999 V2000
    1.5966  -15.5848  -11.7095 N   0  0  0  0  0  0  0  0  0  0  0  0
    2.8129  -14.8972  -12.2406 C   0  0  2  0  0  0  0  0  0  0  0  0
    3.3509  -15.6837  -13.4323 C   0  0  0  0  0  0  0  0  0  0  0  0
    3.4854  -15.1246  -14.5144 O   0  0  0  0  0  0  0  0  0  0  0  0
    3.6590  -16.8804  -13.3619 O   0  0  0  0  0  0  0  0  0  0  0  0
    3.9023  -14.6557  -11.1763 C   0  0  0  0  0  0  0  0  0  0  0  0
    5.1884  -13.9270  -11.6468 C   0  0  0  0  0  0  0  0  0  0  0  0
    6.5344  -13.6122  -10.4250 S   0  0  2  0  0  0  0  0  0  0  0  0
    7.9752  -14.2490  -11.3071 C   0  0  0  0  0  0  0  0  0  0  0  0
    6.3176  -14.9272   -9.2062 C   0  0  0  0  0  0  0  0  0  0  0  0
    5.6533  -14.3645   -7.9567 C   0  0  1  0  0  0  0  0  0  0  0  0
    4.3862  -13.7836   -8.2259 O   0  0  0  0  0  0  0  0  0  0  0  0
    5.3553  -15.4150   -6.9208 C   0  0  1  0  0  0  0  0  0  0  0  0
    6.5179  -15.7375   -6.2134 O   0  0  0  0  0  0  0  0  0  0  0  0
    4.3288  -14.6916   -6.0776 C   0  0  1  0  0  0  0  0  0  0  0  0
    4.9719  -13.8372   -5.1538 O   0  0  0  0  0  0  0  0  0  0  0  0
    3.5548  -13.8433   -7.0806 C   0  0  2  0  0  0  0  0  0  0  0  0
    2.1938  -14.3458   -7.4143 N   0  0  0  0  0  0  0  0  0  0  0  0
    1.0675  -13.5701   -7.5269 C   0  0  0  0  0  0  0  0  0  0  0  0
    0.0151  -14.3585   -7.8406 N   0  0  0  0  0  0  0  0  0  0  0  0
    0.4433  -15.6276   -7.9410 C   0  0  0  0  0  0  0  0  0  0  0  0
   -0.2138  -16.8099   -8.2457 C   0  0  0  0  0  0  0  0  0  0  0  0
   -1.5142  -16.8056   -8.5075 N   0  0  0  0  0  0  0  0  0  0  0  0
    0.5032  -17.9896   -8.2792 N   0  0  0  0  0  0  0  0  0  0  0  0
    1.8672  -18.0075   -8.0166 C   0  0  0  0  0  0  0  0  0  0  0  0
    2.5051  -16.8200   -7.7210 N   0  0  0  0  0  0  0  0  0  0  0  0
    1.8103  -15.6460   -7.6754 C   0  0  0  0  0  0  0  0  0  0  0  0
  2  3  1  6  0  0  0
  2  6  1  0  0  0  0
  2  1  1  0  0  0  0
  4  3  2  0  0  0  0
  5  3  1  0  0  0  0
  6  7  2  0  0  0  0
  8  7  1  6  0  0  0
  8  9  1  0  0  0  0
  8 10  1  0  0  0  0
 11 10  1  6  0  0  0
 11 13  1  0  0  0  0
 12 11  1  0  0  0  0
 12 17  1  0  0  0  0
 13 14  1  1  0  0  0
 13 15  1  0  0  0  0
 15 16  1  1  0  0  0
 17 18  1  6  0  0  0
 17 15  1  0  0  0  0
 18 19  1  0  0  0  0
 20 19  2  0  0  0  0
 21 27  2  0  0  0  0
 21 20  1  0  0  0  0
 22 21  1  0  0  0  0
 23 22  1  0  0  0  0
 24 22  2  0  0  0  0
 24 25  1  0  0  0  0
 25 26  2  0  0  0  0
 26 27  1  0  0  0  0
 27 18  1  0  0  0  0
M  END
>  <CHROM.1>
123.32040094,-179.12757561,129.72193372,-103.19875258,58.92719591,-103.57102469
3.49522080,-15.14283878,-9.18502077,0.65109222,-0.33914880,-1.64313981

>  <Name>
lig.pdb

>  <RI>
0

>  <Rbt.Current_Directory>
/home/itssahil/PROJECTS/Mol_Feturizer/New_Systems/rnas/4b5r

>  <Rbt.Executable>
rbdock ($Id: //depot/dev/client3/rdock/2013.1/src/exe/rbdock.cxx#4 $)

>  <Rbt.Library>
libRbt.so (2013.1, Build901 2013/11/27)

>  <Rbt.Parameter_File>
/export/apps/rDock/src/rDock_2013.1_src/data/scripts/dock_solv.prm

>  <Rbt.Receptor>
prm/pocket_docking_2.prm

>  <SCORE>
-19.0557

>  <SCORE.INTER>
-19.2832

>  <SCORE.INTER.CONST>
1

>  <SCORE.INTER.POLAR>
0

>  <SCORE.INTER.ROT>
6

>  <SCORE.INTER.SOLV>
17.4747

>  <SCORE.INTER.VDW>
-26.2804

>  <SCORE.INTER.norm>
-0.714192

>  <SCORE.INTRA>
0.227469

>  <SCORE.INTRA.DIHEDRAL>
2.04279

>  <SCORE.INTRA.DIHEDRAL.0>
10.2917

>  <SCORE.INTRA.POLAR>
0

>  <SCORE.INTRA.POLAR.0>
0

>  <SCORE.INTRA.REPUL>
0

>  <SCORE.INTRA.REPUL.0>
0

>  <SCORE.INTRA.SOLV>
-1.68399

>  <SCORE.INTRA.SOLV.lig_0>
-39.6315

>  <SCORE.INTRA.VDW>
0.04807

>  <SCORE.INTRA.VDW.0>
-4.02152

>  <SCORE.INTRA.norm>
0.00842476

>  <SCORE.RESTR>
0

>  <SCORE.RESTR.CAVITY>
0

>  <SCORE.RESTR.norm>
0

>  <SCORE.SYSTEM>
0

>  <SCORE.SYSTEM.CONST>
0

>  <SCORE.SYSTEM.DIHEDRAL>
0

>  <SCORE.SYSTEM.SOLV>
0

>  <SCORE.SYSTEM.norm>
0

>  <SCORE.heavy>
27

>  <SCORE.norm>
-0.705767

>  <RMSD>
0.740

$$$$
lig.pdb
 OpenBabel11021811493D
libRbt.so/2013.1/901 2013/11/27
 27 29  0  0  0  0  0  0  0  0999 V2000
    1.3487  -15.8057  -11.0906 N   0  0  0  0  0  0  0  0  0  0  0  0
    2.3997  -15.0320  -11.8192 C   0  0  2  0  0  0  0  0  0  0  0  0
    2.9532  -15.8882  -12.9545 C   0  0  0  0  0  0  0  0  0  0  0  0
    2.9886  -15.4340  -14.0921 O   0  0  0  0  0  0  0  0  0  0  0  0
    3.3708  -17.0405  -12.7829 O   0  0  0  0  0  0  0  0  0  0  0  0
    3.5219  -14.4993  -10.9056 C   0  0  0  0  0  0  0  0  0  0  0  0
    4.9720  -14.6062  -11.4464 C   0  0  0  0  0  0  0  0  0  0  0  0
    6.3627  -13.9932  -10.4006 S   0  0  2  0  0  0  0  0  0  0  0  0
    7.7930  -14.6484  -11.2863 C   0  0  0  0  0  0  0  0  0  0  0  0
    6.3481  -15.1073   -8.9792 C   0  0  0  0  0  0  0  0  0  0  0  0
    5.6957  -14.4141   -7.7904 C   0  0  1  0  0  0  0  0  0  0  0  0
    4.4562  -13.8077   -8.1241 O   0  0  0  0  0  0  0  0  0  0  0  0
    5.3449  -15.3599   -6.6733 C   0  0  1  0  0  0  0  0  0  0  0  0
    6.4864  -15.6676   -5.9262 O   0  0  0  0  0  0  0  0  0  0  0  0
    4.3411  -14.5267   -5.9077 C   0  0  1  0  0  0  0  0  0  0  0  0
    5.0101  -13.6235   -5.0512 O   0  0  0  0  0  0  0  0  0  0  0  0
    3.6123  -13.7363   -6.9887 C   0  0  2  0  0  0  0  0  0  0  0  0
    2.2349  -14.2101   -7.2963 N   0  0  0  0  0  0  0  0  0  0  0  0
    1.0892  -13.4706   -7.1436 C   0  0  0  0  0  0  0  0  0  0  0  0
    0.0261  -14.2166   -7.5188 N   0  0  0  0  0  0  0  0  0  0  0  0
    0.4656  -15.4211   -7.9191 C   0  0  0  0  0  0  0  0  0  0  0  0
   -0.1961  -16.5394   -8.4030 C   0  0  0  0  0  0  0  0  0  0  0  0
   -1.5154  -16.5301   -8.5405 N   0  0  0  0  0  0  0  0  0  0  0  0
    0.5357  -17.6593   -8.7453 N   0  0  0  0  0  0  0  0  0  0  0  0
    1.9186  -17.6796   -8.6156 C   0  0  0  0  0  0  0  0  0  0  0  0
    2.5603  -16.5551   -8.1377 N   0  0  0  0  0  0  0  0  0  0  0  0
    1.8518  -15.4424   -7.7867 C   0  0  0  0  0  0  0  0  0  0  0  0
  2  3  1  6  0  0  0
  2  6  1  0  0  0  0
  2  1  1  0  0  0  0
  4  3  2  0  0  0  0
  5  3  1  0  0  0  0
  6  7  2  0  0  0  0
  8  7  1  6  0  0  0
  8  9  1  0  0  0  0
  8 10  1  0  0  0  0
 11 10  1  6  0  0  0
 11 13  1  0  0  0  0
 12 11  1  0  0  0  0
 12 17  1  0  0  0  0
 13 14  1  1  0  0  0
 13 15  1  0  0  0  0
 15 16  1  1  0  0  0
 17 18  1  6  0  0  0
 17 15  1  0  0  0  0
 18 19  1  0  0  0  0
 20 19  2  0  0  0  0
 21 27  2  0  0  0  0
 21 20  1  0  0  0  0
 22 21  1  0  0  0  0
 23 22  1  0  0  0  0
 24 22  2  0  0  0  0
 24 25  1  0  0  0  0
 25 26  2  0  0  0  0
 26 27  1  0  0  0  0
 27 18  1  0  0  0  0
M  END
>  <CHROM.1>
127.75413515,138.31819168,168.52319103,-102.08458292,48.90436815,-121.85336190
3.40466200,-15.15509438,-9.05552095,-3.13719355,0.26043790,1.41068224

>  <Name>
lig.pdb

>  <RI>
0

>  <Rbt.Current_Directory>
/home/itssahil/PROJECTS/Mol_Feturizer/New_Systems/rnas/4b5r

>  <Rbt.Executable>
rbdock ($Id: //depot/dev/client3/rdock/2013.1/src/exe/rbdock.cxx#4 $)

>  <Rbt.Library>
libRbt.so (2013.1, Build901 2013/11/27)

>  <Rbt.Parameter_File>
/export/apps/rDock/src/rDock_2013.1_src/data/scripts/dock_solv.prm

>  <Rbt.Receptor>
prm/pocket_docking_2.prm

>  <SCORE>
-17.297

>  <SCORE.INTER>
-18.2415

>  <SCORE.INTER.CONST>
1

>  <SCORE.INTER.POLAR>
0

>  <SCORE.INTER.ROT>
6

>  <SCORE.INTER.SOLV>
15.2614

>  <SCORE.INTER.VDW>
-24.8481

>  <SCORE.INTER.norm>
-0.675612

>  <SCORE.INTRA>
0.942958

>  <SCORE.INTRA.DIHEDRAL>
0.553327

>  <SCORE.INTRA.DIHEDRAL.0>
10.2917

>  <SCORE.INTRA.POLAR>
0

>  <SCORE.INTRA.POLAR.0>
0

>  <SCORE.INTRA.REPUL>
0

>  <SCORE.INTRA.REPUL.0>
0

>  <SCORE.INTRA.SOLV>
2.86233

>  <SCORE.INTRA.SOLV.lig_0>
-39.6315

>  <SCORE.INTRA.VDW>
-0.76487

>  <SCORE.INTRA.VDW.0>
-4.02152

>  <SCORE.INTRA.norm>
0.0349244

>  <SCORE.RESTR>
0.00156793

>  <SCORE.RESTR.CAVITY>
0.00156793

>  <SCORE.RESTR.norm>
5.80717e-05

>  <SCORE.SYSTEM>
0

>  <SCORE.SYSTEM.CONST>
0

>  <SCORE.SYSTEM.DIHEDRAL>
0

>  <SCORE.SYSTEM.SOLV>
0

>  <SCORE.SYSTEM.norm>
0

>  <SCORE.heavy>
27

>  <SCORE.norm>
-0.640629

>  <RMSD>
0.754

$$$$
lig.pdb
 OpenBabel11021811493D
libRbt.so/2013.1/901 2013/11/27
 27 29  0  0  0  0  0  0  0  0999 V2000
    1.6432  -15.5924  -11.7146 N   0  0  0  0  0  0  0  0  0  0  0  0
    2.7664  -14.7331  -12.1984 C   0  0  2  0  0  0  0  0  0  0  0  0
    3.4303  -15.4064  -13.3960 C   0  0  0  0  0  0  0  0  0  0  0  0
    3.9029  -14.7167  -14.2919 O   0  0  0  0  0  0  0  0  0  0  0  0
    3.5126  -16.6357  -13.5134 O   0  0  0  0  0  0  0  0  0  0  0  0
    3.7910  -14.3776  -11.1021 C   0  0  0  0  0  0  0  0  0  0  0  0
    5.2303  -14.0425  -11.5741 C   0  0  0  0  0  0  0  0  0  0  0  0
    6.5070  -13.6149  -10.3128 S   0  0  2  0  0  0  0  0  0  0  0  0
    8.0197  -14.1565  -11.1362 C   0  0  0  0  0  0  0  0  0  0  0  0
    6.3438  -14.9264   -9.0819 C   0  0  0  0  0  0  0  0  0  0  0  0
    5.6688  -14.3764   -7.8324 C   0  0  1  0  0  0  0  0  0  0  0  0
    4.4248  -13.7527   -8.1129 O   0  0  0  0  0  0  0  0  0  0  0  0
    5.3191  -15.4438   -6.8305 C   0  0  1  0  0  0  0  0  0  0  0  0
    6.4566  -15.8173   -6.1075 O   0  0  0  0  0  0  0  0  0  0  0  0
    4.2954  -14.7126   -5.9904 C   0  0  1  0  0  0  0  0  0  0  0  0
    4.9423  -13.9006   -5.0317 O   0  0  0  0  0  0  0  0  0  0  0  0
    3.5675  -13.8174   -6.9870 C   0  0  2  0  0  0  0  0  0  0  0  0
    2.2004  -14.2719   -7.3619 N   0  0  0  0  0  0  0  0  0  0  0  0
    1.1067  -13.4568   -7.5114 C   0  0  0  0  0  0  0  0  0  0  0  0
    0.0370  -14.2081   -7.8559 N   0  0  0  0  0  0  0  0  0  0  0  0
    0.4222  -15.4920   -7.9401 C   0  0  0  0  0  0  0  0  0  0  0  0
   -0.2671  -16.6511   -8.2624 C   0  0  0  0  0  0  0  0  0  0  0  0
   -1.5577  -16.6010   -8.5647 N   0  0  0  0  0  0  0  0  0  0  0  0
    0.4078  -17.8558   -8.2708 N   0  0  0  0  0  0  0  0  0  0  0  0
    1.7614  -17.9216   -7.9658 C   0  0  0  0  0  0  0  0  0  0  0  0
    2.4321  -16.7567   -7.6531 N   0  0  0  0  0  0  0  0  0  0  0  0
    1.7787  -15.5585   -7.6318 C   0  0  0  0  0  0  0  0  0  0  0  0
  2  3  1  6  0  0  0
  2  6  1  0  0  0  0
  2  1  1  0  0  0  0
  4  3  2  0  0  0  0
  5  3  1  0  0  0  0
  6  7  2  0  0  0  0
  8  7  1  6  0  0  0
  8  9  1  0  0  0  0
  8 10  1  0  0  0  0
 11 10  1  6  0  0  0
 11 13  1  0  0  0  0
 12 11  1  0  0  0  0
 12 17  1  0  0  0  0
 13 14  1  1  0  0  0
 13 15  1  0  0  0  0
 15 16  1  1  0  0  0
 17 18  1  6  0  0  0
 17 15  1  0  0  0  0
 18 19  1  0  0  0  0
 20 19  2  0  0  0  0
 21 27  2  0  0  0  0
 21 20  1  0  0  0  0
 22 21  1  0  0  0  0
 23 22  1  0  0  0  0
 24 22  2  0  0  0  0
 24 25  1  0  0  0  0
 25 26  2  0  0  0  0
 26 27  1  0  0  0  0
 27 18  1  0  0  0  0
M  END
>  <CHROM.1>
146.89973326,154.65516869,151.71883186,-106.41893748,54.52942252,-101.79770503
3.49140356,-15.05851306,-9.12235883,0.67376563,-0.31496328,-1.61181618

>  <Name>
lig.pdb

>  <RI>
0

>  <Rbt.Current_Directory>
/home/itssahil/PROJECTS/Mol_Feturizer/New_Systems/rnas/4b5r

>  <Rbt.Executable>
rbdock ($Id: //depot/dev/client3/rdock/2013.1/src/exe/rbdock.cxx#4 $)

>  <Rbt.Library>
libRbt.so (2013.1, Build901 2013/11/27)

>  <Rbt.Parameter_File>
/export/apps/rDock/src/rDock_2013.1_src/data/scripts/dock_solv.prm

>  <Rbt.Receptor>
prm/blind_docking_100.prm

>  <SCORE>
-19.5094

>  <SCORE.INTER>
-19.7085

>  <SCORE.INTER.CONST>
1

>  <SCORE.INTER.POLAR>
0

>  <SCORE.INTER.ROT>
6

>  <SCORE.INTER.SOLV>
17.338

>  <SCORE.INTER.VDW>
-26.5184

>  <SCORE.INTER.norm>
-0.729946

>  <SCORE.INTRA>
0.199092

>  <SCORE.INTRA.DIHEDRAL>
1.50123

>  <SCORE.INTRA.DIHEDRAL.0>
10.2917

>  <SCORE.INTRA.POLAR>
0

>  <SCORE.INTRA.POLAR.0>
0

>  <SCORE.INTRA.REPUL>
0

>  <SCORE.INTRA.REPUL.0>
0

>  <SCORE.INTRA.SOLV>
-1.59692

>  <SCORE.INTRA.SOLV.lig_0>
-39.6315

>  <SCORE.INTRA.VDW>
0.246935

>  <SCORE.INTRA.VDW.0>
-4.02152

>  <SCORE.INTRA.norm>
0.0073738

>  <SCORE.RESTR>
0

>  <SCORE.RESTR.CAVITY>
0

>  <SCORE.RESTR.norm>
0

>  <SCORE.SYSTEM>
0

>  <SCORE.SYSTEM.CONST>
0

>  <SCORE.SYSTEM.DIHEDRAL>
0

>  <SCORE.SYSTEM.SOLV>
0

>  <SCORE.SYSTEM.norm>
0

>  <SCORE.heavy>
27

>  <SCORE.norm>
-0.722572

>  <RMSD>
0.784

$$$$
lig.pdb
 OpenBabel11021811493D
libRbt.so/2013.1/901 2013/11/27
 27 29  0  0  0  0  0  0  0  0999 V2000
    1.5091  -15.1887  -11.1295 N   0  0  0  0  0  0  0  0  0  0  0  0
    2.7308  -14.5831  -11.7417 C   0  0  2  0  0  0  0  0  0  0  0  0
    3.0323  -15.2908  -13.0595 C   0  0  0  0  0  0  0  0  0  0  0  0
    2.3608  -16.2603  -13.3923 O   0  0  0  0  0  0  0  0  0  0  0  0
    3.9401  -14.9324  -13.8205 O   0  0  0  0  0  0  0  0  0  0  0  0
    3.9549  -14.5757  -10.8039 C   0  0  0  0  0  0  0  0  0  0  0  0
    5.2229  -13.8440  -11.3169 C   0  0  0  0  0  0  0  0  0  0  0  0
    6.7251  -13.8031  -10.2468 S   0  0  2  0  0  0  0  0  0  0  0  0
    7.9150  -14.7013  -11.2651 C   0  0  0  0  0  0  0  0  0  0  0  0
    6.3877  -15.0588   -8.9933 C   0  0  0  0  0  0  0  0  0  0  0  0
    5.6907  -14.4187   -7.8001 C   0  0  1  0  0  0  0  0  0  0  0  0
    4.4428  -13.8359   -8.1443 O   0  0  0  0  0  0  0  0  0  0  0  0
    5.3415  -15.4061   -6.7192 C   0  0  1  0  0  0  0  0  0  0  0  0
    6.4743  -15.7052   -5.9555 O   0  0  0  0  0  0  0  0  0  0  0  0
    4.2987  -14.6229   -5.9528 C   0  0  1  0  0  0  0  0  0  0  0  0
    4.9238  -13.7279   -5.0555 O   0  0  0  0  0  0  0  0  0  0  0  0
    3.5725  -13.8206   -7.0267 C   0  0  2  0  0  0  0  0  0  0  0  0
    2.2157  -14.3217   -7.3792 N   0  0  0  0  0  0  0  0  0  0  0  0
    1.0896  -13.5463   -7.4968 C   0  0  0  0  0  0  0  0  0  0  0  0
    0.0416  -14.3331   -7.8285 N   0  0  0  0  0  0  0  0  0  0  0  0
    0.4724  -15.6008   -7.9356 C   0  0  0  0  0  0  0  0  0  0  0  0
   -0.1800  -16.7812   -8.2576 C   0  0  0  0  0  0  0  0  0  0  0  0
   -1.4776  -16.7760   -8.5330 N   0  0  0  0  0  0  0  0  0  0  0  0
    0.5388  -17.9597   -8.2939 N   0  0  0  0  0  0  0  0  0  0  0  0
    1.9000  -17.9783   -8.0172 C   0  0  0  0  0  0  0  0  0  0  0  0
    2.5333  -16.7927   -7.7044 N   0  0  0  0  0  0  0  0  0  0  0  0
    1.8365  -15.6200   -7.6557 C   0  0  0  0  0  0  0  0  0  0  0  0
  2  3  1  6  0  0  0
  2  6  1  0  0  0  0
  2  1  1  0  0  0  0
  4  3  2  0  0  0  0
  5  3  1  0  0  0  0
  6  7  2  0  0  0  0
  8  7  1  6  0  0  0
  8  9  1  0  0  0  0
  8 10  1  0  0  0  0
 11 10  1  6  0  0  0
 11 13  1  0  0  0  0
 12 11  1  0  0  0  0
 12 17  1  0  0  0  0
 13 14  1  1  0  0  0
 13 15  1  0  0  0  0
 15 16  1  1  0  0  0
 17 18  1  6  0  0  0
 17 15  1  0  0  0  0
 18 19  1  0  0  0  0
 20 19  2  0  0  0  0
 21 27  2  0  0  0  0
 21 20  1  0  0  0  0
 22 21  1  0  0  0  0
 23 22  1  0  0  0  0
 24 22  2  0  0  0  0
 24 25  1  0  0  0  0
 25 26  2  0  0  0  0
 26 27  1  0  0  0  0
 27 18  1  0  0  0  0
M  END
>  <CHROM.1>
-5.16102060,-174.40285978,117.38905403,-90.74356456,61.15817196,-107.57945391
3.47257606,-15.09079932,-9.02350004,2.79102844,0.30245714,1.54480450

>  <Name>
lig.pdb

>  <RI>
0

>  <Rbt.Current_Directory>
/home/itssahil/PROJECTS/Mol_Feturizer/New_Systems/rnas/4b5r

>  <Rbt.Executable>
rbdock ($Id: //depot/dev/client3/rdock/2013.1/src/exe/rbdock.cxx#4 $)

>  <Rbt.Library>
libRbt.so (2013.1, Build901 2013/11/27)

>  <Rbt.Parameter_File>
/export/apps/rDock/src/rDock_2013.1_src/data/scripts/dock_solv.prm

>  <Rbt.Receptor>
prm/pocket_docking_2.prm

>  <SCORE>
-19.1189

>  <SCORE.INTER>
-20.1202

>  <SCORE.INTER.CONST>
1

>  <SCORE.INTER.POLAR>
0

>  <SCORE.INTER.ROT>
6

>  <SCORE.INTER.SOLV>
16.8849

>  <SCORE.INTER.VDW>
-26.6418

>  <SCORE.INTER.norm>
-0.745194

>  <SCORE.INTRA>
0.957875

>  <SCORE.INTRA.DIHEDRAL>
0.794118

>  <SCORE.INTRA.DIHEDRAL.0>
10.2917

>  <SCORE.INTRA.POLAR>
0

>  <SCORE.INTRA.POLAR.0>
0

>  <SCORE.INTRA.REPUL>
0

>  <SCORE.INTRA.REPUL.0>
0

>  <SCORE.INTRA.SOLV>
1.00474

>  <SCORE.INTRA.SOLV.lig_0>
-39.6315

>  <SCORE.INTRA.VDW>
0.058445

>  <SCORE.INTRA.VDW.0>
-4.02152

>  <SCORE.INTRA.norm>
0.0354768

>  <SCORE.RESTR>
0.0434306

>  <SCORE.RESTR.CAVITY>
0.0434306

>  <SCORE.RESTR.norm>
0.00160854

>  <SCORE.SYSTEM>
0

>  <SCORE.SYSTEM.CONST>
0

>  <SCORE.SYSTEM.DIHEDRAL>
0

>  <SCORE.SYSTEM.SOLV>
0

>  <SCORE.SYSTEM.norm>
0

>  <SCORE.heavy>
27

>  <SCORE.norm>
-0.708109

>  <RMSD>
0.787

$$$$
lig.pdb
 OpenBabel11021811493D
libRbt.so/2013.1/901 2013/11/27
 27 29  0  0  0  0  0  0  0  0999 V2000
    2.1288  -14.4963  -11.5052 N   0  0  0  0  0  0  0  0  0  0  0  0
    3.1732  -14.4340  -12.5726 C   0  0  2  0  0  0  0  0  0  0  0  0
    3.1221  -15.7171  -13.3968 C   0  0  0  0  0  0  0  0  0  0  0  0
    3.0083  -15.6488  -14.6151 O   0  0  0  0  0  0  0  0  0  0  0  0
    3.1855  -16.8436  -12.8882 O   0  0  0  0  0  0  0  0  0  0  0  0
    4.5917  -14.1556  -12.0359 C   0  0  0  0  0  0  0  0  0  0  0  0
    4.7587  -14.1124  -10.4942 C   0  0  0  0  0  0  0  0  0  0  0  0
    6.4288  -13.7774   -9.7857 S   0  0  2  0  0  0  0  0  0  0  0  0
    7.4959  -14.6358  -10.9620 C   0  0  0  0  0  0  0  0  0  0  0  0
    6.5344  -14.9183   -8.3897 C   0  0  0  0  0  0  0  0  0  0  0  0
    5.7673  -14.3500   -7.2031 C   0  0  1  0  0  0  0  0  0  0  0  0
    4.5554  -13.7185   -7.5877 O   0  0  0  0  0  0  0  0  0  0  0  0
    5.3289  -15.4042   -6.2223 C   0  0  1  0  0  0  0  0  0  0  0  0
    6.4016  -15.7802   -5.4075 O   0  0  0  0  0  0  0  0  0  0  0  0
    4.2485  -14.6557   -5.4734 C   0  0  1  0  0  0  0  0  0  0  0  0
    4.8246  -13.8398   -4.4738 O   0  0  0  0  0  0  0  0  0  0  0  0
    3.6107  -13.7644   -6.5333 C   0  0  2  0  0  0  0  0  0  0  0  0
    2.2735  -14.2109   -7.0117 N   0  0  0  0  0  0  0  0  0  0  0  0
    1.1737  -13.4036   -7.1592 C   0  0  0  0  0  0  0  0  0  0  0  0
    0.1376  -14.1438   -7.6132 N   0  0  0  0  0  0  0  0  0  0  0  0
    0.5509  -15.4121   -7.7697 C   0  0  0  0  0  0  0  0  0  0  0  0
   -0.0988  -16.5548   -8.2110 C   0  0  0  0  0  0  0  0  0  0  0  0
   -1.3728  -16.5022   -8.5765 N   0  0  0  0  0  0  0  0  0  0  0  0
    0.5984  -17.7452   -8.2710 N   0  0  0  0  0  0  0  0  0  0  0  0
    1.9355  -17.8127   -7.9006 C   0  0  0  0  0  0  0  0  0  0  0  0
    2.5670  -16.6639   -7.4694 N   0  0  0  0  0  0  0  0  0  0  0  0
    1.8908  -15.4804   -7.3959 C   0  0  0  0  0  0  0  0  0  0  0  0
  2  3  1  1  0  0  0
  2  6  1  0  0  0  0
  2  1  1  0  0  0  0
  4  3  2  0  0  0  0
  5  3  1  0  0  0  0
  6  7  2  0  0  0  0
  8  7  1  6  0  0  0
  8  9  1  0  0  0  0
  8 10  1  0  0  0  0
 11 10  1  6  0  0  0
 11 13  1  0  0  0  0
 12 11  1  0  0  0  0
 12 17  1  0  0  0  0
 13 14  1  1  0  0  0
 13 15  1  0  0  0  0
 15 16  1  1  0  0  0
 17 18  1  6  0  0  0
 17 15  1  0  0  0  0
 18 19  1  0  0  0  0
 20 19  2  0  0  0  0
 21 27  2  0  0  0  0
 21 20  1  0  0  0  0
 22 21  1  0  0  0  0
 23 22  1  0  0  0  0
 24 22  2  0  0  0  0
 24 25  1  0  0  0  0
 25 26  2  0  0  0  0
 26 27  1  0  0  0  0
 27 18  1  0  0  0  0
M  END
>  <CHROM.1>
126.24418036,5.44588767,-36.05536283,-79.40521612,39.54176250,-107.01057749
3.50100529,-15.05207382,-8.83307853,1.62183418,-0.28958504,-1.63391247

>  <Name>
lig.pdb

>  <RI>
0

>  <Rbt.Current_Directory>
/home/itssahil/PROJECTS/Mol_Feturizer/New_Systems/rnas/4b5r

>  <Rbt.Executable>
rbdock ($Id: //depot/dev/client3/rdock/2013.1/src/exe/rbdock.cxx#4 $)

>  <Rbt.Library>
libRbt.so (2013.1, Build901 2013/11/27)

>  <Rbt.Parameter_File>
/export/apps/rDock/src/rDock_2013.1_src/data/scripts/dock_solv.prm

>  <Rbt.Receptor>
prm/pocket_docking_3.prm

>  <SCORE>
-20.6608

>  <SCORE.INTER>
-20.2551

>  <SCORE.INTER.CONST>
1

>  <SCORE.INTER.POLAR>
0

>  <SCORE.INTER.ROT>
6

>  <SCORE.INTER.SOLV>
19.1214

>  <SCORE.INTER.VDW>
-27.4772

>  <SCORE.INTER.norm>
-0.750188

>  <SCORE.INTRA>
-0.405702

>  <SCORE.INTRA.DIHEDRAL>
-1.69228

>  <SCORE.INTRA.DIHEDRAL.0>
10.2917

>  <SCORE.INTRA.POLAR>
0

>  <SCORE.INTRA.POLAR.0>
0

>  <SCORE.INTRA.REPUL>
0

>  <SCORE.INTRA.REPUL.0>
0

>  <SCORE.INTRA.SOLV>
-1.78107

>  <SCORE.INTRA.SOLV.lig_0>
-39.6315

>  <SCORE.INTRA.VDW>
1.33097

>  <SCORE.INTRA.VDW.0>
-4.02152

>  <SCORE.INTRA.norm>
-0.015026

>  <SCORE.RESTR>
0

>  <SCORE.RESTR.CAVITY>
0

>  <SCORE.RESTR.norm>
0

>  <SCORE.SYSTEM>
0

>  <SCORE.SYSTEM.CONST>
0

>  <SCORE.SYSTEM.DIHEDRAL>
0

>  <SCORE.SYSTEM.SOLV>
0

>  <SCORE.SYSTEM.norm>
0

>  <SCORE.heavy>
27

>  <SCORE.norm>
-0.765214

>  <RMSD>
0.827

$$$$
lig.pdb
 OpenBabel11021811493D
libRbt.so/2013.1/901 2013/11/27
 27 29  0  0  0  0  0  0  0  0999 V2000
    1.6403  -15.6697  -11.4684 N   0  0  0  0  0  0  0  0  0  0  0  0
    2.6099  -14.6859  -12.0396 C   0  0  2  0  0  0  0  0  0  0  0  0
    3.2747  -15.2965  -13.2697 C   0  0  0  0  0  0  0  0  0  0  0  0
    3.2502  -16.5112  -13.4297 O   0  0  0  0  0  0  0  0  0  0  0  0
    3.8525  -14.6159  -14.1269 O   0  0  0  0  0  0  0  0  0  0  0  0
    3.6499  -14.1782  -11.0205 C   0  0  0  0  0  0  0  0  0  0  0  0
    5.1416  -14.2880  -11.4320 C   0  0  0  0  0  0  0  0  0  0  0  0
    6.4378  -13.7045  -10.2560 S   0  0  2  0  0  0  0  0  0  0  0  0
    7.9478  -14.2057  -11.1095 C   0  0  0  0  0  0  0  0  0  0  0  0
    6.4061  -14.9420   -8.9409 C   0  0  0  0  0  0  0  0  0  0  0  0
    5.7175  -14.3660   -7.7107 C   0  0  1  0  0  0  0  0  0  0  0  0
    4.4698  -13.7613   -8.0157 O   0  0  0  0  0  0  0  0  0  0  0  0
    5.3705  -15.4101   -6.6837 C   0  0  1  0  0  0  0  0  0  0  0  0
    6.5062  -15.7542   -5.9436 O   0  0  0  0  0  0  0  0  0  0  0  0
    4.3344  -14.6668   -5.8699 C   0  0  1  0  0  0  0  0  0  0  0  0
    4.9672  -13.8243   -4.9283 O   0  0  0  0  0  0  0  0  0  0  0  0
    3.6054  -13.8046   -6.8943 C   0  0  2  0  0  0  0  0  0  0  0  0
    2.2450  -14.2813   -7.2664 N   0  0  0  0  0  0  0  0  0  0  0  0
    1.1285  -13.4905   -7.3707 C   0  0  0  0  0  0  0  0  0  0  0  0
    0.0736  -14.2569   -7.7275 N   0  0  0  0  0  0  0  0  0  0  0  0
    0.4907  -15.5263   -7.8638 C   0  0  0  0  0  0  0  0  0  0  0  0
   -0.1731  -16.6909   -8.2186 C   0  0  0  0  0  0  0  0  0  0  0  0
   -1.4689  -16.6641   -8.5007 N   0  0  0  0  0  0  0  0  0  0  0  0
    0.5326  -17.8761   -8.2804 N   0  0  0  0  0  0  0  0  0  0  0  0
    1.8919  -17.9171   -7.9969 C   0  0  0  0  0  0  0  0  0  0  0  0
    2.5367  -16.7470   -7.6513 N   0  0  0  0  0  0  0  0  0  0  0  0
    1.8529  -15.5680   -7.5772 C   0  0  0  0  0  0  0  0  0  0  0  0
  2  3  1  6  0  0  0
  2  6  1  0  0  0  0
  2  1  1  0  0  0  0
  4  3  2  0  0  0  0
  5  3  1  0  0  0  0
  6  7  2  0  0  0  0
  8  7  1  6  0  0  0
  8  9  1  0  0  0  0
  8 10  1  0  0  0  0
 11 10  1  6  0  0  0
 11 13  1  0  0  0  0
 12 11  1  0  0  0  0
 12 17  1  0  0  0  0
 13 14  1  1  0  0  0
 13 15  1  0  0  0  0
 15 16  1  1  0  0  0
 17 18  1  6  0  0  0
 17 15  1  0  0  0  0
 18 19  1  0  0  0  0
 20 19  2  0  0  0  0
 21 27  2  0  0  0  0
 21 20  1  0  0  0  0
 22 21  1  0  0  0  0
 23 22  1  0  0  0  0
 24 22  2  0  0  0  0
 24 25  1  0  0  0  0
 25 26  2  0  0  0  0
 26 27  1  0  0  0  0
 27 18  1  0  0  0  0
M  END
>  <CHROM.1>
-19.05187866,127.48953108,174.17479270,-105.04974070,49.65421448,-105.69828797
3.49207715,-15.05793580,-9.02585015,0.69190601,-0.31534675,-1.60162501

>  <Name>
lig.pdb

>  <RI>
0

>  <Rbt.Current_Directory>
/home/itssahil/PROJECTS/Mol_Feturizer/New_Systems/rnas/4b5r

>  <Rbt.Executable>
rbdock ($Id: //depot/dev/client3/rdock/2013.1/src/exe/rbdock.cxx#4 $)

>  <Rbt.Library>
libRbt.so (2013.1, Build901 2013/11/27)

>  <Rbt.Parameter_File>
/export/apps/rDock/src/rDock_2013.1_src/data/scripts/dock_solv.prm

>  <Rbt.Receptor>
prm/pocket_docking_3.prm

>  <SCORE>
-19.6442

>  <SCORE.INTER>
-20.156

>  <SCORE.INTER.CONST>
1

>  <SCORE.INTER.POLAR>
0

>  <SCORE.INTER.ROT>
6

>  <SCORE.INTER.SOLV>
16.2491

>  <SCORE.INTER.VDW>
-26.4537

>  <SCORE.INTER.norm>
-0.74652

>  <SCORE.INTRA>
0.51184

>  <SCORE.INTRA.DIHEDRAL>
0.516955

>  <SCORE.INTRA.DIHEDRAL.0>
10.2917

>  <SCORE.INTRA.POLAR>
0

>  <SCORE.INTRA.POLAR.0>
0

>  <SCORE.INTRA.REPUL>
0

>  <SCORE.INTRA.REPUL.0>
0

>  <SCORE.INTRA.SOLV>
-0.457912

>  <SCORE.INTRA.SOLV.lig_0>
-39.6315

>  <SCORE.INTRA.VDW>
0.482318

>  <SCORE.INTRA.VDW.0>
-4.02152

>  <SCORE.INTRA.norm>
0.018957

>  <SCORE.RESTR>
0

>  <SCORE.RESTR.CAVITY>
0

>  <SCORE.RESTR.norm>
0

>  <SCORE.SYSTEM>
0

>  <SCORE.SYSTEM.CONST>
0

>  <SCORE.SYSTEM.DIHEDRAL>
0

>  <SCORE.SYSTEM.SOLV>
0

>  <SCORE.SYSTEM.norm>
0

>  <SCORE.heavy>
27

>  <SCORE.norm>
-0.727563

>  <RMSD>
0.852

$$$$
lig.pdb
 OpenBabel11021811493D
libRbt.so/2013.1/901 2013/11/27
 27 29  0  0  0  0  0  0  0  0999 V2000
    2.1345  -14.5589  -11.4739 N   0  0  0  0  0  0  0  0  0  0  0  0
    3.1437  -14.2864  -12.5422 C   0  0  2  0  0  0  0  0  0  0  0  0
    3.1398  -15.4413  -13.5393 C   0  0  0  0  0  0  0  0  0  0  0  0
    2.6884  -16.5295  -13.2020 O   0  0  0  0  0  0  0  0  0  0  0  0
    3.5820  -15.3348  -14.6904 O   0  0  0  0  0  0  0  0  0  0  0  0
    4.5594  -14.0046  -11.9995 C   0  0  0  0  0  0  0  0  0  0  0  0
    4.7851  -14.2396  -10.4828 C   0  0  0  0  0  0  0  0  0  0  0  0
    6.4544  -13.9152   -9.7674 S   0  0  2  0  0  0  0  0  0  0  0  0
    7.5179  -14.8124  -10.9179 C   0  0  0  0  0  0  0  0  0  0  0  0
    6.5321  -15.0297   -8.3484 C   0  0  0  0  0  0  0  0  0  0  0  0
    5.7630  -14.4273   -7.1800 C   0  0  1  0  0  0  0  0  0  0  0  0
    4.5626  -13.7882   -7.5873 O   0  0  0  0  0  0  0  0  0  0  0  0
    5.3031  -15.4553   -6.1815 C   0  0  1  0  0  0  0  0  0  0  0  0
    6.3644  -15.8283   -5.3504 O   0  0  0  0  0  0  0  0  0  0  0  0
    4.2267  -14.6778   -5.4569 C   0  0  1  0  0  0  0  0  0  0  0  0
    4.8054  -13.8490   -4.4695 O   0  0  0  0  0  0  0  0  0  0  0  0
    3.6090  -13.8003   -6.5399 C   0  0  2  0  0  0  0  0  0  0  0  0
    2.2699  -14.2392   -7.0200 N   0  0  0  0  0  0  0  0  0  0  0  0
    1.1829  -13.4205   -7.1961 C   0  0  0  0  0  0  0  0  0  0  0  0
    0.1406  -14.1566   -7.6423 N   0  0  0  0  0  0  0  0  0  0  0  0
    0.5374  -15.4338   -7.7658 C   0  0  0  0  0  0  0  0  0  0  0  0
   -0.1243  -16.5773   -8.1865 C   0  0  0  0  0  0  0  0  0  0  0  0
   -1.3943  -16.5156   -8.5647 N   0  0  0  0  0  0  0  0  0  0  0  0
    0.5565  -17.7783   -8.2128 N   0  0  0  0  0  0  0  0  0  0  0  0
    1.8893  -17.8557   -7.8288 C   0  0  0  0  0  0  0  0  0  0  0  0
    2.5330  -16.7060   -7.4185 N   0  0  0  0  0  0  0  0  0  0  0  0
    1.8729  -15.5119   -7.3784 C   0  0  0  0  0  0  0  0  0  0  0  0
  2  3  1  6  0  0  0
  2  6  1  0  0  0  0
  2  1  1  0  0  0  0
  4  3  2  0  0  0  0
  5  3  1  0  0  0  0
  6  7  2  0  0  0  0
  8  7  1  6  0  0  0
  8  9  1  0  0  0  0
  8 10  1  0  0  0  0
 11 10  1  6  0  0  0
 11 13  1  0  0  0  0
 12 11  1  0  0  0  0
 12 17  1  0  0  0  0
 13 14  1  1  0  0  0
 13 15  1  0  0  0  0
 15 16  1  1  0  0  0
 17 18  1  6  0  0  0
 17 15  1  0  0  0  0
 18 19  1  0  0  0  0
 20 19  2  0  0  0  0
 21 27  2  0  0  0  0
 21 20  1  0  0  0  0
 22 21  1  0  0  0  0
 23 22  1  0  0  0  0
 24 22  2  0  0  0  0
 24 25  1  0  0  0  0
 25 26  2  0  0  0  0
 26 27  1  0  0  0  0
 27 18  1  0  0  0  0
M  END
>  <CHROM.1>
-20.72487067,8.49110883,-49.39867116,-79.35317752,39.62357920,-106.84303611
3.49626912,-15.05690906,-8.83441484,1.54776321,-0.27522172,-1.60046899

>  <Name>
lig.pdb

>  <RI>
0

>  <Rbt.Current_Directory>
/home/itssahil/PROJECTS/Mol_Feturizer/New_Systems/rnas/4b5r

>  <Rbt.Executable>
rbdock ($Id: //depot/dev/client3/rdock/2013.1/src/exe/rbdock.cxx#4 $)

>  <Rbt.Library>
libRbt.so (2013.1, Build901 2013/11/27)

>  <Rbt.Parameter_File>
/export/apps/rDock/src/rDock_2013.1_src/data/scripts/dock_solv.prm

>  <Rbt.Receptor>
prm/pocket_docking_3.prm

>  <SCORE>
-21.0652

>  <SCORE.INTER>
-20.8085

>  <SCORE.INTER.CONST>
1

>  <SCORE.INTER.POLAR>
0

>  <SCORE.INTER.ROT>
6

>  <SCORE.INTER.SOLV>
18.1433

>  <SCORE.INTER.VDW>
-27.5201

>  <SCORE.INTER.norm>
-0.770683

>  <SCORE.INTRA>
-0.256733

>  <SCORE.INTRA.DIHEDRAL>
-1.568

>  <SCORE.INTRA.DIHEDRAL.0>
10.2917

>  <SCORE.INTRA.POLAR>
0

>  <SCORE.INTRA.POLAR.0>
0

>  <SCORE.INTRA.REPUL>
0

>  <SCORE.INTRA.REPUL.0>
0

>  <SCORE.INTRA.SOLV>
-1.41885

>  <SCORE.INTRA.SOLV.lig_0>
-39.6315

>  <SCORE.INTRA.VDW>
1.23669

>  <SCORE.INTRA.VDW.0>
-4.02152

>  <SCORE.INTRA.norm>
-0.00950861

>  <SCORE.RESTR>
0

>  <SCORE.RESTR.CAVITY>
0

>  <SCORE.RESTR.norm>
0

>  <SCORE.SYSTEM>
0

>  <SCORE.SYSTEM.CONST>
0

>  <SCORE.SYSTEM.DIHEDRAL>
0

>  <SCORE.SYSTEM.SOLV>
0

>  <SCORE.SYSTEM.norm>
0

>  <SCORE.heavy>
27

>  <SCORE.norm>
-0.780192

>  <RMSD>
0.921

$$$$
lig.pdb
 OpenBabel11021811493D
libRbt.so/2013.1/901 2013/11/27
 27 29  0  0  0  0  0  0  0  0999 V2000
    2.4779  -15.4209  -12.1652 N   0  0  0  0  0  0  0  0  0  0  0  0
    3.4550  -14.7884  -13.1029 C   0  0  2  0  0  0  0  0  0  0  0  0
    3.8148  -15.7878  -14.1983 C   0  0  0  0  0  0  0  0  0  0  0  0
    4.0710  -16.9478  -13.8976 O   0  0  0  0  0  0  0  0  0  0  0  0
    3.8671  -15.4799  -15.3959 O   0  0  0  0  0  0  0  0  0  0  0  0
    4.7109  -14.2292  -12.4044 C   0  0  0  0  0  0  0  0  0  0  0  0
    4.7999  -14.4234  -10.8678 C   0  0  0  0  0  0  0  0  0  0  0  0
    6.2735  -13.7722   -9.9690 S   0  0  2  0  0  0  0  0  0  0  0  0
    7.6219  -14.3770  -11.0061 C   0  0  0  0  0  0  0  0  0  0  0  0
    6.4434  -14.8937   -8.5636 C   0  0  0  0  0  0  0  0  0  0  0  0
    5.6752  -14.3413   -7.3703 C   0  0  1  0  0  0  0  0  0  0  0  0
    4.4481  -13.7332   -7.7444 O   0  0  0  0  0  0  0  0  0  0  0  0
    5.2654  -15.4044   -6.3869 C   0  0  1  0  0  0  0  0  0  0  0  0
    6.3519  -15.7601   -5.5812 O   0  0  0  0  0  0  0  0  0  0  0  0
    4.1768  -14.6777   -5.6285 C   0  0  1  0  0  0  0  0  0  0  0  0
    4.7451  -13.8514   -4.6329 O   0  0  0  0  0  0  0  0  0  0  0  0
    3.5131  -13.7982   -6.6823 C   0  0  2  0  0  0  0  0  0  0  0  0
    2.1810  -14.2703   -7.1501 N   0  0  0  0  0  0  0  0  0  0  0  0
    1.0800  -13.4742   -7.3421 C   0  0  0  0  0  0  0  0  0  0  0  0
    0.0496  -14.2375   -7.7700 N   0  0  0  0  0  0  0  0  0  0  0  0
    0.4679  -15.5102   -7.8661 C   0  0  0  0  0  0  0  0  0  0  0  0
   -0.1749  -16.6738   -8.2603 C   0  0  0  0  0  0  0  0  0  0  0  0
   -1.4463  -16.6421   -8.6373 N   0  0  0  0  0  0  0  0  0  0  0  0
    0.5262  -17.8634   -8.2613 N   0  0  0  0  0  0  0  0  0  0  0  0
    1.8607  -17.9097   -7.8782 C   0  0  0  0  0  0  0  0  0  0  0  0
    2.4854  -16.7404   -7.4946 N   0  0  0  0  0  0  0  0  0  0  0  0
    1.8051  -15.5571   -7.4796 C   0  0  0  0  0  0  0  0  0  0  0  0
  2  3  1  6  0  0  0
  2  6  1  0  0  0  0
  2  1  1  0  0  0  0
  4  3  2  0  0  0  0
  5  3  1  0  0  0  0
  6  7  2  0  0  0  0
  8  7  1  6  0  0  0
  8  9  1  0  0  0  0
  8 10  1  0  0  0  0
 11 10  1  6  0  0  0
 11 13  1  0  0  0  0
 12 11  1  0  0  0  0
 12 17  1  0  0  0  0
 13 14  1  1  0  0  0
 13 15  1  0  0  0  0
 15 16  1  1  0  0  0
 17 18  1  6  0  0  0
 17 15  1  0  0  0  0
 18 19  1  0  0  0  0
 20 19  2  0  0  0  0
 21 27  2  0  0  0  0
 21 20  1  0  0  0  0
 22 21  1  0  0  0  0
 23 22  1  0  0  0  0
 24 22  2  0  0  0  0
 24 25  1  0  0  0  0
 25 26  2  0  0  0  0
 26 27  1  0  0  0  0
 27 18  1  0  0  0  0
M  END
>  <CHROM.1>
-45.19274725,1.29357200,-47.41613964,-91.72732942,38.28229807,-104.07804617
3.56160175,-15.13211254,-9.08723571,1.31496914,-0.31525478,-1.67324900

>  <Name>
lig.pdb

>  <RI>
0

>  <Rbt.Current_Directory>
/home/itssahil/PROJECTS/Mol_Feturizer/New_Systems/rnas/4b5r

>  <Rbt.Executable>
rbdock ($Id: //depot/dev/client3/rdock/2013.1/src/exe/rbdock.cxx#4 $)

>  <Rbt.Library>
libRbt.so (2013.1, Build901 2013/11/27)

>  <Rbt.Parameter_File>
/export/apps/rDock/src/rDock_2013.1_src/data/scripts/dock_solv.prm

>  <Rbt.Receptor>
prm/pocket_docking_6.prm

>  <SCORE>
-20.4313

>  <SCORE.INTER>
-20.5877

>  <SCORE.INTER.CONST>
1

>  <SCORE.INTER.POLAR>
0

>  <SCORE.INTER.ROT>
6

>  <SCORE.INTER.SOLV>
16.6792

>  <SCORE.INTER.VDW>
-26.8849

>  <SCORE.INTER.norm>
-0.762507

>  <SCORE.INTRA>
0.156393

>  <SCORE.INTRA.DIHEDRAL>
-0.435231

>  <SCORE.INTRA.DIHEDRAL.0>
10.2917

>  <SCORE.INTRA.POLAR>
0

>  <SCORE.INTRA.POLAR.0>
0

>  <SCORE.INTRA.REPUL>
0

>  <SCORE.INTRA.REPUL.0>
0

>  <SCORE.INTRA.SOLV>
-1.98353

>  <SCORE.INTRA.SOLV.lig_0>
-39.6315

>  <SCORE.INTRA.VDW>
1.36577

>  <SCORE.INTRA.VDW.0>
-4.02152

>  <SCORE.INTRA.norm>
0.00579232

>  <SCORE.RESTR>
0

>  <SCORE.RESTR.CAVITY>
0

>  <SCORE.RESTR.norm>
0

>  <SCORE.SYSTEM>
0

>  <SCORE.SYSTEM.CONST>
0

>  <SCORE.SYSTEM.DIHEDRAL>
0

>  <SCORE.SYSTEM.SOLV>
0

>  <SCORE.SYSTEM.norm>
0

>  <SCORE.heavy>
27

>  <SCORE.norm>
-0.756715

>  <RMSD>
1.007

$$$$
lig.pdb
 OpenBabel11021811493D
libRbt.so/2013.1/901 2013/11/27
 27 29  0  0  0  0  0  0  0  0999 V2000
    3.3918  -13.4176  -12.7515 N   0  0  0  0  0  0  0  0  0  0  0  0
    3.3953  -14.8654  -12.3802 C   0  0  2  0  0  0  0  0  0  0  0  0
    2.0815  -15.2052  -11.6825 C   0  0  0  0  0  0  0  0  0  0  0  0
    1.5454  -16.2862  -11.8965 O   0  0  0  0  0  0  0  0  0  0  0  0
    1.5168  -14.4287  -10.9015 O   0  0  0  0  0  0  0  0  0  0  0  0
    4.6158  -15.2856  -11.5367 C   0  0  0  0  0  0  0  0  0  0  0  0
    5.6887  -14.1972  -11.2708 C   0  0  0  0  0  0  0  0  0  0  0  0
    7.1778  -14.6355  -10.2738 S   0  0  2  0  0  0  0  0  0  0  0  0
    7.9498  -15.8914  -11.3159 C   0  0  0  0  0  0  0  0  0  0  0  0
    6.5170  -15.6899   -8.9648 C   0  0  0  0  0  0  0  0  0  0  0  0
    5.8679  -14.8279   -7.8900 C   0  0  1  0  0  0  0  0  0  0  0  0
    4.6949  -14.1733   -8.3491 O   0  0  0  0  0  0  0  0  0  0  0  0
    5.3962  -15.6207   -6.7007 C   0  0  1  0  0  0  0  0  0  0  0  0
    6.4764  -15.9277   -5.8671 O   0  0  0  0  0  0  0  0  0  0  0  0
    4.4266  -14.6400   -6.0791 C   0  0  1  0  0  0  0  0  0  0  0  0
    5.1246  -13.7006   -5.2871 O   0  0  0  0  0  0  0  0  0  0  0  0
    3.8095  -13.9199   -7.2728 C   0  0  2  0  0  0  0  0  0  0  0  0
    2.4147  -14.3237   -7.6011 N   0  0  0  0  0  0  0  0  0  0  0  0
    1.3667  -13.4618   -7.8054 C   0  0  0  0  0  0  0  0  0  0  0  0
    0.2526  -14.1755   -8.0826 N   0  0  0  0  0  0  0  0  0  0  0  0
    0.5643  -15.4819   -8.0695 C   0  0  0  0  0  0  0  0  0  0  0  0
   -0.1926  -16.6215   -8.2956 C   0  0  0  0  0  0  0  0  0  0  0  0
   -1.4818  -16.5217   -8.5913 N   0  0  0  0  0  0  0  0  0  0  0  0
    0.4136  -17.8595   -8.2152 N   0  0  0  0  0  0  0  0  0  0  0  0
    1.7650  -17.9784   -7.9160 C   0  0  0  0  0  0  0  0  0  0  0  0
    2.5034  -16.8327   -7.6998 N   0  0  0  0  0  0  0  0  0  0  0  0
    1.9185  -15.6013   -7.7670 C   0  0  0  0  0  0  0  0  0  0  0  0
  2  3  1  1  0  0  0
  2  6  1  0  0  0  0
  2  1  1  0  0  0  0
  4  3  2  0  0  0  0
  5  3  1  0  0  0  0
  6  7  2  0  0  0  0
  8  7  1  6  0  0  0
  8  9  1  0  0  0  0
  8 10  1  0  0  0  0
 11 10  1  6  0  0  0
 11 13  1  0  0  0  0
 12 11  1  0  0  0  0
 12 17  1  0  0  0  0
 13 14  1  1  0  0  0
 13 15  1  0  0  0  0
 15 16  1  1  0  0  0
 17 18  1  6  0  0  0
 17 15  1  0  0  0  0
 18 19  1  0  0  0  0
 20 19  2  0  0  0  0
 21 27  2  0  0  0  0
 21 20  1  0  0  0  0
 22 21  1  0  0  0  0
 23 22  1  0  0  0  0
 24 22  2  0  0  0  0
 24 25  1  0  0  0  0
 25 26  2  0  0  0  0
 26 27  1  0  0  0  0
 27 18  1  0  0  0  0
M  END
>  <CHROM.1>
142.10320091,-3.59453336,63.14495455,-78.89194676,67.60787897,-110.29131270
3.53829103,-15.20445770,-8.96659572,0.12848606,-0.16496725,-1.52435697

>  <Name>
lig.pdb

>  <RI>
0

>  <Rbt.Current_Directory>
/home/itssahil/PROJECTS/Mol_Feturizer/New_Systems/rnas/4b5r

>  <Rbt.Executable>
rbdock ($Id: //depot/dev/client3/rdock/2013.1/src/exe/rbdock.cxx#4 $)

>  <Rbt.Library>
libRbt.so (2013.1, Build901 2013/11/27)

>  <Rbt.Parameter_File>
/export/apps/rDock/src/rDock_2013.1_src/data/scripts/dock_solv.prm

>  <Rbt.Receptor>
prm/pocket_docking_2.prm

>  <SCORE>
-17.5408

>  <SCORE.INTER>
-15.0582

>  <SCORE.INTER.CONST>
1

>  <SCORE.INTER.POLAR>
0

>  <SCORE.INTER.ROT>
6

>  <SCORE.INTER.SOLV>
18.1129

>  <SCORE.INTER.VDW>
-23.6764

>  <SCORE.INTER.norm>
-0.55771

>  <SCORE.INTRA>
-2.51552

>  <SCORE.INTRA.DIHEDRAL>
-1.17958

>  <SCORE.INTRA.DIHEDRAL.0>
10.2917

>  <SCORE.INTRA.POLAR>
0

>  <SCORE.INTRA.POLAR.0>
0

>  <SCORE.INTRA.REPUL>
0

>  <SCORE.INTRA.REPUL.0>
0

>  <SCORE.INTRA.SOLV>
-2.13768

>  <SCORE.INTRA.SOLV.lig_0>
-39.6315

>  <SCORE.INTRA.VDW>
-0.856893

>  <SCORE.INTRA.VDW.0>
-4.02152

>  <SCORE.INTRA.norm>
-0.0931676

>  <SCORE.RESTR>
0.0328879

>  <SCORE.RESTR.CAVITY>
0.0328879

>  <SCORE.RESTR.norm>
0.00121807

>  <SCORE.SYSTEM>
0

>  <SCORE.SYSTEM.CONST>
0

>  <SCORE.SYSTEM.DIHEDRAL>
0

>  <SCORE.SYSTEM.SOLV>
0

>  <SCORE.SYSTEM.norm>
0

>  <SCORE.heavy>
27

>  <SCORE.norm>
-0.64966

>  <RMSD>
1.031

$$$$
lig.pdb
 OpenBabel11021811493D
libRbt.so/2013.1/901 2013/11/27
 27 29  0  0  0  0  0  0  0  0999 V2000
    4.0143  -14.8477  -14.3232 N   0  0  0  0  0  0  0  0  0  0  0  0
    3.7466  -15.6890  -13.1171 C   0  0  2  0  0  0  0  0  0  0  0  0
    2.2882  -15.5181  -12.7026 C   0  0  0  0  0  0  0  0  0  0  0  0
    1.9760  -14.5987  -11.9550 O   0  0  0  0  0  0  0  0  0  0  0  0
    1.3889  -16.2774  -13.0856 O   0  0  0  0  0  0  0  0  0  0  0  0
    4.7099  -15.4150  -11.9446 C   0  0  0  0  0  0  0  0  0  0  0  0
    5.4144  -14.0330  -11.9283 C   0  0  0  0  0  0  0  0  0  0  0  0
    6.5848  -13.6431  -10.5565 S   0  0  2  0  0  0  0  0  0  0  0  0
    8.1435  -14.2568  -11.2300 C   0  0  0  0  0  0  0  0  0  0  0  0
    6.2522  -14.9317   -9.3355 C   0  0  0  0  0  0  0  0  0  0  0  0
    5.6396  -14.3102   -8.0873 C   0  0  1  0  0  0  0  0  0  0  0  0
    4.3726  -13.7201   -8.3363 O   0  0  0  0  0  0  0  0  0  0  0  0
    5.3621  -15.3148   -7.0014 C   0  0  1  0  0  0  0  0  0  0  0  0
    6.5435  -15.6280   -6.3216 O   0  0  0  0  0  0  0  0  0  0  0  0
    4.3759  -14.5428   -6.1531 C   0  0  1  0  0  0  0  0  0  0  0  0
    5.0629  -13.6635   -5.2860 O   0  0  0  0  0  0  0  0  0  0  0  0
    3.5804  -13.7219   -7.1620 C   0  0  2  0  0  0  0  0  0  0  0  0
    2.2015  -14.2152   -7.4294 N   0  0  0  0  0  0  0  0  0  0  0  0
    1.0598  -13.4574   -7.3557 C   0  0  0  0  0  0  0  0  0  0  0  0
   -0.0062  -14.2300   -7.6622 N   0  0  0  0  0  0  0  0  0  0  0  0
    0.4273  -15.4704   -7.9409 C   0  0  0  0  0  0  0  0  0  0  0  0
   -0.2393  -16.6265   -8.3171 C   0  0  0  0  0  0  0  0  0  0  0  0
   -1.5578  -16.6227   -8.4620 N   0  0  0  0  0  0  0  0  0  0  0  0
    0.4868  -17.7788   -8.5448 N   0  0  0  0  0  0  0  0  0  0  0  0
    1.8689  -17.7947   -8.4062 C   0  0  0  0  0  0  0  0  0  0  0  0
    2.5156  -16.6329   -8.0367 N   0  0  0  0  0  0  0  0  0  0  0  0
    1.8127  -15.4871   -7.7996 C   0  0  0  0  0  0  0  0  0  0  0  0
  2  3  1  1  0  0  0
  2  6  1  0  0  0  0
  2  1  1  0  0  0  0
  4  3  2  0  0  0  0
  5  3  1  0  0  0  0
  6  7  2  0  0  0  0
  8  7  1  6  0  0  0
  8  9  1  0  0  0  0
  8 10  1  0  0  0  0
 11 10  1  6  0  0  0
 11 13  1  0  0  0  0
 12 11  1  0  0  0  0
 12 17  1  0  0  0  0
 13 14  1  1  0  0  0
 13 15  1  0  0  0  0
 15 16  1  1  0  0  0
 17 18  1  6  0  0  0
 17 15  1  0  0  0  0
 18 19  1  0  0  0  0
 20 19  2  0  0  0  0
 21 27  2  0  0  0  0
 21 20  1  0  0  0  0
 22 21  1  0  0  0  0
 23 22  1  0  0  0  0
 24 22  2  0  0  0  0
 24 25  1  0  0  0  0
 25 26  2  0  0  0  0
 26 27  1  0  0  0  0
 27 18  1  0  0  0  0
M  END
>  <CHROM.1>
-86.80043106,22.59457674,89.28244681,-113.24832038,64.03282764,-112.93664588
3.47099147,-15.03854733,-9.27016441,0.42894056,-0.30006428,-1.64621487

>  <Name>
lig.pdb

>  <RI>
0

>  <Rbt.Current_Directory>
/home/itssahil/PROJECTS/Mol_Feturizer/New_Systems/rnas/4b5r

>  <Rbt.Executable>
rbdock ($Id: //depot/dev/client3/rdock/2013.1/src/exe/rbdock.cxx#4 $)

>  <Rbt.Library>
libRbt.so (2013.1, Build901 2013/11/27)

>  <Rbt.Parameter_File>
/export/apps/rDock/src/rDock_2013.1_src/data/scripts/dock_solv.prm

>  <Rbt.Receptor>
prm/pocket_docking_3.prm

>  <SCORE>
-16.6256

>  <SCORE.INTER>
-17.7026

>  <SCORE.INTER.CONST>
1

>  <SCORE.INTER.POLAR>
0

>  <SCORE.INTER.ROT>
6

>  <SCORE.INTER.SOLV>
17.7418

>  <SCORE.INTER.VDW>
-25.3157

>  <SCORE.INTER.norm>
-0.655651

>  <SCORE.INTRA>
1.07702

>  <SCORE.INTRA.DIHEDRAL>
2.33359

>  <SCORE.INTRA.DIHEDRAL.0>
10.2917

>  <SCORE.INTRA.POLAR>
0

>  <SCORE.INTRA.POLAR.0>
0

>  <SCORE.INTRA.REPUL>
0

>  <SCORE.INTRA.REPUL.0>
0

>  <SCORE.INTRA.SOLV>
-1.95304

>  <SCORE.INTRA.SOLV.lig_0>
-39.6315

>  <SCORE.INTRA.VDW>
0.886748

>  <SCORE.INTRA.VDW.0>
-4.02152

>  <SCORE.INTRA.norm>
0.0398897

>  <SCORE.RESTR>
0

>  <SCORE.RESTR.CAVITY>
0

>  <SCORE.RESTR.norm>
0

>  <SCORE.SYSTEM>
0

>  <SCORE.SYSTEM.CONST>
0

>  <SCORE.SYSTEM.DIHEDRAL>
0

>  <SCORE.SYSTEM.SOLV>
0

>  <SCORE.SYSTEM.norm>
0

>  <SCORE.heavy>
27

>  <SCORE.norm>
-0.615762

>  <RMSD>
1.044

$$$$
lig.pdb
 OpenBabel11021811493D
libRbt.so/2013.1/901 2013/11/27
 27 29  0  0  0  0  0  0  0  0999 V2000
    2.1975  -17.4711  -11.1626 N   0  0  0  0  0  0  0  0  0  0  0  0
    2.6993  -16.1148  -11.5403 C   0  0  2  0  0  0  0  0  0  0  0  0
    2.9841  -16.0872  -13.0391 C   0  0  0  0  0  0  0  0  0  0  0  0
    2.0633  -15.9017  -13.8260 O   0  0  0  0  0  0  0  0  0  0  0  0
    4.1172  -16.2509  -13.5093 O   0  0  0  0  0  0  0  0  0  0  0  0
    3.9199  -15.6547  -10.7180 C   0  0  0  0  0  0  0  0  0  0  0  0
    4.7255  -14.4527  -11.2773 C   0  0  0  0  0  0  0  0  0  0  0  0
    6.2016  -13.8556  -10.3456 S   0  0  2  0  0  0  0  0  0  0  0  0
    7.5497  -14.5076  -11.3540 C   0  0  0  0  0  0  0  0  0  0  0  0
    6.3005  -14.9837   -8.9386 C   0  0  0  0  0  0  0  0  0  0  0  0
    5.6420  -14.3461   -7.7223 C   0  0  1  0  0  0  0  0  0  0  0  0
    4.3898  -13.7513   -8.0278 O   0  0  0  0  0  0  0  0  0  0  0  0
    5.3151  -15.3380   -6.6386 C   0  0  1  0  0  0  0  0  0  0  0  0
    6.4663  -15.6511   -5.9087 O   0  0  0  0  0  0  0  0  0  0  0  0
    4.3003  -14.5518   -5.8383 C   0  0  1  0  0  0  0  0  0  0  0  0
    4.9573  -13.6678   -4.9530 O   0  0  0  0  0  0  0  0  0  0  0  0
    3.5510  -13.7367   -6.8864 C   0  0  2  0  0  0  0  0  0  0  0  0
    2.1809  -14.2248   -7.2041 N   0  0  0  0  0  0  0  0  0  0  0  0
    1.0290  -13.4890   -7.0832 C   0  0  0  0  0  0  0  0  0  0  0  0
   -0.0243  -14.2488   -7.4585 N   0  0  0  0  0  0  0  0  0  0  0  0
    0.4277  -15.4585   -7.8276 C   0  0  0  0  0  0  0  0  0  0  0  0
   -0.2206  -16.5903   -8.2981 C   0  0  0  0  0  0  0  0  0  0  0  0
   -1.5378  -16.5915   -8.4548 N   0  0  0  0  0  0  0  0  0  0  0  0
    0.5222  -17.7126   -8.6068 N   0  0  0  0  0  0  0  0  0  0  0  0
    1.9032  -17.7222   -8.4566 C   0  0  0  0  0  0  0  0  0  0  0  0
    2.5316  -16.5845   -7.9927 N   0  0  0  0  0  0  0  0  0  0  0  0
    1.8119  -15.4691   -7.6748 C   0  0  0  0  0  0  0  0  0  0  0  0
  2  3  1  6  0  0  0
  2  6  1  0  0  0  0
  2  1  1  0  0  0  0
  4  3  2  0  0  0  0
  5  3  1  0  0  0  0
  6  7  2  0  0  0  0
  8  7  1  6  0  0  0
  8  9  1  0  0  0  0
  8 10  1  0  0  0  0
 11 10  1  6  0  0  0
 11 13  1  0  0  0  0
 12 11  1  0  0  0  0
 12 17  1  0  0  0  0
 13 14  1  1  0  0  0
 13 15  1  0  0  0  0
 15 16  1  1  0  0  0
 17 18  1  6  0  0  0
 17 15  1  0  0  0  0
 18 19  1  0  0  0  0
 20 19  2  0  0  0  0
 21 27  2  0  0  0  0
 21 20  1  0  0  0  0
 22 21  1  0  0  0  0
 23 22  1  0  0  0  0
 24 22  2  0  0  0  0
 24 25  1  0  0  0  0
 25 26  2  0  0  0  0
 26 27  1  0  0  0  0
 27 18  1  0  0  0  0
M  END
>  <CHROM.1>
82.02783678,164.42541588,104.39598282,-97.13652855,45.65821972,-118.34206179
3.39583992,-15.26524732,-9.00164799,1.32158976,-0.30525663,-1.78586227

>  <Name>
lig.pdb

>  <RI>
0

>  <Rbt.Current_Directory>
/home/itssahil/PROJECTS/Mol_Feturizer/New_Systems/rnas/4b5r

>  <Rbt.Executable>
rbdock ($Id: //depot/dev/client3/rdock/2013.1/src/exe/rbdock.cxx#4 $)

>  <Rbt.Library>
libRbt.so (2013.1, Build901 2013/11/27)

>  <Rbt.Parameter_File>
/export/apps/rDock/src/rDock_2013.1_src/data/scripts/dock_solv.prm

>  <Rbt.Receptor>
prm/pocket_docking_2.prm

>  <SCORE>
-14.3339

>  <SCORE.INTER>
-17.3717

>  <SCORE.INTER.CONST>
1

>  <SCORE.INTER.POLAR>
0

>  <SCORE.INTER.ROT>
6

>  <SCORE.INTER.SOLV>
14.6848

>  <SCORE.INTER.VDW>
-24.0761

>  <SCORE.INTER.norm>
-0.643397

>  <SCORE.INTRA>
2.25933

>  <SCORE.INTRA.DIHEDRAL>
2.21439

>  <SCORE.INTRA.DIHEDRAL.0>
10.2917

>  <SCORE.INTRA.POLAR>
0

>  <SCORE.INTRA.POLAR.0>
0

>  <SCORE.INTRA.REPUL>
0

>  <SCORE.INTRA.REPUL.0>
0

>  <SCORE.INTRA.SOLV>
1.46412

>  <SCORE.INTRA.SOLV.lig_0>
-39.6315

>  <SCORE.INTRA.VDW>
0.420075

>  <SCORE.INTRA.VDW.0>
-4.02152

>  <SCORE.INTRA.norm>
0.0836789

>  <SCORE.RESTR>
0.778474

>  <SCORE.RESTR.CAVITY>
0.778474

>  <SCORE.RESTR.norm>
0.0288324

>  <SCORE.SYSTEM>
0

>  <SCORE.SYSTEM.CONST>
0

>  <SCORE.SYSTEM.DIHEDRAL>
0

>  <SCORE.SYSTEM.SOLV>
0

>  <SCORE.SYSTEM.norm>
0

>  <SCORE.heavy>
27

>  <SCORE.norm>
-0.530886

>  <RMSD>
1.051

$$$$
lig.pdb
 OpenBabel11021811493D
libRbt.so/2013.1/901 2013/11/27
 27 29  0  0  0  0  0  0  0  0999 V2000
    3.4022  -13.4878  -12.8225 N   0  0  0  0  0  0  0  0  0  0  0  0
    3.4171  -14.9113  -12.3673 C   0  0  2  0  0  0  0  0  0  0  0  0
    2.0919  -15.2303  -11.6816 C   0  0  0  0  0  0  0  0  0  0  0  0
    1.5875  -14.4061  -10.9280 O   0  0  0  0  0  0  0  0  0  0  0  0
    1.4922  -16.3004  -11.8464 O   0  0  0  0  0  0  0  0  0  0  0  0
    4.6228  -15.2630  -11.4726 C   0  0  0  0  0  0  0  0  0  0  0  0
    5.7068  -14.1669  -11.2995 C   0  0  0  0  0  0  0  0  0  0  0  0
    7.1791  -14.5250  -10.2471 S   0  0  2  0  0  0  0  0  0  0  0  0
    8.0519  -15.7429  -11.2543 C   0  0  0  0  0  0  0  0  0  0  0  0
    6.5260  -15.6077   -8.9576 C   0  0  0  0  0  0  0  0  0  0  0  0
    5.8617  -14.7708   -7.8724 C   0  0  1  0  0  0  0  0  0  0  0  0
    4.6783  -14.1298   -8.3244 O   0  0  0  0  0  0  0  0  0  0  0  0
    5.4021  -15.5867   -6.6941 C   0  0  1  0  0  0  0  0  0  0  0  0
    6.4865  -15.8865   -5.8633 O   0  0  0  0  0  0  0  0  0  0  0  0
    4.4157  -14.6305   -6.0609 C   0  0  1  0  0  0  0  0  0  0  0  0
    5.0972  -13.6899   -5.2560 O   0  0  0  0  0  0  0  0  0  0  0  0
    3.7878  -13.9053   -7.2459 C   0  0  2  0  0  0  0  0  0  0  0  0
    2.4002  -14.3280   -7.5810 N   0  0  0  0  0  0  0  0  0  0  0  0
    1.3345  -13.4821   -7.7589 C   0  0  0  0  0  0  0  0  0  0  0  0
    0.2340  -14.2103   -8.0521 N   0  0  0  0  0  0  0  0  0  0  0  0
    0.5718  -15.5100   -8.0754 C   0  0  0  0  0  0  0  0  0  0  0  0
   -0.1629  -16.6580   -8.3301 C   0  0  0  0  0  0  0  0  0  0  0  0
   -1.4549  -16.5762   -8.6193 N   0  0  0  0  0  0  0  0  0  0  0  0
    0.4682  -17.8854   -8.2851 N   0  0  0  0  0  0  0  0  0  0  0  0
    1.8226  -17.9851   -7.9931 C   0  0  0  0  0  0  0  0  0  0  0  0
    2.5388  -16.8311   -7.7481 N   0  0  0  0  0  0  0  0  0  0  0  0
    1.9291  -15.6103   -7.7801 C   0  0  0  0  0  0  0  0  0  0  0  0
  2  3  1  1  0  0  0
  2  6  1  0  0  0  0
  2  1  1  0  0  0  0
  4  3  2  0  0  0  0
  5  3  1  0  0  0  0
  6  7  2  0  0  0  0
  8  7  1  6  0  0  0
  8  9  1  0  0  0  0
  8 10  1  0  0  0  0
 11 10  1  6  0  0  0
 11 13  1  0  0  0  0
 12 11  1  0  0  0  0
 12 17  1  0  0  0  0
 13 14  1  1  0  0  0
 13 15  1  0  0  0  0
 15 16  1  1  0  0  0
 17 18  1  6  0  0  0
 17 15  1  0  0  0  0
 18 19  1  0  0  0  0
 20 19  2  0  0  0  0
 21 27  2  0  0  0  0
 21 20  1  0  0  0  0
 22 21  1  0  0  0  0
 23 22  1  0  0  0  0
 24 22  2  0  0  0  0
 24 25  1  0  0  0  0
 25 26  2  0  0  0  0
 26 27  1  0  0  0  0
 27 18  1  0  0  0  0
M  END
>  <CHROM.1>
-41.15142991,-6.35829299,69.71749206,-81.98472570,67.94684383,-111.15613892
3.54846384,-15.18907023,-8.96306840,0.11618082,-0.18239548,-1.53002428

>  <Name>
lig.pdb

>  <RI>
0

>  <Rbt.Current_Directory>
/home/itssahil/PROJECTS/Mol_Feturizer/New_Systems/rnas/4b5r

>  <Rbt.Executable>
rbdock ($Id: //depot/dev/client3/rdock/2013.1/src/exe/rbdock.cxx#4 $)

>  <Rbt.Library>
libRbt.so (2013.1, Build901 2013/11/27)

>  <Rbt.Parameter_File>
/export/apps/rDock/src/rDock_2013.1_src/data/scripts/dock_solv.prm

>  <Rbt.Receptor>
prm/pocket_docking_2.prm

>  <SCORE>
-16.8244

>  <SCORE.INTER>
-15.0002

>  <SCORE.INTER.CONST>
1

>  <SCORE.INTER.POLAR>
0

>  <SCORE.INTER.ROT>
6

>  <SCORE.INTER.SOLV>
18.3406

>  <SCORE.INTER.VDW>
-23.7137

>  <SCORE.INTER.norm>
-0.555564

>  <SCORE.INTRA>
-1.86084

>  <SCORE.INTRA.DIHEDRAL>
-1.00711

>  <SCORE.INTRA.DIHEDRAL.0>
10.2917

>  <SCORE.INTRA.POLAR>
0

>  <SCORE.INTRA.POLAR.0>
0

>  <SCORE.INTRA.REPUL>
0

>  <SCORE.INTRA.REPUL.0>
0

>  <SCORE.INTRA.SOLV>
-1.00441

>  <SCORE.INTRA.SOLV.lig_0>
-39.6315

>  <SCORE.INTRA.VDW>
-0.855075

>  <SCORE.INTRA.VDW.0>
-4.02152

>  <SCORE.INTRA.norm>
-0.0689199

>  <SCORE.RESTR>
0.0367004

>  <SCORE.RESTR.CAVITY>
0.0367004

>  <SCORE.RESTR.norm>
0.00135928

>  <SCORE.SYSTEM>
0

>  <SCORE.SYSTEM.CONST>
0

>  <SCORE.SYSTEM.DIHEDRAL>
0

>  <SCORE.SYSTEM.SOLV>
0

>  <SCORE.SYSTEM.norm>
0

>  <SCORE.heavy>
27

>  <SCORE.norm>
-0.623125

>  <RMSD>
1.053

$$$$
lig.pdb
 OpenBabel11021811493D
libRbt.so/2013.1/901 2013/11/27
 27 29  0  0  0  0  0  0  0  0999 V2000
    3.0295  -17.4928  -12.0953 N   0  0  0  0  0  0  0  0  0  0  0  0
    2.4378  -16.1443  -12.3512 C   0  0  2  0  0  0  0  0  0  0  0  0
    2.2747  -15.9478  -13.8556 C   0  0  0  0  0  0  0  0  0  0  0  0
    3.1378  -15.3457  -14.4836 O   0  0  0  0  0  0  0  0  0  0  0  0
    1.2952  -16.3683  -14.4843 O   0  0  0  0  0  0  0  0  0  0  0  0
    3.2288  -14.9883  -11.7062 C   0  0  0  0  0  0  0  0  0  0  0  0
    4.6364  -15.3301  -11.1511 C   0  0  0  0  0  0  0  0  0  0  0  0
    5.6334  -13.9941  -10.3606 S   0  0  2  0  0  0  0  0  0  0  0  0
    7.1050  -13.9787  -11.4063 C   0  0  0  0  0  0  0  0  0  0  0  0
    6.3144  -14.7874   -8.8879 C   0  0  0  0  0  0  0  0  0  0  0  0
    5.6019  -14.2647   -7.6475 C   0  0  1  0  0  0  0  0  0  0  0  0
    4.3466  -13.6731   -7.9468 O   0  0  0  0  0  0  0  0  0  0  0  0
    5.2632  -15.3481   -6.6591 C   0  0  1  0  0  0  0  0  0  0  0  0
    6.3970  -15.6956   -5.9177 O   0  0  0  0  0  0  0  0  0  0  0  0
    4.2048  -14.6509   -5.8334 C   0  0  1  0  0  0  0  0  0  0  0  0
    4.8117  -13.8284   -4.8576 O   0  0  0  0  0  0  0  0  0  0  0  0
    3.4711  -13.7689   -6.8374 C   0  0  2  0  0  0  0  0  0  0  0  0
    2.1239  -14.2577   -7.2404 N   0  0  0  0  0  0  0  0  0  0  0  0
    1.0016  -13.4779   -7.3647 C   0  0  0  0  0  0  0  0  0  0  0  0
   -0.0375  -14.2534   -7.7472 N   0  0  0  0  0  0  0  0  0  0  0  0
    0.3955  -15.5179   -7.8805 C   0  0  0  0  0  0  0  0  0  0  0  0
   -0.2485  -16.6874   -8.2545 C   0  0  0  0  0  0  0  0  0  0  0  0
   -1.5383  -16.6726   -8.5639 N   0  0  0  0  0  0  0  0  0  0  0  0
    0.4706  -17.8651   -8.3067 N   0  0  0  0  0  0  0  0  0  0  0  0
    1.8240  -17.8935   -7.9947 C   0  0  0  0  0  0  0  0  0  0  0  0
    2.4492  -16.7184   -7.6302 N   0  0  0  0  0  0  0  0  0  0  0  0
    1.7518  -15.5469   -7.5653 C   0  0  0  0  0  0  0  0  0  0  0  0
  2  3  1  6  0  0  0
  2  6  1  0  0  0  0
  2  1  1  0  0  0  0
  4  3  2  0  0  0  0
  5  3  1  0  0  0  0
  6  7  2  0  0  0  0
  8  7  1  6  0  0  0
  8  9  1  0  0  0  0
  8 10  1  0  0  0  0
 11 10  1  6  0  0  0
 11 13  1  0  0  0  0
 12 11  1  0  0  0  0
 12 17  1  0  0  0  0
 13 14  1  1  0  0  0
 13 15  1  0  0  0  0
 15 16  1  1  0  0  0
 17 18  1  6  0  0  0
 17 15  1  0  0  0  0
 18 19  1  0  0  0  0
 20 19  2  0  0  0  0
 21 27  2  0  0  0  0
 21 20  1  0  0  0  0
 22 21  1  0  0  0  0
 23 22  1  0  0  0  0
 24 22  2  0  0  0  0
 24 25  1  0  0  0  0
 25 26  2  0  0  0  0
 26 27  1  0  0  0  0
 27 18  1  0  0  0  0
M  END
>  <CHROM.1>
-96.33919777,11.99614685,-120.43381563,-106.86561841,19.69691164,-103.92824676
3.20012420,-15.27001285,-9.15660060,-1.83370450,0.33205349,1.45194170

>  <Name>
lig.pdb

>  <RI>
0

>  <Rbt.Current_Directory>
/home/itssahil/PROJECTS/Mol_Feturizer/New_Systems/rnas/4b5r

>  <Rbt.Executable>
rbdock ($Id: //depot/dev/client3/rdock/2013.1/src/exe/rbdock.cxx#4 $)

>  <Rbt.Library>
libRbt.so (2013.1, Build901 2013/11/27)

>  <Rbt.Parameter_File>
/export/apps/rDock/src/rDock_2013.1_src/data/scripts/dock_solv.prm

>  <Rbt.Receptor>
prm/pocket_docking_2.prm

>  <SCORE>
-15.7564

>  <SCORE.INTER>
-19.5422

>  <SCORE.INTER.CONST>
1

>  <SCORE.INTER.POLAR>
0

>  <SCORE.INTER.ROT>
6

>  <SCORE.INTER.SOLV>
17.2475

>  <SCORE.INTER.VDW>
-26.3773

>  <SCORE.INTER.norm>
-0.723784

>  <SCORE.INTRA>
3.21735

>  <SCORE.INTRA.DIHEDRAL>
5.71237

>  <SCORE.INTRA.DIHEDRAL.0>
10.2917

>  <SCORE.INTRA.POLAR>
0

>  <SCORE.INTRA.POLAR.0>
0

>  <SCORE.INTRA.REPUL>
0

>  <SCORE.INTRA.REPUL.0>
0

>  <SCORE.INTRA.SOLV>
-1.71514

>  <SCORE.INTRA.SOLV.lig_0>
-39.6315

>  <SCORE.INTRA.VDW>
1.21873

>  <SCORE.INTRA.VDW.0>
-4.02152

>  <SCORE.INTRA.norm>
0.119161

>  <SCORE.RESTR>
0.568362

>  <SCORE.RESTR.CAVITY>
0.568362

>  <SCORE.RESTR.norm>
0.0210504

>  <SCORE.SYSTEM>
0

>  <SCORE.SYSTEM.CONST>
0

>  <SCORE.SYSTEM.DIHEDRAL>
0

>  <SCORE.SYSTEM.SOLV>
0

>  <SCORE.SYSTEM.norm>
0

>  <SCORE.heavy>
27

>  <SCORE.norm>
-0.583572

>  <RMSD>
1.085

$$$$
lig.pdb
 OpenBabel11021811493D
libRbt.so/2013.1/901 2013/11/27
 27 29  0  0  0  0  0  0  0  0999 V2000
    3.4015  -14.6199  -13.4165 N   0  0  0  0  0  0  0  0  0  0  0  0
    3.2874  -15.5381  -12.2426 C   0  0  2  0  0  0  0  0  0  0  0  0
    1.9885  -15.2398  -11.4997 C   0  0  0  0  0  0  0  0  0  0  0  0
    1.8493  -14.1615  -10.9344 O   0  0  0  0  0  0  0  0  0  0  0  0
    1.0534  -16.0479  -11.4332 O   0  0  0  0  0  0  0  0  0  0  0  0
    4.5076  -15.4939  -11.3007 C   0  0  0  0  0  0  0  0  0  0  0  0
    5.4278  -14.2497  -11.4084 C   0  0  0  0  0  0  0  0  0  0  0  0
    6.9091  -14.1370  -10.3144 S   0  0  2  0  0  0  0  0  0  0  0  0
    8.1172  -15.1019  -11.2465 C   0  0  0  0  0  0  0  0  0  0  0  0
    6.5457  -15.3052   -8.9860 C   0  0  0  0  0  0  0  0  0  0  0  0
    5.8719  -14.5759   -7.8311 C   0  0  1  0  0  0  0  0  0  0  0  0
    4.6882  -13.9001   -8.2279 O   0  0  0  0  0  0  0  0  0  0  0  0
    5.4097  -15.5002   -6.7369 C   0  0  1  0  0  0  0  0  0  0  0  0
    6.4909  -15.8722   -5.9316 O   0  0  0  0  0  0  0  0  0  0  0  0
    4.4157  -14.6111   -6.0227 C   0  0  1  0  0  0  0  0  0  0  0  0
    5.0888  -13.7473   -5.1296 O   0  0  0  0  0  0  0  0  0  0  0  0
    3.7910  -13.7807   -7.1383 C   0  0  2  0  0  0  0  0  0  0  0  0
    2.4071  -14.1756   -7.5194 N   0  0  0  0  0  0  0  0  0  0  0  0
    1.3235  -13.3344   -7.5541 C   0  0  0  0  0  0  0  0  0  0  0  0
    0.2328  -14.0316   -7.9437 N   0  0  0  0  0  0  0  0  0  0  0  0
    0.5944  -15.3053   -8.1695 C   0  0  0  0  0  0  0  0  0  0  0  0
   -0.1222  -16.4156   -8.5893 C   0  0  0  0  0  0  0  0  0  0  0  0
   -1.4194  -16.3170   -8.8487 N   0  0  0  0  0  0  0  0  0  0  0  0
    0.5322  -17.6221   -8.7397 N   0  0  0  0  0  0  0  0  0  0  0  0
    1.8921  -17.7376   -8.4810 C   0  0  0  0  0  0  0  0  0  0  0  0
    2.5900  -16.6202   -8.0696 N   0  0  0  0  0  0  0  0  0  0  0  0
    1.9573  -15.4217   -7.9076 C   0  0  0  0  0  0  0  0  0  0  0  0
  2  3  1  1  0  0  0
  2  6  1  0  0  0  0
  2  1  1  0  0  0  0
  4  3  2  0  0  0  0
  5  3  1  0  0  0  0
  6  7  2  0  0  0  0
  8  7  1  6  0  0  0
  8  9  1  0  0  0  0
  8 10  1  0  0  0  0
 11 10  1  6  0  0  0
 11 13  1  0  0  0  0
 12 11  1  0  0  0  0
 12 17  1  0  0  0  0
 13 14  1  1  0  0  0
 13 15  1  0  0  0  0
 15 16  1  1  0  0  0
 17 18  1  6  0  0  0
 17 15  1  0  0  0  0
 18 19  1  0  0  0  0
 20 19  2  0  0  0  0
 21 27  2  0  0  0  0
 21 20  1  0  0  0  0
 22 21  1  0  0  0  0
 23 22  1  0  0  0  0
 24 22  2  0  0  0  0
 24 25  1  0  0  0  0
 25 26  2  0  0  0  0
 26 27  1  0  0  0  0
 27 18  1  0  0  0  0
M  END
>  <CHROM.1>
-66.24880349,19.00865816,83.84133882,-92.78301931,56.82393690,-114.85983336
3.51290387,-15.08077203,-9.00516373,-3.13185881,0.19070045,1.52205904

>  <Name>
lig.pdb

>  <RI>
0

>  <Rbt.Current_Directory>
/home/itssahil/PROJECTS/Mol_Feturizer/New_Systems/rnas/4b5r

>  <Rbt.Executable>
rbdock ($Id: //depot/dev/client3/rdock/2013.1/src/exe/rbdock.cxx#4 $)

>  <Rbt.Library>
libRbt.so (2013.1, Build901 2013/11/27)

>  <Rbt.Parameter_File>
/export/apps/rDock/src/rDock_2013.1_src/data/scripts/dock_solv.prm

>  <Rbt.Receptor>
prm/pocket_docking_2.prm

>  <SCORE>
-17.0335

>  <SCORE.INTER>
-15.1692

>  <SCORE.INTER.CONST>
1

>  <SCORE.INTER.POLAR>
0

>  <SCORE.INTER.ROT>
6

>  <SCORE.INTER.SOLV>
16.4568

>  <SCORE.INTER.VDW>
-23.1984

>  <SCORE.INTER.norm>
-0.561821

>  <SCORE.INTRA>
-1.87511

>  <SCORE.INTRA.DIHEDRAL>
0.0736098

>  <SCORE.INTRA.DIHEDRAL.0>
10.2917

>  <SCORE.INTRA.POLAR>
0

>  <SCORE.INTRA.POLAR.0>
0

>  <SCORE.INTRA.REPUL>
0

>  <SCORE.INTRA.REPUL.0>
0

>  <SCORE.INTRA.SOLV>
-0.351188

>  <SCORE.INTRA.SOLV.lig_0>
-39.6315

>  <SCORE.INTRA.VDW>
-1.73633

>  <SCORE.INTRA.VDW.0>
-4.02152

>  <SCORE.INTRA.norm>
-0.0694487

>  <SCORE.RESTR>
0.0107881

>  <SCORE.RESTR.CAVITY>
0.0107881

>  <SCORE.RESTR.norm>
0.000399558

>  <SCORE.SYSTEM>
0

>  <SCORE.SYSTEM.CONST>
0

>  <SCORE.SYSTEM.DIHEDRAL>
0

>  <SCORE.SYSTEM.SOLV>
0

>  <SCORE.SYSTEM.norm>
0

>  <SCORE.heavy>
27

>  <SCORE.norm>
-0.63087

>  <RMSD>
1.101

$$$$
lig.pdb
 OpenBabel11021811493D
libRbt.so/2013.1/901 2013/11/27
 27 29  0  0  0  0  0  0  0  0999 V2000
    3.9641  -17.0763  -13.4589 N   0  0  0  0  0  0  0  0  0  0  0  0
    3.0565  -16.4926  -12.4248 C   0  0  2  0  0  0  0  0  0  0  0  0
    1.8567  -15.8528  -13.1171 C   0  0  0  0  0  0  0  0  0  0  0  0
    1.5561  -16.2034  -14.2522 O   0  0  0  0  0  0  0  0  0  0  0  0
    1.1622  -14.9785  -12.5832 O   0  0  0  0  0  0  0  0  0  0  0  0
    3.7586  -15.5059  -11.4702 C   0  0  0  0  0  0  0  0  0  0  0  0
    5.3005  -15.3902  -11.5962 C   0  0  0  0  0  0  0  0  0  0  0  0
    6.2037  -14.2325  -10.4794 S   0  0  2  0  0  0  0  0  0  0  0  0
    7.8812  -14.3338  -11.1390 C   0  0  0  0  0  0  0  0  0  0  0  0
    6.4154  -15.1864   -8.9605 C   0  0  0  0  0  0  0  0  0  0  0  0
    5.7138  -14.4793   -7.8084 C   0  0  1  0  0  0  0  0  0  0  0  0
    4.4921  -13.8729   -8.2021 O   0  0  0  0  0  0  0  0  0  0  0  0
    5.3115  -15.4129   -6.6984 C   0  0  1  0  0  0  0  0  0  0  0  0
    6.4182  -15.7162   -5.8989 O   0  0  0  0  0  0  0  0  0  0  0  0
    4.2777  -14.5691   -5.9858 C   0  0  1  0  0  0  0  0  0  0  0  0
    4.9115  -13.6592   -5.1099 O   0  0  0  0  0  0  0  0  0  0  0  0
    3.5995  -13.7877   -7.1055 C   0  0  2  0  0  0  0  0  0  0  0  0
    2.2354  -14.2608   -7.4684 N   0  0  0  0  0  0  0  0  0  0  0  0
    1.1361  -13.4572   -7.6376 C   0  0  0  0  0  0  0  0  0  0  0  0
    0.0715  -14.2241   -7.9630 N   0  0  0  0  0  0  0  0  0  0  0  0
    0.4656  -15.5071   -8.0154 C   0  0  0  0  0  0  0  0  0  0  0  0
   -0.2158  -16.6786   -8.3086 C   0  0  0  0  0  0  0  0  0  0  0  0
   -1.5068  -16.6449   -8.6115 N   0  0  0  0  0  0  0  0  0  0  0  0
    0.4673  -17.8784   -8.2874 N   0  0  0  0  0  0  0  0  0  0  0  0
    1.8215  -17.9273   -7.9814 C   0  0  0  0  0  0  0  0  0  0  0  0
    2.4842  -16.7504   -7.6980 N   0  0  0  0  0  0  0  0  0  0  0  0
    1.8226  -15.5566   -7.7062 C   0  0  0  0  0  0  0  0  0  0  0  0
  2  3  1  6  0  0  0
  2  6  1  0  0  0  0
  2  1  1  0  0  0  0
  4  3  2  0  0  0  0
  5  3  1  0  0  0  0
  6  7  2  0  0  0  0
  8  7  1  6  0  0  0
  8  9  1  0  0  0  0
  8 10  1  0  0  0  0
 11 10  1  6  0  0  0
 11 13  1  0  0  0  0
 12 11  1  0  0  0  0
 12 17  1  0  0  0  0
 13 14  1  1  0  0  0
 13 15  1  0  0  0  0
 15 16  1  1  0  0  0
 17 18  1  6  0  0  0
 17 15  1  0  0  0  0
 18 19  1  0  0  0  0
 20 19  2  0  0  0  0
 21 27  2  0  0  0  0
 21 20  1  0  0  0  0
 22 21  1  0  0  0  0
 23 22  1  0  0  0  0
 24 22  2  0  0  0  0
 24 25  1  0  0  0  0
 25 26  2  0  0  0  0
 26 27  1  0  0  0  0
 27 18  1  0  0  0  0
M  END
>  <CHROM.1>
21.43809772,-7.17872232,-174.02738750,-119.06449920,37.48780326,-107.73448193
3.33421573,-15.31794209,-9.18580804,-2.25315758,0.24717191,1.42447995

>  <Name>
lig.pdb

>  <RI>
0

>  <Rbt.Current_Directory>
/home/itssahil/PROJECTS/Mol_Feturizer/New_Systems/rnas/4b5r

>  <Rbt.Executable>
rbdock ($Id: //depot/dev/client3/rdock/2013.1/src/exe/rbdock.cxx#4 $)

>  <Rbt.Library>
libRbt.so (2013.1, Build901 2013/11/27)

>  <Rbt.Parameter_File>
/export/apps/rDock/src/rDock_2013.1_src/data/scripts/dock_solv.prm

>  <Rbt.Receptor>
prm/pocket_docking_2.prm

>  <SCORE>
-15.9489

>  <SCORE.INTER>
-17.6676

>  <SCORE.INTER.CONST>
1

>  <SCORE.INTER.POLAR>
0

>  <SCORE.INTER.ROT>
6

>  <SCORE.INTER.SOLV>
18.7736

>  <SCORE.INTER.VDW>
-25.6363

>  <SCORE.INTER.norm>
-0.654357

>  <SCORE.INTRA>
1.71515

>  <SCORE.INTRA.DIHEDRAL>
3.25004

>  <SCORE.INTRA.DIHEDRAL.0>
10.2917

>  <SCORE.INTRA.POLAR>
0

>  <SCORE.INTRA.POLAR.0>
0

>  <SCORE.INTRA.REPUL>
0

>  <SCORE.INTRA.REPUL.0>
0

>  <SCORE.INTRA.SOLV>
-2.04679

>  <SCORE.INTRA.SOLV.lig_0>
-39.6315

>  <SCORE.INTRA.VDW>
1.11352

>  <SCORE.INTRA.VDW.0>
-4.02152

>  <SCORE.INTRA.norm>
0.0635241

>  <SCORE.RESTR>
0.00355992

>  <SCORE.RESTR.CAVITY>
0.00355992

>  <SCORE.RESTR.norm>
0.000131849

>  <SCORE.SYSTEM>
0

>  <SCORE.SYSTEM.CONST>
0

>  <SCORE.SYSTEM.DIHEDRAL>
0

>  <SCORE.SYSTEM.SOLV>
0

>  <SCORE.SYSTEM.norm>
0

>  <SCORE.heavy>
27

>  <SCORE.norm>
-0.590701

>  <RMSD>
1.118

$$$$
lig.pdb
 OpenBabel11021811493D
libRbt.so/2013.1/901 2013/11/27
 27 29  0  0  0  0  0  0  0  0999 V2000
    2.3973  -17.5148  -12.0067 N   0  0  0  0  0  0  0  0  0  0  0  0
    2.4604  -16.0758  -12.4056 C   0  0  2  0  0  0  0  0  0  0  0  0
    2.2783  -15.9679  -13.9166 C   0  0  0  0  0  0  0  0  0  0  0  0
    3.1596  -15.4555  -14.5966 O   0  0  0  0  0  0  0  0  0  0  0  0
    1.2654  -16.3741  -14.5006 O   0  0  0  0  0  0  0  0  0  0  0  0
    3.7396  -15.3570  -11.9313 C   0  0  0  0  0  0  0  0  0  0  0  0
    4.8527  -16.2458  -11.3170 C   0  0  0  0  0  0  0  0  0  0  0  0
    6.4068  -15.4483  -10.7234 S   0  0  2  0  0  0  0  0  0  0  0  0
    7.6610  -16.5417  -11.4242 C   0  0  0  0  0  0  0  0  0  0  0  0
    6.5037  -15.9452   -8.9898 C   0  0  0  0  0  0  0  0  0  0  0  0
    5.8680  -14.8746   -8.1127 C   0  0  1  0  0  0  0  0  0  0  0  0
    4.7124  -14.2994   -8.7036 O   0  0  0  0  0  0  0  0  0  0  0  0
    5.3721  -15.4069   -6.7951 C   0  0  1  0  0  0  0  0  0  0  0  0
    6.4406  -15.5655   -5.9067 O   0  0  0  0  0  0  0  0  0  0  0  0
    4.4211  -14.3029   -6.3888 C   0  0  1  0  0  0  0  0  0  0  0  0
    5.1354  -13.2401   -5.7911 O   0  0  0  0  0  0  0  0  0  0  0  0
    3.8268  -13.8201   -7.7073 C   0  0  2  0  0  0  0  0  0  0  0  0
    2.4253  -14.2519   -7.9631 N   0  0  0  0  0  0  0  0  0  0  0  0
    1.3738  -13.4128   -8.2337 C   0  0  0  0  0  0  0  0  0  0  0  0
    0.2537  -14.1483   -8.4124 N   0  0  0  0  0  0  0  0  0  0  0  0
    0.5648  -15.4472   -8.2709 C   0  0  0  0  0  0  0  0  0  0  0  0
   -0.1973  -16.6019   -8.3623 C   0  0  0  0  0  0  0  0  0  0  0  0
   -1.4924  -16.5297   -8.6400 N   0  0  0  0  0  0  0  0  0  0  0  0
    0.4098  -17.8267   -8.1671 N   0  0  0  0  0  0  0  0  0  0  0  0
    1.7670  -17.9177   -7.8852 C   0  0  0  0  0  0  0  0  0  0  0  0
    2.5105  -16.7579   -7.8039 N   0  0  0  0  0  0  0  0  0  0  0  0
    1.9250  -15.5384   -7.9858 C   0  0  0  0  0  0  0  0  0  0  0  0
  2  3  1  6  0  0  0
  2  6  1  0  0  0  0
  2  1  1  0  0  0  0
  4  3  2  0  0  0  0
  5  3  1  0  0  0  0
  6  7  2  0  0  0  0
  8  7  1  6  0  0  0
  8  9  1  0  0  0  0
  8 10  1  0  0  0  0
 11 10  1  6  0  0  0
 11 13  1  0  0  0  0
 12 11  1  0  0  0  0
 12 17  1  0  0  0  0
 13 14  1  1  0  0  0
 13 15  1  0  0  0  0
 15 16  1  6  0  0  0
 17 18  1  6  0  0  0
 17 15  1  0  0  0  0
 18 19  1  0  0  0  0
 20 19  2  0  0  0  0
 21 27  2  0  0  0  0
 21 20  1  0  0  0  0
 22 21  1  0  0  0  0
 23 22  1  0  0  0  0
 24 22  2  0  0  0  0
 24 25  1  0  0  0  0
 25 26  2  0  0  0  0
 26 27  1  0  0  0  0
 27 18  1  0  0  0  0
M  END
>  <CHROM.1>
-120.69312500,8.97246858,-133.99518934,-93.65316839,38.04028003,-116.10559586
3.40113489,-15.56957083,-9.45335822,-2.00834891,0.13168733,1.37907374

>  <Name>
lig.pdb

>  <RI>
0

>  <Rbt.Current_Directory>
/home/itssahil/PROJECTS/Mol_Feturizer/New_Systems/rnas/4b5r

>  <Rbt.Executable>
rbdock ($Id: //depot/dev/client3/rdock/2013.1/src/exe/rbdock.cxx#4 $)

>  <Rbt.Library>
libRbt.so (2013.1, Build901 2013/11/27)

>  <Rbt.Parameter_File>
/export/apps/rDock/src/rDock_2013.1_src/data/scripts/dock_solv.prm

>  <Rbt.Receptor>
prm/pocket_docking_2.prm

>  <SCORE>
-15.4247

>  <SCORE.INTER>
-16.7981

>  <SCORE.INTER.CONST>
1

>  <SCORE.INTER.POLAR>
0

>  <SCORE.INTER.ROT>
6

>  <SCORE.INTER.SOLV>
16.781

>  <SCORE.INTER.VDW>
-24.3924

>  <SCORE.INTER.norm>
-0.622152

>  <SCORE.INTRA>
0.807379

>  <SCORE.INTRA.DIHEDRAL>
1.69701

>  <SCORE.INTRA.DIHEDRAL.0>
10.2917

>  <SCORE.INTRA.POLAR>
0

>  <SCORE.INTRA.POLAR.0>
0

>  <SCORE.INTRA.REPUL>
0

>  <SCORE.INTRA.REPUL.0>
0

>  <SCORE.INTRA.SOLV>
-1.47648

>  <SCORE.INTRA.SOLV.lig_0>
-39.6315

>  <SCORE.INTRA.VDW>
0.697117

>  <SCORE.INTRA.VDW.0>
-4.02152

>  <SCORE.INTRA.norm>
0.0299029

>  <SCORE.RESTR>
0.566074

>  <SCORE.RESTR.CAVITY>
0.566074

>  <SCORE.RESTR.norm>
0.0209657

>  <SCORE.SYSTEM>
0

>  <SCORE.SYSTEM.CONST>
0

>  <SCORE.SYSTEM.DIHEDRAL>
0

>  <SCORE.SYSTEM.SOLV>
0

>  <SCORE.SYSTEM.norm>
0

>  <SCORE.heavy>
27

>  <SCORE.norm>
-0.571283

>  <RMSD>
1.124

$$$$
lig.pdb
 OpenBabel11021811493D
libRbt.so/2013.1/901 2013/11/27
 27 29  0  0  0  0  0  0  0  0999 V2000
    2.7993  -14.2416  -12.5320 N   0  0  0  0  0  0  0  0  0  0  0  0
    3.1665  -15.5823  -11.9827 C   0  0  2  0  0  0  0  0  0  0  0  0
    2.0710  -16.0481  -11.0283 C   0  0  0  0  0  0  0  0  0  0  0  0
    2.2427  -17.0600  -10.3587 O   0  0  0  0  0  0  0  0  0  0  0  0
    0.9963  -15.4483  -10.8972 O   0  0  0  0  0  0  0  0  0  0  0  0
    4.5574  -15.6196  -11.3181 C   0  0  0  0  0  0  0  0  0  0  0  0
    5.1122  -14.2729  -10.7840 C   0  0  0  0  0  0  0  0  0  0  0  0
    6.7740  -14.2461   -9.9832 S   0  0  2  0  0  0  0  0  0  0  0  0
    7.7663  -15.1557  -11.1864 C   0  0  0  0  0  0  0  0  0  0  0  0
    6.6417  -15.4983   -8.6886 C   0  0  0  0  0  0  0  0  0  0  0  0
    5.9474  -14.9051   -7.4698 C   0  0  1  0  0  0  0  0  0  0  0  0
    4.7916  -14.1545   -7.8107 O   0  0  0  0  0  0  0  0  0  0  0  0
    5.4309  -15.9491   -6.5165 C   0  0  1  0  0  0  0  0  0  0  0  0
    6.4778  -16.4478   -5.7347 O   0  0  0  0  0  0  0  0  0  0  0  0
    4.4341  -15.1333   -5.7233 C   0  0  1  0  0  0  0  0  0  0  0  0
    5.0969  -14.4075   -4.7080 O   0  0  0  0  0  0  0  0  0  0  0  0
    3.8630  -14.1522   -6.7410 C   0  0  2  0  0  0  0  0  0  0  0  0
    2.4838  -14.4601   -7.2091 N   0  0  0  0  0  0  0  0  0  0  0  0
    1.4962  -13.5336   -7.4312 C   0  0  0  0  0  0  0  0  0  0  0  0
    0.3783  -14.1683   -7.8493 N   0  0  0  0  0  0  0  0  0  0  0  0
    0.6288  -15.4864   -7.9095 C   0  0  0  0  0  0  0  0  0  0  0  0
   -0.1569  -16.5670   -8.2804 C   0  0  0  0  0  0  0  0  0  0  0  0
   -1.4112  -16.3810   -8.6698 N   0  0  0  0  0  0  0  0  0  0  0  0
    0.3843  -17.8369   -8.2451 N   0  0  0  0  0  0  0  0  0  0  0  0
    1.6993  -18.0453   -7.8486 C   0  0  0  0  0  0  0  0  0  0  0  0
    2.4678  -16.9570   -7.4887 N   0  0  0  0  0  0  0  0  0  0  0  0
    1.9464  -15.6957   -7.5097 C   0  0  0  0  0  0  0  0  0  0  0  0
  2  3  1  1  0  0  0
  2  6  1  0  0  0  0
  2  1  1  0  0  0  0
  4  3  2  0  0  0  0
  5  3  1  0  0  0  0
  6  7  2  0  0  0  0
  8  7  1  6  0  0  0
  8  9  1  0  0  0  0
  8 10  1  0  0  0  0
 11 10  1  6  0  0  0
 11 13  1  0  0  0  0
 12 11  1  0  0  0  0
 12 17  1  0  0  0  0
 13 14  1  1  0  0  0
 13 15  1  0  0  0  0
 15 16  1  1  0  0  0
 17 18  1  6  0  0  0
 17 15  1  0  0  0  0
 18 19  1  0  0  0  0
 20 19  2  0  0  0  0
 21 27  2  0  0  0  0
 21 20  1  0  0  0  0
 22 21  1  0  0  0  0
 23 22  1  0  0  0  0
 24 22  2  0  0  0  0
 24 25  1  0  0  0  0
 25 26  2  0  0  0  0
 26 27  1  0  0  0  0
 27 18  1  0  0  0  0
M  END
>  <CHROM.1>
-172.24220777,24.35810409,48.66660729,-81.39723035,45.52244319,-100.41570089
3.48138608,-15.40031945,-8.64469957,-3.12513704,0.21081057,1.59390136

>  <Name>
lig.pdb

>  <RI>
0

>  <Rbt.Current_Directory>
/home/itssahil/PROJECTS/Mol_Feturizer/New_Systems/rnas/4b5r

>  <Rbt.Executable>
rbdock ($Id: //depot/dev/client3/rdock/2013.1/src/exe/rbdock.cxx#4 $)

>  <Rbt.Library>
libRbt.so (2013.1, Build901 2013/11/27)

>  <Rbt.Parameter_File>
/export/apps/rDock/src/rDock_2013.1_src/data/scripts/dock_solv.prm

>  <Rbt.Receptor>
prm/pocket_docking_2.prm

>  <SCORE>
-16.1126

>  <SCORE.INTER>
-16.0111

>  <SCORE.INTER.CONST>
1

>  <SCORE.INTER.POLAR>
0

>  <SCORE.INTER.ROT>
6

>  <SCORE.INTER.SOLV>
16.0891

>  <SCORE.INTER.VDW>
-23.6371

>  <SCORE.INTER.norm>
-0.593004

>  <SCORE.INTRA>
-0.531644

>  <SCORE.INTRA.DIHEDRAL>
0.515679

>  <SCORE.INTRA.DIHEDRAL.0>
10.2917

>  <SCORE.INTRA.POLAR>
0

>  <SCORE.INTRA.POLAR.0>
0

>  <SCORE.INTRA.REPUL>
0

>  <SCORE.INTRA.REPUL.0>
0

>  <SCORE.INTRA.SOLV>
-0.0885686

>  <SCORE.INTRA.SOLV.lig_0>
-39.6315

>  <SCORE.INTRA.VDW>
-0.745199

>  <SCORE.INTRA.VDW.0>
-4.02152

>  <SCORE.INTRA.norm>
-0.0196905

>  <SCORE.RESTR>
0.430096

>  <SCORE.RESTR.CAVITY>
0.430096

>  <SCORE.RESTR.norm>
0.0159295

>  <SCORE.SYSTEM>
0

>  <SCORE.SYSTEM.CONST>
0

>  <SCORE.SYSTEM.DIHEDRAL>
0

>  <SCORE.SYSTEM.SOLV>
0

>  <SCORE.SYSTEM.norm>
0

>  <SCORE.heavy>
27

>  <SCORE.norm>
-0.596765

>  <RMSD>
1.139

$$$$
lig.pdb
 OpenBabel11021811493D
libRbt.so/2013.1/901 2013/11/27
 27 29  0  0  0  0  0  0  0  0999 V2000
    3.3007  -15.4185  -13.6325 N   0  0  0  0  0  0  0  0  0  0  0  0
    3.2469  -15.9851  -12.2505 C   0  0  2  0  0  0  0  0  0  0  0  0
    2.1036  -15.3260  -11.4846 C   0  0  0  0  0  0  0  0  0  0  0  0
    2.2619  -14.2094  -11.0051 O   0  0  0  0  0  0  0  0  0  0  0  0
    1.0066  -15.8735  -11.3153 O   0  0  0  0  0  0  0  0  0  0  0  0
    4.5820  -15.8809  -11.4859 C   0  0  0  0  0  0  0  0  0  0  0  0
    5.1279  -14.4523  -11.2259 C   0  0  0  0  0  0  0  0  0  0  0  0
    6.7242  -14.2568  -10.3220 S   0  0  2  0  0  0  0  0  0  0  0  0
    7.8438  -15.2215  -11.3591 C   0  0  0  0  0  0  0  0  0  0  0  0
    6.5595  -15.3843   -8.9208 C   0  0  0  0  0  0  0  0  0  0  0  0
    5.8577  -14.6744   -7.7705 C   0  0  1  0  0  0  0  0  0  0  0  0
    4.6608  -14.0279   -8.1763 O   0  0  0  0  0  0  0  0  0  0  0  0
    5.4097  -15.6121   -6.6818 C   0  0  1  0  0  0  0  0  0  0  0  0
    6.4930  -15.9583   -5.8679 O   0  0  0  0  0  0  0  0  0  0  0  0
    4.3876  -14.7498   -5.9746 C   0  0  1  0  0  0  0  0  0  0  0  0
    5.0311  -13.8710   -5.0743 O   0  0  0  0  0  0  0  0  0  0  0  0
    3.7516  -13.9333   -7.0941 C   0  0  2  0  0  0  0  0  0  0  0  0
    2.3814  -14.3622   -7.4877 N   0  0  0  0  0  0  0  0  0  0  0  0
    1.3084  -13.5252   -7.6644 C   0  0  0  0  0  0  0  0  0  0  0  0
    0.2286  -14.2569   -8.0194 N   0  0  0  0  0  0  0  0  0  0  0  0
    0.5871  -15.5497   -8.0835 C   0  0  0  0  0  0  0  0  0  0  0  0
   -0.1218  -16.6971   -8.4055 C   0  0  0  0  0  0  0  0  0  0  0  0
   -1.4057  -16.6224   -8.7304 N   0  0  0  0  0  0  0  0  0  0  0  0
    0.5267  -17.9161   -8.3897 N   0  0  0  0  0  0  0  0  0  0  0  0
    1.8732  -18.0079   -8.0608 C   0  0  0  0  0  0  0  0  0  0  0  0
    2.5637  -16.8545   -7.7488 N   0  0  0  0  0  0  0  0  0  0  0  0
    1.9364  -15.6422   -7.7513 C   0  0  0  0  0  0  0  0  0  0  0  0
  2  3  1  1  0  0  0
  2  6  1  0  0  0  0
  2  1  1  0  0  0  0
  4  3  2  0  0  0  0
  5  3  1  0  0  0  0
  6  7  2  0  0  0  0
  8  7  1  6  0  0  0
  8  9  1  0  0  0  0
  8 10  1  0  0  0  0
 11 10  1  6  0  0  0
 11 13  1  0  0  0  0
 12 11  1  0  0  0  0
 12 17  1  0  0  0  0
 13 14  1  1  0  0  0
 13 15  1  0  0  0  0
 15 16  1  1  0  0  0
 17 18  1  6  0  0  0
 17 15  1  0  0  0  0
 18 19  1  0  0  0  0
 20 19  2  0  0  0  0
 21 27  2  0  0  0  0
 21 20  1  0  0  0  0
 22 21  1  0  0  0  0
 23 22  1  0  0  0  0
 24 22  2  0  0  0  0
 24 25  1  0  0  0  0
 25 26  2  0  0  0  0
 26 27  1  0  0  0  0
 27 18  1  0  0  0  0
M  END
>  <CHROM.1>
-79.50130727,61.70740898,57.07003286,-86.33675108,49.97295801,-107.70214779
3.48388017,-15.27236115,-8.94937308,3.10838006,0.21747263,1.51907997

>  <Name>
lig.pdb

>  <RI>
0

>  <Rbt.Current_Directory>
/home/itssahil/PROJECTS/Mol_Feturizer/New_Systems/rnas/4b5r

>  <Rbt.Executable>
rbdock ($Id: //depot/dev/client3/rdock/2013.1/src/exe/rbdock.cxx#4 $)

>  <Rbt.Library>
libRbt.so (2013.1, Build901 2013/11/27)

>  <Rbt.Parameter_File>
/export/apps/rDock/src/rDock_2013.1_src/data/scripts/dock_solv.prm

>  <Rbt.Receptor>
prm/pocket_docking_2.prm

>  <SCORE>
-17.2477

>  <SCORE.INTER>
-16.6932

>  <SCORE.INTER.CONST>
1

>  <SCORE.INTER.POLAR>
0

>  <SCORE.INTER.ROT>
6

>  <SCORE.INTER.SOLV>
15.6096

>  <SCORE.INTER.VDW>
-23.932

>  <SCORE.INTER.norm>
-0.618267

>  <SCORE.INTRA>
-0.62957

>  <SCORE.INTRA.DIHEDRAL>
2.23697

>  <SCORE.INTRA.DIHEDRAL.0>
10.2917

>  <SCORE.INTRA.POLAR>
0

>  <SCORE.INTRA.POLAR.0>
0

>  <SCORE.INTRA.REPUL>
0

>  <SCORE.INTRA.REPUL.0>
0

>  <SCORE.INTRA.SOLV>
-1.10059

>  <SCORE.INTRA.SOLV.lig_0>
-39.6315

>  <SCORE.INTRA.VDW>
-1.19776

>  <SCORE.INTRA.VDW.0>
-4.02152

>  <SCORE.INTRA.norm>
-0.0233174

>  <SCORE.RESTR>
0.0751151

>  <SCORE.RESTR.CAVITY>
0.0751151

>  <SCORE.RESTR.norm>
0.00278204

>  <SCORE.SYSTEM>
0

>  <SCORE.SYSTEM.CONST>
0

>  <SCORE.SYSTEM.DIHEDRAL>
0

>  <SCORE.SYSTEM.SOLV>
0

>  <SCORE.SYSTEM.norm>
0

>  <SCORE.heavy>
27

>  <SCORE.norm>
-0.638802

>  <RMSD>
1.144

$$$$
lig.pdb
 OpenBabel11021811493D
libRbt.so/2013.1/901 2013/11/27
 27 29  0  0  0  0  0  0  0  0999 V2000
    3.6836  -17.4516  -12.9169 N   0  0  0  0  0  0  0  0  0  0  0  0
    3.4508  -16.3163  -11.9730 C   0  0  2  0  0  0  0  0  0  0  0  0
    2.7997  -15.1627  -12.7302 C   0  0  0  0  0  0  0  0  0  0  0  0
    3.3567  -14.6969  -13.7174 O   0  0  0  0  0  0  0  0  0  0  0  0
    1.7209  -14.6609  -12.3892 O   0  0  0  0  0  0  0  0  0  0  0  0
    4.7200  -15.8638  -11.2232 C   0  0  0  0  0  0  0  0  0  0  0  0
    4.8163  -14.3590  -10.8588 C   0  0  0  0  0  0  0  0  0  0  0  0
    6.3120  -13.7499   -9.9669 S   0  0  2  0  0  0  0  0  0  0  0  0
    7.6376  -14.3839  -11.0158 C   0  0  0  0  0  0  0  0  0  0  0  0
    6.4625  -14.8820   -8.5679 C   0  0  0  0  0  0  0  0  0  0  0  0
    5.6882  -14.3322   -7.3771 C   0  0  1  0  0  0  0  0  0  0  0  0
    4.4646  -13.7205   -7.7563 O   0  0  0  0  0  0  0  0  0  0  0  0
    5.2707  -15.3980   -6.3998 C   0  0  1  0  0  0  0  0  0  0  0  0
    6.3518  -15.7585   -5.5891 O   0  0  0  0  0  0  0  0  0  0  0  0
    4.1791  -14.6718   -5.6453 C   0  0  1  0  0  0  0  0  0  0  0  0
    4.7431  -13.8501   -4.6436 O   0  0  0  0  0  0  0  0  0  0  0  0
    3.5233  -13.7874   -6.6999 C   0  0  2  0  0  0  0  0  0  0  0  0
    2.1930  -14.2554   -7.1772 N   0  0  0  0  0  0  0  0  0  0  0  0
    1.1008  -13.4533   -7.3933 C   0  0  0  0  0  0  0  0  0  0  0  0
    0.0695  -14.2142   -7.8231 N   0  0  0  0  0  0  0  0  0  0  0  0
    0.4786  -15.4914   -7.8966 C   0  0  0  0  0  0  0  0  0  0  0  0
   -0.1689  -16.6552   -8.2824 C   0  0  0  0  0  0  0  0  0  0  0  0
   -1.4354  -16.6186   -8.6751 N   0  0  0  0  0  0  0  0  0  0  0  0
    0.5225  -17.8502   -8.2587 N   0  0  0  0  0  0  0  0  0  0  0  0
    1.8519  -17.9018   -7.8590 C   0  0  0  0  0  0  0  0  0  0  0  0
    2.4814  -16.7323   -7.4840 N   0  0  0  0  0  0  0  0  0  0  0  0
    1.8106  -15.5436   -7.4934 C   0  0  0  0  0  0  0  0  0  0  0  0
  2  3  1  6  0  0  0
  2  6  1  0  0  0  0
  2  1  1  0  0  0  0
  4  3  2  0  0  0  0
  5  3  1  0  0  0  0
  6  7  2  0  0  0  0
  8  7  1  6  0  0  0
  8  9  1  0  0  0  0
  8 10  1  0  0  0  0
 11 10  1  6  0  0  0
 11 13  1  0  0  0  0
 12 11  1  0  0  0  0
 12 17  1  0  0  0  0
 13 14  1  1  0  0  0
 13 15  1  0  0  0  0
 15 16  1  1  0  0  0
 17 18  1  6  0  0  0
 17 15  1  0  0  0  0
 18 19  1  0  0  0  0
 20 19  2  0  0  0  0
 21 27  2  0  0  0  0
 21 20  1  0  0  0  0
 22 21  1  0  0  0  0
 23 22  1  0  0  0  0
 24 22  2  0  0  0  0
 24 25  1  0  0  0  0
 25 26  2  0  0  0  0
 26 27  1  0  0  0  0
 27 18  1  0  0  0  0
M  END
>  <CHROM.1>
-56.61938760,148.15546385,52.02248486,-90.36060019,38.65532805,-102.97188892
3.46550465,-15.15402167,-8.87132307,1.18729730,-0.29154883,-1.66286723

>  <Name>
lig.pdb

>  <RI>
0

>  <Rbt.Current_Directory>
/home/itssahil/PROJECTS/Mol_Feturizer/New_Systems/rnas/4b5r

>  <Rbt.Executable>
rbdock ($Id: //depot/dev/client3/rdock/2013.1/src/exe/rbdock.cxx#4 $)

>  <Rbt.Library>
libRbt.so (2013.1, Build901 2013/11/27)

>  <Rbt.Parameter_File>
/export/apps/rDock/src/rDock_2013.1_src/data/scripts/dock_solv.prm

>  <Rbt.Receptor>
prm/pocket_docking_5.prm

>  <SCORE>
-17.7679

>  <SCORE.INTER>
-18.7748

>  <SCORE.INTER.CONST>
1

>  <SCORE.INTER.POLAR>
0

>  <SCORE.INTER.ROT>
6

>  <SCORE.INTER.SOLV>
17.8184

>  <SCORE.INTER.VDW>
-26.056

>  <SCORE.INTER.norm>
-0.695361

>  <SCORE.INTRA>
1.00684

>  <SCORE.INTRA.DIHEDRAL>
2.36237

>  <SCORE.INTRA.DIHEDRAL.0>
10.2917

>  <SCORE.INTRA.POLAR>
0

>  <SCORE.INTRA.POLAR.0>
0

>  <SCORE.INTRA.REPUL>
0

>  <SCORE.INTRA.REPUL.0>
0

>  <SCORE.INTRA.SOLV>
-2.60419

>  <SCORE.INTRA.SOLV.lig_0>
-39.6315

>  <SCORE.INTRA.VDW>
1.12775

>  <SCORE.INTRA.VDW.0>
-4.02152

>  <SCORE.INTRA.norm>
0.0372904

>  <SCORE.RESTR>
0

>  <SCORE.RESTR.CAVITY>
0

>  <SCORE.RESTR.norm>
0

>  <SCORE.SYSTEM>
0

>  <SCORE.SYSTEM.CONST>
0

>  <SCORE.SYSTEM.DIHEDRAL>
0

>  <SCORE.SYSTEM.SOLV>
0

>  <SCORE.SYSTEM.norm>
0

>  <SCORE.heavy>
27

>  <SCORE.norm>
-0.658071

>  <RMSD>
1.153

$$$$
lig.pdb
 OpenBabel11021811493D
libRbt.so/2013.1/901 2013/11/27
 27 29  0  0  0  0  0  0  0  0999 V2000
    3.6332  -15.3678  -13.7633 N   0  0  0  0  0  0  0  0  0  0  0  0
    3.3065  -15.7552  -12.3572 C   0  0  2  0  0  0  0  0  0  0  0  0
    1.9924  -15.0953  -11.9499 C   0  0  0  0  0  0  0  0  0  0  0  0
    1.0171  -15.1853  -12.6864 O   0  0  0  0  0  0  0  0  0  0  0  0
    1.8602  -14.4580  -10.8972 O   0  0  0  0  0  0  0  0  0  0  0  0
    4.4353  -15.4491  -11.3522 C   0  0  0  0  0  0  0  0  0  0  0  0
    5.2088  -14.1197  -11.5548 C   0  0  0  0  0  0  0  0  0  0  0  0
    6.5761  -13.6956  -10.3911 S   0  0  2  0  0  0  0  0  0  0  0  0
    8.0111  -14.3477  -11.2715 C   0  0  0  0  0  0  0  0  0  0  0  0
    6.4266  -14.9386   -9.0894 C   0  0  0  0  0  0  0  0  0  0  0  0
    5.7100  -14.3388   -7.8868 C   0  0  1  0  0  0  0  0  0  0  0  0
    4.4779  -13.7255   -8.2349 O   0  0  0  0  0  0  0  0  0  0  0  0
    5.3233  -15.3651   -6.8561 C   0  0  1  0  0  0  0  0  0  0  0  0
    6.4342  -15.7107   -6.0798 O   0  0  0  0  0  0  0  0  0  0  0  0
    4.2728  -14.6001   -6.0817 C   0  0  1  0  0  0  0  0  0  0  0  0
    4.8881  -13.7514   -5.1341 O   0  0  0  0  0  0  0  0  0  0  0  0
    3.5820  -13.7446   -7.1378 C   0  0  2  0  0  0  0  0  0  0  0  0
    2.2276  -14.2123   -7.5416 N   0  0  0  0  0  0  0  0  0  0  0  0
    1.1576  -13.3991   -7.8186 C   0  0  0  0  0  0  0  0  0  0  0  0
    0.0934  -14.1637   -8.1507 N   0  0  0  0  0  0  0  0  0  0  0  0
    0.4594  -15.4551   -8.1015 C   0  0  0  0  0  0  0  0  0  0  0  0
   -0.2334  -16.6289   -8.3559 C   0  0  0  0  0  0  0  0  0  0  0  0
   -1.5060  -16.5887   -8.7279 N   0  0  0  0  0  0  0  0  0  0  0  0
    0.4194  -17.8385   -8.2234 N   0  0  0  0  0  0  0  0  0  0  0  0
    1.7546  -17.8951   -7.8440 C   0  0  0  0  0  0  0  0  0  0  0  0
    2.4293  -16.7160   -7.6007 N   0  0  0  0  0  0  0  0  0  0  0  0
    1.7972  -15.5120   -7.7188 C   0  0  0  0  0  0  0  0  0  0  0  0
  2  3  1  1  0  0  0
  2  6  1  0  0  0  0
  2  1  1  0  0  0  0
  4  3  2  0  0  0  0
  5  3  1  0  0  0  0
  6  7  2  0  0  0  0
  8  7  1  6  0  0  0
  8  9  1  0  0  0  0
  8 10  1  0  0  0  0
 11 10  1  6  0  0  0
 11 13  1  0  0  0  0
 12 11  1  0  0  0  0
 12 17  1  0  0  0  0
 13 14  1  1  0  0  0
 13 15  1  0  0  0  0
 15 16  1  1  0  0  0
 17 18  1  6  0  0  0
 17 15  1  0  0  0  0
 18 19  1  0  0  0  0
 20 19  2  0  0  0  0
 21 27  2  0  0  0  0
 21 20  1  0  0  0  0
 22 21  1  0  0  0  0
 23 22  1  0  0  0  0
 24 22  2  0  0  0  0
 24 25  1  0  0  0  0
 25 26  2  0  0  0  0
 26 27  1  0  0  0  0
 27 18  1  0  0  0  0
M  END
>  <CHROM.1>
49.49485331,39.09994525,93.63910220,-100.11153885,52.25789074,-98.74015632
3.38932882,-15.02369791,-9.05804606,0.12977610,-0.27063645,-1.56766369

>  <Name>
lig.pdb

>  <RI>
0

>  <Rbt.Current_Directory>
/home/itssahil/PROJECTS/Mol_Feturizer/New_Systems/rnas/4b5r

>  <Rbt.Executable>
rbdock ($Id: //depot/dev/client3/rdock/2013.1/src/exe/rbdock.cxx#4 $)

>  <Rbt.Library>
libRbt.so (2013.1, Build901 2013/11/27)

>  <Rbt.Parameter_File>
/export/apps/rDock/src/rDock_2013.1_src/data/scripts/dock_solv.prm

>  <Rbt.Receptor>
prm/pocket_docking_2.prm

>  <SCORE>
-18.4304

>  <SCORE.INTER>
-18.5652

>  <SCORE.INTER.CONST>
1

>  <SCORE.INTER.POLAR>
0

>  <SCORE.INTER.ROT>
6

>  <SCORE.INTER.SOLV>
17.6415

>  <SCORE.INTER.VDW>
-25.8573

>  <SCORE.INTER.norm>
-0.6876

>  <SCORE.INTRA>
0.129442

>  <SCORE.INTRA.DIHEDRAL>
2.13605

>  <SCORE.INTRA.DIHEDRAL.0>
10.2917

>  <SCORE.INTRA.POLAR>
0

>  <SCORE.INTRA.POLAR.0>
0

>  <SCORE.INTRA.REPUL>
0.0913446

>  <SCORE.INTRA.REPUL.0>
0

>  <SCORE.INTRA.SOLV>
-2.61881

>  <SCORE.INTRA.SOLV.lig_0>
-39.6315

>  <SCORE.INTRA.VDW>
-0.085901

>  <SCORE.INTRA.VDW.0>
-4.02152

>  <SCORE.INTRA.norm>
0.00479414

>  <SCORE.RESTR>
0.00536508

>  <SCORE.RESTR.CAVITY>
0.00536508

>  <SCORE.RESTR.norm>
0.000198707

>  <SCORE.SYSTEM>
0

>  <SCORE.SYSTEM.CONST>
0

>  <SCORE.SYSTEM.DIHEDRAL>
0

>  <SCORE.SYSTEM.SOLV>
0

>  <SCORE.SYSTEM.norm>
0

>  <SCORE.heavy>
27

>  <SCORE.norm>
-0.682607

>  <RMSD>
1.160

$$$$
lig.pdb
 OpenBabel11021811493D
libRbt.so/2013.1/901 2013/11/27
 27 29  0  0  0  0  0  0  0  0999 V2000
    3.3304  -15.5433  -13.6279 N   0  0  0  0  0  0  0  0  0  0  0  0
    3.2667  -15.9707  -12.1971 C   0  0  2  0  0  0  0  0  0  0  0  0
    2.0380  -15.3454  -11.5432 C   0  0  0  0  0  0  0  0  0  0  0  0
    2.0620  -14.1644  -11.2172 O   0  0  0  0  0  0  0  0  0  0  0  0
    1.0017  -15.9829  -11.3165 O   0  0  0  0  0  0  0  0  0  0  0  0
    4.5532  -15.6684  -11.4024 C   0  0  0  0  0  0  0  0  0  0  0  0
    4.9165  -14.1733  -11.2047 C   0  0  0  0  0  0  0  0  0  0  0  0
    6.4466  -13.7420  -10.2687 S   0  0  2  0  0  0  0  0  0  0  0  0
    7.7252  -14.4607  -11.3214 C   0  0  0  0  0  0  0  0  0  0  0  0
    6.4641  -14.9335   -8.9116 C   0  0  0  0  0  0  0  0  0  0  0  0
    5.7248  -14.3560   -7.7119 C   0  0  1  0  0  0  0  0  0  0  0  0
    4.4803  -13.7720   -8.0663 O   0  0  0  0  0  0  0  0  0  0  0  0
    5.3565  -15.3953   -6.6874 C   0  0  1  0  0  0  0  0  0  0  0  0
    6.4702  -15.7162   -5.9047 O   0  0  0  0  0  0  0  0  0  0  0  0
    4.2822  -14.6593   -5.9177 C   0  0  1  0  0  0  0  0  0  0  0  0
    4.8698  -13.7990   -4.9629 O   0  0  0  0  0  0  0  0  0  0  0  0
    3.5777  -13.8171   -6.9755 C   0  0  2  0  0  0  0  0  0  0  0  0
    2.2380  -14.3167   -7.3902 N   0  0  0  0  0  0  0  0  0  0  0  0
    1.1174  -13.5413   -7.5513 C   0  0  0  0  0  0  0  0  0  0  0  0
    0.0856  -14.3266   -7.9338 N   0  0  0  0  0  0  0  0  0  0  0  0
    0.5219  -15.5931   -8.0311 C   0  0  0  0  0  0  0  0  0  0  0  0
   -0.1145  -16.7717   -8.3895 C   0  0  0  0  0  0  0  0  0  0  0  0
   -1.3989  -16.7655   -8.7211 N   0  0  0  0  0  0  0  0  0  0  0  0
    0.6064  -17.9493   -8.4028 N   0  0  0  0  0  0  0  0  0  0  0  0
    1.9542  -17.9690   -8.0672 C   0  0  0  0  0  0  0  0  0  0  0  0
    2.5721  -16.7852   -7.7187 N   0  0  0  0  0  0  0  0  0  0  0  0
    1.8726  -15.6133   -7.6922 C   0  0  0  0  0  0  0  0  0  0  0  0
  2  3  1  1  0  0  0
  2  6  1  0  0  0  0
  2  1  1  0  0  0  0
  4  3  2  0  0  0  0
  5  3  1  0  0  0  0
  6  7  2  0  0  0  0
  8  7  1  6  0  0  0
  8  9  1  0  0  0  0
  8 10  1  0  0  0  0
 11 10  1  6  0  0  0
 11 13  1  0  0  0  0
 12 11  1  0  0  0  0
 12 17  1  0  0  0  0
 13 14  1  1  0  0  0
 13 15  1  0  0  0  0
 15 16  1  1  0  0  0
 17 18  1  6  0  0  0
 17 15  1  0  0  0  0
 18 19  1  0  0  0  0
 20 19  2  0  0  0  0
 21 27  2  0  0  0  0
 21 20  1  0  0  0  0
 22 21  1  0  0  0  0
 23 22  1  0  0  0  0
 24 22  2  0  0  0  0
 24 25  1  0  0  0  0
 25 26  2  0  0  0  0
 26 27  1  0  0  0  0
 27 18  1  0  0  0  0
M  END
>  <CHROM.1>
-77.12045701,65.09825385,63.08208273,-90.40274705,46.58858910,-105.16517469
3.39163918,-15.13401671,-8.91814709,3.12098315,0.30113092,1.52392771

>  <Name>
lig.pdb

>  <RI>
0

>  <Rbt.Current_Directory>
/home/itssahil/PROJECTS/Mol_Feturizer/New_Systems/rnas/4b5r

>  <Rbt.Executable>
rbdock ($Id: //depot/dev/client3/rdock/2013.1/src/exe/rbdock.cxx#4 $)

>  <Rbt.Library>
libRbt.so (2013.1, Build901 2013/11/27)

>  <Rbt.Parameter_File>
/export/apps/rDock/src/rDock_2013.1_src/data/scripts/dock_solv.prm

>  <Rbt.Receptor>
prm/pocket_docking_2.prm

>  <SCORE>
-17.6882

>  <SCORE.INTER>
-17.6657

>  <SCORE.INTER.CONST>
1

>  <SCORE.INTER.POLAR>
0

>  <SCORE.INTER.ROT>
6

>  <SCORE.INTER.SOLV>
16.3537

>  <SCORE.INTER.VDW>
-24.8284

>  <SCORE.INTER.norm>
-0.654287

>  <SCORE.INTRA>
-0.162708

>  <SCORE.INTRA.DIHEDRAL>
2.81374

>  <SCORE.INTRA.DIHEDRAL.0>
10.2917

>  <SCORE.INTRA.POLAR>
0

>  <SCORE.INTRA.POLAR.0>
0

>  <SCORE.INTRA.REPUL>
0

>  <SCORE.INTRA.REPUL.0>
0

>  <SCORE.INTRA.SOLV>
-1.42632

>  <SCORE.INTRA.SOLV.lig_0>
-39.6315

>  <SCORE.INTRA.VDW>
-0.85642

>  <SCORE.INTRA.VDW.0>
-4.02152

>  <SCORE.INTRA.norm>
-0.00602621

>  <SCORE.RESTR>
0.140207

>  <SCORE.RESTR.CAVITY>
0.140207

>  <SCORE.RESTR.norm>
0.00519283

>  <SCORE.SYSTEM>
0

>  <SCORE.SYSTEM.CONST>
0

>  <SCORE.SYSTEM.DIHEDRAL>
0

>  <SCORE.SYSTEM.SOLV>
0

>  <SCORE.SYSTEM.norm>
0

>  <SCORE.heavy>
27

>  <SCORE.norm>
-0.65512

>  <RMSD>
1.163

$$$$
lig.pdb
 OpenBabel11021811493D
libRbt.so/2013.1/901 2013/11/27
 27 29  0  0  0  0  0  0  0  0999 V2000
    2.4782  -17.0419  -12.4314 N   0  0  0  0  0  0  0  0  0  0  0  0
    2.9720  -15.7690  -11.8232 C   0  0  2  0  0  0  0  0  0  0  0  0
    3.1166  -14.7157  -12.9176 C   0  0  0  0  0  0  0  0  0  0  0  0
    3.0543  -15.0537  -14.0939 O   0  0  0  0  0  0  0  0  0  0  0  0
    3.3022  -13.5165  -12.6737 O   0  0  0  0  0  0  0  0  0  0  0  0
    4.2736  -15.9337  -11.0129 C   0  0  0  0  0  0  0  0  0  0  0  0
    5.4779  -15.0541  -11.4401 C   0  0  0  0  0  0  0  0  0  0  0  0
    7.0676  -15.2066  -10.5165 S   0  0  2  0  0  0  0  0  0  0  0  0
    7.7996  -16.6589  -11.3005 C   0  0  0  0  0  0  0  0  0  0  0  0
    6.5733  -15.9296   -8.9371 C   0  0  0  0  0  0  0  0  0  0  0  0
    5.9367  -14.8598   -8.0597 C   0  0  1  0  0  0  0  0  0  0  0  0
    4.8007  -14.2613   -8.6652 O   0  0  0  0  0  0  0  0  0  0  0  0
    5.4088  -15.3996   -6.7576 C   0  0  1  0  0  0  0  0  0  0  0  0
    6.4581  -15.5836   -5.8515 O   0  0  0  0  0  0  0  0  0  0  0  0
    4.4663  -14.2865   -6.3564 C   0  0  1  0  0  0  0  0  0  0  0  0
    5.1845  -13.2410   -5.7334 O   0  0  0  0  0  0  0  0  0  0  0  0
    3.9037  -13.7804   -7.6799 C   0  0  2  0  0  0  0  0  0  0  0  0
    2.5011  -14.1889   -7.9666 N   0  0  0  0  0  0  0  0  0  0  0  0
    1.4651  -13.3311   -8.2385 C   0  0  0  0  0  0  0  0  0  0  0  0
    0.3388  -14.0484   -8.4492 N   0  0  0  0  0  0  0  0  0  0  0  0
    0.6307  -15.3537   -8.3269 C   0  0  0  0  0  0  0  0  0  0  0  0
   -0.1445  -16.4963   -8.4523 C   0  0  0  0  0  0  0  0  0  0  0  0
   -1.4338  -16.4020   -8.7496 N   0  0  0  0  0  0  0  0  0  0  0  0
    0.4434  -17.7324   -8.2701 N   0  0  0  0  0  0  0  0  0  0  0  0
    1.7944  -17.8465   -7.9680 C   0  0  0  0  0  0  0  0  0  0  0  0
    2.5514  -16.6983   -7.8529 N   0  0  0  0  0  0  0  0  0  0  0  0
    1.9847  -15.4680   -8.0215 C   0  0  0  0  0  0  0  0  0  0  0  0
  2  3  1  6  0  0  0
  2  6  1  0  0  0  0
  2  1  1  0  0  0  0
  4  3  2  0  0  0  0
  5  3  1  0  0  0  0
  6  7  2  0  0  0  0
  8  7  1  6  0  0  0
  8  9  1  0  0  0  0
  8 10  1  0  0  0  0
 11 10  1  6  0  0  0
 11 13  1  0  0  0  0
 12 11  1  0  0  0  0
 12 17  1  0  0  0  0
 13 14  1  1  0  0  0
 13 15  1  0  0  0  0
 15 16  1  6  0  0  0
 17 18  1  6  0  0  0
 17 15  1  0  0  0  0
 18 19  1  0  0  0  0
 20 19  2  0  0  0  0
 21 27  2  0  0  0  0
 21 20  1  0  0  0  0
 22 21  1  0  0  0  0
 23 22  1  0  0  0  0
 24 22  2  0  0  0  0
 24 25  1  0  0  0  0
 25 26  2  0  0  0  0
 26 27  1  0  0  0  0
 27 18  1  0  0  0  0
M  END
>  <CHROM.1>
-12.08425675,123.09537413,82.09746742,-76.79420998,58.62004668,-116.54530059
3.66075016,-15.30112206,-9.28091941,2.92948763,0.12086008,1.48300158

>  <Name>
lig.pdb

>  <RI>
0

>  <Rbt.Current_Directory>
/home/itssahil/PROJECTS/Mol_Feturizer/New_Systems/rnas/4b5r

>  <Rbt.Executable>
rbdock ($Id: //depot/dev/client3/rdock/2013.1/src/exe/rbdock.cxx#4 $)

>  <Rbt.Library>
libRbt.so (2013.1, Build901 2013/11/27)

>  <Rbt.Parameter_File>
/export/apps/rDock/src/rDock_2013.1_src/data/scripts/dock_solv.prm

>  <Rbt.Receptor>
prm/pocket_docking_2.prm

>  <SCORE>
-15.7119

>  <SCORE.INTER>
-14.4207

>  <SCORE.INTER.CONST>
1

>  <SCORE.INTER.POLAR>
0

>  <SCORE.INTER.ROT>
6

>  <SCORE.INTER.SOLV>
15.12

>  <SCORE.INTER.VDW>
-22.2538

>  <SCORE.INTER.norm>
-0.534099

>  <SCORE.INTRA>
-1.34673

>  <SCORE.INTRA.DIHEDRAL>
-1.91083

>  <SCORE.INTRA.DIHEDRAL.0>
10.2917

>  <SCORE.INTRA.POLAR>
0

>  <SCORE.INTRA.POLAR.0>
0

>  <SCORE.INTRA.REPUL>
0

>  <SCORE.INTRA.REPUL.0>
0

>  <SCORE.INTRA.SOLV>
-2.11411

>  <SCORE.INTRA.SOLV.lig_0>
-39.6315

>  <SCORE.INTRA.VDW>
0.665746

>  <SCORE.INTRA.VDW.0>
-4.02152

>  <SCORE.INTRA.norm>
-0.0498787

>  <SCORE.RESTR>
0.0555531

>  <SCORE.RESTR.CAVITY>
0.0555531

>  <SCORE.RESTR.norm>
0.00205752

>  <SCORE.SYSTEM>
0

>  <SCORE.SYSTEM.CONST>
0

>  <SCORE.SYSTEM.DIHEDRAL>
0

>  <SCORE.SYSTEM.SOLV>
0

>  <SCORE.SYSTEM.norm>
0

>  <SCORE.heavy>
27

>  <SCORE.norm>
-0.58192

>  <RMSD>
1.177

$$$$
lig.pdb
 OpenBabel11021811493D
libRbt.so/2013.1/901 2013/11/27
 27 29  0  0  0  0  0  0  0  0999 V2000
    2.7290  -14.4033  -12.6748 N   0  0  0  0  0  0  0  0  0  0  0  0
    3.1277  -15.6471  -11.9482 C   0  0  2  0  0  0  0  0  0  0  0  0
    1.9859  -16.0785  -11.0327 C   0  0  0  0  0  0  0  0  0  0  0  0
    0.9492  -15.4253  -11.0104 O   0  0  0  0  0  0  0  0  0  0  0  0
    2.0563  -17.0693  -10.2942 O   0  0  0  0  0  0  0  0  0  0  0  0
    4.4581  -15.5160  -11.1797 C   0  0  0  0  0  0  0  0  0  0  0  0
    5.0397  -14.0857  -11.0298 C   0  0  0  0  0  0  0  0  0  0  0  0
    6.6325  -13.8591  -10.1269 S   0  0  2  0  0  0  0  0  0  0  0  0
    7.7863  -14.7246  -11.2127 C   0  0  0  0  0  0  0  0  0  0  0  0
    6.5291  -15.0547   -8.7772 C   0  0  0  0  0  0  0  0  0  0  0  0
    5.7808  -14.4389   -7.6023 C   0  0  1  0  0  0  0  0  0  0  0  0
    4.5587  -13.8303   -7.9913 O   0  0  0  0  0  0  0  0  0  0  0  0
    5.3661  -15.4516   -6.5688 C   0  0  1  0  0  0  0  0  0  0  0  0
    6.4556  -15.7869   -5.7586 O   0  0  0  0  0  0  0  0  0  0  0  0
    4.2956  -14.6763   -5.8331 C   0  0  1  0  0  0  0  0  0  0  0  0
    4.8855  -13.8152   -4.8806 O   0  0  0  0  0  0  0  0  0  0  0  0
    3.6337  -13.8347   -6.9185 C   0  0  2  0  0  0  0  0  0  0  0  0
    2.2904  -14.3077   -7.3523 N   0  0  0  0  0  0  0  0  0  0  0  0
    1.2195  -13.4992   -7.6394 C   0  0  0  0  0  0  0  0  0  0  0  0
    0.1673  -14.2676   -7.9996 N   0  0  0  0  0  0  0  0  0  0  0  0
    0.5421  -15.5568   -7.9587 C   0  0  0  0  0  0  0  0  0  0  0  0
   -0.1371  -16.7326   -8.2393 C   0  0  0  0  0  0  0  0  0  0  0  0
   -1.4030  -16.6974   -8.6339 N   0  0  0  0  0  0  0  0  0  0  0  0
    0.5224  -17.9388   -8.1089 N   0  0  0  0  0  0  0  0  0  0  0  0
    1.8508  -17.9900   -7.7060 C   0  0  0  0  0  0  0  0  0  0  0  0
    2.5121  -16.8090   -7.4367 N   0  0  0  0  0  0  0  0  0  0  0  0
    1.8731  -15.6083   -7.5524 C   0  0  0  0  0  0  0  0  0  0  0  0
  2  3  1  1  0  0  0
  2  6  1  0  0  0  0
  2  1  1  0  0  0  0
  4  3  2  0  0  0  0
  5  3  1  0  0  0  0
  6  7  2  0  0  0  0
  8  7  1  6  0  0  0
  8  9  1  0  0  0  0
  8 10  1  0  0  0  0
 11 10  1  6  0  0  0
 11 13  1  0  0  0  0
 12 11  1  0  0  0  0
 12 17  1  0  0  0  0
 13 14  1  1  0  0  0
 13 15  1  0  0  0  0
 15 16  1  1  0  0  0
 17 18  1  6  0  0  0
 17 15  1  0  0  0  0
 18 19  1  0  0  0  0
 20 19  2  0  0  0  0
 21 27  2  0  0  0  0
 21 20  1  0  0  0  0
 22 21  1  0  0  0  0
 23 22  1  0  0  0  0
 24 22  2  0  0  0  0
 24 25  1  0  0  0  0
 25 26  2  0  0  0  0
 26 27  1  0  0  0  0
 27 18  1  0  0  0  0
M  END
>  <CHROM.1>
0.99100331,11.61446821,65.42675587,-85.22243577,49.08523072,-100.31260081
3.38950085,-15.22137683,-8.70782308,3.13070416,0.30370091,1.54329724

>  <Name>
lig.pdb

>  <RI>
0

>  <Rbt.Current_Directory>
/home/itssahil/PROJECTS/Mol_Feturizer/New_Systems/rnas/4b5r

>  <Rbt.Executable>
rbdock ($Id: //depot/dev/client3/rdock/2013.1/src/exe/rbdock.cxx#4 $)

>  <Rbt.Library>
libRbt.so (2013.1, Build901 2013/11/27)

>  <Rbt.Parameter_File>
/export/apps/rDock/src/rDock_2013.1_src/data/scripts/dock_solv.prm

>  <Rbt.Receptor>
prm/pocket_docking_2.prm

>  <SCORE>
-17.1431

>  <SCORE.INTER>
-16.498

>  <SCORE.INTER.CONST>
1

>  <SCORE.INTER.POLAR>
0

>  <SCORE.INTER.ROT>
6

>  <SCORE.INTER.SOLV>
17.4572

>  <SCORE.INTER.VDW>
-24.4177

>  <SCORE.INTER.norm>
-0.611036

>  <SCORE.INTRA>
-1.12581

>  <SCORE.INTRA.DIHEDRAL>
-0.277239

>  <SCORE.INTRA.DIHEDRAL.0>
10.2917

>  <SCORE.INTRA.POLAR>
0

>  <SCORE.INTRA.POLAR.0>
0

>  <SCORE.INTRA.REPUL>
0

>  <SCORE.INTRA.REPUL.0>
0

>  <SCORE.INTRA.SOLV>
-0.323229

>  <SCORE.INTRA.SOLV.lig_0>
-39.6315

>  <SCORE.INTRA.VDW>
-0.825575

>  <SCORE.INTRA.VDW.0>
-4.02152

>  <SCORE.INTRA.norm>
-0.0416966

>  <SCORE.RESTR>
0.480665

>  <SCORE.RESTR.CAVITY>
0.480665

>  <SCORE.RESTR.norm>
0.0178024

>  <SCORE.SYSTEM>
0

>  <SCORE.SYSTEM.CONST>
0

>  <SCORE.SYSTEM.DIHEDRAL>
0

>  <SCORE.SYSTEM.SOLV>
0

>  <SCORE.SYSTEM.norm>
0

>  <SCORE.heavy>
27

>  <SCORE.norm>
-0.63493

>  <RMSD>
1.209

$$$$
lig.pdb
 OpenBabel11021811493D
libRbt.so/2013.1/901 2013/11/27
 27 29  0  0  0  0  0  0  0  0999 V2000
    3.4674  -16.2626  -13.1700 N   0  0  0  0  0  0  0  0  0  0  0  0
    2.9289  -16.0452  -11.7928 C   0  0  2  0  0  0  0  0  0  0  0  0
    1.6719  -15.1846  -11.8781 C   0  0  0  0  0  0  0  0  0  0  0  0
    1.3760  -14.4522  -10.9411 O   0  0  0  0  0  0  0  0  0  0  0  0
    0.9194  -15.1924  -12.8607 O   0  0  0  0  0  0  0  0  0  0  0  0
    3.9604  -15.4546  -10.8105 C   0  0  0  0  0  0  0  0  0  0  0  0
    5.1006  -14.6010  -11.4253 C   0  0  0  0  0  0  0  0  0  0  0  0
    6.3722  -13.8701  -10.3062 S   0  0  2  0  0  0  0  0  0  0  0  0
    7.9008  -14.3549  -11.1355 C   0  0  0  0  0  0  0  0  0  0  0  0
    6.4107  -15.0097   -8.9057 C   0  0  0  0  0  0  0  0  0  0  0  0
    5.6889  -14.3876   -7.7176 C   0  0  1  0  0  0  0  0  0  0  0  0
    4.4506  -13.7953   -8.0797 O   0  0  0  0  0  0  0  0  0  0  0  0
    5.3129  -15.3920   -6.6616 C   0  0  1  0  0  0  0  0  0  0  0  0
    6.4275  -15.7074   -5.8780 O   0  0  0  0  0  0  0  0  0  0  0  0
    4.2553  -14.6186   -5.9056 C   0  0  1  0  0  0  0  0  0  0  0  0
    4.8626  -13.7407   -4.9796 O   0  0  0  0  0  0  0  0  0  0  0  0
    3.5555  -13.7961   -6.9818 C   0  0  2  0  0  0  0  0  0  0  0  0
    2.2056  -14.2870   -7.3728 N   0  0  0  0  0  0  0  0  0  0  0  0
    1.0912  -13.5020   -7.5307 C   0  0  0  0  0  0  0  0  0  0  0  0
    0.0465  -14.2814   -7.8894 N   0  0  0  0  0  0  0  0  0  0  0  0
    0.4683  -15.5538   -7.9745 C   0  0  0  0  0  0  0  0  0  0  0  0
   -0.1850  -16.7303   -8.3086 C   0  0  0  0  0  0  0  0  0  0  0  0
   -1.4733  -16.7149   -8.6243 N   0  0  0  0  0  0  0  0  0  0  0  0
    0.5233  -17.9156   -8.3146 N   0  0  0  0  0  0  0  0  0  0  0  0
    1.8750  -17.9450   -7.9956 C   0  0  0  0  0  0  0  0  0  0  0  0
    2.5096  -16.7632   -7.6713 N   0  0  0  0  0  0  0  0  0  0  0  0
    1.8228  -15.5837   -7.6522 C   0  0  0  0  0  0  0  0  0  0  0  0
  2  3  1  6  0  0  0
  2  6  1  0  0  0  0
  2  1  1  0  0  0  0
  4  3  2  0  0  0  0
  5  3  1  0  0  0  0
  6  7  2  0  0  0  0
  8  7  1  6  0  0  0
  8  9  1  0  0  0  0
  8 10  1  0  0  0  0
 11 10  1  6  0  0  0
 11 13  1  0  0  0  0
 12 11  1  0  0  0  0
 12 17  1  0  0  0  0
 13 14  1  1  0  0  0
 13 15  1  0  0  0  0
 15 16  1  1  0  0  0
 17 18  1  6  0  0  0
 17 15  1  0  0  0  0
 18 19  1  0  0  0  0
 20 19  2  0  0  0  0
 21 27  2  0  0  0  0
 21 20  1  0  0  0  0
 22 21  1  0  0  0  0
 23 22  1  0  0  0  0
 24 22  2  0  0  0  0
 24 25  1  0  0  0  0
 25 26  2  0  0  0  0
 26 27  1  0  0  0  0
 27 18  1  0  0  0  0
M  END
>  <CHROM.1>
-150.71942230,26.69026537,130.81009657,-104.50143959,45.47043752,-106.08162373
3.30077212,-15.13815150,-8.91400983,-3.01576373,0.26487150,1.52879914

>  <Name>
lig.pdb

>  <RI>
0

>  <Rbt.Current_Directory>
/home/itssahil/PROJECTS/Mol_Feturizer/New_Systems/rnas/4b5r

>  <Rbt.Executable>
rbdock ($Id: //depot/dev/client3/rdock/2013.1/src/exe/rbdock.cxx#4 $)

>  <Rbt.Library>
libRbt.so (2013.1, Build901 2013/11/27)

>  <Rbt.Parameter_File>
/export/apps/rDock/src/rDock_2013.1_src/data/scripts/dock_solv.prm

>  <Rbt.Receptor>
prm/pocket_docking_2.prm

>  <SCORE>
-18.6099

>  <SCORE.INTER>
-18.402

>  <SCORE.INTER.CONST>
1

>  <SCORE.INTER.POLAR>
0

>  <SCORE.INTER.ROT>
6

>  <SCORE.INTER.SOLV>
15.7235

>  <SCORE.INTER.VDW>
-25.1092

>  <SCORE.INTER.norm>
-0.681555

>  <SCORE.INTRA>
-0.255041

>  <SCORE.INTRA.DIHEDRAL>
1.3538

>  <SCORE.INTRA.DIHEDRAL.0>
10.2917

>  <SCORE.INTRA.POLAR>
0

>  <SCORE.INTRA.POLAR.0>
0

>  <SCORE.INTRA.REPUL>
0

>  <SCORE.INTRA.REPUL.0>
0

>  <SCORE.INTRA.SOLV>
-1.06424

>  <SCORE.INTRA.SOLV.lig_0>
-39.6315

>  <SCORE.INTRA.VDW>
-0.399819

>  <SCORE.INTRA.VDW.0>
-4.02152

>  <SCORE.INTRA.norm>
-0.00944596

>  <SCORE.RESTR>
0.0471515

>  <SCORE.RESTR.CAVITY>
0.0471515

>  <SCORE.RESTR.norm>
0.00174635

>  <SCORE.SYSTEM>
0

>  <SCORE.SYSTEM.CONST>
0

>  <SCORE.SYSTEM.DIHEDRAL>
0

>  <SCORE.SYSTEM.SOLV>
0

>  <SCORE.SYSTEM.norm>
0

>  <SCORE.heavy>
27

>  <SCORE.norm>
-0.689255

>  <RMSD>
1.216

$$$$
lig.pdb
 OpenBabel11021811493D
libRbt.so/2013.1/901 2013/11/27
 27 29  0  0  0  0  0  0  0  0999 V2000
    2.7020  -17.5988  -11.6303 N   0  0  0  0  0  0  0  0  0  0  0  0
    2.9010  -16.1704  -11.2380 C   0  0  2  0  0  0  0  0  0  0  0  0
    2.3731  -15.2688  -12.3501 C   0  0  0  0  0  0  0  0  0  0  0  0
    2.7630  -15.4357  -13.4998 O   0  0  0  0  0  0  0  0  0  0  0  0
    1.5605  -14.3579  -12.1457 O   0  0  0  0  0  0  0  0  0  0  0  0
    4.3579  -15.8271  -10.8672 C   0  0  0  0  0  0  0  0  0  0  0  0
    4.5964  -14.4670  -10.1602 C   0  0  0  0  0  0  0  0  0  0  0  0
    6.3171  -13.9917   -9.6950 S   0  0  2  0  0  0  0  0  0  0  0  0
    7.2851  -14.9279  -10.8975 C   0  0  0  0  0  0  0  0  0  0  0  0
    6.6423  -14.9714   -8.2131 C   0  0  0  0  0  0  0  0  0  0  0  0
    5.8731  -14.3898   -7.0343 C   0  0  1  0  0  0  0  0  0  0  0  0
    4.6710  -13.7466   -7.4300 O   0  0  0  0  0  0  0  0  0  0  0  0
    5.4161  -15.4351   -6.0524 C   0  0  1  0  0  0  0  0  0  0  0  0
    6.4788  -15.8195   -5.2285 O   0  0  0  0  0  0  0  0  0  0  0  0
    4.3387  -14.6717   -5.3143 C   0  0  1  0  0  0  0  0  0  0  0  0
    4.9167  -13.8581   -4.3138 O   0  0  0  0  0  0  0  0  0  0  0  0
    3.7184  -13.7778   -6.3822 C   0  0  2  0  0  0  0  0  0  0  0  0
    2.3798  -14.2115   -6.8683 N   0  0  0  0  0  0  0  0  0  0  0  0
    1.2761  -13.4036   -6.9789 C   0  0  0  0  0  0  0  0  0  0  0  0
    0.2398  -14.1304   -7.4534 N   0  0  0  0  0  0  0  0  0  0  0  0
    0.6567  -15.3905   -7.6593 C   0  0  0  0  0  0  0  0  0  0  0  0
    0.0084  -16.5186   -8.1385 C   0  0  0  0  0  0  0  0  0  0  0  0
   -1.2682  -16.4576   -8.4938 N   0  0  0  0  0  0  0  0  0  0  0  0
    0.7094  -17.7033   -8.2469 N   0  0  0  0  0  0  0  0  0  0  0  0
    2.0492  -17.7793   -7.8877 C   0  0  0  0  0  0  0  0  0  0  0  0
    2.6792  -16.6447   -7.4184 N   0  0  0  0  0  0  0  0  0  0  0  0
    1.9992  -15.4674   -7.2968 C   0  0  0  0  0  0  0  0  0  0  0  0
  2  3  1  6  0  0  0
  2  6  1  0  0  0  0
  2  1  1  0  0  0  0
  4  3  2  0  0  0  0
  5  3  1  0  0  0  0
  6  7  2  0  0  0  0
  8  7  1  6  0  0  0
  8  9  1  0  0  0  0
  8 10  1  0  0  0  0
 11 10  1  6  0  0  0
 11 13  1  0  0  0  0
 12 11  1  0  0  0  0
 12 17  1  0  0  0  0
 13 14  1  1  0  0  0
 13 15  1  0  0  0  0
 15 16  1  1  0  0  0
 17 18  1  6  0  0  0
 17 15  1  0  0  0  0
 18 19  1  0  0  0  0
 20 19  2  0  0  0  0
 21 27  2  0  0  0  0
 21 20  1  0  0  0  0
 22 21  1  0  0  0  0
 23 22  1  0  0  0  0
 24 22  2  0  0  0  0
 24 25  1  0  0  0  0
 25 26  2  0  0  0  0
 26 27  1  0  0  0  0
 27 18  1  0  0  0  0
M  END
>  <CHROM.1>
-52.93461318,-167.11794337,25.82523026,-73.70485858,29.44255740,-109.62754008
3.44721806,-15.19451928,-8.54465501,-2.27789288,0.24146136,1.46836140

>  <Name>
lig.pdb

>  <RI>
0

>  <Rbt.Current_Directory>
/home/itssahil/PROJECTS/Mol_Feturizer/New_Systems/rnas/4b5r

>  <Rbt.Executable>
rbdock ($Id: //depot/dev/client3/rdock/2013.1/src/exe/rbdock.cxx#4 $)

>  <Rbt.Library>
libRbt.so (2013.1, Build901 2013/11/27)

>  <Rbt.Parameter_File>
/export/apps/rDock/src/rDock_2013.1_src/data/scripts/dock_solv.prm

>  <Rbt.Receptor>
prm/pocket_docking_4.prm

>  <SCORE>
-18.3709

>  <SCORE.INTER>
-19.8208

>  <SCORE.INTER.CONST>
1

>  <SCORE.INTER.POLAR>
0

>  <SCORE.INTER.ROT>
6

>  <SCORE.INTER.SOLV>
15.2763

>  <SCORE.INTER.VDW>
-25.906

>  <SCORE.INTER.norm>
-0.734104

>  <SCORE.INTRA>
1.44993

>  <SCORE.INTRA.DIHEDRAL>
3.09004

>  <SCORE.INTRA.DIHEDRAL.0>
10.2917

>  <SCORE.INTRA.POLAR>
0

>  <SCORE.INTRA.POLAR.0>
0

>  <SCORE.INTRA.REPUL>
0

>  <SCORE.INTRA.REPUL.0>
0

>  <SCORE.INTRA.SOLV>
-1.28023

>  <SCORE.INTRA.SOLV.lig_0>
-39.6315

>  <SCORE.INTRA.VDW>
0.545023

>  <SCORE.INTRA.VDW.0>
-4.02152

>  <SCORE.INTRA.norm>
0.053701

>  <SCORE.RESTR>
0

>  <SCORE.RESTR.CAVITY>
0

>  <SCORE.RESTR.norm>
0

>  <SCORE.SYSTEM>
0

>  <SCORE.SYSTEM.CONST>
0

>  <SCORE.SYSTEM.DIHEDRAL>
0

>  <SCORE.SYSTEM.SOLV>
0

>  <SCORE.SYSTEM.norm>
0

>  <SCORE.heavy>
27

>  <SCORE.norm>
-0.680403

>  <RMSD>
1.233

$$$$
lig.pdb
 OpenBabel11021811493D
libRbt.so/2013.1/901 2013/11/27
 27 29  0  0  0  0  0  0  0  0999 V2000
    2.8587  -15.3967  -14.2723 N   0  0  0  0  0  0  0  0  0  0  0  0
    3.1320  -15.6681  -12.8281 C   0  0  2  0  0  0  0  0  0  0  0  0
    1.9128  -15.2642  -12.0045 C   0  0  0  0  0  0  0  0  0  0  0  0
    1.4468  -16.0509  -11.1886 O   0  0  0  0  0  0  0  0  0  0  0  0
    1.3571  -14.1647  -12.1242 O   0  0  0  0  0  0  0  0  0  0  0  0
    4.4209  -15.0020  -12.3058 C   0  0  0  0  0  0  0  0  0  0  0  0
    4.3802  -14.4411  -10.8599 C   0  0  0  0  0  0  0  0  0  0  0  0
    5.8868  -13.6256  -10.1755 S   0  0  2  0  0  0  0  0  0  0  0  0
    7.1411  -14.1267  -11.3734 C   0  0  0  0  0  0  0  0  0  0  0  0
    6.3499  -14.6850   -8.7881 C   0  0  0  0  0  0  0  0  0  0  0  0
    5.6025  -14.2467   -7.5357 C   0  0  1  0  0  0  0  0  0  0  0  0
    4.3431  -13.6602   -7.8280 O   0  0  0  0  0  0  0  0  0  0  0  0
    5.2630  -15.3907   -6.6184 C   0  0  1  0  0  0  0  0  0  0  0  0
    6.3873  -15.7610   -5.8736 O   0  0  0  0  0  0  0  0  0  0  0  0
    4.1752  -14.7601   -5.7774 C   0  0  1  0  0  0  0  0  0  0  0  0
    4.7466  -13.9849   -4.7433 O   0  0  0  0  0  0  0  0  0  0  0  0
    3.4466  -13.8344   -6.7453 C   0  0  2  0  0  0  0  0  0  0  0  0
    2.1172  -14.3220   -7.2047 N   0  0  0  0  0  0  0  0  0  0  0  0
    0.9999  -13.5425   -7.3693 C   0  0  0  0  0  0  0  0  0  0  0  0
   -0.0222  -14.3166   -7.7977 N   0  0  0  0  0  0  0  0  0  0  0  0
    0.4172  -15.5798   -7.9210 C   0  0  0  0  0  0  0  0  0  0  0  0
   -0.2100  -16.7477   -8.3274 C   0  0  0  0  0  0  0  0  0  0  0  0
   -1.4864  -16.7322   -8.6881 N   0  0  0  0  0  0  0  0  0  0  0  0
    0.5120  -17.9244   -8.3577 N   0  0  0  0  0  0  0  0  0  0  0  0
    1.8518  -17.9535   -7.9920 C   0  0  0  0  0  0  0  0  0  0  0  0
    2.4606  -16.7801   -7.5958 N   0  0  0  0  0  0  0  0  0  0  0  0
    1.7598  -15.6095   -7.5519 C   0  0  0  0  0  0  0  0  0  0  0  0
  2  3  1  1  0  0  0
  2  6  1  0  0  0  0
  2  1  1  0  0  0  0
  4  3  2  0  0  0  0
  5  3  1  0  0  0  0
  6  7  2  0  0  0  0
  8  7  1  6  0  0  0
  8  9  1  0  0  0  0
  8 10  1  0  0  0  0
 11 10  1  6  0  0  0
 11 13  1  0  0  0  0
 12 11  1  0  0  0  0
 12 17  1  0  0  0  0
 13 14  1  1  0  0  0
 13 15  1  0  0  0  0
 15 16  1  1  0  0  0
 17 18  1  6  0  0  0
 17 15  1  0  0  0  0
 18 19  1  0  0  0  0
 20 19  2  0  0  0  0
 21 27  2  0  0  0  0
 21 20  1  0  0  0  0
 22 21  1  0  0  0  0
 23 22  1  0  0  0  0
 24 22  2  0  0  0  0
 24 25  1  0  0  0  0
 25 26  2  0  0  0  0
 26 27  1  0  0  0  0
 27 18  1  0  0  0  0
M  END
>  <CHROM.1>
130.04912233,142.55339498,-13.72397145,-87.01459230,29.30440458,-100.65263017
3.19595256,-15.07514248,-8.93944865,-2.50717319,0.32308988,1.58541945

>  <Name>
lig.pdb

>  <RI>
0

>  <Rbt.Current_Directory>
/home/itssahil/PROJECTS/Mol_Feturizer/New_Systems/rnas/4b5r

>  <Rbt.Executable>
rbdock ($Id: //depot/dev/client3/rdock/2013.1/src/exe/rbdock.cxx#4 $)

>  <Rbt.Library>
libRbt.so (2013.1, Build901 2013/11/27)

>  <Rbt.Parameter_File>
/export/apps/rDock/src/rDock_2013.1_src/data/scripts/dock_solv.prm

>  <Rbt.Receptor>
prm/pocket_docking_2.prm

>  <SCORE>
-17.1183

>  <SCORE.INTER>
-18.3525

>  <SCORE.INTER.CONST>
1

>  <SCORE.INTER.POLAR>
0

>  <SCORE.INTER.ROT>
6

>  <SCORE.INTER.SOLV>
19.2584

>  <SCORE.INTER.VDW>
-26.2545

>  <SCORE.INTER.norm>
-0.679723

>  <SCORE.INTRA>
1.20781

>  <SCORE.INTRA.DIHEDRAL>
1.39595

>  <SCORE.INTRA.DIHEDRAL.0>
10.2917

>  <SCORE.INTRA.POLAR>
0

>  <SCORE.INTRA.POLAR.0>
0

>  <SCORE.INTRA.REPUL>
0

>  <SCORE.INTRA.REPUL.0>
0

>  <SCORE.INTRA.SOLV>
-1.9905

>  <SCORE.INTRA.SOLV.lig_0>
-39.6315

>  <SCORE.INTRA.VDW>
1.50508

>  <SCORE.INTRA.VDW.0>
-4.02152

>  <SCORE.INTRA.norm>
0.0447336

>  <SCORE.RESTR>
0.0264476

>  <SCORE.RESTR.CAVITY>
0.0264476

>  <SCORE.RESTR.norm>
0.000979541

>  <SCORE.SYSTEM>
0

>  <SCORE.SYSTEM.CONST>
0

>  <SCORE.SYSTEM.DIHEDRAL>
0

>  <SCORE.SYSTEM.SOLV>
0

>  <SCORE.SYSTEM.norm>
0

>  <SCORE.heavy>
27

>  <SCORE.norm>
-0.63401

>  <RMSD>
1.244

$$$$
lig.pdb
 OpenBabel11021811493D
libRbt.so/2013.1/901 2013/11/27
 27 29  0  0  0  0  0  0  0  0999 V2000
    3.1362  -17.6488  -12.2243 N   0  0  0  0  0  0  0  0  0  0  0  0
    2.8847  -16.1804  -12.3454 C   0  0  2  0  0  0  0  0  0  0  0  0
    2.3581  -15.8777  -13.7451 C   0  0  0  0  0  0  0  0  0  0  0  0
    1.2380  -16.2583  -14.0649 O   0  0  0  0  0  0  0  0  0  0  0  0
    3.0183  -15.2608  -14.5909 O   0  0  0  0  0  0  0  0  0  0  0  0
    4.1093  -15.3112  -11.9951 C   0  0  0  0  0  0  0  0  0  0  0  0
    4.1071  -14.6318  -10.6005 C   0  0  0  0  0  0  0  0  0  0  0  0
    5.5394  -13.5727  -10.1206 S   0  0  2  0  0  0  0  0  0  0  0  0
    6.7215  -13.9532  -11.4311 C   0  0  0  0  0  0  0  0  0  0  0  0
    6.2978  -14.4779   -8.7541 C   0  0  0  0  0  0  0  0  0  0  0  0
    5.5608  -14.1639   -7.4588 C   0  0  1  0  0  0  0  0  0  0  0  0
    4.2906  -13.5707   -7.6828 O   0  0  0  0  0  0  0  0  0  0  0  0
    5.2473  -15.3902   -6.6444 C   0  0  1  0  0  0  0  0  0  0  0  0
    6.3854  -15.8106   -5.9488 O   0  0  0  0  0  0  0  0  0  0  0  0
    4.1623  -14.8525   -5.7377 C   0  0  1  0  0  0  0  0  0  0  0  0
    4.7371  -14.1656   -4.6446 O   0  0  0  0  0  0  0  0  0  0  0  0
    3.4100  -13.8536   -6.6099 C   0  0  2  0  0  0  0  0  0  0  0  0
    2.0812  -14.3161   -7.0961 N   0  0  0  0  0  0  0  0  0  0  0  0
    0.9716  -13.5229   -7.2463 C   0  0  0  0  0  0  0  0  0  0  0  0
   -0.0526  -14.2751   -7.7076 N   0  0  0  0  0  0  0  0  0  0  0  0
    0.3781  -15.5373   -7.8662 C   0  0  0  0  0  0  0  0  0  0  0  0
   -0.2544  -16.6870   -8.3144 C   0  0  0  0  0  0  0  0  0  0  0  0
   -1.5273  -16.6500   -8.6858 N   0  0  0  0  0  0  0  0  0  0  0  0
    0.4587  -17.8679   -8.3749 N   0  0  0  0  0  0  0  0  0  0  0  0
    1.7948  -17.9191   -7.9983 C   0  0  0  0  0  0  0  0  0  0  0  0
    2.4091  -16.7635   -7.5604 N   0  0  0  0  0  0  0  0  0  0  0  0
    1.7170  -15.5893   -7.4863 C   0  0  0  0  0  0  0  0  0  0  0  0
  2  3  1  6  0  0  0
  2  6  1  0  0  0  0
  2  1  1  0  0  0  0
  4  3  2  0  0  0  0
  5  3  1  0  0  0  0
  6  7  2  0  0  0  0
  8  7  1  6  0  0  0
  8  9  1  0  0  0  0
  8 10  1  0  0  0  0
 11 10  1  6  0  0  0
 11 13  1  0  0  0  0
 12 11  1  0  0  0  0
 12 17  1  0  0  0  0
 13 14  1  1  0  0  0
 13 15  1  0  0  0  0
 15 16  1  1  0  0  0
 17 18  1  6  0  0  0
 17 15  1  0  0  0  0
 18 19  1  0  0  0  0
 20 19  2  0  0  0  0
 21 27  2  0  0  0  0
 21 20  1  0  0  0  0
 22 21  1  0  0  0  0
 23 22  1  0  0  0  0
 24 22  2  0  0  0  0
 24 25  1  0  0  0  0
 25 26  2  0  0  0  0
 26 27  1  0  0  0  0
 27 18  1  0  0  0  0
M  END
>  <CHROM.1>
69.22141544,-102.49393034,-10.96158306,-82.75664783,16.25977226,-96.87235475
3.18431145,-15.23739526,-9.06957491,-1.81625566,0.36533660,1.46929469

>  <Name>
lig.pdb

>  <RI>
0

>  <Rbt.Current_Directory>
/home/itssahil/PROJECTS/Mol_Feturizer/New_Systems/rnas/4b5r

>  <Rbt.Executable>
rbdock ($Id: //depot/dev/client3/rdock/2013.1/src/exe/rbdock.cxx#4 $)

>  <Rbt.Library>
libRbt.so (2013.1, Build901 2013/11/27)

>  <Rbt.Parameter_File>
/export/apps/rDock/src/rDock_2013.1_src/data/scripts/dock_solv.prm

>  <Rbt.Receptor>
prm/pocket_docking_2.prm

>  <SCORE>
-15.7926

>  <SCORE.INTER>
-18.5942

>  <SCORE.INTER.CONST>
1

>  <SCORE.INTER.POLAR>
0

>  <SCORE.INTER.ROT>
6

>  <SCORE.INTER.SOLV>
18.5685

>  <SCORE.INTER.VDW>
-26.1856

>  <SCORE.INTER.norm>
-0.688673

>  <SCORE.INTRA>
2.16625

>  <SCORE.INTRA.DIHEDRAL>
2.41287

>  <SCORE.INTRA.DIHEDRAL.0>
10.2917

>  <SCORE.INTRA.POLAR>
0

>  <SCORE.INTRA.POLAR.0>
0

>  <SCORE.INTRA.REPUL>
0

>  <SCORE.INTRA.REPUL.0>
0

>  <SCORE.INTRA.SOLV>
-2.56522

>  <SCORE.INTRA.SOLV.lig_0>
-39.6315

>  <SCORE.INTRA.VDW>
2.24242

>  <SCORE.INTRA.VDW.0>
-4.02152

>  <SCORE.INTRA.norm>
0.0802313

>  <SCORE.RESTR>
0.635362

>  <SCORE.RESTR.CAVITY>
0.635362

>  <SCORE.RESTR.norm>
0.0235319

>  <SCORE.SYSTEM>
0

>  <SCORE.SYSTEM.CONST>
0

>  <SCORE.SYSTEM.DIHEDRAL>
0

>  <SCORE.SYSTEM.SOLV>
0

>  <SCORE.SYSTEM.norm>
0

>  <SCORE.heavy>
27

>  <SCORE.norm>
-0.584909

>  <RMSD>
1.248

$$$$
lig.pdb
 OpenBabel11021811493D
libRbt.so/2013.1/901 2013/11/27
 27 29  0  0  0  0  0  0  0  0999 V2000
    3.4087  -15.5870  -14.3376 N   0  0  0  0  0  0  0  0  0  0  0  0
    3.6946  -16.3615  -13.0917 C   0  0  2  0  0  0  0  0  0  0  0  0
    2.5516  -16.1553  -12.1021 C   0  0  0  0  0  0  0  0  0  0  0  0
    1.8072  -15.1904  -12.2310 O   0  0  0  0  0  0  0  0  0  0  0  0
    2.3373  -16.9236  -11.1557 O   0  0  0  0  0  0  0  0  0  0  0  0
    5.0631  -16.0358  -12.4602 C   0  0  0  0  0  0  0  0  0  0  0  0
    5.0675  -15.6737  -10.9517 C   0  0  0  0  0  0  0  0  0  0  0  0
    6.6711  -15.2670  -10.1354 S   0  0  2  0  0  0  0  0  0  0  0  0
    7.7797  -16.4656  -10.9059 C   0  0  0  0  0  0  0  0  0  0  0  0
    6.5130  -16.0082   -8.4961 C   0  0  0  0  0  0  0  0  0  0  0  0
    5.8789  -15.0073   -7.5392 C   0  0  1  0  0  0  0  0  0  0  0  0
    4.7425  -14.3636   -8.0958 O   0  0  0  0  0  0  0  0  0  0  0  0
    5.3524  -15.6436   -6.2809 C   0  0  1  0  0  0  0  0  0  0  0  0
    6.4029  -15.8966   -5.3930 O   0  0  0  0  0  0  0  0  0  0  0  0
    4.4117  -14.5632   -5.7950 C   0  0  1  0  0  0  0  0  0  0  0  0
    5.1319  -13.5685   -5.0958 O   0  0  0  0  0  0  0  0  0  0  0  0
    3.8475  -13.9579   -7.0756 C   0  0  2  0  0  0  0  0  0  0  0  0
    2.4441  -14.3422   -7.3900 N   0  0  0  0  0  0  0  0  0  0  0  0
    1.3802  -13.4778   -7.4531 C   0  0  0  0  0  0  0  0  0  0  0  0
    0.2623  -14.1718   -7.7632 N   0  0  0  0  0  0  0  0  0  0  0  0
    0.5867  -15.4668   -7.9100 C   0  0  0  0  0  0  0  0  0  0  0  0
   -0.1680  -16.5845   -8.2319 C   0  0  0  0  0  0  0  0  0  0  0  0
   -1.4695  -16.4706   -8.4616 N   0  0  0  0  0  0  0  0  0  0  0  0
    0.4528  -17.8150   -8.3163 N   0  0  0  0  0  0  0  0  0  0  0  0
    1.8166  -17.9473   -8.0878 C   0  0  0  0  0  0  0  0  0  0  0  0
    2.5526  -16.8228   -7.7743 N   0  0  0  0  0  0  0  0  0  0  0  0
    1.9536  -15.6000   -7.6784 C   0  0  0  0  0  0  0  0  0  0  0  0
  2  3  1  1  0  0  0
  2  6  1  0  0  0  0
  2  1  1  0  0  0  0
  4  3  2  0  0  0  0
  5  3  1  0  0  0  0
  6  7  2  0  0  0  0
  8  7  1  6  0  0  0
  8  9  1  0  0  0  0
  8 10  1  0  0  0  0
 11 10  1  6  0  0  0
 11 13  1  0  0  0  0
 12 11  1  0  0  0  0
 12 17  1  0  0  0  0
 13 14  1  1  0  0  0
 13 15  1  0  0  0  0
 15 16  1  6  0  0  0
 17 18  1  6  0  0  0
 17 15  1  0  0  0  0
 18 19  1  0  0  0  0
 20 19  2  0  0  0  0
 21 27  2  0  0  0  0
 21 20  1  0  0  0  0
 22 21  1  0  0  0  0
 23 22  1  0  0  0  0
 24 22  2  0  0  0  0
 24 25  1  0  0  0  0
 25 26  2  0  0  0  0
 26 27  1  0  0  0  0
 27 18  1  0  0  0  0
M  END
>  <CHROM.1>
-19.81326743,128.52776402,-39.21934545,-88.85904555,46.18448866,-123.96198929
3.56221325,-15.57959568,-8.94803403,1.32002971,-0.10568700,-1.76397498

>  <Name>
lig.pdb

>  <RI>
0

>  <Rbt.Current_Directory>
/home/itssahil/PROJECTS/Mol_Feturizer/New_Systems/rnas/4b5r

>  <Rbt.Executable>
rbdock ($Id: //depot/dev/client3/rdock/2013.1/src/exe/rbdock.cxx#4 $)

>  <Rbt.Library>
libRbt.so (2013.1, Build901 2013/11/27)

>  <Rbt.Parameter_File>
/export/apps/rDock/src/rDock_2013.1_src/data/scripts/dock_solv.prm

>  <Rbt.Receptor>
prm/pocket_docking_3.prm

>  <SCORE>
-16.8444

>  <SCORE.INTER>
-15.8798

>  <SCORE.INTER.CONST>
1

>  <SCORE.INTER.POLAR>
0

>  <SCORE.INTER.ROT>
6

>  <SCORE.INTER.SOLV>
17.8953

>  <SCORE.INTER.VDW>
-24.1516

>  <SCORE.INTER.norm>
-0.588139

>  <SCORE.INTRA>
-0.964648

>  <SCORE.INTRA.DIHEDRAL>
-1.53189

>  <SCORE.INTRA.DIHEDRAL.0>
10.2917

>  <SCORE.INTRA.POLAR>
0

>  <SCORE.INTRA.POLAR.0>
0

>  <SCORE.INTRA.REPUL>
0

>  <SCORE.INTRA.REPUL.0>
0

>  <SCORE.INTRA.SOLV>
-2.58229

>  <SCORE.INTRA.SOLV.lig_0>
-39.6315

>  <SCORE.INTRA.VDW>
1.09244

>  <SCORE.INTRA.VDW.0>
-4.02152

>  <SCORE.INTRA.norm>
-0.0357277

>  <SCORE.RESTR>
0

>  <SCORE.RESTR.CAVITY>
0

>  <SCORE.RESTR.norm>
0

>  <SCORE.SYSTEM>
0

>  <SCORE.SYSTEM.CONST>
0

>  <SCORE.SYSTEM.DIHEDRAL>
0

>  <SCORE.SYSTEM.SOLV>
0

>  <SCORE.SYSTEM.norm>
0

>  <SCORE.heavy>
27

>  <SCORE.norm>
-0.623867

>  <RMSD>
1.285

$$$$
lig.pdb
 OpenBabel11021811493D
libRbt.so/2013.1/901 2013/11/27
 27 29  0  0  0  0  0  0  0  0999 V2000
    3.8678  -16.2790  -14.0015 N   0  0  0  0  0  0  0  0  0  0  0  0
    3.4559  -15.8765  -12.6223 C   0  0  2  0  0  0  0  0  0  0  0  0
    2.0009  -15.4178  -12.6495 C   0  0  0  0  0  0  0  0  0  0  0  0
    1.2164  -15.9419  -13.4315 O   0  0  0  0  0  0  0  0  0  0  0  0
    1.5660  -14.5236  -11.9125 O   0  0  0  0  0  0  0  0  0  0  0  0
    4.3774  -14.8171  -11.9850 C   0  0  0  0  0  0  0  0  0  0  0  0
    4.9135  -15.1234  -10.5618 C   0  0  0  0  0  0  0  0  0  0  0  0
    6.0160  -13.8943   -9.7389 S   0  0  2  0  0  0  0  0  0  0  0  0
    7.5048  -14.0126  -10.7533 C   0  0  0  0  0  0  0  0  0  0  0  0
    6.5860  -14.7591   -8.2593 C   0  0  0  0  0  0  0  0  0  0  0  0
    5.7826  -14.2946   -7.0518 C   0  0  1  0  0  0  0  0  0  0  0  0
    4.5723  -13.6483   -7.4165 O   0  0  0  0  0  0  0  0  0  0  0  0
    5.3341  -15.4275   -6.1682 C   0  0  1  0  0  0  0  0  0  0  0  0
    6.3913  -15.8545   -5.3583 O   0  0  0  0  0  0  0  0  0  0  0  0
    4.2259  -14.7525   -5.3907 C   0  0  1  0  0  0  0  0  0  0  0  0
    4.7665  -14.0114   -4.3158 O   0  0  0  0  0  0  0  0  0  0  0  0
    3.6027  -13.7876   -6.3933 C   0  0  2  0  0  0  0  0  0  0  0  0
    2.2836  -14.2100   -6.9392 N   0  0  0  0  0  0  0  0  0  0  0  0
    1.2149  -13.3788   -7.1627 C   0  0  0  0  0  0  0  0  0  0  0  0
    0.1874  -14.1016   -7.6621 N   0  0  0  0  0  0  0  0  0  0  0  0
    0.5764  -15.3824   -7.7733 C   0  0  0  0  0  0  0  0  0  0  0  0
   -0.0763  -16.5167   -8.2312 C   0  0  0  0  0  0  0  0  0  0  0  0
   -1.3260  -16.4398   -8.6694 N   0  0  0  0  0  0  0  0  0  0  0  0
    0.5925  -17.7248   -8.2312 N   0  0  0  0  0  0  0  0  0  0  0  0
    1.9045  -17.8183   -7.7843 C   0  0  0  0  0  0  0  0  0  0  0  0
    2.5397  -16.6774   -7.3377 N   0  0  0  0  0  0  0  0  0  0  0  0
    1.8909  -15.4766   -7.3229 C   0  0  0  0  0  0  0  0  0  0  0  0
  2  3  1  6  0  0  0
  2  6  1  0  0  0  0
  2  1  1  0  0  0  0
  4  3  2  0  0  0  0
  5  3  1  0  0  0  0
  6  7  2  0  0  0  0
  8  7  1  6  0  0  0
  8  9  1  0  0  0  0
  8 10  1  0  0  0  0
 11 10  1  6  0  0  0
 11 13  1  0  0  0  0
 12 11  1  0  0  0  0
 12 17  1  0  0  0  0
 13 14  1  1  0  0  0
 13 15  1  0  0  0  0
 15 16  1  1  0  0  0
 17 18  1  6  0  0  0
 17 15  1  0  0  0  0
 18 19  1  0  0  0  0
 20 19  2  0  0  0  0
 21 27  2  0  0  0  0
 21 20  1  0  0  0  0
 22 21  1  0  0  0  0
 23 22  1  0  0  0  0
 24 22  2  0  0  0  0
 24 25  1  0  0  0  0
 25 26  2  0  0  0  0
 26 27  1  0  0  0  0
 27 18  1  0  0  0  0
M  END
>  <CHROM.1>
33.04156176,-129.24348335,-68.54297151,-100.21987605,17.83344331,-100.81748070
3.36682488,-15.11078476,-8.75806787,-2.01110698,0.26278789,1.50758162

>  <Name>
lig.pdb

>  <RI>
0

>  <Rbt.Current_Directory>
/home/itssahil/PROJECTS/Mol_Feturizer/New_Systems/rnas/4b5r

>  <Rbt.Executable>
rbdock ($Id: //depot/dev/client3/rdock/2013.1/src/exe/rbdock.cxx#4 $)

>  <Rbt.Library>
libRbt.so (2013.1, Build901 2013/11/27)

>  <Rbt.Parameter_File>
/export/apps/rDock/src/rDock_2013.1_src/data/scripts/dock_solv.prm

>  <Rbt.Receptor>
prm/pocket_docking_3.prm

>  <SCORE>
-18.1207

>  <SCORE.INTER>
-20.0966

>  <SCORE.INTER.CONST>
1

>  <SCORE.INTER.POLAR>
0

>  <SCORE.INTER.ROT>
6

>  <SCORE.INTER.SOLV>
18.7621

>  <SCORE.INTER.VDW>
-27.2517

>  <SCORE.INTER.norm>
-0.744318

>  <SCORE.INTRA>
1.97585

>  <SCORE.INTRA.DIHEDRAL>
3.74848

>  <SCORE.INTRA.DIHEDRAL.0>
10.2917

>  <SCORE.INTRA.POLAR>
0

>  <SCORE.INTRA.POLAR.0>
0

>  <SCORE.INTRA.REPUL>
0

>  <SCORE.INTRA.REPUL.0>
0

>  <SCORE.INTRA.SOLV>
-2.85875

>  <SCORE.INTRA.SOLV.lig_0>
-39.6315

>  <SCORE.INTRA.VDW>
1.53099

>  <SCORE.INTRA.VDW.0>
-4.02152

>  <SCORE.INTRA.norm>
0.0731796

>  <SCORE.RESTR>
0

>  <SCORE.RESTR.CAVITY>
0

>  <SCORE.RESTR.norm>
0

>  <SCORE.SYSTEM>
0

>  <SCORE.SYSTEM.CONST>
0

>  <SCORE.SYSTEM.DIHEDRAL>
0

>  <SCORE.SYSTEM.SOLV>
0

>  <SCORE.SYSTEM.norm>
0

>  <SCORE.heavy>
27

>  <SCORE.norm>
-0.671139

>  <RMSD>
1.295

$$$$
lig.pdb
 OpenBabel11021811493D
libRbt.so/2013.1/901 2013/11/27
 27 29  0  0  0  0  0  0  0  0999 V2000
    3.4494  -15.9309  -13.0551 N   0  0  0  0  0  0  0  0  0  0  0  0
    2.9974  -15.9932  -11.6318 C   0  0  2  0  0  0  0  0  0  0  0  0
    1.6336  -15.3197  -11.5110 C   0  0  0  0  0  0  0  0  0  0  0  0
    0.7735  -15.8202  -10.7958 O   0  0  0  0  0  0  0  0  0  0  0  0
    1.3446  -14.2779  -12.1134 O   0  0  0  0  0  0  0  0  0  0  0  0
    4.0149  -15.4068  -10.6325 C   0  0  0  0  0  0  0  0  0  0  0  0
    5.0912  -14.4515  -11.2118 C   0  0  0  0  0  0  0  0  0  0  0  0
    6.3434  -13.7201  -10.0714 S   0  0  2  0  0  0  0  0  0  0  0  0
    7.8830  -14.1229  -10.9238 C   0  0  0  0  0  0  0  0  0  0  0  0
    6.4268  -14.9085   -8.7140 C   0  0  0  0  0  0  0  0  0  0  0  0
    5.6855  -14.3575   -7.5031 C   0  0  1  0  0  0  0  0  0  0  0  0
    4.4414  -13.7663   -7.8464 O   0  0  0  0  0  0  0  0  0  0  0  0
    5.3161  -15.4190   -6.5021 C   0  0  1  0  0  0  0  0  0  0  0  0
    6.4288  -15.7567   -5.7249 O   0  0  0  0  0  0  0  0  0  0  0  0
    4.2405  -14.7003   -5.7180 C   0  0  1  0  0  0  0  0  0  0  0  0
    4.8264  -13.8610   -4.7438 O   0  0  0  0  0  0  0  0  0  0  0  0
    3.5372  -13.8355   -6.7582 C   0  0  2  0  0  0  0  0  0  0  0  0
    2.1983  -14.3262   -7.1857 N   0  0  0  0  0  0  0  0  0  0  0  0
    1.0752  -13.5495   -7.3217 C   0  0  0  0  0  0  0  0  0  0  0  0
    0.0451  -14.3259   -7.7260 N   0  0  0  0  0  0  0  0  0  0  0  0
    0.4848  -15.5877   -7.8619 C   0  0  0  0  0  0  0  0  0  0  0  0
   -0.1489  -16.7568   -8.2545 C   0  0  0  0  0  0  0  0  0  0  0  0
   -1.4338  -16.7443   -8.5839 N   0  0  0  0  0  0  0  0  0  0  0  0
    0.5753  -17.9314   -8.3043 N   0  0  0  0  0  0  0  0  0  0  0  0
    1.9237  -17.9573   -7.9715 C   0  0  0  0  0  0  0  0  0  0  0  0
    2.5388  -16.7827   -7.5886 N   0  0  0  0  0  0  0  0  0  0  0  0
    1.8361  -15.6142   -7.5258 C   0  0  0  0  0  0  0  0  0  0  0  0
  2  3  1  6  0  0  0
  2  6  1  0  0  0  0
  2  1  1  0  0  0  0
  4  3  2  0  0  0  0
  5  3  1  0  0  0  0
  6  7  2  0  0  0  0
  8  7  1  6  0  0  0
  8  9  1  0  0  0  0
  8 10  1  0  0  0  0
 11 10  1  6  0  0  0
 11 13  1  0  0  0  0
 12 11  1  0  0  0  0
 12 17  1  0  0  0  0
 13 14  1  1  0  0  0
 13 15  1  0  0  0  0
 15 16  1  1  0  0  0
 17 18  1  6  0  0  0
 17 15  1  0  0  0  0
 18 19  1  0  0  0  0
 20 19  2  0  0  0  0
 21 27  2  0  0  0  0
 21 20  1  0  0  0  0
 22 21  1  0  0  0  0
 23 22  1  0  0  0  0
 24 22  2  0  0  0  0
 24 25  1  0  0  0  0
 25 26  2  0  0  0  0
 26 27  1  0  0  0  0
 27 18  1  0  0  0  0
M  END
>  <CHROM.1>
139.34725303,19.30465577,128.55806857,-104.25903698,43.90961698,-105.68591919
3.29721826,-15.13561079,-8.72342433,-3.03603164,0.29319119,1.55363074

>  <Name>
lig.pdb

>  <RI>
0

>  <Rbt.Current_Directory>
/home/itssahil/PROJECTS/Mol_Feturizer/New_Systems/rnas/4b5r

>  <Rbt.Executable>
rbdock ($Id: //depot/dev/client3/rdock/2013.1/src/exe/rbdock.cxx#4 $)

>  <Rbt.Library>
libRbt.so (2013.1, Build901 2013/11/27)

>  <Rbt.Parameter_File>
/export/apps/rDock/src/rDock_2013.1_src/data/scripts/dock_solv.prm

>  <Rbt.Receptor>
prm/pocket_docking_3.prm

>  <SCORE>
-19.8866

>  <SCORE.INTER>
-19.2872

>  <SCORE.INTER.CONST>
1

>  <SCORE.INTER.POLAR>
0

>  <SCORE.INTER.ROT>
6

>  <SCORE.INTER.SOLV>
14.758

>  <SCORE.INTER.VDW>
-25.3775

>  <SCORE.INTER.norm>
-0.71434

>  <SCORE.INTRA>
-0.599371

>  <SCORE.INTRA.DIHEDRAL>
1.03658

>  <SCORE.INTRA.DIHEDRAL.0>
10.2917

>  <SCORE.INTRA.POLAR>
0

>  <SCORE.INTRA.POLAR.0>
0

>  <SCORE.INTRA.REPUL>
0

>  <SCORE.INTRA.REPUL.0>
0

>  <SCORE.INTRA.SOLV>
-0.299671

>  <SCORE.INTRA.SOLV.lig_0>
-39.6315

>  <SCORE.INTRA.VDW>
-0.967825

>  <SCORE.INTRA.VDW.0>
-4.02152

>  <SCORE.INTRA.norm>
-0.0221989

>  <SCORE.RESTR>
0

>  <SCORE.RESTR.CAVITY>
0

>  <SCORE.RESTR.norm>
0

>  <SCORE.SYSTEM>
0

>  <SCORE.SYSTEM.CONST>
0

>  <SCORE.SYSTEM.DIHEDRAL>
0

>  <SCORE.SYSTEM.SOLV>
0

>  <SCORE.SYSTEM.norm>
0

>  <SCORE.heavy>
27

>  <SCORE.norm>
-0.736539

>  <RMSD>
1.302

$$$$
lig.pdb
 OpenBabel11021811493D
libRbt.so/2013.1/901 2013/11/27
 27 29  0  0  0  0  0  0  0  0999 V2000
    3.7179  -15.8079  -14.5334 N   0  0  0  0  0  0  0  0  0  0  0  0
    3.5869  -16.1894  -13.0942 C   0  0  2  0  0  0  0  0  0  0  0  0
    2.6112  -15.2354  -12.4114 C   0  0  0  0  0  0  0  0  0  0  0  0
    1.6137  -15.6843  -11.8588 O   0  0  0  0  0  0  0  0  0  0  0  0
    2.7759  -14.0089  -12.3914 O   0  0  0  0  0  0  0  0  0  0  0  0
    4.9339  -16.2605  -12.3471 C   0  0  0  0  0  0  0  0  0  0  0  0
    5.3340  -15.0175  -11.5094 C   0  0  0  0  0  0  0  0  0  0  0  0
    6.9367  -15.0343  -10.5958 S   0  0  2  0  0  0  0  0  0  0  0  0
    7.7893  -16.4115  -11.3931 C   0  0  0  0  0  0  0  0  0  0  0  0
    6.5180  -15.8074   -9.0182 C   0  0  0  0  0  0  0  0  0  0  0  0
    5.8982  -14.7728   -8.0881 C   0  0  1  0  0  0  0  0  0  0  0  0
    4.7333  -14.1741   -8.6357 O   0  0  0  0  0  0  0  0  0  0  0  0
    5.4241  -15.3576   -6.7848 C   0  0  1  0  0  0  0  0  0  0  0  0
    6.5073  -15.5521   -5.9217 O   0  0  0  0  0  0  0  0  0  0  0  0
    4.4811  -14.2707   -6.3184 C   0  0  1  0  0  0  0  0  0  0  0  0
    5.2064  -13.2330   -5.6905 O   0  0  0  0  0  0  0  0  0  0  0  0
    3.8651  -13.7351   -7.6061 C   0  0  2  0  0  0  0  0  0  0  0  0
    2.4590  -14.1559   -7.8554 N   0  0  0  0  0  0  0  0  0  0  0  0
    1.4003  -13.3060   -8.0548 C   0  0  0  0  0  0  0  0  0  0  0  0
    0.2779  -14.0336   -8.2505 N   0  0  0  0  0  0  0  0  0  0  0  0
    0.5944  -15.3375   -8.1899 C   0  0  0  0  0  0  0  0  0  0  0  0
   -0.1674  -16.4875   -8.3302 C   0  0  0  0  0  0  0  0  0  0  0  0
   -1.4685  -16.4036   -8.5749 N   0  0  0  0  0  0  0  0  0  0  0  0
    0.4460  -17.7195   -8.2182 N   0  0  0  0  0  0  0  0  0  0  0  0
    1.8092  -17.8222   -7.9717 C   0  0  0  0  0  0  0  0  0  0  0  0
    2.5522  -16.6667   -7.8409 N   0  0  0  0  0  0  0  0  0  0  0  0
    1.9607  -15.4406   -7.9403 C   0  0  0  0  0  0  0  0  0  0  0  0
  2  3  1  1  0  0  0
  2  6  1  0  0  0  0
  2  1  1  0  0  0  0
  4  3  2  0  0  0  0
  5  3  1  0  0  0  0
  6  7  2  0  0  0  0
  8  7  1  6  0  0  0
  8  9  1  0  0  0  0
  8 10  1  0  0  0  0
 11 10  1  6  0  0  0
 11 13  1  0  0  0  0
 12 11  1  0  0  0  0
 12 17  1  0  0  0  0
 13 14  1  1  0  0  0
 13 15  1  0  0  0  0
 15 16  1  6  0  0  0
 17 18  1  6  0  0  0
 17 15  1  0  0  0  0
 18 19  1  0  0  0  0
 20 19  2  0  0  0  0
 21 27  2  0  0  0  0
 21 20  1  0  0  0  0
 22 21  1  0  0  0  0
 23 22  1  0  0  0  0
 24 22  2  0  0  0  0
 24 25  1  0  0  0  0
 25 26  2  0  0  0  0
 26 27  1  0  0  0  0
 27 18  1  0  0  0  0
M  END
>  <CHROM.1>
122.16391855,97.87770021,16.09136513,-81.41909612,58.27017972,-117.11429869
3.62318860,-15.29643775,-9.30164597,0.47479080,-0.12321581,-1.71970484

>  <Name>
lig.pdb

>  <RI>
0

>  <Rbt.Current_Directory>
/home/itssahil/PROJECTS/Mol_Feturizer/New_Systems/rnas/4b5r

>  <Rbt.Executable>
rbdock ($Id: //depot/dev/client3/rdock/2013.1/src/exe/rbdock.cxx#4 $)

>  <Rbt.Library>
libRbt.so (2013.1, Build901 2013/11/27)

>  <Rbt.Parameter_File>
/export/apps/rDock/src/rDock_2013.1_src/data/scripts/dock_solv.prm

>  <Rbt.Receptor>
prm/pocket_docking_2.prm

>  <SCORE>
-16.1446

>  <SCORE.INTER>
-15.6999

>  <SCORE.INTER.CONST>
1

>  <SCORE.INTER.POLAR>
0

>  <SCORE.INTER.ROT>
6

>  <SCORE.INTER.SOLV>
17.0782

>  <SCORE.INTER.VDW>
-23.7594

>  <SCORE.INTER.norm>
-0.581479

>  <SCORE.INTRA>
-0.444711

>  <SCORE.INTRA.DIHEDRAL>
-1.00533

>  <SCORE.INTRA.DIHEDRAL.0>
10.2917

>  <SCORE.INTRA.POLAR>
0

>  <SCORE.INTRA.POLAR.0>
0

>  <SCORE.INTRA.REPUL>
0

>  <SCORE.INTRA.REPUL.0>
0

>  <SCORE.INTRA.SOLV>
-2.49077

>  <SCORE.INTRA.SOLV.lig_0>
-39.6315

>  <SCORE.INTRA.VDW>
1.30334

>  <SCORE.INTRA.VDW.0>
-4.02152

>  <SCORE.INTRA.norm>
-0.0164708

>  <SCORE.RESTR>
0

>  <SCORE.RESTR.CAVITY>
0

>  <SCORE.RESTR.norm>
0

>  <SCORE.SYSTEM>
0

>  <SCORE.SYSTEM.CONST>
0

>  <SCORE.SYSTEM.DIHEDRAL>
0

>  <SCORE.SYSTEM.SOLV>
0

>  <SCORE.SYSTEM.norm>
0

>  <SCORE.heavy>
27

>  <SCORE.norm>
-0.597949

>  <RMSD>
1.303

$$$$
lig.pdb
 OpenBabel11021811493D
libRbt.so/2013.1/901 2013/11/27
 27 29  0  0  0  0  0  0  0  0999 V2000
    2.9612  -17.1020  -12.5479 N   0  0  0  0  0  0  0  0  0  0  0  0
    3.0383  -15.9301  -11.6235 C   0  0  2  0  0  0  0  0  0  0  0  0
    2.4825  -14.6980  -12.3315 C   0  0  0  0  0  0  0  0  0  0  0  0
    1.2728  -14.5030  -12.3452 O   0  0  0  0  0  0  0  0  0  0  0  0
    3.2037  -13.8734  -12.9075 O   0  0  0  0  0  0  0  0  0  0  0  0
    4.4515  -15.6770  -11.0606 C   0  0  0  0  0  0  0  0  0  0  0  0
    4.7258  -14.2690  -10.4700 C   0  0  0  0  0  0  0  0  0  0  0  0
    6.3983  -13.8977   -9.7857 S   0  0  2  0  0  0  0  0  0  0  0  0
    7.4654  -14.7560  -10.9622 C   0  0  0  0  0  0  0  0  0  0  0  0
    6.5380  -15.0168   -8.3751 C   0  0  0  0  0  0  0  0  0  0  0  0
    5.7304  -14.4709   -7.2049 C   0  0  1  0  0  0  0  0  0  0  0  0
    4.5351  -13.8268   -7.6192 O   0  0  0  0  0  0  0  0  0  0  0  0
    5.2538  -15.5440   -6.2632 C   0  0  1  0  0  0  0  0  0  0  0  0
    6.2954  -15.9413   -5.4187 O   0  0  0  0  0  0  0  0  0  0  0  0
    4.1494  -14.8075   -5.5378 C   0  0  1  0  0  0  0  0  0  0  0  0
    4.6917  -14.0152   -4.5009 O   0  0  0  0  0  0  0  0  0  0  0  0
    3.5529  -13.8915   -6.6005 C   0  0  2  0  0  0  0  0  0  0  0  0
    2.2324  -14.3226   -7.1360 N   0  0  0  0  0  0  0  0  0  0  0  0
    1.1762  -13.4896   -7.4070 C   0  0  0  0  0  0  0  0  0  0  0  0
    0.1431  -14.2223   -7.8795 N   0  0  0  0  0  0  0  0  0  0  0  0
    0.5162  -15.5117   -7.9268 C   0  0  0  0  0  0  0  0  0  0  0  0
   -0.1479  -16.6582   -8.3355 C   0  0  0  0  0  0  0  0  0  0  0  0
   -1.3933  -16.5864   -8.7865 N   0  0  0  0  0  0  0  0  0  0  0  0
    0.5051  -17.8732   -8.2730 N   0  0  0  0  0  0  0  0  0  0  0  0
    1.8126  -17.9619   -7.8120 C   0  0  0  0  0  0  0  0  0  0  0  0
    2.4594  -16.8092   -7.4150 N   0  0  0  0  0  0  0  0  0  0  0  0
    1.8261  -15.6010   -7.4622 C   0  0  0  0  0  0  0  0  0  0  0  0
  2  3  1  6  0  0  0
  2  6  1  0  0  0  0
  2  1  1  0  0  0  0
  4  3  2  0  0  0  0
  5  3  1  0  0  0  0
  6  7  2  0  0  0  0
  8  7  1  6  0  0  0
  8  9  1  0  0  0  0
  8 10  1  0  0  0  0
 11 10  1  6  0  0  0
 11 13  1  0  0  0  0
 12 11  1  0  0  0  0
 12 17  1  0  0  0  0
 13 14  1  1  0  0  0
 13 15  1  0  0  0  0
 15 16  1  1  0  0  0
 17 18  1  6  0  0  0
 17 15  1  0  0  0  0
 18 19  1  0  0  0  0
 20 19  2  0  0  0  0
 21 27  2  0  0  0  0
 21 20  1  0  0  0  0
 22 21  1  0  0  0  0
 23 22  1  0  0  0  0
 24 22  2  0  0  0  0
 24 25  1  0  0  0  0
 25 26  2  0  0  0  0
 26 27  1  0  0  0  0
 27 18  1  0  0  0  0
M  END
>  <CHROM.1>
83.39682126,161.48592664,38.49433194,-77.19188541,35.89777471,-101.43912275
3.38956393,-15.14311066,-8.72432770,-2.62674940,0.26777877,1.58864687

>  <Name>
lig.pdb

>  <RI>
0

>  <Rbt.Current_Directory>
/home/itssahil/PROJECTS/Mol_Feturizer/New_Systems/rnas/4b5r

>  <Rbt.Executable>
rbdock ($Id: //depot/dev/client3/rdock/2013.1/src/exe/rbdock.cxx#4 $)

>  <Rbt.Library>
libRbt.so (2013.1, Build901 2013/11/27)

>  <Rbt.Parameter_File>
/export/apps/rDock/src/rDock_2013.1_src/data/scripts/dock_solv.prm

>  <Rbt.Receptor>
prm/pocket_docking_2.prm

>  <SCORE>
-16.2979

>  <SCORE.INTER>
-17.8229

>  <SCORE.INTER.CONST>
1

>  <SCORE.INTER.POLAR>
0

>  <SCORE.INTER.ROT>
6

>  <SCORE.INTER.SOLV>
17.3781

>  <SCORE.INTER.VDW>
-25.2746

>  <SCORE.INTER.norm>
-0.660106

>  <SCORE.INTRA>
0.926334

>  <SCORE.INTRA.DIHEDRAL>
2.38639

>  <SCORE.INTRA.DIHEDRAL.0>
10.2917

>  <SCORE.INTRA.POLAR>
0

>  <SCORE.INTRA.POLAR.0>
0

>  <SCORE.INTRA.REPUL>
0

>  <SCORE.INTRA.REPUL.0>
0

>  <SCORE.INTRA.SOLV>
-2.86231

>  <SCORE.INTRA.SOLV.lig_0>
-39.6315

>  <SCORE.INTRA.VDW>
1.1643

>  <SCORE.INTRA.VDW.0>
-4.02152

>  <SCORE.INTRA.norm>
0.0343087

>  <SCORE.RESTR>
0.598679

>  <SCORE.RESTR.CAVITY>
0.598679

>  <SCORE.RESTR.norm>
0.0221733

>  <SCORE.SYSTEM>
0

>  <SCORE.SYSTEM.CONST>
0

>  <SCORE.SYSTEM.DIHEDRAL>
0

>  <SCORE.SYSTEM.SOLV>
0

>  <SCORE.SYSTEM.norm>
0

>  <SCORE.heavy>
27

>  <SCORE.norm>
-0.603624

>  <RMSD>
1.313

$$$$
lig.pdb
 OpenBabel11021811493D
libRbt.so/2013.1/901 2013/11/27
 27 29  0  0  0  0  0  0  0  0999 V2000
    4.4847  -12.4727  -12.6345 N   0  0  0  0  0  0  0  0  0  0  0  0
    4.6596  -13.9173  -12.9760 C   0  0  2  0  0  0  0  0  0  0  0  0
    3.3798  -14.6714  -12.6272 C   0  0  0  0  0  0  0  0  0  0  0  0
    3.1770  -15.7765  -13.1164 O   0  0  0  0  0  0  0  0  0  0  0  0
    2.5182  -14.2135  -11.8658 O   0  0  0  0  0  0  0  0  0  0  0  0
    5.8990  -14.5624  -12.3237 C   0  0  0  0  0  0  0  0  0  0  0  0
    5.6829  -15.2642  -10.9572 C   0  0  0  0  0  0  0  0  0  0  0  0
    7.1259  -16.0509  -10.1191 S   0  0  2  0  0  0  0  0  0  0  0  0
    7.2791  -17.5945  -11.0428 C   0  0  0  0  0  0  0  0  0  0  0  0
    6.4282  -16.6855   -8.5789 C   0  0  0  0  0  0  0  0  0  0  0  0
    5.8918  -15.5301   -7.7440 C   0  0  1  0  0  0  0  0  0  0  0  0
    4.8168  -14.8520   -8.3763 O   0  0  0  0  0  0  0  0  0  0  0  0
    5.3145  -15.9709   -6.4258 C   0  0  1  0  0  0  0  0  0  0  0  0
    6.3410  -16.2176   -5.5085 O   0  0  0  0  0  0  0  0  0  0  0  0
    4.4781  -14.7617   -6.0697 C   0  0  1  0  0  0  0  0  0  0  0  0
    5.2889  -13.7648   -5.4817 O   0  0  0  0  0  0  0  0  0  0  0  0
    3.9665  -14.2547   -7.4135 C   0  0  2  0  0  0  0  0  0  0  0  0
    2.5326  -14.5424   -7.6919 N   0  0  0  0  0  0  0  0  0  0  0  0
    1.5510  -13.5973   -7.8537 C   0  0  0  0  0  0  0  0  0  0  0  0
    0.3735  -14.2168   -8.0927 N   0  0  0  0  0  0  0  0  0  0  0  0
    0.5788  -15.5442   -8.0967 C   0  0  0  0  0  0  0  0  0  0  0  0
   -0.2754  -16.6173   -8.2996 C   0  0  0  0  0  0  0  0  0  0  0  0
   -1.5623  -16.4117   -8.5472 N   0  0  0  0  0  0  0  0  0  0  0  0
    0.2312  -17.9007   -8.2471 N   0  0  0  0  0  0  0  0  0  0  0  0
    1.5785  -18.1303   -7.9984 C   0  0  0  0  0  0  0  0  0  0  0  0
    2.4146  -17.0496   -7.8047 N   0  0  0  0  0  0  0  0  0  0  0  0
    1.9291  -15.7745   -7.8449 C   0  0  0  0  0  0  0  0  0  0  0  0
  2  3  1  1  0  0  0
  2  6  1  0  0  0  0
  2  1  1  0  0  0  0
  4  3  2  0  0  0  0
  5  3  1  0  0  0  0
  6  7  2  0  0  0  0
  8  7  1  6  0  0  0
  8  9  1  0  0  0  0
  8 10  1  0  0  0  0
 11 10  1  6  0  0  0
 11 13  1  0  0  0  0
 12 11  1  0  0  0  0
 12 17  1  0  0  0  0
 13 14  1  1  0  0  0
 13 15  1  0  0  0  0
 15 16  1  6  0  0  0
 17 18  1  6  0  0  0
 17 15  1  0  0  0  0
 18 19  1  0  0  0  0
 20 19  2  0  0  0  0
 21 27  2  0  0  0  0
 21 20  1  0  0  0  0
 22 21  1  0  0  0  0
 23 22  1  0  0  0  0
 24 22  2  0  0  0  0
 24 25  1  0  0  0  0
 25 26  2  0  0  0  0
 26 27  1  0  0  0  0
 27 18  1  0  0  0  0
M  END
>  <CHROM.1>
162.05586042,92.72788780,-78.44240021,-62.03475222,63.71472189,-124.18101412
3.78214279,-15.44586194,-9.07895571,0.57116987,-0.02317662,-1.41295388

>  <Name>
lig.pdb

>  <RI>
0

>  <Rbt.Current_Directory>
/home/itssahil/PROJECTS/Mol_Feturizer/New_Systems/rnas/4b5r

>  <Rbt.Executable>
rbdock ($Id: //depot/dev/client3/rdock/2013.1/src/exe/rbdock.cxx#4 $)

>  <Rbt.Library>
libRbt.so (2013.1, Build901 2013/11/27)

>  <Rbt.Parameter_File>
/export/apps/rDock/src/rDock_2013.1_src/data/scripts/dock_solv.prm

>  <Rbt.Receptor>
prm/pocket_docking_3.prm

>  <SCORE>
-14.935

>  <SCORE.INTER>
-14.0296

>  <SCORE.INTER.CONST>
1

>  <SCORE.INTER.POLAR>
0

>  <SCORE.INTER.ROT>
6

>  <SCORE.INTER.SOLV>
16.6245

>  <SCORE.INTER.VDW>
-22.4946

>  <SCORE.INTER.norm>
-0.519616

>  <SCORE.INTRA>
-0.905326

>  <SCORE.INTRA.DIHEDRAL>
-1.51773

>  <SCORE.INTRA.DIHEDRAL.0>
10.2917

>  <SCORE.INTRA.POLAR>
0

>  <SCORE.INTRA.POLAR.0>
0

>  <SCORE.INTRA.REPUL>
0

>  <SCORE.INTRA.REPUL.0>
0

>  <SCORE.INTRA.SOLV>
-2.43309

>  <SCORE.INTRA.SOLV.lig_0>
-39.6315

>  <SCORE.INTRA.VDW>
1.07009

>  <SCORE.INTRA.VDW.0>
-4.02152

>  <SCORE.INTRA.norm>
-0.0335306

>  <SCORE.RESTR>
0

>  <SCORE.RESTR.CAVITY>
0

>  <SCORE.RESTR.norm>
0

>  <SCORE.SYSTEM>
0

>  <SCORE.SYSTEM.CONST>
0

>  <SCORE.SYSTEM.DIHEDRAL>
0

>  <SCORE.SYSTEM.SOLV>
0

>  <SCORE.SYSTEM.norm>
0

>  <SCORE.heavy>
27

>  <SCORE.norm>
-0.553147

>  <RMSD>
1.354

$$$$
lig.pdb
 OpenBabel11021811493D
libRbt.so/2013.1/901 2013/11/27
 27 29  0  0  0  0  0  0  0  0999 V2000
    3.9274  -15.6824  -14.9140 N   0  0  0  0  0  0  0  0  0  0  0  0
    3.5623  -16.1090  -13.5288 C   0  0  2  0  0  0  0  0  0  0  0  0
    2.0844  -15.8152  -13.2889 C   0  0  0  0  0  0  0  0  0  0  0  0
    1.2371  -16.3855  -13.9661 O   0  0  0  0  0  0  0  0  0  0  0  0
    1.6907  -15.0119  -12.4336 O   0  0  0  0  0  0  0  0  0  0  0  0
    4.4535  -15.4881  -12.4342 C   0  0  0  0  0  0  0  0  0  0  0  0
    4.7134  -13.9616  -12.5284 C   0  0  0  0  0  0  0  0  0  0  0  0
    5.7767  -13.1562  -11.2540 S   0  0  2  0  0  0  0  0  0  0  0  0
    7.3858  -13.1641  -12.0727 C   0  0  0  0  0  0  0  0  0  0  0  0
    6.0470  -14.4643  -10.0383 C   0  0  0  0  0  0  0  0  0  0  0  0
    5.5851  -13.9929   -8.6658 C   0  0  1  0  0  0  0  0  0  0  0  0
    4.2723  -13.4529   -8.6868 O   0  0  0  0  0  0  0  0  0  0  0  0
    5.5011  -15.1054   -7.6555 C   0  0  1  0  0  0  0  0  0  0  0  0
    6.7764  -15.4137   -7.1712 O   0  0  0  0  0  0  0  0  0  0  0  0
    4.6084  -14.4685   -6.6135 C   0  0  1  0  0  0  0  0  0  0  0  0
    5.3697  -13.6351   -5.7634 O   0  0  0  0  0  0  0  0  0  0  0  0
    3.6487  -13.6045   -7.4240 C   0  0  2  0  0  0  0  0  0  0  0  0
    2.2681  -14.1463   -7.5537 N   0  0  0  0  0  0  0  0  0  0  0  0
    1.1451  -13.6003   -6.9847 C   0  0  0  0  0  0  0  0  0  0  0  0
    0.0709  -14.3527   -7.3126 N   0  0  0  0  0  0  0  0  0  0  0  0
    0.4788  -15.3692   -8.0899 C   0  0  0  0  0  0  0  0  0  0  0  0
   -0.2078  -16.4090   -8.6982 C   0  0  0  0  0  0  0  0  0  0  0  0
   -1.5220  -16.5184   -8.5552 N   0  0  0  0  0  0  0  0  0  0  0  0
    0.4923  -17.3243   -9.4591 N   0  0  0  0  0  0  0  0  0  0  0  0
    1.8672  -17.2164   -9.6254 C   0  0  0  0  0  0  0  0  0  0  0  0
    2.5327  -16.1715   -9.0170 N   0  0  0  0  0  0  0  0  0  0  0  0
    1.8576  -15.2626   -8.2546 C   0  0  0  0  0  0  0  0  0  0  0  0
  2  3  1  1  0  0  0
  2  6  1  0  0  0  0
  2  1  1  0  0  0  0
  4  3  2  0  0  0  0
  5  3  1  0  0  0  0
  6  7  2  0  0  0  0
  8  7  1  6  0  0  0
  8  9  1  0  0  0  0
  8 10  1  0  0  0  0
 11 10  1  6  0  0  0
 11 13  1  0  0  0  0
 12 11  1  0  0  0  0
 12 17  1  0  0  0  0
 13 14  1  1  0  0  0
 13 15  1  0  0  0  0
 15 16  1  1  0  0  0
 17 18  1  6  0  0  0
 17 15  1  0  0  0  0
 18 19  1  0  0  0  0
 20 19  2  0  0  0  0
 21 27  2  0  0  0  0
 21 20  1  0  0  0  0
 22 21  1  0  0  0  0
 23 22  1  0  0  0  0
 24 22  2  0  0  0  0
 24 25  1  0  0  0  0
 25 26  2  0  0  0  0
 26 27  1  0  0  0  0
 27 18  1  0  0  0  0
M  END
>  <CHROM.1>
63.10649544,46.89655146,95.11681153,-123.39069057,50.42880666,-128.66624351
3.34752902,-14.90345018,-9.78595117,1.11947414,-0.36333996,-1.71473579

>  <Name>
lig.pdb

>  <RI>
0

>  <Rbt.Current_Directory>
/home/itssahil/PROJECTS/Mol_Feturizer/New_Systems/rnas/4b5r

>  <Rbt.Executable>
rbdock ($Id: //depot/dev/client3/rdock/2013.1/src/exe/rbdock.cxx#4 $)

>  <Rbt.Library>
libRbt.so (2013.1, Build901 2013/11/27)

>  <Rbt.Parameter_File>
/export/apps/rDock/src/rDock_2013.1_src/data/scripts/dock_solv.prm

>  <Rbt.Receptor>
prm/pocket_docking_3.prm

>  <SCORE>
-14.5901

>  <SCORE.INTER>
-16.3118

>  <SCORE.INTER.CONST>
1

>  <SCORE.INTER.POLAR>
0

>  <SCORE.INTER.ROT>
6

>  <SCORE.INTER.SOLV>
18.9847

>  <SCORE.INTER.VDW>
-24.8028

>  <SCORE.INTER.norm>
-0.604141

>  <SCORE.INTRA>
1.72174

>  <SCORE.INTRA.DIHEDRAL>
4.44921

>  <SCORE.INTRA.DIHEDRAL.0>
10.2917

>  <SCORE.INTRA.POLAR>
0

>  <SCORE.INTRA.POLAR.0>
0

>  <SCORE.INTRA.REPUL>
0

>  <SCORE.INTRA.REPUL.0>
0

>  <SCORE.INTRA.SOLV>
-2.1512

>  <SCORE.INTRA.SOLV.lig_0>
-39.6315

>  <SCORE.INTRA.VDW>
0.572729

>  <SCORE.INTRA.VDW.0>
-4.02152

>  <SCORE.INTRA.norm>
0.063768

>  <SCORE.RESTR>
0

>  <SCORE.RESTR.CAVITY>
0

>  <SCORE.RESTR.norm>
0

>  <SCORE.SYSTEM>
0

>  <SCORE.SYSTEM.CONST>
0

>  <SCORE.SYSTEM.DIHEDRAL>
0

>  <SCORE.SYSTEM.SOLV>
0

>  <SCORE.SYSTEM.norm>
0

>  <SCORE.heavy>
27

>  <SCORE.norm>
-0.540373

>  <RMSD>
1.359

$$$$
lig.pdb
 OpenBabel11021811493D
libRbt.so/2013.1/901 2013/11/27
 27 29  0  0  0  0  0  0  0  0999 V2000
    3.0440  -15.4311  -13.1054 N   0  0  0  0  0  0  0  0  0  0  0  0
    3.0383  -15.9151  -11.6912 C   0  0  2  0  0  0  0  0  0  0  0  0
    1.8164  -15.3483  -10.9743 C   0  0  0  0  0  0  0  0  0  0  0  0
    0.8080  -16.0356  -10.8634 O   0  0  0  0  0  0  0  0  0  0  0  0
    1.7895  -14.2075  -10.4951 O   0  0  0  0  0  0  0  0  0  0  0  0
    4.3422  -15.6097  -10.9268 C   0  0  0  0  0  0  0  0  0  0  0  0
    4.8207  -14.1340  -10.9243 C   0  0  0  0  0  0  0  0  0  0  0  0
    6.3772  -13.7011  -10.0336 S   0  0  2  0  0  0  0  0  0  0  0  0
    7.6251  -14.4185  -11.1233 C   0  0  0  0  0  0  0  0  0  0  0  0
    6.4357  -14.8924   -8.6774 C   0  0  0  0  0  0  0  0  0  0  0  0
    5.6906  -14.3348   -7.4719 C   0  0  1  0  0  0  0  0  0  0  0  0
    4.4636  -13.7152   -7.8265 O   0  0  0  0  0  0  0  0  0  0  0  0
    5.2863  -15.3956   -6.4837 C   0  0  1  0  0  0  0  0  0  0  0  0
    6.3816  -15.7621   -5.6951 O   0  0  0  0  0  0  0  0  0  0  0  0
    4.2159  -14.6602   -5.7079 C   0  0  1  0  0  0  0  0  0  0  0  0
    4.8067  -13.8404   -4.7200 O   0  0  0  0  0  0  0  0  0  0  0  0
    3.5443  -13.7733   -6.7504 C   0  0  2  0  0  0  0  0  0  0  0  0
    2.2010  -14.2327   -7.1985 N   0  0  0  0  0  0  0  0  0  0  0  0
    1.1070  -13.4250   -7.3821 C   0  0  0  0  0  0  0  0  0  0  0  0
    0.0625  -14.1789   -7.7921 N   0  0  0  0  0  0  0  0  0  0  0  0
    0.4648  -15.4571   -7.8849 C   0  0  0  0  0  0  0  0  0  0  0  0
   -0.1965  -16.6155   -8.2634 C   0  0  0  0  0  0  0  0  0  0  0  0
   -1.4720  -16.5713   -8.6249 N   0  0  0  0  0  0  0  0  0  0  0  0
    0.4907  -17.8132   -8.2653 N   0  0  0  0  0  0  0  0  0  0  0  0
    1.8292  -17.8727   -7.8985 C   0  0  0  0  0  0  0  0  0  0  0  0
    2.4722  -16.7084   -7.5303 N   0  0  0  0  0  0  0  0  0  0  0  0
    1.8060  -15.5172   -7.5148 C   0  0  0  0  0  0  0  0  0  0  0  0
  2  3  1  1  0  0  0
  2  6  1  0  0  0  0
  2  1  1  0  0  0  0
  4  3  2  0  0  0  0
  5  3  1  0  0  0  0
  6  7  2  0  0  0  0
  8  7  1  6  0  0  0
  8  9  1  0  0  0  0
  8 10  1  0  0  0  0
 11 10  1  6  0  0  0
 11 13  1  0  0  0  0
 12 11  1  0  0  0  0
 12 17  1  0  0  0  0
 13 14  1  1  0  0  0
 13 15  1  0  0  0  0
 15 16  1  1  0  0  0
 17 18  1  6  0  0  0
 17 15  1  0  0  0  0
 18 19  1  0  0  0  0
 20 19  2  0  0  0  0
 21 27  2  0  0  0  0
 21 20  1  0  0  0  0
 22 21  1  0  0  0  0
 23 22  1  0  0  0  0
 24 22  2  0  0  0  0
 24 25  1  0  0  0  0
 25 26  2  0  0  0  0
 26 27  1  0  0  0  0
 27 18  1  0  0  0  0
M  END
>  <CHROM.1>
97.61616985,53.33037771,72.21625579,-88.50475955,43.22237152,-103.57513409
3.28995081,-15.07958429,-8.64639654,-3.09339828,0.28484070,1.52596686

>  <Name>
lig.pdb

>  <RI>
0

>  <Rbt.Current_Directory>
/home/itssahil/PROJECTS/Mol_Feturizer/New_Systems/rnas/4b5r

>  <Rbt.Executable>
rbdock ($Id: //depot/dev/client3/rdock/2013.1/src/exe/rbdock.cxx#4 $)

>  <Rbt.Library>
libRbt.so (2013.1, Build901 2013/11/27)

>  <Rbt.Parameter_File>
/export/apps/rDock/src/rDock_2013.1_src/data/scripts/dock_solv.prm

>  <Rbt.Receptor>
prm/pocket_docking_3.prm

>  <SCORE>
-20.1244

>  <SCORE.INTER>
-19.2923

>  <SCORE.INTER.CONST>
1

>  <SCORE.INTER.POLAR>
0

>  <SCORE.INTER.ROT>
6

>  <SCORE.INTER.SOLV>
15.7512

>  <SCORE.INTER.VDW>
-25.7119

>  <SCORE.INTER.norm>
-0.71453

>  <SCORE.INTRA>
-0.832099

>  <SCORE.INTRA.DIHEDRAL>
2.76816

>  <SCORE.INTRA.DIHEDRAL.0>
10.2917

>  <SCORE.INTRA.POLAR>
0

>  <SCORE.INTRA.POLAR.0>
0

>  <SCORE.INTRA.REPUL>
0

>  <SCORE.INTRA.REPUL.0>
0

>  <SCORE.INTRA.SOLV>
-0.481441

>  <SCORE.INTRA.SOLV.lig_0>
-39.6315

>  <SCORE.INTRA.VDW>
-1.97546

>  <SCORE.INTRA.VDW.0>
-4.02152

>  <SCORE.INTRA.norm>
-0.0308185

>  <SCORE.RESTR>
0

>  <SCORE.RESTR.CAVITY>
0

>  <SCORE.RESTR.norm>
0

>  <SCORE.SYSTEM>
0

>  <SCORE.SYSTEM.CONST>
0

>  <SCORE.SYSTEM.DIHEDRAL>
0

>  <SCORE.SYSTEM.SOLV>
0

>  <SCORE.SYSTEM.norm>
0

>  <SCORE.heavy>
27

>  <SCORE.norm>
-0.745348

>  <RMSD>
1.363

$$$$
lig.pdb
 OpenBabel11021811493D
libRbt.so/2013.1/901 2013/11/27
 27 29  0  0  0  0  0  0  0  0999 V2000
    1.9603  -15.8612  -11.7736 N   0  0  0  0  0  0  0  0  0  0  0  0
    2.7288  -14.9114  -12.6347 C   0  0  2  0  0  0  0  0  0  0  0  0
    3.5007  -15.7032  -13.6861 C   0  0  0  0  0  0  0  0  0  0  0  0
    3.7371  -16.8904  -13.4957 O   0  0  0  0  0  0  0  0  0  0  0  0
    3.9121  -15.1972  -14.7380 O   0  0  0  0  0  0  0  0  0  0  0  0
    3.6513  -13.9639  -11.8415 C   0  0  0  0  0  0  0  0  0  0  0  0
    4.8914  -14.6032  -11.1631 C   0  0  0  0  0  0  0  0  0  0  0  0
    6.0330  -13.5266  -10.1930 S   0  0  2  0  0  0  0  0  0  0  0  0
    7.4508  -13.4139  -11.3050 C   0  0  0  0  0  0  0  0  0  0  0  0
    6.7119  -14.6428   -8.9460 C   0  0  0  0  0  0  0  0  0  0  0  0
    5.8975  -14.5357   -7.6635 C   0  0  1  0  0  0  0  0  0  0  0  0
    4.4986  -14.5190   -7.9043 O   0  0  0  0  0  0  0  0  0  0  0  0
    6.0904  -15.7089   -6.7405 C   0  0  1  0  0  0  0  0  0  0  0  0
    7.2945  -15.5790   -6.0412 O   0  0  0  0  0  0  0  0  0  0  0  0
    4.8717  -15.5701   -5.8552 C   0  0  1  0  0  0  0  0  0  0  0  0
    5.1136  -14.6183   -4.8391 O   0  0  0  0  0  0  0  0  0  0  0  0
    3.7927  -15.0337   -6.7893 C   0  0  2  0  0  0  0  0  0  0  0  0
    2.7633  -16.0274   -7.2006 N   0  0  0  0  0  0  0  0  0  0  0  0
    2.8580  -17.3854   -7.0274 C   0  0  0  0  0  0  0  0  0  0  0  0
    1.7440  -17.9740   -7.5173 N   0  0  0  0  0  0  0  0  0  0  0  0
    0.9283  -17.0201   -7.9955 C   0  0  0  0  0  0  0  0  0  0  0  0
   -0.3241  -17.0778   -8.5877 C   0  0  0  0  0  0  0  0  0  0  0  0
   -0.9286  -18.2453   -8.7644 N   0  0  0  0  0  0  0  0  0  0  0  0
   -0.9360  -15.9054   -8.9849 N   0  0  0  0  0  0  0  0  0  0  0  0
   -0.3189  -14.6751   -8.7971 C   0  0  0  0  0  0  0  0  0  0  0  0
    0.9251  -14.6370   -8.2007 N   0  0  0  0  0  0  0  0  0  0  0  0
    1.5480  -15.7868   -7.8096 C   0  0  0  0  0  0  0  0  0  0  0  0
  2  3  1  6  0  0  0
  2  6  1  0  0  0  0
  2  1  1  0  0  0  0
  4  3  2  0  0  0  0
  5  3  1  0  0  0  0
  6  7  2  0  0  0  0
  8  7  1  6  0  0  0
  8  9  1  0  0  0  0
  8 10  1  0  0  0  0
 11 10  1  6  0  0  0
 11 13  1  0  0  0  0
 12 11  1  0  0  0  0
 12 17  1  0  0  0  0
 13 14  1  1  0  0  0
 13 15  1  0  0  0  0
 15 16  1  1  0  0  0
 17 18  1  6  0  0  0
 17 15  1  0  0  0  0
 18 19  1  0  0  0  0
 20 19  2  0  0  0  0
 21 27  2  0  0  0  0
 21 20  1  0  0  0  0
 22 21  1  0  0  0  0
 23 22  1  0  0  0  0
 24 22  2  0  0  0  0
 24 25  1  0  0  0  0
 25 26  2  0  0  0  0
 26 27  1  0  0  0  0
 27 18  1  0  0  0  0
M  END
>  <CHROM.1>
-20.99366583,69.71965504,-106.01526493,-94.61789728,44.04929719,106.14917370
3.55163244,-15.40757807,-9.19261094,0.64571401,-0.35485285,-1.47171639

>  <Name>
lig.pdb

>  <RI>
0

>  <Rbt.Current_Directory>
/home/itssahil/PROJECTS/Mol_Feturizer/New_Systems/rnas/4b5r

>  <Rbt.Executable>
rbdock ($Id: //depot/dev/client3/rdock/2013.1/src/exe/rbdock.cxx#4 $)

>  <Rbt.Library>
libRbt.so (2013.1, Build901 2013/11/27)

>  <Rbt.Parameter_File>
/export/apps/rDock/src/rDock_2013.1_src/data/scripts/dock_solv.prm

>  <Rbt.Receptor>
prm/pocket_docking_3.prm

>  <SCORE>
-15.9731

>  <SCORE.INTER>
-18.4263

>  <SCORE.INTER.CONST>
1

>  <SCORE.INTER.POLAR>
0

>  <SCORE.INTER.ROT>
6

>  <SCORE.INTER.SOLV>
16.6919

>  <SCORE.INTER.VDW>
-25.4482

>  <SCORE.INTER.norm>
-0.682455

>  <SCORE.INTRA>
2.45321

>  <SCORE.INTRA.DIHEDRAL>
3.15926

>  <SCORE.INTRA.DIHEDRAL.0>
10.2917

>  <SCORE.INTRA.POLAR>
0

>  <SCORE.INTRA.POLAR.0>
0

>  <SCORE.INTRA.REPUL>
0

>  <SCORE.INTRA.REPUL.0>
0

>  <SCORE.INTRA.SOLV>
-0.847544

>  <SCORE.INTRA.SOLV.lig_0>
-39.6315

>  <SCORE.INTRA.VDW>
1.29735

>  <SCORE.INTRA.VDW.0>
-4.02152

>  <SCORE.INTRA.norm>
0.0908595

>  <SCORE.RESTR>
0

>  <SCORE.RESTR.CAVITY>
0

>  <SCORE.RESTR.norm>
0

>  <SCORE.SYSTEM>
0

>  <SCORE.SYSTEM.CONST>
0

>  <SCORE.SYSTEM.DIHEDRAL>
0

>  <SCORE.SYSTEM.SOLV>
0

>  <SCORE.SYSTEM.norm>
0

>  <SCORE.heavy>
27

>  <SCORE.norm>
-0.591596

>  <RMSD>
1.897

$$$$
lig.pdb
 OpenBabel11021811493D
libRbt.so/2013.1/901 2013/11/27
 27 29  0  0  0  0  0  0  0  0999 V2000
    4.6447  -16.1536  -14.4408 N   0  0  0  0  0  0  0  0  0  0  0  0
    4.4118  -16.2736  -12.9693 C   0  0  2  0  0  0  0  0  0  0  0  0
    2.9724  -15.8752  -12.6572 C   0  0  0  0  0  0  0  0  0  0  0  0
    2.2823  -15.3673  -13.5334 O   0  0  0  0  0  0  0  0  0  0  0  0
    2.4584  -16.0368  -11.5430 O   0  0  0  0  0  0  0  0  0  0  0  0
    5.4221  -15.4810  -12.1155 C   0  0  0  0  0  0  0  0  0  0  0  0
    4.8399  -14.3914  -11.1773 C   0  0  0  0  0  0  0  0  0  0  0  0
    5.9947  -13.4017  -10.1330 S   0  0  2  0  0  0  0  0  0  0  0  0
    7.4130  -13.2248  -11.2361 C   0  0  0  0  0  0  0  0  0  0  0  0
    6.6613  -14.6136   -8.9717 C   0  0  0  0  0  0  0  0  0  0  0  0
    5.8791  -14.5575   -7.6661 C   0  0  1  0  0  0  0  0  0  0  0  0
    4.4745  -14.5397   -7.8709 O   0  0  0  0  0  0  0  0  0  0  0  0
    6.1006  -15.7623   -6.7915 C   0  0  1  0  0  0  0  0  0  0  0  0
    7.3214  -15.6512   -6.1184 O   0  0  0  0  0  0  0  0  0  0  0  0
    4.9041  -15.6623   -5.8714 C   0  0  1  0  0  0  0  0  0  0  0  0
    5.1674  -14.7466   -4.8278 O   0  0  0  0  0  0  0  0  0  0  0  0
    3.7994  -15.0982   -6.7579 C   0  0  2  0  0  0  0  0  0  0  0  0
    2.7644  -16.0820   -7.1791 N   0  0  0  0  0  0  0  0  0  0  0  0
    2.8437  -17.4407   -7.0037 C   0  0  0  0  0  0  0  0  0  0  0  0
    1.7290  -18.0185   -7.5047 N   0  0  0  0  0  0  0  0  0  0  0  0
    0.9279  -17.0570   -7.9923 C   0  0  0  0  0  0  0  0  0  0  0  0
   -0.3188  -17.1027   -8.5974 C   0  0  0  0  0  0  0  0  0  0  0  0
   -0.9330  -18.2643   -8.7795 N   0  0  0  0  0  0  0  0  0  0  0  0
   -0.9146  -15.9246   -9.0020 N   0  0  0  0  0  0  0  0  0  0  0  0
   -0.2872  -14.7003   -8.8089 C   0  0  0  0  0  0  0  0  0  0  0  0
    0.9508  -14.6742   -8.1996 N   0  0  0  0  0  0  0  0  0  0  0  0
    1.5580  -15.8298   -7.8010 C   0  0  0  0  0  0  0  0  0  0  0  0
  2  3  1  6  0  0  0
  2  6  1  0  0  0  0
  2  1  1  0  0  0  0
  4  3  2  0  0  0  0
  5  3  1  0  0  0  0
  6  7  2  0  0  0  0
  8  7  1  6  0  0  0
  8  9  1  0  0  0  0
  8 10  1  0  0  0  0
 11 10  1  6  0  0  0
 11 13  1  0  0  0  0
 12 11  1  0  0  0  0
 12 17  1  0  0  0  0
 13 14  1  1  0  0  0
 13 15  1  0  0  0  0
 15 16  1  1  0  0  0
 17 18  1  6  0  0  0
 17 15  1  0  0  0  0
 18 19  1  0  0  0  0
 20 19  2  0  0  0  0
 21 27  2  0  0  0  0
 21 20  1  0  0  0  0
 22 21  1  0  0  0  0
 23 22  1  0  0  0  0
 24 22  2  0  0  0  0
 24 25  1  0  0  0  0
 25 26  2  0  0  0  0
 26 27  1  0  0  0  0
 27 18  1  0  0  0  0
M  END
>  <CHROM.1>
-9.41397942,120.63418065,36.24420554,-96.54203560,46.68286863,109.22561442
3.62495633,-15.49468977,-9.14340446,0.28379177,-0.34956977,-1.50763020

>  <Name>
lig.pdb

>  <RI>
0

>  <Rbt.Current_Directory>
/home/itssahil/PROJECTS/Mol_Feturizer/New_Systems/rnas/4b5r

>  <Rbt.Executable>
rbdock ($Id: //depot/dev/client3/rdock/2013.1/src/exe/rbdock.cxx#4 $)

>  <Rbt.Library>
libRbt.so (2013.1, Build901 2013/11/27)

>  <Rbt.Parameter_File>
/export/apps/rDock/src/rDock_2013.1_src/data/scripts/dock_solv.prm

>  <Rbt.Receptor>
prm/pocket_docking_3.prm

>  <SCORE>
-14.447

>  <SCORE.INTER>
-15.8663

>  <SCORE.INTER.CONST>
1

>  <SCORE.INTER.POLAR>
0

>  <SCORE.INTER.ROT>
6

>  <SCORE.INTER.SOLV>
17.1755

>  <SCORE.INTER.VDW>
-23.9027

>  <SCORE.INTER.norm>
-0.587642

>  <SCORE.INTRA>
1.41839

>  <SCORE.INTRA.DIHEDRAL>
0.806402

>  <SCORE.INTRA.DIHEDRAL.0>
10.2917

>  <SCORE.INTRA.POLAR>
0

>  <SCORE.INTRA.POLAR.0>
0

>  <SCORE.INTRA.REPUL>
0.000620227

>  <SCORE.INTRA.REPUL.0>
0

>  <SCORE.INTRA.SOLV>
-3.27108

>  <SCORE.INTRA.SOLV.lig_0>
-39.6315

>  <SCORE.INTRA.VDW>
2.64762

>  <SCORE.INTRA.VDW.0>
-4.02152

>  <SCORE.INTRA.norm>
0.0525328

>  <SCORE.RESTR>
0.000936512

>  <SCORE.RESTR.CAVITY>
0.000936512

>  <SCORE.RESTR.norm>
3.46856e-05

>  <SCORE.SYSTEM>
0

>  <SCORE.SYSTEM.CONST>
0

>  <SCORE.SYSTEM.DIHEDRAL>
0

>  <SCORE.SYSTEM.SOLV>
0

>  <SCORE.SYSTEM.norm>
0

>  <SCORE.heavy>
27

>  <SCORE.norm>
-0.535075

>  <RMSD>
2.077

$$$$
lig.pdb
 OpenBabel11021811493D
libRbt.so/2013.1/901 2013/11/27
 27 29  0  0  0  0  0  0  0  0999 V2000
    3.3484  -15.9333  -13.0409 N   0  0  0  0  0  0  0  0  0  0  0  0
    3.2273  -16.4193  -11.6327 C   0  0  2  0  0  0  0  0  0  0  0  0
    1.7525  -16.4593  -11.2433 C   0  0  0  0  0  0  0  0  0  0  0  0
    1.1321  -15.4102  -11.1167 O   0  0  0  0  0  0  0  0  0  0  0  0
    1.1412  -17.5161  -11.0399 O   0  0  0  0  0  0  0  0  0  0  0  0
    4.0632  -15.6072  -10.6230 C   0  0  0  0  0  0  0  0  0  0  0  0
    4.9216  -14.4502  -11.1983 C   0  0  0  0  0  0  0  0  0  0  0  0
    5.9507  -13.4427  -10.0452 S   0  0  2  0  0  0  0  0  0  0  0  0
    7.4053  -13.1093  -11.0613 C   0  0  0  0  0  0  0  0  0  0  0  0
    6.6437  -14.6681   -8.9139 C   0  0  0  0  0  0  0  0  0  0  0  0
    5.8713  -14.6496   -7.6014 C   0  0  1  0  0  0  0  0  0  0  0  0
    4.4656  -14.6096   -7.7952 O   0  0  0  0  0  0  0  0  0  0  0  0
    6.0857  -15.8867   -6.7713 C   0  0  1  0  0  0  0  0  0  0  0  0
    7.3123  -15.8124   -6.1037 O   0  0  0  0  0  0  0  0  0  0  0  0
    4.8968  -15.8063   -5.8395 C   0  0  1  0  0  0  0  0  0  0  0  0
    5.1773  -14.9307   -4.7664 O   0  0  0  0  0  0  0  0  0  0  0  0
    3.7921  -15.1997   -6.6975 C   0  0  2  0  0  0  0  0  0  0  0  0
    2.7436  -16.1569   -7.1454 N   0  0  0  0  0  0  0  0  0  0  0  0
    2.8026  -17.5206   -7.0051 C   0  0  0  0  0  0  0  0  0  0  0  0
    1.6804  -18.0689   -7.5223 N   0  0  0  0  0  0  0  0  0  0  0  0
    0.8944  -17.0834   -7.9860 C   0  0  0  0  0  0  0  0  0  0  0  0
   -0.3518  -17.0951   -8.5938 C   0  0  0  0  0  0  0  0  0  0  0  0
   -0.9827  -18.2424   -8.8066 N   0  0  0  0  0  0  0  0  0  0  0  0
   -0.9296  -15.8983   -8.9687 N   0  0  0  0  0  0  0  0  0  0  0  0
   -0.2845  -14.6888   -8.7432 C   0  0  0  0  0  0  0  0  0  0  0  0
    0.9526  -14.6966   -8.1317 N   0  0  0  0  0  0  0  0  0  0  0  0
    1.5421  -15.8710   -7.7623 C   0  0  0  0  0  0  0  0  0  0  0  0
  2  3  1  1  0  0  0
  2  6  1  0  0  0  0
  2  1  1  0  0  0  0
  4  3  2  0  0  0  0
  5  3  1  0  0  0  0
  6  7  2  0  0  0  0
  8  7  1  6  0  0  0
  8  9  1  0  0  0  0
  8 10  1  0  0  0  0
 11 10  1  6  0  0  0
 11 13  1  0  0  0  0
 12 11  1  0  0  0  0
 12 17  1  0  0  0  0
 13 14  1  1  0  0  0
 13 15  1  0  0  0  0
 15 16  1  1  0  0  0
 17 18  1  6  0  0  0
 17 15  1  0  0  0  0
 18 19  1  0  0  0  0
 20 19  2  0  0  0  0
 21 27  2  0  0  0  0
 21 20  1  0  0  0  0
 22 21  1  0  0  0  0
 23 22  1  0  0  0  0
 24 22  2  0  0  0  0
 24 25  1  0  0  0  0
 25 26  2  0  0  0  0
 26 27  1  0  0  0  0
 27 18  1  0  0  0  0
M  END
>  <CHROM.1>
-68.48046039,-1.50379004,144.27349151,-101.54179403,45.00961397,109.99104684
3.34301819,-15.61918144,-8.80132589,-3.04282921,0.38015538,1.75239700

>  <Name>
lig.pdb

>  <RI>
0

>  <Rbt.Current_Directory>
/home/itssahil/PROJECTS/Mol_Feturizer/New_Systems/rnas/4b5r

>  <Rbt.Executable>
rbdock ($Id: //depot/dev/client3/rdock/2013.1/src/exe/rbdock.cxx#4 $)

>  <Rbt.Library>
libRbt.so (2013.1, Build901 2013/11/27)

>  <Rbt.Parameter_File>
/export/apps/rDock/src/rDock_2013.1_src/data/scripts/dock_solv.prm

>  <Rbt.Receptor>
prm/pocket_docking_3.prm

>  <SCORE>
-17.4823

>  <SCORE.INTER>
-16.5673

>  <SCORE.INTER.CONST>
1

>  <SCORE.INTER.POLAR>
0

>  <SCORE.INTER.ROT>
6

>  <SCORE.INTER.SOLV>
15.3295

>  <SCORE.INTER.VDW>
-23.7547

>  <SCORE.INTER.norm>
-0.613605

>  <SCORE.INTRA>
-0.914974

>  <SCORE.INTRA.DIHEDRAL>
-0.138765

>  <SCORE.INTRA.DIHEDRAL.0>
10.2917

>  <SCORE.INTRA.POLAR>
0

>  <SCORE.INTRA.POLAR.0>
0

>  <SCORE.INTRA.REPUL>
0.00123221

>  <SCORE.INTRA.REPUL.0>
0

>  <SCORE.INTRA.SOLV>
-0.221327

>  <SCORE.INTRA.SOLV.lig_0>
-39.6315

>  <SCORE.INTRA.VDW>
-0.741089

>  <SCORE.INTRA.VDW.0>
-4.02152

>  <SCORE.INTRA.norm>
-0.0338879

>  <SCORE.RESTR>
0

>  <SCORE.RESTR.CAVITY>
0

>  <SCORE.RESTR.norm>
0

>  <SCORE.SYSTEM>
0

>  <SCORE.SYSTEM.CONST>
0

>  <SCORE.SYSTEM.DIHEDRAL>
0

>  <SCORE.SYSTEM.SOLV>
0

>  <SCORE.SYSTEM.norm>
0

>  <SCORE.heavy>
27

>  <SCORE.norm>
-0.647493

>  <RMSD>
2.143

$$$$
lig.pdb
 OpenBabel11021811493D
libRbt.so/2013.1/901 2013/11/27
 27 29  0  0  0  0  0  0  0  0999 V2000
    5.9957  -16.0056  -15.3291 N   0  0  0  0  0  0  0  0  0  0  0  0
    6.5874  -15.1704  -14.2399 C   0  0  2  0  0  0  0  0  0  0  0  0
    7.9672  -15.7169  -13.8851 C   0  0  0  0  0  0  0  0  0  0  0  0
    8.9503  -14.9937  -13.9950 O   0  0  0  0  0  0  0  0  0  0  0  0
    8.1480  -16.8757  -13.4897 O   0  0  0  0  0  0  0  0  0  0  0  0
    5.6851  -15.0450  -12.9958 C   0  0  0  0  0  0  0  0  0  0  0  0
    6.3567  -15.2889  -11.6189 C   0  0  0  0  0  0  0  0  0  0  0  0
    5.3321  -15.1608  -10.0900 S   0  0  2  0  0  0  0  0  0  0  0  0
    4.3318  -13.7016  -10.4502 C   0  0  0  0  0  0  0  0  0  0  0  0
    6.4687  -14.4587   -8.8748 C   0  0  0  0  0  0  0  0  0  0  0  0
    5.8000  -14.4235   -7.5069 C   0  0  1  0  0  0  0  0  0  0  0  0
    4.5474  -13.7557   -7.5280 O   0  0  0  0  0  0  0  0  0  0  0  0
    5.4699  -15.7920   -6.9743 C   0  0  1  0  0  0  0  0  0  0  0  0
    6.6175  -16.3943   -6.4488 O   0  0  0  0  0  0  0  0  0  0  0  0
    4.4469  -15.4401   -5.9170 C   0  0  1  0  0  0  0  0  0  0  0  0
    5.0948  -15.0369   -4.7276 O   0  0  0  0  0  0  0  0  0  0  0  0
    3.7012  -14.2467   -6.5036 C   0  0  2  0  0  0  0  0  0  0  0  0
    2.3352  -14.5453   -7.0143 N   0  0  0  0  0  0  0  0  0  0  0  0
    1.3265  -13.6273   -7.1649 C   0  0  0  0  0  0  0  0  0  0  0  0
    0.2294  -14.2492   -7.6518 N   0  0  0  0  0  0  0  0  0  0  0  0
    0.5143  -15.5501   -7.8265 C   0  0  0  0  0  0  0  0  0  0  0  0
   -0.2397  -16.6121   -8.3021 C   0  0  0  0  0  0  0  0  0  0  0  0
   -1.4944  -16.4230   -8.6888 N   0  0  0  0  0  0  0  0  0  0  0  0
    0.3336  -17.8663   -8.3738 N   0  0  0  0  0  0  0  0  0  0  0  0
    1.6494  -18.0770   -7.9813 C   0  0  0  0  0  0  0  0  0  0  0  0
    2.3861  -17.0067   -7.5161 N   0  0  0  0  0  0  0  0  0  0  0  0
    1.8327  -15.7619   -7.4307 C   0  0  0  0  0  0  0  0  0  0  0  0
  2  3  1  1  0  0  0
  2  6  1  0  0  0  0
  2  1  1  0  0  0  0
  4  3  2  0  0  0  0
  5  3  1  0  0  0  0
  6  7  2  0  0  0  0
  8  7  1  6  0  0  0
  8  9  1  0  0  0  0
  8 10  1  0  0  0  0
 11 10  1  6  0  0  0
 11 13  1  0  0  0  0
 12 11  1  0  0  0  0
 12 17  1  0  0  0  0
 13 14  1  1  0  0  0
 13 15  1  0  0  0  0
 15 16  1  1  0  0  0
 17 18  1  6  0  0  0
 17 15  1  0  0  0  0
 18 19  1  0  0  0  0
 20 19  2  0  0  0  0
 21 27  2  0  0  0  0
 21 20  1  0  0  0  0
 22 21  1  0  0  0  0
 23 22  1  0  0  0  0
 24 22  2  0  0  0  0
 24 25  1  0  0  0  0
 25 26  2  0  0  0  0
 26 27  1  0  0  0  0
 27 18  1  0  0  0  0
M  END
>  <CHROM.1>
120.77293191,132.22393200,-41.72046617,-174.26077018,-53.88596566,-83.50690203
4.23355168,-15.42918315,-9.25139675,0.81526301,-0.18598635,-1.71900846

>  <Name>
lig.pdb

>  <RI>
0

>  <Rbt.Current_Directory>
/home/itssahil/PROJECTS/Mol_Feturizer/New_Systems/rnas/4b5r

>  <Rbt.Executable>
rbdock ($Id: //depot/dev/client3/rdock/2013.1/src/exe/rbdock.cxx#4 $)

>  <Rbt.Library>
libRbt.so (2013.1, Build901 2013/11/27)

>  <Rbt.Parameter_File>
/export/apps/rDock/src/rDock_2013.1_src/data/scripts/dock_solv.prm

>  <Rbt.Receptor>
prm/pocket_docking_7.prm

>  <SCORE>
-15.8264

>  <SCORE.INTER>
-15.209

>  <SCORE.INTER.CONST>
1

>  <SCORE.INTER.POLAR>
0

>  <SCORE.INTER.ROT>
6

>  <SCORE.INTER.SOLV>
13.8715

>  <SCORE.INTER.VDW>
-22.3632

>  <SCORE.INTER.norm>
-0.563296

>  <SCORE.INTRA>
-0.617399

>  <SCORE.INTRA.DIHEDRAL>
-2.54106

>  <SCORE.INTRA.DIHEDRAL.0>
10.2917

>  <SCORE.INTRA.POLAR>
0

>  <SCORE.INTRA.POLAR.0>
0

>  <SCORE.INTRA.REPUL>
0

>  <SCORE.INTRA.REPUL.0>
0

>  <SCORE.INTRA.SOLV>
-2.65081

>  <SCORE.INTRA.SOLV.lig_0>
-39.6315

>  <SCORE.INTRA.VDW>
1.97854

>  <SCORE.INTRA.VDW.0>
-4.02152

>  <SCORE.INTRA.norm>
-0.0228666

>  <SCORE.RESTR>
0

>  <SCORE.RESTR.CAVITY>
0

>  <SCORE.RESTR.norm>
0

>  <SCORE.SYSTEM>
0

>  <SCORE.SYSTEM.CONST>
0

>  <SCORE.SYSTEM.DIHEDRAL>
0

>  <SCORE.SYSTEM.SOLV>
0

>  <SCORE.SYSTEM.norm>
0

>  <SCORE.heavy>
27

>  <SCORE.norm>
-0.586163

>  <RMSD>
2.637

$$$$
lig.pdb
 OpenBabel11021811493D
libRbt.so/2013.1/901 2013/11/27
 27 29  0  0  0  0  0  0  0  0999 V2000
    6.0669  -15.9316  -15.3341 N   0  0  0  0  0  0  0  0  0  0  0  0
    6.6565  -15.0918  -14.2473 C   0  0  2  0  0  0  0  0  0  0  0  0
    8.0321  -15.6416  -13.8818 C   0  0  0  0  0  0  0  0  0  0  0  0
    9.0067  -14.8993  -13.9099 O   0  0  0  0  0  0  0  0  0  0  0  0
    8.2180  -16.8215  -13.5576 O   0  0  0  0  0  0  0  0  0  0  0  0
    5.7482  -14.9545  -13.0088 C   0  0  0  0  0  0  0  0  0  0  0  0
    6.3991  -15.2429  -11.6304 C   0  0  0  0  0  0  0  0  0  0  0  0
    5.3663  -15.1033  -10.1082 S   0  0  2  0  0  0  0  0  0  0  0  0
    4.4535  -13.5798  -10.4329 C   0  0  0  0  0  0  0  0  0  0  0  0
    6.5268  -14.5032   -8.8613 C   0  0  0  0  0  0  0  0  0  0  0  0
    5.8489  -14.4806   -7.4977 C   0  0  1  0  0  0  0  0  0  0  0  0
    4.6040  -13.7986   -7.5176 O   0  0  0  0  0  0  0  0  0  0  0  0
    5.4999  -15.8530   -6.9877 C   0  0  1  0  0  0  0  0  0  0  0  0
    6.6370  -16.4757   -6.4632 O   0  0  0  0  0  0  0  0  0  0  0  0
    4.4734  -15.5052   -5.9323 C   0  0  1  0  0  0  0  0  0  0  0  0
    5.1173  -15.1268   -4.7327 O   0  0  0  0  0  0  0  0  0  0  0  0
    3.7452  -14.2950   -6.5064 C   0  0  2  0  0  0  0  0  0  0  0  0
    2.3795  -14.5709   -7.0309 N   0  0  0  0  0  0  0  0  0  0  0  0
    1.3903  -13.6348   -7.1987 C   0  0  0  0  0  0  0  0  0  0  0  0
    0.2872  -14.2388   -7.6944 N   0  0  0  0  0  0  0  0  0  0  0  0
    0.5491  -15.5459   -7.8578 C   0  0  0  0  0  0  0  0  0  0  0  0
   -0.2196  -16.5964   -8.3354 C   0  0  0  0  0  0  0  0  0  0  0  0
   -1.4659  -16.3859   -8.7377 N   0  0  0  0  0  0  0  0  0  0  0  0
    0.3304  -17.8617   -8.3928 N   0  0  0  0  0  0  0  0  0  0  0  0
    1.6374  -18.0949   -7.9840 C   0  0  0  0  0  0  0  0  0  0  0  0
    2.3891  -17.0359   -7.5169 N   0  0  0  0  0  0  0  0  0  0  0  0
    1.8586  -15.7802   -7.4456 C   0  0  0  0  0  0  0  0  0  0  0  0
  2  3  1  1  0  0  0
  2  6  1  0  0  0  0
  2  1  1  0  0  0  0
  4  3  2  0  0  0  0
  5  3  1  0  0  0  0
  6  7  2  0  0  0  0
  8  7  1  6  0  0  0
  8  9  1  0  0  0  0
  8 10  1  0  0  0  0
 11 10  1  6  0  0  0
 11 13  1  0  0  0  0
 12 11  1  0  0  0  0
 12 17  1  0  0  0  0
 13 14  1  1  0  0  0
 13 15  1  0  0  0  0
 15 16  1  1  0  0  0
 17 18  1  6  0  0  0
 17 15  1  0  0  0  0
 18 19  1  0  0  0  0
 20 19  2  0  0  0  0
 21 27  2  0  0  0  0
 21 20  1  0  0  0  0
 22 21  1  0  0  0  0
 23 22  1  0  0  0  0
 24 22  2  0  0  0  0
 24 25  1  0  0  0  0
 25 26  2  0  0  0  0
 26 27  1  0  0  0  0
 27 18  1  0  0  0  0
M  END
>  <CHROM.1>
125.38231896,130.05634737,-43.22294425,-173.87084110,-51.29751622,-82.19771931
4.27660077,-15.42052133,-9.26153002,0.81027917,-0.18005849,-1.69726079

>  <Name>
lig.pdb

>  <RI>
0

>  <Rbt.Current_Directory>
/home/itssahil/PROJECTS/Mol_Feturizer/New_Systems/rnas/4b5r

>  <Rbt.Executable>
rbdock ($Id: //depot/dev/client3/rdock/2013.1/src/exe/rbdock.cxx#4 $)

>  <Rbt.Library>
libRbt.so (2013.1, Build901 2013/11/27)

>  <Rbt.Parameter_File>
/export/apps/rDock/src/rDock_2013.1_src/data/scripts/dock_solv.prm

>  <Rbt.Receptor>
prm/pocket_docking_5.prm

>  <SCORE>
-15.8153

>  <SCORE.INTER>
-15.2619

>  <SCORE.INTER.CONST>
1

>  <SCORE.INTER.POLAR>
0

>  <SCORE.INTER.ROT>
6

>  <SCORE.INTER.SOLV>
13.6836

>  <SCORE.INTER.VDW>
-22.3358

>  <SCORE.INTER.norm>
-0.565255

>  <SCORE.INTRA>
-0.55338

>  <SCORE.INTRA.DIHEDRAL>
-2.45382

>  <SCORE.INTRA.DIHEDRAL.0>
10.2917

>  <SCORE.INTRA.POLAR>
0

>  <SCORE.INTRA.POLAR.0>
0

>  <SCORE.INTRA.REPUL>
0

>  <SCORE.INTRA.REPUL.0>
0

>  <SCORE.INTRA.SOLV>
-2.65094

>  <SCORE.INTRA.SOLV.lig_0>
-39.6315

>  <SCORE.INTRA.VDW>
1.999

>  <SCORE.INTRA.VDW.0>
-4.02152

>  <SCORE.INTRA.norm>
-0.0204956

>  <SCORE.RESTR>
0

>  <SCORE.RESTR.CAVITY>
0

>  <SCORE.RESTR.norm>
0

>  <SCORE.SYSTEM>
0

>  <SCORE.SYSTEM.CONST>
0

>  <SCORE.SYSTEM.DIHEDRAL>
0

>  <SCORE.SYSTEM.SOLV>
0

>  <SCORE.SYSTEM.norm>
0

>  <SCORE.heavy>
27

>  <SCORE.norm>
-0.585751

>  <RMSD>
2.657

$$$$
lig.pdb
 OpenBabel11021811493D
libRbt.so/2013.1/901 2013/11/27
 27 29  0  0  0  0  0  0  0  0999 V2000
    7.6799  -18.5066  -13.0312 N   0  0  0  0  0  0  0  0  0  0  0  0
    6.7966  -17.3668  -13.4244 C   0  0  2  0  0  0  0  0  0  0  0  0
    7.6624  -16.2106  -13.9163 C   0  0  0  0  0  0  0  0  0  0  0  0
    7.5087  -15.7818  -15.0539 O   0  0  0  0  0  0  0  0  0  0  0  0
    8.5312  -15.6777  -13.2142 O   0  0  0  0  0  0  0  0  0  0  0  0
    5.8274  -16.9215  -12.3108 C   0  0  0  0  0  0  0  0  0  0  0  0
    6.4369  -16.1080  -11.1389 C   0  0  0  0  0  0  0  0  0  0  0  0
    5.3333  -15.5497   -9.7700 S   0  0  2  0  0  0  0  0  0  0  0  0
    4.4765  -14.1617  -10.5438 C   0  0  0  0  0  0  0  0  0  0  0  0
    6.4450  -14.6466   -8.6699 C   0  0  0  0  0  0  0  0  0  0  0  0
    5.7103  -14.2772   -7.3880 C   0  0  1  0  0  0  0  0  0  0  0  0
    4.4696  -13.6331   -7.6355 O   0  0  0  0  0  0  0  0  0  0  0  0
    5.3354  -15.4736   -6.5552 C   0  0  1  0  0  0  0  0  0  0  0  0
    6.4473  -15.9308   -5.8407 O   0  0  0  0  0  0  0  0  0  0  0  0
    4.2666  -14.8725   -5.6694 C   0  0  1  0  0  0  0  0  0  0  0  0
    4.8606  -14.1918   -4.5829 O   0  0  0  0  0  0  0  0  0  0  0  0
    3.5673  -13.8576   -6.5669 C   0  0  2  0  0  0  0  0  0  0  0  0
    2.2240  -14.2702   -7.0585 N   0  0  0  0  0  0  0  0  0  0  0  0
    1.1515  -13.4322   -7.2328 C   0  0  0  0  0  0  0  0  0  0  0  0
    0.0998  -14.1469   -7.6916 N   0  0  0  0  0  0  0  0  0  0  0  0
    0.4765  -15.4293   -7.8249 C   0  0  0  0  0  0  0  0  0  0  0  0
   -0.2014  -16.5578   -8.2601 C   0  0  0  0  0  0  0  0  0  0  0  0
   -1.4680  -16.4719   -8.6446 N   0  0  0  0  0  0  0  0  0  0  0  0
    0.4600  -17.7695   -8.2938 N   0  0  0  0  0  0  0  0  0  0  0  0
    1.7891  -17.8722   -7.9032 C   0  0  0  0  0  0  0  0  0  0  0  0
    2.4491  -16.7371   -7.4786 N   0  0  0  0  0  0  0  0  0  0  0  0
    1.8083  -15.5328   -7.4309 C   0  0  0  0  0  0  0  0  0  0  0  0
  2  3  1  1  0  0  0
  2  6  1  0  0  0  0
  2  1  1  0  0  0  0
  4  3  2  0  0  0  0
  5  3  1  0  0  0  0
  6  7  2  0  0  0  0
  8  7  1  6  0  0  0
  8  9  1  0  0  0  0
  8 10  1  0  0  0  0
 11 10  1  6  0  0  0
 11 13  1  0  0  0  0
 12 11  1  0  0  0  0
 12 17  1  0  0  0  0
 13 14  1  1  0  0  0
 13 15  1  0  0  0  0
 15 16  1  1  0  0  0
 17 18  1  6  0  0  0
 17 15  1  0  0  0  0
 18 19  1  0  0  0  0
 20 19  2  0  0  0  0
 21 27  2  0  0  0  0
 21 20  1  0  0  0  0
 22 21  1  0  0  0  0
 23 22  1  0  0  0  0
 24 22  2  0  0  0  0
 24 25  1  0  0  0  0
 25 26  2  0  0  0  0
 26 27  1  0  0  0  0
 27 18  1  0  0  0  0
M  END
>  <CHROM.1>
121.03444050,74.99080030,-76.29653556,-172.50709471,-50.99109711,-96.93812909
4.21993329,-15.58009661,-9.05092279,0.80649507,-0.19261031,-1.93932259

>  <Name>
lig.pdb

>  <RI>
0

>  <Rbt.Current_Directory>
/home/itssahil/PROJECTS/Mol_Feturizer/New_Systems/rnas/4b5r

>  <Rbt.Executable>
rbdock ($Id: //depot/dev/client3/rdock/2013.1/src/exe/rbdock.cxx#4 $)

>  <Rbt.Library>
libRbt.so (2013.1, Build901 2013/11/27)

>  <Rbt.Parameter_File>
/export/apps/rDock/src/rDock_2013.1_src/data/scripts/dock_solv.prm

>  <Rbt.Receptor>
prm/pocket_docking_7.prm

>  <SCORE>
-16.148

>  <SCORE.INTER>
-15.9111

>  <SCORE.INTER.CONST>
1

>  <SCORE.INTER.POLAR>
0

>  <SCORE.INTER.ROT>
6

>  <SCORE.INTER.SOLV>
16.8327

>  <SCORE.INTER.VDW>
-23.8183

>  <SCORE.INTER.norm>
-0.589299

>  <SCORE.INTRA>
-0.238463

>  <SCORE.INTRA.DIHEDRAL>
0.388087

>  <SCORE.INTRA.DIHEDRAL.0>
10.2917

>  <SCORE.INTRA.POLAR>
0

>  <SCORE.INTRA.POLAR.0>
0

>  <SCORE.INTRA.REPUL>
0

>  <SCORE.INTRA.REPUL.0>
0

>  <SCORE.INTRA.SOLV>
-2.23053

>  <SCORE.INTRA.SOLV.lig_0>
-39.6315

>  <SCORE.INTRA.VDW>
0.682759

>  <SCORE.INTRA.VDW.0>
-4.02152

>  <SCORE.INTRA.norm>
-0.00883197

>  <SCORE.RESTR>
0.00156427

>  <SCORE.RESTR.CAVITY>
0.00156427

>  <SCORE.RESTR.norm>
5.79358e-05

>  <SCORE.SYSTEM>
0

>  <SCORE.SYSTEM.CONST>
0

>  <SCORE.SYSTEM.DIHEDRAL>
0

>  <SCORE.SYSTEM.SOLV>
0

>  <SCORE.SYSTEM.norm>
0

>  <SCORE.heavy>
27

>  <SCORE.norm>
-0.598073

>  <RMSD>
2.756

$$$$
lig.pdb
 OpenBabel11021811493D
libRbt.so/2013.1/901 2013/11/27
 27 29  0  0  0  0  0  0  0  0999 V2000
    7.8431  -18.1683  -13.0009 N   0  0  0  0  0  0  0  0  0  0  0  0
    6.9127  -17.1688  -13.6085 C   0  0  2  0  0  0  0  0  0  0  0  0
    7.7273  -16.1229  -14.3639 C   0  0  0  0  0  0  0  0  0  0  0  0
    7.4748  -15.8947  -15.5412 O   0  0  0  0  0  0  0  0  0  0  0  0
    8.6501  -15.4854  -13.8405 O   0  0  0  0  0  0  0  0  0  0  0  0
    5.9513  -16.5199  -12.5924 C   0  0  0  0  0  0  0  0  0  0  0  0
    6.4680  -16.3745  -11.1369 C   0  0  0  0  0  0  0  0  0  0  0  0
    5.3652  -15.6123   -9.8695 S   0  0  2  0  0  0  0  0  0  0  0  0
    4.7314  -14.1769  -10.7625 C   0  0  0  0  0  0  0  0  0  0  0  0
    6.5150  -14.7890   -8.7462 C   0  0  0  0  0  0  0  0  0  0  0  0
    5.7957  -14.4194   -7.4556 C   0  0  1  0  0  0  0  0  0  0  0  0
    4.5671  -13.7472   -7.6880 O   0  0  0  0  0  0  0  0  0  0  0  0
    5.4015  -15.6173   -6.6341 C   0  0  1  0  0  0  0  0  0  0  0  0
    6.5080  -16.1053   -5.9318 O   0  0  0  0  0  0  0  0  0  0  0  0
    4.3506  -15.0048   -5.7349 C   0  0  1  0  0  0  0  0  0  0  0  0
    4.9649  -14.3488   -4.6444 O   0  0  0  0  0  0  0  0  0  0  0  0
    3.6668  -13.9655   -6.6163 C   0  0  2  0  0  0  0  0  0  0  0  0
    2.3124  -14.3449   -7.1042 N   0  0  0  0  0  0  0  0  0  0  0  0
    1.2651  -13.4781   -7.2906 C   0  0  0  0  0  0  0  0  0  0  0  0
    0.1933  -14.1676   -7.7414 N   0  0  0  0  0  0  0  0  0  0  0  0
    0.5323  -15.4620   -7.8578 C   0  0  0  0  0  0  0  0  0  0  0  0
   -0.1780  -16.5758   -8.2791 C   0  0  0  0  0  0  0  0  0  0  0  0
   -1.4412  -16.4578   -8.6663 N   0  0  0  0  0  0  0  0  0  0  0  0
    0.4476  -17.8066   -8.2965 N   0  0  0  0  0  0  0  0  0  0  0  0
    1.7729  -17.9432   -7.9031 C   0  0  0  0  0  0  0  0  0  0  0  0
    2.4655  -16.8225   -7.4923 N   0  0  0  0  0  0  0  0  0  0  0  0
    1.8602  -15.5995   -7.4609 C   0  0  0  0  0  0  0  0  0  0  0  0
  2  3  1  1  0  0  0
  2  6  1  0  0  0  0
  2  1  1  0  0  0  0
  4  3  2  0  0  0  0
  5  3  1  0  0  0  0
  6  7  2  0  0  0  0
  8  7  1  6  0  0  0
  8  9  1  0  0  0  0
  8 10  1  0  0  0  0
 11 10  1  6  0  0  0
 11 13  1  0  0  0  0
 12 11  1  0  0  0  0
 12 17  1  0  0  0  0
 13 14  1  1  0  0  0
 13 15  1  0  0  0  0
 15 16  1  1  0  0  0
 17 18  1  6  0  0  0
 17 15  1  0  0  0  0
 18 19  1  0  0  0  0
 20 19  2  0  0  0  0
 21 27  2  0  0  0  0
 21 20  1  0  0  0  0
 22 21  1  0  0  0  0
 23 22  1  0  0  0  0
 24 22  2  0  0  0  0
 24 25  1  0  0  0  0
 25 26  2  0  0  0  0
 26 27  1  0  0  0  0
 27 18  1  0  0  0  0
M  END
>  <CHROM.1>
125.88639943,30.20085325,-45.35694589,-165.38553955,-49.29701697,-95.40270152
4.29208693,-15.61237523,-9.17041694,0.83105941,-0.17811017,-1.87259533

>  <Name>
lig.pdb

>  <RI>
0

>  <Rbt.Current_Directory>
/home/itssahil/PROJECTS/Mol_Feturizer/New_Systems/rnas/4b5r

>  <Rbt.Executable>
rbdock ($Id: //depot/dev/client3/rdock/2013.1/src/exe/rbdock.cxx#4 $)

>  <Rbt.Library>
libRbt.so (2013.1, Build901 2013/11/27)

>  <Rbt.Parameter_File>
/export/apps/rDock/src/rDock_2013.1_src/data/scripts/dock_solv.prm

>  <Rbt.Receptor>
prm/blind_docking_60.prm

>  <SCORE>
-16.1514

>  <SCORE.INTER>
-15.723

>  <SCORE.INTER.CONST>
1

>  <SCORE.INTER.POLAR>
0

>  <SCORE.INTER.ROT>
6

>  <SCORE.INTER.SOLV>
16.8524

>  <SCORE.INTER.VDW>
-23.6995

>  <SCORE.INTER.norm>
-0.582333

>  <SCORE.INTRA>
-0.428366

>  <SCORE.INTRA.DIHEDRAL>
-0.338223

>  <SCORE.INTRA.DIHEDRAL.0>
10.2917

>  <SCORE.INTRA.POLAR>
0

>  <SCORE.INTRA.POLAR.0>
0

>  <SCORE.INTRA.REPUL>
0

>  <SCORE.INTRA.REPUL.0>
0

>  <SCORE.INTRA.SOLV>
-2.08319

>  <SCORE.INTRA.SOLV.lig_0>
-39.6315

>  <SCORE.INTRA.VDW>
0.782343

>  <SCORE.INTRA.VDW.0>
-4.02152

>  <SCORE.INTRA.norm>
-0.0158654

>  <SCORE.RESTR>
0

>  <SCORE.RESTR.CAVITY>
0

>  <SCORE.RESTR.norm>
0

>  <SCORE.SYSTEM>
0

>  <SCORE.SYSTEM.CONST>
0

>  <SCORE.SYSTEM.DIHEDRAL>
0

>  <SCORE.SYSTEM.SOLV>
0

>  <SCORE.SYSTEM.norm>
0

>  <SCORE.heavy>
27

>  <SCORE.norm>
-0.598199

>  <RMSD>
2.766

$$$$
lig.pdb
 OpenBabel11021811493D
libRbt.so/2013.1/901 2013/11/27
 27 29  0  0  0  0  0  0  0  0999 V2000
    8.0130  -15.2079  -14.3222 N   0  0  0  0  0  0  0  0  0  0  0  0
    8.2631  -15.7897  -12.9684 C   0  0  2  0  0  0  0  0  0  0  0  0
    8.0092  -17.2935  -13.0162 C   0  0  0  0  0  0  0  0  0  0  0  0
    7.9167  -17.9245  -11.9698 O   0  0  0  0  0  0  0  0  0  0  0  0
    7.8951  -17.9207  -14.0771 O   0  0  0  0  0  0  0  0  0  0  0  0
    7.4572  -15.1095  -11.8433 C   0  0  0  0  0  0  0  0  0  0  0  0
    6.1499  -15.8151  -11.3965 C   0  0  0  0  0  0  0  0  0  0  0  0
    5.1345  -15.0507  -10.0592 S   0  0  2  0  0  0  0  0  0  0  0  0
    4.7436  -13.4426  -10.7808 C   0  0  0  0  0  0  0  0  0  0  0  0
    6.3596  -14.5445   -8.8326 C   0  0  0  0  0  0  0  0  0  0  0  0
    5.6738  -14.2910   -7.4966 C   0  0  1  0  0  0  0  0  0  0  0  0
    4.4176  -13.6459   -7.6409 O   0  0  0  0  0  0  0  0  0  0  0  0
    5.3456  -15.5564   -6.7506 C   0  0  1  0  0  0  0  0  0  0  0  0
    6.4903  -16.0551   -6.1206 O   0  0  0  0  0  0  0  0  0  0  0  0
    4.3076  -15.0442   -5.7767 C   0  0  1  0  0  0  0  0  0  0  0  0
    4.9382  -14.4463   -4.6624 O   0  0  0  0  0  0  0  0  0  0  0  0
    3.5618  -13.9691   -6.5594 C   0  0  2  0  0  0  0  0  0  0  0  0
    2.2040  -14.3585   -7.0294 N   0  0  0  0  0  0  0  0  0  0  0  0
    1.1326  -13.5096   -7.1494 C   0  0  0  0  0  0  0  0  0  0  0  0
    0.0652  -14.2037   -7.6039 N   0  0  0  0  0  0  0  0  0  0  0  0
    0.4306  -15.4830   -7.7877 C   0  0  0  0  0  0  0  0  0  0  0  0
   -0.2651  -16.5934   -8.2413 C   0  0  0  0  0  0  0  0  0  0  0  0
   -1.5405  -16.4885   -8.5905 N   0  0  0  0  0  0  0  0  0  0  0  0
    0.3878  -17.8069   -8.3308 N   0  0  0  0  0  0  0  0  0  0  0  0
    1.7258  -17.9292   -7.9777 C   0  0  0  0  0  0  0  0  0  0  0  0
    2.4033  -16.8118   -7.5340 N   0  0  0  0  0  0  0  0  0  0  0  0
    1.7712  -15.6063   -7.4314 C   0  0  0  0  0  0  0  0  0  0  0  0
  2  3  1  6  0  0  0
  2  6  1  0  0  0  0
  2  1  1  0  0  0  0
  4  3  2  0  0  0  0
  5  3  1  0  0  0  0
  6  7  2  0  0  0  0
  8  7  1  6  0  0  0
  8  9  1  0  0  0  0
  8 10  1  0  0  0  0
 11 10  1  6  0  0  0
 11 13  1  0  0  0  0
 12 11  1  0  0  0  0
 12 17  1  0  0  0  0
 13 14  1  1  0  0  0
 13 15  1  0  0  0  0
 15 16  1  1  0  0  0
 17 18  1  6  0  0  0
 17 15  1  0  0  0  0
 18 19  1  0  0  0  0
 20 19  2  0  0  0  0
 21 27  2  0  0  0  0
 21 20  1  0  0  0  0
 22 21  1  0  0  0  0
 23 22  1  0  0  0  0
 24 22  2  0  0  0  0
 24 25  1  0  0  0  0
 25 26  2  0  0  0  0
 26 27  1  0  0  0  0
 27 18  1  0  0  0  0
M  END
>  <CHROM.1>
-166.66416271,98.16183438,59.60869108,-162.64016543,-39.37607788,-93.79132236
4.30484720,-15.52770876,-9.01863516,0.69553494,-0.21373021,-1.97910210

>  <Name>
lig.pdb

>  <RI>
0

>  <Rbt.Current_Directory>
/home/itssahil/PROJECTS/Mol_Feturizer/New_Systems/rnas/4b5r

>  <Rbt.Executable>
rbdock ($Id: //depot/dev/client3/rdock/2013.1/src/exe/rbdock.cxx#4 $)

>  <Rbt.Library>
libRbt.so (2013.1, Build901 2013/11/27)

>  <Rbt.Parameter_File>
/export/apps/rDock/src/rDock_2013.1_src/data/scripts/dock_solv.prm

>  <Rbt.Receptor>
prm/pocket_docking_4.prm

>  <SCORE>
-15.1864

>  <SCORE.INTER>
-16.9216

>  <SCORE.INTER.CONST>
1

>  <SCORE.INTER.POLAR>
0

>  <SCORE.INTER.ROT>
6

>  <SCORE.INTER.SOLV>
15.7592

>  <SCORE.INTER.VDW>
-24.1341

>  <SCORE.INTER.norm>
-0.626725

>  <SCORE.INTRA>
1.73518

>  <SCORE.INTRA.DIHEDRAL>
2.07498

>  <SCORE.INTRA.DIHEDRAL.0>
10.2917

>  <SCORE.INTRA.POLAR>
0

>  <SCORE.INTRA.POLAR.0>
0

>  <SCORE.INTRA.REPUL>
0

>  <SCORE.INTRA.REPUL.0>
0

>  <SCORE.INTRA.SOLV>
-2.18299

>  <SCORE.INTRA.SOLV.lig_0>
-39.6315

>  <SCORE.INTRA.VDW>
1.78918

>  <SCORE.INTRA.VDW.0>
-4.02152

>  <SCORE.INTRA.norm>
0.0642659

>  <SCORE.RESTR>
0

>  <SCORE.RESTR.CAVITY>
0

>  <SCORE.RESTR.norm>
0

>  <SCORE.SYSTEM>
0

>  <SCORE.SYSTEM.CONST>
0

>  <SCORE.SYSTEM.DIHEDRAL>
0

>  <SCORE.SYSTEM.SOLV>
0

>  <SCORE.SYSTEM.norm>
0

>  <SCORE.heavy>
27

>  <SCORE.norm>
-0.562459

>  <RMSD>
2.782

$$$$
lig.pdb
 OpenBabel11021811493D
libRbt.so/2013.1/901 2013/11/27
 27 29  0  0  0  0  0  0  0  0999 V2000
    7.6453  -18.8102  -12.7239 N   0  0  0  0  0  0  0  0  0  0  0  0
    6.8269  -17.7080  -13.3150 C   0  0  2  0  0  0  0  0  0  0  0  0
    7.7564  -16.6988  -13.9828 C   0  0  0  0  0  0  0  0  0  0  0  0
    7.8268  -16.6590  -15.2056 O   0  0  0  0  0  0  0  0  0  0  0  0
    8.4594  -15.9078  -13.3410 O   0  0  0  0  0  0  0  0  0  0  0  0
    5.8786  -17.0305  -12.3052 C   0  0  0  0  0  0  0  0  0  0  0  0
    6.4069  -16.8617  -10.8564 C   0  0  0  0  0  0  0  0  0  0  0  0
    5.3200  -16.0648   -9.5966 S   0  0  2  0  0  0  0  0  0  0  0  0
    4.4925  -14.8009  -10.5852 C   0  0  0  0  0  0  0  0  0  0  0  0
    6.4548  -15.0212   -8.6559 C   0  0  0  0  0  0  0  0  0  0  0  0
    5.7382  -14.4500   -7.4396 C   0  0  1  0  0  0  0  0  0  0  0  0
    4.5264  -13.7925   -7.7781 O   0  0  0  0  0  0  0  0  0  0  0  0
    5.3127  -15.5050   -6.4541 C   0  0  1  0  0  0  0  0  0  0  0  0
    6.4044  -15.9085   -5.6787 O   0  0  0  0  0  0  0  0  0  0  0  0
    4.2719  -14.7438   -5.6631 C   0  0  1  0  0  0  0  0  0  0  0  0
    4.8960  -13.9482   -4.6760 O   0  0  0  0  0  0  0  0  0  0  0  0
    3.6163  -13.8308   -6.6933 C   0  0  2  0  0  0  0  0  0  0  0  0
    2.2559  -14.2479   -7.1309 N   0  0  0  0  0  0  0  0  0  0  0  0
    1.1734  -13.4143   -7.2582 C   0  0  0  0  0  0  0  0  0  0  0  0
    0.1070  -14.1323   -7.6761 N   0  0  0  0  0  0  0  0  0  0  0  0
    0.4837  -15.4124   -7.8293 C   0  0  0  0  0  0  0  0  0  0  0  0
   -0.2064  -16.5426   -8.2403 C   0  0  0  0  0  0  0  0  0  0  0  0
   -1.4881  -16.4613   -8.5724 N   0  0  0  0  0  0  0  0  0  0  0  0
    0.4584  -17.7511   -8.3055 N   0  0  0  0  0  0  0  0  0  0  0  0
    1.8029  -17.8490   -7.9701 C   0  0  0  0  0  0  0  0  0  0  0  0
    2.4747  -16.7123   -7.5688 N   0  0  0  0  0  0  0  0  0  0  0  0
    1.8309  -15.5112   -7.4906 C   0  0  0  0  0  0  0  0  0  0  0  0
  2  3  1  1  0  0  0
  2  6  1  0  0  0  0
  2  1  1  0  0  0  0
  4  3  2  0  0  0  0
  5  3  1  0  0  0  0
  6  7  2  0  0  0  0
  8  7  1  6  0  0  0
  8  9  1  0  0  0  0
  8 10  1  0  0  0  0
 11 10  1  6  0  0  0
 11 13  1  0  0  0  0
 12 11  1  0  0  0  0
 12 17  1  0  0  0  0
 13 14  1  1  0  0  0
 13 15  1  0  0  0  0
 15 16  1  1  0  0  0
 17 18  1  6  0  0  0
 17 15  1  0  0  0  0
 18 19  1  0  0  0  0
 20 19  2  0  0  0  0
 21 27  2  0  0  0  0
 21 20  1  0  0  0  0
 22 21  1  0  0  0  0
 23 22  1  0  0  0  0
 24 22  2  0  0  0  0
 24 25  1  0  0  0  0
 25 26  2  0  0  0  0
 26 27  1  0  0  0  0
 27 18  1  0  0  0  0
M  END
>  <CHROM.1>
105.93855407,36.63456734,-36.72169962,-171.65267940,-53.02475888,-105.74433150
4.24075222,-15.76290087,-9.03986144,0.82340549,-0.15423199,-1.98637472

>  <Name>
lig.pdb

>  <RI>
0

>  <Rbt.Current_Directory>
/home/itssahil/PROJECTS/Mol_Feturizer/New_Systems/rnas/4b5r

>  <Rbt.Executable>
rbdock ($Id: //depot/dev/client3/rdock/2013.1/src/exe/rbdock.cxx#4 $)

>  <Rbt.Library>
libRbt.so (2013.1, Build901 2013/11/27)

>  <Rbt.Parameter_File>
/export/apps/rDock/src/rDock_2013.1_src/data/scripts/dock_solv.prm

>  <Rbt.Receptor>
prm/pocket_docking_6.prm

>  <SCORE>
-16.7124

>  <SCORE.INTER>
-16.1432

>  <SCORE.INTER.CONST>
1

>  <SCORE.INTER.POLAR>
0

>  <SCORE.INTER.ROT>
6

>  <SCORE.INTER.SOLV>
17.4691

>  <SCORE.INTER.VDW>
-24.1852

>  <SCORE.INTER.norm>
-0.597895

>  <SCORE.INTRA>
-0.569188

>  <SCORE.INTRA.DIHEDRAL>
-0.778361

>  <SCORE.INTRA.DIHEDRAL.0>
10.2917

>  <SCORE.INTRA.POLAR>
0

>  <SCORE.INTRA.POLAR.0>
0

>  <SCORE.INTRA.REPUL>
0

>  <SCORE.INTRA.REPUL.0>
0

>  <SCORE.INTRA.SOLV>
-1.87844

>  <SCORE.INTRA.SOLV.lig_0>
-39.6315

>  <SCORE.INTRA.VDW>
0.759213

>  <SCORE.INTRA.VDW.0>
-4.02152

>  <SCORE.INTRA.norm>
-0.021081

>  <SCORE.RESTR>
0

>  <SCORE.RESTR.CAVITY>
0

>  <SCORE.RESTR.norm>
0

>  <SCORE.SYSTEM>
0

>  <SCORE.SYSTEM.CONST>
0

>  <SCORE.SYSTEM.DIHEDRAL>
0

>  <SCORE.SYSTEM.SOLV>
0

>  <SCORE.SYSTEM.norm>
0

>  <SCORE.heavy>
27

>  <SCORE.norm>
-0.618976

>  <RMSD>
2.827

$$$$
lig.pdb
 OpenBabel11021811493D
libRbt.so/2013.1/901 2013/11/27
 27 29  0  0  0  0  0  0  0  0999 V2000
    3.9123  -16.9044  -13.5537 N   0  0  0  0  0  0  0  0  0  0  0  0
    2.8305  -16.4027  -12.6526 C   0  0  2  0  0  0  0  0  0  0  0  0
    1.5969  -16.0739  -13.4883 C   0  0  0  0  0  0  0  0  0  0  0  0
    0.7419  -15.3226  -13.0342 O   0  0  0  0  0  0  0  0  0  0  0  0
    1.4098  -16.5397  -14.6196 O   0  0  0  0  0  0  0  0  0  0  0  0
    3.2597  -15.2107  -11.7736 C   0  0  0  0  0  0  0  0  0  0  0  0
    4.5902  -14.5081  -12.1514 C   0  0  0  0  0  0  0  0  0  0  0  0
    5.1651  -13.0787  -11.1365 S   0  0  2  0  0  0  0  0  0  0  0  0
    5.7051  -11.9250  -12.4158 C   0  0  0  0  0  0  0  0  0  0  0  0
    6.7725  -13.6186  -10.5149 C   0  0  0  0  0  0  0  0  0  0  0  0
    6.5806  -14.7352   -9.4971 C   0  0  1  0  0  0  0  0  0  0  0  0
    5.3436  -14.6389   -8.8071 O   0  0  0  0  0  0  0  0  0  0  0  0
    6.5395  -16.1041  -10.1213 C   0  0  1  0  0  0  0  0  0  0  0  0
    7.8356  -16.5366  -10.4198 O   0  0  0  0  0  0  0  0  0  0  0  0
    5.8903  -16.8979   -9.0092 C   0  0  1  0  0  0  0  0  0  0  0  0
    6.8567  -17.2689   -8.0472 O   0  0  0  0  0  0  0  0  0  0  0  0
    4.9112  -15.9166   -8.3745 C   0  0  2  0  0  0  0  0  0  0  0  0
    3.4787  -16.1531   -8.7032 N   0  0  0  0  0  0  0  0  0  0  0  0
    2.9696  -17.3051   -9.2480 C   0  0  0  0  0  0  0  0  0  0  0  0
    1.6347  -17.1672   -9.4100 N   0  0  0  0  0  0  0  0  0  0  0  0
    1.2714  -15.9507   -8.9717 C   0  0  0  0  0  0  0  0  0  0  0  0
    0.0408  -15.3156   -8.9027 C   0  0  0  0  0  0  0  0  0  0  0  0
   -1.0564  -15.9335   -9.3195 N   0  0  0  0  0  0  0  0  0  0  0  0
   -0.0286  -14.0356   -8.3893 N   0  0  0  0  0  0  0  0  0  0  0  0
    1.1109  -13.3802   -7.9402 C   0  0  0  0  0  0  0  0  0  0  0  0
    2.3260  -14.0304   -8.0114 N   0  0  0  0  0  0  0  0  0  0  0  0
    2.4142  -15.2926   -8.5237 C   0  0  0  0  0  0  0  0  0  0  0  0
  2  3  1  6  0  0  0
  2  6  1  0  0  0  0
  2  1  1  0  0  0  0
  4  3  2  0  0  0  0
  5  3  1  0  0  0  0
  6  7  2  0  0  0  0
  8  7  1  6  0  0  0
  8  9  1  0  0  0  0
  8 10  1  0  0  0  0
 11 10  1  6  0  0  0
 11 13  1  0  0  0  0
 12 11  1  0  0  0  0
 12 17  1  0  0  0  0
 13 14  1  1  0  0  0
 13 15  1  0  0  0  0
 15 16  1  1  0  0  0
 17 18  1  6  0  0  0
 17 15  1  0  0  0  0
 18 19  1  0  0  0  0
 20 19  2  0  0  0  0
 21 27  2  0  0  0  0
 21 20  1  0  0  0  0
 22 21  1  0  0  0  0
 23 22  1  0  0  0  0
 24 22  2  0  0  0  0
 24 25  1  0  0  0  0
 25 26  2  0  0  0  0
 26 27  1  0  0  0  0
 27 18  1  0  0  0  0
M  END
>  <CHROM.1>
-160.07194492,13.16845442,-136.53837498,-69.60956790,-29.24093693,134.93565548
3.61883495,-15.30632210,-10.33522455,-3.08344260,0.07964525,1.60142891

>  <Name>
lig.pdb

>  <RI>
0

>  <Rbt.Current_Directory>
/home/itssahil/PROJECTS/Mol_Feturizer/New_Systems/rnas/4b5r

>  <Rbt.Executable>
rbdock ($Id: //depot/dev/client3/rdock/2013.1/src/exe/rbdock.cxx#4 $)

>  <Rbt.Library>
libRbt.so (2013.1, Build901 2013/11/27)

>  <Rbt.Parameter_File>
/export/apps/rDock/src/rDock_2013.1_src/data/scripts/dock_solv.prm

>  <Rbt.Receptor>
prm/pocket_docking_2.prm

>  <SCORE>
-6.94976

>  <SCORE.INTER>
-9.20858

>  <SCORE.INTER.CONST>
1

>  <SCORE.INTER.POLAR>
0

>  <SCORE.INTER.ROT>
6

>  <SCORE.INTER.SOLV>
18.0321

>  <SCORE.INTER.VDW>
-19.7497

>  <SCORE.INTER.norm>
-0.341058

>  <SCORE.INTRA>
0.493134

>  <SCORE.INTRA.DIHEDRAL>
1.34336

>  <SCORE.INTRA.DIHEDRAL.0>
10.2917

>  <SCORE.INTRA.POLAR>
0

>  <SCORE.INTRA.POLAR.0>
0

>  <SCORE.INTRA.REPUL>
0.117116

>  <SCORE.INTRA.REPUL.0>
0

>  <SCORE.INTRA.SOLV>
-1.34663

>  <SCORE.INTRA.SOLV.lig_0>
-39.6315

>  <SCORE.INTRA.VDW>
-0.0908112

>  <SCORE.INTRA.VDW.0>
-4.02152

>  <SCORE.INTRA.norm>
0.0182642

>  <SCORE.RESTR>
1.76569

>  <SCORE.RESTR.CAVITY>
1.76569

>  <SCORE.RESTR.norm>
0.0653958

>  <SCORE.SYSTEM>
0

>  <SCORE.SYSTEM.CONST>
0

>  <SCORE.SYSTEM.DIHEDRAL>
0

>  <SCORE.SYSTEM.SOLV>
0

>  <SCORE.SYSTEM.norm>
0

>  <SCORE.heavy>
27

>  <SCORE.norm>
-0.257398

>  <RMSD>
2.861

$$$$
lig.pdb
 OpenBabel11021811493D
libRbt.so/2013.1/901 2013/11/27
 27 29  0  0  0  0  0  0  0  0999 V2000
    6.4408  -12.1701  -12.2582 N   0  0  0  0  0  0  0  0  0  0  0  0
    5.6968  -13.4528  -12.0707 C   0  0  2  0  0  0  0  0  0  0  0  0
    4.9196  -13.3923  -10.7591 C   0  0  0  0  0  0  0  0  0  0  0  0
    5.5164  -13.1672   -9.7127 O   0  0  0  0  0  0  0  0  0  0  0  0
    3.6960  -13.5671  -10.6961 O   0  0  0  0  0  0  0  0  0  0  0  0
    6.5929  -14.7055  -12.1468 C   0  0  0  0  0  0  0  0  0  0  0  0
    6.4247  -15.7538  -11.0157 C   0  0  0  0  0  0  0  0  0  0  0  0
    7.4710  -17.2730  -11.0431 S   0  0  2  0  0  0  0  0  0  0  0  0
    7.3319  -17.7728  -12.7724 C   0  0  0  0  0  0  0  0  0  0  0  0
    6.4196  -18.5265  -10.2782 C   0  0  0  0  0  0  0  0  0  0  0  0
    6.0560  -18.0974   -8.8629 C   0  0  1  0  0  0  0  0  0  0  0  0
    4.9852  -17.1658   -8.8324 O   0  0  0  0  0  0  0  0  0  0  0  0
    5.5685  -19.2351   -8.0065 C   0  0  1  0  0  0  0  0  0  0  0  0
    6.6517  -19.9917   -7.5482 O   0  0  0  0  0  0  0  0  0  0  0  0
    4.8677  -18.4730   -6.9036 C   0  0  1  0  0  0  0  0  0  0  0  0
    5.8059  -18.0351   -5.9419 O   0  0  0  0  0  0  0  0  0  0  0  0
    4.2773  -17.2571   -7.6088 C   0  0  2  0  0  0  0  0  0  0  0  0
    2.8055  -17.3073   -7.8272 N   0  0  0  0  0  0  0  0  0  0  0  0
    2.0458  -18.4498   -7.8513 C   0  0  0  0  0  0  0  0  0  0  0  0
    0.7538  -18.1190   -8.0720 N   0  0  0  0  0  0  0  0  0  0  0  0
    0.6644  -16.7834   -8.1822 C   0  0  0  0  0  0  0  0  0  0  0  0
   -0.4128  -15.9375   -8.3978 C   0  0  0  0  0  0  0  0  0  0  0  0
   -1.6362  -16.4319   -8.5340 N   0  0  0  0  0  0  0  0  0  0  0  0
   -0.1970  -14.5751   -8.4625 N   0  0  0  0  0  0  0  0  0  0  0  0
    1.0773  -14.0429   -8.3119 C   0  0  0  0  0  0  0  0  0  0  0  0
    2.1364  -14.9001   -8.0922 N   0  0  0  0  0  0  0  0  0  0  0  0
    1.9423  -16.2499   -8.0337 C   0  0  0  0  0  0  0  0  0  0  0  0
  2  3  1  1  0  0  0
  2  6  1  0  0  0  0
  2  1  1  0  0  0  0
  4  3  2  0  0  0  0
  5  3  1  0  0  0  0
  6  7  2  0  0  0  0
  8  7  1  6  0  0  0
  8  9  1  0  0  0  0
  8 10  1  0  0  0  0
 11 10  1  6  0  0  0
 11 13  1  0  0  0  0
 12 11  1  0  0  0  0
 12 17  1  0  0  0  0
 13 14  1  1  0  0  0
 13 15  1  0  0  0  0
 15 16  1  1  0  0  0
 17 18  1  6  0  0  0
 17 15  1  0  0  0  0
 18 19  1  0  0  0  0
 20 19  2  0  0  0  0
 21 27  2  0  0  0  0
 21 20  1  0  0  0  0
 22 21  1  0  0  0  0
 23 22  1  0  0  0  0
 24 22  2  0  0  0  0
 24 25  1  0  0  0  0
 25 26  2  0  0  0  0
 26 27  1  0  0  0  0
 27 18  1  0  0  0  0
M  END
>  <CHROM.1>
-56.44458309,131.75361621,-45.68999346,-59.79188930,80.93160203,97.70269779
4.22855875,-16.38497044,-9.27898410,0.26388972,0.37616620,-0.57815633

>  <Name>
lig.pdb

>  <RI>
0

>  <Rbt.Current_Directory>
/home/itssahil/PROJECTS/Mol_Feturizer/New_Systems/rnas/4b5r

>  <Rbt.Executable>
rbdock ($Id: //depot/dev/client3/rdock/2013.1/src/exe/rbdock.cxx#4 $)

>  <Rbt.Library>
libRbt.so (2013.1, Build901 2013/11/27)

>  <Rbt.Parameter_File>
/export/apps/rDock/src/rDock_2013.1_src/data/scripts/dock_solv.prm

>  <Rbt.Receptor>
prm/pocket_docking_8.prm

>  <SCORE>
-13.1946

>  <SCORE.INTER>
-12.9514

>  <SCORE.INTER.CONST>
1

>  <SCORE.INTER.POLAR>
0

>  <SCORE.INTER.ROT>
6

>  <SCORE.INTER.SOLV>
15.1018

>  <SCORE.INTER.VDW>
-21.2682

>  <SCORE.INTER.norm>
-0.479682

>  <SCORE.INTRA>
-0.24317

>  <SCORE.INTRA.DIHEDRAL>
-1.62544

>  <SCORE.INTRA.DIHEDRAL.0>
10.2917

>  <SCORE.INTRA.POLAR>
0

>  <SCORE.INTRA.POLAR.0>
0

>  <SCORE.INTRA.REPUL>
0

>  <SCORE.INTRA.REPUL.0>
0

>  <SCORE.INTRA.SOLV>
-2.96694

>  <SCORE.INTRA.SOLV.lig_0>
-39.6315

>  <SCORE.INTRA.VDW>
2.05302

>  <SCORE.INTRA.VDW.0>
-4.02152

>  <SCORE.INTRA.norm>
-0.00900629

>  <SCORE.RESTR>
0

>  <SCORE.RESTR.CAVITY>
0

>  <SCORE.RESTR.norm>
0

>  <SCORE.SYSTEM>
0

>  <SCORE.SYSTEM.CONST>
0

>  <SCORE.SYSTEM.DIHEDRAL>
0

>  <SCORE.SYSTEM.SOLV>
0

>  <SCORE.SYSTEM.norm>
0

>  <SCORE.heavy>
27

>  <SCORE.norm>
-0.488688

>  <RMSD>
3.450

$$$$
lig.pdb
 OpenBabel11021811493D
libRbt.so/2013.1/901 2013/11/27
 27 29  0  0  0  0  0  0  0  0999 V2000
    3.9694  -13.4098  -10.8815 N   0  0  0  0  0  0  0  0  0  0  0  0
    5.3763  -13.4134  -10.3771 C   0  0  2  0  0  0  0  0  0  0  0  0
    6.2742  -12.7187  -11.3966 C   0  0  0  0  0  0  0  0  0  0  0  0
    5.8898  -12.5918  -12.5532 O   0  0  0  0  0  0  0  0  0  0  0  0
    7.3932  -12.2735  -11.1111 O   0  0  0  0  0  0  0  0  0  0  0  0
    5.9014  -14.8177  -10.0162 C   0  0  0  0  0  0  0  0  0  0  0  0
    6.7914  -15.5231  -11.0730 C   0  0  0  0  0  0  0  0  0  0  0  0
    7.4473  -17.2081  -10.7071 S   0  0  2  0  0  0  0  0  0  0  0  0
    7.3917  -17.9767  -12.3398 C   0  0  0  0  0  0  0  0  0  0  0  0
    6.0509  -18.0473   -9.9276 C   0  0  0  0  0  0  0  0  0  0  0  0
    6.1836  -17.9654   -8.4126 C   0  0  1  0  0  0  0  0  0  0  0  0
    6.1993  -16.6280   -7.9369 O   0  0  0  0  0  0  0  0  0  0  0  0
    5.0271  -18.5941   -7.6826 C   0  0  1  0  0  0  0  0  0  0  0  0
    5.1670  -19.9855   -7.6658 O   0  0  0  0  0  0  0  0  0  0  0  0
    5.1853  -17.9650   -6.3160 C   0  0  1  0  0  0  0  0  0  0  0  0
    6.1551  -18.6674   -5.5657 O   0  0  0  0  0  0  0  0  0  0  0  0
    5.7070  -16.5629   -6.6102 C   0  0  2  0  0  0  0  0  0  0  0  0
    4.7084  -15.4710   -6.4468 N   0  0  0  0  0  0  0  0  0  0  0  0
    4.9480  -14.2603   -5.8469 C   0  0  0  0  0  0  0  0  0  0  0  0
    3.8182  -13.5187   -5.8772 N   0  0  0  0  0  0  0  0  0  0  0  0
    2.8562  -14.2252   -6.4934 C   0  0  0  0  0  0  0  0  0  0  0  0
    1.5345  -13.9328   -6.7935 C   0  0  0  0  0  0  0  0  0  0  0  0
    1.0145  -12.7599   -6.4566 N   0  0  0  0  0  0  0  0  0  0  0  0
    0.7693  -14.8747   -7.4524 N   0  0  0  0  0  0  0  0  0  0  0  0
    1.3036  -16.1032   -7.8198 C   0  0  0  0  0  0  0  0  0  0  0  0
    2.6227  -16.3740   -7.5177 N   0  0  0  0  0  0  0  0  0  0  0  0
    3.3911  -15.4578   -6.8595 C   0  0  0  0  0  0  0  0  0  0  0  0
  2  3  1  6  0  0  0
  2  6  1  0  0  0  0
  2  1  1  0  0  0  0
  4  3  2  0  0  0  0
  5  3  1  0  0  0  0
  6  7  2  0  0  0  0
  8  7  1  6  0  0  0
  8  9  1  0  0  0  0
  8 10  1  0  0  0  0
 11 10  1  6  0  0  0
 11 13  1  0  0  0  0
 12 11  1  0  0  0  0
 12 17  1  0  0  0  0
 13 14  1  1  0  0  0
 13 15  1  0  0  0  0
 15 16  1  1  0  0  0
 17 18  1  6  0  0  0
 17 15  1  0  0  0  0
 18 19  1  0  0  0  0
 20 19  2  0  0  0  0
 21 27  2  0  0  0  0
 21 20  1  0  0  0  0
 22 21  1  0  0  0  0
 23 22  1  0  0  0  0
 24 22  2  0  0  0  0
 24 25  1  0  0  0  0
 25 26  2  0  0  0  0
 26 27  1  0  0  0  0
 27 18  1  0  0  0  0
M  END
>  <CHROM.1>
-19.35775674,99.17957203,144.23726539,-96.27197285,60.23533806,-103.39466772
4.96340685,-15.71508852,-8.59374125,0.36766727,0.78040371,-0.59811280

>  <Name>
lig.pdb

>  <RI>
0

>  <Rbt.Current_Directory>
/home/itssahil/PROJECTS/Mol_Feturizer/New_Systems/rnas/4b5r

>  <Rbt.Executable>
rbdock ($Id: //depot/dev/client3/rdock/2013.1/src/exe/rbdock.cxx#4 $)

>  <Rbt.Library>
libRbt.so (2013.1, Build901 2013/11/27)

>  <Rbt.Parameter_File>
/export/apps/rDock/src/rDock_2013.1_src/data/scripts/dock_solv.prm

>  <Rbt.Receptor>
prm/pocket_docking_6.prm

>  <SCORE>
-14.4598

>  <SCORE.INTER>
-13.7757

>  <SCORE.INTER.CONST>
1

>  <SCORE.INTER.POLAR>
0

>  <SCORE.INTER.ROT>
6

>  <SCORE.INTER.SOLV>
14.2866

>  <SCORE.INTER.VDW>
-21.546

>  <SCORE.INTER.norm>
-0.51021

>  <SCORE.INTRA>
-0.684101

>  <SCORE.INTRA.DIHEDRAL>
-0.789151

>  <SCORE.INTRA.DIHEDRAL.0>
10.2917

>  <SCORE.INTRA.POLAR>
0

>  <SCORE.INTRA.POLAR.0>
0

>  <SCORE.INTRA.REPUL>
0

>  <SCORE.INTRA.REPUL.0>
0

>  <SCORE.INTRA.SOLV>
-2.23598

>  <SCORE.INTRA.SOLV.lig_0>
-39.6315

>  <SCORE.INTRA.VDW>
0.828463

>  <SCORE.INTRA.VDW.0>
-4.02152

>  <SCORE.INTRA.norm>
-0.0253371

>  <SCORE.RESTR>
0

>  <SCORE.RESTR.CAVITY>
0

>  <SCORE.RESTR.norm>
0

>  <SCORE.SYSTEM>
0

>  <SCORE.SYSTEM.CONST>
0

>  <SCORE.SYSTEM.DIHEDRAL>
0

>  <SCORE.SYSTEM.SOLV>
0

>  <SCORE.SYSTEM.norm>
0

>  <SCORE.heavy>
27

>  <SCORE.norm>
-0.535547

>  <RMSD>
3.660

$$$$
lig.pdb
 OpenBabel11021811493D
libRbt.so/2013.1/901 2013/11/27
 27 29  0  0  0  0  0  0  0  0999 V2000
    6.3165  -16.2897  -15.5248 N   0  0  0  0  0  0  0  0  0  0  0  0
    4.9775  -15.6557  -15.3269 C   0  0  2  0  0  0  0  0  0  0  0  0
    5.0490  -14.1933  -15.7560 C   0  0  0  0  0  0  0  0  0  0  0  0
    5.5631  -13.3687  -15.0094 O   0  0  0  0  0  0  0  0  0  0  0  0
    4.6016  -13.7890  -16.8369 O   0  0  0  0  0  0  0  0  0  0  0  0
    4.4272  -15.8047  -13.8941 C   0  0  0  0  0  0  0  0  0  0  0  0
    5.1032  -16.8724  -12.9942 C   0  0  0  0  0  0  0  0  0  0  0  0
    4.4887  -17.1065  -11.2706 S   0  0  2  0  0  0  0  0  0  0  0  0
    5.1415  -15.6344  -10.4543 C   0  0  0  0  0  0  0  0  0  0  0  0
    5.6033  -18.3529  -10.5881 C   0  0  0  0  0  0  0  0  0  0  0  0
    5.1955  -18.6778   -9.1571 C   0  0  1  0  0  0  0  0  0  0  0  0
    5.3491  -17.5717   -8.2806 O   0  0  0  0  0  0  0  0  0  0  0  0
    3.7415  -19.0433   -9.0248 C   0  0  1  0  0  0  0  0  0  0  0  0
    3.5381  -20.3657   -9.4318 O   0  0  0  0  0  0  0  0  0  0  0  0
    3.5375  -18.8412   -7.5396 C   0  0  1  0  0  0  0  0  0  0  0  0
    3.9793  -19.9794   -6.8280 O   0  0  0  0  0  0  0  0  0  0  0  0
    4.4410  -17.6618   -7.1972 C   0  0  2  0  0  0  0  0  0  0  0  0
    3.7341  -16.3727   -6.9632 N   0  0  0  0  0  0  0  0  0  0  0  0
    4.2727  -15.2743   -6.3415 C   0  0  0  0  0  0  0  0  0  0  0  0
    3.3491  -14.2879   -6.3047 N   0  0  0  0  0  0  0  0  0  0  0  0
    2.2273  -14.7264   -6.8991 C   0  0  0  0  0  0  0  0  0  0  0  0
    1.0023  -14.1217   -7.1360 C   0  0  0  0  0  0  0  0  0  0  0  0
    0.7853  -12.8724   -6.7463 N   0  0  0  0  0  0  0  0  0  0  0  0
    0.0146  -14.8335   -7.7874 N   0  0  0  0  0  0  0  0  0  0  0  0
    0.2313  -16.1391   -8.2096 C   0  0  0  0  0  0  0  0  0  0  0  0
    1.4589  -16.7224   -7.9701 N   0  0  0  0  0  0  0  0  0  0  0  0
    2.4437  -16.0362   -7.3201 C   0  0  0  0  0  0  0  0  0  0  0  0
  2  3  1  1  0  0  0
  2  6  1  0  0  0  0
  2  1  1  0  0  0  0
  4  3  2  0  0  0  0
  5  3  1  0  0  0  0
  6  7  2  0  0  0  0
  8  7  1  6  0  0  0
  8  9  1  0  0  0  0
  8 10  1  0  0  0  0
 11 10  1  6  0  0  0
 11 13  1  0  0  0  0
 12 11  1  0  0  0  0
 12 17  1  0  0  0  0
 13 14  1  1  0  0  0
 13 15  1  0  0  0  0
 15 16  1  1  0  0  0
 17 18  1  6  0  0  0
 17 15  1  0  0  0  0
 18 19  1  0  0  0  0
 20 19  2  0  0  0  0
 21 27  2  0  0  0  0
 21 20  1  0  0  0  0
 22 21  1  0  0  0  0
 23 22  1  0  0  0  0
 24 22  2  0  0  0  0
 24 25  1  0  0  0  0
 25 26  2  0  0  0  0
 26 27  1  0  0  0  0
 27 18  1  0  0  0  0
M  END
>  <CHROM.1>
-77.97606583,-15.97647434,-73.92145774,-178.73841009,-64.99352578,-77.06710511
3.80183446,-16.38455395,-9.99307029,-0.97027455,-0.99285714,2.25241425

>  <Name>
lig.pdb

>  <RI>
0

>  <Rbt.Current_Directory>
/home/itssahil/PROJECTS/Mol_Feturizer/New_Systems/rnas/4b5r

>  <Rbt.Executable>
rbdock ($Id: //depot/dev/client3/rdock/2013.1/src/exe/rbdock.cxx#4 $)

>  <Rbt.Library>
libRbt.so (2013.1, Build901 2013/11/27)

>  <Rbt.Parameter_File>
/export/apps/rDock/src/rDock_2013.1_src/data/scripts/dock_solv.prm

>  <Rbt.Receptor>
prm/pocket_docking_8.prm

>  <SCORE>
-12.7688

>  <SCORE.INTER>
-12.3363

>  <SCORE.INTER.CONST>
1

>  <SCORE.INTER.POLAR>
0

>  <SCORE.INTER.ROT>
6

>  <SCORE.INTER.SOLV>
13.2505

>  <SCORE.INTER.VDW>
-20.241

>  <SCORE.INTER.norm>
-0.4569

>  <SCORE.INTRA>
-0.432464

>  <SCORE.INTRA.DIHEDRAL>
-2.14545

>  <SCORE.INTRA.DIHEDRAL.0>
10.2917

>  <SCORE.INTRA.POLAR>
0

>  <SCORE.INTRA.POLAR.0>
0

>  <SCORE.INTRA.REPUL>
0

>  <SCORE.INTRA.REPUL.0>
0

>  <SCORE.INTRA.SOLV>
-1.86612

>  <SCORE.INTRA.SOLV.lig_0>
-39.6315

>  <SCORE.INTRA.VDW>
1.57332

>  <SCORE.INTRA.VDW.0>
-4.02152

>  <SCORE.INTRA.norm>
-0.0160172

>  <SCORE.RESTR>
0

>  <SCORE.RESTR.CAVITY>
0

>  <SCORE.RESTR.norm>
0

>  <SCORE.SYSTEM>
0

>  <SCORE.SYSTEM.CONST>
0

>  <SCORE.SYSTEM.DIHEDRAL>
0

>  <SCORE.SYSTEM.SOLV>
0

>  <SCORE.SYSTEM.norm>
0

>  <SCORE.heavy>
27

>  <SCORE.norm>
-0.472917

>  <RMSD>
3.926

$$$$
lig.pdb
 OpenBabel11021811493D
libRbt.so/2013.1/901 2013/11/27
 27 29  0  0  0  0  0  0  0  0999 V2000
    1.4362  -17.0141  -11.7597 N   0  0  0  0  0  0  0  0  0  0  0  0
    1.9077  -15.9129  -12.6537 C   0  0  2  0  0  0  0  0  0  0  0  0
    2.9583  -16.4638  -13.6132 C   0  0  0  0  0  0  0  0  0  0  0  0
    2.9925  -16.0590  -14.7694 O   0  0  0  0  0  0  0  0  0  0  0  0
    3.7894  -17.3179  -13.2790 O   0  0  0  0  0  0  0  0  0  0  0  0
    2.4222  -14.6744  -11.8925 C   0  0  0  0  0  0  0  0  0  0  0  0
    3.9558  -14.4409  -11.8950 C   0  0  0  0  0  0  0  0  0  0  0  0
    4.6384  -12.9808  -10.9975 S   0  0  2  0  0  0  0  0  0  0  0  0
    6.2184  -12.7488  -11.8398 C   0  0  0  0  0  0  0  0  0  0  0  0
    5.2242  -13.6772   -9.4375 C   0  0  0  0  0  0  0  0  0  0  0  0
    4.0392  -13.9537   -8.5217 C   0  0  1  0  0  0  0  0  0  0  0  0
    3.5108  -15.2604   -8.6913 O   0  0  0  0  0  0  0  0  0  0  0  0
    4.3946  -13.8955   -7.0603 C   0  0  1  0  0  0  0  0  0  0  0  0
    4.4712  -12.5652   -6.6357 O   0  0  0  0  0  0  0  0  0  0  0  0
    3.2255  -14.6441   -6.4593 C   0  0  1  0  0  0  0  0  0  0  0  0
    2.1166  -13.7803   -6.3145 O   0  0  0  0  0  0  0  0  0  0  0  0
    2.8916  -15.7084   -7.4986 C   0  0  2  0  0  0  0  0  0  0  0  0
    3.3155  -17.0909   -7.1445 N   0  0  0  0  0  0  0  0  0  0  0  0
    2.6148  -18.2343   -7.4355 C   0  0  0  0  0  0  0  0  0  0  0  0
    3.2958  -19.3036   -6.9662 N   0  0  0  0  0  0  0  0  0  0  0  0
    4.4273  -18.8720   -6.3854 C   0  0  0  0  0  0  0  0  0  0  0  0
    5.4696  -19.5437   -5.7650 C   0  0  0  0  0  0  0  0  0  0  0  0
    5.4526  -20.8668   -5.6714 N   0  0  0  0  0  0  0  0  0  0  0  0
    6.5272  -18.8191   -5.2520 N   0  0  0  0  0  0  0  0  0  0  0  0
    6.5628  -17.4340   -5.3515 C   0  0  0  0  0  0  0  0  0  0  0  0
    5.5192  -16.7832   -5.9776 N   0  0  0  0  0  0  0  0  0  0  0  0
    4.4619  -17.4832   -6.4829 C   0  0  0  0  0  0  0  0  0  0  0  0
  2  3  1  1  0  0  0
  2  6  1  0  0  0  0
  2  1  1  0  0  0  0
  4  3  2  0  0  0  0
  5  3  1  0  0  0  0
  6  7  2  0  0  0  0
  8  7  1  6  0  0  0
  8  9  1  0  0  0  0
  8 10  1  0  0  0  0
 11 10  1  6  0  0  0
 11 13  1  0  0  0  0
 12 11  1  0  0  0  0
 12 17  1  0  0  0  0
 13 14  1  1  0  0  0
 13 15  1  0  0  0  0
 15 16  1  6  0  0  0
 17 18  1  1  0  0  0
 17 15  1  0  0  0  0
 18 19  1  0  0  0  0
 20 19  2  0  0  0  0
 21 27  2  0  0  0  0
 21 20  1  0  0  0  0
 22 21  1  0  0  0  0
 23 22  1  0  0  0  0
 24 22  2  0  0  0  0
 24 25  1  0  0  0  0
 25 26  2  0  0  0  0
 26 27  1  0  0  0  0
 27 18  1  0  0  0  0
M  END
>  <CHROM.1>
142.83261861,107.28090195,-156.95319968,-76.19748575,90.08477107,-97.16408468
4.01709379,-15.92282788,-8.88855180,2.36550223,-1.31837767,-0.33164057

>  <Name>
lig.pdb

>  <RI>
0

>  <Rbt.Current_Directory>
/home/itssahil/PROJECTS/Mol_Feturizer/New_Systems/rnas/4b5r

>  <Rbt.Executable>
rbdock ($Id: //depot/dev/client3/rdock/2013.1/src/exe/rbdock.cxx#4 $)

>  <Rbt.Library>
libRbt.so (2013.1, Build901 2013/11/27)

>  <Rbt.Parameter_File>
/export/apps/rDock/src/rDock_2013.1_src/data/scripts/dock_solv.prm

>  <Rbt.Receptor>
prm/pocket_docking_6.prm

>  <SCORE>
-16.9071

>  <SCORE.INTER>
-17.135

>  <SCORE.INTER.CONST>
1

>  <SCORE.INTER.POLAR>
0

>  <SCORE.INTER.ROT>
6

>  <SCORE.INTER.SOLV>
17.7959

>  <SCORE.INTER.VDW>
-24.9553

>  <SCORE.INTER.norm>
-0.634628

>  <SCORE.INTRA>
0.216689

>  <SCORE.INTRA.DIHEDRAL>
1.0286

>  <SCORE.INTRA.DIHEDRAL.0>
10.2917

>  <SCORE.INTRA.POLAR>
0

>  <SCORE.INTRA.POLAR.0>
0

>  <SCORE.INTRA.REPUL>
0

>  <SCORE.INTRA.REPUL.0>
0

>  <SCORE.INTRA.SOLV>
-2.51874

>  <SCORE.INTRA.SOLV.lig_0>
-39.6315

>  <SCORE.INTRA.VDW>
0.961763

>  <SCORE.INTRA.VDW.0>
-4.02152

>  <SCORE.INTRA.norm>
0.0080255

>  <SCORE.RESTR>
0.0111812

>  <SCORE.RESTR.CAVITY>
0.0111812

>  <SCORE.RESTR.norm>
0.000414119

>  <SCORE.SYSTEM>
0

>  <SCORE.SYSTEM.CONST>
0

>  <SCORE.SYSTEM.DIHEDRAL>
0

>  <SCORE.SYSTEM.SOLV>
0

>  <SCORE.SYSTEM.norm>
0

>  <SCORE.heavy>
27

>  <SCORE.norm>
-0.626188

>  <RMSD>
3.942

$$$$
lig.pdb
 OpenBabel11021811493D
libRbt.so/2013.1/901 2013/11/27
 27 29  0  0  0  0  0  0  0  0999 V2000
    6.7704  -14.2871  -14.7909 N   0  0  0  0  0  0  0  0  0  0  0  0
    6.1097  -15.6256  -14.7141 C   0  0  2  0  0  0  0  0  0  0  0  0
    4.7305  -15.5396  -15.3612 C   0  0  0  0  0  0  0  0  0  0  0  0
    4.6369  -15.2524  -16.5488 O   0  0  0  0  0  0  0  0  0  0  0  0
    3.6824  -15.7437  -14.7353 O   0  0  0  0  0  0  0  0  0  0  0  0
    6.0356  -16.1988  -13.2845 C   0  0  0  0  0  0  0  0  0  0  0  0
    6.8868  -17.4627  -12.9942 C   0  0  0  0  0  0  0  0  0  0  0  0
    6.8387  -18.2035  -11.3053 S   0  0  2  0  0  0  0  0  0  0  0  0
    7.3134  -19.9111  -11.6492 C   0  0  0  0  0  0  0  0  0  0  0  0
    5.0750  -18.4346  -10.9931 C   0  0  0  0  0  0  0  0  0  0  0  0
    4.8522  -18.7580   -9.5216 C   0  0  1  0  0  0  0  0  0  0  0  0
    5.1239  -17.6535   -8.6721 O   0  0  0  0  0  0  0  0  0  0  0  0
    3.4249  -19.1146   -9.2037 C   0  0  1  0  0  0  0  0  0  0  0  0
    3.1628  -20.4355   -9.5811 O   0  0  0  0  0  0  0  0  0  0  0  0
    3.4146  -18.9124   -7.7046 C   0  0  1  0  0  0  0  0  0  0  0  0
    3.9370  -20.0538   -7.0555 O   0  0  0  0  0  0  0  0  0  0  0  0
    4.3619  -17.7388   -7.4811 C   0  0  2  0  0  0  0  0  0  0  0  0
    3.6989  -16.4456   -7.1583 N   0  0  0  0  0  0  0  0  0  0  0  0
    4.2921  -15.3894   -6.5137 C   0  0  0  0  0  0  0  0  0  0  0  0
    3.3964  -14.3844   -6.3914 N   0  0  0  0  0  0  0  0  0  0  0  0
    2.2386  -14.7692   -6.9530 C   0  0  0  0  0  0  0  0  0  0  0  0
    1.0199  -14.1260   -7.1070 C   0  0  0  0  0  0  0  0  0  0  0  0
    0.8521  -12.8910   -6.6529 N   0  0  0  0  0  0  0  0  0  0  0  0
   -0.0134  -14.7844   -7.7438 N   0  0  0  0  0  0  0  0  0  0  0  0
    0.1513  -16.0741   -8.2328 C   0  0  0  0  0  0  0  0  0  0  0  0
    1.3732  -16.6961   -8.0754 N   0  0  0  0  0  0  0  0  0  0  0  0
    2.4028  -16.0632   -7.4410 C   0  0  0  0  0  0  0  0  0  0  0  0
  2  3  1  1  0  0  0
  2  6  1  0  0  0  0
  2  1  1  0  0  0  0
  4  3  2  0  0  0  0
  5  3  1  0  0  0  0
  6  7  2  0  0  0  0
  8  7  1  6  0  0  0
  8  9  1  0  0  0  0
  8 10  1  0  0  0  0
 11 10  1  6  0  0  0
 11 13  1  0  0  0  0
 12 11  1  0  0  0  0
 12 17  1  0  0  0  0
 13 14  1  1  0  0  0
 13 15  1  0  0  0  0
 15 16  1  1  0  0  0
 17 18  1  6  0  0  0
 17 15  1  0  0  0  0
 18 19  1  0  0  0  0
 20 19  2  0  0  0  0
 21 27  2  0  0  0  0
 21 20  1  0  0  0  0
 22 21  1  0  0  0  0
 23 22  1  0  0  0  0
 24 22  2  0  0  0  0
 24 25  1  0  0  0  0
 25 26  2  0  0  0  0
 26 27  1  0  0  0  0
 27 18  1  0  0  0  0
M  END
>  <CHROM.1>
61.88911836,-112.72723023,155.95502999,-167.77901847,68.90513173,-82.60401723
4.08250728,-16.82825745,-10.03876264,0.72772052,0.89017738,-0.93766466

>  <Name>
lig.pdb

>  <RI>
0

>  <Rbt.Current_Directory>
/home/itssahil/PROJECTS/Mol_Feturizer/New_Systems/rnas/4b5r

>  <Rbt.Executable>
rbdock ($Id: //depot/dev/client3/rdock/2013.1/src/exe/rbdock.cxx#4 $)

>  <Rbt.Library>
libRbt.so (2013.1, Build901 2013/11/27)

>  <Rbt.Parameter_File>
/export/apps/rDock/src/rDock_2013.1_src/data/scripts/dock_solv.prm

>  <Rbt.Receptor>
prm/blind_docking_40.prm

>  <SCORE>
-15.4723

>  <SCORE.INTER>
-14.5202

>  <SCORE.INTER.CONST>
1

>  <SCORE.INTER.POLAR>
0

>  <SCORE.INTER.ROT>
6

>  <SCORE.INTER.SOLV>
12.966

>  <SCORE.INTER.VDW>
-21.6021

>  <SCORE.INTER.norm>
-0.537785

>  <SCORE.INTRA>
-0.9521

>  <SCORE.INTRA.DIHEDRAL>
-1.88689

>  <SCORE.INTRA.DIHEDRAL.0>
10.2917

>  <SCORE.INTRA.POLAR>
0

>  <SCORE.INTRA.POLAR.0>
0

>  <SCORE.INTRA.REPUL>
0

>  <SCORE.INTRA.REPUL.0>
0

>  <SCORE.INTRA.SOLV>
-3.05197

>  <SCORE.INTRA.SOLV.lig_0>
-39.6315

>  <SCORE.INTRA.VDW>
1.51733

>  <SCORE.INTRA.VDW.0>
-4.02152

>  <SCORE.INTRA.norm>
-0.035263

>  <SCORE.RESTR>
0

>  <SCORE.RESTR.CAVITY>
0

>  <SCORE.RESTR.norm>
0

>  <SCORE.SYSTEM>
0

>  <SCORE.SYSTEM.CONST>
0

>  <SCORE.SYSTEM.DIHEDRAL>
0

>  <SCORE.SYSTEM.SOLV>
0

>  <SCORE.SYSTEM.norm>
0

>  <SCORE.heavy>
27

>  <SCORE.norm>
-0.573048

>  <RMSD>
3.947

$$$$
lig.pdb
 OpenBabel11021811493D
libRbt.so/2013.1/901 2013/11/27
 27 29  0  0  0  0  0  0  0  0999 V2000
    1.3761  -16.4158  -13.6221 N   0  0  0  0  0  0  0  0  0  0  0  0
    2.4263  -16.5371  -12.5655 C   0  0  2  0  0  0  0  0  0  0  0  0
    2.0198  -17.6289  -11.5802 C   0  0  0  0  0  0  0  0  0  0  0  0
    1.2191  -17.3713  -10.6891 O   0  0  0  0  0  0  0  0  0  0  0  0
    2.4695  -18.7808  -11.6329 O   0  0  0  0  0  0  0  0  0  0  0  0
    2.7401  -15.2083  -11.8487 C   0  0  0  0  0  0  0  0  0  0  0  0
    4.2027  -14.6981  -11.9331 C   0  0  0  0  0  0  0  0  0  0  0  0
    4.6473  -13.1176  -11.0917 S   0  0  2  0  0  0  0  0  0  0  0  0
    6.2349  -12.7359  -11.8619 C   0  0  0  0  0  0  0  0  0  0  0  0
    5.2189  -13.6498   -9.4632 C   0  0  0  0  0  0  0  0  0  0  0  0
    4.0213  -13.9220   -8.5626 C   0  0  1  0  0  0  0  0  0  0  0  0
    3.4654  -15.2121   -8.7677 O   0  0  0  0  0  0  0  0  0  0  0  0
    4.3671  -13.9073   -7.0978 C   0  0  1  0  0  0  0  0  0  0  0  0
    4.4700  -12.5897   -6.6402 O   0  0  0  0  0  0  0  0  0  0  0  0
    3.1774  -14.6441   -6.5234 C   0  0  1  0  0  0  0  0  0  0  0  0
    2.0867  -13.7595   -6.3651 O   0  0  0  0  0  0  0  0  0  0  0  0
    2.8277  -15.6751   -7.5907 C   0  0  2  0  0  0  0  0  0  0  0  0
    3.2182  -17.0749   -7.2676 N   0  0  0  0  0  0  0  0  0  0  0  0
    2.5003  -18.1957   -7.6014 C   0  0  0  0  0  0  0  0  0  0  0  0
    3.1521  -19.2908   -7.1503 N   0  0  0  0  0  0  0  0  0  0  0  0
    4.2818  -18.8978   -6.5393 C   0  0  0  0  0  0  0  0  0  0  0  0
    5.3000  -19.6069   -5.9204 C   0  0  0  0  0  0  0  0  0  0  0  0
    5.2554  -20.9314   -5.8634 N   0  0  0  0  0  0  0  0  0  0  0  0
    6.3627  -18.9178   -5.3704 N   0  0  0  0  0  0  0  0  0  0  0  0
    6.4272  -17.5314   -5.4314 C   0  0  0  0  0  0  0  0  0  0  0  0
    5.4073  -16.8432   -6.0565 N   0  0  0  0  0  0  0  0  0  0  0  0
    4.3452  -17.5078   -6.5982 C   0  0  0  0  0  0  0  0  0  0  0  0
  2  3  1  1  0  0  0
  2  6  1  0  0  0  0
  2  1  1  0  0  0  0
  4  3  2  0  0  0  0
  5  3  1  0  0  0  0
  6  7  2  0  0  0  0
  8  7  1  6  0  0  0
  8  9  1  0  0  0  0
  8 10  1  0  0  0  0
 11 10  1  6  0  0  0
 11 13  1  0  0  0  0
 12 11  1  0  0  0  0
 12 17  1  0  0  0  0
 13 14  1  1  0  0  0
 13 15  1  0  0  0  0
 15 16  1  6  0  0  0
 17 18  1  1  0  0  0
 17 15  1  0  0  0  0
 18 19  1  0  0  0  0
 20 19  2  0  0  0  0
 21 27  2  0  0  0  0
 21 20  1  0  0  0  0
 22 21  1  0  0  0  0
 23 22  1  0  0  0  0
 24 22  2  0  0  0  0
 24 25  1  0  0  0  0
 25 26  2  0  0  0  0
 26 27  1  0  0  0  0
 27 18  1  0  0  0  0
M  END
>  <CHROM.1>
-81.35732312,-120.62112651,-164.33237834,-80.42626773,82.31716342,-96.57150133
3.84093212,-16.11674159,-8.72396663,2.02118342,-1.13676220,-0.54552853

>  <Name>
lig.pdb

>  <RI>
0

>  <Rbt.Current_Directory>
/home/itssahil/PROJECTS/Mol_Feturizer/New_Systems/rnas/4b5r

>  <Rbt.Executable>
rbdock ($Id: //depot/dev/client3/rdock/2013.1/src/exe/rbdock.cxx#4 $)

>  <Rbt.Library>
libRbt.so (2013.1, Build901 2013/11/27)

>  <Rbt.Parameter_File>
/export/apps/rDock/src/rDock_2013.1_src/data/scripts/dock_solv.prm

>  <Rbt.Receptor>
prm/pocket_docking_7.prm

>  <SCORE>
-15.9526

>  <SCORE.INTER>
-14.7435

>  <SCORE.INTER.CONST>
1

>  <SCORE.INTER.POLAR>
0

>  <SCORE.INTER.ROT>
6

>  <SCORE.INTER.SOLV>
19.2623

>  <SCORE.INTER.VDW>
-23.8498

>  <SCORE.INTER.norm>
-0.546057

>  <SCORE.INTRA>
-1.2172

>  <SCORE.INTRA.DIHEDRAL>
-0.230141

>  <SCORE.INTRA.DIHEDRAL.0>
10.2917

>  <SCORE.INTRA.POLAR>
0

>  <SCORE.INTRA.POLAR.0>
0

>  <SCORE.INTRA.REPUL>
0

>  <SCORE.INTRA.REPUL.0>
0

>  <SCORE.INTRA.SOLV>
-2.17168

>  <SCORE.INTRA.SOLV.lig_0>
-39.6315

>  <SCORE.INTRA.VDW>
-0.0162907

>  <SCORE.INTRA.VDW.0>
-4.02152

>  <SCORE.INTRA.norm>
-0.0450815

>  <SCORE.RESTR>
0.00815761

>  <SCORE.RESTR.CAVITY>
0.00815761

>  <SCORE.RESTR.norm>
0.000302134

>  <SCORE.SYSTEM>
0

>  <SCORE.SYSTEM.CONST>
0

>  <SCORE.SYSTEM.DIHEDRAL>
0

>  <SCORE.SYSTEM.SOLV>
0

>  <SCORE.SYSTEM.norm>
0

>  <SCORE.heavy>
27

>  <SCORE.norm>
-0.590836

>  <RMSD>
3.982

$$$$
lig.pdb
 OpenBabel11021811493D
libRbt.so/2013.1/901 2013/11/27
 27 29  0  0  0  0  0  0  0  0999 V2000
    5.3608  -15.8595  -11.1678 N   0  0  0  0  0  0  0  0  0  0  0  0
    5.3245  -17.1811  -11.8650 C   0  0  2  0  0  0  0  0  0  0  0  0
    4.0142  -17.3026  -12.6373 C   0  0  0  0  0  0  0  0  0  0  0  0
    3.9281  -16.8215  -13.7611 O   0  0  0  0  0  0  0  0  0  0  0  0
    3.0142  -17.8678  -12.1764 O   0  0  0  0  0  0  0  0  0  0  0  0
    5.5479  -18.3834  -10.9256 C   0  0  0  0  0  0  0  0  0  0  0  0
    6.7722  -19.2870  -11.2273 C   0  0  0  0  0  0  0  0  0  0  0  0
    7.0933  -20.7466  -10.1456 S   0  0  2  0  0  0  0  0  0  0  0  0
    6.5144  -22.1008  -11.1898 C   0  0  0  0  0  0  0  0  0  0  0  0
    5.7454  -20.6900   -8.9449 C   0  0  0  0  0  0  0  0  0  0  0  0
    6.1778  -19.8869   -7.7253 C   0  0  1  0  0  0  0  0  0  0  0  0
    6.0548  -18.4863   -7.9216 O   0  0  0  0  0  0  0  0  0  0  0  0
    5.3323  -20.1561   -6.5095 C   0  0  1  0  0  0  0  0  0  0  0  0
    5.7183  -21.3597   -5.9111 O   0  0  0  0  0  0  0  0  0  0  0  0
    5.6603  -18.9426   -5.6679 C   0  0  1  0  0  0  0  0  0  0  0  0
    6.8759  -19.1440   -4.9759 O   0  0  0  0  0  0  0  0  0  0  0  0
    5.8498  -17.8240   -6.6863 C   0  0  2  0  0  0  0  0  0  0  0  0
    4.7299  -16.8464   -6.7654 N   0  0  0  0  0  0  0  0  0  0  0  0
    4.8039  -15.5246   -6.4043 C   0  0  0  0  0  0  0  0  0  0  0  0
    3.6021  -14.9406   -6.6092 N   0  0  0  0  0  0  0  0  0  0  0  0
    2.7562  -15.8591   -7.1042 C   0  0  0  0  0  0  0  0  0  0  0  0
    1.4271  -15.7866   -7.4924 C   0  0  0  0  0  0  0  0  0  0  0  0
    0.7646  -14.6409   -7.4034 N   0  0  0  0  0  0  0  0  0  0  0  0
    0.8047  -16.9195   -7.9781 N   0  0  0  0  0  0  0  0  0  0  0  0
    1.4890  -18.1235   -8.0858 C   0  0  0  0  0  0  0  0  0  0  0  0
    2.8131  -18.1749   -7.7000 N   0  0  0  0  0  0  0  0  0  0  0  0
    3.4416  -17.0668   -7.2098 C   0  0  0  0  0  0  0  0  0  0  0  0
  2  3  1  1  0  0  0
  2  6  1  0  0  0  0
  2  1  1  0  0  0  0
  4  3  2  0  0  0  0
  5  3  1  0  0  0  0
  6  7  2  0  0  0  0
  8  7  1  6  0  0  0
  8  9  1  0  0  0  0
  8 10  1  0  0  0  0
 11 10  1  6  0  0  0
 11 13  1  0  0  0  0
 12 11  1  0  0  0  0
 12 17  1  0  0  0  0
 13 14  1  1  0  0  0
 13 15  1  0  0  0  0
 15 16  1  6  0  0  0
 17 18  1  6  0  0  0
 17 15  1  0  0  0  0
 18 19  1  0  0  0  0
 20 19  2  0  0  0  0
 21 27  2  0  0  0  0
 21 20  1  0  0  0  0
 22 21  1  0  0  0  0
 23 22  1  0  0  0  0
 24 22  2  0  0  0  0
 24 25  1  0  0  0  0
 25 26  2  0  0  0  0
 26 27  1  0  0  0  0
 27 18  1  0  0  0  0
M  END
>  <CHROM.1>
84.47677705,-119.75407479,103.50307516,-91.41310168,81.65886937,-127.19722785
4.66142511,-18.17619579,-8.69250327,0.45434960,0.82869369,-1.54936817

>  <Name>
lig.pdb

>  <RI>
0

>  <Rbt.Current_Directory>
/home/itssahil/PROJECTS/Mol_Feturizer/New_Systems/rnas/4b5r

>  <Rbt.Executable>
rbdock ($Id: //depot/dev/client3/rdock/2013.1/src/exe/rbdock.cxx#4 $)

>  <Rbt.Library>
libRbt.so (2013.1, Build901 2013/11/27)

>  <Rbt.Parameter_File>
/export/apps/rDock/src/rDock_2013.1_src/data/scripts/dock_solv.prm

>  <Rbt.Receptor>
prm/pocket_docking_8.prm

>  <SCORE>
-13.3134

>  <SCORE.INTER>
-12.6256

>  <SCORE.INTER.CONST>
1

>  <SCORE.INTER.POLAR>
0

>  <SCORE.INTER.ROT>
6

>  <SCORE.INTER.SOLV>
11.0602

>  <SCORE.INTER.VDW>
-19.7038

>  <SCORE.INTER.norm>
-0.467614

>  <SCORE.INTRA>
-0.687856

>  <SCORE.INTRA.DIHEDRAL>
0.160566

>  <SCORE.INTRA.DIHEDRAL.0>
10.2917

>  <SCORE.INTRA.POLAR>
0

>  <SCORE.INTRA.POLAR.0>
0

>  <SCORE.INTRA.REPUL>
0

>  <SCORE.INTRA.REPUL.0>
0

>  <SCORE.INTRA.SOLV>
-2.67958

>  <SCORE.INTRA.SOLV.lig_0>
-39.6315

>  <SCORE.INTRA.VDW>
0.571652

>  <SCORE.INTRA.VDW.0>
-4.02152

>  <SCORE.INTRA.norm>
-0.0254761

>  <SCORE.RESTR>
0

>  <SCORE.RESTR.CAVITY>
0

>  <SCORE.RESTR.norm>
0

>  <SCORE.SYSTEM>
0

>  <SCORE.SYSTEM.CONST>
0

>  <SCORE.SYSTEM.DIHEDRAL>
0

>  <SCORE.SYSTEM.SOLV>
0

>  <SCORE.SYSTEM.norm>
0

>  <SCORE.heavy>
27

>  <SCORE.norm>
-0.493091

>  <RMSD>
4.062

$$$$
lig.pdb
 OpenBabel11021811493D
libRbt.so/2013.1/901 2013/11/27
 27 29  0  0  0  0  0  0  0  0999 V2000
    6.7696  -12.9177  -11.6566 N   0  0  0  0  0  0  0  0  0  0  0  0
    8.1344  -13.3680  -12.0669 C   0  0  2  0  0  0  0  0  0  0  0  0
    8.4219  -12.8674  -13.4793 C   0  0  0  0  0  0  0  0  0  0  0  0
    9.4241  -12.1944  -13.6898 O   0  0  0  0  0  0  0  0  0  0  0  0
    7.6785  -13.1064  -14.4395 O   0  0  0  0  0  0  0  0  0  0  0  0
    8.3469  -14.8905  -11.9457 C   0  0  0  0  0  0  0  0  0  0  0  0
    7.2447  -15.6923  -11.2050 C   0  0  0  0  0  0  0  0  0  0  0  0
    7.4402  -17.5174  -11.0191 S   0  0  2  0  0  0  0  0  0  0  0  0
    7.2287  -18.0758  -12.7229 C   0  0  0  0  0  0  0  0  0  0  0  0
    5.8579  -18.0455  -10.3268 C   0  0  0  0  0  0  0  0  0  0  0  0
    5.9397  -18.0525   -8.8061 C   0  0  1  0  0  0  0  0  0  0  0  0
    5.9750  -16.7448   -8.2547 O   0  0  0  0  0  0  0  0  0  0  0  0
    4.7419  -18.6872   -8.1520 C   0  0  1  0  0  0  0  0  0  0  0  0
    4.8434  -20.0809   -8.2098 O   0  0  0  0  0  0  0  0  0  0  0  0
    4.8692  -18.1405   -6.7473 C   0  0  1  0  0  0  0  0  0  0  0  0
    5.7929  -18.9116   -6.0063 O   0  0  0  0  0  0  0  0  0  0  0  0
    5.4387  -16.7399   -6.9437 C   0  0  2  0  0  0  0  0  0  0  0  0
    4.4648  -15.6303   -6.7517 N   0  0  0  0  0  0  0  0  0  0  0  0
    4.7399  -14.4293   -6.1477 C   0  0  0  0  0  0  0  0  0  0  0  0
    3.6242  -13.6660   -6.1493 N   0  0  0  0  0  0  0  0  0  0  0  0
    2.6366  -14.3488   -6.7512 C   0  0  0  0  0  0  0  0  0  0  0  0
    1.3150  -14.0288   -7.0223 C   0  0  0  0  0  0  0  0  0  0  0  0
    0.8247  -12.8489   -6.6660 N   0  0  0  0  0  0  0  0  0  0  0  0
    0.5185  -14.9505   -7.6726 N   0  0  0  0  0  0  0  0  0  0  0  0
    1.0214  -16.1861   -8.0600 C   0  0  0  0  0  0  0  0  0  0  0  0
    2.3409  -16.4846   -7.7869 N   0  0  0  0  0  0  0  0  0  0  0  0
    3.1400  -15.5886   -7.1375 C   0  0  0  0  0  0  0  0  0  0  0  0
  2  3  1  6  0  0  0
  2  6  1  0  0  0  0
  2  1  1  0  0  0  0
  4  3  2  0  0  0  0
  5  3  1  0  0  0  0
  6  7  2  0  0  0  0
  8  7  1  6  0  0  0
  8  9  1  0  0  0  0
  8 10  1  0  0  0  0
 11 10  1  6  0  0  0
 11 13  1  0  0  0  0
 12 11  1  0  0  0  0
 12 17  1  0  0  0  0
 13 14  1  1  0  0  0
 13 15  1  0  0  0  0
 15 16  1  1  0  0  0
 17 18  1  6  0  0  0
 17 15  1  0  0  0  0
 18 19  1  0  0  0  0
 20 19  2  0  0  0  0
 21 27  2  0  0  0  0
 21 20  1  0  0  0  0
 22 21  1  0  0  0  0
 23 22  1  0  0  0  0
 24 22  2  0  0  0  0
 24 25  1  0  0  0  0
 25 26  2  0  0  0  0
 26 27  1  0  0  0  0
 27 18  1  0  0  0  0
M  END
>  <CHROM.1>
124.62451216,-10.18897201,-69.26277026,-91.97895821,71.75961056,-99.18091659
5.30771903,-15.83208864,-9.24347182,0.47698320,0.74710751,-0.39400943

>  <Name>
lig.pdb

>  <RI>
0

>  <Rbt.Current_Directory>
/home/itssahil/PROJECTS/Mol_Feturizer/New_Systems/rnas/4b5r

>  <Rbt.Executable>
rbdock ($Id: //depot/dev/client3/rdock/2013.1/src/exe/rbdock.cxx#4 $)

>  <Rbt.Library>
libRbt.so (2013.1, Build901 2013/11/27)

>  <Rbt.Parameter_File>
/export/apps/rDock/src/rDock_2013.1_src/data/scripts/dock_solv.prm

>  <Rbt.Receptor>
prm/pocket_docking_7.prm

>  <SCORE>
-15.1898

>  <SCORE.INTER>
-14.6846

>  <SCORE.INTER.CONST>
1

>  <SCORE.INTER.POLAR>
0

>  <SCORE.INTER.ROT>
6

>  <SCORE.INTER.SOLV>
13.7784

>  <SCORE.INTER.VDW>
-21.9826

>  <SCORE.INTER.norm>
-0.543875

>  <SCORE.INTRA>
-0.505206

>  <SCORE.INTRA.DIHEDRAL>
-0.822912

>  <SCORE.INTRA.DIHEDRAL.0>
10.2917

>  <SCORE.INTRA.POLAR>
0

>  <SCORE.INTRA.POLAR.0>
0

>  <SCORE.INTRA.REPUL>
0

>  <SCORE.INTRA.REPUL.0>
0

>  <SCORE.INTRA.SOLV>
-2.39174

>  <SCORE.INTRA.SOLV.lig_0>
-39.6315

>  <SCORE.INTRA.VDW>
1.10212

>  <SCORE.INTRA.VDW.0>
-4.02152

>  <SCORE.INTRA.norm>
-0.0187113

>  <SCORE.RESTR>
0

>  <SCORE.RESTR.CAVITY>
0

>  <SCORE.RESTR.norm>
0

>  <SCORE.SYSTEM>
0

>  <SCORE.SYSTEM.CONST>
0

>  <SCORE.SYSTEM.DIHEDRAL>
0

>  <SCORE.SYSTEM.SOLV>
0

>  <SCORE.SYSTEM.norm>
0

>  <SCORE.heavy>
27

>  <SCORE.norm>
-0.562586

>  <RMSD>
4.083

$$$$
lig.pdb
 OpenBabel11021811493D
libRbt.so/2013.1/901 2013/11/27
 27 29  0  0  0  0  0  0  0  0999 V2000
    5.8716  -12.9155  -18.2599 N   0  0  0  0  0  0  0  0  0  0  0  0
    6.2438  -13.9855  -17.2850 C   0  0  2  0  0  0  0  0  0  0  0  0
    5.8150  -15.3398  -17.8420 C   0  0  0  0  0  0  0  0  0  0  0  0
    4.7169  -15.4545  -18.3736 O   0  0  0  0  0  0  0  0  0  0  0  0
    6.5304  -16.3478  -17.7784 O   0  0  0  0  0  0  0  0  0  0  0  0
    5.6896  -13.7500  -15.8654 C   0  0  0  0  0  0  0  0  0  0  0  0
    6.7104  -13.8097  -14.6987 C   0  0  0  0  0  0  0  0  0  0  0  0
    6.1123  -13.5432  -12.9740 S   0  0  2  0  0  0  0  0  0  0  0  0
    5.8621  -11.7553  -12.9537 C   0  0  0  0  0  0  0  0  0  0  0  0
    7.6171  -13.6515  -11.9813 C   0  0  0  0  0  0  0  0  0  0  0  0
    7.2728  -14.1331  -10.5781 C   0  0  1  0  0  0  0  0  0  0  0  0
    6.1391  -13.4724  -10.0364 O   0  0  0  0  0  0  0  0  0  0  0  0
    6.8990  -15.5902  -10.5278 C   0  0  1  0  0  0  0  0  0  0  0  0
    8.0495  -16.3844  -10.5678 O   0  0  0  0  0  0  0  0  0  0  0  0
    6.1836  -15.6484   -9.1962 C   0  0  1  0  0  0  0  0  0  0  0  0
    7.1204  -15.7616   -8.1444 O   0  0  0  0  0  0  0  0  0  0  0  0
    5.4825  -14.2985   -9.0915 C   0  0  2  0  0  0  0  0  0  0  0  0
    4.0115  -14.3324   -9.3184 N   0  0  0  0  0  0  0  0  0  0  0  0
    3.3989  -14.6593  -10.5019 C   0  0  0  0  0  0  0  0  0  0  0  0
    2.0585  -14.5858  -10.3429 N   0  0  0  0  0  0  0  0  0  0  0  0
    1.7946  -14.2259   -9.0761 C   0  0  0  0  0  0  0  0  0  0  0  0
    0.6040  -14.0199   -8.3960 C   0  0  0  0  0  0  0  0  0  0  0  0
   -0.5579  -14.1825   -9.0149 N   0  0  0  0  0  0  0  0  0  0  0  0
    0.6432  -13.6499   -7.0662 N   0  0  0  0  0  0  0  0  0  0  0  0
    1.8527  -13.4855   -6.4029 C   0  0  0  0  0  0  0  0  0  0  0  0
    3.0273  -13.7006   -7.0947 N   0  0  0  0  0  0  0  0  0  0  0  0
    3.0071  -14.0586   -8.4117 C   0  0  0  0  0  0  0  0  0  0  0  0
  2  3  1  6  0  0  0
  2  6  1  0  0  0  0
  2  1  1  0  0  0  0
  4  3  2  0  0  0  0
  5  3  1  0  0  0  0
  6  7  2  0  0  0  0
  8  7  1  6  0  0  0
  8  9  1  0  0  0  0
  8 10  1  0  0  0  0
 11 10  1  6  0  0  0
 11 13  1  0  0  0  0
 12 11  1  0  0  0  0
 12 17  1  0  0  0  0
 13 14  1  1  0  0  0
 13 15  1  0  0  0  0
 15 16  1  1  0  0  0
 17 18  1  6  0  0  0
 17 15  1  0  0  0  0
 18 19  1  0  0  0  0
 20 19  2  0  0  0  0
 21 27  2  0  0  0  0
 21 20  1  0  0  0  0
 22 21  1  0  0  0  0
 23 22  1  0  0  0  0
 24 22  2  0  0  0  0
 24 25  1  0  0  0  0
 25 26  2  0  0  0  0
 26 27  1  0  0  0  0
 27 18  1  0  0  0  0
M  END
>  <CHROM.1>
-43.06020865,-127.79261373,-75.34466565,-152.23431695,-45.10108783,54.24774974
4.87976664,-14.30756535,-11.66571545,1.17927215,0.15215534,-1.54572867

>  <Name>
lig.pdb

>  <RI>
0

>  <Rbt.Current_Directory>
/home/itssahil/PROJECTS/Mol_Feturizer/New_Systems/rnas/4b5r

>  <Rbt.Executable>
rbdock ($Id: //depot/dev/client3/rdock/2013.1/src/exe/rbdock.cxx#4 $)

>  <Rbt.Library>
libRbt.so (2013.1, Build901 2013/11/27)

>  <Rbt.Parameter_File>
/export/apps/rDock/src/rDock_2013.1_src/data/scripts/dock_solv.prm

>  <Rbt.Receptor>
prm/pocket_docking_7.prm

>  <SCORE>
-11.3684

>  <SCORE.INTER>
-11.2994

>  <SCORE.INTER.CONST>
1

>  <SCORE.INTER.POLAR>
0

>  <SCORE.INTER.ROT>
6

>  <SCORE.INTER.SOLV>
15.4562

>  <SCORE.INTER.VDW>
-20.285

>  <SCORE.INTER.norm>
-0.418496

>  <SCORE.INTRA>
-0.0690183

>  <SCORE.INTRA.DIHEDRAL>
0.837969

>  <SCORE.INTRA.DIHEDRAL.0>
10.2917

>  <SCORE.INTRA.POLAR>
0

>  <SCORE.INTRA.POLAR.0>
0

>  <SCORE.INTRA.REPUL>
0

>  <SCORE.INTRA.REPUL.0>
0

>  <SCORE.INTRA.SOLV>
-3.19132

>  <SCORE.INTRA.SOLV.lig_0>
-39.6315

>  <SCORE.INTRA.VDW>
1.10765

>  <SCORE.INTRA.VDW.0>
-4.02152

>  <SCORE.INTRA.norm>
-0.00255623

>  <SCORE.RESTR>
0

>  <SCORE.RESTR.CAVITY>
0

>  <SCORE.RESTR.norm>
0

>  <SCORE.SYSTEM>
0

>  <SCORE.SYSTEM.CONST>
0

>  <SCORE.SYSTEM.DIHEDRAL>
0

>  <SCORE.SYSTEM.SOLV>
0

>  <SCORE.SYSTEM.norm>
0

>  <SCORE.heavy>
27

>  <SCORE.norm>
-0.421052

>  <RMSD>
4.123

$$$$
lig.pdb
 OpenBabel11021811493D
libRbt.so/2013.1/901 2013/11/27
 27 29  0  0  0  0  0  0  0  0999 V2000
    7.4179  -21.4066   -7.8528 N   0  0  0  0  0  0  0  0  0  0  0  0
    6.2277  -20.5857   -7.4740 C   0  0  2  0  0  0  0  0  0  0  0  0
    4.9802  -21.4630   -7.5221 C   0  0  0  0  0  0  0  0  0  0  0  0
    4.5614  -21.8594   -8.6034 O   0  0  0  0  0  0  0  0  0  0  0  0
    4.3553  -21.7963   -6.5071 O   0  0  0  0  0  0  0  0  0  0  0  0
    6.0611  -19.3083   -8.3214 C   0  0  0  0  0  0  0  0  0  0  0  0
    6.0310  -17.9604   -7.5539 C   0  0  0  0  0  0  0  0  0  0  0  0
    5.8277  -16.3941   -8.5071 S   0  0  2  0  0  0  0  0  0  0  0  0
    6.8954  -16.6996   -9.9305 C   0  0  0  0  0  0  0  0  0  0  0  0
    6.8531  -15.2121   -7.6052 C   0  0  0  0  0  0  0  0  0  0  0  0
    6.0144  -14.5078   -6.5469 C   0  0  1  0  0  0  0  0  0  0  0  0
    4.8881  -13.8412   -7.0968 O   0  0  0  0  0  0  0  0  0  0  0  0
    5.4173  -15.4532   -5.5395 C   0  0  1  0  0  0  0  0  0  0  0  0
    6.3808  -15.8231   -4.5957 O   0  0  0  0  0  0  0  0  0  0  0  0
    4.3208  -14.5869   -4.9602 C   0  0  1  0  0  0  0  0  0  0  0  0
    4.8503  -13.7275   -3.9712 O   0  0  0  0  0  0  0  0  0  0  0  0
    3.8460  -13.7486   -6.1418 C   0  0  2  0  0  0  0  0  0  0  0  0
    2.5346  -14.1552   -6.7172 N   0  0  0  0  0  0  0  0  0  0  0  0
    1.4634  -13.3212   -6.9172 C   0  0  0  0  0  0  0  0  0  0  0  0
    0.4448  -14.0283   -7.4556 N   0  0  0  0  0  0  0  0  0  0  0  0
    0.8420  -15.3015   -7.6149 C   0  0  0  0  0  0  0  0  0  0  0  0
    0.2000  -16.4196   -8.1249 C   0  0  0  0  0  0  0  0  0  0  0  0
   -1.0459  -16.3314   -8.5717 N   0  0  0  0  0  0  0  0  0  0  0  0
    0.8754  -17.6232   -8.1675 N   0  0  0  0  0  0  0  0  0  0  0  0
    2.1836  -17.7280   -7.7120 C   0  0  0  0  0  0  0  0  0  0  0  0
    2.8082  -16.6030   -7.2131 N   0  0  0  0  0  0  0  0  0  0  0  0
    2.1526  -15.4072   -7.1559 C   0  0  0  0  0  0  0  0  0  0  0  0
  2  3  1  6  0  0  0
  2  6  1  0  0  0  0
  2  1  1  0  0  0  0
  4  3  2  0  0  0  0
  5  3  1  0  0  0  0
  6  7  2  0  0  0  0
  8  7  1  1  0  0  0
  8  9  1  0  0  0  0
  8 10  1  0  0  0  0
 11 10  1  6  0  0  0
 11 13  1  0  0  0  0
 12 11  1  0  0  0  0
 12 17  1  0  0  0  0
 13 14  1  1  0  0  0
 13 15  1  0  0  0  0
 15 16  1  1  0  0  0
 17 18  1  6  0  0  0
 17 15  1  0  0  0  0
 18 19  1  0  0  0  0
 20 19  2  0  0  0  0
 21 27  2  0  0  0  0
 21 20  1  0  0  0  0
 22 21  1  0  0  0  0
 23 22  1  0  0  0  0
 24 22  2  0  0  0  0
 24 25  1  0  0  0  0
 25 26  2  0  0  0  0
 26 27  1  0  0  0  0
 27 18  1  0  0  0  0
M  END
>  <CHROM.1>
-69.29409263,-122.31765089,-41.25721127,-90.94519090,-57.54681626,-113.48272948
4.12194028,-16.71665209,-7.24117116,-1.05096228,-0.17823509,0.28567196

>  <Name>
lig.pdb

>  <RI>
0

>  <Rbt.Current_Directory>
/home/itssahil/PROJECTS/Mol_Feturizer/New_Systems/rnas/4b5r

>  <Rbt.Executable>
rbdock ($Id: //depot/dev/client3/rdock/2013.1/src/exe/rbdock.cxx#4 $)

>  <Rbt.Library>
libRbt.so (2013.1, Build901 2013/11/27)

>  <Rbt.Parameter_File>
/export/apps/rDock/src/rDock_2013.1_src/data/scripts/dock_solv.prm

>  <Rbt.Receptor>
prm/pocket_docking_7.prm

>  <SCORE>
-20.0119

>  <SCORE.INTER>
-18.1347

>  <SCORE.INTER.CONST>
1

>  <SCORE.INTER.POLAR>
0

>  <SCORE.INTER.ROT>
6

>  <SCORE.INTER.SOLV>
15.9936

>  <SCORE.INTER.VDW>
-25.021

>  <SCORE.INTER.norm>
-0.671654

>  <SCORE.INTRA>
-1.87726

>  <SCORE.INTRA.DIHEDRAL>
-2.04741

>  <SCORE.INTRA.DIHEDRAL.0>
10.2917

>  <SCORE.INTRA.POLAR>
0

>  <SCORE.INTRA.POLAR.0>
0

>  <SCORE.INTRA.REPUL>
0

>  <SCORE.INTRA.REPUL.0>
0

>  <SCORE.INTRA.SOLV>
-1.92638

>  <SCORE.INTRA.SOLV.lig_0>
-39.6315

>  <SCORE.INTRA.VDW>
0.109634

>  <SCORE.INTRA.VDW.0>
-4.02152

>  <SCORE.INTRA.norm>
-0.0695283

>  <SCORE.RESTR>
0

>  <SCORE.RESTR.CAVITY>
0

>  <SCORE.RESTR.norm>
0

>  <SCORE.SYSTEM>
0

>  <SCORE.SYSTEM.CONST>
0

>  <SCORE.SYSTEM.DIHEDRAL>
0

>  <SCORE.SYSTEM.SOLV>
0

>  <SCORE.SYSTEM.norm>
0

>  <SCORE.heavy>
27

>  <SCORE.norm>
-0.741183

>  <RMSD>
4.174

$$$$
lig.pdb
 OpenBabel11021811493D
libRbt.so/2013.1/901 2013/11/27
 27 29  0  0  0  0  0  0  0  0999 V2000
    7.0778  -15.1828  -10.1991 N   0  0  0  0  0  0  0  0  0  0  0  0
    5.6035  -14.9425  -10.2505 C   0  0  2  0  0  0  0  0  0  0  0  0
    5.3442  -13.5475  -10.8117 C   0  0  0  0  0  0  0  0  0  0  0  0
    4.2005  -13.1079  -10.8339 O   0  0  0  0  0  0  0  0  0  0  0  0
    6.2454  -12.8264  -11.2586 O   0  0  0  0  0  0  0  0  0  0  0  0
    4.8936  -15.1556   -8.8982 C   0  0  0  0  0  0  0  0  0  0  0  0
    5.8021  -15.3340   -7.6535 C   0  0  0  0  0  0  0  0  0  0  0  0
    5.0168  -15.5995   -6.0053 S   0  0  2  0  0  0  0  0  0  0  0  0
    5.9607  -14.4599   -4.9709 C   0  0  0  0  0  0  0  0  0  0  0  0
    5.7180  -17.1680   -5.4487 C   0  0  0  0  0  0  0  0  0  0  0  0
    4.9839  -18.3238   -6.1156 C   0  0  1  0  0  0  0  0  0  0  0  0
    3.6404  -18.0021   -6.4422 O   0  0  0  0  0  0  0  0  0  0  0  0
    5.5886  -18.7268   -7.4337 C   0  0  1  0  0  0  0  0  0  0  0  0
    6.7268  -19.5115   -7.2219 O   0  0  0  0  0  0  0  0  0  0  0  0
    4.4396  -19.4997   -8.0426 C   0  0  1  0  0  0  0  0  0  0  0  0
    4.4243  -20.8222   -7.5449 O   0  0  0  0  0  0  0  0  0  0  0  0
    3.1963  -18.7697   -7.5468 C   0  0  2  0  0  0  0  0  0  0  0  0
    2.5127  -17.9252   -8.5645 N   0  0  0  0  0  0  0  0  0  0  0  0
    1.3366  -17.2454   -8.3705 C   0  0  0  0  0  0  0  0  0  0  0  0
    1.0133  -16.5853   -9.5051 N   0  0  0  0  0  0  0  0  0  0  0  0
    1.9637  -16.8195  -10.4248 C   0  0  0  0  0  0  0  0  0  0  0  0
    2.1215  -16.3837  -11.7316 C   0  0  0  0  0  0  0  0  0  0  0  0
    1.2243  -15.5761  -12.2815 N   0  0  0  0  0  0  0  0  0  0  0  0
    3.2264  -16.7955  -12.4501 N   0  0  0  0  0  0  0  0  0  0  0  0
    4.1788  -17.6333  -11.8836 C   0  0  0  0  0  0  0  0  0  0  0  0
    4.0077  -18.0521  -10.5798 N   0  0  0  0  0  0  0  0  0  0  0  0
    2.9172  -17.6614   -9.8578 C   0  0  0  0  0  0  0  0  0  0  0  0
  2  3  1  1  0  0  0
  2  6  1  0  0  0  0
  2  1  1  0  0  0  0
  4  3  2  0  0  0  0
  5  3  1  0  0  0  0
  6  7  2  0  0  0  0
  8  7  1  6  0  0  0
  8  9  1  0  0  0  0
  8 10  1  0  0  0  0
 11 10  1  6  0  0  0
 11 13  1  0  0  0  0
 12 11  1  0  0  0  0
 12 17  1  0  0  0  0
 13 14  1  1  0  0  0
 13 15  1  0  0  0  0
 15 16  1  1  0  0  0
 17 18  1  6  0  0  0
 17 15  1  0  0  0  0
 18 19  1  0  0  0  0
 20 19  2  0  0  0  0
 21 27  2  0  0  0  0
 21 20  1  0  0  0  0
 22 21  1  0  0  0  0
 23 22  1  0  0  0  0
 24 22  2  0  0  0  0
 24 25  1  0  0  0  0
 25 26  2  0  0  0  0
 26 27  1  0  0  0  0
 27 18  1  0  0  0  0
M  END
>  <CHROM.1>
-173.96860699,10.37244725,-134.13194070,-80.17581978,-28.33451740,-64.73956463
4.27999859,-16.67306019,-8.79517694,-1.94199361,0.85282355,2.38775380

>  <Name>
lig.pdb

>  <RI>
0

>  <Rbt.Current_Directory>
/home/itssahil/PROJECTS/Mol_Feturizer/New_Systems/rnas/4b5r

>  <Rbt.Executable>
rbdock ($Id: //depot/dev/client3/rdock/2013.1/src/exe/rbdock.cxx#4 $)

>  <Rbt.Library>
libRbt.so (2013.1, Build901 2013/11/27)

>  <Rbt.Parameter_File>
/export/apps/rDock/src/rDock_2013.1_src/data/scripts/dock_solv.prm

>  <Rbt.Receptor>
prm/pocket_docking_5.prm

>  <SCORE>
-9.8295

>  <SCORE.INTER>
-9.81256

>  <SCORE.INTER.CONST>
1

>  <SCORE.INTER.POLAR>
0

>  <SCORE.INTER.ROT>
6

>  <SCORE.INTER.SOLV>
10.8285

>  <SCORE.INTER.VDW>
-17.7512

>  <SCORE.INTER.norm>
-0.363428

>  <SCORE.INTRA>
-0.0169404

>  <SCORE.INTRA.DIHEDRAL>
1.7974

>  <SCORE.INTRA.DIHEDRAL.0>
10.2917

>  <SCORE.INTRA.POLAR>
0

>  <SCORE.INTRA.POLAR.0>
0

>  <SCORE.INTRA.REPUL>
0

>  <SCORE.INTRA.REPUL.0>
0

>  <SCORE.INTRA.SOLV>
-0.630933

>  <SCORE.INTRA.SOLV.lig_0>
-39.6315

>  <SCORE.INTRA.VDW>
-0.600176

>  <SCORE.INTRA.VDW.0>
-4.02152

>  <SCORE.INTRA.norm>
-0.000627422

>  <SCORE.RESTR>
0

>  <SCORE.RESTR.CAVITY>
0

>  <SCORE.RESTR.norm>
0

>  <SCORE.SYSTEM>
0

>  <SCORE.SYSTEM.CONST>
0

>  <SCORE.SYSTEM.DIHEDRAL>
0

>  <SCORE.SYSTEM.SOLV>
0

>  <SCORE.SYSTEM.norm>
0

>  <SCORE.heavy>
27

>  <SCORE.norm>
-0.364056

>  <RMSD>
4.411

$$$$
lig.pdb
 OpenBabel11021811493D
libRbt.so/2013.1/901 2013/11/27
 27 29  0  0  0  0  0  0  0  0999 V2000
    6.8105  -16.9304  -13.8736 N   0  0  0  0  0  0  0  0  0  0  0  0
    6.8422  -16.7971  -12.3853 C   0  0  2  0  0  0  0  0  0  0  0  0
    7.9219  -15.7914  -11.9968 C   0  0  0  0  0  0  0  0  0  0  0  0
    8.1447  -14.8319  -12.7258 O   0  0  0  0  0  0  0  0  0  0  0  0
    8.6000  -15.9000  -10.9671 O   0  0  0  0  0  0  0  0  0  0  0  0
    7.0188  -18.1392  -11.6468 C   0  0  0  0  0  0  0  0  0  0  0  0
    6.0378  -18.4285  -10.4804 C   0  0  0  0  0  0  0  0  0  0  0  0
    6.1985  -20.0137   -9.5505 S   0  0  2  0  0  0  0  0  0  0  0  0
    5.0756  -21.0855  -10.4724 C   0  0  0  0  0  0  0  0  0  0  0  0
    5.2068  -19.7379   -8.0665 C   0  0  0  0  0  0  0  0  0  0  0  0
    5.9685  -18.8413   -7.0994 C   0  0  1  0  0  0  0  0  0  0  0  0
    5.9484  -17.4762   -7.4887 O   0  0  0  0  0  0  0  0  0  0  0  0
    5.3794  -18.8298   -5.7144 C   0  0  1  0  0  0  0  0  0  0  0  0
    5.7608  -19.9817   -5.0190 O   0  0  0  0  0  0  0  0  0  0  0  0
    6.0004  -17.5676   -5.1581 C   0  0  1  0  0  0  0  0  0  0  0  0
    7.3090  -17.8319   -4.6948 O   0  0  0  0  0  0  0  0  0  0  0  0
    6.0800  -16.6317   -6.3590 C   0  0  2  0  0  0  0  0  0  0  0  0
    5.0735  -15.5349   -6.3719 N   0  0  0  0  0  0  0  0  0  0  0  0
    5.3100  -14.2370   -5.9942 C   0  0  0  0  0  0  0  0  0  0  0  0
    4.1729  -13.5196   -6.1352 N   0  0  0  0  0  0  0  0  0  0  0  0
    3.2093  -14.3286   -6.6051 C   0  0  0  0  0  0  0  0  0  0  0  0
    1.8809  -14.1018   -6.9312 C   0  0  0  0  0  0  0  0  0  0  0  0
    1.3546  -12.8918   -6.7944 N   0  0  0  0  0  0  0  0  0  0  0  0
    1.1155  -15.1487   -7.4054 N   0  0  0  0  0  0  0  0  0  0  0  0
    1.6561  -16.4186   -7.5628 C   0  0  0  0  0  0  0  0  0  0  0  0
    2.9818  -16.6240   -7.2385 N   0  0  0  0  0  0  0  0  0  0  0  0
    3.7506  -15.6024   -6.7605 C   0  0  0  0  0  0  0  0  0  0  0  0
  2  3  1  6  0  0  0
  2  6  1  0  0  0  0
  2  1  1  0  0  0  0
  4  3  2  0  0  0  0
  5  3  1  0  0  0  0
  6  7  2  0  0  0  0
  8  7  1  6  0  0  0
  8  9  1  0  0  0  0
  8 10  1  0  0  0  0
 11 10  1  6  0  0  0
 11 13  1  0  0  0  0
 12 11  1  0  0  0  0
 12 17  1  0  0  0  0
 13 14  1  1  0  0  0
 13 15  1  0  0  0  0
 15 16  1  6  0  0  0
 17 18  1  1  0  0  0
 17 15  1  0  0  0  0
 18 19  1  0  0  0  0
 20 19  2  0  0  0  0
 21 27  2  0  0  0  0
 21 20  1  0  0  0  0
 22 21  1  0  0  0  0
 23 22  1  0  0  0  0
 24 22  2  0  0  0  0
 24 25  1  0  0  0  0
 25 26  2  0  0  0  0
 26 27  1  0  0  0  0
 27 18  1  0  0  0  0
M  END
>  <CHROM.1>
34.16194459,-131.12598214,-91.60407431,-75.99667856,76.66590120,-140.57236654
5.32215404,-16.98269257,-8.27753231,0.33432830,0.96989854,-0.81709268

>  <Name>
lig.pdb

>  <RI>
0

>  <Rbt.Current_Directory>
/home/itssahil/PROJECTS/Mol_Feturizer/New_Systems/rnas/4b5r

>  <Rbt.Executable>
rbdock ($Id: //depot/dev/client3/rdock/2013.1/src/exe/rbdock.cxx#4 $)

>  <Rbt.Library>
libRbt.so (2013.1, Build901 2013/11/27)

>  <Rbt.Parameter_File>
/export/apps/rDock/src/rDock_2013.1_src/data/scripts/dock_solv.prm

>  <Rbt.Receptor>
prm/pocket_docking_8.prm

>  <SCORE>
-15.4275

>  <SCORE.INTER>
-14.45

>  <SCORE.INTER.CONST>
1

>  <SCORE.INTER.POLAR>
0

>  <SCORE.INTER.ROT>
6

>  <SCORE.INTER.SOLV>
12.6913

>  <SCORE.INTER.VDW>
-21.4638

>  <SCORE.INTER.norm>
-0.535186

>  <SCORE.INTRA>
-0.981345

>  <SCORE.INTRA.DIHEDRAL>
-1.03107

>  <SCORE.INTRA.DIHEDRAL.0>
10.2917

>  <SCORE.INTRA.POLAR>
0

>  <SCORE.INTRA.POLAR.0>
0

>  <SCORE.INTRA.REPUL>
0

>  <SCORE.INTRA.REPUL.0>
0

>  <SCORE.INTRA.SOLV>
-2.84243

>  <SCORE.INTRA.SOLV.lig_0>
-39.6315

>  <SCORE.INTRA.VDW>
0.955407

>  <SCORE.INTRA.VDW.0>
-4.02152

>  <SCORE.INTRA.norm>
-0.0363461

>  <SCORE.RESTR>
0.00390477

>  <SCORE.RESTR.CAVITY>
0.00390477

>  <SCORE.RESTR.norm>
0.000144621

>  <SCORE.SYSTEM>
0

>  <SCORE.SYSTEM.CONST>
0

>  <SCORE.SYSTEM.DIHEDRAL>
0

>  <SCORE.SYSTEM.SOLV>
0

>  <SCORE.SYSTEM.norm>
0

>  <SCORE.heavy>
27

>  <SCORE.norm>
-0.571388

>  <RMSD>
4.428

$$$$
lig.pdb
 OpenBabel11021811493D
libRbt.so/2013.1/901 2013/11/27
 27 29  0  0  0  0  0  0  0  0999 V2000
    5.8964  -13.7170   -9.9803 N   0  0  0  0  0  0  0  0  0  0  0  0
    7.1750  -13.7083  -10.7543 C   0  0  2  0  0  0  0  0  0  0  0  0
    7.0484  -12.7281  -11.9168 C   0  0  0  0  0  0  0  0  0  0  0  0
    6.6268  -13.1233  -12.9974 O   0  0  0  0  0  0  0  0  0  0  0  0
    7.3604  -11.5340  -11.8239 O   0  0  0  0  0  0  0  0  0  0  0  0
    7.6202  -15.1057  -11.2308 C   0  0  0  0  0  0  0  0  0  0  0  0
    6.8412  -16.3192  -10.6588 C   0  0  0  0  0  0  0  0  0  0  0  0
    7.3271  -18.0200  -11.1829 S   0  0  2  0  0  0  0  0  0  0  0  0
    7.3348  -17.8526  -12.9805 C   0  0  0  0  0  0  0  0  0  0  0  0
    5.8109  -18.9785  -10.9726 C   0  0  0  0  0  0  0  0  0  0  0  0
    5.5299  -19.1755   -9.4888 C   0  0  1  0  0  0  0  0  0  0  0  0
    5.2513  -17.9554   -8.8186 O   0  0  0  0  0  0  0  0  0  0  0  0
    4.3113  -20.0184   -9.2242 C   0  0  1  0  0  0  0  0  0  0  0  0
    4.6163  -21.3728   -9.3934 O   0  0  0  0  0  0  0  0  0  0  0  0
    4.0246  -19.6497   -7.7854 C   0  0  1  0  0  0  0  0  0  0  0  0
    4.8441  -20.4048   -6.9165 O   0  0  0  0  0  0  0  0  0  0  0  0
    4.4240  -18.1813   -7.6912 C   0  0  2  0  0  0  0  0  0  0  0  0
    3.2880  -17.2205   -7.6410 N   0  0  0  0  0  0  0  0  0  0  0  0
    2.0288  -17.4547   -8.1336 C   0  0  0  0  0  0  0  0  0  0  0  0
    1.2572  -16.3664   -7.9149 N   0  0  0  0  0  0  0  0  0  0  0  0
    1.9929  -15.4376   -7.2824 C   0  0  0  0  0  0  0  0  0  0  0  0
    1.6902  -14.1645   -6.8238 C   0  0  0  0  0  0  0  0  0  0  0  0
    0.4712  -13.6667   -6.9846 N   0  0  0  0  0  0  0  0  0  0  0  0
    2.6709  -13.4250   -6.1930 N   0  0  0  0  0  0  0  0  0  0  0  0
    3.9489  -13.9375   -6.0092 C   0  0  0  0  0  0  0  0  0  0  0  0
    4.2299  -15.2087   -6.4671 N   0  0  0  0  0  0  0  0  0  0  0  0
    3.2749  -15.9503   -7.1004 C   0  0  0  0  0  0  0  0  0  0  0  0
  2  3  1  6  0  0  0
  2  6  1  0  0  0  0
  2  1  1  0  0  0  0
  4  3  2  0  0  0  0
  5  3  1  0  0  0  0
  6  7  2  0  0  0  0
  8  7  1  1  0  0  0
  8  9  1  0  0  0  0
  8 10  1  0  0  0  0
 11 10  1  6  0  0  0
 11 13  1  0  0  0  0
 12 11  1  0  0  0  0
 12 17  1  0  0  0  0
 13 14  1  1  0  0  0
 13 15  1  0  0  0  0
 15 16  1  1  0  0  0
 17 18  1  6  0  0  0
 17 15  1  0  0  0  0
 18 19  1  0  0  0  0
 20 19  2  0  0  0  0
 21 27  2  0  0  0  0
 21 20  1  0  0  0  0
 22 21  1  0  0  0  0
 23 22  1  0  0  0  0
 24 22  2  0  0  0  0
 24 25  1  0  0  0  0
 25 26  2  0  0  0  0
 26 27  1  0  0  0  0
 27 18  1  0  0  0  0
M  END
>  <CHROM.1>
-89.93167703,-9.83762249,-51.15593158,-71.83403083,65.08104384,94.83007296
4.87025734,-16.43724606,-9.20058195,0.35957269,0.79162033,-0.07024409

>  <Name>
lig.pdb

>  <RI>
0

>  <Rbt.Current_Directory>
/home/itssahil/PROJECTS/Mol_Feturizer/New_Systems/rnas/4b5r

>  <Rbt.Executable>
rbdock ($Id: //depot/dev/client3/rdock/2013.1/src/exe/rbdock.cxx#4 $)

>  <Rbt.Library>
libRbt.so (2013.1, Build901 2013/11/27)

>  <Rbt.Parameter_File>
/export/apps/rDock/src/rDock_2013.1_src/data/scripts/dock_solv.prm

>  <Rbt.Receptor>
prm/pocket_docking_6.prm

>  <SCORE>
-15.7205

>  <SCORE.INTER>
-15.1655

>  <SCORE.INTER.CONST>
1

>  <SCORE.INTER.POLAR>
0

>  <SCORE.INTER.ROT>
6

>  <SCORE.INTER.SOLV>
12.6676

>  <SCORE.INTER.VDW>
-21.9329

>  <SCORE.INTER.norm>
-0.561685

>  <SCORE.INTRA>
-0.554991

>  <SCORE.INTRA.DIHEDRAL>
-3.15229

>  <SCORE.INTRA.DIHEDRAL.0>
10.2917

>  <SCORE.INTRA.POLAR>
0

>  <SCORE.INTRA.POLAR.0>
0

>  <SCORE.INTRA.REPUL>
0

>  <SCORE.INTRA.REPUL.0>
0

>  <SCORE.INTRA.SOLV>
-2.31325

>  <SCORE.INTRA.SOLV.lig_0>
-39.6315

>  <SCORE.INTRA.VDW>
2.17778

>  <SCORE.INTRA.VDW.0>
-4.02152

>  <SCORE.INTRA.norm>
-0.0205552

>  <SCORE.RESTR>
0

>  <SCORE.RESTR.CAVITY>
0

>  <SCORE.RESTR.norm>
0

>  <SCORE.SYSTEM>
0

>  <SCORE.SYSTEM.CONST>
0

>  <SCORE.SYSTEM.DIHEDRAL>
0

>  <SCORE.SYSTEM.SOLV>
0

>  <SCORE.SYSTEM.norm>
0

>  <SCORE.heavy>
27

>  <SCORE.norm>
-0.58224

>  <RMSD>
4.457

$$$$
lig.pdb
 OpenBabel11021811493D
libRbt.so/2013.1/901 2013/11/27
 27 29  0  0  0  0  0  0  0  0999 V2000
    6.0193  -16.0989  -16.2852 N   0  0  0  0  0  0  0  0  0  0  0  0
    4.7856  -15.3205  -15.9593 C   0  0  2  0  0  0  0  0  0  0  0  0
    5.0924  -13.8298  -16.0676 C   0  0  0  0  0  0  0  0  0  0  0  0
    5.0205  -13.2756  -17.1582 O   0  0  0  0  0  0  0  0  0  0  0  0
    5.4212  -13.1404  -15.0937 O   0  0  0  0  0  0  0  0  0  0  0  0
    4.1700  -15.6795  -14.5918 C   0  0  0  0  0  0  0  0  0  0  0  0
    4.9020  -16.7654  -13.7602 C   0  0  0  0  0  0  0  0  0  0  0  0
    4.2144  -17.2467  -12.1173 S   0  0  2  0  0  0  0  0  0  0  0  0
    4.4049  -15.7121  -11.1855 C   0  0  0  0  0  0  0  0  0  0  0  0
    5.5391  -18.2222  -11.3719 C   0  0  0  0  0  0  0  0  0  0  0  0
    5.0863  -18.7529  -10.0181 C   0  0  1  0  0  0  0  0  0  0  0  0
    4.8753  -17.7188   -9.0686 O   0  0  0  0  0  0  0  0  0  0  0  0
    3.7620  -19.4658  -10.0749 C   0  0  1  0  0  0  0  0  0  0  0  0
    3.9326  -20.7600  -10.5768 O   0  0  0  0  0  0  0  0  0  0  0  0
    3.3702  -19.4424   -8.6140 C   0  0  1  0  0  0  0  0  0  0  0  0
    4.0078  -20.4966   -7.9218 O   0  0  0  0  0  0  0  0  0  0  0  0
    3.9162  -18.1135   -8.1038 C   0  0  2  0  0  0  0  0  0  0  0  0
    2.8932  -17.0553   -7.8801 N   0  0  0  0  0  0  0  0  0  0  0  0
    1.5739  -17.1371   -8.2483 C   0  0  0  0  0  0  0  0  0  0  0  0
    0.9414  -15.9977   -7.8890 N   0  0  0  0  0  0  0  0  0  0  0  0
    1.8263  -15.1856   -7.2878 C   0  0  0  0  0  0  0  0  0  0  0  0
    1.7006  -13.9225   -6.7299 C   0  0  0  0  0  0  0  0  0  0  0  0
    0.5278  -13.3026   -6.7325 N   0  0  0  0  0  0  0  0  0  0  0  0
    2.8090  -13.3215   -6.1669 N   0  0  0  0  0  0  0  0  0  0  0  0
    4.0410  -13.9630   -6.1486 C   0  0  0  0  0  0  0  0  0  0  0  0
    4.1455  -15.2223   -6.7034 N   0  0  0  0  0  0  0  0  0  0  0  0
    3.0621  -15.8276   -7.2717 C   0  0  0  0  0  0  0  0  0  0  0  0
  2  3  1  1  0  0  0
  2  6  1  0  0  0  0
  2  1  1  0  0  0  0
  4  3  2  0  0  0  0
  5  3  1  0  0  0  0
  6  7  2  0  0  0  0
  8  7  1  6  0  0  0
  8  9  1  0  0  0  0
  8 10  1  0  0  0  0
 11 10  1  6  0  0  0
 11 13  1  0  0  0  0
 12 11  1  0  0  0  0
 12 17  1  0  0  0  0
 13 14  1  1  0  0  0
 13 15  1  0  0  0  0
 15 16  1  1  0  0  0
 17 18  1  6  0  0  0
 17 15  1  0  0  0  0
 18 19  1  0  0  0  0
 20 19  2  0  0  0  0
 21 27  2  0  0  0  0
 21 20  1  0  0  0  0
 22 21  1  0  0  0  0
 23 22  1  0  0  0  0
 24 22  2  0  0  0  0
 24 25  1  0  0  0  0
 25 26  2  0  0  0  0
 26 27  1  0  0  0  0
 27 18  1  0  0  0  0
M  END
>  <CHROM.1>
85.00434581,0.33992421,-64.83444280,-177.29801974,-65.80633232,110.96186811
3.83694330,-16.40643608,-10.47466337,-0.64527416,-1.21527201,2.59818920

>  <Name>
lig.pdb

>  <RI>
0

>  <Rbt.Current_Directory>
/home/itssahil/PROJECTS/Mol_Feturizer/New_Systems/rnas/4b5r

>  <Rbt.Executable>
rbdock ($Id: //depot/dev/client3/rdock/2013.1/src/exe/rbdock.cxx#4 $)

>  <Rbt.Library>
libRbt.so (2013.1, Build901 2013/11/27)

>  <Rbt.Parameter_File>
/export/apps/rDock/src/rDock_2013.1_src/data/scripts/dock_solv.prm

>  <Rbt.Receptor>
prm/pocket_docking_6.prm

>  <SCORE>
-11.976

>  <SCORE.INTER>
-11.632

>  <SCORE.INTER.CONST>
1

>  <SCORE.INTER.POLAR>
0

>  <SCORE.INTER.ROT>
6

>  <SCORE.INTER.SOLV>
13.7771

>  <SCORE.INTER.VDW>
-19.947

>  <SCORE.INTER.norm>
-0.430813

>  <SCORE.INTRA>
-0.344015

>  <SCORE.INTRA.DIHEDRAL>
-2.73861

>  <SCORE.INTRA.DIHEDRAL.0>
10.2917

>  <SCORE.INTRA.POLAR>
0

>  <SCORE.INTRA.POLAR.0>
0

>  <SCORE.INTRA.REPUL>
0.00229472

>  <SCORE.INTRA.REPUL.0>
0

>  <SCORE.INTRA.SOLV>
-2.47864

>  <SCORE.INTRA.SOLV.lig_0>
-39.6315

>  <SCORE.INTRA.VDW>
2.25313

>  <SCORE.INTRA.VDW.0>
-4.02152

>  <SCORE.INTRA.norm>
-0.0127413

>  <SCORE.RESTR>
0

>  <SCORE.RESTR.CAVITY>
0

>  <SCORE.RESTR.norm>
0

>  <SCORE.SYSTEM>
0

>  <SCORE.SYSTEM.CONST>
0

>  <SCORE.SYSTEM.DIHEDRAL>
0

>  <SCORE.SYSTEM.SOLV>
0

>  <SCORE.SYSTEM.norm>
0

>  <SCORE.heavy>
27

>  <SCORE.norm>
-0.443555

>  <RMSD>
4.462

$$$$
lig.pdb
 OpenBabel11021811493D
libRbt.so/2013.1/901 2013/11/27
 27 29  0  0  0  0  0  0  0  0999 V2000
    5.2179  -13.5724  -11.6855 N   0  0  0  0  0  0  0  0  0  0  0  0
    5.3874  -14.5163  -10.5390 C   0  0  2  0  0  0  0  0  0  0  0  0
    6.5131  -14.0132   -9.6402 C   0  0  0  0  0  0  0  0  0  0  0  0
    6.5990  -14.4272   -8.4900 O   0  0  0  0  0  0  0  0  0  0  0  0
    7.3559  -13.1896  -10.0185 O   0  0  0  0  0  0  0  0  0  0  0  0
    5.6106  -15.9800  -10.9696 C   0  0  0  0  0  0  0  0  0  0  0  0
    7.0122  -16.5837  -10.6908 C   0  0  0  0  0  0  0  0  0  0  0  0
    7.3482  -18.3285  -11.1870 S   0  0  2  0  0  0  0  0  0  0  0  0
    7.3248  -18.1998  -12.9877 C   0  0  0  0  0  0  0  0  0  0  0  0
    5.7662  -19.1578  -10.9202 C   0  0  0  0  0  0  0  0  0  0  0  0
    5.5154  -19.3168   -9.4265 C   0  0  1  0  0  0  0  0  0  0  0  0
    5.2720  -18.0775   -8.7783 O   0  0  0  0  0  0  0  0  0  0  0  0
    4.2895  -20.1330   -9.1159 C   0  0  1  0  0  0  0  0  0  0  0  0
    4.5685  -21.4957   -9.2609 O   0  0  0  0  0  0  0  0  0  0  0  0
    4.0413  -19.7273   -7.6799 C   0  0  1  0  0  0  0  0  0  0  0  0
    4.8677  -20.4765   -6.8123 O   0  0  0  0  0  0  0  0  0  0  0  0
    4.4667  -18.2642   -7.6280 C   0  0  2  0  0  0  0  0  0  0  0  0
    3.3479  -17.2835   -7.5745 N   0  0  0  0  0  0  0  0  0  0  0  0
    2.0691  -17.5143   -8.0153 C   0  0  0  0  0  0  0  0  0  0  0  0
    1.3223  -16.4063   -7.8106 N   0  0  0  0  0  0  0  0  0  0  0  0
    2.0934  -15.4675   -7.2377 C   0  0  0  0  0  0  0  0  0  0  0  0
    1.8262  -14.1740   -6.8160 C   0  0  0  0  0  0  0  0  0  0  0  0
    0.6102  -13.6621   -6.9535 N   0  0  0  0  0  0  0  0  0  0  0  0
    2.8393  -13.4286   -6.2462 N   0  0  0  0  0  0  0  0  0  0  0  0
    4.1149  -13.9552   -6.0871 C   0  0  0  0  0  0  0  0  0  0  0  0
    4.3605  -15.2466   -6.5075 N   0  0  0  0  0  0  0  0  0  0  0  0
    3.3729  -15.9946   -7.0805 C   0  0  0  0  0  0  0  0  0  0  0  0
  2  3  1  6  0  0  0
  2  6  1  0  0  0  0
  2  1  1  0  0  0  0
  4  3  2  0  0  0  0
  5  3  1  0  0  0  0
  6  7  2  0  0  0  0
  8  7  1  1  0  0  0
  8  9  1  0  0  0  0
  8 10  1  0  0  0  0
 11 10  1  6  0  0  0
 11 13  1  0  0  0  0
 12 11  1  0  0  0  0
 12 17  1  0  0  0  0
 13 14  1  1  0  0  0
 13 15  1  0  0  0  0
 15 16  1  1  0  0  0
 17 18  1  6  0  0  0
 17 15  1  0  0  0  0
 18 19  1  0  0  0  0
 20 19  2  0  0  0  0
 21 27  2  0  0  0  0
 21 20  1  0  0  0  0
 22 21  1  0  0  0  0
 23 22  1  0  0  0  0
 24 22  2  0  0  0  0
 24 25  1  0  0  0  0
 25 26  2  0  0  0  0
 26 27  1  0  0  0  0
 27 18  1  0  0  0  0
M  END
>  <CHROM.1>
161.56309175,111.91814099,68.46514238,-72.55907585,68.89203581,95.86734983
4.74492358,-16.74000908,-8.88677927,-2.41622489,-0.76895099,-3.12670482

>  <Name>
lig.pdb

>  <RI>
0

>  <Rbt.Current_Directory>
/home/itssahil/PROJECTS/Mol_Feturizer/New_Systems/rnas/4b5r

>  <Rbt.Executable>
rbdock ($Id: //depot/dev/client3/rdock/2013.1/src/exe/rbdock.cxx#4 $)

>  <Rbt.Library>
libRbt.so (2013.1, Build901 2013/11/27)

>  <Rbt.Parameter_File>
/export/apps/rDock/src/rDock_2013.1_src/data/scripts/dock_solv.prm

>  <Rbt.Receptor>
prm/pocket_docking_8.prm

>  <SCORE>
-14.0649

>  <SCORE.INTER>
-13.3447

>  <SCORE.INTER.CONST>
1

>  <SCORE.INTER.POLAR>
0

>  <SCORE.INTER.ROT>
6

>  <SCORE.INTER.SOLV>
11.4202

>  <SCORE.INTER.VDW>
-20.3032

>  <SCORE.INTER.norm>
-0.494247

>  <SCORE.INTRA>
-0.720228

>  <SCORE.INTRA.DIHEDRAL>
-1.42781

>  <SCORE.INTRA.DIHEDRAL.0>
10.2917

>  <SCORE.INTRA.POLAR>
0

>  <SCORE.INTRA.POLAR.0>
0

>  <SCORE.INTRA.REPUL>
0

>  <SCORE.INTRA.REPUL.0>
0

>  <SCORE.INTRA.SOLV>
-2.19617

>  <SCORE.INTRA.SOLV.lig_0>
-39.6315

>  <SCORE.INTRA.VDW>
1.09176

>  <SCORE.INTRA.VDW.0>
-4.02152

>  <SCORE.INTRA.norm>
-0.0266751

>  <SCORE.RESTR>
0

>  <SCORE.RESTR.CAVITY>
0

>  <SCORE.RESTR.norm>
0

>  <SCORE.SYSTEM>
0

>  <SCORE.SYSTEM.CONST>
0

>  <SCORE.SYSTEM.DIHEDRAL>
0

>  <SCORE.SYSTEM.SOLV>
0

>  <SCORE.SYSTEM.norm>
0

>  <SCORE.heavy>
27

>  <SCORE.norm>
-0.520922

>  <RMSD>
4.480

$$$$
lig.pdb
 OpenBabel11021811493D
libRbt.so/2013.1/901 2013/11/27
 27 29  0  0  0  0  0  0  0  0999 V2000
    5.2841  -19.0338   -6.9948 N   0  0  0  0  0  0  0  0  0  0  0  0
    4.5286  -18.1104   -7.8951 C   0  0  2  0  0  0  0  0  0  0  0  0
    3.0426  -18.1889   -7.5577 C   0  0  0  0  0  0  0  0  0  0  0  0
    2.2196  -17.7335   -8.3432 O   0  0  0  0  0  0  0  0  0  0  0  0
    2.6186  -18.6934   -6.5100 O   0  0  0  0  0  0  0  0  0  0  0  0
    4.7881  -18.3577   -9.3948 C   0  0  0  0  0  0  0  0  0  0  0  0
    5.4661  -17.2077  -10.1849 C   0  0  0  0  0  0  0  0  0  0  0  0
    5.7993  -17.4358  -11.9850 S   0  0  2  0  0  0  0  0  0  0  0  0
    7.1788  -18.5999  -11.9494 C   0  0  0  0  0  0  0  0  0  0  0  0
    6.6829  -15.9301  -12.4474 C   0  0  0  0  0  0  0  0  0  0  0  0
    5.7644  -14.7260  -12.2867 C   0  0  1  0  0  0  0  0  0  0  0  0
    4.4153  -15.0199  -12.6171 O   0  0  0  0  0  0  0  0  0  0  0  0
    5.6875  -14.2256  -10.8692 C   0  0  1  0  0  0  0  0  0  0  0  0
    6.8187  -13.4611  -10.5662 O   0  0  0  0  0  0  0  0  0  0  0  0
    4.4170  -13.4070  -10.9314 C   0  0  1  0  0  0  0  0  0  0  0  0
    4.6885  -12.1258  -11.4623 O   0  0  0  0  0  0  0  0  0  0  0  0
    3.5303  -14.1702  -11.9090 C   0  0  2  0  0  0  0  0  0  0  0  0
    2.4153  -14.9343  -11.2851 N   0  0  0  0  0  0  0  0  0  0  0  0
    1.9143  -16.1255  -11.7467 C   0  0  0  0  0  0  0  0  0  0  0  0
    0.9111  -16.5291  -10.9356 N   0  0  0  0  0  0  0  0  0  0  0  0
    0.7612  -15.6248   -9.9539 C   0  0  0  0  0  0  0  0  0  0  0  0
   -0.1028  -15.5610   -8.8714 C   0  0  0  0  0  0  0  0  0  0  0  0
   -0.9923  -16.5236   -8.6664 N   0  0  0  0  0  0  0  0  0  0  0  0
   -0.0214  -14.4872   -8.0070 N   0  0  0  0  0  0  0  0  0  0  0  0
    0.9116  -13.4771   -8.2041 C   0  0  0  0  0  0  0  0  0  0  0  0
    1.7671  -13.5606   -9.2837 N   0  0  0  0  0  0  0  0  0  0  0  0
    1.6949  -14.6107  -10.1528 C   0  0  0  0  0  0  0  0  0  0  0  0
  2  3  1  6  0  0  0
  2  6  1  0  0  0  0
  2  1  1  0  0  0  0
  4  3  2  0  0  0  0
  5  3  1  0  0  0  0
  6  7  2  0  0  0  0
  8  7  1  1  0  0  0
  8  9  1  0  0  0  0
  8 10  1  0  0  0  0
 11 10  1  1  0  0  0
 11 13  1  0  0  0  0
 12 11  1  0  0  0  0
 12 17  1  0  0  0  0
 13 14  1  6  0  0  0
 13 15  1  0  0  0  0
 15 16  1  6  0  0  0
 17 18  1  1  0  0  0
 17 15  1  0  0  0  0
 18 19  1  0  0  0  0
 20 19  2  0  0  0  0
 21 27  2  0  0  0  0
 21 20  1  0  0  0  0
 22 21  1  0  0  0  0
 23 22  1  0  0  0  0
 24 22  2  0  0  0  0
 24 25  1  0  0  0  0
 25 26  2  0  0  0  0
 26 27  1  0  0  0  0
 27 18  1  0  0  0  0
M  END
>  <CHROM.1>
-164.92680821,-116.35677565,-73.04196589,-64.84888745,-35.47759661,-27.21785403
3.57996630,-15.92026867,-10.13982467,-2.80679574,0.46439889,-0.56928425

>  <Name>
lig.pdb

>  <RI>
0

>  <Rbt.Current_Directory>
/home/itssahil/PROJECTS/Mol_Feturizer/New_Systems/rnas/4b5r

>  <Rbt.Executable>
rbdock ($Id: //depot/dev/client3/rdock/2013.1/src/exe/rbdock.cxx#4 $)

>  <Rbt.Library>
libRbt.so (2013.1, Build901 2013/11/27)

>  <Rbt.Parameter_File>
/export/apps/rDock/src/rDock_2013.1_src/data/scripts/dock_solv.prm

>  <Rbt.Receptor>
prm/pocket_docking_5.prm

>  <SCORE>
-14.0545

>  <SCORE.INTER>
-13.0565

>  <SCORE.INTER.CONST>
1

>  <SCORE.INTER.POLAR>
0

>  <SCORE.INTER.ROT>
6

>  <SCORE.INTER.SOLV>
13.5841

>  <SCORE.INTER.VDW>
-20.8324

>  <SCORE.INTER.norm>
-0.483574

>  <SCORE.INTRA>
-0.998015

>  <SCORE.INTRA.DIHEDRAL>
-1.01306

>  <SCORE.INTRA.DIHEDRAL.0>
10.2917

>  <SCORE.INTRA.POLAR>
0

>  <SCORE.INTRA.POLAR.0>
0

>  <SCORE.INTRA.REPUL>
0

>  <SCORE.INTRA.REPUL.0>
0

>  <SCORE.INTRA.SOLV>
-1.60266

>  <SCORE.INTRA.SOLV.lig_0>
-39.6315

>  <SCORE.INTRA.VDW>
0.309846

>  <SCORE.INTRA.VDW.0>
-4.02152

>  <SCORE.INTRA.norm>
-0.0369635

>  <SCORE.RESTR>
0

>  <SCORE.RESTR.CAVITY>
0

>  <SCORE.RESTR.norm>
0

>  <SCORE.SYSTEM>
0

>  <SCORE.SYSTEM.CONST>
0

>  <SCORE.SYSTEM.DIHEDRAL>
0

>  <SCORE.SYSTEM.SOLV>
0

>  <SCORE.SYSTEM.norm>
0

>  <SCORE.heavy>
27

>  <SCORE.norm>
-0.520538

>  <RMSD>
4.525

$$$$
lig.pdb
 OpenBabel11021811493D
libRbt.so/2013.1/901 2013/11/27
 27 29  0  0  0  0  0  0  0  0999 V2000
    4.3265  -16.0381  -14.4873 N   0  0  0  0  0  0  0  0  0  0  0  0
    3.5368  -16.3498  -13.2572 C   0  0  2  0  0  0  0  0  0  0  0  0
    2.7537  -15.1090  -12.8386 C   0  0  0  0  0  0  0  0  0  0  0  0
    1.5780  -15.2183  -12.5108 O   0  0  0  0  0  0  0  0  0  0  0  0
    3.2528  -13.9766  -12.8179 O   0  0  0  0  0  0  0  0  0  0  0  0
    4.3888  -16.9059  -12.0985 C   0  0  0  0  0  0  0  0  0  0  0  0
    5.8782  -17.2083  -12.4098 C   0  0  0  0  0  0  0  0  0  0  0  0
    6.9520  -17.8818  -11.0693 S   0  0  2  0  0  0  0  0  0  0  0  0
    5.7269  -18.6075   -9.9594 C   0  0  0  0  0  0  0  0  0  0  0  0
    7.4026  -16.4189  -10.1110 C   0  0  0  0  0  0  0  0  0  0  0  0
    6.2303  -15.4474  -10.0753 C   0  0  1  0  0  0  0  0  0  0  0  0
    5.3004  -15.7507   -9.0464 O   0  0  0  0  0  0  0  0  0  0  0  0
    6.6445  -14.0307   -9.7807 C   0  0  1  0  0  0  0  0  0  0  0  0
    7.1655  -13.4317  -10.9321 O   0  0  0  0  0  0  0  0  0  0  0  0
    5.3214  -13.4375   -9.3497 C   0  0  1  0  0  0  0  0  0  0  0  0
    4.5592  -13.0725  -10.4822 O   0  0  0  0  0  0  0  0  0  0  0  0
    4.6185  -14.5818   -8.6278 C   0  0  2  0  0  0  0  0  0  0  0  0
    4.5853  -14.4658   -7.1440 N   0  0  0  0  0  0  0  0  0  0  0  0
    3.5897  -13.8622   -6.4177 C   0  0  0  0  0  0  0  0  0  0  0  0
    3.8886  -13.9436   -5.1018 N   0  0  0  0  0  0  0  0  0  0  0  0
    5.0545  -14.5964   -4.9651 C   0  0  0  0  0  0  0  0  0  0  0  0
    5.7957  -14.9533   -3.8490 C   0  0  0  0  0  0  0  0  0  0  0  0
    5.3663  -14.6442   -2.6325 N   0  0  0  0  0  0  0  0  0  0  0  0
    6.9820  -15.6392   -4.0195 N   0  0  0  0  0  0  0  0  0  0  0  0
    7.4388  -15.9779   -5.2869 C   0  0  0  0  0  0  0  0  0  0  0  0
    6.6846  -15.6193   -6.3856 N   0  0  0  0  0  0  0  0  0  0  0  0
    5.5138  -14.9337   -6.2358 C   0  0  0  0  0  0  0  0  0  0  0  0
  2  3  1  1  0  0  0
  2  6  1  0  0  0  0
  2  1  1  0  0  0  0
  4  3  2  0  0  0  0
  5  3  1  0  0  0  0
  6  7  2  0  0  0  0
  8  7  1  6  0  0  0
  8  9  1  0  0  0  0
  8 10  1  0  0  0  0
 11 10  1  1  0  0  0
 11 13  1  0  0  0  0
 12 11  1  0  0  0  0
 12 17  1  0  0  0  0
 13 14  1  6  0  0  0
 13 15  1  0  0  0  0
 15 16  1  6  0  0  0
 17 18  1  1  0  0  0
 17 15  1  0  0  0  0
 18 19  1  0  0  0  0
 20 19  2  0  0  0  0
 21 27  2  0  0  0  0
 21 20  1  0  0  0  0
 22 21  1  0  0  0  0
 23 22  1  0  0  0  0
 24 22  2  0  0  0  0
 24 25  1  0  0  0  0
 25 26  2  0  0  0  0
 26 27  1  0  0  0  0
 27 18  1  0  0  0  0
M  END
>  <CHROM.1>
135.29921331,-6.52761166,22.44845380,35.69867907,84.61142029,-149.75310018
5.27268402,-15.37453038,-9.13911807,1.78850317,0.73094896,-1.84861755

>  <Name>
lig.pdb

>  <RI>
0

>  <Rbt.Current_Directory>
/home/itssahil/PROJECTS/Mol_Feturizer/New_Systems/rnas/4b5r

>  <Rbt.Executable>
rbdock ($Id: //depot/dev/client3/rdock/2013.1/src/exe/rbdock.cxx#4 $)

>  <Rbt.Library>
libRbt.so (2013.1, Build901 2013/11/27)

>  <Rbt.Parameter_File>
/export/apps/rDock/src/rDock_2013.1_src/data/scripts/dock_solv.prm

>  <Rbt.Receptor>
prm/pocket_docking_4.prm

>  <SCORE>
-12.1455

>  <SCORE.INTER>
-13.0903

>  <SCORE.INTER.CONST>
1

>  <SCORE.INTER.POLAR>
0

>  <SCORE.INTER.ROT>
6

>  <SCORE.INTER.SOLV>
16.3428

>  <SCORE.INTER.VDW>
-21.7745

>  <SCORE.INTER.norm>
-0.484827

>  <SCORE.INTRA>
0.941235

>  <SCORE.INTRA.DIHEDRAL>
0.583967

>  <SCORE.INTRA.DIHEDRAL.0>
10.2917

>  <SCORE.INTRA.POLAR>
0

>  <SCORE.INTRA.POLAR.0>
0

>  <SCORE.INTRA.REPUL>
0

>  <SCORE.INTRA.REPUL.0>
0

>  <SCORE.INTRA.SOLV>
-1.69753

>  <SCORE.INTRA.SOLV.lig_0>
-39.6315

>  <SCORE.INTRA.VDW>
1.49802

>  <SCORE.INTRA.VDW.0>
-4.02152

>  <SCORE.INTRA.norm>
0.0348606

>  <SCORE.RESTR>
0.00357003

>  <SCORE.RESTR.CAVITY>
0.00357003

>  <SCORE.RESTR.norm>
0.000132223

>  <SCORE.SYSTEM>
0

>  <SCORE.SYSTEM.CONST>
0

>  <SCORE.SYSTEM.DIHEDRAL>
0

>  <SCORE.SYSTEM.SOLV>
0

>  <SCORE.SYSTEM.norm>
0

>  <SCORE.heavy>
27

>  <SCORE.norm>
-0.449834

>  <RMSD>
4.535

$$$$
lig.pdb
 OpenBabel11021811493D
libRbt.so/2013.1/901 2013/11/27
 27 29  0  0  0  0  0  0  0  0999 V2000
    6.7167  -15.6394  -12.1610 N   0  0  0  0  0  0  0  0  0  0  0  0
    7.5582  -16.8312  -12.4856 C   0  0  2  0  0  0  0  0  0  0  0  0
    7.0941  -17.4237  -13.8129 C   0  0  0  0  0  0  0  0  0  0  0  0
    7.9175  -17.9127  -14.5775 O   0  0  0  0  0  0  0  0  0  0  0  0
    5.9077  -17.4311  -14.1655 O   0  0  0  0  0  0  0  0  0  0  0  0
    7.5889  -17.8913  -11.3662 C   0  0  0  0  0  0  0  0  0  0  0  0
    7.1541  -19.3290  -11.7541 C   0  0  0  0  0  0  0  0  0  0  0  0
    7.1615  -20.6442  -10.4604 S   0  0  2  0  0  0  0  0  0  0  0  0
    6.8946  -22.1270  -11.4552 C   0  0  0  0  0  0  0  0  0  0  0  0
    5.5333  -20.4945   -9.6935 C   0  0  0  0  0  0  0  0  0  0  0  0
    5.6889  -20.0941   -8.2324 C   0  0  1  0  0  0  0  0  0  0  0  0
    5.7489  -18.6869   -8.0548 O   0  0  0  0  0  0  0  0  0  0  0  0
    4.5253  -20.5162   -7.3761 C   0  0  1  0  0  0  0  0  0  0  0  0
    4.6260  -21.8753   -7.0621 O   0  0  0  0  0  0  0  0  0  0  0  0
    4.7198  -19.6140   -6.1775 C   0  0  1  0  0  0  0  0  0  0  0  0
    5.6796  -20.1687   -5.3011 O   0  0  0  0  0  0  0  0  0  0  0  0
    5.2769  -18.3242   -6.7695 C   0  0  2  0  0  0  0  0  0  0  0  0
    4.3119  -17.1926   -6.8369 N   0  0  0  0  0  0  0  0  0  0  0  0
    4.5776  -15.9001   -6.4603 C   0  0  0  0  0  0  0  0  0  0  0  0
    3.4743  -15.1445   -6.6581 N   0  0  0  0  0  0  0  0  0  0  0  0
    2.5042  -15.9237   -7.1638 C   0  0  0  0  0  0  0  0  0  0  0  0
    1.2005  -15.6534   -7.5510 C   0  0  0  0  0  0  0  0  0  0  0  0
    0.7123  -14.4243   -7.4484 N   0  0  0  0  0  0  0  0  0  0  0  0
    0.4200  -16.6774   -8.0499 N   0  0  0  0  0  0  0  0  0  0  0  0
    0.9214  -17.9672   -8.1719 C   0  0  0  0  0  0  0  0  0  0  0  0
    2.2231  -18.2160   -7.7869 N   0  0  0  0  0  0  0  0  0  0  0  0
    3.0059  -17.2173   -7.2838 C   0  0  0  0  0  0  0  0  0  0  0  0
  2  3  1  6  0  0  0
  2  6  1  0  0  0  0
  2  1  1  0  0  0  0
  4  3  2  0  0  0  0
  5  3  1  0  0  0  0
  6  7  2  0  0  0  0
  8  7  1  6  0  0  0
  8  9  1  0  0  0  0
  8 10  1  0  0  0  0
 11 10  1  6  0  0  0
 11 13  1  0  0  0  0
 12 11  1  0  0  0  0
 12 17  1  0  0  0  0
 13 14  1  1  0  0  0
 13 15  1  0  0  0  0
 15 16  1  1  0  0  0
 17 18  1  6  0  0  0
 17 15  1  0  0  0  0
 18 19  1  0  0  0  0
 20 19  2  0  0  0  0
 21 27  2  0  0  0  0
 21 20  1  0  0  0  0
 22 21  1  0  0  0  0
 23 22  1  0  0  0  0
 24 22  2  0  0  0  0
 24 25  1  0  0  0  0
 25 26  2  0  0  0  0
 26 27  1  0  0  0  0
 27 18  1  0  0  0  0
M  END
>  <CHROM.1>
144.66678622,123.78407993,-169.90599104,-116.37648501,87.85074445,-106.24420286
4.94379955,-18.30167401,-9.14905437,0.38257363,0.83512369,-0.80741266

>  <Name>
lig.pdb

>  <RI>
0

>  <Rbt.Current_Directory>
/home/itssahil/PROJECTS/Mol_Feturizer/New_Systems/rnas/4b5r

>  <Rbt.Executable>
rbdock ($Id: //depot/dev/client3/rdock/2013.1/src/exe/rbdock.cxx#4 $)

>  <Rbt.Library>
libRbt.so (2013.1, Build901 2013/11/27)

>  <Rbt.Parameter_File>
/export/apps/rDock/src/rDock_2013.1_src/data/scripts/dock_solv.prm

>  <Rbt.Receptor>
prm/pocket_docking_8.prm

>  <SCORE>
-13.773

>  <SCORE.INTER>
-15.6942

>  <SCORE.INTER.CONST>
1

>  <SCORE.INTER.POLAR>
0

>  <SCORE.INTER.ROT>
6

>  <SCORE.INTER.SOLV>
11.8407

>  <SCORE.INTER.VDW>
-22.0097

>  <SCORE.INTER.norm>
-0.581267

>  <SCORE.INTRA>
1.92118

>  <SCORE.INTRA.DIHEDRAL>
3.91544

>  <SCORE.INTRA.DIHEDRAL.0>
10.2917

>  <SCORE.INTRA.POLAR>
0

>  <SCORE.INTRA.POLAR.0>
0

>  <SCORE.INTRA.REPUL>
0

>  <SCORE.INTRA.REPUL.0>
0

>  <SCORE.INTRA.SOLV>
-2.77413

>  <SCORE.INTRA.SOLV.lig_0>
-39.6315

>  <SCORE.INTRA.VDW>
1.35053

>  <SCORE.INTRA.VDW.0>
-4.02152

>  <SCORE.INTRA.norm>
0.071155

>  <SCORE.RESTR>
0

>  <SCORE.RESTR.CAVITY>
0

>  <SCORE.RESTR.norm>
0

>  <SCORE.SYSTEM>
0

>  <SCORE.SYSTEM.CONST>
0

>  <SCORE.SYSTEM.DIHEDRAL>
0

>  <SCORE.SYSTEM.SOLV>
0

>  <SCORE.SYSTEM.norm>
0

>  <SCORE.heavy>
27

>  <SCORE.norm>
-0.510112

>  <RMSD>
4.544

$$$$
lig.pdb
 OpenBabel11021811493D
libRbt.so/2013.1/901 2013/11/27
 27 29  0  0  0  0  0  0  0  0999 V2000
    5.9221  -14.0730  -10.6034 N   0  0  0  0  0  0  0  0  0  0  0  0
    6.7910  -14.9960   -9.8115 C   0  0  2  0  0  0  0  0  0  0  0  0
    7.4082  -16.0288  -10.7499 C   0  0  0  0  0  0  0  0  0  0  0  0
    6.7805  -17.0435  -11.0289 O   0  0  0  0  0  0  0  0  0  0  0  0
    8.5330  -15.8940  -11.2486 O   0  0  0  0  0  0  0  0  0  0  0  0
    6.0665  -15.6629   -8.6248 C   0  0  0  0  0  0  0  0  0  0  0  0
    6.8277  -15.6995   -7.2736 C   0  0  0  0  0  0  0  0  0  0  0  0
    6.0204  -16.4889   -5.8146 S   0  0  2  0  0  0  0  0  0  0  0  0
    7.2398  -16.1799   -4.5196 C   0  0  0  0  0  0  0  0  0  0  0  0
    6.2975  -18.2538   -6.0793 C   0  0  0  0  0  0  0  0  0  0  0  0
    5.1309  -18.8452   -6.8595 C   0  0  1  0  0  0  0  0  0  0  0  0
    3.8734  -18.3611   -6.4126 O   0  0  0  0  0  0  0  0  0  0  0  0
    5.1555  -18.4886   -8.3215 C   0  0  1  0  0  0  0  0  0  0  0  0
    6.0766  -19.2944   -8.9986 O   0  0  0  0  0  0  0  0  0  0  0  0
    3.7206  -18.7780   -8.7030 C   0  0  1  0  0  0  0  0  0  0  0  0
    3.5518  -20.1587   -8.9521 O   0  0  0  0  0  0  0  0  0  0  0  0
    2.9218  -18.3977   -7.4613 C   0  0  2  0  0  0  0  0  0  0  0  0
    2.1669  -17.1187   -7.5641 N   0  0  0  0  0  0  0  0  0  0  0  0
    0.9305  -16.9716   -8.1408 C   0  0  0  0  0  0  0  0  0  0  0  0
    0.5518  -15.6768   -8.0546 N   0  0  0  0  0  0  0  0  0  0  0  0
    1.5172  -14.9872   -7.4250 C   0  0  0  0  0  0  0  0  0  0  0  0
    1.6281  -13.6503   -7.0741 C   0  0  0  0  0  0  0  0  0  0  0  0
    0.6535  -12.7985   -7.3640 N   0  0  0  0  0  0  0  0  0  0  0  0
    2.7618  -13.2190   -6.4143 N   0  0  0  0  0  0  0  0  0  0  0  0
    3.7859  -14.1019   -6.0959 C   0  0  0  0  0  0  0  0  0  0  0  0
    3.6552  -15.4299   -6.4480 N   0  0  0  0  0  0  0  0  0  0  0  0
    2.5451  -15.8718   -7.1079 C   0  0  0  0  0  0  0  0  0  0  0  0
  2  3  1  6  0  0  0
  2  6  1  0  0  0  0
  2  1  1  0  0  0  0
  4  3  2  0  0  0  0
  5  3  1  0  0  0  0
  6  7  2  0  0  0  0
  8  7  1  6  0  0  0
  8  9  1  0  0  0  0
  8 10  1  0  0  0  0
 11 10  1  1  0  0  0
 11 13  1  0  0  0  0
 12 11  1  0  0  0  0
 12 17  1  0  0  0  0
 13 14  1  6  0  0  0
 13 15  1  0  0  0  0
 15 16  1  1  0  0  0
 17 18  1  6  0  0  0
 17 15  1  0  0  0  0
 18 19  1  0  0  0  0
 20 19  2  0  0  0  0
 21 27  2  0  0  0  0
 21 20  1  0  0  0  0
 22 21  1  0  0  0  0
 23 22  1  0  0  0  0
 24 22  2  0  0  0  0
 24 25  1  0  0  0  0
 25 26  2  0  0  0  0
 26 27  1  0  0  0  0
 27 18  1  0  0  0  0
M  END
>  <CHROM.1>
-85.22297832,-135.22161682,-176.62398416,-91.06734915,-42.07672115,-157.40350241
4.52565191,-16.45134172,-7.82134018,-0.29592504,0.44630384,-0.14835899

>  <Name>
lig.pdb

>  <RI>
0

>  <Rbt.Current_Directory>
/home/itssahil/PROJECTS/Mol_Feturizer/New_Systems/rnas/4b5r

>  <Rbt.Executable>
rbdock ($Id: //depot/dev/client3/rdock/2013.1/src/exe/rbdock.cxx#4 $)

>  <Rbt.Library>
libRbt.so (2013.1, Build901 2013/11/27)

>  <Rbt.Parameter_File>
/export/apps/rDock/src/rDock_2013.1_src/data/scripts/dock_solv.prm

>  <Rbt.Receptor>
prm/pocket_docking_5.prm

>  <SCORE>
-19.6733

>  <SCORE.INTER>
-19.634

>  <SCORE.INTER.CONST>
1

>  <SCORE.INTER.POLAR>
0

>  <SCORE.INTER.ROT>
6

>  <SCORE.INTER.SOLV>
11.7489

>  <SCORE.INTER.VDW>
-24.6057

>  <SCORE.INTER.norm>
-0.727186

>  <SCORE.INTRA>
-0.0392833

>  <SCORE.INTRA.DIHEDRAL>
0.169251

>  <SCORE.INTRA.DIHEDRAL.0>
10.2917

>  <SCORE.INTRA.POLAR>
0

>  <SCORE.INTRA.POLAR.0>
0

>  <SCORE.INTRA.REPUL>
0

>  <SCORE.INTRA.REPUL.0>
0

>  <SCORE.INTRA.SOLV>
-0.766725

>  <SCORE.INTRA.SOLV.lig_0>
-39.6315

>  <SCORE.INTRA.VDW>
0.259454

>  <SCORE.INTRA.VDW.0>
-4.02152

>  <SCORE.INTRA.norm>
-0.00145494

>  <SCORE.RESTR>
0

>  <SCORE.RESTR.CAVITY>
0

>  <SCORE.RESTR.norm>
0

>  <SCORE.SYSTEM>
0

>  <SCORE.SYSTEM.CONST>
0

>  <SCORE.SYSTEM.DIHEDRAL>
0

>  <SCORE.SYSTEM.SOLV>
0

>  <SCORE.SYSTEM.norm>
0

>  <SCORE.heavy>
27

>  <SCORE.norm>
-0.728641

>  <RMSD>
4.548

$$$$
lig.pdb
 OpenBabel11021811493D
libRbt.so/2013.1/901 2013/11/27
 27 29  0  0  0  0  0  0  0  0999 V2000
    7.5006  -16.0579  -14.5316 N   0  0  0  0  0  0  0  0  0  0  0  0
    7.0136  -15.7205  -13.1594 C   0  0  2  0  0  0  0  0  0  0  0  0
    7.4855  -16.7946  -12.1838 C   0  0  0  0  0  0  0  0  0  0  0  0
    7.4042  -17.9759  -12.4997 O   0  0  0  0  0  0  0  0  0  0  0  0
    7.9496  -16.5293  -11.0675 O   0  0  0  0  0  0  0  0  0  0  0  0
    5.4888  -15.5052  -13.0788 C   0  0  0  0  0  0  0  0  0  0  0  0
    4.7125  -16.3842  -12.0633 C   0  0  0  0  0  0  0  0  0  0  0  0
    2.8843  -16.1817  -11.9211 S   0  0  2  0  0  0  0  0  0  0  0  0
    2.3903  -16.1578  -13.6575 C   0  0  0  0  0  0  0  0  0  0  0  0
    2.6806  -14.4320  -11.5223 C   0  0  0  0  0  0  0  0  0  0  0  0
    2.9638  -14.2065  -10.0430 C   0  0  1  0  0  0  0  0  0  0  0  0
    2.2587  -15.1119   -9.2074 O   0  0  0  0  0  0  0  0  0  0  0  0
    4.4069  -14.4269   -9.6765 C   0  0  1  0  0  0  0  0  0  0  0  0
    5.1718  -13.3139  -10.0398 O   0  0  0  0  0  0  0  0  0  0  0  0
    4.2900  -14.6036   -8.1787 C   0  0  1  0  0  0  0  0  0  0  0  0
    4.2295  -13.3431   -7.5428 O   0  0  0  0  0  0  0  0  0  0  0  0
    2.9558  -15.3171   -7.9914 C   0  0  2  0  0  0  0  0  0  0  0  0
    3.0559  -16.7632   -7.6519 N   0  0  0  0  0  0  0  0  0  0  0  0
    2.0385  -17.6769   -7.7661 C   0  0  0  0  0  0  0  0  0  0  0  0
    2.4854  -18.8902   -7.3716 N   0  0  0  0  0  0  0  0  0  0  0  0
    3.7750  -18.7780   -7.0132 C   0  0  0  0  0  0  0  0  0  0  0  0
    4.6961  -19.7051   -6.5499 C   0  0  0  0  0  0  0  0  0  0  0  0
    4.3477  -20.9755   -6.3942 N   0  0  0  0  0  0  0  0  0  0  0  0
    5.9808  -19.2907   -6.2591 N   0  0  0  0  0  0  0  0  0  0  0  0
    6.3621  -17.9655   -6.4267 C   0  0  0  0  0  0  0  0  0  0  0  0
    5.4332  -17.0582   -6.8943 N   0  0  0  0  0  0  0  0  0  0  0  0
    4.1566  -17.4489   -7.1788 C   0  0  0  0  0  0  0  0  0  0  0  0
  2  3  1  1  0  0  0
  2  6  1  0  0  0  0
  2  1  1  0  0  0  0
  4  3  2  0  0  0  0
  5  3  1  0  0  0  0
  6  7  2  0  0  0  0
  8  7  1  6  0  0  0
  8  9  1  0  0  0  0
  8 10  1  0  0  0  0
 11 10  1  6  0  0  0
 11 13  1  0  0  0  0
 12 11  1  0  0  0  0
 12 17  1  0  0  0  0
 13 14  1  1  0  0  0
 13 15  1  0  0  0  0
 15 16  1  1  0  0  0
 17 18  1  6  0  0  0
 17 15  1  0  0  0  0
 18 19  1  0  0  0  0
 20 19  2  0  0  0  0
 21 27  2  0  0  0  0
 21 20  1  0  0  0  0
 22 21  1  0  0  0  0
 23 22  1  0  0  0  0
 24 22  2  0  0  0  0
 24 25  1  0  0  0  0
 25 26  2  0  0  0  0
 26 27  1  0  0  0  0
 27 18  1  0  0  0  0
M  END
>  <CHROM.1>
-43.71860061,123.83614128,45.95130692,-79.14224224,-49.73230613,-43.12874202
4.52647065,-16.47501706,-9.70541835,-1.32199954,-0.65284383,2.13814492

>  <Name>
lig.pdb

>  <RI>
0

>  <Rbt.Current_Directory>
/home/itssahil/PROJECTS/Mol_Feturizer/New_Systems/rnas/4b5r

>  <Rbt.Executable>
rbdock ($Id: //depot/dev/client3/rdock/2013.1/src/exe/rbdock.cxx#4 $)

>  <Rbt.Library>
libRbt.so (2013.1, Build901 2013/11/27)

>  <Rbt.Parameter_File>
/export/apps/rDock/src/rDock_2013.1_src/data/scripts/dock_solv.prm

>  <Rbt.Receptor>
prm/pocket_docking_5.prm

>  <SCORE>
-10.2792

>  <SCORE.INTER>
-10.3228

>  <SCORE.INTER.CONST>
1

>  <SCORE.INTER.POLAR>
0

>  <SCORE.INTER.ROT>
6

>  <SCORE.INTER.SOLV>
10.9245

>  <SCORE.INTER.VDW>
-18.1234

>  <SCORE.INTER.norm>
-0.382327

>  <SCORE.INTRA>
0.0378287

>  <SCORE.INTRA.DIHEDRAL>
-0.963411

>  <SCORE.INTRA.DIHEDRAL.0>
10.2917

>  <SCORE.INTRA.POLAR>
0

>  <SCORE.INTRA.POLAR.0>
0

>  <SCORE.INTRA.REPUL>
0

>  <SCORE.INTRA.REPUL.0>
0

>  <SCORE.INTRA.SOLV>
-2.27822

>  <SCORE.INTRA.SOLV.lig_0>
-39.6315

>  <SCORE.INTRA.VDW>
1.65864

>  <SCORE.INTRA.VDW.0>
-4.02152

>  <SCORE.INTRA.norm>
0.00140106

>  <SCORE.RESTR>
0.00580022

>  <SCORE.RESTR.CAVITY>
0.00580022

>  <SCORE.RESTR.norm>
0.000214823

>  <SCORE.SYSTEM>
0

>  <SCORE.SYSTEM.CONST>
0

>  <SCORE.SYSTEM.DIHEDRAL>
0

>  <SCORE.SYSTEM.SOLV>
0

>  <SCORE.SYSTEM.norm>
0

>  <SCORE.heavy>
27

>  <SCORE.norm>
-0.380711

>  <RMSD>
4.551

$$$$
lig.pdb
 OpenBabel11021811493D
libRbt.so/2013.1/901 2013/11/27
 27 29  0  0  0  0  0  0  0  0999 V2000
    5.9797  -18.9531  -10.2361 N   0  0  0  0  0  0  0  0  0  0  0  0
    6.1557  -18.0058  -11.3787 C   0  0  2  0  0  0  0  0  0  0  0  0
    7.3444  -18.4563  -12.2225 C   0  0  0  0  0  0  0  0  0  0  0  0
    7.6284  -19.6470  -12.2796 O   0  0  0  0  0  0  0  0  0  0  0  0
    8.0525  -17.6658  -12.8594 O   0  0  0  0  0  0  0  0  0  0  0  0
    6.2876  -16.5315  -10.9463 C   0  0  0  0  0  0  0  0  0  0  0  0
    5.2338  -15.5419  -11.5092 C   0  0  0  0  0  0  0  0  0  0  0  0
    5.3381  -13.7617  -11.0366 S   0  0  2  0  0  0  0  0  0  0  0  0
    6.9957  -13.3350  -11.6109 C   0  0  0  0  0  0  0  0  0  0  0  0
    5.6361  -13.8119   -9.2560 C   0  0  0  0  0  0  0  0  0  0  0  0
    4.3273  -14.0773   -8.5239 C   0  0  1  0  0  0  0  0  0  0  0  0
    3.8473  -15.3982   -8.7241 O   0  0  0  0  0  0  0  0  0  0  0  0
    4.4520  -13.9619   -7.0284 C   0  0  1  0  0  0  0  0  0  0  0  0
    4.4459  -12.6164   -6.6468 O   0  0  0  0  0  0  0  0  0  0  0  0
    3.2133  -14.7097   -6.5871 C   0  0  1  0  0  0  0  0  0  0  0  0
    2.0849  -13.8612   -6.6469 O   0  0  0  0  0  0  0  0  0  0  0  0
    3.0569  -15.8154   -7.6251 C   0  0  2  0  0  0  0  0  0  0  0  0
    3.4377  -17.1769   -7.1589 N   0  0  0  0  0  0  0  0  0  0  0  0
    2.7049  -18.3190   -7.3631 C   0  0  0  0  0  0  0  0  0  0  0  0
    3.3514  -19.3668   -6.8051 N   0  0  0  0  0  0  0  0  0  0  0  0
    4.4923  -18.9234   -6.2521 C   0  0  0  0  0  0  0  0  0  0  0  0
    5.5110  -19.5736   -5.5724 C   0  0  0  0  0  0  0  0  0  0  0  0
    5.4542  -20.8839   -5.3738 N   0  0  0  0  0  0  0  0  0  0  0  0
    6.5870  -18.8415   -5.1109 N   0  0  0  0  0  0  0  0  0  0  0  0
    6.6642  -17.4703   -5.3201 C   0  0  0  0  0  0  0  0  0  0  0  0
    5.6436  -16.8415   -6.0038 N   0  0  0  0  0  0  0  0  0  0  0  0
    4.5685  -17.5484   -6.4596 C   0  0  0  0  0  0  0  0  0  0  0  0
  2  3  1  1  0  0  0
  2  6  1  0  0  0  0
  2  1  1  0  0  0  0
  4  3  2  0  0  0  0
  5  3  1  0  0  0  0
  6  7  2  0  0  0  0
  8  7  1  6  0  0  0
  8  9  1  0  0  0  0
  8 10  1  0  0  0  0
 11 10  1  6  0  0  0
 11 13  1  0  0  0  0
 12 11  1  0  0  0  0
 12 17  1  0  0  0  0
 13 14  1  6  0  0  0
 13 15  1  0  0  0  0
 15 16  1  6  0  0  0
 17 18  1  1  0  0  0
 17 15  1  0  0  0  0
 18 19  1  0  0  0  0
 20 19  2  0  0  0  0
 21 27  2  0  0  0  0
 21 20  1  0  0  0  0
 22 21  1  0  0  0  0
 23 22  1  0  0  0  0
 24 22  2  0  0  0  0
 24 25  1  0  0  0  0
 25 26  2  0  0  0  0
 26 27  1  0  0  0  0
 27 18  1  0  0  0  0
M  END
>  <CHROM.1>
29.64801986,-120.97964339,58.06364686,-79.11194148,69.89641228,-106.39014210
5.14927409,-16.51557549,-8.56142811,-0.80502526,-1.05797554,2.54079362

>  <Name>
lig.pdb

>  <RI>
0

>  <Rbt.Current_Directory>
/home/itssahil/PROJECTS/Mol_Feturizer/New_Systems/rnas/4b5r

>  <Rbt.Executable>
rbdock ($Id: //depot/dev/client3/rdock/2013.1/src/exe/rbdock.cxx#4 $)

>  <Rbt.Library>
libRbt.so (2013.1, Build901 2013/11/27)

>  <Rbt.Parameter_File>
/export/apps/rDock/src/rDock_2013.1_src/data/scripts/dock_solv.prm

>  <Rbt.Receptor>
prm/pocket_docking_8.prm

>  <SCORE>
-14.1002

>  <SCORE.INTER>
-13.0849

>  <SCORE.INTER.CONST>
1

>  <SCORE.INTER.POLAR>
0

>  <SCORE.INTER.ROT>
6

>  <SCORE.INTER.SOLV>
12.8934

>  <SCORE.INTER.VDW>
-20.621

>  <SCORE.INTER.norm>
-0.484624

>  <SCORE.INTRA>
-1.01574

>  <SCORE.INTRA.DIHEDRAL>
-0.987449

>  <SCORE.INTRA.DIHEDRAL.0>
10.2917

>  <SCORE.INTRA.POLAR>
0

>  <SCORE.INTRA.POLAR.0>
0

>  <SCORE.INTRA.REPUL>
0

>  <SCORE.INTRA.REPUL.0>
0

>  <SCORE.INTRA.SOLV>
-2.32325

>  <SCORE.INTRA.SOLV.lig_0>
-39.6315

>  <SCORE.INTRA.VDW>
0.639605

>  <SCORE.INTRA.VDW.0>
-4.02152

>  <SCORE.INTRA.norm>
-0.0376201

>  <SCORE.RESTR>
0.000421386

>  <SCORE.RESTR.CAVITY>
0.000421386

>  <SCORE.RESTR.norm>
1.56069e-05

>  <SCORE.SYSTEM>
0

>  <SCORE.SYSTEM.CONST>
0

>  <SCORE.SYSTEM.DIHEDRAL>
0

>  <SCORE.SYSTEM.SOLV>
0

>  <SCORE.SYSTEM.norm>
0

>  <SCORE.heavy>
27

>  <SCORE.norm>
-0.522229

>  <RMSD>
4.581

$$$$
lig.pdb
 OpenBabel11021811493D
libRbt.so/2013.1/901 2013/11/27
 27 29  0  0  0  0  0  0  0  0999 V2000
    5.4811  -17.0298  -12.2040 N   0  0  0  0  0  0  0  0  0  0  0  0
    4.7820  -17.3138  -10.9138 C   0  0  2  0  0  0  0  0  0  0  0  0
    4.9731  -16.1295   -9.9709 C   0  0  0  0  0  0  0  0  0  0  0  0
    4.0722  -15.3090   -9.8407 O   0  0  0  0  0  0  0  0  0  0  0  0
    6.0123  -15.9491   -9.3233 O   0  0  0  0  0  0  0  0  0  0  0  0
    5.2092  -18.6420  -10.2571 C   0  0  0  0  0  0  0  0  0  0  0  0
    6.5350  -19.2733  -10.7574 C   0  0  0  0  0  0  0  0  0  0  0  0
    7.1008  -20.8660  -10.0179 S   0  0  2  0  0  0  0  0  0  0  0  0
    6.4075  -22.0650  -11.1760 C   0  0  0  0  0  0  0  0  0  0  0  0
    5.9806  -21.1077   -8.6221 C   0  0  0  0  0  0  0  0  0  0  0  0
    6.4635  -20.2930   -7.4294 C   0  0  1  0  0  0  0  0  0  0  0  0
    6.4296  -18.8948   -7.6729 O   0  0  0  0  0  0  0  0  0  0  0  0
    5.6030  -20.4668   -6.2068 C   0  0  1  0  0  0  0  0  0  0  0  0
    5.9119  -21.6717   -5.5674 O   0  0  0  0  0  0  0  0  0  0  0  0
    6.0077  -19.2490   -5.4059 C   0  0  1  0  0  0  0  0  0  0  0  0
    7.2082  -19.5037   -4.7053 O   0  0  0  0  0  0  0  0  0  0  0  0
    6.2676  -18.1796   -6.4610 C   0  0  2  0  0  0  0  0  0  0  0  0
    5.2119  -17.1361   -6.5750 N   0  0  0  0  0  0  0  0  0  0  0  0
    5.3691  -15.8108   -6.2560 C   0  0  0  0  0  0  0  0  0  0  0  0
    4.2070  -15.1587   -6.4835 N   0  0  0  0  0  0  0  0  0  0  0  0
    3.3053  -16.0372   -6.9517 C   0  0  0  0  0  0  0  0  0  0  0  0
    1.9840  -15.8932   -7.3466 C   0  0  0  0  0  0  0  0  0  0  0  0
    1.3953  -14.7056   -7.2964 N   0  0  0  0  0  0  0  0  0  0  0  0
    1.2916  -16.9993   -7.7980 N   0  0  0  0  0  0  0  0  0  0  0  0
    1.8985  -18.2471   -7.8650 C   0  0  0  0  0  0  0  0  0  0  0  0
    3.2160  -18.3699   -7.4733 N   0  0  0  0  0  0  0  0  0  0  0  0
    3.9129  -17.2887   -7.0166 C   0  0  0  0  0  0  0  0  0  0  0  0
  2  3  1  1  0  0  0
  2  6  1  0  0  0  0
  2  1  1  0  0  0  0
  4  3  2  0  0  0  0
  5  3  1  0  0  0  0
  6  7  2  0  0  0  0
  8  7  1  6  0  0  0
  8  9  1  0  0  0  0
  8 10  1  0  0  0  0
 11 10  1  6  0  0  0
 11 13  1  0  0  0  0
 12 11  1  0  0  0  0
 12 17  1  0  0  0  0
 13 14  1  1  0  0  0
 13 15  1  0  0  0  0
 15 16  1  6  0  0  0
 17 18  1  6  0  0  0
 17 15  1  0  0  0  0
 18 19  1  0  0  0  0
 20 19  2  0  0  0  0
 21 27  2  0  0  0  0
 21 20  1  0  0  0  0
 22 21  1  0  0  0  0
 23 22  1  0  0  0  0
 24 22  2  0  0  0  0
 24 25  1  0  0  0  0
 25 26  2  0  0  0  0
 26 27  1  0  0  0  0
 27 18  1  0  0  0  0
M  END
>  <CHROM.1>
100.29635042,17.13612211,93.53123051,-81.83936543,64.11671939,-127.33290369
5.04726851,-18.22739925,-8.14893117,3.11756184,-0.95669442,1.73934404

>  <Name>
lig.pdb

>  <RI>
0

>  <Rbt.Current_Directory>
/home/itssahil/PROJECTS/Mol_Feturizer/New_Systems/rnas/4b5r

>  <Rbt.Executable>
rbdock ($Id: //depot/dev/client3/rdock/2013.1/src/exe/rbdock.cxx#4 $)

>  <Rbt.Library>
libRbt.so (2013.1, Build901 2013/11/27)

>  <Rbt.Parameter_File>
/export/apps/rDock/src/rDock_2013.1_src/data/scripts/dock_solv.prm

>  <Rbt.Receptor>
prm/blind_docking_60.prm

>  <SCORE>
-13.4415

>  <SCORE.INTER>
-10.4465

>  <SCORE.INTER.CONST>
1

>  <SCORE.INTER.POLAR>
0

>  <SCORE.INTER.ROT>
6

>  <SCORE.INTER.SOLV>
9.05421

>  <SCORE.INTER.VDW>
-17.5824

>  <SCORE.INTER.norm>
-0.386907

>  <SCORE.INTRA>
-2.99499

>  <SCORE.INTRA.DIHEDRAL>
-1.37993

>  <SCORE.INTRA.DIHEDRAL.0>
10.2917

>  <SCORE.INTRA.POLAR>
0

>  <SCORE.INTRA.POLAR.0>
0

>  <SCORE.INTRA.REPUL>
0

>  <SCORE.INTRA.REPUL.0>
0

>  <SCORE.INTRA.SOLV>
-0.285813

>  <SCORE.INTRA.SOLV.lig_0>
-39.6315

>  <SCORE.INTRA.VDW>
-2.16211

>  <SCORE.INTRA.VDW.0>
-4.02152

>  <SCORE.INTRA.norm>
-0.110925

>  <SCORE.RESTR>
0

>  <SCORE.RESTR.CAVITY>
0

>  <SCORE.RESTR.norm>
0

>  <SCORE.SYSTEM>
0

>  <SCORE.SYSTEM.CONST>
0

>  <SCORE.SYSTEM.DIHEDRAL>
0

>  <SCORE.SYSTEM.SOLV>
0

>  <SCORE.SYSTEM.norm>
0

>  <SCORE.heavy>
27

>  <SCORE.norm>
-0.497832

>  <RMSD>
4.630

$$$$
lig.pdb
 OpenBabel11021811493D
libRbt.so/2013.1/901 2013/11/27
 27 29  0  0  0  0  0  0  0  0999 V2000
    4.7108  -17.2449  -13.7483 N   0  0  0  0  0  0  0  0  0  0  0  0
    3.7859  -16.6663  -12.7267 C   0  0  2  0  0  0  0  0  0  0  0  0
    2.6406  -15.9515  -13.4377 C   0  0  0  0  0  0  0  0  0  0  0  0
    1.7120  -15.4956  -12.7808 O   0  0  0  0  0  0  0  0  0  0  0  0
    2.5983  -15.8106  -14.6666 O   0  0  0  0  0  0  0  0  0  0  0  0
    4.4870  -15.7476  -11.7058 C   0  0  0  0  0  0  0  0  0  0  0  0
    4.3473  -14.2191  -11.9311 C   0  0  0  0  0  0  0  0  0  0  0  0
    5.1674  -13.0635  -10.7498 S   0  0  2  0  0  0  0  0  0  0  0  0
    6.6588  -12.6158  -11.6635 C   0  0  0  0  0  0  0  0  0  0  0  0
    5.8875  -14.1630   -9.5111 C   0  0  0  0  0  0  0  0  0  0  0  0
    4.7832  -14.7511   -8.6427 C   0  0  1  0  0  0  0  0  0  0  0  0
    4.9851  -16.1275   -8.3598 O   0  0  0  0  0  0  0  0  0  0  0  0
    4.6968  -14.1124   -7.2825 C   0  0  1  0  0  0  0  0  0  0  0  0
    4.0371  -12.8823   -7.3688 O   0  0  0  0  0  0  0  0  0  0  0  0
    3.9039  -15.1600   -6.5328 C   0  0  1  0  0  0  0  0  0  0  0  0
    2.5234  -15.0034   -6.7913 O   0  0  0  0  0  0  0  0  0  0  0  0
    4.3730  -16.4810   -7.1322 C   0  0  2  0  0  0  0  0  0  0  0  0
    5.2897  -17.2753   -6.2690 N   0  0  0  0  0  0  0  0  0  0  0  0
    6.2525  -16.7526   -5.4427 C   0  0  0  0  0  0  0  0  0  0  0  0
    6.8923  -17.7628   -4.8123 N   0  0  0  0  0  0  0  0  0  0  0  0
    6.3543  -18.9274   -5.2099 C   0  0  0  0  0  0  0  0  0  0  0  0
    6.6280  -20.2433   -4.8693 C   0  0  0  0  0  0  0  0  0  0  0  0
    7.5819  -20.5236   -3.9911 N   0  0  0  0  0  0  0  0  0  0  0  0
    5.8917  -21.2566   -5.4505 N   0  0  0  0  0  0  0  0  0  0  0  0
    4.8834  -20.9771   -6.3643 C   0  0  0  0  0  0  0  0  0  0  0  0
    4.6215  -19.6610   -6.6866 N   0  0  0  0  0  0  0  0  0  0  0  0
    5.3452  -18.6475   -6.1280 C   0  0  0  0  0  0  0  0  0  0  0  0
  2  3  1  6  0  0  0
  2  6  1  0  0  0  0
  2  1  1  0  0  0  0
  4  3  2  0  0  0  0
  5  3  1  0  0  0  0
  6  7  2  0  0  0  0
  8  7  1  6  0  0  0
  8  9  1  0  0  0  0
  8 10  1  0  0  0  0
 11 10  1  6  0  0  0
 11 13  1  0  0  0  0
 12 11  1  0  0  0  0
 12 17  1  0  0  0  0
 13 14  1  6  0  0  0
 13 15  1  0  0  0  0
 15 16  1  6  0  0  0
 17 18  1  1  0  0  0
 17 15  1  0  0  0  0
 18 19  1  0  0  0  0
 20 19  2  0  0  0  0
 21 27  2  0  0  0  0
 21 20  1  0  0  0  0
 22 21  1  0  0  0  0
 23 22  1  0  0  0  0
 24 22  2  0  0  0  0
 24 25  1  0  0  0  0
 25 26  2  0  0  0  0
 26 27  1  0  0  0  0
 27 18  1  0  0  0  0
M  END
>  <CHROM.1>
174.30630356,101.08011869,99.88908340,-72.29205272,138.80950162,83.18105437
4.82720912,-16.33611475,-8.69672476,2.54987073,-1.28149522,-0.04208420

>  <Name>
lig.pdb

>  <RI>
0

>  <Rbt.Current_Directory>
/home/itssahil/PROJECTS/Mol_Feturizer/New_Systems/rnas/4b5r

>  <Rbt.Executable>
rbdock ($Id: //depot/dev/client3/rdock/2013.1/src/exe/rbdock.cxx#4 $)

>  <Rbt.Library>
libRbt.so (2013.1, Build901 2013/11/27)

>  <Rbt.Parameter_File>
/export/apps/rDock/src/rDock_2013.1_src/data/scripts/dock_solv.prm

>  <Rbt.Receptor>
prm/pocket_docking_6.prm

>  <SCORE>
-9.96235

>  <SCORE.INTER>
-11.6912

>  <SCORE.INTER.CONST>
1

>  <SCORE.INTER.POLAR>
0

>  <SCORE.INTER.ROT>
6

>  <SCORE.INTER.SOLV>
14.6515

>  <SCORE.INTER.VDW>
-20.2779

>  <SCORE.INTER.norm>
-0.433006

>  <SCORE.INTRA>
1.71778

>  <SCORE.INTRA.DIHEDRAL>
1.95027

>  <SCORE.INTRA.DIHEDRAL.0>
10.2917

>  <SCORE.INTRA.POLAR>
0

>  <SCORE.INTRA.POLAR.0>
0

>  <SCORE.INTRA.REPUL>
0

>  <SCORE.INTRA.REPUL.0>
0

>  <SCORE.INTRA.SOLV>
-2.97936

>  <SCORE.INTRA.SOLV.lig_0>
-39.6315

>  <SCORE.INTRA.VDW>
2.23233

>  <SCORE.INTRA.VDW.0>
-4.02152

>  <SCORE.INTRA.norm>
0.0636214

>  <SCORE.RESTR>
0.0110397

>  <SCORE.RESTR.CAVITY>
0.0110397

>  <SCORE.RESTR.norm>
0.00040888

>  <SCORE.SYSTEM>
0

>  <SCORE.SYSTEM.CONST>
0

>  <SCORE.SYSTEM.DIHEDRAL>
0

>  <SCORE.SYSTEM.SOLV>
0

>  <SCORE.SYSTEM.norm>
0

>  <SCORE.heavy>
27

>  <SCORE.norm>
-0.368976

>  <RMSD>
4.642

$$$$
lig.pdb
 OpenBabel11021811493D
libRbt.so/2013.1/901 2013/11/27
 27 29  0  0  0  0  0  0  0  0999 V2000
    7.2068  -15.5132  -12.5187 N   0  0  0  0  0  0  0  0  0  0  0  0
    6.7614  -16.9021  -12.8454 C   0  0  2  0  0  0  0  0  0  0  0  0
    7.1827  -17.2389  -14.2727 C   0  0  0  0  0  0  0  0  0  0  0  0
    6.7587  -18.2589  -14.8034 O   0  0  0  0  0  0  0  0  0  0  0  0
    7.9488  -16.5244  -14.9320 O   0  0  0  0  0  0  0  0  0  0  0  0
    5.2536  -17.1373  -12.6240 C   0  0  0  0  0  0  0  0  0  0  0  0
    4.4759  -16.0232  -11.8753 C   0  0  0  0  0  0  0  0  0  0  0  0
    2.6697  -16.2444  -11.5714 S   0  0  2  0  0  0  0  0  0  0  0  0
    2.0345  -16.3620  -13.2573 C   0  0  0  0  0  0  0  0  0  0  0  0
    2.1038  -14.5825  -11.1478 C   0  0  0  0  0  0  0  0  0  0  0  0
    2.4992  -14.2557   -9.7138 C   0  0  1  0  0  0  0  0  0  0  0  0
    1.9906  -15.1953   -8.7790 O   0  0  0  0  0  0  0  0  0  0  0  0
    3.9867  -14.2911   -9.4875 C   0  0  1  0  0  0  0  0  0  0  0  0
    4.5751  -13.1161   -9.9663 O   0  0  0  0  0  0  0  0  0  0  0  0
    4.0365  -14.4085   -7.9802 C   0  0  1  0  0  0  0  0  0  0  0  0
    3.8878  -13.1344   -7.3873 O   0  0  0  0  0  0  0  0  0  0  0  0
    2.8210  -15.2609   -7.6333 C   0  0  2  0  0  0  0  0  0  0  0  0
    3.1248  -16.6680   -7.2538 N   0  0  0  0  0  0  0  0  0  0  0  0
    2.2904  -17.7398   -7.4487 C   0  0  0  0  0  0  0  0  0  0  0  0
    2.8901  -18.8591   -6.9850 N   0  0  0  0  0  0  0  0  0  0  0  0
    4.0997  -18.5307   -6.5024 C   0  0  0  0  0  0  0  0  0  0  0  0
    5.1099  -19.2881   -5.9293 C   0  0  0  0  0  0  0  0  0  0  0  0
    4.9634  -20.5981   -5.7812 N   0  0  0  0  0  0  0  0  0  0  0  0
    6.2715  -18.6629   -5.5211 N   0  0  0  0  0  0  0  0  0  0  0  0
    6.4424  -17.2934   -5.6789 C   0  0  0  0  0  0  0  0  0  0  0  0
    5.4283  -16.5569   -6.2567 N   0  0  0  0  0  0  0  0  0  0  0  0
    4.2701  -17.1573   -6.6583 C   0  0  0  0  0  0  0  0  0  0  0  0
  2  3  1  6  0  0  0
  2  6  1  0  0  0  0
  2  1  1  0  0  0  0
  4  3  2  0  0  0  0
  5  3  1  0  0  0  0
  6  7  2  0  0  0  0
  8  7  1  6  0  0  0
  8  9  1  0  0  0  0
  8 10  1  0  0  0  0
 11 10  1  6  0  0  0
 11 13  1  0  0  0  0
 12 11  1  0  0  0  0
 12 17  1  0  0  0  0
 13 14  1  1  0  0  0
 13 15  1  0  0  0  0
 15 16  1  1  0  0  0
 17 18  1  6  0  0  0
 17 15  1  0  0  0  0
 18 19  1  0  0  0  0
 20 19  2  0  0  0  0
 21 27  2  0  0  0  0
 21 20  1  0  0  0  0
 22 21  1  0  0  0  0
 23 22  1  0  0  0  0
 24 22  2  0  0  0  0
 24 25  1  0  0  0  0
 25 26  2  0  0  0  0
 26 27  1  0  0  0  0
 27 18  1  0  0  0  0
M  END
>  <CHROM.1>
-170.09531692,-10.47785117,-60.89456983,-77.11493197,-57.09308736,-31.17432744
4.39865688,-16.44794282,-9.61212744,-1.27859600,-0.79729069,1.92743261

>  <Name>
lig.pdb

>  <RI>
0

>  <Rbt.Current_Directory>
/home/itssahil/PROJECTS/Mol_Feturizer/New_Systems/rnas/4b5r

>  <Rbt.Executable>
rbdock ($Id: //depot/dev/client3/rdock/2013.1/src/exe/rbdock.cxx#4 $)

>  <Rbt.Library>
libRbt.so (2013.1, Build901 2013/11/27)

>  <Rbt.Parameter_File>
/export/apps/rDock/src/rDock_2013.1_src/data/scripts/dock_solv.prm

>  <Rbt.Receptor>
prm/pocket_docking_7.prm

>  <SCORE>
-12.9842

>  <SCORE.INTER>
-12.5952

>  <SCORE.INTER.CONST>
1

>  <SCORE.INTER.POLAR>
0

>  <SCORE.INTER.ROT>
6

>  <SCORE.INTER.SOLV>
12.4135

>  <SCORE.INTER.VDW>
-20.1346

>  <SCORE.INTER.norm>
-0.466489

>  <SCORE.INTRA>
-0.38903

>  <SCORE.INTRA.DIHEDRAL>
-2.81667

>  <SCORE.INTRA.DIHEDRAL.0>
10.2917

>  <SCORE.INTRA.POLAR>
0

>  <SCORE.INTRA.POLAR.0>
0

>  <SCORE.INTRA.REPUL>
0

>  <SCORE.INTRA.REPUL.0>
0

>  <SCORE.INTRA.SOLV>
-2.02449

>  <SCORE.INTRA.SOLV.lig_0>
-39.6315

>  <SCORE.INTRA.VDW>
2.03155

>  <SCORE.INTRA.VDW.0>
-4.02152

>  <SCORE.INTRA.norm>
-0.0144085

>  <SCORE.RESTR>
0

>  <SCORE.RESTR.CAVITY>
0

>  <SCORE.RESTR.norm>
0

>  <SCORE.SYSTEM>
0

>  <SCORE.SYSTEM.CONST>
0

>  <SCORE.SYSTEM.DIHEDRAL>
0

>  <SCORE.SYSTEM.SOLV>
0

>  <SCORE.SYSTEM.norm>
0

>  <SCORE.heavy>
27

>  <SCORE.norm>
-0.480898

>  <RMSD>
4.655

$$$$
lig.pdb
 OpenBabel11021811493D
libRbt.so/2013.1/901 2013/11/27
 27 29  0  0  0  0  0  0  0  0999 V2000
    4.0523  -17.2752  -12.4700 N   0  0  0  0  0  0  0  0  0  0  0  0
    2.5661  -17.3982  -12.3695 C   0  0  2  0  0  0  0  0  0  0  0  0
    1.9179  -16.2090  -13.0721 C   0  0  0  0  0  0  0  0  0  0  0  0
    2.2366  -15.0701  -12.7511 O   0  0  0  0  0  0  0  0  0  0  0  0
    1.0675  -16.3380  -13.9621 O   0  0  0  0  0  0  0  0  0  0  0  0
    2.0539  -17.5565  -10.9237 C   0  0  0  0  0  0  0  0  0  0  0  0
    1.4055  -16.3069  -10.2721 C   0  0  0  0  0  0  0  0  0  0  0  0
    0.7777  -16.4261   -8.5415 S   0  0  2  0  0  0  0  0  0  0  0  0
   -0.9709  -16.7801   -8.8182 C   0  0  0  0  0  0  0  0  0  0  0  0
    0.6599  -14.7032   -8.0129 C   0  0  0  0  0  0  0  0  0  0  0  0
    2.0442  -14.1816   -7.6508 C   0  0  1  0  0  0  0  0  0  0  0  0
    2.5777  -14.8059   -6.4928 O   0  0  0  0  0  0  0  0  0  0  0  0
    3.0751  -14.4523   -8.7135 C   0  0  1  0  0  0  0  0  0  0  0  0
    2.9483  -13.5270   -9.7546 O   0  0  0  0  0  0  0  0  0  0  0  0
    4.3490  -14.2784   -7.9166 C   0  0  1  0  0  0  0  0  0  0  0  0
    4.6800  -12.9079   -7.8202 O   0  0  0  0  0  0  0  0  0  0  0  0
    3.9938  -14.8007   -6.5290 C   0  0  2  0  0  0  0  0  0  0  0  0
    4.5576  -16.1373   -6.1946 N   0  0  0  0  0  0  0  0  0  0  0  0
    5.5577  -16.3712   -5.2845 C   0  0  0  0  0  0  0  0  0  0  0  0
    5.8141  -17.6976   -5.2381 N   0  0  0  0  0  0  0  0  0  0  0  0
    4.9919  -18.3251   -6.0950 C   0  0  0  0  0  0  0  0  0  0  0  0
    4.8344  -19.6631   -6.4227 C   0  0  0  0  0  0  0  0  0  0  0  0
    5.5842  -20.5886   -5.8389 N   0  0  0  0  0  0  0  0  0  0  0  0
    3.8840  -20.0199   -7.3587 N   0  0  0  0  0  0  0  0  0  0  0  0
    3.0852  -19.0622   -7.9707 C   0  0  0  0  0  0  0  0  0  0  0  0
    3.2524  -17.7360   -7.6275 N   0  0  0  0  0  0  0  0  0  0  0  0
    4.1929  -17.3648   -6.7105 C   0  0  0  0  0  0  0  0  0  0  0  0
  2  3  1  1  0  0  0
  2  6  1  0  0  0  0
  2  1  1  0  0  0  0
  4  3  2  0  0  0  0
  5  3  1  0  0  0  0
  6  7  2  0  0  0  0
  8  7  1  6  0  0  0
  8  9  1  0  0  0  0
  8 10  1  0  0  0  0
 11 10  1  6  0  0  0
 11 13  1  0  0  0  0
 12 11  1  0  0  0  0
 12 17  1  0  0  0  0
 13 14  1  6  0  0  0
 13 15  1  0  0  0  0
 15 16  1  1  0  0  0
 17 18  1  6  0  0  0
 17 15  1  0  0  0  0
 18 19  1  0  0  0  0
 20 19  2  0  0  0  0
 21 27  2  0  0  0  0
 21 20  1  0  0  0  0
 22 21  1  0  0  0  0
 23 22  1  0  0  0  0
 24 22  2  0  0  0  0
 24 25  1  0  0  0  0
 25 26  2  0  0  0  0
 26 27  1  0  0  0  0
 27 18  1  0  0  0  0
M  END
>  <CHROM.1>
-54.36026621,103.92359508,-95.78458542,-78.16631344,-67.32205576,-130.98934779
3.00636751,-16.44618520,-8.59790485,-3.04078967,-1.08805607,0.42380733

>  <Name>
lig.pdb

>  <RI>
0

>  <Rbt.Current_Directory>
/home/itssahil/PROJECTS/Mol_Feturizer/New_Systems/rnas/4b5r

>  <Rbt.Executable>
rbdock ($Id: //depot/dev/client3/rdock/2013.1/src/exe/rbdock.cxx#4 $)

>  <Rbt.Library>
libRbt.so (2013.1, Build901 2013/11/27)

>  <Rbt.Parameter_File>
/export/apps/rDock/src/rDock_2013.1_src/data/scripts/dock_solv.prm

>  <Rbt.Receptor>
prm/pocket_docking_7.prm

>  <SCORE>
-17.5613

>  <SCORE.INTER>
-16.9604

>  <SCORE.INTER.CONST>
1

>  <SCORE.INTER.POLAR>
0

>  <SCORE.INTER.ROT>
6

>  <SCORE.INTER.SOLV>
14.7656

>  <SCORE.INTER.VDW>
-23.8288

>  <SCORE.INTER.norm>
-0.628164

>  <SCORE.INTRA>
-0.600903

>  <SCORE.INTRA.DIHEDRAL>
-1.33391

>  <SCORE.INTRA.DIHEDRAL.0>
10.2917

>  <SCORE.INTRA.POLAR>
0

>  <SCORE.INTRA.POLAR.0>
0

>  <SCORE.INTRA.REPUL>
0

>  <SCORE.INTRA.REPUL.0>
0

>  <SCORE.INTRA.SOLV>
-0.990857

>  <SCORE.INTRA.SOLV.lig_0>
-39.6315

>  <SCORE.INTRA.VDW>
0.561481

>  <SCORE.INTRA.VDW.0>
-4.02152

>  <SCORE.INTRA.norm>
-0.0222557

>  <SCORE.RESTR>
0

>  <SCORE.RESTR.CAVITY>
0

>  <SCORE.RESTR.norm>
0

>  <SCORE.SYSTEM>
0

>  <SCORE.SYSTEM.CONST>
0

>  <SCORE.SYSTEM.DIHEDRAL>
0

>  <SCORE.SYSTEM.SOLV>
0

>  <SCORE.SYSTEM.norm>
0

>  <SCORE.heavy>
27

>  <SCORE.norm>
-0.65042

>  <RMSD>
4.659

$$$$
lig.pdb
 OpenBabel11021811493D
libRbt.so/2013.1/901 2013/11/27
 27 29  0  0  0  0  0  0  0  0999 V2000
    7.0048  -15.7336  -12.5670 N   0  0  0  0  0  0  0  0  0  0  0  0
    6.5532  -17.1578  -12.6052 C   0  0  2  0  0  0  0  0  0  0  0  0
    6.9593  -17.7749  -13.9402 C   0  0  0  0  0  0  0  0  0  0  0  0
    6.6749  -17.1989  -14.9838 O   0  0  0  0  0  0  0  0  0  0  0  0
    7.5677  -18.8494  -14.0248 O   0  0  0  0  0  0  0  0  0  0  0  0
    5.0472  -17.3378  -12.3269 C   0  0  0  0  0  0  0  0  0  0  0  0
    4.2743  -16.0868  -11.8329 C   0  0  0  0  0  0  0  0  0  0  0  0
    2.4705  -16.2349  -11.4750 S   0  0  2  0  0  0  0  0  0  0  0  0
    1.7797  -16.3125  -13.1412 C   0  0  0  0  0  0  0  0  0  0  0  0
    1.9879  -14.5543  -11.0231 C   0  0  0  0  0  0  0  0  0  0  0  0
    2.4542  -14.2500   -9.6055 C   0  0  1  0  0  0  0  0  0  0  0  0
    1.9808  -15.1967   -8.6595 O   0  0  0  0  0  0  0  0  0  0  0  0
    3.9504  -14.3030   -9.4507 C   0  0  1  0  0  0  0  0  0  0  0  0
    4.5276  -13.1277   -9.9420 O   0  0  0  0  0  0  0  0  0  0  0  0
    4.0703  -14.4404   -7.9490 C   0  0  1  0  0  0  0  0  0  0  0  0
    3.9631  -13.1727   -7.3337 O   0  0  0  0  0  0  0  0  0  0  0  0
    2.8638  -15.2853   -7.5554 C   0  0  2  0  0  0  0  0  0  0  0  0
    3.1705  -16.7001   -7.2084 N   0  0  0  0  0  0  0  0  0  0  0  0
    2.3473  -17.7717   -7.4471 C   0  0  0  0  0  0  0  0  0  0  0  0
    2.9464  -18.8992   -7.0029 N   0  0  0  0  0  0  0  0  0  0  0  0
    4.1449  -18.5761   -6.4899 C   0  0  0  0  0  0  0  0  0  0  0  0
    5.1499  -19.3421   -5.9192 C   0  0  0  0  0  0  0  0  0  0  0  0
    5.0099  -20.6566   -5.8090 N   0  0  0  0  0  0  0  0  0  0  0  0
    6.2996  -18.7206   -5.4734 N   0  0  0  0  0  0  0  0  0  0  0  0
    6.4637  -17.3462   -5.5913 C   0  0  0  0  0  0  0  0  0  0  0  0
    5.4550  -16.6010   -6.1672 N   0  0  0  0  0  0  0  0  0  0  0  0
    4.3084  -17.1979   -6.6057 C   0  0  0  0  0  0  0  0  0  0  0  0
  2  3  1  6  0  0  0
  2  6  1  0  0  0  0
  2  1  1  0  0  0  0
  4  3  2  0  0  0  0
  5  3  1  0  0  0  0
  6  7  2  0  0  0  0
  8  7  1  6  0  0  0
  8  9  1  0  0  0  0
  8 10  1  0  0  0  0
 11 10  1  6  0  0  0
 11 13  1  0  0  0  0
 12 11  1  0  0  0  0
 12 17  1  0  0  0  0
 13 14  1  1  0  0  0
 13 15  1  0  0  0  0
 15 16  1  1  0  0  0
 17 18  1  6  0  0  0
 17 15  1  0  0  0  0
 18 19  1  0  0  0  0
 20 19  2  0  0  0  0
 21 27  2  0  0  0  0
 21 20  1  0  0  0  0
 22 21  1  0  0  0  0
 23 22  1  0  0  0  0
 24 22  2  0  0  0  0
 24 25  1  0  0  0  0
 25 26  2  0  0  0  0
 26 27  1  0  0  0  0
 27 18  1  0  0  0  0
M  END
>  <CHROM.1>
-50.98488932,-9.42022485,-74.16308339,-76.47210418,-55.31929187,-27.21738149
4.32888590,-16.55747784,-9.51086858,-1.34720289,-0.84673025,1.85291956

>  <Name>
lig.pdb

>  <RI>
0

>  <Rbt.Current_Directory>
/home/itssahil/PROJECTS/Mol_Feturizer/New_Systems/rnas/4b5r

>  <Rbt.Executable>
rbdock ($Id: //depot/dev/client3/rdock/2013.1/src/exe/rbdock.cxx#4 $)

>  <Rbt.Library>
libRbt.so (2013.1, Build901 2013/11/27)

>  <Rbt.Parameter_File>
/export/apps/rDock/src/rDock_2013.1_src/data/scripts/dock_solv.prm

>  <Rbt.Receptor>
prm/pocket_docking_8.prm

>  <SCORE>
-13.5279

>  <SCORE.INTER>
-12.9603

>  <SCORE.INTER.CONST>
1

>  <SCORE.INTER.POLAR>
0

>  <SCORE.INTER.ROT>
6

>  <SCORE.INTER.SOLV>
11.9585

>  <SCORE.INTER.VDW>
-20.2264

>  <SCORE.INTER.norm>
-0.480011

>  <SCORE.INTRA>
-0.567611

>  <SCORE.INTRA.DIHEDRAL>
-2.48296

>  <SCORE.INTRA.DIHEDRAL.0>
10.2917

>  <SCORE.INTRA.POLAR>
0

>  <SCORE.INTRA.POLAR.0>
0

>  <SCORE.INTRA.REPUL>
0

>  <SCORE.INTRA.REPUL.0>
0

>  <SCORE.INTRA.SOLV>
-1.92067

>  <SCORE.INTRA.SOLV.lig_0>
-39.6315

>  <SCORE.INTRA.VDW>
1.6342

>  <SCORE.INTRA.VDW.0>
-4.02152

>  <SCORE.INTRA.norm>
-0.0210226

>  <SCORE.RESTR>
0

>  <SCORE.RESTR.CAVITY>
0

>  <SCORE.RESTR.norm>
0

>  <SCORE.SYSTEM>
0

>  <SCORE.SYSTEM.CONST>
0

>  <SCORE.SYSTEM.DIHEDRAL>
0

>  <SCORE.SYSTEM.SOLV>
0

>  <SCORE.SYSTEM.norm>
0

>  <SCORE.heavy>
27

>  <SCORE.norm>
-0.501034

>  <RMSD>
4.672

$$$$
lig.pdb
 OpenBabel11021811493D
libRbt.so/2013.1/901 2013/11/27
 27 29  0  0  0  0  0  0  0  0999 V2000
    4.2549  -14.9377  -13.3877 N   0  0  0  0  0  0  0  0  0  0  0  0
    3.7371  -14.1481  -12.2291 C   0  0  2  0  0  0  0  0  0  0  0  0
    4.7559  -13.0731  -11.8622 C   0  0  0  0  0  0  0  0  0  0  0  0
    5.7797  -13.3886  -11.2671 O   0  0  0  0  0  0  0  0  0  0  0  0
    4.5958  -11.8766  -12.1351 O   0  0  0  0  0  0  0  0  0  0  0  0
    3.3551  -15.0131  -11.0111 C   0  0  0  0  0  0  0  0  0  0  0  0
    1.9008  -14.8789  -10.4881 C   0  0  0  0  0  0  0  0  0  0  0  0
    1.3801  -15.8811   -9.0294 S   0  0  2  0  0  0  0  0  0  0  0  0
   -0.3880  -15.5224   -8.9608 C   0  0  0  0  0  0  0  0  0  0  0  0
    1.9443  -14.9037   -7.6194 C   0  0  0  0  0  0  0  0  0  0  0  0
    3.2355  -15.4945   -7.0690 C   0  0  1  0  0  0  0  0  0  0  0  0
    3.1115  -16.8707   -6.7433 O   0  0  0  0  0  0  0  0  0  0  0  0
    4.3707  -15.4588   -8.0567 C   0  0  1  0  0  0  0  0  0  0  0  0
    4.9252  -14.1759   -8.1073 O   0  0  0  0  0  0  0  0  0  0  0  0
    5.3015  -16.4844   -7.4484 C   0  0  1  0  0  0  0  0  0  0  0  0
    6.0656  -15.8965   -6.4151 O   0  0  0  0  0  0  0  0  0  0  0  0
    4.3649  -17.5232   -6.8417 C   0  0  2  0  0  0  0  0  0  0  0  0
    4.2625  -18.7999   -7.6006 N   0  0  0  0  0  0  0  0  0  0  0  0
    4.6569  -20.0306   -7.1393 C   0  0  0  0  0  0  0  0  0  0  0  0
    4.4162  -20.9595   -8.0914 N   0  0  0  0  0  0  0  0  0  0  0  0
    3.8656  -20.3522   -9.1554 C   0  0  0  0  0  0  0  0  0  0  0  0
    3.4246  -20.8357  -10.3779 C   0  0  0  0  0  0  0  0  0  0  0  0
    3.5129  -22.1293  -10.6580 N   0  0  0  0  0  0  0  0  0  0  0  0
    2.8875  -19.9554  -11.2962 N   0  0  0  0  0  0  0  0  0  0  0  0
    2.7801  -18.5998  -11.0124 C   0  0  0  0  0  0  0  0  0  0  0  0
    3.2189  -18.1379   -9.7882 N   0  0  0  0  0  0  0  0  0  0  0  0
    3.7602  -18.9927   -8.8719 C   0  0  0  0  0  0  0  0  0  0  0  0
  2  3  1  1  0  0  0
  2  6  1  0  0  0  0
  2  1  1  0  0  0  0
  4  3  2  0  0  0  0
  5  3  1  0  0  0  0
  6  7  2  0  0  0  0
  8  7  1  6  0  0  0
  8  9  1  0  0  0  0
  8 10  1  0  0  0  0
 11 10  1  6  0  0  0
 11 13  1  0  0  0  0
 12 11  1  0  0  0  0
 12 17  1  0  0  0  0
 13 14  1  1  0  0  0
 13 15  1  0  0  0  0
 15 16  1  1  0  0  0
 17 18  1  6  0  0  0
 17 15  1  0  0  0  0
 18 19  1  0  0  0  0
 20 19  2  0  0  0  0
 21 27  2  0  0  0  0
 21 20  1  0  0  0  0
 22 21  1  0  0  0  0
 23 22  1  0  0  0  0
 24 22  2  0  0  0  0
 24 25  1  0  0  0  0
 25 26  2  0  0  0  0
 26 27  1  0  0  0  0
 27 18  1  0  0  0  0
M  END
>  <CHROM.1>
-75.16427695,-123.47406669,-173.45666812,-101.21561287,-54.66512574,-124.59222197
3.59099379,-16.69776564,-9.32362204,1.37663613,-1.41152891,-0.51108808

>  <Name>
lig.pdb

>  <RI>
0

>  <Rbt.Current_Directory>
/home/itssahil/PROJECTS/Mol_Feturizer/New_Systems/rnas/4b5r

>  <Rbt.Executable>
rbdock ($Id: //depot/dev/client3/rdock/2013.1/src/exe/rbdock.cxx#4 $)

>  <Rbt.Library>
libRbt.so (2013.1, Build901 2013/11/27)

>  <Rbt.Parameter_File>
/export/apps/rDock/src/rDock_2013.1_src/data/scripts/dock_solv.prm

>  <Rbt.Receptor>
prm/pocket_docking_7.prm

>  <SCORE>
-15.1354

>  <SCORE.INTER>
-13.6066

>  <SCORE.INTER.CONST>
1

>  <SCORE.INTER.POLAR>
0

>  <SCORE.INTER.ROT>
6

>  <SCORE.INTER.SOLV>
12.6892

>  <SCORE.INTER.VDW>
-20.9008

>  <SCORE.INTER.norm>
-0.503948

>  <SCORE.INTRA>
-1.5288

>  <SCORE.INTRA.DIHEDRAL>
0.0971688

>  <SCORE.INTRA.DIHEDRAL.0>
10.2917

>  <SCORE.INTRA.POLAR>
0

>  <SCORE.INTRA.POLAR.0>
0

>  <SCORE.INTRA.REPUL>
0

>  <SCORE.INTRA.REPUL.0>
0

>  <SCORE.INTRA.SOLV>
-1.11039

>  <SCORE.INTRA.SOLV.lig_0>
-39.6315

>  <SCORE.INTRA.VDW>
-1.02219

>  <SCORE.INTRA.VDW.0>
-4.02152

>  <SCORE.INTRA.norm>
-0.0566222

>  <SCORE.RESTR>
0

>  <SCORE.RESTR.CAVITY>
0

>  <SCORE.RESTR.norm>
0

>  <SCORE.SYSTEM>
0

>  <SCORE.SYSTEM.CONST>
0

>  <SCORE.SYSTEM.DIHEDRAL>
0

>  <SCORE.SYSTEM.SOLV>
0

>  <SCORE.SYSTEM.norm>
0

>  <SCORE.heavy>
27

>  <SCORE.norm>
-0.560571

>  <RMSD>
4.689

$$$$
lig.pdb
 OpenBabel11021811493D
libRbt.so/2013.1/901 2013/11/27
 27 29  0  0  0  0  0  0  0  0999 V2000
    5.9840  -13.4780  -10.4869 N   0  0  0  0  0  0  0  0  0  0  0  0
    4.8304  -14.2072  -11.0965 C   0  0  2  0  0  0  0  0  0  0  0  0
    4.3359  -13.4311  -12.3135 C   0  0  0  0  0  0  0  0  0  0  0  0
    4.6132  -12.2428  -12.4262 O   0  0  0  0  0  0  0  0  0  0  0  0
    3.6522  -13.9484  -13.2062 O   0  0  0  0  0  0  0  0  0  0  0  0
    3.6883  -14.5006  -10.1029 C   0  0  0  0  0  0  0  0  0  0  0  0
    3.9346  -14.1115   -8.6215 C   0  0  0  0  0  0  0  0  0  0  0  0
    2.6110  -14.4413   -7.3794 S   0  0  2  0  0  0  0  0  0  0  0  0
    1.4917  -13.0552   -7.6718 C   0  0  0  0  0  0  0  0  0  0  0  0
    3.3510  -13.9114   -5.8195 C   0  0  0  0  0  0  0  0  0  0  0  0
    4.4922  -14.8491   -5.4481 C   0  0  1  0  0  0  0  0  0  0  0  0
    4.4692  -16.0587   -6.1908 O   0  0  0  0  0  0  0  0  0  0  0  0
    5.8512  -14.2721   -5.7409 C   0  0  1  0  0  0  0  0  0  0  0  0
    6.2133  -13.3617   -4.7429 O   0  0  0  0  0  0  0  0  0  0  0  0
    6.6945  -15.5279   -5.7331 C   0  0  1  0  0  0  0  0  0  0  0  0
    7.0323  -15.8796   -4.4068 O   0  0  0  0  0  0  0  0  0  0  0  0
    5.7738  -16.5976   -6.3098 C   0  0  2  0  0  0  0  0  0  0  0  0
    6.0763  -17.0022   -7.7102 N   0  0  0  0  0  0  0  0  0  0  0  0
    6.8453  -16.2873   -8.5937 C   0  0  0  0  0  0  0  0  0  0  0  0
    6.9057  -16.9528   -9.7689 N   0  0  0  0  0  0  0  0  0  0  0  0
    6.1970  -18.0883   -9.6571 C   0  0  0  0  0  0  0  0  0  0  0  0
    5.9457  -19.1199  -10.5489 C   0  0  0  0  0  0  0  0  0  0  0  0
    6.4532  -19.0851  -11.7739 N   0  0  0  0  0  0  0  0  0  0  0  0
    5.1665  -20.1855  -10.1437 N   0  0  0  0  0  0  0  0  0  0  0  0
    4.6366  -20.2396   -8.8608 C   0  0  0  0  0  0  0  0  0  0  0  0
    4.9023  -19.2064   -7.9853 N   0  0  0  0  0  0  0  0  0  0  0  0
    5.6636  -18.1414   -8.3717 C   0  0  0  0  0  0  0  0  0  0  0  0
  2  3  1  6  0  0  0
  2  6  1  0  0  0  0
  2  1  1  0  0  0  0
  4  3  2  0  0  0  0
  5  3  1  0  0  0  0
  6  7  2  0  0  0  0
  8  7  1  6  0  0  0
  8  9  1  0  0  0  0
  8 10  1  0  0  0  0
 11 10  1  6  0  0  0
 11 13  1  0  0  0  0
 12 11  1  0  0  0  0
 12 17  1  0  0  0  0
 13 14  1  1  0  0  0
 13 15  1  0  0  0  0
 15 16  1  1  0  0  0
 17 18  1  6  0  0  0
 17 15  1  0  0  0  0
 18 19  1  0  0  0  0
 20 19  2  0  0  0  0
 21 27  2  0  0  0  0
 21 20  1  0  0  0  0
 22 21  1  0  0  0  0
 23 22  1  0  0  0  0
 24 22  2  0  0  0  0
 24 25  1  0  0  0  0
 25 26  2  0  0  0  0
 26 27  1  0  0  0  0
 27 18  1  0  0  0  0
M  END
>  <CHROM.1>
-20.14867511,-4.66995711,-79.47234321,-68.01655380,-15.28412918,102.06132565
4.97068110,-15.72382691,-8.47579883,1.46721275,1.18982981,-1.80474191

>  <Name>
lig.pdb

>  <RI>
0

>  <Rbt.Current_Directory>
/home/itssahil/PROJECTS/Mol_Feturizer/New_Systems/rnas/4b5r

>  <Rbt.Executable>
rbdock ($Id: //depot/dev/client3/rdock/2013.1/src/exe/rbdock.cxx#4 $)

>  <Rbt.Library>
libRbt.so (2013.1, Build901 2013/11/27)

>  <Rbt.Parameter_File>
/export/apps/rDock/src/rDock_2013.1_src/data/scripts/dock_solv.prm

>  <Rbt.Receptor>
prm/pocket_docking_5.prm

>  <SCORE>
-10.5031

>  <SCORE.INTER>
-12.0972

>  <SCORE.INTER.CONST>
1

>  <SCORE.INTER.POLAR>
0

>  <SCORE.INTER.ROT>
6

>  <SCORE.INTER.SOLV>
12.511

>  <SCORE.INTER.VDW>
-19.8352

>  <SCORE.INTER.norm>
-0.448045

>  <SCORE.INTRA>
1.58444

>  <SCORE.INTRA.DIHEDRAL>
1.72762

>  <SCORE.INTRA.DIHEDRAL.0>
10.2917

>  <SCORE.INTRA.POLAR>
0

>  <SCORE.INTRA.POLAR.0>
0

>  <SCORE.INTRA.REPUL>
0

>  <SCORE.INTRA.REPUL.0>
0

>  <SCORE.INTRA.SOLV>
-1.01396

>  <SCORE.INTRA.SOLV.lig_0>
-39.6315

>  <SCORE.INTRA.VDW>
1.2276

>  <SCORE.INTRA.VDW.0>
-4.02152

>  <SCORE.INTRA.norm>
0.0586828

>  <SCORE.RESTR>
0.00966858

>  <SCORE.RESTR.CAVITY>
0.00966858

>  <SCORE.RESTR.norm>
0.000358096

>  <SCORE.SYSTEM>
0

>  <SCORE.SYSTEM.CONST>
0

>  <SCORE.SYSTEM.DIHEDRAL>
0

>  <SCORE.SYSTEM.SOLV>
0

>  <SCORE.SYSTEM.norm>
0

>  <SCORE.heavy>
27

>  <SCORE.norm>
-0.389004

>  <RMSD>
4.693

$$$$
lig.pdb
 OpenBabel11021811493D
libRbt.so/2013.1/901 2013/11/27
 27 29  0  0  0  0  0  0  0  0999 V2000
    5.4491  -14.6046  -13.4118 N   0  0  0  0  0  0  0  0  0  0  0  0
    4.6369  -15.8581  -13.3577 C   0  0  2  0  0  0  0  0  0  0  0  0
    3.6133  -15.8392  -14.4892 C   0  0  0  0  0  0  0  0  0  0  0  0
    2.4225  -15.9657  -14.2291 O   0  0  0  0  0  0  0  0  0  0  0  0
    3.9305  -15.7056  -15.6780 O   0  0  0  0  0  0  0  0  0  0  0  0
    3.9714  -16.1064  -11.9890 C   0  0  0  0  0  0  0  0  0  0  0  0
    4.2063  -17.4959  -11.3404 C   0  0  0  0  0  0  0  0  0  0  0  0
    3.4329  -17.8608   -9.7057 S   0  0  2  0  0  0  0  0  0  0  0  0
    3.3372  -19.6632   -9.7489 C   0  0  0  0  0  0  0  0  0  0  0  0
    1.6911  -17.4571   -9.9604 C   0  0  0  0  0  0  0  0  0  0  0  0
    1.3429  -16.1839   -9.2007 C   0  0  1  0  0  0  0  0  0  0  0  0
    1.6940  -16.2540   -7.8269 O   0  0  0  0  0  0  0  0  0  0  0  0
    2.0857  -14.9743   -9.7012 C   0  0  1  0  0  0  0  0  0  0  0  0
    1.4903  -14.4935  -10.8717 O   0  0  0  0  0  0  0  0  0  0  0  0
    1.9206  -14.0391   -8.5237 C   0  0  1  0  0  0  0  0  0  0  0  0
    0.6618  -13.3997   -8.5824 O   0  0  0  0  0  0  0  0  0  0  0  0
    1.9516  -14.9608   -7.3096 C   0  0  2  0  0  0  0  0  0  0  0  0
    3.2146  -14.9247   -6.5223 N   0  0  0  0  0  0  0  0  0  0  0  0
    3.6608  -13.8551   -5.7875 C   0  0  0  0  0  0  0  0  0  0  0  0
    4.8381  -14.1765   -5.2060 N   0  0  0  0  0  0  0  0  0  0  0  0
    5.1555  -15.4368   -5.5449 C   0  0  0  0  0  0  0  0  0  0  0  0
    6.2336  -16.2450   -5.2176 C   0  0  0  0  0  0  0  0  0  0  0  0
    7.1942  -15.7914   -4.4232 N   0  0  0  0  0  0  0  0  0  0  0  0
    6.2912  -17.5285   -5.7235 N   0  0  0  0  0  0  0  0  0  0  0  0
    5.2875  -18.0199   -6.5487 C   0  0  0  0  0  0  0  0  0  0  0  0
    4.2194  -17.2028   -6.8588 N   0  0  0  0  0  0  0  0  0  0  0  0
    4.1506  -15.9286   -6.3743 C   0  0  0  0  0  0  0  0  0  0  0  0
  2  3  1  6  0  0  0
  2  6  1  0  0  0  0
  2  1  1  0  0  0  0
  4  3  2  0  0  0  0
  5  3  1  0  0  0  0
  6  7  2  0  0  0  0
  8  7  1  6  0  0  0
  8  9  1  0  0  0  0
  8 10  1  0  0  0  0
 11 10  1  6  0  0  0
 11 13  1  0  0  0  0
 12 11  1  0  0  0  0
 12 17  1  0  0  0  0
 13 14  1  6  0  0  0
 13 15  1  0  0  0  0
 15 16  1  6  0  0  0
 17 18  1  6  0  0  0
 17 15  1  0  0  0  0
 18 19  1  0  0  0  0
 20 19  2  0  0  0  0
 21 27  2  0  0  0  0
 21 20  1  0  0  0  0
 22 21  1  0  0  0  0
 23 22  1  0  0  0  0
 24 22  2  0  0  0  0
 24 25  1  0  0  0  0
 25 26  2  0  0  0  0
 26 27  1  0  0  0  0
 27 18  1  0  0  0  0
M  END
>  <CHROM.1>
-124.10329998,-127.97913165,155.45101731,-108.69391656,-53.59143089,-173.05082042
3.56750092,-16.01079514,-9.15293407,-1.81701825,-0.68420755,1.39874019

>  <Name>
lig.pdb

>  <RI>
0

>  <Rbt.Current_Directory>
/home/itssahil/PROJECTS/Mol_Feturizer/New_Systems/rnas/4b5r

>  <Rbt.Executable>
rbdock ($Id: //depot/dev/client3/rdock/2013.1/src/exe/rbdock.cxx#4 $)

>  <Rbt.Library>
libRbt.so (2013.1, Build901 2013/11/27)

>  <Rbt.Parameter_File>
/export/apps/rDock/src/rDock_2013.1_src/data/scripts/dock_solv.prm

>  <Rbt.Receptor>
prm/blind_docking_100.prm

>  <SCORE>
-13.6286

>  <SCORE.INTER>
-13.2668

>  <SCORE.INTER.CONST>
1

>  <SCORE.INTER.POLAR>
0

>  <SCORE.INTER.ROT>
6

>  <SCORE.INTER.SOLV>
12.3004

>  <SCORE.INTER.VDW>
-20.5447

>  <SCORE.INTER.norm>
-0.491362

>  <SCORE.INTRA>
-0.361846

>  <SCORE.INTRA.DIHEDRAL>
0.217961

>  <SCORE.INTRA.DIHEDRAL.0>
10.2917

>  <SCORE.INTRA.POLAR>
0

>  <SCORE.INTRA.POLAR.0>
0

>  <SCORE.INTRA.REPUL>
0.0130966

>  <SCORE.INTRA.REPUL.0>
0

>  <SCORE.INTRA.SOLV>
-1.63824

>  <SCORE.INTRA.SOLV.lig_0>
-39.6315

>  <SCORE.INTRA.VDW>
0.282812

>  <SCORE.INTRA.VDW.0>
-4.02152

>  <SCORE.INTRA.norm>
-0.0134017

>  <SCORE.RESTR>
0

>  <SCORE.RESTR.CAVITY>
0

>  <SCORE.RESTR.norm>
0

>  <SCORE.SYSTEM>
0

>  <SCORE.SYSTEM.CONST>
0

>  <SCORE.SYSTEM.DIHEDRAL>
0

>  <SCORE.SYSTEM.SOLV>
0

>  <SCORE.SYSTEM.norm>
0

>  <SCORE.heavy>
27

>  <SCORE.norm>
-0.504764

>  <RMSD>
4.706

$$$$
lig.pdb
 OpenBabel11021811493D
libRbt.so/2013.1/901 2013/11/27
 27 29  0  0  0  0  0  0  0  0999 V2000
    5.7618  -13.2255  -14.8758 N   0  0  0  0  0  0  0  0  0  0  0  0
    5.5661  -12.6348  -13.5169 C   0  0  2  0  0  0  0  0  0  0  0  0
    6.9290  -12.3112  -12.9119 C   0  0  0  0  0  0  0  0  0  0  0  0
    7.9356  -12.8346  -13.3752 O   0  0  0  0  0  0  0  0  0  0  0  0
    7.0718  -11.5372  -11.9567 O   0  0  0  0  0  0  0  0  0  0  0  0
    4.7171  -13.5133  -12.5760 C   0  0  0  0  0  0  0  0  0  0  0  0
    3.9355  -14.6831  -13.2295 C   0  0  0  0  0  0  0  0  0  0  0  0
    2.8949  -15.7691  -12.1612 S   0  0  2  0  0  0  0  0  0  0  0  0
    1.6716  -16.3704  -13.3450 C   0  0  0  0  0  0  0  0  0  0  0  0
    1.8745  -14.6017  -11.2351 C   0  0  0  0  0  0  0  0  0  0  0  0
    2.1610  -14.7388   -9.7456 C   0  0  1  0  0  0  0  0  0  0  0  0
    1.7452  -15.9912   -9.2222 O   0  0  0  0  0  0  0  0  0  0  0  0
    3.6288  -14.6805   -9.4176 C   0  0  1  0  0  0  0  0  0  0  0  0
    4.0725  -13.3543   -9.4277 O   0  0  0  0  0  0  0  0  0  0  0  0
    3.6302  -15.2964   -8.0360 C   0  0  1  0  0  0  0  0  0  0  0  0
    3.2855  -14.3250   -7.0693 O   0  0  0  0  0  0  0  0  0  0  0  0
    2.5276  -16.3477   -8.0964 C   0  0  2  0  0  0  0  0  0  0  0  0
    3.0026  -17.7561   -8.1802 N   0  0  0  0  0  0  0  0  0  0  0  0
    3.5406  -18.4747   -7.1423 C   0  0  0  0  0  0  0  0  0  0  0  0
    3.8587  -19.7140   -7.5786 N   0  0  0  0  0  0  0  0  0  0  0  0
    3.5278  -19.8113   -8.8767 C   0  0  0  0  0  0  0  0  0  0  0  0
    3.6308  -20.8513   -9.7879 C   0  0  0  0  0  0  0  0  0  0  0  0
    4.1357  -22.0203   -9.4161 N   0  0  0  0  0  0  0  0  0  0  0  0
    3.1958  -20.6568  -11.0839 N   0  0  0  0  0  0  0  0  0  0  0  0
    2.6561  -19.4411  -11.4845 C   0  0  0  0  0  0  0  0  0  0  0  0
    2.5563  -18.4194  -10.5621 N   0  0  0  0  0  0  0  0  0  0  0  0
    2.9890  -18.5917   -9.2790 C   0  0  0  0  0  0  0  0  0  0  0  0
  2  3  1  1  0  0  0
  2  6  1  0  0  0  0
  2  1  1  0  0  0  0
  4  3  2  0  0  0  0
  5  3  1  0  0  0  0
  6  7  2  0  0  0  0
  8  7  1  6  0  0  0
  8  9  1  0  0  0  0
  8 10  1  0  0  0  0
 11 10  1  6  0  0  0
 11 13  1  0  0  0  0
 12 11  1  0  0  0  0
 12 17  1  0  0  0  0
 13 14  1  1  0  0  0
 13 15  1  0  0  0  0
 15 16  1  1  0  0  0
 17 18  1  6  0  0  0
 17 15  1  0  0  0  0
 18 19  1  0  0  0  0
 20 19  2  0  0  0  0
 21 27  2  0  0  0  0
 21 20  1  0  0  0  0
 22 21  1  0  0  0  0
 23 22  1  0  0  0  0
 24 22  2  0  0  0  0
 24 25  1  0  0  0  0
 25 26  2  0  0  0  0
 26 27  1  0  0  0  0
 27 18  1  0  0  0  0
M  END
>  <CHROM.1>
-18.05391747,-13.31689106,154.28925359,-118.31248792,-66.57541749,-166.01466665
3.77008400,-16.11465407,-10.58919260,-0.30501170,-1.22717896,-2.41607220

>  <Name>
lig.pdb

>  <RI>
0

>  <Rbt.Current_Directory>
/home/itssahil/PROJECTS/Mol_Feturizer/New_Systems/rnas/4b5r

>  <Rbt.Executable>
rbdock ($Id: //depot/dev/client3/rdock/2013.1/src/exe/rbdock.cxx#4 $)

>  <Rbt.Library>
libRbt.so (2013.1, Build901 2013/11/27)

>  <Rbt.Parameter_File>
/export/apps/rDock/src/rDock_2013.1_src/data/scripts/dock_solv.prm

>  <Rbt.Receptor>
prm/pocket_docking_7.prm

>  <SCORE>
-11.5678

>  <SCORE.INTER>
-11.9891

>  <SCORE.INTER.CONST>
1

>  <SCORE.INTER.POLAR>
0

>  <SCORE.INTER.ROT>
6

>  <SCORE.INTER.SOLV>
12.5535

>  <SCORE.INTER.VDW>
-19.7772

>  <SCORE.INTER.norm>
-0.44404

>  <SCORE.INTRA>
0.420523

>  <SCORE.INTRA.DIHEDRAL>
1.12336

>  <SCORE.INTRA.DIHEDRAL.0>
10.2917

>  <SCORE.INTRA.POLAR>
0

>  <SCORE.INTRA.POLAR.0>
0

>  <SCORE.INTRA.REPUL>
0

>  <SCORE.INTRA.REPUL.0>
0

>  <SCORE.INTRA.SOLV>
-1.09749

>  <SCORE.INTRA.SOLV.lig_0>
-39.6315

>  <SCORE.INTRA.VDW>
0.40759

>  <SCORE.INTRA.VDW.0>
-4.02152

>  <SCORE.INTRA.norm>
0.0155749

>  <SCORE.RESTR>
0.00077609

>  <SCORE.RESTR.CAVITY>
0.00077609

>  <SCORE.RESTR.norm>
2.87441e-05

>  <SCORE.SYSTEM>
0

>  <SCORE.SYSTEM.CONST>
0

>  <SCORE.SYSTEM.DIHEDRAL>
0

>  <SCORE.SYSTEM.SOLV>
0

>  <SCORE.SYSTEM.norm>
0

>  <SCORE.heavy>
27

>  <SCORE.norm>
-0.428436

>  <RMSD>
4.716

$$$$
lig.pdb
 OpenBabel11021811493D
libRbt.so/2013.1/901 2013/11/27
 27 29  0  0  0  0  0  0  0  0999 V2000
    7.2192  -13.1800  -12.4728 N   0  0  0  0  0  0  0  0  0  0  0  0
    5.9375  -13.9489  -12.4836 C   0  0  2  0  0  0  0  0  0  0  0  0
    4.7675  -12.9698  -12.4540 C   0  0  0  0  0  0  0  0  0  0  0  0
    3.6228  -13.3923  -12.5675 O   0  0  0  0  0  0  0  0  0  0  0  0
    4.9186  -11.7483  -12.3242 O   0  0  0  0  0  0  0  0  0  0  0  0
    5.8344  -14.9969  -11.3571 C   0  0  0  0  0  0  0  0  0  0  0  0
    4.6477  -15.9929  -11.4368 C   0  0  0  0  0  0  0  0  0  0  0  0
    4.4621  -17.2685  -10.1170 S   0  0  2  0  0  0  0  0  0  0  0  0
    5.5061  -18.5970  -10.7531 C   0  0  0  0  0  0  0  0  0  0  0  0
    2.8336  -17.9796  -10.4399 C   0  0  0  0  0  0  0  0  0  0  0  0
    1.7593  -17.1190   -9.7881 C   0  0  1  0  0  0  0  0  0  0  0  0
    1.9442  -16.9821   -8.3873 O   0  0  0  0  0  0  0  0  0  0  0  0
    1.7519  -15.7004  -10.2910 C   0  0  1  0  0  0  0  0  0  0  0  0
    1.1160  -15.6334  -11.5348 O   0  0  0  0  0  0  0  0  0  0  0  0
    0.9728  -15.0181   -9.1884 C   0  0  1  0  0  0  0  0  0  0  0  0
   -0.4146  -15.1912   -9.3934 O   0  0  0  0  0  0  0  0  0  0  0  0
    1.3838  -15.7661   -7.9250 C   0  0  2  0  0  0  0  0  0  0  0  0
    2.3229  -15.0310   -7.0340 N   0  0  0  0  0  0  0  0  0  0  0  0
    2.0391  -13.8617   -6.3744 C   0  0  0  0  0  0  0  0  0  0  0  0
    3.1213  -13.4820   -5.6587 N   0  0  0  0  0  0  0  0  0  0  0  0
    4.0953  -14.3895   -5.8373 C   0  0  0  0  0  0  0  0  0  0  0  0
    5.3834  -14.4835   -5.3329 C   0  0  0  0  0  0  0  0  0  0  0  0
    5.8480  -13.5573   -4.5048 N   0  0  0  0  0  0  0  0  0  0  0  0
    6.1731  -15.5557   -5.6982 N   0  0  0  0  0  0  0  0  0  0  0  0
    5.6962  -16.5381   -6.5568 C   0  0  0  0  0  0  0  0  0  0  0  0
    4.4095  -16.4306   -7.0442 N   0  0  0  0  0  0  0  0  0  0  0  0
    3.6181  -15.3730   -6.7001 C   0  0  0  0  0  0  0  0  0  0  0  0
  2  3  1  1  0  0  0
  2  6  1  0  0  0  0
  2  1  1  0  0  0  0
  4  3  2  0  0  0  0
  5  3  1  0  0  0  0
  6  7  2  0  0  0  0
  8  7  1  6  0  0  0
  8  9  1  0  0  0  0
  8 10  1  0  0  0  0
 11 10  1  6  0  0  0
 11 13  1  0  0  0  0
 12 11  1  0  0  0  0
 12 17  1  0  0  0  0
 13 14  1  6  0  0  0
 13 15  1  0  0  0  0
 15 16  1  6  0  0  0
 17 18  1  6  0  0  0
 17 15  1  0  0  0  0
 18 19  1  0  0  0  0
 20 19  2  0  0  0  0
 21 27  2  0  0  0  0
 21 20  1  0  0  0  0
 22 21  1  0  0  0  0
 23 22  1  0  0  0  0
 24 22  2  0  0  0  0
 24 25  1  0  0  0  0
 25 26  2  0  0  0  0
 26 27  1  0  0  0  0
 27 18  1  0  0  0  0
M  END
>  <CHROM.1>
174.07356801,-170.17693635,-86.79905233,-84.18095129,-57.91757813,-176.22553827
3.73362941,-15.29441754,-9.14474504,-1.46046531,0.44252269,1.59687907

>  <Name>
lig.pdb

>  <RI>
0

>  <Rbt.Current_Directory>
/home/itssahil/PROJECTS/Mol_Feturizer/New_Systems/rnas/4b5r

>  <Rbt.Executable>
rbdock ($Id: //depot/dev/client3/rdock/2013.1/src/exe/rbdock.cxx#4 $)

>  <Rbt.Library>
libRbt.so (2013.1, Build901 2013/11/27)

>  <Rbt.Parameter_File>
/export/apps/rDock/src/rDock_2013.1_src/data/scripts/dock_solv.prm

>  <Rbt.Receptor>
prm/pocket_docking_4.prm

>  <SCORE>
-10.8251

>  <SCORE.INTER>
-10.7686

>  <SCORE.INTER.CONST>
1

>  <SCORE.INTER.POLAR>
0

>  <SCORE.INTER.ROT>
6

>  <SCORE.INTER.SOLV>
11.9639

>  <SCORE.INTER.VDW>
-18.767

>  <SCORE.INTER.norm>
-0.398838

>  <SCORE.INTRA>
-0.0564321

>  <SCORE.INTRA.DIHEDRAL>
0.72921

>  <SCORE.INTRA.DIHEDRAL.0>
10.2917

>  <SCORE.INTRA.POLAR>
0

>  <SCORE.INTRA.POLAR.0>
0

>  <SCORE.INTRA.REPUL>
0.0554445

>  <SCORE.INTRA.REPUL.0>
0

>  <SCORE.INTRA.SOLV>
-1.85357

>  <SCORE.INTRA.SOLV.lig_0>
-39.6315

>  <SCORE.INTRA.VDW>
0.228524

>  <SCORE.INTRA.VDW.0>
-4.02152

>  <SCORE.INTRA.norm>
-0.00209008

>  <SCORE.RESTR>
0

>  <SCORE.RESTR.CAVITY>
0

>  <SCORE.RESTR.norm>
0

>  <SCORE.SYSTEM>
0

>  <SCORE.SYSTEM.CONST>
0

>  <SCORE.SYSTEM.DIHEDRAL>
0

>  <SCORE.SYSTEM.SOLV>
0

>  <SCORE.SYSTEM.norm>
0

>  <SCORE.heavy>
27

>  <SCORE.norm>
-0.400928

>  <RMSD>
4.746

$$$$
lig.pdb
 OpenBabel11021811493D
libRbt.so/2013.1/901 2013/11/27
 27 29  0  0  0  0  0  0  0  0999 V2000
    6.7348  -16.2492  -14.5606 N   0  0  0  0  0  0  0  0  0  0  0  0
    6.4167  -16.6807  -13.1654 C   0  0  2  0  0  0  0  0  0  0  0  0
    7.2222  -17.9336  -12.8342 C   0  0  0  0  0  0  0  0  0  0  0  0
    7.4305  -18.7668  -13.7083 O   0  0  0  0  0  0  0  0  0  0  0  0
    7.6795  -18.1579  -11.7062 O   0  0  0  0  0  0  0  0  0  0  0  0
    4.9100  -16.8853  -12.9086 C   0  0  0  0  0  0  0  0  0  0  0  0
    4.2637  -16.0047  -11.8072 C   0  0  0  0  0  0  0  0  0  0  0  0
    2.4657  -16.2038  -11.4450 S   0  0  2  0  0  0  0  0  0  0  0  0
    1.7693  -16.2639  -13.1095 C   0  0  0  0  0  0  0  0  0  0  0  0
    1.9448  -14.5450  -10.9565 C   0  0  0  0  0  0  0  0  0  0  0  0
    2.4348  -14.2478   -9.5454 C   0  0  1  0  0  0  0  0  0  0  0  0
    1.9852  -15.2046   -8.5980 O   0  0  0  0  0  0  0  0  0  0  0  0
    3.9339  -14.2914   -9.4183 C   0  0  1  0  0  0  0  0  0  0  0  0
    4.4940  -13.1086   -9.9114 O   0  0  0  0  0  0  0  0  0  0  0  0
    4.0822  -14.4389   -7.9201 C   0  0  1  0  0  0  0  0  0  0  0  0
    3.9776  -13.1766   -7.2936 O   0  0  0  0  0  0  0  0  0  0  0  0
    2.8888  -15.2951   -7.5108 C   0  0  2  0  0  0  0  0  0  0  0  0
    3.2116  -16.7102   -7.1800 N   0  0  0  0  0  0  0  0  0  0  0  0
    2.4095  -17.7905   -7.4496 C   0  0  0  0  0  0  0  0  0  0  0  0
    3.0183  -18.9154   -7.0120 N   0  0  0  0  0  0  0  0  0  0  0  0
    4.2023  -18.5819   -6.4728 C   0  0  0  0  0  0  0  0  0  0  0  0
    5.2091  -19.3411   -5.8961 C   0  0  0  0  0  0  0  0  0  0  0  0
    5.0877  -20.6591   -5.8084 N   0  0  0  0  0  0  0  0  0  0  0  0
    6.3409  -18.7089   -5.4204 N   0  0  0  0  0  0  0  0  0  0  0  0
    6.4855  -17.3305   -5.5144 C   0  0  0  0  0  0  0  0  0  0  0  0
    5.4755  -16.5921   -6.0969 N   0  0  0  0  0  0  0  0  0  0  0  0
    4.3463  -17.1997   -6.5647 C   0  0  0  0  0  0  0  0  0  0  0  0
  2  3  1  6  0  0  0
  2  6  1  0  0  0  0
  2  1  1  0  0  0  0
  4  3  2  0  0  0  0
  5  3  1  0  0  0  0
  6  7  2  0  0  0  0
  8  7  1  6  0  0  0
  8  9  1  0  0  0  0
  8 10  1  0  0  0  0
 11 10  1  6  0  0  0
 11 13  1  0  0  0  0
 12 11  1  0  0  0  0
 12 17  1  0  0  0  0
 13 14  1  1  0  0  0
 13 15  1  0  0  0  0
 15 16  1  1  0  0  0
 17 18  1  6  0  0  0
 17 15  1  0  0  0  0
 18 19  1  0  0  0  0
 20 19  2  0  0  0  0
 21 27  2  0  0  0  0
 21 20  1  0  0  0  0
 22 21  1  0  0  0  0
 23 22  1  0  0  0  0
 24 22  2  0  0  0  0
 24 25  1  0  0  0  0
 25 26  2  0  0  0  0
 26 27  1  0  0  0  0
 27 18  1  0  0  0  0
M  END
>  <CHROM.1>
-35.74026358,-119.82969827,-44.75831133,-75.31671218,-56.70990848,-25.04983029
4.36706651,-16.57839667,-9.41114008,-1.41823365,-0.80480422,1.83845854

>  <Name>
lig.pdb

>  <RI>
0

>  <Rbt.Current_Directory>
/home/itssahil/PROJECTS/Mol_Feturizer/New_Systems/rnas/4b5r

>  <Rbt.Executable>
rbdock ($Id: //depot/dev/client3/rdock/2013.1/src/exe/rbdock.cxx#4 $)

>  <Rbt.Library>
libRbt.so (2013.1, Build901 2013/11/27)

>  <Rbt.Parameter_File>
/export/apps/rDock/src/rDock_2013.1_src/data/scripts/dock_solv.prm

>  <Rbt.Receptor>
prm/blind_docking_60.prm

>  <SCORE>
-14.4603

>  <SCORE.INTER>
-13.3738

>  <SCORE.INTER.CONST>
1

>  <SCORE.INTER.POLAR>
0

>  <SCORE.INTER.ROT>
6

>  <SCORE.INTER.SOLV>
12.3023

>  <SCORE.INTER.VDW>
-20.6166

>  <SCORE.INTER.norm>
-0.495325

>  <SCORE.INTRA>
-1.08653

>  <SCORE.INTRA.DIHEDRAL>
-3.31741

>  <SCORE.INTRA.DIHEDRAL.0>
10.2917

>  <SCORE.INTRA.POLAR>
0

>  <SCORE.INTRA.POLAR.0>
0

>  <SCORE.INTRA.REPUL>
0

>  <SCORE.INTRA.REPUL.0>
0

>  <SCORE.INTRA.SOLV>
-2.63219

>  <SCORE.INTRA.SOLV.lig_0>
-39.6315

>  <SCORE.INTRA.VDW>
1.88827

>  <SCORE.INTRA.VDW.0>
-4.02152

>  <SCORE.INTRA.norm>
-0.0402417

>  <SCORE.RESTR>
0

>  <SCORE.RESTR.CAVITY>
0

>  <SCORE.RESTR.norm>
0

>  <SCORE.SYSTEM>
0

>  <SCORE.SYSTEM.CONST>
0

>  <SCORE.SYSTEM.DIHEDRAL>
0

>  <SCORE.SYSTEM.SOLV>
0

>  <SCORE.SYSTEM.norm>
0

>  <SCORE.heavy>
27

>  <SCORE.norm>
-0.535567

>  <RMSD>
4.749

$$$$
lig.pdb
 OpenBabel11021811493D
libRbt.so/2013.1/901 2013/11/27
 27 29  0  0  0  0  0  0  0  0999 V2000
    5.7293  -14.9917  -16.5075 N   0  0  0  0  0  0  0  0  0  0  0  0
    5.8928  -15.7561  -15.2336 C   0  0  2  0  0  0  0  0  0  0  0  0
    4.5412  -15.8525  -14.5320 C   0  0  0  0  0  0  0  0  0  0  0  0
    4.3026  -16.8128  -13.8091 O   0  0  0  0  0  0  0  0  0  0  0  0
    3.6557  -14.9976  -14.6623 O   0  0  0  0  0  0  0  0  0  0  0  0
    6.9804  -15.1831  -14.3026 C   0  0  0  0  0  0  0  0  0  0  0  0
    6.5057  -14.2134  -13.1887 C   0  0  0  0  0  0  0  0  0  0  0  0
    7.7569  -13.4867  -12.0441 S   0  0  2  0  0  0  0  0  0  0  0  0
    8.5791  -14.9695  -11.4238 C   0  0  0  0  0  0  0  0  0  0  0  0
    6.7899  -13.0416  -10.5852 C   0  0  0  0  0  0  0  0  0  0  0  0
    5.9400  -14.2285  -10.1510 C   0  0  1  0  0  0  0  0  0  0  0  0
    6.3528  -14.7694   -8.9050 O   0  0  0  0  0  0  0  0  0  0  0  0
    4.4950  -13.8715   -9.9280 C   0  0  1  0  0  0  0  0  0  0  0  0
    3.8262  -13.7820  -11.1530 O   0  0  0  0  0  0  0  0  0  0  0  0
    4.0438  -15.0471   -9.0899 C   0  0  1  0  0  0  0  0  0  0  0  0
    3.7351  -16.1477   -9.9207 O   0  0  0  0  0  0  0  0  0  0  0  0
    5.2650  -15.3919   -8.2448 C   0  0  2  0  0  0  0  0  0  0  0  0
    5.1803  -14.9809   -6.8165 N   0  0  0  0  0  0  0  0  0  0  0  0
    4.4569  -13.9172   -6.3388 C   0  0  0  0  0  0  0  0  0  0  0  0
    4.6101  -13.8427   -4.9978 N   0  0  0  0  0  0  0  0  0  0  0  0
    5.4121  -14.8441   -4.6001 C   0  0  0  0  0  0  0  0  0  0  0  0
    5.8755  -15.2246   -3.3499 C   0  0  0  0  0  0  0  0  0  0  0  0
    5.5219  -14.5430   -2.2683 N   0  0  0  0  0  0  0  0  0  0  0  0
    6.7038  -16.3244   -3.2447 N   0  0  0  0  0  0  0  0  0  0  0  0
    7.0744  -17.0532   -4.3678 C   0  0  0  0  0  0  0  0  0  0  0  0
    6.5986  -16.6629   -5.6031 N   0  0  0  0  0  0  0  0  0  0  0  0
    5.7857  -15.5732   -5.7263 C   0  0  0  0  0  0  0  0  0  0  0  0
  2  3  1  1  0  0  0
  2  6  1  0  0  0  0
  2  1  1  0  0  0  0
  4  3  2  0  0  0  0
  5  3  1  0  0  0  0
  6  7  2  0  0  0  0
  8  7  1  6  0  0  0
  8  9  1  0  0  0  0
  8 10  1  0  0  0  0
 11 10  1  1  0  0  0
 11 13  1  0  0  0  0
 12 11  1  0  0  0  0
 12 17  1  0  0  0  0
 13 14  1  6  0  0  0
 13 15  1  0  0  0  0
 15 16  1  6  0  0  0
 17 18  1  1  0  0  0
 17 15  1  0  0  0  0
 18 19  1  0  0  0  0
 20 19  2  0  0  0  0
 21 27  2  0  0  0  0
 21 20  1  0  0  0  0
 22 21  1  0  0  0  0
 23 22  1  0  0  0  0
 24 22  2  0  0  0  0
 24 25  1  0  0  0  0
 25 26  2  0  0  0  0
 26 27  1  0  0  0  0
 27 18  1  0  0  0  0
M  END
>  <CHROM.1>
151.27430903,95.48304471,-54.15663698,50.03664791,112.29975139,90.96884314
5.69448187,-14.94902961,-9.51768057,-1.58155859,0.22440439,1.60790627

>  <Name>
lig.pdb

>  <RI>
0

>  <Rbt.Current_Directory>
/home/itssahil/PROJECTS/Mol_Feturizer/New_Systems/rnas/4b5r

>  <Rbt.Executable>
rbdock ($Id: //depot/dev/client3/rdock/2013.1/src/exe/rbdock.cxx#4 $)

>  <Rbt.Library>
libRbt.so (2013.1, Build901 2013/11/27)

>  <Rbt.Parameter_File>
/export/apps/rDock/src/rDock_2013.1_src/data/scripts/dock_solv.prm

>  <Rbt.Receptor>
prm/pocket_docking_6.prm

>  <SCORE>
-11.0134

>  <SCORE.INTER>
-13.2915

>  <SCORE.INTER.CONST>
1

>  <SCORE.INTER.POLAR>
0

>  <SCORE.INTER.ROT>
6

>  <SCORE.INTER.SOLV>
11.6631

>  <SCORE.INTER.VDW>
-20.3487

>  <SCORE.INTER.norm>
-0.492276

>  <SCORE.INTRA>
2.27806

>  <SCORE.INTRA.DIHEDRAL>
2.56768

>  <SCORE.INTRA.DIHEDRAL.0>
10.2917

>  <SCORE.INTRA.POLAR>
0

>  <SCORE.INTRA.POLAR.0>
0

>  <SCORE.INTRA.REPUL>
0

>  <SCORE.INTRA.REPUL.0>
0

>  <SCORE.INTRA.SOLV>
-2.77849

>  <SCORE.INTRA.SOLV.lig_0>
-39.6315

>  <SCORE.INTRA.VDW>
2.38346

>  <SCORE.INTRA.VDW.0>
-4.02152

>  <SCORE.INTRA.norm>
0.0843726

>  <SCORE.RESTR>
0

>  <SCORE.RESTR.CAVITY>
0

>  <SCORE.RESTR.norm>
0

>  <SCORE.SYSTEM>
0

>  <SCORE.SYSTEM.CONST>
0

>  <SCORE.SYSTEM.DIHEDRAL>
0

>  <SCORE.SYSTEM.SOLV>
0

>  <SCORE.SYSTEM.norm>
0

>  <SCORE.heavy>
27

>  <SCORE.norm>
-0.407904

>  <RMSD>
4.751

$$$$
lig.pdb
 OpenBabel11021811493D
libRbt.so/2013.1/901 2013/11/27
 27 29  0  0  0  0  0  0  0  0999 V2000
    6.4014  -15.2234  -11.6083 N   0  0  0  0  0  0  0  0  0  0  0  0
    5.0879  -15.3150  -12.3157 C   0  0  2  0  0  0  0  0  0  0  0  0
    4.4956  -13.9155  -12.4522 C   0  0  0  0  0  0  0  0  0  0  0  0
    5.2371  -12.9402  -12.4274 O   0  0  0  0  0  0  0  0  0  0  0  0
    3.2820  -13.7110  -12.5839 O   0  0  0  0  0  0  0  0  0  0  0  0
    4.0958  -16.2937  -11.6556 C   0  0  0  0  0  0  0  0  0  0  0  0
    4.4420  -16.7784  -10.2232 C   0  0  0  0  0  0  0  0  0  0  0  0
    3.3002  -17.9556   -9.3782 S   0  0  2  0  0  0  0  0  0  0  0  0
    3.6710  -19.4970  -10.2422 C   0  0  0  0  0  0  0  0  0  0  0  0
    1.6896  -17.5796  -10.1037 C   0  0  0  0  0  0  0  0  0  0  0  0
    1.1021  -16.3431   -9.4362 C   0  0  1  0  0  0  0  0  0  0  0  0
    1.3644  -16.2982   -8.0417 O   0  0  0  0  0  0  0  0  0  0  0  0
    1.6869  -15.0567   -9.9545 C   0  0  1  0  0  0  0  0  0  0  0  0
    1.1077  -14.7249  -11.1835 O   0  0  0  0  0  0  0  0  0  0  0  0
    1.3021  -14.1074   -8.8413 C   0  0  1  0  0  0  0  0  0  0  0  0
   -0.0316  -13.6725   -9.0113 O   0  0  0  0  0  0  0  0  0  0  0  0
    1.3881  -14.9593   -7.5798 C   0  0  2  0  0  0  0  0  0  0  0  0
    2.5740  -14.6949   -6.7196 N   0  0  0  0  0  0  0  0  0  0  0  0
    2.7252  -13.6142   -5.8876 C   0  0  0  0  0  0  0  0  0  0  0  0
    3.9206  -13.6994   -5.2623 N   0  0  0  0  0  0  0  0  0  0  0  0
    4.5399  -14.8198   -5.6687 C   0  0  0  0  0  0  0  0  0  0  0  0
    5.7641  -15.3794   -5.3360 C   0  0  0  0  0  0  0  0  0  0  0  0
    6.5577  -14.7811   -4.4574 N   0  0  0  0  0  0  0  0  0  0  0  0
    6.1434  -16.5691   -5.9256 N   0  0  0  0  0  0  0  0  0  0  0  0
    5.3182  -17.2114   -6.8400 C   0  0  0  0  0  0  0  0  0  0  0  0
    4.1008  -16.6424   -7.1543 N   0  0  0  0  0  0  0  0  0  0  0  0
    3.7138  -15.4626   -6.5874 C   0  0  0  0  0  0  0  0  0  0  0  0
  2  3  1  1  0  0  0
  2  6  1  0  0  0  0
  2  1  1  0  0  0  0
  4  3  2  0  0  0  0
  5  3  1  0  0  0  0
  6  7  2  0  0  0  0
  8  7  1  6  0  0  0
  8  9  1  0  0  0  0
  8 10  1  0  0  0  0
 11 10  1  6  0  0  0
 11 13  1  0  0  0  0
 12 11  1  0  0  0  0
 12 17  1  0  0  0  0
 13 14  1  6  0  0  0
 13 15  1  0  0  0  0
 15 16  1  6  0  0  0
 17 18  1  6  0  0  0
 17 15  1  0  0  0  0
 18 19  1  0  0  0  0
 20 19  2  0  0  0  0
 21 27  2  0  0  0  0
 21 20  1  0  0  0  0
 22 21  1  0  0  0  0
 23 22  1  0  0  0  0
 24 22  2  0  0  0  0
 24 25  1  0  0  0  0
 25 26  2  0  0  0  0
 26 27  1  0  0  0  0
 27 18  1  0  0  0  0
M  END
>  <CHROM.1>
23.88486845,13.64970689,74.76507721,-80.07052126,-38.24432041,-164.39573455
3.46289571,-15.55971785,-8.86932242,-1.77521475,-0.31031369,1.52910534

>  <Name>
lig.pdb

>  <RI>
0

>  <Rbt.Current_Directory>
/home/itssahil/PROJECTS/Mol_Feturizer/New_Systems/rnas/4b5r

>  <Rbt.Executable>
rbdock ($Id: //depot/dev/client3/rdock/2013.1/src/exe/rbdock.cxx#4 $)

>  <Rbt.Library>
libRbt.so (2013.1, Build901 2013/11/27)

>  <Rbt.Parameter_File>
/export/apps/rDock/src/rDock_2013.1_src/data/scripts/dock_solv.prm

>  <Rbt.Receptor>
prm/pocket_docking_2.prm

>  <SCORE>
-6.54596

>  <SCORE.INTER>
-9.28488

>  <SCORE.INTER.CONST>
1

>  <SCORE.INTER.POLAR>
0

>  <SCORE.INTER.ROT>
6

>  <SCORE.INTER.SOLV>
10.554

>  <SCORE.INTER.VDW>
-17.3079

>  <SCORE.INTER.norm>
-0.343884

>  <SCORE.INTRA>
0.638039

>  <SCORE.INTRA.DIHEDRAL>
0.315601

>  <SCORE.INTRA.DIHEDRAL.0>
10.2917

>  <SCORE.INTRA.POLAR>
0

>  <SCORE.INTRA.POLAR.0>
0

>  <SCORE.INTRA.REPUL>
0

>  <SCORE.INTRA.REPUL.0>
0

>  <SCORE.INTRA.SOLV>
-0.736187

>  <SCORE.INTRA.SOLV.lig_0>
-39.6315

>  <SCORE.INTRA.VDW>
0.848332

>  <SCORE.INTRA.VDW.0>
-4.02152

>  <SCORE.INTRA.norm>
0.0236311

>  <SCORE.RESTR>
2.10087

>  <SCORE.RESTR.CAVITY>
2.10087

>  <SCORE.RESTR.norm>
0.0778101

>  <SCORE.SYSTEM>
0

>  <SCORE.SYSTEM.CONST>
0

>  <SCORE.SYSTEM.DIHEDRAL>
0

>  <SCORE.SYSTEM.SOLV>
0

>  <SCORE.SYSTEM.norm>
0

>  <SCORE.heavy>
27

>  <SCORE.norm>
-0.242443

>  <RMSD>
4.756

$$$$
lig.pdb
 OpenBabel11021811493D
libRbt.so/2013.1/901 2013/11/27
 27 29  0  0  0  0  0  0  0  0999 V2000
    5.8748  -13.2111  -14.6151 N   0  0  0  0  0  0  0  0  0  0  0  0
    5.5769  -14.6142  -15.0354 C   0  0  2  0  0  0  0  0  0  0  0  0
    4.8455  -14.5899  -16.3743 C   0  0  0  0  0  0  0  0  0  0  0  0
    4.7497  -13.5357  -16.9917 O   0  0  0  0  0  0  0  0  0  0  0  0
    4.3301  -15.5976  -16.8751 O   0  0  0  0  0  0  0  0  0  0  0  0
    4.8046  -15.4272  -13.9769 C   0  0  0  0  0  0  0  0  0  0  0  0
    4.1345  -14.6235  -12.8317 C   0  0  0  0  0  0  0  0  0  0  0  0
    3.2002  -15.5356  -11.5283 S   0  0  2  0  0  0  0  0  0  0  0  0
    2.5737  -16.9497  -12.4597 C   0  0  0  0  0  0  0  0  0  0  0  0
    1.6746  -14.5846  -11.3555 C   0  0  0  0  0  0  0  0  0  0  0  0
    1.0975  -14.7890   -9.9609 C   0  0  1  0  0  0  0  0  0  0  0  0
    1.0791  -16.1542   -9.5719 O   0  0  0  0  0  0  0  0  0  0  0  0
    1.9048  -14.1178   -8.8824 C   0  0  1  0  0  0  0  0  0  0  0  0
    1.6207  -12.7488   -8.8493 O   0  0  0  0  0  0  0  0  0  0  0  0
    1.4063  -14.8572   -7.6605 C   0  0  1  0  0  0  0  0  0  0  0  0
    0.1862  -14.2989   -7.2173 O   0  0  0  0  0  0  0  0  0  0  0  0
    1.1492  -16.2738   -8.1622 C   0  0  2  0  0  0  0  0  0  0  0  0
    2.1603  -17.2839   -7.7453 N   0  0  0  0  0  0  0  0  0  0  0  0
    2.0808  -18.6322   -7.9875 C   0  0  0  0  0  0  0  0  0  0  0  0
    3.1705  -19.2413   -7.4687 N   0  0  0  0  0  0  0  0  0  0  0  0
    3.9560  -18.3096   -6.9038 C   0  0  0  0  0  0  0  0  0  0  0  0
    5.1762  -18.3929   -6.2506 C   0  0  0  0  0  0  0  0  0  0  0  0
    5.7758  -19.5662   -6.0982 N   0  0  0  0  0  0  0  0  0  0  0  0
    5.7612  -17.2395   -5.7669 N   0  0  0  0  0  0  0  0  0  0  0  0
    5.1492  -16.0029   -5.9279 C   0  0  0  0  0  0  0  0  0  0  0  0
    3.9378  -15.9389   -6.5859 N   0  0  0  0  0  0  0  0  0  0  0  0
    3.3412  -17.0701   -7.0630 C   0  0  0  0  0  0  0  0  0  0  0  0
  2  3  1  6  0  0  0
  2  6  1  0  0  0  0
  2  1  1  0  0  0  0
  4  3  2  0  0  0  0
  5  3  1  0  0  0  0
  6  7  2  0  0  0  0
  8  7  1  6  0  0  0
  8  9  1  0  0  0  0
  8 10  1  0  0  0  0
 11 10  1  6  0  0  0
 11 13  1  0  0  0  0
 12 11  1  0  0  0  0
 12 17  1  0  0  0  0
 13 14  1  1  0  0  0
 13 15  1  0  0  0  0
 15 16  1  6  0  0  0
 17 18  1  6  0  0  0
 17 15  1  0  0  0  0
 18 19  1  0  0  0  0
 20 19  2  0  0  0  0
 21 27  2  0  0  0  0
 21 20  1  0  0  0  0
 22 21  1  0  0  0  0
 23 22  1  0  0  0  0
 24 22  2  0  0  0  0
 24 25  1  0  0  0  0
 25 26  2  0  0  0  0
 26 27  1  0  0  0  0
 27 18  1  0  0  0  0
M  END
>  <CHROM.1>
9.03902768,15.36840680,-31.28975203,-154.48863020,-46.43443595,-65.93966421
3.31327504,-15.84470845,-10.14733612,-1.41553187,-0.62970492,1.96525515

>  <Name>
lig.pdb

>  <RI>
0

>  <Rbt.Current_Directory>
/home/itssahil/PROJECTS/Mol_Feturizer/New_Systems/rnas/4b5r

>  <Rbt.Executable>
rbdock ($Id: //depot/dev/client3/rdock/2013.1/src/exe/rbdock.cxx#4 $)

>  <Rbt.Library>
libRbt.so (2013.1, Build901 2013/11/27)

>  <Rbt.Parameter_File>
/export/apps/rDock/src/rDock_2013.1_src/data/scripts/dock_solv.prm

>  <Rbt.Receptor>
prm/pocket_docking_8.prm

>  <SCORE>
-14.0524

>  <SCORE.INTER>
-15.1992

>  <SCORE.INTER.CONST>
1

>  <SCORE.INTER.POLAR>
0

>  <SCORE.INTER.ROT>
6

>  <SCORE.INTER.SOLV>
13.4508

>  <SCORE.INTER.VDW>
-22.2164

>  <SCORE.INTER.norm>
-0.562932

>  <SCORE.INTRA>
1.11363

>  <SCORE.INTRA.DIHEDRAL>
0.173359

>  <SCORE.INTRA.DIHEDRAL.0>
10.2917

>  <SCORE.INTRA.POLAR>
0

>  <SCORE.INTRA.POLAR.0>
0

>  <SCORE.INTRA.REPUL>
0

>  <SCORE.INTRA.REPUL.0>
0

>  <SCORE.INTRA.SOLV>
-2.0978

>  <SCORE.INTRA.SOLV.lig_0>
-39.6315

>  <SCORE.INTRA.VDW>
2.07585

>  <SCORE.INTRA.VDW.0>
-4.02152

>  <SCORE.INTRA.norm>
0.0412457

>  <SCORE.RESTR>
0.0331406

>  <SCORE.RESTR.CAVITY>
0.0331406

>  <SCORE.RESTR.norm>
0.00122743

>  <SCORE.SYSTEM>
0

>  <SCORE.SYSTEM.CONST>
0

>  <SCORE.SYSTEM.DIHEDRAL>
0

>  <SCORE.SYSTEM.SOLV>
0

>  <SCORE.SYSTEM.norm>
0

>  <SCORE.heavy>
27

>  <SCORE.norm>
-0.520459

>  <RMSD>
4.764

$$$$
lig.pdb
 OpenBabel11021811493D
libRbt.so/2013.1/901 2013/11/27
 27 29  0  0  0  0  0  0  0  0999 V2000
    3.1630  -17.1911  -11.4766 N   0  0  0  0  0  0  0  0  0  0  0  0
    2.0316  -16.3208  -11.0336 C   0  0  2  0  0  0  0  0  0  0  0  0
    1.5280  -15.5112  -12.2249 C   0  0  0  0  0  0  0  0  0  0  0  0
    1.2984  -16.0777  -13.2870 O   0  0  0  0  0  0  0  0  0  0  0  0
    1.3414  -14.2888  -12.1739 O   0  0  0  0  0  0  0  0  0  0  0  0
    2.3787  -15.4165   -9.8337 C   0  0  0  0  0  0  0  0  0  0  0  0
    1.4579  -15.5232   -8.5898 C   0  0  0  0  0  0  0  0  0  0  0  0
    1.8136  -14.4640   -7.1217 S   0  0  2  0  0  0  0  0  0  0  0  0
    1.3196  -12.8361   -7.7262 C   0  0  0  0  0  0  0  0  0  0  0  0
    3.6089  -14.2720   -7.1617 C   0  0  0  0  0  0  0  0  0  0  0  0
    4.2656  -15.4301   -6.4222 C   0  0  1  0  0  0  0  0  0  0  0  0
    3.6221  -16.6712   -6.6690 O   0  0  0  0  0  0  0  0  0  0  0  0
    5.6893  -15.6717   -6.8464 C   0  0  1  0  0  0  0  0  0  0  0  0
    6.5380  -14.7415   -6.2377 O   0  0  0  0  0  0  0  0  0  0  0  0
    5.8950  -17.0826   -6.3411 C   0  0  1  0  0  0  0  0  0  0  0  0
    6.2151  -17.0652   -4.9648 O   0  0  0  0  0  0  0  0  0  0  0  0
    4.5342  -17.7453   -6.5244 C   0  0  2  0  0  0  0  0  0  0  0  0
    4.4456  -18.6995   -7.6637 N   0  0  0  0  0  0  0  0  0  0  0  0
    4.2514  -18.3512   -8.9767 C   0  0  0  0  0  0  0  0  0  0  0  0
    4.2241  -19.4710   -9.7335 N   0  0  0  0  0  0  0  0  0  0  0  0
    4.4059  -20.5350   -8.9342 C   0  0  0  0  0  0  0  0  0  0  0  0
    4.4723  -21.8950   -9.1960 C   0  0  0  0  0  0  0  0  0  0  0  0
    4.3476  -22.3452  -10.4375 N   0  0  0  0  0  0  0  0  0  0  0  0
    4.6760  -22.7730   -8.1500 N   0  0  0  0  0  0  0  0  0  0  0  0
    4.8180  -22.3148   -6.8463 C   0  0  0  0  0  0  0  0  0  0  0  0
    4.7549  -20.9573   -6.6058 N   0  0  0  0  0  0  0  0  0  0  0  0
    4.5457  -20.0759   -7.6268 C   0  0  0  0  0  0  0  0  0  0  0  0
  2  3  1  6  0  0  0
  2  6  1  0  0  0  0
  2  1  1  0  0  0  0
  4  3  2  0  0  0  0
  5  3  1  0  0  0  0
  6  7  2  0  0  0  0
  8  7  1  6  0  0  0
  8  9  1  0  0  0  0
  8 10  1  0  0  0  0
 11 10  1  6  0  0  0
 11 13  1  0  0  0  0
 12 11  1  0  0  0  0
 12 17  1  0  0  0  0
 13 14  1  1  0  0  0
 13 15  1  0  0  0  0
 15 16  1  1  0  0  0
 17 18  1  6  0  0  0
 17 15  1  0  0  0  0
 18 19  1  0  0  0  0
 20 19  2  0  0  0  0
 21 27  2  0  0  0  0
 21 20  1  0  0  0  0
 22 21  1  0  0  0  0
 23 22  1  0  0  0  0
 24 22  2  0  0  0  0
 24 25  1  0  0  0  0
 25 26  2  0  0  0  0
 26 27  1  0  0  0  0
 27 18  1  0  0  0  0
M  END
>  <CHROM.1>
48.40332879,-124.75609428,72.05825109,-87.09934440,39.60555497,38.33051943
3.66572192,-17.31522113,-8.40599345,2.39013101,-1.01170937,0.50646394

>  <Name>
lig.pdb

>  <RI>
0

>  <Rbt.Current_Directory>
/home/itssahil/PROJECTS/Mol_Feturizer/New_Systems/rnas/4b5r

>  <Rbt.Executable>
rbdock ($Id: //depot/dev/client3/rdock/2013.1/src/exe/rbdock.cxx#4 $)

>  <Rbt.Library>
libRbt.so (2013.1, Build901 2013/11/27)

>  <Rbt.Parameter_File>
/export/apps/rDock/src/rDock_2013.1_src/data/scripts/dock_solv.prm

>  <Rbt.Receptor>
prm/pocket_docking_7.prm

>  <SCORE>
-13.8325

>  <SCORE.INTER>
-14.5914

>  <SCORE.INTER.CONST>
1

>  <SCORE.INTER.POLAR>
0

>  <SCORE.INTER.ROT>
6

>  <SCORE.INTER.SOLV>
11.8999

>  <SCORE.INTER.VDW>
-21.2943

>  <SCORE.INTER.norm>
-0.540423

>  <SCORE.INTRA>
0.75897

>  <SCORE.INTRA.DIHEDRAL>
0.501597

>  <SCORE.INTRA.DIHEDRAL.0>
10.2917

>  <SCORE.INTRA.POLAR>
0

>  <SCORE.INTRA.POLAR.0>
0

>  <SCORE.INTRA.REPUL>
0.0116982

>  <SCORE.INTRA.REPUL.0>
0

>  <SCORE.INTRA.SOLV>
-1.19304

>  <SCORE.INTRA.SOLV.lig_0>
-39.6315

>  <SCORE.INTRA.VDW>
1.0462

>  <SCORE.INTRA.VDW.0>
-4.02152

>  <SCORE.INTRA.norm>
0.02811

>  <SCORE.RESTR>
0

>  <SCORE.RESTR.CAVITY>
0

>  <SCORE.RESTR.norm>
0

>  <SCORE.SYSTEM>
0

>  <SCORE.SYSTEM.CONST>
0

>  <SCORE.SYSTEM.DIHEDRAL>
0

>  <SCORE.SYSTEM.SOLV>
0

>  <SCORE.SYSTEM.norm>
0

>  <SCORE.heavy>
27

>  <SCORE.norm>
-0.512313

>  <RMSD>
4.767

$$$$
lig.pdb
 OpenBabel11021811493D
libRbt.so/2013.1/901 2013/11/27
 27 29  0  0  0  0  0  0  0  0999 V2000
    5.5328  -15.8185  -12.9069 N   0  0  0  0  0  0  0  0  0  0  0  0
    4.3974  -16.6710  -13.3739 C   0  0  2  0  0  0  0  0  0  0  0  0
    3.4371  -15.8171  -14.1965 C   0  0  0  0  0  0  0  0  0  0  0  0
    2.2478  -15.7910  -13.9023 O   0  0  0  0  0  0  0  0  0  0  0  0
    3.8036  -15.1413  -15.1665 O   0  0  0  0  0  0  0  0  0  0  0  0
    3.6699  -17.4125  -12.2343 C   0  0  0  0  0  0  0  0  0  0  0  0
    4.2458  -17.2325  -10.8051 C   0  0  0  0  0  0  0  0  0  0  0  0
    3.4267  -18.0976   -9.3965 S   0  0  2  0  0  0  0  0  0  0  0  0
    3.3116  -19.7843  -10.0299 C   0  0  0  0  0  0  0  0  0  0  0  0
    1.6967  -17.5993   -9.5405 C   0  0  0  0  0  0  0  0  0  0  0  0
    1.4996  -16.2358   -8.8912 C   0  0  1  0  0  0  0  0  0  0  0  0
    1.8754  -16.2229   -7.5223 O   0  0  0  0  0  0  0  0  0  0  0  0
    2.3497  -15.1581   -9.5086 C   0  0  1  0  0  0  0  0  0  0  0  0
    1.7779  -14.7210  -10.7077 O   0  0  0  0  0  0  0  0  0  0  0  0
    2.3103  -14.1124   -8.4163 C   0  0  1  0  0  0  0  0  0  0  0  0
    1.1226  -13.3528   -8.5118 O   0  0  0  0  0  0  0  0  0  0  0  0
    2.2768  -14.9236   -7.1259 C   0  0  2  0  0  0  0  0  0  0  0  0
    3.5559  -14.9512   -6.3646 N   0  0  0  0  0  0  0  0  0  0  0  0
    4.0999  -13.8879   -5.6892 C   0  0  0  0  0  0  0  0  0  0  0  0
    5.2613  -14.2740   -5.1152 N   0  0  0  0  0  0  0  0  0  0  0  0
    5.4724  -15.5694   -5.4005 C   0  0  0  0  0  0  0  0  0  0  0  0
    6.4915  -16.4441   -5.0557 C   0  0  0  0  0  0  0  0  0  0  0  0
    7.5017  -16.0319   -4.3013 N   0  0  0  0  0  0  0  0  0  0  0  0
    6.4381  -17.7498   -5.5019 N   0  0  0  0  0  0  0  0  0  0  0  0
    5.3813  -18.1976   -6.2844 C   0  0  0  0  0  0  0  0  0  0  0  0
    4.3732  -17.3141   -6.6126 N   0  0  0  0  0  0  0  0  0  0  0  0
    4.4142  -16.0178   -6.1871 C   0  0  0  0  0  0  0  0  0  0  0  0
  2  3  1  1  0  0  0
  2  6  1  0  0  0  0
  2  1  1  0  0  0  0
  4  3  2  0  0  0  0
  5  3  1  0  0  0  0
  6  7  2  0  0  0  0
  8  7  1  6  0  0  0
  8  9  1  0  0  0  0
  8 10  1  0  0  0  0
 11 10  1  6  0  0  0
 11 13  1  0  0  0  0
 12 11  1  0  0  0  0
 12 17  1  0  0  0  0
 13 14  1  6  0  0  0
 13 15  1  0  0  0  0
 15 16  1  6  0  0  0
 17 18  1  6  0  0  0
 17 15  1  0  0  0  0
 18 19  1  0  0  0  0
 20 19  2  0  0  0  0
 21 27  2  0  0  0  0
 21 20  1  0  0  0  0
 22 21  1  0  0  0  0
 23 22  1  0  0  0  0
 24 22  2  0  0  0  0
 24 25  1  0  0  0  0
 25 26  2  0  0  0  0
 26 27  1  0  0  0  0
 27 18  1  0  0  0  0
M  END
>  <CHROM.1>
-126.47654215,-2.90378569,49.98552588,-82.71303478,-58.21624805,-170.24961905
3.70350540,-16.17466338,-8.94675379,-1.94223744,-0.80706178,1.27142616

>  <Name>
lig.pdb

>  <RI>
0

>  <Rbt.Current_Directory>
/home/itssahil/PROJECTS/Mol_Feturizer/New_Systems/rnas/4b5r

>  <Rbt.Executable>
rbdock ($Id: //depot/dev/client3/rdock/2013.1/src/exe/rbdock.cxx#4 $)

>  <Rbt.Library>
libRbt.so (2013.1, Build901 2013/11/27)

>  <Rbt.Parameter_File>
/export/apps/rDock/src/rDock_2013.1_src/data/scripts/dock_solv.prm

>  <Rbt.Receptor>
prm/pocket_docking_5.prm

>  <SCORE>
-14.0276

>  <SCORE.INTER>
-13.9343

>  <SCORE.INTER.CONST>
1

>  <SCORE.INTER.POLAR>
0

>  <SCORE.INTER.ROT>
6

>  <SCORE.INTER.SOLV>
12.0716

>  <SCORE.INTER.VDW>
-20.9134

>  <SCORE.INTER.norm>
-0.516085

>  <SCORE.INTRA>
-0.0933563

>  <SCORE.INTRA.DIHEDRAL>
-1.06656

>  <SCORE.INTRA.DIHEDRAL.0>
10.2917

>  <SCORE.INTRA.POLAR>
0

>  <SCORE.INTRA.POLAR.0>
0

>  <SCORE.INTRA.REPUL>
0

>  <SCORE.INTRA.REPUL.0>
0

>  <SCORE.INTRA.SOLV>
-0.822591

>  <SCORE.INTRA.SOLV.lig_0>
-39.6315

>  <SCORE.INTRA.VDW>
0.85122

>  <SCORE.INTRA.VDW.0>
-4.02152

>  <SCORE.INTRA.norm>
-0.00345764

>  <SCORE.RESTR>
0

>  <SCORE.RESTR.CAVITY>
0

>  <SCORE.RESTR.norm>
0

>  <SCORE.SYSTEM>
0

>  <SCORE.SYSTEM.CONST>
0

>  <SCORE.SYSTEM.DIHEDRAL>
0

>  <SCORE.SYSTEM.SOLV>
0

>  <SCORE.SYSTEM.norm>
0

>  <SCORE.heavy>
27

>  <SCORE.norm>
-0.519542

>  <RMSD>
4.782

$$$$
lig.pdb
 OpenBabel11021811493D
libRbt.so/2013.1/901 2013/11/27
 27 29  0  0  0  0  0  0  0  0999 V2000
    4.0588  -17.0442  -12.0870 N   0  0  0  0  0  0  0  0  0  0  0  0
    2.5690  -17.1576  -12.0478 C   0  0  2  0  0  0  0  0  0  0  0  0
    1.9617  -16.0647  -12.9225 C   0  0  0  0  0  0  0  0  0  0  0  0
    1.5523  -16.3451  -14.0430 O   0  0  0  0  0  0  0  0  0  0  0  0
    1.8646  -14.8873  -12.5535 O   0  0  0  0  0  0  0  0  0  0  0  0
    1.9836  -17.1392  -10.6214 C   0  0  0  0  0  0  0  0  0  0  0  0
    2.8442  -16.4622   -9.5224 C   0  0  0  0  0  0  0  0  0  0  0  0
    2.2053  -16.4115   -7.7924 S   0  0  2  0  0  0  0  0  0  0  0  0
    0.4464  -16.1121   -8.0686 C   0  0  0  0  0  0  0  0  0  0  0  0
    2.7035  -14.7785   -7.2035 C   0  0  0  0  0  0  0  0  0  0  0  0
    4.1763  -14.7998   -6.8166 C   0  0  1  0  0  0  0  0  0  0  0  0
    4.4545  -15.7241   -5.7756 O   0  0  0  0  0  0  0  0  0  0  0  0
    5.0768  -15.2399   -7.9394 C   0  0  1  0  0  0  0  0  0  0  0  0
    5.2801  -14.1855   -8.8355 O   0  0  0  0  0  0  0  0  0  0  0  0
    6.3235  -15.6115   -7.1674 C   0  0  1  0  0  0  0  0  0  0  0  0
    7.0874  -14.4555   -6.8902 O   0  0  0  0  0  0  0  0  0  0  0  0
    5.7930  -16.1806   -5.8562 C   0  0  2  0  0  0  0  0  0  0  0  0
    5.8776  -17.6617   -5.7313 N   0  0  0  0  0  0  0  0  0  0  0  0
    6.5841  -18.3373   -4.7683 C   0  0  0  0  0  0  0  0  0  0  0  0
    6.4353  -19.6672   -4.9598 N   0  0  0  0  0  0  0  0  0  0  0  0
    5.6386  -19.8622   -6.0235 C   0  0  0  0  0  0  0  0  0  0  0  0
    5.1658  -21.0143   -6.6331 C   0  0  0  0  0  0  0  0  0  0  0  0
    5.4978  -22.2078   -6.1591 N   0  0  0  0  0  0  0  0  0  0  0  0
    4.3408  -20.9032   -7.7349 N   0  0  0  0  0  0  0  0  0  0  0  0
    3.9772  -19.6597   -8.2361 C   0  0  0  0  0  0  0  0  0  0  0  0
    4.4530  -18.5241   -7.6126 N   0  0  0  0  0  0  0  0  0  0  0  0
    5.2761  -18.6156   -6.5276 C   0  0  0  0  0  0  0  0  0  0  0  0
  2  3  1  6  0  0  0
  2  6  1  0  0  0  0
  2  1  1  0  0  0  0
  4  3  2  0  0  0  0
  5  3  1  0  0  0  0
  6  7  2  0  0  0  0
  8  7  1  6  0  0  0
  8  9  1  0  0  0  0
  8 10  1  0  0  0  0
 11 10  1  6  0  0  0
 11 13  1  0  0  0  0
 12 11  1  0  0  0  0
 12 17  1  0  0  0  0
 13 14  1  6  0  0  0
 13 15  1  0  0  0  0
 15 16  1  1  0  0  0
 17 18  1  6  0  0  0
 17 15  1  0  0  0  0
 18 19  1  0  0  0  0
 20 19  2  0  0  0  0
 21 27  2  0  0  0  0
 21 20  1  0  0  0  0
 22 21  1  0  0  0  0
 23 22  1  0  0  0  0
 24 22  2  0  0  0  0
 24 25  1  0  0  0  0
 25 26  2  0  0  0  0
 26 27  1  0  0  0  0
 27 18  1  0  0  0  0
M  END
>  <CHROM.1>
101.58081436,23.80308468,-38.34838129,-78.89427893,-60.70076007,-121.09304437
4.09184269,-17.10696402,-8.19138391,2.74296394,-1.01704158,-0.00209292

>  <Name>
lig.pdb

>  <RI>
0

>  <Rbt.Current_Directory>
/home/itssahil/PROJECTS/Mol_Feturizer/New_Systems/rnas/4b5r

>  <Rbt.Executable>
rbdock ($Id: //depot/dev/client3/rdock/2013.1/src/exe/rbdock.cxx#4 $)

>  <Rbt.Library>
libRbt.so (2013.1, Build901 2013/11/27)

>  <Rbt.Parameter_File>
/export/apps/rDock/src/rDock_2013.1_src/data/scripts/dock_solv.prm

>  <Rbt.Receptor>
prm/pocket_docking_7.prm

>  <SCORE>
-15.256

>  <SCORE.INTER>
-13.8278

>  <SCORE.INTER.CONST>
1

>  <SCORE.INTER.POLAR>
0

>  <SCORE.INTER.ROT>
6

>  <SCORE.INTER.SOLV>
10.9566

>  <SCORE.INTER.VDW>
-20.4708

>  <SCORE.INTER.norm>
-0.512141

>  <SCORE.INTRA>
-1.4556

>  <SCORE.INTRA.DIHEDRAL>
-2.23153

>  <SCORE.INTRA.DIHEDRAL.0>
10.2917

>  <SCORE.INTRA.POLAR>
0

>  <SCORE.INTRA.POLAR.0>
0

>  <SCORE.INTRA.REPUL>
0

>  <SCORE.INTRA.REPUL.0>
0

>  <SCORE.INTRA.SOLV>
-1.3798

>  <SCORE.INTRA.SOLV.lig_0>
-39.6315

>  <SCORE.INTRA.VDW>
0.350065

>  <SCORE.INTRA.VDW.0>
-4.02152

>  <SCORE.INTRA.norm>
-0.0539112

>  <SCORE.RESTR>
0.0273802

>  <SCORE.RESTR.CAVITY>
0.0273802

>  <SCORE.RESTR.norm>
0.00101408

>  <SCORE.SYSTEM>
0

>  <SCORE.SYSTEM.CONST>
0

>  <SCORE.SYSTEM.DIHEDRAL>
0

>  <SCORE.SYSTEM.SOLV>
0

>  <SCORE.SYSTEM.norm>
0

>  <SCORE.heavy>
27

>  <SCORE.norm>
-0.565038

>  <RMSD>
4.867

$$$$
lig.pdb
 OpenBabel11021811493D
libRbt.so/2013.1/901 2013/11/27
 27 29  0  0  0  0  0  0  0  0999 V2000
    3.1566  -15.4461  -13.3186 N   0  0  0  0  0  0  0  0  0  0  0  0
    2.9136  -14.4881  -12.1973 C   0  0  2  0  0  0  0  0  0  0  0  0
    4.0906  -13.5218  -12.1022 C   0  0  0  0  0  0  0  0  0  0  0  0
    4.7585  -13.2825  -13.1013 O   0  0  0  0  0  0  0  0  0  0  0  0
    4.4142  -12.9612  -11.0473 O   0  0  0  0  0  0  0  0  0  0  0  0
    2.6275  -15.1751  -10.8468 C   0  0  0  0  0  0  0  0  0  0  0  0
    1.2065  -15.7661  -10.6514 C   0  0  0  0  0  0  0  0  0  0  0  0
    0.7959  -16.5960   -9.0558 S   0  0  2  0  0  0  0  0  0  0  0  0
   -0.9986  -16.4048   -9.0038 C   0  0  0  0  0  0  0  0  0  0  0  0
    1.2683  -15.3773   -7.8095 C   0  0  0  0  0  0  0  0  0  0  0  0
    2.5715  -15.8013   -7.1451 C   0  0  1  0  0  0  0  0  0  0  0  0
    2.5899  -17.1805   -6.8089 O   0  0  0  0  0  0  0  0  0  0  0  0
    3.7725  -15.6315   -8.0362 C   0  0  1  0  0  0  0  0  0  0  0  0
    4.1681  -14.2903   -8.0612 O   0  0  0  0  0  0  0  0  0  0  0  0
    4.7676  -16.5310   -7.3369 C   0  0  1  0  0  0  0  0  0  0  0  0
    5.3646  -15.8476   -6.2537 O   0  0  0  0  0  0  0  0  0  0  0  0
    3.9176  -17.6740   -6.7932 C   0  0  2  0  0  0  0  0  0  0  0  0
    4.0362  -18.9578   -7.5375 N   0  0  0  0  0  0  0  0  0  0  0  0
    4.5351  -20.1287   -7.0247 C   0  0  0  0  0  0  0  0  0  0  0  0
    4.4916  -21.0852   -7.9790 N   0  0  0  0  0  0  0  0  0  0  0  0
    3.9658  -20.5554   -9.0956 C   0  0  0  0  0  0  0  0  0  0  0  0
    3.6939  -21.0957  -10.3432 C   0  0  0  0  0  0  0  0  0  0  0  0
    3.9617  -22.3704  -10.5942 N   0  0  0  0  0  0  0  0  0  0  0  0
    3.1358  -20.2924  -11.3179 N   0  0  0  0  0  0  0  0  0  0  0  0
    2.8413  -18.9584  -11.0660 C   0  0  0  0  0  0  0  0  0  0  0  0
    3.1135  -18.4398   -9.8164 N   0  0  0  0  0  0  0  0  0  0  0  0
    3.6728  -19.2173   -8.8438 C   0  0  0  0  0  0  0  0  0  0  0  0
  2  3  1  1  0  0  0
  2  6  1  0  0  0  0
  2  1  1  0  0  0  0
  4  3  2  0  0  0  0
  5  3  1  0  0  0  0
  6  7  2  0  0  0  0
  8  7  1  6  0  0  0
  8  9  1  0  0  0  0
  8 10  1  0  0  0  0
 11 10  1  6  0  0  0
 11 13  1  0  0  0  0
 12 11  1  0  0  0  0
 12 17  1  0  0  0  0
 13 14  1  1  0  0  0
 13 15  1  0  0  0  0
 15 16  1  1  0  0  0
 17 18  1  6  0  0  0
 17 15  1  0  0  0  0
 18 19  1  0  0  0  0
 20 19  2  0  0  0  0
 21 27  2  0  0  0  0
 21 20  1  0  0  0  0
 22 21  1  0  0  0  0
 23 22  1  0  0  0  0
 24 22  2  0  0  0  0
 24 25  1  0  0  0  0
 25 26  2  0  0  0  0
 26 27  1  0  0  0  0
 27 18  1  0  0  0  0
M  END
>  <CHROM.1>
26.34825525,-77.17078261,155.06110608,-104.74270559,-44.62698766,-124.41401816
3.17767499,-17.04205844,-9.34677998,3.08170854,-1.48990797,1.13081700

>  <Name>
lig.pdb

>  <RI>
0

>  <Rbt.Current_Directory>
/home/itssahil/PROJECTS/Mol_Feturizer/New_Systems/rnas/4b5r

>  <Rbt.Executable>
rbdock ($Id: //depot/dev/client3/rdock/2013.1/src/exe/rbdock.cxx#4 $)

>  <Rbt.Library>
libRbt.so (2013.1, Build901 2013/11/27)

>  <Rbt.Parameter_File>
/export/apps/rDock/src/rDock_2013.1_src/data/scripts/dock_solv.prm

>  <Rbt.Receptor>
prm/blind_docking_40.prm

>  <SCORE>
-14.8627

>  <SCORE.INTER>
-15.0155

>  <SCORE.INTER.CONST>
1

>  <SCORE.INTER.POLAR>
0

>  <SCORE.INTER.ROT>
6

>  <SCORE.INTER.SOLV>
14.9717

>  <SCORE.INTER.VDW>
-22.6009

>  <SCORE.INTER.norm>
-0.55613

>  <SCORE.INTRA>
0.152798

>  <SCORE.INTRA.DIHEDRAL>
2.55286

>  <SCORE.INTRA.DIHEDRAL.0>
10.2917

>  <SCORE.INTRA.POLAR>
0

>  <SCORE.INTRA.POLAR.0>
0

>  <SCORE.INTRA.REPUL>
0

>  <SCORE.INTRA.REPUL.0>
0

>  <SCORE.INTRA.SOLV>
-1.00025

>  <SCORE.INTRA.SOLV.lig_0>
-39.6315

>  <SCORE.INTRA.VDW>
-0.623508

>  <SCORE.INTRA.VDW.0>
-4.02152

>  <SCORE.INTRA.norm>
0.0056592

>  <SCORE.RESTR>
0

>  <SCORE.RESTR.CAVITY>
0

>  <SCORE.RESTR.norm>
0

>  <SCORE.SYSTEM>
0

>  <SCORE.SYSTEM.CONST>
0

>  <SCORE.SYSTEM.DIHEDRAL>
0

>  <SCORE.SYSTEM.SOLV>
0

>  <SCORE.SYSTEM.norm>
0

>  <SCORE.heavy>
27

>  <SCORE.norm>
-0.550471

>  <RMSD>
4.876

$$$$
lig.pdb
 OpenBabel11021811493D
libRbt.so/2013.1/901 2013/11/27
 27 29  0  0  0  0  0  0  0  0999 V2000
    5.7607  -16.7031  -14.1114 N   0  0  0  0  0  0  0  0  0  0  0  0
    4.3771  -16.8318  -13.5609 C   0  0  2  0  0  0  0  0  0  0  0  0
    3.4766  -15.7951  -14.2260 C   0  0  0  0  0  0  0  0  0  0  0  0
    2.2779  -15.7833  -13.9713 O   0  0  0  0  0  0  0  0  0  0  0  0
    3.9015  -14.9536  -15.0280 O   0  0  0  0  0  0  0  0  0  0  0  0
    4.3117  -16.7430  -12.0228 C   0  0  0  0  0  0  0  0  0  0  0  0
    3.2452  -17.6216  -11.3176 C   0  0  0  0  0  0  0  0  0  0  0  0
    3.1093  -17.5579   -9.4789 S   0  0  2  0  0  0  0  0  0  0  0  0
    3.0287  -19.3133   -9.0645 C   0  0  0  0  0  0  0  0  0  0  0  0
    1.3856  -17.0987   -9.1963 C   0  0  0  0  0  0  0  0  0  0  0  0
    1.3230  -15.7584   -8.4758 C   0  0  1  0  0  0  0  0  0  0  0  0
    1.8734  -15.8146   -7.1684 O   0  0  0  0  0  0  0  0  0  0  0  0
    2.1239  -14.6820   -9.1580 C   0  0  1  0  0  0  0  0  0  0  0  0
    1.4174  -14.1776  -10.2546 O   0  0  0  0  0  0  0  0  0  0  0  0
    2.2637  -13.6825   -8.0312 C   0  0  1  0  0  0  0  0  0  0  0  0
    1.1015  -12.8837   -7.9416 O   0  0  0  0  0  0  0  0  0  0  0  0
    2.3688  -14.5459   -6.7791 C   0  0  2  0  0  0  0  0  0  0  0  0
    3.7340  -14.6445   -6.1935 N   0  0  0  0  0  0  0  0  0  0  0  0
    4.4137  -13.6171   -5.5888 C   0  0  0  0  0  0  0  0  0  0  0  0
    5.6201  -14.0657   -5.1756 N   0  0  0  0  0  0  0  0  0  0  0  0
    5.7280  -15.3660   -5.4947 C   0  0  0  0  0  0  0  0  0  0  0  0
    6.7393  -16.2928   -5.2930 C   0  0  0  0  0  0  0  0  0  0  0  0
    7.8590  -15.9391   -4.6759 N   0  0  0  0  0  0  0  0  0  0  0  0
    6.5637  -17.5885   -5.7368 N   0  0  0  0  0  0  0  0  0  0  0  0
    5.3925  -17.9752   -6.3759 C   0  0  0  0  0  0  0  0  0  0  0  0
    4.3946  -17.0403   -6.5624 N   0  0  0  0  0  0  0  0  0  0  0  0
    4.5548  -15.7531   -6.1377 C   0  0  0  0  0  0  0  0  0  0  0  0
  2  3  1  6  0  0  0
  2  6  1  0  0  0  0
  2  1  1  0  0  0  0
  4  3  2  0  0  0  0
  5  3  1  0  0  0  0
  6  7  2  0  0  0  0
  8  7  1  6  0  0  0
  8  9  1  0  0  0  0
  8 10  1  0  0  0  0
 11 10  1  6  0  0  0
 11 13  1  0  0  0  0
 12 11  1  0  0  0  0
 12 17  1  0  0  0  0
 13 14  1  6  0  0  0
 13 15  1  0  0  0  0
 15 16  1  1  0  0  0
 17 18  1  6  0  0  0
 17 15  1  0  0  0  0
 18 19  1  0  0  0  0
 20 19  2  0  0  0  0
 21 27  2  0  0  0  0
 21 20  1  0  0  0  0
 22 21  1  0  0  0  0
 23 22  1  0  0  0  0
 24 22  2  0  0  0  0
 24 25  1  0  0  0  0
 25 26  2  0  0  0  0
 26 27  1  0  0  0  0
 27 18  1  0  0  0  0
M  END
>  <CHROM.1>
175.75261343,-145.23375499,-133.43099978,-117.72127099,-65.11573631,-172.20021040
3.69774905,-15.92339473,-8.87959264,-1.85530259,-0.62621096,1.32952178

>  <Name>
lig.pdb

>  <RI>
0

>  <Rbt.Current_Directory>
/home/itssahil/PROJECTS/Mol_Feturizer/New_Systems/rnas/4b5r

>  <Rbt.Executable>
rbdock ($Id: //depot/dev/client3/rdock/2013.1/src/exe/rbdock.cxx#4 $)

>  <Rbt.Library>
libRbt.so (2013.1, Build901 2013/11/27)

>  <Rbt.Parameter_File>
/export/apps/rDock/src/rDock_2013.1_src/data/scripts/dock_solv.prm

>  <Rbt.Receptor>
prm/pocket_docking_3.prm

>  <SCORE>
-12.8105

>  <SCORE.INTER>
-13.821

>  <SCORE.INTER.CONST>
1

>  <SCORE.INTER.POLAR>
0

>  <SCORE.INTER.ROT>
6

>  <SCORE.INTER.SOLV>
15.5482

>  <SCORE.INTER.VDW>
-21.9967

>  <SCORE.INTER.norm>
-0.511888

>  <SCORE.INTRA>
1.0105

>  <SCORE.INTRA.DIHEDRAL>
3.42869

>  <SCORE.INTRA.DIHEDRAL.0>
10.2917

>  <SCORE.INTRA.POLAR>
0

>  <SCORE.INTRA.POLAR.0>
0

>  <SCORE.INTRA.REPUL>
0.00155819

>  <SCORE.INTRA.REPUL.0>
0

>  <SCORE.INTRA.SOLV>
-2.0123

>  <SCORE.INTRA.SOLV.lig_0>
-39.6315

>  <SCORE.INTRA.VDW>
0.294511

>  <SCORE.INTRA.VDW.0>
-4.02152

>  <SCORE.INTRA.norm>
0.0374259

>  <SCORE.RESTR>
0

>  <SCORE.RESTR.CAVITY>
0

>  <SCORE.RESTR.norm>
0

>  <SCORE.SYSTEM>
0

>  <SCORE.SYSTEM.CONST>
0

>  <SCORE.SYSTEM.DIHEDRAL>
0

>  <SCORE.SYSTEM.SOLV>
0

>  <SCORE.SYSTEM.norm>
0

>  <SCORE.heavy>
27

>  <SCORE.norm>
-0.474462

>  <RMSD>
4.883

$$$$
lig.pdb
 OpenBabel11021811493D
libRbt.so/2013.1/901 2013/11/27
 27 29  0  0  0  0  0  0  0  0999 V2000
    1.1601  -17.5633   -9.8121 N   0  0  0  0  0  0  0  0  0  0  0  0
    0.7002  -16.2211  -10.2823 C   0  0  2  0  0  0  0  0  0  0  0  0
    1.6506  -15.7186  -11.3651 C   0  0  0  0  0  0  0  0  0  0  0  0
    2.6099  -16.4064  -11.6940 O   0  0  0  0  0  0  0  0  0  0  0  0
    1.5024  -14.6297  -11.9345 O   0  0  0  0  0  0  0  0  0  0  0  0
    0.5314  -15.1914   -9.1470 C   0  0  0  0  0  0  0  0  0  0  0  0
    1.7040  -15.0649   -8.1393 C   0  0  0  0  0  0  0  0  0  0  0  0
    1.5638  -13.8560   -6.7528 S   0  0  2  0  0  0  0  0  0  0  0  0
    1.1317  -12.3433   -7.6386 C   0  0  0  0  0  0  0  0  0  0  0  0
    3.2818  -13.4855   -6.3372 C   0  0  0  0  0  0  0  0  0  0  0  0
    3.9975  -14.7650   -5.9248 C   0  0  1  0  0  0  0  0  0  0  0  0
    3.6695  -15.8672   -6.7572 O   0  0  0  0  0  0  0  0  0  0  0  0
    5.4955  -14.6658   -6.0318 C   0  0  1  0  0  0  0  0  0  0  0  0
    6.0119  -13.9688   -4.9348 O   0  0  0  0  0  0  0  0  0  0  0  0
    5.8722  -16.1308   -6.0351 C   0  0  1  0  0  0  0  0  0  0  0  0
    5.9113  -16.6267   -4.7124 O   0  0  0  0  0  0  0  0  0  0  0  0
    4.7290  -16.8070   -6.7837 C   0  0  2  0  0  0  0  0  0  0  0  0
    5.0504  -17.2348   -8.1729 N   0  0  0  0  0  0  0  0  0  0  0  0
    4.6585  -18.4167   -8.7495 C   0  0  0  0  0  0  0  0  0  0  0  0
    5.1273  -18.4693  -10.0164 N   0  0  0  0  0  0  0  0  0  0  0  0
    5.8069  -17.3391  -10.2709 C   0  0  0  0  0  0  0  0  0  0  0  0
    6.4701  -16.8866  -11.4014 C   0  0  0  0  0  0  0  0  0  0  0  0
    6.5028  -17.6281  -12.5008 N   0  0  0  0  0  0  0  0  0  0  0  0
    7.0900  -15.6531  -11.3701 N   0  0  0  0  0  0  0  0  0  0  0  0
    7.0556  -14.8619  -10.2288 C   0  0  0  0  0  0  0  0  0  0  0  0
    6.3857  -15.3264   -9.1152 N   0  0  0  0  0  0  0  0  0  0  0  0
    5.7746  -16.5469   -9.1259 C   0  0  0  0  0  0  0  0  0  0  0  0
  2  3  1  6  0  0  0
  2  6  1  0  0  0  0
  2  1  1  0  0  0  0
  4  3  2  0  0  0  0
  5  3  1  0  0  0  0
  6  7  2  0  0  0  0
  8  7  1  6  0  0  0
  8  9  1  0  0  0  0
  8 10  1  0  0  0  0
 11 10  1  6  0  0  0
 11 13  1  0  0  0  0
 12 11  1  0  0  0  0
 12 17  1  0  0  0  0
 13 14  1  1  0  0  0
 13 15  1  0  0  0  0
 15 16  1  1  0  0  0
 17 18  1  6  0  0  0
 17 15  1  0  0  0  0
 18 19  1  0  0  0  0
 20 19  2  0  0  0  0
 21 27  2  0  0  0  0
 21 20  1  0  0  0  0
 22 21  1  0  0  0  0
 23 22  1  0  0  0  0
 24 22  2  0  0  0  0
 24 25  1  0  0  0  0
 25 26  2  0  0  0  0
 26 27  1  0  0  0  0
 27 18  1  0  0  0  0
M  END
>  <CHROM.1>
-0.53814802,48.24946877,-52.04356651,-59.67859405,42.19742982,-101.57455974
3.98608889,-15.71512063,-8.58135000,1.25022568,0.33736892,-1.92729773

>  <Name>
lig.pdb

>  <RI>
0

>  <Rbt.Current_Directory>
/home/itssahil/PROJECTS/Mol_Feturizer/New_Systems/rnas/4b5r

>  <Rbt.Executable>
rbdock ($Id: //depot/dev/client3/rdock/2013.1/src/exe/rbdock.cxx#4 $)

>  <Rbt.Library>
libRbt.so (2013.1, Build901 2013/11/27)

>  <Rbt.Parameter_File>
/export/apps/rDock/src/rDock_2013.1_src/data/scripts/dock_solv.prm

>  <Rbt.Receptor>
prm/pocket_docking_3.prm

>  <SCORE>
-9.20109

>  <SCORE.INTER>
-11.4991

>  <SCORE.INTER.CONST>
1

>  <SCORE.INTER.POLAR>
0

>  <SCORE.INTER.ROT>
6

>  <SCORE.INTER.SOLV>
10.4308

>  <SCORE.INTER.VDW>
-18.743

>  <SCORE.INTER.norm>
-0.425893

>  <SCORE.INTRA>
1.72829

>  <SCORE.INTRA.DIHEDRAL>
0.268255

>  <SCORE.INTRA.DIHEDRAL.0>
10.2917

>  <SCORE.INTRA.POLAR>
0

>  <SCORE.INTRA.POLAR.0>
0

>  <SCORE.INTRA.REPUL>
0

>  <SCORE.INTRA.REPUL.0>
0

>  <SCORE.INTRA.SOLV>
-0.914795

>  <SCORE.INTRA.SOLV.lig_0>
-39.6315

>  <SCORE.INTRA.VDW>
2.05156

>  <SCORE.INTRA.VDW.0>
-4.02152

>  <SCORE.INTRA.norm>
0.0640109

>  <SCORE.RESTR>
0.569737

>  <SCORE.RESTR.CAVITY>
0.569737

>  <SCORE.RESTR.norm>
0.0211014

>  <SCORE.SYSTEM>
0

>  <SCORE.SYSTEM.CONST>
0

>  <SCORE.SYSTEM.DIHEDRAL>
0

>  <SCORE.SYSTEM.SOLV>
0

>  <SCORE.SYSTEM.norm>
0

>  <SCORE.heavy>
27

>  <SCORE.norm>
-0.340781

>  <RMSD>
4.903

$$$$
lig.pdb
 OpenBabel11021811493D
libRbt.so/2013.1/901 2013/11/27
 27 29  0  0  0  0  0  0  0  0999 V2000
    5.5291  -12.3639  -11.6895 N   0  0  0  0  0  0  0  0  0  0  0  0
    6.7677  -13.1306  -11.3546 C   0  0  2  0  0  0  0  0  0  0  0  0
    7.7032  -13.1195  -12.5599 C   0  0  0  0  0  0  0  0  0  0  0  0
    7.4035  -12.4650  -13.5516 O   0  0  0  0  0  0  0  0  0  0  0  0
    8.7659  -13.7532  -12.5896 O   0  0  0  0  0  0  0  0  0  0  0  0
    6.4932  -14.5642  -10.8573 C   0  0  0  0  0  0  0  0  0  0  0  0
    5.0217  -15.0524  -10.9120 C   0  0  0  0  0  0  0  0  0  0  0  0
    4.6233  -16.7557  -10.3259 S   0  0  2  0  0  0  0  0  0  0  0  0
    5.5646  -17.7647  -11.4901 C   0  0  0  0  0  0  0  0  0  0  0  0
    2.9546  -17.0416  -10.9547 C   0  0  0  0  0  0  0  0  0  0  0  0
    1.9471  -16.2847  -10.0995 C   0  0  1  0  0  0  0  0  0  0  0  0
    2.1589  -16.4748   -8.7087 O   0  0  0  0  0  0  0  0  0  0  0  0
    2.0250  -14.7919  -10.2752 C   0  0  1  0  0  0  0  0  0  0  0  0
    1.3783  -14.4113  -11.4554 O   0  0  0  0  0  0  0  0  0  0  0  0
    1.3064  -14.3267   -9.0280 C   0  0  1  0  0  0  0  0  0  0  0  0
   -0.0919  -14.3659   -9.2283 O   0  0  0  0  0  0  0  0  0  0  0  0
    1.6846  -15.3608   -7.9734 C   0  0  2  0  0  0  0  0  0  0  0  0
    2.6811  -14.9007   -6.9677 N   0  0  0  0  0  0  0  0  0  0  0  0
    2.5638  -13.7743   -6.1927 C   0  0  0  0  0  0  0  0  0  0  0  0
    3.6503  -13.6692   -5.3952 N   0  0  0  0  0  0  0  0  0  0  0  0
    4.4624  -14.7118   -5.6350 C   0  0  0  0  0  0  0  0  0  0  0  0
    5.6825  -15.0850   -5.0921 C   0  0  0  0  0  0  0  0  0  0  0  0
    6.2491  -14.3470   -4.1467 N   0  0  0  0  0  0  0  0  0  0  0  0
    6.2963  -16.2367   -5.5433 N   0  0  0  0  0  0  0  0  0  0  0  0
    5.7098  -17.0243   -6.5259 C   0  0  0  0  0  0  0  0  0  0  0  0
    4.4925  -16.6400   -7.0502 N   0  0  0  0  0  0  0  0  0  0  0  0
    3.8757  -15.5001   -6.6218 C   0  0  0  0  0  0  0  0  0  0  0  0
  2  3  1  6  0  0  0
  2  6  1  0  0  0  0
  2  1  1  0  0  0  0
  4  3  2  0  0  0  0
  5  3  1  0  0  0  0
  6  7  2  0  0  0  0
  8  7  1  6  0  0  0
  8  9  1  0  0  0  0
  8 10  1  0  0  0  0
 11 10  1  6  0  0  0
 11 13  1  0  0  0  0
 12 11  1  0  0  0  0
 12 17  1  0  0  0  0
 13 14  1  6  0  0  0
 13 15  1  0  0  0  0
 15 16  1  6  0  0  0
 17 18  1  1  0  0  0
 17 15  1  0  0  0  0
 18 19  1  0  0  0  0
 20 19  2  0  0  0  0
 21 27  2  0  0  0  0
 21 20  1  0  0  0  0
 22 21  1  0  0  0  0
 23 22  1  0  0  0  0
 24 22  2  0  0  0  0
 24 25  1  0  0  0  0
 25 26  2  0  0  0  0
 26 27  1  0  0  0  0
 27 18  1  0  0  0  0
M  END
>  <CHROM.1>
4.52130025,6.06151846,-62.79719083,-76.29875309,-47.45723092,173.68095364
4.32722447,-15.04150221,-9.11944767,-1.08830226,0.18088452,1.68499496

>  <Name>
lig.pdb

>  <RI>
0

>  <Rbt.Current_Directory>
/home/itssahil/PROJECTS/Mol_Feturizer/New_Systems/rnas/4b5r

>  <Rbt.Executable>
rbdock ($Id: //depot/dev/client3/rdock/2013.1/src/exe/rbdock.cxx#4 $)

>  <Rbt.Library>
libRbt.so (2013.1, Build901 2013/11/27)

>  <Rbt.Parameter_File>
/export/apps/rDock/src/rDock_2013.1_src/data/scripts/dock_solv.prm

>  <Rbt.Receptor>
prm/pocket_docking_4.prm

>  <SCORE>
-10.3141

>  <SCORE.INTER>
-10.2672

>  <SCORE.INTER.CONST>
1

>  <SCORE.INTER.POLAR>
0

>  <SCORE.INTER.ROT>
6

>  <SCORE.INTER.SOLV>
14.1244

>  <SCORE.INTER.VDW>
-19.1529

>  <SCORE.INTER.norm>
-0.380266

>  <SCORE.INTRA>
-0.0469681

>  <SCORE.INTRA.DIHEDRAL>
-2.35914

>  <SCORE.INTRA.DIHEDRAL.0>
10.2917

>  <SCORE.INTRA.POLAR>
0

>  <SCORE.INTRA.POLAR.0>
0

>  <SCORE.INTRA.REPUL>
0.170639

>  <SCORE.INTRA.REPUL.0>
0

>  <SCORE.INTRA.SOLV>
-1.49299

>  <SCORE.INTRA.SOLV.lig_0>
-39.6315

>  <SCORE.INTRA.VDW>
1.0259

>  <SCORE.INTRA.VDW.0>
-4.02152

>  <SCORE.INTRA.norm>
-0.00173956

>  <SCORE.RESTR>
0

>  <SCORE.RESTR.CAVITY>
0

>  <SCORE.RESTR.norm>
0

>  <SCORE.SYSTEM>
0

>  <SCORE.SYSTEM.CONST>
0

>  <SCORE.SYSTEM.DIHEDRAL>
0

>  <SCORE.SYSTEM.SOLV>
0

>  <SCORE.SYSTEM.norm>
0

>  <SCORE.heavy>
27

>  <SCORE.norm>
-0.382005

>  <RMSD>
4.909

$$$$
lig.pdb
 OpenBabel11021811493D
libRbt.so/2013.1/901 2013/11/27
 27 29  0  0  0  0  0  0  0  0999 V2000
    6.6950  -13.5210  -10.0788 N   0  0  0  0  0  0  0  0  0  0  0  0
    6.6045  -13.6538  -11.5648 C   0  0  2  0  0  0  0  0  0  0  0  0
    6.2341  -12.3010  -12.1656 C   0  0  0  0  0  0  0  0  0  0  0  0
    7.1087  -11.5994  -12.6601 O   0  0  0  0  0  0  0  0  0  0  0  0
    5.0755  -11.8660  -12.1744 O   0  0  0  0  0  0  0  0  0  0  0  0
    5.6450  -14.7677  -12.0299 C   0  0  0  0  0  0  0  0  0  0  0  0
    4.2173  -14.7576  -11.4231 C   0  0  0  0  0  0  0  0  0  0  0  0
    3.0211  -16.0666  -11.9320 S   0  0  2  0  0  0  0  0  0  0  0  0
    3.0955  -15.9400  -13.7315 C   0  0  0  0  0  0  0  0  0  0  0  0
    1.4094  -15.3059  -11.6395 C   0  0  0  0  0  0  0  0  0  0  0  0
    1.0307  -15.4542  -10.1718 C   0  0  1  0  0  0  0  0  0  0  0  0
    0.9696  -16.8106   -9.7575 O   0  0  0  0  0  0  0  0  0  0  0  0
    2.0351  -14.8365   -9.2363 C   0  0  1  0  0  0  0  0  0  0  0  0
    1.8602  -13.4497   -9.1889 O   0  0  0  0  0  0  0  0  0  0  0  0
    1.6692  -15.5256   -7.9403 C   0  0  1  0  0  0  0  0  0  0  0  0
    0.5719  -14.8730   -7.3345 O   0  0  0  0  0  0  0  0  0  0  0  0
    1.2378  -16.9230   -8.3711 C   0  0  2  0  0  0  0  0  0  0  0  0
    2.2223  -18.0029   -8.0869 N   0  0  0  0  0  0  0  0  0  0  0  0
    2.6740  -18.3564   -6.8403 C   0  0  0  0  0  0  0  0  0  0  0  0
    3.5566  -19.3732   -6.9600 N   0  0  0  0  0  0  0  0  0  0  0  0
    3.6762  -19.6884   -8.2601 C   0  0  0  0  0  0  0  0  0  0  0  0
    4.4294  -20.6477   -8.9196 C   0  0  0  0  0  0  0  0  0  0  0  0
    5.2171  -21.4675   -8.2362 N   0  0  0  0  0  0  0  0  0  0  0  0
    4.3444  -20.7426  -10.2946 N   0  0  0  0  0  0  0  0  0  0  0  0
    3.5165  -19.8971  -11.0221 C   0  0  0  0  0  0  0  0  0  0  0  0
    2.7699  -18.9523  -10.3478 N   0  0  0  0  0  0  0  0  0  0  0  0
    2.8481  -18.8390   -8.9898 C   0  0  0  0  0  0  0  0  0  0  0  0
  2  3  1  6  0  0  0
  2  6  1  0  0  0  0
  2  1  1  0  0  0  0
  4  3  2  0  0  0  0
  5  3  1  0  0  0  0
  6  7  2  0  0  0  0
  8  7  1  1  0  0  0
  8  9  1  0  0  0  0
  8 10  1  0  0  0  0
 11 10  1  6  0  0  0
 11 13  1  0  0  0  0
 12 11  1  0  0  0  0
 12 17  1  0  0  0  0
 13 14  1  1  0  0  0
 13 15  1  0  0  0  0
 15 16  1  6  0  0  0
 17 18  1  6  0  0  0
 17 15  1  0  0  0  0
 18 19  1  0  0  0  0
 20 19  2  0  0  0  0
 21 27  2  0  0  0  0
 21 20  1  0  0  0  0
 22 21  1  0  0  0  0
 23 22  1  0  0  0  0
 24 22  2  0  0  0  0
 24 25  1  0  0  0  0
 25 26  2  0  0  0  0
 26 27  1  0  0  0  0
 27 18  1  0  0  0  0
M  END
>  <CHROM.1>
100.20992960,51.01241755,-52.38556509,-82.79382619,-59.08018476,-179.56538755
3.43043113,-16.32291041,-10.09395848,-1.22184720,-0.57573149,2.84832067

>  <Name>
lig.pdb

>  <RI>
0

>  <Rbt.Current_Directory>
/home/itssahil/PROJECTS/Mol_Feturizer/New_Systems/rnas/4b5r

>  <Rbt.Executable>
rbdock ($Id: //depot/dev/client3/rdock/2013.1/src/exe/rbdock.cxx#4 $)

>  <Rbt.Library>
libRbt.so (2013.1, Build901 2013/11/27)

>  <Rbt.Parameter_File>
/export/apps/rDock/src/rDock_2013.1_src/data/scripts/dock_solv.prm

>  <Rbt.Receptor>
prm/pocket_docking_8.prm

>  <SCORE>
-13.6438

>  <SCORE.INTER>
-13.6717

>  <SCORE.INTER.CONST>
1

>  <SCORE.INTER.POLAR>
0

>  <SCORE.INTER.ROT>
6

>  <SCORE.INTER.SOLV>
14.4667

>  <SCORE.INTER.VDW>
-21.5367

>  <SCORE.INTER.norm>
-0.50636

>  <SCORE.INTRA>
0.0279056

>  <SCORE.INTRA.DIHEDRAL>
-0.250577

>  <SCORE.INTRA.DIHEDRAL.0>
10.2917

>  <SCORE.INTRA.POLAR>
0

>  <SCORE.INTRA.POLAR.0>
0

>  <SCORE.INTRA.REPUL>
0.0977306

>  <SCORE.INTRA.REPUL.0>
0

>  <SCORE.INTRA.SOLV>
-1.93389

>  <SCORE.INTRA.SOLV.lig_0>
-39.6315

>  <SCORE.INTRA.VDW>
0.631487

>  <SCORE.INTRA.VDW.0>
-4.02152

>  <SCORE.INTRA.norm>
0.00103354

>  <SCORE.RESTR>
0

>  <SCORE.RESTR.CAVITY>
0

>  <SCORE.RESTR.norm>
0

>  <SCORE.SYSTEM>
0

>  <SCORE.SYSTEM.CONST>
0

>  <SCORE.SYSTEM.DIHEDRAL>
0

>  <SCORE.SYSTEM.SOLV>
0

>  <SCORE.SYSTEM.norm>
0

>  <SCORE.heavy>
27

>  <SCORE.norm>
-0.505326

>  <RMSD>
4.921

$$$$
lig.pdb
 OpenBabel11021811493D
libRbt.so/2013.1/901 2013/11/27
 27 29  0  0  0  0  0  0  0  0999 V2000
    9.4159  -12.4797  -13.7060 N   0  0  0  0  0  0  0  0  0  0  0  0
    8.6283  -13.7467  -13.6149 C   0  0  2  0  0  0  0  0  0  0  0  0
    8.6171  -14.4271  -14.9805 C   0  0  0  0  0  0  0  0  0  0  0  0
    8.3085  -13.7812  -15.9752 O   0  0  0  0  0  0  0  0  0  0  0  0
    8.9038  -15.6209  -15.1371 O   0  0  0  0  0  0  0  0  0  0  0  0
    7.2021  -13.5510  -13.0621 C   0  0  0  0  0  0  0  0  0  0  0  0
    6.8442  -14.3228  -11.7649 C   0  0  0  0  0  0  0  0  0  0  0  0
    5.1519  -14.1383  -11.0538 S   0  0  2  0  0  0  0  0  0  0  0  0
    4.6548  -12.5368  -11.7227 C   0  0  0  0  0  0  0  0  0  0  0  0
    5.4615  -13.6688   -9.3375 C   0  0  0  0  0  0  0  0  0  0  0  0
    4.2202  -13.9426   -8.4986 C   0  0  1  0  0  0  0  0  0  0  0  0
    3.7236  -15.2612   -8.6718 O   0  0  0  0  0  0  0  0  0  0  0  0
    4.4732  -13.8442   -7.0182 C   0  0  1  0  0  0  0  0  0  0  0  0
    4.5012  -12.5032   -6.6222 O   0  0  0  0  0  0  0  0  0  0  0  0
    3.2763  -14.5970   -6.4805 C   0  0  1  0  0  0  0  0  0  0  0  0
    2.1477  -13.7479   -6.4334 O   0  0  0  0  0  0  0  0  0  0  0  0
    3.0301  -15.6908   -7.5137 C   0  0  2  0  0  0  0  0  0  0  0  0
    3.4483  -17.0576   -7.0974 N   0  0  0  0  0  0  0  0  0  0  0  0
    2.7375  -18.2087   -7.3267 C   0  0  0  0  0  0  0  0  0  0  0  0
    3.4159  -19.2590   -6.8128 N   0  0  0  0  0  0  0  0  0  0  0  0
    4.5556  -18.8078   -6.2637 C   0  0  0  0  0  0  0  0  0  0  0  0
    5.5994  -19.4562   -5.6212 C   0  0  0  0  0  0  0  0  0  0  0  0
    5.5746  -20.7731   -5.4639 N   0  0  0  0  0  0  0  0  0  0  0  0
    6.6664  -18.7151   -5.1533 N   0  0  0  0  0  0  0  0  0  0  0  0
    6.7101  -17.3366   -5.3196 C   0  0  0  0  0  0  0  0  0  0  0  0
    5.6649  -16.7095   -5.9668 N   0  0  0  0  0  0  0  0  0  0  0  0
    4.5983  -17.4256   -6.4281 C   0  0  0  0  0  0  0  0  0  0  0  0
  2  3  1  6  0  0  0
  2  6  1  0  0  0  0
  2  1  1  0  0  0  0
  4  3  2  0  0  0  0
  5  3  1  0  0  0  0
  6  7  2  0  0  0  0
  8  7  1  6  0  0  0
  8  9  1  0  0  0  0
  8 10  1  0  0  0  0
 11 10  1  6  0  0  0
 11 13  1  0  0  0  0
 12 11  1  0  0  0  0
 12 17  1  0  0  0  0
 13 14  1  1  0  0  0
 13 15  1  0  0  0  0
 15 16  1  6  0  0  0
 17 18  1  1  0  0  0
 17 15  1  0  0  0  0
 18 19  1  0  0  0  0
 20 19  2  0  0  0  0
 21 27  2  0  0  0  0
 21 20  1  0  0  0  0
 22 21  1  0  0  0  0
 23 22  1  0  0  0  0
 24 22  2  0  0  0  0
 24 25  1  0  0  0  0
 25 26  2  0  0  0  0
 26 27  1  0  0  0  0
 27 18  1  0  0  0  0
M  END
>  <CHROM.1>
-50.30081374,-120.37503185,-23.94569588,-160.52144255,50.98298749,-102.00813664
5.44636513,-15.47635945,-9.15870793,-0.97879068,-0.84854327,2.48558938

>  <Name>
lig.pdb

>  <RI>
0

>  <Rbt.Current_Directory>
/home/itssahil/PROJECTS/Mol_Feturizer/New_Systems/rnas/4b5r

>  <Rbt.Executable>
rbdock ($Id: //depot/dev/client3/rdock/2013.1/src/exe/rbdock.cxx#4 $)

>  <Rbt.Library>
libRbt.so (2013.1, Build901 2013/11/27)

>  <Rbt.Parameter_File>
/export/apps/rDock/src/rDock_2013.1_src/data/scripts/dock_solv.prm

>  <Rbt.Receptor>
prm/pocket_docking_5.prm

>  <SCORE>
-11.3747

>  <SCORE.INTER>
-11.4077

>  <SCORE.INTER.CONST>
1

>  <SCORE.INTER.POLAR>
0

>  <SCORE.INTER.ROT>
6

>  <SCORE.INTER.SOLV>
16.1245

>  <SCORE.INTER.VDW>
-20.58

>  <SCORE.INTER.norm>
-0.422509

>  <SCORE.INTRA>
-0.186946

>  <SCORE.INTRA.DIHEDRAL>
-1.2184

>  <SCORE.INTRA.DIHEDRAL.0>
10.2917

>  <SCORE.INTRA.POLAR>
0

>  <SCORE.INTRA.POLAR.0>
0

>  <SCORE.INTRA.REPUL>
0

>  <SCORE.INTRA.REPUL.0>
0

>  <SCORE.INTRA.SOLV>
-2.80977

>  <SCORE.INTRA.SOLV.lig_0>
-39.6315

>  <SCORE.INTRA.VDW>
1.82714

>  <SCORE.INTRA.VDW.0>
-4.02152

>  <SCORE.INTRA.norm>
-0.00692394

>  <SCORE.RESTR>
0.219953

>  <SCORE.RESTR.CAVITY>
0.219953

>  <SCORE.RESTR.norm>
0.00814639

>  <SCORE.SYSTEM>
0

>  <SCORE.SYSTEM.CONST>
0

>  <SCORE.SYSTEM.DIHEDRAL>
0

>  <SCORE.SYSTEM.SOLV>
0

>  <SCORE.SYSTEM.norm>
0

>  <SCORE.heavy>
27

>  <SCORE.norm>
-0.421287

>  <RMSD>
4.924

$$$$
lig.pdb
 OpenBabel11021811493D
libRbt.so/2013.1/901 2013/11/27
 27 29  0  0  0  0  0  0  0  0999 V2000
    6.5761  -14.9856   -9.6507 N   0  0  0  0  0  0  0  0  0  0  0  0
    6.8302  -16.1629  -10.5358 C   0  0  2  0  0  0  0  0  0  0  0  0
    7.9541  -15.8221  -11.5098 C   0  0  0  0  0  0  0  0  0  0  0  0
    8.0443  -16.4351  -12.5671 O   0  0  0  0  0  0  0  0  0  0  0  0
    8.7977  -14.9460  -11.2802 O   0  0  0  0  0  0  0  0  0  0  0  0
    5.5719  -16.6693  -11.2695 C   0  0  0  0  0  0  0  0  0  0  0  0
    4.2963  -15.7942  -11.1530 C   0  0  0  0  0  0  0  0  0  0  0  0
    2.7540  -16.3460  -12.0017 S   0  0  2  0  0  0  0  0  0  0  0  0
    3.0861  -15.8513  -13.7059 C   0  0  0  0  0  0  0  0  0  0  0  0
    1.5449  -15.0834  -11.5481 C   0  0  0  0  0  0  0  0  0  0  0  0
    1.1543  -15.2487  -10.0853 C   0  0  1  0  0  0  0  0  0  0  0  0
    1.0160  -16.6101   -9.7072 O   0  0  0  0  0  0  0  0  0  0  0  0
    2.1891  -14.7133   -9.1325 C   0  0  1  0  0  0  0  0  0  0  0  0
    2.0923  -13.3207   -9.0487 O   0  0  0  0  0  0  0  0  0  0  0  0
    1.7815  -15.4146   -7.8557 C   0  0  1  0  0  0  0  0  0  0  0  0
    0.7209  -14.7175   -7.2344 O   0  0  0  0  0  0  0  0  0  0  0  0
    1.2735  -16.7738   -8.3239 C   0  0  2  0  0  0  0  0  0  0  0  0
    2.1950  -17.9144   -8.0670 N   0  0  0  0  0  0  0  0  0  0  0  0
    2.6266  -18.3222   -6.8299 C   0  0  0  0  0  0  0  0  0  0  0  0
    3.4498  -19.3846   -6.9751 N   0  0  0  0  0  0  0  0  0  0  0  0
    3.5504  -19.6755   -8.2825 C   0  0  0  0  0  0  0  0  0  0  0  0
    4.2472  -20.6604   -8.9658 C   0  0  0  0  0  0  0  0  0  0  0  0
    4.9873  -21.5396   -8.3034 N   0  0  0  0  0  0  0  0  0  0  0  0
    4.1561  -20.7180  -10.3425 N   0  0  0  0  0  0  0  0  0  0  0  0
    3.3772  -19.8097  -11.0483 C   0  0  0  0  0  0  0  0  0  0  0  0
    2.6861  -18.8401  -10.3506 N   0  0  0  0  0  0  0  0  0  0  0  0
    2.7715  -18.7634   -8.9904 C   0  0  0  0  0  0  0  0  0  0  0  0
  2  3  1  6  0  0  0
  2  6  1  0  0  0  0
  2  1  1  0  0  0  0
  4  3  2  0  0  0  0
  5  3  1  0  0  0  0
  6  7  2  0  0  0  0
  8  7  1  1  0  0  0
  8  9  1  0  0  0  0
  8 10  1  0  0  0  0
 11 10  1  6  0  0  0
 11 13  1  0  0  0  0
 12 11  1  0  0  0  0
 12 17  1  0  0  0  0
 13 14  1  1  0  0  0
 13 15  1  0  0  0  0
 15 16  1  6  0  0  0
 17 18  1  6  0  0  0
 17 15  1  0  0  0  0
 18 19  1  0  0  0  0
 20 19  2  0  0  0  0
 21 27  2  0  0  0  0
 21 20  1  0  0  0  0
 22 21  1  0  0  0  0
 23 22  1  0  0  0  0
 24 22  2  0  0  0  0
 24 25  1  0  0  0  0
 25 26  2  0  0  0  0
 26 27  1  0  0  0  0
 27 18  1  0  0  0  0
M  END
>  <CHROM.1>
-156.88619353,8.25603947,-78.99267811,-72.56515022,-39.76300418,-179.82588383
3.65111014,-16.95043015,-9.93479327,0.41337142,0.46081296,-0.39737789

>  <Name>
lig.pdb

>  <RI>
0

>  <Rbt.Current_Directory>
/home/itssahil/PROJECTS/Mol_Feturizer/New_Systems/rnas/4b5r

>  <Rbt.Executable>
rbdock ($Id: //depot/dev/client3/rdock/2013.1/src/exe/rbdock.cxx#4 $)

>  <Rbt.Library>
libRbt.so (2013.1, Build901 2013/11/27)

>  <Rbt.Parameter_File>
/export/apps/rDock/src/rDock_2013.1_src/data/scripts/dock_solv.prm

>  <Rbt.Receptor>
prm/pocket_docking_6.prm

>  <SCORE>
-14.0034

>  <SCORE.INTER>
-13.7695

>  <SCORE.INTER.CONST>
1

>  <SCORE.INTER.POLAR>
0

>  <SCORE.INTER.ROT>
6

>  <SCORE.INTER.SOLV>
12.4431

>  <SCORE.INTER.VDW>
-20.9274

>  <SCORE.INTER.norm>
-0.50998

>  <SCORE.INTRA>
-0.233948

>  <SCORE.INTRA.DIHEDRAL>
-1.20337

>  <SCORE.INTRA.DIHEDRAL.0>
10.2917

>  <SCORE.INTRA.POLAR>
0

>  <SCORE.INTRA.POLAR.0>
0

>  <SCORE.INTRA.REPUL>
0.100891

>  <SCORE.INTRA.REPUL.0>
0

>  <SCORE.INTRA.SOLV>
-1.04504

>  <SCORE.INTRA.SOLV.lig_0>
-39.6315

>  <SCORE.INTRA.VDW>
0.385802

>  <SCORE.INTRA.VDW.0>
-4.02152

>  <SCORE.INTRA.norm>
-0.00866473

>  <SCORE.RESTR>
0

>  <SCORE.RESTR.CAVITY>
0

>  <SCORE.RESTR.norm>
0

>  <SCORE.SYSTEM>
0

>  <SCORE.SYSTEM.CONST>
0

>  <SCORE.SYSTEM.DIHEDRAL>
0

>  <SCORE.SYSTEM.SOLV>
0

>  <SCORE.SYSTEM.norm>
0

>  <SCORE.heavy>
27

>  <SCORE.norm>
-0.518645

>  <RMSD>
4.931

$$$$
lig.pdb
 OpenBabel11021811493D
libRbt.so/2013.1/901 2013/11/27
 27 29  0  0  0  0  0  0  0  0999 V2000
    4.6670  -16.9224  -12.1170 N   0  0  0  0  0  0  0  0  0  0  0  0
    3.1801  -16.8794  -11.9710 C   0  0  2  0  0  0  0  0  0  0  0  0
    2.6327  -15.7065  -12.7789 C   0  0  0  0  0  0  0  0  0  0  0  0
    1.4718  -15.7317  -13.1704 O   0  0  0  0  0  0  0  0  0  0  0  0
    3.3151  -14.7154  -13.0686 O   0  0  0  0  0  0  0  0  0  0  0  0
    2.7026  -16.8363  -10.5054 C   0  0  0  0  0  0  0  0  0  0  0  0
    2.2270  -15.4616   -9.9663 C   0  0  0  0  0  0  0  0  0  0  0  0
    1.6490  -15.3389   -8.2187 S   0  0  2  0  0  0  0  0  0  0  0  0
    0.0379  -14.5516   -8.4285 C   0  0  0  0  0  0  0  0  0  0  0  0
    2.5863  -13.9435   -7.5584 C   0  0  0  0  0  0  0  0  0  0  0  0
    3.9580  -14.4185   -7.0978 C   0  0  1  0  0  0  0  0  0  0  0  0
    3.8844  -15.5312   -6.2193 O   0  0  0  0  0  0  0  0  0  0  0  0
    4.8247  -14.9075   -8.2270 C   0  0  1  0  0  0  0  0  0  0  0  0
    5.3799  -13.8225   -8.9130 O   0  0  0  0  0  0  0  0  0  0  0  0
    5.8506  -15.7137   -7.4617 C   0  0  1  0  0  0  0  0  0  0  0  0
    6.8525  -14.8619   -6.9445 O   0  0  0  0  0  0  0  0  0  0  0  0
    5.0629  -16.3128   -6.3018 C   0  0  2  0  0  0  0  0  0  0  0  0
    4.7533  -17.7631   -6.4318 N   0  0  0  0  0  0  0  0  0  0  0  0
    3.6805  -18.2876   -7.1079 C   0  0  0  0  0  0  0  0  0  0  0  0
    3.7156  -19.6360   -7.0182 N   0  0  0  0  0  0  0  0  0  0  0  0
    4.7962  -19.9917   -6.3041 C   0  0  0  0  0  0  0  0  0  0  0  0
    5.2985  -21.2288   -5.9302 C   0  0  0  0  0  0  0  0  0  0  0  0
    4.6757  -22.3423   -6.2931 N   0  0  0  0  0  0  0  0  0  0  0  0
    6.4573  -21.2868   -5.1815 N   0  0  0  0  0  0  0  0  0  0  0  0
    7.1252  -20.1291   -4.8027 C   0  0  0  0  0  0  0  0  0  0  0  0
    6.6133  -18.9071   -5.1891 N   0  0  0  0  0  0  0  0  0  0  0  0
    5.4644  -18.8310   -5.9221 C   0  0  0  0  0  0  0  0  0  0  0  0
  2  3  1  6  0  0  0
  2  6  1  0  0  0  0
  2  1  1  0  0  0  0
  4  3  2  0  0  0  0
  5  3  1  0  0  0  0
  6  7  2  0  0  0  0
  8  7  1  6  0  0  0
  8  9  1  0  0  0  0
  8 10  1  0  0  0  0
 11 10  1  6  0  0  0
 11 13  1  0  0  0  0
 12 11  1  0  0  0  0
 12 17  1  0  0  0  0
 13 14  1  1  0  0  0
 13 15  1  0  0  0  0
 15 16  1  1  0  0  0
 17 18  1  6  0  0  0
 17 15  1  0  0  0  0
 18 19  1  0  0  0  0
 20 19  2  0  0  0  0
 21 27  2  0  0  0  0
 21 20  1  0  0  0  0
 22 21  1  0  0  0  0
 23 22  1  0  0  0  0
 24 22  2  0  0  0  0
 24 25  1  0  0  0  0
 25 26  2  0  0  0  0
 26 27  1  0  0  0  0
 27 18  1  0  0  0  0
M  END
>  <CHROM.1>
155.70441003,102.97940391,-127.62207423,-83.99741356,-51.91092390,34.56030947
4.04203145,-16.87238777,-8.16773194,2.77340780,-1.11688632,0.32376207

>  <Name>
lig.pdb

>  <RI>
0

>  <Rbt.Current_Directory>
/home/itssahil/PROJECTS/Mol_Feturizer/New_Systems/rnas/4b5r

>  <Rbt.Executable>
rbdock ($Id: //depot/dev/client3/rdock/2013.1/src/exe/rbdock.cxx#4 $)

>  <Rbt.Library>
libRbt.so (2013.1, Build901 2013/11/27)

>  <Rbt.Parameter_File>
/export/apps/rDock/src/rDock_2013.1_src/data/scripts/dock_solv.prm

>  <Rbt.Receptor>
prm/pocket_docking_7.prm

>  <SCORE>
-15.1278

>  <SCORE.INTER>
-14.4942

>  <SCORE.INTER.CONST>
1

>  <SCORE.INTER.POLAR>
0

>  <SCORE.INTER.ROT>
6

>  <SCORE.INTER.SOLV>
11.5876

>  <SCORE.INTER.VDW>
-21.1253

>  <SCORE.INTER.norm>
-0.536823

>  <SCORE.INTRA>
-0.633542

>  <SCORE.INTRA.DIHEDRAL>
-0.231039

>  <SCORE.INTRA.DIHEDRAL.0>
10.2917

>  <SCORE.INTRA.POLAR>
0

>  <SCORE.INTRA.POLAR.0>
0

>  <SCORE.INTRA.REPUL>
0

>  <SCORE.INTRA.REPUL.0>
0

>  <SCORE.INTRA.SOLV>
-2.58519

>  <SCORE.INTRA.SOLV.lig_0>
-39.6315

>  <SCORE.INTRA.VDW>
0.774572

>  <SCORE.INTRA.VDW.0>
-4.02152

>  <SCORE.INTRA.norm>
-0.0234645

>  <SCORE.RESTR>
0

>  <SCORE.RESTR.CAVITY>
0

>  <SCORE.RESTR.norm>
0

>  <SCORE.SYSTEM>
0

>  <SCORE.SYSTEM.CONST>
0

>  <SCORE.SYSTEM.DIHEDRAL>
0

>  <SCORE.SYSTEM.SOLV>
0

>  <SCORE.SYSTEM.norm>
0

>  <SCORE.heavy>
27

>  <SCORE.norm>
-0.560288

>  <RMSD>
4.935

$$$$
lig.pdb
 OpenBabel11021811493D
libRbt.so/2013.1/901 2013/11/27
 27 29  0  0  0  0  0  0  0  0999 V2000
    6.1796  -11.8714  -13.4025 N   0  0  0  0  0  0  0  0  0  0  0  0
    5.5833  -12.3313  -12.1114 C   0  0  2  0  0  0  0  0  0  0  0  0
    6.6868  -12.9065  -11.2284 C   0  0  0  0  0  0  0  0  0  0  0  0
    7.7684  -13.1978  -11.7253 O   0  0  0  0  0  0  0  0  0  0  0  0
    6.5409  -13.1021  -10.0150 O   0  0  0  0  0  0  0  0  0  0  0  0
    4.4162  -13.3238  -12.2870 C   0  0  0  0  0  0  0  0  0  0  0  0
    4.4433  -14.5970  -11.4010 C   0  0  0  0  0  0  0  0  0  0  0  0
    3.0801  -15.8290  -11.5658 S   0  0  2  0  0  0  0  0  0  0  0  0
    3.0409  -16.0833  -13.3528 C   0  0  0  0  0  0  0  0  0  0  0  0
    1.5844  -14.8366  -11.3664 C   0  0  0  0  0  0  0  0  0  0  0  0
    1.0944  -14.9302   -9.9274 C   0  0  1  0  0  0  0  0  0  0  0  0
    1.0809  -16.2636   -9.4404 O   0  0  0  0  0  0  0  0  0  0  0  0
    1.9784  -14.1994   -8.9527 C   0  0  1  0  0  0  0  0  0  0  0  0
    1.7169  -12.8264   -9.0009 O   0  0  0  0  0  0  0  0  0  0  0  0
    1.5480  -14.8403   -7.6518 C   0  0  1  0  0  0  0  0  0  0  0  0
    0.3668  -14.2286   -7.1748 O   0  0  0  0  0  0  0  0  0  0  0  0
    1.2389  -16.2838   -8.0329 C   0  0  2  0  0  0  0  0  0  0  0  0
    2.2595  -17.2809   -7.6081 N   0  0  0  0  0  0  0  0  0  0  0  0
    2.1862  -18.6335   -7.8270 C   0  0  0  0  0  0  0  0  0  0  0  0
    3.2839  -19.2273   -7.3077 N   0  0  0  0  0  0  0  0  0  0  0  0
    4.0686  -18.2818   -6.7653 C   0  0  0  0  0  0  0  0  0  0  0  0
    5.2949  -18.3469   -6.1215 C   0  0  0  0  0  0  0  0  0  0  0  0
    5.9029  -19.5140   -5.9548 N   0  0  0  0  0  0  0  0  0  0  0  0
    5.8771  -17.1821   -5.6622 N   0  0  0  0  0  0  0  0  0  0  0  0
    5.2562  -15.9520   -5.8384 C   0  0  0  0  0  0  0  0  0  0  0  0
    4.0388  -15.9062   -6.4868 N   0  0  0  0  0  0  0  0  0  0  0  0
    3.4450  -17.0488   -6.9398 C   0  0  0  0  0  0  0  0  0  0  0  0
  2  3  1  1  0  0  0
  2  6  1  0  0  0  0
  2  1  1  0  0  0  0
  4  3  2  0  0  0  0
  5  3  1  0  0  0  0
  6  7  2  0  0  0  0
  8  7  1  6  0  0  0
  8  9  1  0  0  0  0
  8 10  1  0  0  0  0
 11 10  1  6  0  0  0
 11 13  1  0  0  0  0
 12 11  1  0  0  0  0
 12 17  1  0  0  0  0
 13 14  1  1  0  0  0
 13 15  1  0  0  0  0
 15 16  1  6  0  0  0
 17 18  1  6  0  0  0
 17 15  1  0  0  0  0
 18 19  1  0  0  0  0
 20 19  2  0  0  0  0
 21 27  2  0  0  0  0
 21 20  1  0  0  0  0
 22 21  1  0  0  0  0
 23 22  1  0  0  0  0
 24 22  2  0  0  0  0
 24 25  1  0  0  0  0
 25 26  2  0  0  0  0
 26 27  1  0  0  0  0
 27 18  1  0  0  0  0
M  END
>  <CHROM.1>
-15.84984120,133.03372567,50.43952145,-97.22969101,-46.32353657,-61.31136619
3.65650427,-15.48302721,-9.23695996,-1.35079624,0.05980209,2.23833948

>  <Name>
lig.pdb

>  <RI>
0

>  <Rbt.Current_Directory>
/home/itssahil/PROJECTS/Mol_Feturizer/New_Systems/rnas/4b5r

>  <Rbt.Executable>
rbdock ($Id: //depot/dev/client3/rdock/2013.1/src/exe/rbdock.cxx#4 $)

>  <Rbt.Library>
libRbt.so (2013.1, Build901 2013/11/27)

>  <Rbt.Parameter_File>
/export/apps/rDock/src/rDock_2013.1_src/data/scripts/dock_solv.prm

>  <Rbt.Receptor>
prm/blind_docking_100.prm

>  <SCORE>
-14.8007

>  <SCORE.INTER>
-16.1842

>  <SCORE.INTER.CONST>
1

>  <SCORE.INTER.POLAR>
0

>  <SCORE.INTER.ROT>
6

>  <SCORE.INTER.SOLV>
13.8645

>  <SCORE.INTER.VDW>
-23.011

>  <SCORE.INTER.norm>
-0.599415

>  <SCORE.INTRA>
1.38355

>  <SCORE.INTRA.DIHEDRAL>
1.39358

>  <SCORE.INTRA.DIHEDRAL.0>
10.2917

>  <SCORE.INTRA.POLAR>
0

>  <SCORE.INTRA.POLAR.0>
0

>  <SCORE.INTRA.REPUL>
0

>  <SCORE.INTRA.REPUL.0>
0

>  <SCORE.INTRA.SOLV>
-2.60363

>  <SCORE.INTRA.SOLV.lig_0>
-39.6315

>  <SCORE.INTRA.VDW>
1.98857

>  <SCORE.INTRA.VDW.0>
-4.02152

>  <SCORE.INTRA.norm>
0.0512426

>  <SCORE.RESTR>
0

>  <SCORE.RESTR.CAVITY>
0

>  <SCORE.RESTR.norm>
0

>  <SCORE.SYSTEM>
0

>  <SCORE.SYSTEM.CONST>
0

>  <SCORE.SYSTEM.DIHEDRAL>
0

>  <SCORE.SYSTEM.SOLV>
0

>  <SCORE.SYSTEM.norm>
0

>  <SCORE.heavy>
27

>  <SCORE.norm>
-0.548173

>  <RMSD>
4.941

$$$$
lig.pdb
 OpenBabel11021811493D
libRbt.so/2013.1/901 2013/11/27
 27 29  0  0  0  0  0  0  0  0999 V2000
    7.1414  -14.2815  -13.6698 N   0  0  0  0  0  0  0  0  0  0  0  0
    6.1717  -14.0387  -12.5585 C   0  0  2  0  0  0  0  0  0  0  0  0
    6.5363  -12.7355  -11.8535 C   0  0  0  0  0  0  0  0  0  0  0  0
    7.1071  -12.7738  -10.7698 O   0  0  0  0  0  0  0  0  0  0  0  0
    6.2755  -11.6218  -12.3262 O   0  0  0  0  0  0  0  0  0  0  0  0
    6.0600  -15.2136  -11.5661 C   0  0  0  0  0  0  0  0  0  0  0  0
    4.6434  -15.8038  -11.3397 C   0  0  0  0  0  0  0  0  0  0  0  0
    4.4385  -17.2072  -10.1598 S   0  0  2  0  0  0  0  0  0  0  0  0
    5.4491  -18.4829  -10.9413 C   0  0  0  0  0  0  0  0  0  0  0  0
    2.7928  -17.8459  -10.5414 C   0  0  0  0  0  0  0  0  0  0  0  0
    1.7384  -16.9990   -9.8410 C   0  0  1  0  0  0  0  0  0  0  0  0
    1.9496  -16.9123   -8.4399 O   0  0  0  0  0  0  0  0  0  0  0  0
    1.7352  -15.5639  -10.2946 C   0  0  1  0  0  0  0  0  0  0  0  0
    1.0777  -15.4485  -11.5235 O   0  0  0  0  0  0  0  0  0  0  0  0
    0.9823  -14.9134   -9.1552 C   0  0  1  0  0  0  0  0  0  0  0  0
   -0.4101  -15.0673   -9.3407 O   0  0  0  0  0  0  0  0  0  0  0  0
    1.4088  -15.7081   -7.9259 C   0  0  2  0  0  0  0  0  0  0  0  0
    2.3706  -15.0124   -7.0274 N   0  0  0  0  0  0  0  0  0  0  0  0
    2.1157  -13.8541   -6.3373 C   0  0  0  0  0  0  0  0  0  0  0  0
    3.2118  -13.5121   -5.6240 N   0  0  0  0  0  0  0  0  0  0  0  0
    4.1665  -14.4332   -5.8342 C   0  0  0  0  0  0  0  0  0  0  0  0
    5.4575  -14.5636   -5.3454 C   0  0  0  0  0  0  0  0  0  0  0  0
    5.9478  -13.6663   -4.5003 N   0  0  0  0  0  0  0  0  0  0  0  0
    6.2230  -15.6414   -5.7442 N   0  0  0  0  0  0  0  0  0  0  0  0
    5.7190  -16.5937   -6.6210 C   0  0  0  0  0  0  0  0  0  0  0  0
    4.4299  -16.4504   -7.0924 N   0  0  0  0  0  0  0  0  0  0  0  0
    3.6622  -15.3867   -6.7152 C   0  0  0  0  0  0  0  0  0  0  0  0
  2  3  1  1  0  0  0
  2  6  1  0  0  0  0
  2  1  1  0  0  0  0
  4  3  2  0  0  0  0
  5  3  1  0  0  0  0
  6  7  2  0  0  0  0
  8  7  1  6  0  0  0
  8  9  1  0  0  0  0
  8 10  1  0  0  0  0
 11 10  1  6  0  0  0
 11 13  1  0  0  0  0
 12 11  1  0  0  0  0
 12 17  1  0  0  0  0
 13 14  1  6  0  0  0
 13 15  1  0  0  0  0
 15 16  1  6  0  0  0
 17 18  1  6  0  0  0
 17 15  1  0  0  0  0
 18 19  1  0  0  0  0
 20 19  2  0  0  0  0
 21 27  2  0  0  0  0
 21 20  1  0  0  0  0
 22 21  1  0  0  0  0
 23 22  1  0  0  0  0
 24 22  2  0  0  0  0
 24 25  1  0  0  0  0
 25 26  2  0  0  0  0
 26 27  1  0  0  0  0
 27 18  1  0  0  0  0
M  END
>  <CHROM.1>
-103.27553171,-124.08740987,-62.07435468,-81.75902222,-55.23844679,-177.17649082
4.01221556,-15.27031524,-9.11999816,-1.05970179,0.45271367,1.47117467

>  <Name>
lig.pdb

>  <RI>
0

>  <Rbt.Current_Directory>
/home/itssahil/PROJECTS/Mol_Feturizer/New_Systems/rnas/4b5r

>  <Rbt.Executable>
rbdock ($Id: //depot/dev/client3/rdock/2013.1/src/exe/rbdock.cxx#4 $)

>  <Rbt.Library>
libRbt.so (2013.1, Build901 2013/11/27)

>  <Rbt.Parameter_File>
/export/apps/rDock/src/rDock_2013.1_src/data/scripts/dock_solv.prm

>  <Rbt.Receptor>
prm/pocket_docking_4.prm

>  <SCORE>
-11.9875

>  <SCORE.INTER>
-10.8354

>  <SCORE.INTER.CONST>
1

>  <SCORE.INTER.POLAR>
0

>  <SCORE.INTER.ROT>
6

>  <SCORE.INTER.SOLV>
10.9423

>  <SCORE.INTER.VDW>
-18.471

>  <SCORE.INTER.norm>
-0.401312

>  <SCORE.INTRA>
-1.15207

>  <SCORE.INTRA.DIHEDRAL>
-2.56055

>  <SCORE.INTRA.DIHEDRAL.0>
10.2917

>  <SCORE.INTRA.POLAR>
0

>  <SCORE.INTRA.POLAR.0>
0

>  <SCORE.INTRA.REPUL>
0.0677813

>  <SCORE.INTRA.REPUL.0>
0

>  <SCORE.INTRA.SOLV>
-2.01801

>  <SCORE.INTRA.SOLV.lig_0>
-39.6315

>  <SCORE.INTRA.VDW>
0.7983

>  <SCORE.INTRA.VDW.0>
-4.02152

>  <SCORE.INTRA.norm>
-0.0426693

>  <SCORE.RESTR>
0

>  <SCORE.RESTR.CAVITY>
0

>  <SCORE.RESTR.norm>
0

>  <SCORE.SYSTEM>
0

>  <SCORE.SYSTEM.CONST>
0

>  <SCORE.SYSTEM.DIHEDRAL>
0

>  <SCORE.SYSTEM.SOLV>
0

>  <SCORE.SYSTEM.norm>
0

>  <SCORE.heavy>
27

>  <SCORE.norm>
-0.443982

>  <RMSD>
4.946

$$$$
lig.pdb
 OpenBabel11021811493D
libRbt.so/2013.1/901 2013/11/27
 27 29  0  0  0  0  0  0  0  0999 V2000
    7.6805  -17.1985  -10.8248 N   0  0  0  0  0  0  0  0  0  0  0  0
    6.5895  -16.1828  -10.7149 C   0  0  2  0  0  0  0  0  0  0  0  0
    7.1851  -14.7890  -10.8908 C   0  0  0  0  0  0  0  0  0  0  0  0
    7.5846  -14.4373  -11.9946 O   0  0  0  0  0  0  0  0  0  0  0  0
    7.2921  -13.9830   -9.9577 O   0  0  0  0  0  0  0  0  0  0  0  0
    5.7687  -16.2936   -9.4142 C   0  0  0  0  0  0  0  0  0  0  0  0
    6.4685  -15.8392   -8.1064 C   0  0  0  0  0  0  0  0  0  0  0  0
    5.5448  -15.9518   -6.5134 S   0  0  2  0  0  0  0  0  0  0  0  0
    6.0694  -17.5700   -5.9085 C   0  0  0  0  0  0  0  0  0  0  0  0
    3.8597  -16.3502   -7.0270 C   0  0  0  0  0  0  0  0  0  0  0  0
    3.1704  -15.0945   -7.5443 C   0  0  1  0  0  0  0  0  0  0  0  0
    3.9546  -14.3943   -8.4984 O   0  0  0  0  0  0  0  0  0  0  0  0
    1.8865  -15.3828   -8.2749 C   0  0  1  0  0  0  0  0  0  0  0  0
    0.8565  -15.6272   -7.3610 O   0  0  0  0  0  0  0  0  0  0  0  0
    1.7060  -14.0910   -9.0412 C   0  0  1  0  0  0  0  0  0  0  0  0
    1.1167  -13.1107   -8.2114 O   0  0  0  0  0  0  0  0  0  0  0  0
    3.1278  -13.6601   -9.3837 C   0  0  2  0  0  0  0  0  0  0  0  0
    3.5242  -13.8649  -10.8040 N   0  0  0  0  0  0  0  0  0  0  0  0
    4.5194  -13.1812  -11.4561 C   0  0  0  0  0  0  0  0  0  0  0  0
    4.6025  -13.6264  -12.7298 N   0  0  0  0  0  0  0  0  0  0  0  0
    3.6851  -14.5909  -12.9092 C   0  0  0  0  0  0  0  0  0  0  0  0
    3.3600  -15.3734  -14.0066 C   0  0  0  0  0  0  0  0  0  0  0  0
    4.0163  -15.2293  -15.1504 N   0  0  0  0  0  0  0  0  0  0  0  0
    2.3499  -16.3079  -13.8920 N   0  0  0  0  0  0  0  0  0  0  0  0
    1.6608  -16.4763  -12.6976 C   0  0  0  0  0  0  0  0  0  0  0  0
    2.0023  -15.6924  -11.6144 N   0  0  0  0  0  0  0  0  0  0  0  0
    2.9925  -14.7581  -11.7125 C   0  0  0  0  0  0  0  0  0  0  0  0
  2  3  1  1  0  0  0
  2  6  1  0  0  0  0
  2  1  1  0  0  0  0
  4  3  2  0  0  0  0
  5  3  1  0  0  0  0
  6  7  2  0  0  0  0
  8  7  1  6  0  0  0
  8  9  1  0  0  0  0
  8 10  1  0  0  0  0
 11 10  1  6  0  0  0
 11 13  1  0  0  0  0
 12 11  1  0  0  0  0
 12 17  1  0  0  0  0
 13 14  1  1  0  0  0
 13 15  1  0  0  0  0
 15 16  1  1  0  0  0
 17 18  1  6  0  0  0
 17 15  1  0  0  0  0
 18 19  1  0  0  0  0
 20 19  2  0  0  0  0
 21 27  2  0  0  0  0
 21 20  1  0  0  0  0
 22 21  1  0  0  0  0
 23 22  1  0  0  0  0
 24 22  2  0  0  0  0
 24 25  1  0  0  0  0
 25 26  2  0  0  0  0
 26 27  1  0  0  0  0
 27 18  1  0  0  0  0
M  END
>  <CHROM.1>
70.77790199,72.27781037,93.66738287,-77.61689375,49.63617974,-83.81795846
4.24165561,-15.17826395,-10.00562743,-1.70268999,-0.16211765,1.68068226

>  <Name>
lig.pdb

>  <RI>
0

>  <Rbt.Current_Directory>
/home/itssahil/PROJECTS/Mol_Feturizer/New_Systems/rnas/4b5r

>  <Rbt.Executable>
rbdock ($Id: //depot/dev/client3/rdock/2013.1/src/exe/rbdock.cxx#4 $)

>  <Rbt.Library>
libRbt.so (2013.1, Build901 2013/11/27)

>  <Rbt.Parameter_File>
/export/apps/rDock/src/rDock_2013.1_src/data/scripts/dock_solv.prm

>  <Rbt.Receptor>
prm/pocket_docking_3.prm

>  <SCORE>
-11.4696

>  <SCORE.INTER>
-11.0791

>  <SCORE.INTER.CONST>
1

>  <SCORE.INTER.POLAR>
0

>  <SCORE.INTER.ROT>
6

>  <SCORE.INTER.SOLV>
15.6405

>  <SCORE.INTER.VDW>
-20.1996

>  <SCORE.INTER.norm>
-0.410338

>  <SCORE.INTRA>
-0.390474

>  <SCORE.INTRA.DIHEDRAL>
0.518178

>  <SCORE.INTRA.DIHEDRAL.0>
10.2917

>  <SCORE.INTRA.POLAR>
0

>  <SCORE.INTRA.POLAR.0>
0

>  <SCORE.INTRA.REPUL>
0

>  <SCORE.INTRA.REPUL.0>
0

>  <SCORE.INTRA.SOLV>
-1.45775

>  <SCORE.INTRA.SOLV.lig_0>
-39.6315

>  <SCORE.INTRA.VDW>
0.0793129

>  <SCORE.INTRA.VDW.0>
-4.02152

>  <SCORE.INTRA.norm>
-0.014462

>  <SCORE.RESTR>
0

>  <SCORE.RESTR.CAVITY>
0

>  <SCORE.RESTR.norm>
0

>  <SCORE.SYSTEM>
0

>  <SCORE.SYSTEM.CONST>
0

>  <SCORE.SYSTEM.DIHEDRAL>
0

>  <SCORE.SYSTEM.SOLV>
0

>  <SCORE.SYSTEM.norm>
0

>  <SCORE.heavy>
27

>  <SCORE.norm>
-0.4248

>  <RMSD>
4.951

$$$$
lig.pdb
 OpenBabel11021811493D
libRbt.so/2013.1/901 2013/11/27
 27 29  0  0  0  0  0  0  0  0999 V2000
    6.0536  -12.6752  -11.9097 N   0  0  0  0  0  0  0  0  0  0  0  0
    5.3933  -13.8691  -11.2994 C   0  0  2  0  0  0  0  0  0  0  0  0
    4.6397  -14.6323  -12.3846 C   0  0  0  0  0  0  0  0  0  0  0  0
    5.0064  -15.7592  -12.6966 O   0  0  0  0  0  0  0  0  0  0  0  0
    3.6626  -14.1608  -12.9803 O   0  0  0  0  0  0  0  0  0  0  0  0
    4.4825  -13.5290  -10.1025 C   0  0  0  0  0  0  0  0  0  0  0  0
    4.9541  -14.0141   -8.7065 C   0  0  0  0  0  0  0  0  0  0  0  0
    3.9075  -13.6461   -7.2325 S   0  0  2  0  0  0  0  0  0  0  0  0
    5.0987  -13.8401   -5.8897 C   0  0  0  0  0  0  0  0  0  0  0  0
    2.9453  -15.1577   -7.0069 C   0  0  0  0  0  0  0  0  0  0  0  0
    2.1830  -15.4767   -8.2863 C   0  0  1  0  0  0  0  0  0  0  0  0
    2.9758  -16.1741   -9.2352 O   0  0  0  0  0  0  0  0  0  0  0  0
    1.0054  -16.3867   -8.0620 C   0  0  1  0  0  0  0  0  0  0  0  0
   -0.0730  -15.6610   -7.5459 O   0  0  0  0  0  0  0  0  0  0  0  0
    0.7661  -16.8847   -9.4702 C   0  0  1  0  0  0  0  0  0  0  0  0
    0.0093  -15.9397  -10.1991 O   0  0  0  0  0  0  0  0  0  0  0  0
    2.1626  -16.9735  -10.0755 C   0  0  2  0  0  0  0  0  0  0  0  0
    2.7037  -18.3535  -10.2137 N   0  0  0  0  0  0  0  0  0  0  0  0
    2.7092  -19.0911  -11.3708 C   0  0  0  0  0  0  0  0  0  0  0  0
    3.2767  -20.2937  -11.1278 N   0  0  0  0  0  0  0  0  0  0  0  0
    3.6454  -20.3425   -9.8371 C   0  0  0  0  0  0  0  0  0  0  0  0
    4.2695  -21.3254   -9.0842 C   0  0  0  0  0  0  0  0  0  0  0  0
    4.6158  -22.4780   -9.6420 N   0  0  0  0  0  0  0  0  0  0  0  0
    4.5312  -21.0869   -7.7495 N   0  0  0  0  0  0  0  0  0  0  0  0
    4.1828  -19.8809   -7.1547 C   0  0  0  0  0  0  0  0  0  0  0  0
    3.5676  -18.9122   -7.9215 N   0  0  0  0  0  0  0  0  0  0  0  0
    3.2939  -19.1344   -9.2401 C   0  0  0  0  0  0  0  0  0  0  0  0
  2  3  1  6  0  0  0
  2  6  1  0  0  0  0
  2  1  1  0  0  0  0
  4  3  2  0  0  0  0
  5  3  1  0  0  0  0
  6  7  2  0  0  0  0
  8  7  1  6  0  0  0
  8  9  1  0  0  0  0
  8 10  1  0  0  0  0
 11 10  1  1  0  0  0
 11 13  1  0  0  0  0
 12 11  1  0  0  0  0
 12 17  1  0  0  0  0
 13 14  1  6  0  0  0
 13 15  1  0  0  0  0
 15 16  1  6  0  0  0
 17 18  1  1  0  0  0
 17 15  1  0  0  0  0
 18 19  1  0  0  0  0
 20 19  2  0  0  0  0
 21 27  2  0  0  0  0
 21 20  1  0  0  0  0
 22 21  1  0  0  0  0
 23 22  1  0  0  0  0
 24 22  2  0  0  0  0
 24 25  1  0  0  0  0
 25 26  2  0  0  0  0
 26 27  1  0  0  0  0
 27 18  1  0  0  0  0
M  END
>  <CHROM.1>
114.20367884,-111.68452378,-160.29569804,-56.26319006,83.42279126,-140.80537979
3.40179707,-16.65945775,-9.39855896,-1.32552270,-1.20638988,-2.97319658

>  <Name>
lig.pdb

>  <RI>
0

>  <Rbt.Current_Directory>
/home/itssahil/PROJECTS/Mol_Feturizer/New_Systems/rnas/4b5r

>  <Rbt.Executable>
rbdock ($Id: //depot/dev/client3/rdock/2013.1/src/exe/rbdock.cxx#4 $)

>  <Rbt.Library>
libRbt.so (2013.1, Build901 2013/11/27)

>  <Rbt.Parameter_File>
/export/apps/rDock/src/rDock_2013.1_src/data/scripts/dock_solv.prm

>  <Rbt.Receptor>
prm/pocket_docking_7.prm

>  <SCORE>
-14.1764

>  <SCORE.INTER>
-13.0758

>  <SCORE.INTER.CONST>
1

>  <SCORE.INTER.POLAR>
0

>  <SCORE.INTER.ROT>
6

>  <SCORE.INTER.SOLV>
12.2683

>  <SCORE.INTER.VDW>
-20.4066

>  <SCORE.INTER.norm>
-0.484289

>  <SCORE.INTRA>
-1.10055

>  <SCORE.INTRA.DIHEDRAL>
0.0396546

>  <SCORE.INTRA.DIHEDRAL.0>
10.2917

>  <SCORE.INTRA.POLAR>
0

>  <SCORE.INTRA.POLAR.0>
0

>  <SCORE.INTRA.REPUL>
0

>  <SCORE.INTRA.REPUL.0>
0

>  <SCORE.INTRA.SOLV>
-2.3283

>  <SCORE.INTRA.SOLV.lig_0>
-39.6315

>  <SCORE.INTRA.VDW>
0.0437677

>  <SCORE.INTRA.VDW.0>
-4.02152

>  <SCORE.INTRA.norm>
-0.0407613

>  <SCORE.RESTR>
0

>  <SCORE.RESTR.CAVITY>
0

>  <SCORE.RESTR.norm>
0

>  <SCORE.SYSTEM>
0

>  <SCORE.SYSTEM.CONST>
0

>  <SCORE.SYSTEM.DIHEDRAL>
0

>  <SCORE.SYSTEM.SOLV>
0

>  <SCORE.SYSTEM.norm>
0

>  <SCORE.heavy>
27

>  <SCORE.norm>
-0.52505

>  <RMSD>
4.959

$$$$
lig.pdb
 OpenBabel11021811493D
libRbt.so/2013.1/901 2013/11/27
 27 29  0  0  0  0  0  0  0  0999 V2000
    5.2766  -14.6091  -15.1689 N   0  0  0  0  0  0  0  0  0  0  0  0
    5.5523  -13.2212  -14.6874 C   0  0  2  0  0  0  0  0  0  0  0  0
    6.0086  -12.3653  -15.8652 C   0  0  0  0  0  0  0  0  0  0  0  0
    7.0049  -12.6920  -16.4996 O   0  0  0  0  0  0  0  0  0  0  0  0
    5.4163  -11.3367  -16.2157 O   0  0  0  0  0  0  0  0  0  0  0  0
    6.5520  -13.1596  -13.5149 C   0  0  0  0  0  0  0  0  0  0  0  0
    7.0164  -14.5156  -12.9215 C   0  0  0  0  0  0  0  0  0  0  0  0
    8.2071  -14.5130  -11.5123 S   0  0  2  0  0  0  0  0  0  0  0  0
    8.0454  -16.2049  -10.9033 C   0  0  0  0  0  0  0  0  0  0  0  0
    7.3197  -13.6336  -10.2082 C   0  0  0  0  0  0  0  0  0  0  0  0
    5.9908  -14.3257   -9.9350 C   0  0  1  0  0  0  0  0  0  0  0  0
    6.0017  -15.0724   -8.7276 O   0  0  0  0  0  0  0  0  0  0  0  0
    4.8486  -13.3626   -9.7529 C   0  0  1  0  0  0  0  0  0  0  0  0
    4.4049  -12.9008  -10.9962 O   0  0  0  0  0  0  0  0  0  0  0  0
    3.8425  -14.2522   -9.0566 C   0  0  1  0  0  0  0  0  0  0  0  0
    3.1466  -15.0356  -10.0047 O   0  0  0  0  0  0  0  0  0  0  0  0
    4.6958  -15.1692   -8.1874 C   0  0  2  0  0  0  0  0  0  0  0  0
    4.6778  -14.8554   -6.7322 N   0  0  0  0  0  0  0  0  0  0  0  0
    3.7597  -14.0507   -6.1057 C   0  0  0  0  0  0  0  0  0  0  0  0
    4.0485  -13.9916   -4.7864 N   0  0  0  0  0  0  0  0  0  0  0  0
    5.1309  -14.7505   -4.5485 C   0  0  0  0  0  0  0  0  0  0  0  0
    5.8268  -15.0401   -3.3847 C   0  0  0  0  0  0  0  0  0  0  0  0
    5.4374  -14.5258   -2.2256 N   0  0  0  0  0  0  0  0  0  0  0  0
    6.9253  -15.8745   -3.4468 N   0  0  0  0  0  0  0  0  0  0  0  0
    7.3384  -16.4278   -4.6522 C   0  0  0  0  0  0  0  0  0  0  0  0
    6.6298  -16.1328   -5.7991 N   0  0  0  0  0  0  0  0  0  0  0  0
    5.5467  -15.3032   -5.7573 C   0  0  0  0  0  0  0  0  0  0  0  0
  2  3  1  6  0  0  0
  2  6  1  0  0  0  0
  2  1  1  0  0  0  0
  4  3  2  0  0  0  0
  5  3  1  0  0  0  0
  6  7  2  0  0  0  0
  8  7  1  6  0  0  0
  8  9  1  0  0  0  0
  8 10  1  0  0  0  0
 11 10  1  1  0  0  0
 11 13  1  0  0  0  0
 12 11  1  0  0  0  0
 12 17  1  0  0  0  0
 13 14  1  6  0  0  0
 13 15  1  0  0  0  0
 15 16  1  6  0  0  0
 17 18  1  1  0  0  0
 17 15  1  0  0  0  0
 18 19  1  0  0  0  0
 20 19  2  0  0  0  0
 21 27  2  0  0  0  0
 21 20  1  0  0  0  0
 22 21  1  0  0  0  0
 23 22  1  0  0  0  0
 24 22  2  0  0  0  0
 24 25  1  0  0  0  0
 25 26  2  0  0  0  0
 26 27  1  0  0  0  0
 27 18  1  0  0  0  0
M  END
>  <CHROM.1>
-58.80765890,-5.60761935,164.22025748,56.43173070,104.97637190,135.11301998
5.84205633,-14.33510985,-9.53191284,1.50045159,0.39807212,-1.34954871

>  <Name>
lig.pdb

>  <RI>
0

>  <Rbt.Current_Directory>
/home/itssahil/PROJECTS/Mol_Feturizer/New_Systems/rnas/4b5r

>  <Rbt.Executable>
rbdock ($Id: //depot/dev/client3/rdock/2013.1/src/exe/rbdock.cxx#4 $)

>  <Rbt.Library>
libRbt.so (2013.1, Build901 2013/11/27)

>  <Rbt.Parameter_File>
/export/apps/rDock/src/rDock_2013.1_src/data/scripts/dock_solv.prm

>  <Rbt.Receptor>
prm/blind_docking_60.prm

>  <SCORE>
-12.3637

>  <SCORE.INTER>
-15.3375

>  <SCORE.INTER.CONST>
1

>  <SCORE.INTER.POLAR>
0

>  <SCORE.INTER.ROT>
6

>  <SCORE.INTER.SOLV>
12.5583

>  <SCORE.INTER.VDW>
-22.0111

>  <SCORE.INTER.norm>
-0.568055

>  <SCORE.INTRA>
2.97383

>  <SCORE.INTRA.DIHEDRAL>
1.35643

>  <SCORE.INTRA.DIHEDRAL.0>
10.2917

>  <SCORE.INTRA.POLAR>
0

>  <SCORE.INTRA.POLAR.0>
0

>  <SCORE.INTRA.REPUL>
0.118398

>  <SCORE.INTRA.REPUL.0>
0

>  <SCORE.INTRA.SOLV>
-2.02734

>  <SCORE.INTRA.SOLV.lig_0>
-39.6315

>  <SCORE.INTRA.VDW>
2.7173

>  <SCORE.INTRA.VDW.0>
-4.02152

>  <SCORE.INTRA.norm>
0.110142

>  <SCORE.RESTR>
0

>  <SCORE.RESTR.CAVITY>
0

>  <SCORE.RESTR.norm>
0

>  <SCORE.SYSTEM>
0

>  <SCORE.SYSTEM.CONST>
0

>  <SCORE.SYSTEM.DIHEDRAL>
0

>  <SCORE.SYSTEM.SOLV>
0

>  <SCORE.SYSTEM.norm>
0

>  <SCORE.heavy>
27

>  <SCORE.norm>
-0.457913

>  <RMSD>
4.998

$$$$
lig.pdb
 OpenBabel11021811493D
libRbt.so/2013.1/901 2013/11/27
 27 29  0  0  0  0  0  0  0  0999 V2000
    6.4506  -13.4480  -16.1901 N   0  0  0  0  0  0  0  0  0  0  0  0
    7.1638  -14.7399  -15.9529 C   0  0  2  0  0  0  0  0  0  0  0  0
    6.5831  -15.8076  -16.8754 C   0  0  0  0  0  0  0  0  0  0  0  0
    5.4224  -15.7110  -17.2564 O   0  0  0  0  0  0  0  0  0  0  0  0
    7.2346  -16.7867  -17.2613 O   0  0  0  0  0  0  0  0  0  0  0  0
    7.1536  -15.1915  -14.4785 C   0  0  0  0  0  0  0  0  0  0  0  0
    6.5926  -14.1817  -13.4430 C   0  0  0  0  0  0  0  0  0  0  0  0
    6.5578  -14.6565  -11.6607 S   0  0  2  0  0  0  0  0  0  0  0  0
    6.9600  -13.0872  -10.8638 C   0  0  0  0  0  0  0  0  0  0  0  0
    8.1214  -15.5285  -11.4230 C   0  0  0  0  0  0  0  0  0  0  0  0
    7.8599  -17.0223  -11.2825 C   0  0  1  0  0  0  0  0  0  0  0  0
    7.0185  -17.3285  -10.1809 O   0  0  0  0  0  0  0  0  0  0  0  0
    7.1353  -17.6096  -12.4638 C   0  0  1  0  0  0  0  0  0  0  0  0
    8.0268  -17.8184  -13.5209 O   0  0  0  0  0  0  0  0  0  0  0  0
    6.6175  -18.8968  -11.8610 C   0  0  1  0  0  0  0  0  0  0  0  0
    7.6284  -19.8840  -11.8783 O   0  0  0  0  0  0  0  0  0  0  0  0
    6.3072  -18.5312  -10.4137 C   0  0  2  0  0  0  0  0  0  0  0  0
    4.8601  -18.3849  -10.0963 N   0  0  0  0  0  0  0  0  0  0  0  0
    3.8505  -18.2943  -11.0211 C   0  0  0  0  0  0  0  0  0  0  0  0
    2.6683  -18.1716  -10.3771 N   0  0  0  0  0  0  0  0  0  0  0  0
    2.8956  -18.1901   -9.0534 C   0  0  0  0  0  0  0  0  0  0  0  0
    2.0444  -18.1092   -7.9619 C   0  0  0  0  0  0  0  0  0  0  0  0
    0.7354  -17.9907   -8.1404 N   0  0  0  0  0  0  0  0  0  0  0  0
    2.5757  -18.1598   -6.6883 N   0  0  0  0  0  0  0  0  0  0  0  0
    3.9436  -18.2934   -6.4867 C   0  0  0  0  0  0  0  0  0  0  0  0
    4.7746  -18.3783   -7.5852 N   0  0  0  0  0  0  0  0  0  0  0  0
    4.2673  -18.3216   -8.8511 C   0  0  0  0  0  0  0  0  0  0  0  0
  2  3  1  6  0  0  0
  2  6  1  0  0  0  0
  2  1  1  0  0  0  0
  4  3  2  0  0  0  0
  5  3  1  0  0  0  0
  6  7  2  0  0  0  0
  8  7  1  6  0  0  0
  8  9  1  0  0  0  0
  8 10  1  0  0  0  0
 11 10  1  6  0  0  0
 11 13  1  0  0  0  0
 12 11  1  0  0  0  0
 12 17  1  0  0  0  0
 13 14  1  6  0  0  0
 13 15  1  0  0  0  0
 15 16  1  1  0  0  0
 17 18  1  6  0  0  0
 17 15  1  0  0  0  0
 18 19  1  0  0  0  0
 20 19  2  0  0  0  0
 21 27  2  0  0  0  0
 21 20  1  0  0  0  0
 22 21  1  0  0  0  0
 23 22  1  0  0  0  0
 24 22  2  0  0  0  0
 24 25  1  0  0  0  0
 25 26  2  0  0  0  0
 26 27  1  0  0  0  0
 27 18  1  0  0  0  0
M  END
>  <CHROM.1>
-27.22970378,-7.91695082,142.87122277,-106.86633486,-59.84039503,106.12085637
5.71240972,-16.86525030,-11.67615259,0.68010840,0.99857183,-0.38735151

>  <Name>
lig.pdb

>  <RI>
0

>  <Rbt.Current_Directory>
/home/itssahil/PROJECTS/Mol_Feturizer/New_Systems/rnas/4b5r

>  <Rbt.Executable>
rbdock ($Id: //depot/dev/client3/rdock/2013.1/src/exe/rbdock.cxx#4 $)

>  <Rbt.Library>
libRbt.so (2013.1, Build901 2013/11/27)

>  <Rbt.Parameter_File>
/export/apps/rDock/src/rDock_2013.1_src/data/scripts/dock_solv.prm

>  <Rbt.Receptor>
prm/pocket_docking_7.prm

>  <SCORE>
-7.89258

>  <SCORE.INTER>
-8.53955

>  <SCORE.INTER.CONST>
1

>  <SCORE.INTER.POLAR>
0

>  <SCORE.INTER.ROT>
6

>  <SCORE.INTER.SOLV>
11.8299

>  <SCORE.INTER.VDW>
-17.2363

>  <SCORE.INTER.norm>
-0.31628

>  <SCORE.INTRA>
0.646964

>  <SCORE.INTRA.DIHEDRAL>
-0.232226

>  <SCORE.INTRA.DIHEDRAL.0>
10.2917

>  <SCORE.INTRA.POLAR>
0

>  <SCORE.INTRA.POLAR.0>
0

>  <SCORE.INTRA.REPUL>
0

>  <SCORE.INTRA.REPUL.0>
0

>  <SCORE.INTRA.SOLV>
-1.91101

>  <SCORE.INTRA.SOLV.lig_0>
-39.6315

>  <SCORE.INTRA.VDW>
1.71858

>  <SCORE.INTRA.VDW.0>
-4.02152

>  <SCORE.INTRA.norm>
0.0239616

>  <SCORE.RESTR>
0

>  <SCORE.RESTR.CAVITY>
0

>  <SCORE.RESTR.norm>
0

>  <SCORE.SYSTEM>
0

>  <SCORE.SYSTEM.CONST>
0

>  <SCORE.SYSTEM.DIHEDRAL>
0

>  <SCORE.SYSTEM.SOLV>
0

>  <SCORE.SYSTEM.norm>
0

>  <SCORE.heavy>
27

>  <SCORE.norm>
-0.292318

>  <RMSD>
4.998

$$$$
lig.pdb
 OpenBabel11021811493D
libRbt.so/2013.1/901 2013/11/27
 27 29  0  0  0  0  0  0  0  0999 V2000
    8.0786  -17.5369  -13.2924 N   0  0  0  0  0  0  0  0  0  0  0  0
    7.1360  -17.4196  -12.1384 C   0  0  2  0  0  0  0  0  0  0  0  0
    6.7474  -18.8177  -11.6668 C   0  0  0  0  0  0  0  0  0  0  0  0
    5.8804  -18.9476  -10.8106 O   0  0  0  0  0  0  0  0  0  0  0  0
    7.2764  -19.8456  -12.1089 O   0  0  0  0  0  0  0  0  0  0  0  0
    5.8965  -16.5520  -12.4367 C   0  0  0  0  0  0  0  0  0  0  0  0
    5.5224  -15.4817  -11.3779 C   0  0  0  0  0  0  0  0  0  0  0  0
    4.0465  -14.4140  -11.6700 S   0  0  2  0  0  0  0  0  0  0  0  0
    4.7864  -13.0053  -12.5228 C   0  0  0  0  0  0  0  0  0  0  0  0
    3.7381  -13.6652  -10.0557 C   0  0  0  0  0  0  0  0  0  0  0  0
    2.8792  -14.5985   -9.2126 C   0  0  1  0  0  0  0  0  0  0  0  0
    3.5383  -15.8170   -8.9028 O   0  0  0  0  0  0  0  0  0  0  0  0
    2.5294  -14.0252   -7.8656 C   0  0  1  0  0  0  0  0  0  0  0  0
    1.4856  -13.1028   -7.9908 O   0  0  0  0  0  0  0  0  0  0  0  0
    2.1263  -15.2809   -7.1247 C   0  0  1  0  0  0  0  0  0  0  0  0
    0.7874  -15.6166   -7.4276 O   0  0  0  0  0  0  0  0  0  0  0  0
    3.0465  -16.3574   -7.6893 C   0  0  2  0  0  0  0  0  0  0  0  0
    4.1526  -16.7789   -6.7864 N   0  0  0  0  0  0  0  0  0  0  0  0
    4.9968  -15.9296   -6.1164 C   0  0  0  0  0  0  0  0  0  0  0  0
    5.8756  -16.6577   -5.3918 N   0  0  0  0  0  0  0  0  0  0  0  0
    5.6084  -17.9612   -5.5750 C   0  0  0  0  0  0  0  0  0  0  0  0
    6.1918  -19.1112   -5.0654 C   0  0  0  0  0  0  0  0  0  0  0  0
    7.2154  -19.0277   -4.2258 N   0  0  0  0  0  0  0  0  0  0  0  0
    5.6903  -20.3426   -5.4378 N   0  0  0  0  0  0  0  0  0  0  0  0
    4.6127  -20.4447   -6.3086 C   0  0  0  0  0  0  0  0  0  0  0  0
    4.0414  -19.2889   -6.8009 N   0  0  0  0  0  0  0  0  0  0  0  0
    4.5298  -18.0636   -6.4500 C   0  0  0  0  0  0  0  0  0  0  0  0
  2  3  1  6  0  0  0
  2  6  1  0  0  0  0
  2  1  1  0  0  0  0
  4  3  2  0  0  0  0
  5  3  1  0  0  0  0
  6  7  2  0  0  0  0
  8  7  1  1  0  0  0
  8  9  1  0  0  0  0
  8 10  1  0  0  0  0
 11 10  1  1  0  0  0
 11 13  1  0  0  0  0
 12 11  1  0  0  0  0
 12 17  1  0  0  0  0
 13 14  1  6  0  0  0
 13 15  1  0  0  0  0
 15 16  1  6  0  0  0
 17 18  1  1  0  0  0
 17 15  1  0  0  0  0
 18 19  1  0  0  0  0
 20 19  2  0  0  0  0
 21 27  2  0  0  0  0
 21 20  1  0  0  0  0
 22 21  1  0  0  0  0
 23 22  1  0  0  0  0
 24 22  2  0  0  0  0
 24 25  1  0  0  0  0
 25 26  2  0  0  0  0
 26 27  1  0  0  0  0
 27 18  1  0  0  0  0
M  END
>  <CHROM.1>
-173.02480459,-132.49370566,-91.40274281,-85.59558217,64.81254395,71.14226128
4.68835131,-16.67207433,-8.80464655,-1.60025360,-0.84581375,2.03387979

>  <Name>
lig.pdb

>  <RI>
0

>  <Rbt.Current_Directory>
/home/itssahil/PROJECTS/Mol_Feturizer/New_Systems/rnas/4b5r

>  <Rbt.Executable>
rbdock ($Id: //depot/dev/client3/rdock/2013.1/src/exe/rbdock.cxx#4 $)

>  <Rbt.Library>
libRbt.so (2013.1, Build901 2013/11/27)

>  <Rbt.Parameter_File>
/export/apps/rDock/src/rDock_2013.1_src/data/scripts/dock_solv.prm

>  <Rbt.Receptor>
prm/pocket_docking_7.prm

>  <SCORE>
-10.5139

>  <SCORE.INTER>
-9.76446

>  <SCORE.INTER.CONST>
1

>  <SCORE.INTER.POLAR>
0

>  <SCORE.INTER.ROT>
6

>  <SCORE.INTER.SOLV>
15.5364

>  <SCORE.INTER.VDW>
-19.2884

>  <SCORE.INTER.norm>
-0.361647

>  <SCORE.INTRA>
-0.749443

>  <SCORE.INTRA.DIHEDRAL>
-1.15347

>  <SCORE.INTRA.DIHEDRAL.0>
10.2917

>  <SCORE.INTRA.POLAR>
0

>  <SCORE.INTRA.POLAR.0>
0

>  <SCORE.INTRA.REPUL>
0.0149195

>  <SCORE.INTRA.REPUL.0>
0

>  <SCORE.INTRA.SOLV>
-3.37791

>  <SCORE.INTRA.SOLV.lig_0>
-39.6315

>  <SCORE.INTRA.VDW>
1.44165

>  <SCORE.INTRA.VDW.0>
-4.02152

>  <SCORE.INTRA.norm>
-0.0277571

>  <SCORE.RESTR>
0

>  <SCORE.RESTR.CAVITY>
0

>  <SCORE.RESTR.norm>
0

>  <SCORE.SYSTEM>
0

>  <SCORE.SYSTEM.CONST>
0

>  <SCORE.SYSTEM.DIHEDRAL>
0

>  <SCORE.SYSTEM.SOLV>
0

>  <SCORE.SYSTEM.norm>
0

>  <SCORE.heavy>
27

>  <SCORE.norm>
-0.389404

>  <RMSD>
5.019

$$$$
lig.pdb
 OpenBabel11021811493D
libRbt.so/2013.1/901 2013/11/27
 27 29  0  0  0  0  0  0  0  0999 V2000
    6.6238  -14.0705  -14.7268 N   0  0  0  0  0  0  0  0  0  0  0  0
    5.5901  -13.1819  -14.1136 C   0  0  2  0  0  0  0  0  0  0  0  0
    6.2536  -11.8868  -13.6545 C   0  0  0  0  0  0  0  0  0  0  0  0
    7.4763  -11.8137  -13.6188 O   0  0  0  0  0  0  0  0  0  0  0  0
    5.6082  -10.8902  -13.3051 O   0  0  0  0  0  0  0  0  0  0  0  0
    4.7945  -13.8514  -12.9750 C   0  0  0  0  0  0  0  0  0  0  0  0
    4.9577  -13.2424  -11.5575 C   0  0  0  0  0  0  0  0  0  0  0  0
    4.0386  -13.9998  -10.1486 S   0  0  2  0  0  0  0  0  0  0  0  0
    4.7890  -15.6400  -10.0715 C   0  0  0  0  0  0  0  0  0  0  0  0
    2.4388  -14.4301  -10.8678 C   0  0  0  0  0  0  0  0  0  0  0  0
    1.5593  -15.0831   -9.8097 C   0  0  1  0  0  0  0  0  0  0  0  0
    1.9845  -16.3970   -9.4807 O   0  0  0  0  0  0  0  0  0  0  0  0
    1.5811  -14.3566   -8.4917 C   0  0  1  0  0  0  0  0  0  0  0  0
    0.7548  -13.2298   -8.5489 O   0  0  0  0  0  0  0  0  0  0  0  0
    1.0525  -15.4342   -7.5709 C   0  0  1  0  0  0  0  0  0  0  0  0
   -0.3590  -15.4731   -7.6265 O   0  0  0  0  0  0  0  0  0  0  0  0
    1.6068  -16.7283   -8.1562 C   0  0  2  0  0  0  0  0  0  0  0  0
    2.7362  -17.3313   -7.3965 N   0  0  0  0  0  0  0  0  0  0  0  0
    2.8811  -18.6671   -7.1180 C   0  0  0  0  0  0  0  0  0  0  0  0
    4.0199  -18.8527   -6.4136 N   0  0  0  0  0  0  0  0  0  0  0  0
    4.6171  -17.6622   -6.2401 C   0  0  0  0  0  0  0  0  0  0  0  0
    5.7953  -17.2957   -5.6075 C   0  0  0  0  0  0  0  0  0  0  0  0
    6.5598  -18.2136   -5.0308 N   0  0  0  0  0  0  0  0  0  0  0  0
    6.1653  -15.9654   -5.5912 N   0  0  0  0  0  0  0  0  0  0  0  0
    5.3793  -14.9949   -6.1995 C   0  0  0  0  0  0  0  0  0  0  0  0
    4.2131  -15.3794   -6.8292 N   0  0  0  0  0  0  0  0  0  0  0  0
    3.8280  -16.6888   -6.8477 C   0  0  0  0  0  0  0  0  0  0  0  0
  2  3  1  1  0  0  0
  2  6  1  0  0  0  0
  2  1  1  0  0  0  0
  4  3  2  0  0  0  0
  5  3  1  0  0  0  0
  6  7  2  0  0  0  0
  8  7  1  6  0  0  0
  8  9  1  0  0  0  0
  8 10  1  0  0  0  0
 11 10  1  6  0  0  0
 11 13  1  0  0  0  0
 12 11  1  0  0  0  0
 12 17  1  0  0  0  0
 13 14  1  6  0  0  0
 13 15  1  0  0  0  0
 15 16  1  6  0  0  0
 17 18  1  1  0  0  0
 17 15  1  0  0  0  0
 18 19  1  0  0  0  0
 20 19  2  0  0  0  0
 21 27  2  0  0  0  0
 21 20  1  0  0  0  0
 22 21  1  0  0  0  0
 23 22  1  0  0  0  0
 24 22  2  0  0  0  0
 24 25  1  0  0  0  0
 25 26  2  0  0  0  0
 26 27  1  0  0  0  0
 27 18  1  0  0  0  0
M  END
>  <CHROM.1>
-11.97840986,115.69964246,64.44145070,179.65697160,-72.12137197,-103.39529686
3.93651410,-15.10590555,-9.28009188,-1.30771461,-0.07361253,2.17108466

>  <Name>
lig.pdb

>  <RI>
0

>  <Rbt.Current_Directory>
/home/itssahil/PROJECTS/Mol_Feturizer/New_Systems/rnas/4b5r

>  <Rbt.Executable>
rbdock ($Id: //depot/dev/client3/rdock/2013.1/src/exe/rbdock.cxx#4 $)

>  <Rbt.Library>
libRbt.so (2013.1, Build901 2013/11/27)

>  <Rbt.Parameter_File>
/export/apps/rDock/src/rDock_2013.1_src/data/scripts/dock_solv.prm

>  <Rbt.Receptor>
prm/pocket_docking_7.prm

>  <SCORE>
-14.4049

>  <SCORE.INTER>
-14.6324

>  <SCORE.INTER.CONST>
1

>  <SCORE.INTER.POLAR>
0

>  <SCORE.INTER.ROT>
6

>  <SCORE.INTER.SOLV>
10.412

>  <SCORE.INTER.VDW>
-20.8256

>  <SCORE.INTER.norm>
-0.541941

>  <SCORE.INTRA>
0.227501

>  <SCORE.INTRA.DIHEDRAL>
-1.09218

>  <SCORE.INTRA.DIHEDRAL.0>
10.2917

>  <SCORE.INTRA.POLAR>
0

>  <SCORE.INTRA.POLAR.0>
0

>  <SCORE.INTRA.REPUL>
0

>  <SCORE.INTRA.REPUL.0>
0

>  <SCORE.INTRA.SOLV>
-1.89487

>  <SCORE.INTRA.SOLV.lig_0>
-39.6315

>  <SCORE.INTRA.VDW>
1.72103

>  <SCORE.INTRA.VDW.0>
-4.02152

>  <SCORE.INTRA.norm>
0.00842598

>  <SCORE.RESTR>
0

>  <SCORE.RESTR.CAVITY>
0

>  <SCORE.RESTR.norm>
0

>  <SCORE.SYSTEM>
0

>  <SCORE.SYSTEM.CONST>
0

>  <SCORE.SYSTEM.DIHEDRAL>
0

>  <SCORE.SYSTEM.SOLV>
0

>  <SCORE.SYSTEM.norm>
0

>  <SCORE.heavy>
27

>  <SCORE.norm>
-0.533515

>  <RMSD>
5.028

$$$$
lig.pdb
 OpenBabel11021811493D
libRbt.so/2013.1/901 2013/11/27
 27 29  0  0  0  0  0  0  0  0999 V2000
    2.9995  -15.4637  -13.4143 N   0  0  0  0  0  0  0  0  0  0  0  0
    3.0738  -14.4442  -12.3239 C   0  0  2  0  0  0  0  0  0  0  0  0
    4.3482  -13.6227  -12.4943 C   0  0  0  0  0  0  0  0  0  0  0  0
    4.6254  -12.7590  -11.6704 O   0  0  0  0  0  0  0  0  0  0  0  0
    5.1277  -13.7833  -13.4422 O   0  0  0  0  0  0  0  0  0  0  0  0
    2.9654  -15.0435  -10.9072 C   0  0  0  0  0  0  0  0  0  0  0  0
    1.8981  -14.4240   -9.9671 C   0  0  0  0  0  0  0  0  0  0  0  0
    1.7204  -15.0901   -8.2559 S   0  0  2  0  0  0  0  0  0  0  0  0
   -0.0189  -14.7456   -7.9160 C   0  0  0  0  0  0  0  0  0  0  0  0
    2.4893  -13.8223   -7.2247 C   0  0  0  0  0  0  0  0  0  0  0  0
    3.8925  -14.2633   -6.8297 C   0  0  1  0  0  0  0  0  0  0  0  0
    3.8897  -15.4120   -5.9956 O   0  0  0  0  0  0  0  0  0  0  0  0
    4.7367  -14.6742   -8.0061 C   0  0  1  0  0  0  0  0  0  0  0  0
    5.2281  -13.5428   -8.6652 O   0  0  0  0  0  0  0  0  0  0  0  0
    5.8170  -15.4711   -7.3089 C   0  0  1  0  0  0  0  0  0  0  0  0
    6.8047  -14.6034   -6.7908 O   0  0  0  0  0  0  0  0  0  0  0  0
    5.0922  -16.1448   -6.1491 C   0  0  2  0  0  0  0  0  0  0  0  0
    4.8310  -17.5995   -6.3280 N   0  0  0  0  0  0  0  0  0  0  0  0
    3.8305  -18.1368   -7.0982 C   0  0  0  0  0  0  0  0  0  0  0  0
    3.8922  -19.4854   -7.0283 N   0  0  0  0  0  0  0  0  0  0  0  0
    4.9197  -19.8284   -6.2341 C   0  0  0  0  0  0  0  0  0  0  0  0
    5.4210  -21.0599   -5.8409 C   0  0  0  0  0  0  0  0  0  0  0  0
    4.8582  -22.1811   -6.2720 N   0  0  0  0  0  0  0  0  0  0  0  0
    6.5161  -21.1041   -5.0009 N   0  0  0  0  0  0  0  0  0  0  0  0
    7.1214  -19.9381   -4.5496 C   0  0  0  0  0  0  0  0  0  0  0  0
    6.6119  -18.7217   -4.9563 N   0  0  0  0  0  0  0  0  0  0  0  0
    5.5250  -18.6594   -5.7796 C   0  0  0  0  0  0  0  0  0  0  0  0
  2  3  1  1  0  0  0
  2  6  1  0  0  0  0
  2  1  1  0  0  0  0
  4  3  2  0  0  0  0
  5  3  1  0  0  0  0
  6  7  2  0  0  0  0
  8  7  1  6  0  0  0
  8  9  1  0  0  0  0
  8 10  1  0  0  0  0
 11 10  1  6  0  0  0
 11 13  1  0  0  0  0
 12 11  1  0  0  0  0
 12 17  1  0  0  0  0
 13 14  1  1  0  0  0
 13 15  1  0  0  0  0
 15 16  1  1  0  0  0
 17 18  1  6  0  0  0
 17 15  1  0  0  0  0
 18 19  1  0  0  0  0
 20 19  2  0  0  0  0
 21 27  2  0  0  0  0
 21 20  1  0  0  0  0
 22 21  1  0  0  0  0
 23 22  1  0  0  0  0
 24 22  2  0  0  0  0
 24 25  1  0  0  0  0
 25 26  2  0  0  0  0
 26 27  1  0  0  0  0
 27 18  1  0  0  0  0
M  END
>  <CHROM.1>
-177.36902607,-127.64759366,-151.96814468,-101.16349795,-65.29868426,41.35325371
4.25179015,-16.29220687,-8.06676145,-2.11729649,-1.02831707,1.89820888

>  <Name>
lig.pdb

>  <RI>
0

>  <Rbt.Current_Directory>
/home/itssahil/PROJECTS/Mol_Feturizer/New_Systems/rnas/4b5r

>  <Rbt.Executable>
rbdock ($Id: //depot/dev/client3/rdock/2013.1/src/exe/rbdock.cxx#4 $)

>  <Rbt.Library>
libRbt.so (2013.1, Build901 2013/11/27)

>  <Rbt.Parameter_File>
/export/apps/rDock/src/rDock_2013.1_src/data/scripts/dock_solv.prm

>  <Rbt.Receptor>
prm/pocket_docking_8.prm

>  <SCORE>
-15.2049

>  <SCORE.INTER>
-15.133

>  <SCORE.INTER.CONST>
1

>  <SCORE.INTER.POLAR>
0

>  <SCORE.INTER.ROT>
6

>  <SCORE.INTER.SOLV>
14.0972

>  <SCORE.INTER.VDW>
-22.3878

>  <SCORE.INTER.norm>
-0.560482

>  <SCORE.INTRA>
-0.0718278

>  <SCORE.INTRA.DIHEDRAL>
0.798602

>  <SCORE.INTRA.DIHEDRAL.0>
10.2917

>  <SCORE.INTRA.POLAR>
0

>  <SCORE.INTRA.POLAR.0>
0

>  <SCORE.INTRA.REPUL>
0.00292371

>  <SCORE.INTRA.REPUL.0>
0

>  <SCORE.INTRA.SOLV>
-2.433

>  <SCORE.INTRA.SOLV.lig_0>
-39.6315

>  <SCORE.INTRA.VDW>
0.73075

>  <SCORE.INTRA.VDW.0>
-4.02152

>  <SCORE.INTRA.norm>
-0.00266029

>  <SCORE.RESTR>
0

>  <SCORE.RESTR.CAVITY>
0

>  <SCORE.RESTR.norm>
0

>  <SCORE.SYSTEM>
0

>  <SCORE.SYSTEM.CONST>
0

>  <SCORE.SYSTEM.DIHEDRAL>
0

>  <SCORE.SYSTEM.SOLV>
0

>  <SCORE.SYSTEM.norm>
0

>  <SCORE.heavy>
27

>  <SCORE.norm>
-0.563143

>  <RMSD>
5.030

$$$$
lig.pdb
 OpenBabel11021811493D
libRbt.so/2013.1/901 2013/11/27
 27 29  0  0  0  0  0  0  0  0999 V2000
    7.1322  -18.5175  -16.5308 N   0  0  0  0  0  0  0  0  0  0  0  0
    7.4487  -17.3816  -15.6123 C   0  0  2  0  0  0  0  0  0  0  0  0
    7.6613  -17.9240  -14.2021 C   0  0  0  0  0  0  0  0  0  0  0  0
    7.3356  -19.0765  -13.9423 O   0  0  0  0  0  0  0  0  0  0  0  0
    8.1497  -17.2457  -13.2894 O   0  0  0  0  0  0  0  0  0  0  0  0
    6.3984  -16.2529  -15.6383 C   0  0  0  0  0  0  0  0  0  0  0  0
    6.8881  -14.8345  -15.2446 C   0  0  0  0  0  0  0  0  0  0  0  0
    5.6807  -13.4396  -15.2484 S   0  0  2  0  0  0  0  0  0  0  0  0
    5.7134  -12.9421  -16.9836 C   0  0  0  0  0  0  0  0  0  0  0  0
    6.6097  -12.0720  -14.5218 C   0  0  0  0  0  0  0  0  0  0  0  0
    6.5859  -12.1849  -13.0032 C   0  0  1  0  0  0  0  0  0  0  0  0
    5.2770  -12.0656  -12.4668 O   0  0  0  0  0  0  0  0  0  0  0  0
    7.0604  -13.5224  -12.5018 C   0  0  1  0  0  0  0  0  0  0  0  0
    8.4575  -13.5796  -12.5302 O   0  0  0  0  0  0  0  0  0  0  0  0
    6.4951  -13.5105  -11.0988 C   0  0  1  0  0  0  0  0  0  0  0  0
    7.3480  -12.7857  -10.2361 O   0  0  0  0  0  0  0  0  0  0  0  0
    5.1754  -12.7594  -11.2360 C   0  0  2  0  0  0  0  0  0  0  0  0
    3.9560  -13.6118  -11.1839 N   0  0  0  0  0  0  0  0  0  0  0  0
    3.3801  -14.2389  -12.2600 C   0  0  0  0  0  0  0  0  0  0  0  0
    2.2922  -14.9249  -11.8439 N   0  0  0  0  0  0  0  0  0  0  0  0
    2.1605  -14.7593  -10.5175 C   0  0  0  0  0  0  0  0  0  0  0  0
    1.2355  -15.2458   -9.6063 C   0  0  0  0  0  0  0  0  0  0  0  0
    0.2500  -16.0369  -10.0095 N   0  0  0  0  0  0  0  0  0  0  0  0
    1.3569  -14.9018   -8.2746 N   0  0  0  0  0  0  0  0  0  0  0  0
    2.3895  -14.0821   -7.8368 C   0  0  0  0  0  0  0  0  0  0  0  0
    3.3040  -13.6122   -8.7574 N   0  0  0  0  0  0  0  0  0  0  0  0
    3.1942  -13.9355  -10.0790 C   0  0  0  0  0  0  0  0  0  0  0  0
  2  3  1  1  0  0  0
  2  6  1  0  0  0  0
  2  1  1  0  0  0  0
  4  3  2  0  0  0  0
  5  3  1  0  0  0  0
  6  7  2  0  0  0  0
  8  7  1  6  0  0  0
  8  9  1  0  0  0  0
  8 10  1  0  0  0  0
 11 10  1  6  0  0  0
 11 13  1  0  0  0  0
 12 11  1  0  0  0  0
 12 17  1  0  0  0  0
 13 14  1  1  0  0  0
 13 15  1  0  0  0  0
 15 16  1  1  0  0  0
 17 18  1  6  0  0  0
 17 15  1  0  0  0  0
 18 19  1  0  0  0  0
 20 19  2  0  0  0  0
 21 27  2  0  0  0  0
 21 20  1  0  0  0  0
 22 21  1  0  0  0  0
 23 22  1  0  0  0  0
 24 22  2  0  0  0  0
 24 25  1  0  0  0  0
 25 26  2  0  0  0  0
 26 27  1  0  0  0  0
 27 18  1  0  0  0  0
M  END
>  <CHROM.1>
-12.62020693,-154.29045952,-84.49053674,-82.01395655,-63.44923379,32.27020285
5.24585677,-14.58437136,-12.56048071,0.41355191,-0.79907697,-2.86233418

>  <Name>
lig.pdb

>  <RI>
0

>  <Rbt.Current_Directory>
/home/itssahil/PROJECTS/Mol_Feturizer/New_Systems/rnas/4b5r

>  <Rbt.Executable>
rbdock ($Id: //depot/dev/client3/rdock/2013.1/src/exe/rbdock.cxx#4 $)

>  <Rbt.Library>
libRbt.so (2013.1, Build901 2013/11/27)

>  <Rbt.Parameter_File>
/export/apps/rDock/src/rDock_2013.1_src/data/scripts/dock_solv.prm

>  <Rbt.Receptor>
prm/blind_docking_60.prm

>  <SCORE>
-11.7054

>  <SCORE.INTER>
-11.1125

>  <SCORE.INTER.CONST>
1

>  <SCORE.INTER.POLAR>
0

>  <SCORE.INTER.ROT>
6

>  <SCORE.INTER.SOLV>
16.3341

>  <SCORE.INTER.VDW>
-20.453

>  <SCORE.INTER.norm>
-0.411572

>  <SCORE.INTRA>
-0.592914

>  <SCORE.INTRA.DIHEDRAL>
-0.348786

>  <SCORE.INTRA.DIHEDRAL.0>
10.2917

>  <SCORE.INTRA.POLAR>
0

>  <SCORE.INTRA.POLAR.0>
0

>  <SCORE.INTRA.REPUL>
0

>  <SCORE.INTRA.REPUL.0>
0

>  <SCORE.INTRA.SOLV>
-3.11498

>  <SCORE.INTRA.SOLV.lig_0>
-39.6315

>  <SCORE.INTRA.VDW>
1.13897

>  <SCORE.INTRA.VDW.0>
-4.02152

>  <SCORE.INTRA.norm>
-0.0219598

>  <SCORE.RESTR>
0

>  <SCORE.RESTR.CAVITY>
0

>  <SCORE.RESTR.norm>
0

>  <SCORE.SYSTEM>
0

>  <SCORE.SYSTEM.CONST>
0

>  <SCORE.SYSTEM.DIHEDRAL>
0

>  <SCORE.SYSTEM.SOLV>
0

>  <SCORE.SYSTEM.norm>
0

>  <SCORE.heavy>
27

>  <SCORE.norm>
-0.433532

>  <RMSD>
5.040

$$$$
lig.pdb
 OpenBabel11021811493D
libRbt.so/2013.1/901 2013/11/27
 27 29  0  0  0  0  0  0  0  0999 V2000
    7.5189  -13.6985  -11.1003 N   0  0  0  0  0  0  0  0  0  0  0  0
    7.1692  -14.8311  -10.1898 C   0  0  2  0  0  0  0  0  0  0  0  0
    6.8342  -16.0610  -11.0285 C   0  0  0  0  0  0  0  0  0  0  0  0
    7.6954  -16.9098  -11.2274 O   0  0  0  0  0  0  0  0  0  0  0  0
    5.7186  -16.2458  -11.5317 O   0  0  0  0  0  0  0  0  0  0  0  0
    6.0437  -14.4973   -9.1900 C   0  0  0  0  0  0  0  0  0  0  0  0
    6.3593  -14.7121   -7.6864 C   0  0  0  0  0  0  0  0  0  0  0  0
    5.0541  -14.3380   -6.4374 S   0  0  2  0  0  0  0  0  0  0  0  0
    5.7546  -15.0871   -4.9516 C   0  0  0  0  0  0  0  0  0  0  0  0
    3.7585  -15.5418   -6.8037 C   0  0  0  0  0  0  0  0  0  0  0  0
    2.6703  -14.8854   -7.6429 C   0  0  1  0  0  0  0  0  0  0  0  0
    3.1950  -14.0135   -8.6328 O   0  0  0  0  0  0  0  0  0  0  0  0
    1.8530  -15.8741   -8.4301 C   0  0  1  0  0  0  0  0  0  0  0  0
    0.9080  -16.4867   -7.6009 O   0  0  0  0  0  0  0  0  0  0  0  0
    1.2322  -14.9614   -9.4645 C   0  0  1  0  0  0  0  0  0  0  0  0
    0.0957  -14.3169   -8.9260 O   0  0  0  0  0  0  0  0  0  0  0  0
    2.3108  -13.9185   -9.7355 C   0  0  2  0  0  0  0  0  0  0  0  0
    3.0279  -14.0744  -11.0307 N   0  0  0  0  0  0  0  0  0  0  0  0
    4.2251  -13.4850  -11.3504 C   0  0  0  0  0  0  0  0  0  0  0  0
    4.5773  -13.8473  -12.6043 N   0  0  0  0  0  0  0  0  0  0  0  0
    3.6337  -14.6667  -13.0964 C   0  0  0  0  0  0  0  0  0  0  0  0
    3.5116  -15.3207  -14.3129 C   0  0  0  0  0  0  0  0  0  0  0  0
    4.4473  -15.1854  -15.2433 N   0  0  0  0  0  0  0  0  0  0  0  0
    2.4079  -16.1186  -14.5407 N   0  0  0  0  0  0  0  0  0  0  0  0
    1.4251  -16.2771  -13.5718 C   0  0  0  0  0  0  0  0  0  0  0  0
    1.5668  -15.6229  -12.3649 N   0  0  0  0  0  0  0  0  0  0  0  0
    2.6472  -14.8236  -12.1260 C   0  0  0  0  0  0  0  0  0  0  0  0
  2  3  1  6  0  0  0
  2  6  1  0  0  0  0
  2  1  1  0  0  0  0
  4  3  2  0  0  0  0
  5  3  1  0  0  0  0
  6  7  2  0  0  0  0
  8  7  1  6  0  0  0
  8  9  1  0  0  0  0
  8 10  1  0  0  0  0
 11 10  1  6  0  0  0
 11 13  1  0  0  0  0
 12 11  1  0  0  0  0
 12 17  1  0  0  0  0
 13 14  1  1  0  0  0
 13 15  1  0  0  0  0
 15 16  1  1  0  0  0
 17 18  1  6  0  0  0
 17 15  1  0  0  0  0
 18 19  1  0  0  0  0
 20 19  2  0  0  0  0
 21 27  2  0  0  0  0
 21 20  1  0  0  0  0
 22 21  1  0  0  0  0
 23 22  1  0  0  0  0
 24 22  2  0  0  0  0
 24 25  1  0  0  0  0
 25 26  2  0  0  0  0
 26 27  1  0  0  0  0
 27 18  1  0  0  0  0
M  END
>  <CHROM.1>
96.99852790,-124.81818451,167.72065792,-98.83774586,40.29267187,-43.71816061
3.96019699,-15.01304149,-10.15235239,-1.70285972,0.01702159,1.50414386

>  <Name>
lig.pdb

>  <RI>
0

>  <Rbt.Current_Directory>
/home/itssahil/PROJECTS/Mol_Feturizer/New_Systems/rnas/4b5r

>  <Rbt.Executable>
rbdock ($Id: //depot/dev/client3/rdock/2013.1/src/exe/rbdock.cxx#4 $)

>  <Rbt.Library>
libRbt.so (2013.1, Build901 2013/11/27)

>  <Rbt.Parameter_File>
/export/apps/rDock/src/rDock_2013.1_src/data/scripts/dock_solv.prm

>  <Rbt.Receptor>
prm/pocket_docking_4.prm

>  <SCORE>
-14.8356

>  <SCORE.INTER>
-14.1178

>  <SCORE.INTER.CONST>
1

>  <SCORE.INTER.POLAR>
0

>  <SCORE.INTER.ROT>
6

>  <SCORE.INTER.SOLV>
15.8796

>  <SCORE.INTER.VDW>
-22.3051

>  <SCORE.INTER.norm>
-0.522881

>  <SCORE.INTRA>
-0.717826

>  <SCORE.INTRA.DIHEDRAL>
0.427476

>  <SCORE.INTRA.DIHEDRAL.0>
10.2917

>  <SCORE.INTRA.POLAR>
0

>  <SCORE.INTRA.POLAR.0>
0

>  <SCORE.INTRA.REPUL>
0

>  <SCORE.INTRA.REPUL.0>
0

>  <SCORE.INTRA.SOLV>
-1.25932

>  <SCORE.INTRA.SOLV.lig_0>
-39.6315

>  <SCORE.INTRA.VDW>
-0.301903

>  <SCORE.INTRA.VDW.0>
-4.02152

>  <SCORE.INTRA.norm>
-0.0265862

>  <SCORE.RESTR>
0

>  <SCORE.RESTR.CAVITY>
0

>  <SCORE.RESTR.norm>
0

>  <SCORE.SYSTEM>
0

>  <SCORE.SYSTEM.CONST>
0

>  <SCORE.SYSTEM.DIHEDRAL>
0

>  <SCORE.SYSTEM.SOLV>
0

>  <SCORE.SYSTEM.norm>
0

>  <SCORE.heavy>
27

>  <SCORE.norm>
-0.549467

>  <RMSD>
5.046

$$$$
lig.pdb
 OpenBabel11021811493D
libRbt.so/2013.1/901 2013/11/27
 27 29  0  0  0  0  0  0  0  0999 V2000
    5.4576  -10.7773  -13.1998 N   0  0  0  0  0  0  0  0  0  0  0  0
    5.8933  -12.0620  -12.5722 C   0  0  2  0  0  0  0  0  0  0  0  0
    6.5110  -12.9566  -13.6429 C   0  0  0  0  0  0  0  0  0  0  0  0
    5.9400  -13.0947  -14.7183 O   0  0  0  0  0  0  0  0  0  0  0  0
    7.5757  -13.5650  -13.4757 O   0  0  0  0  0  0  0  0  0  0  0  0
    4.7719  -12.7857  -11.7999 C   0  0  0  0  0  0  0  0  0  0  0  0
    5.1268  -13.3127  -10.3847 C   0  0  0  0  0  0  0  0  0  0  0  0
    3.8325  -14.1939   -9.4091 S   0  0  2  0  0  0  0  0  0  0  0  0
    4.5131  -15.8646   -9.3376 C   0  0  0  0  0  0  0  0  0  0  0  0
    2.5049  -14.4567  -10.6049 C   0  0  0  0  0  0  0  0  0  0  0  0
    1.4811  -15.4268  -10.0303 C   0  0  1  0  0  0  0  0  0  0  0  0
    1.9347  -16.7719  -10.0446 O   0  0  0  0  0  0  0  0  0  0  0  0
    1.1685  -15.1673   -8.5811 C   0  0  1  0  0  0  0  0  0  0  0  0
    0.2827  -14.0913   -8.4644 O   0  0  0  0  0  0  0  0  0  0  0  0
    0.5500  -16.4907   -8.1882 C   0  0  1  0  0  0  0  0  0  0  0  0
   -0.8110  -16.5238   -8.5671 O   0  0  0  0  0  0  0  0  0  0  0  0
    1.3181  -17.5190   -9.0110 C   0  0  2  0  0  0  0  0  0  0  0  0
    2.3103  -18.3243   -8.2473 N   0  0  0  0  0  0  0  0  0  0  0  0
    2.6456  -18.1292   -6.9311 C   0  0  0  0  0  0  0  0  0  0  0  0
    3.5753  -19.0416   -6.5699 N   0  0  0  0  0  0  0  0  0  0  0  0
    3.8398  -19.8277   -7.6265 C   0  0  0  0  0  0  0  0  0  0  0  0
    4.6939  -20.9072   -7.7925 C   0  0  0  0  0  0  0  0  0  0  0  0
    5.4391  -21.3336   -6.7813 N   0  0  0  0  0  0  0  0  0  0  0  0
    4.7539  -21.5359   -9.0204 N   0  0  0  0  0  0  0  0  0  0  0  0
    3.9721  -21.1061  -10.0852 C   0  0  0  0  0  0  0  0  0  0  0  0
    3.1236  -20.0336   -9.8994 N   0  0  0  0  0  0  0  0  0  0  0  0
    3.0578  -19.3953   -8.6947 C   0  0  0  0  0  0  0  0  0  0  0  0
  2  3  1  6  0  0  0
  2  6  1  0  0  0  0
  2  1  1  0  0  0  0
  4  3  2  0  0  0  0
  5  3  1  0  0  0  0
  6  7  2  0  0  0  0
  8  7  1  6  0  0  0
  8  9  1  0  0  0  0
  8 10  1  0  0  0  0
 11 10  1  1  0  0  0
 11 13  1  0  0  0  0
 12 11  1  0  0  0  0
 12 17  1  0  0  0  0
 13 14  1  6  0  0  0
 13 15  1  0  0  0  0
 15 16  1  6  0  0  0
 17 18  1  1  0  0  0
 17 15  1  0  0  0  0
 18 19  1  0  0  0  0
 20 19  2  0  0  0  0
 21 27  2  0  0  0  0
 21 20  1  0  0  0  0
 22 21  1  0  0  0  0
 23 22  1  0  0  0  0
 24 22  2  0  0  0  0
 24 25  1  0  0  0  0
 25 26  2  0  0  0  0
 26 27  1  0  0  0  0
 27 18  1  0  0  0  0
M  END
>  <CHROM.1>
-46.20115485,-133.30700915,113.40354565,168.32469829,-75.32872153,113.71268452
3.52995047,-16.29974190,-9.78869086,-1.25997761,-0.50331920,2.71397361

>  <Name>
lig.pdb

>  <RI>
0

>  <Rbt.Current_Directory>
/home/itssahil/PROJECTS/Mol_Feturizer/New_Systems/rnas/4b5r

>  <Rbt.Executable>
rbdock ($Id: //depot/dev/client3/rdock/2013.1/src/exe/rbdock.cxx#4 $)

>  <Rbt.Library>
libRbt.so (2013.1, Build901 2013/11/27)

>  <Rbt.Parameter_File>
/export/apps/rDock/src/rDock_2013.1_src/data/scripts/dock_solv.prm

>  <Rbt.Receptor>
prm/pocket_docking_6.prm

>  <SCORE>
-12.3938

>  <SCORE.INTER>
-13.2519

>  <SCORE.INTER.CONST>
1

>  <SCORE.INTER.POLAR>
0

>  <SCORE.INTER.ROT>
6

>  <SCORE.INTER.SOLV>
16.6418

>  <SCORE.INTER.VDW>
-21.9818

>  <SCORE.INTER.norm>
-0.49081

>  <SCORE.INTRA>
0.858034

>  <SCORE.INTRA.DIHEDRAL>
-2.00618

>  <SCORE.INTRA.DIHEDRAL.0>
10.2917

>  <SCORE.INTRA.POLAR>
0

>  <SCORE.INTRA.POLAR.0>
0

>  <SCORE.INTRA.REPUL>
0.00703787

>  <SCORE.INTRA.REPUL.0>
0

>  <SCORE.INTRA.SOLV>
-2.8641

>  <SCORE.INTRA.SOLV.lig_0>
-39.6315

>  <SCORE.INTRA.VDW>
3.25798

>  <SCORE.INTRA.VDW.0>
-4.02152

>  <SCORE.INTRA.norm>
0.031779

>  <SCORE.RESTR>
0

>  <SCORE.RESTR.CAVITY>
0

>  <SCORE.RESTR.norm>
0

>  <SCORE.SYSTEM>
0

>  <SCORE.SYSTEM.CONST>
0

>  <SCORE.SYSTEM.DIHEDRAL>
0

>  <SCORE.SYSTEM.SOLV>
0

>  <SCORE.SYSTEM.norm>
0

>  <SCORE.heavy>
27

>  <SCORE.norm>
-0.459031

>  <RMSD>
5.054

$$$$
lig.pdb
 OpenBabel11021811493D
libRbt.so/2013.1/901 2013/11/27
 27 29  0  0  0  0  0  0  0  0999 V2000
    7.4686  -14.2442  -10.2842 N   0  0  0  0  0  0  0  0  0  0  0  0
    6.8025  -15.5572  -10.0262 C   0  0  2  0  0  0  0  0  0  0  0  0
    6.2652  -16.1117  -11.3423 C   0  0  0  0  0  0  0  0  0  0  0  0
    6.9835  -16.1144  -12.3352 O   0  0  0  0  0  0  0  0  0  0  0  0
    5.1187  -16.5623  -11.4617 O   0  0  0  0  0  0  0  0  0  0  0  0
    5.7068  -15.4937   -8.9430 C   0  0  0  0  0  0  0  0  0  0  0  0
    5.5549  -14.1506   -8.1816 C   0  0  0  0  0  0  0  0  0  0  0  0
    4.2671  -14.0091   -6.8682 S   0  0  2  0  0  0  0  0  0  0  0  0
    5.2826  -13.9334   -5.3774 C   0  0  0  0  0  0  0  0  0  0  0  0
    3.6285  -15.6917   -6.7167 C   0  0  0  0  0  0  0  0  0  0  0  0
    2.3289  -15.8199   -7.5003 C   0  0  1  0  0  0  0  0  0  0  0  0
    2.2328  -14.8772   -8.5573 O   0  0  0  0  0  0  0  0  0  0  0  0
    2.1821  -17.1500   -8.1891 C   0  0  1  0  0  0  0  0  0  0  0  0
    1.7791  -18.1258   -7.2719 O   0  0  0  0  0  0  0  0  0  0  0  0
    1.1163  -16.8188   -9.2102 C   0  0  1  0  0  0  0  0  0  0  0  0
   -0.1644  -16.8855   -8.6166 O   0  0  0  0  0  0  0  0  0  0  0  0
    1.4081  -15.3731   -9.5967 C   0  0  2  0  0  0  0  0  0  0  0  0
    2.0387  -15.1924  -10.9331 N   0  0  0  0  0  0  0  0  0  0  0  0
    1.6188  -15.7889  -12.0954 C   0  0  0  0  0  0  0  0  0  0  0  0
    2.4221  -15.3982  -13.1100 N   0  0  0  0  0  0  0  0  0  0  0  0
    3.3473  -14.5537  -12.6255 C   0  0  0  0  0  0  0  0  0  0  0  0
    4.3879  -13.8661  -13.2314 C   0  0  0  0  0  0  0  0  0  0  0  0
    4.6032  -13.9890  -14.5345 N   0  0  0  0  0  0  0  0  0  0  0  0
    5.1922  -13.0480  -12.4629 N   0  0  0  0  0  0  0  0  0  0  0  0
    4.9722  -12.9024  -11.0990 C   0  0  0  0  0  0  0  0  0  0  0  0
    3.9282  -13.5901  -10.5147 N   0  0  0  0  0  0  0  0  0  0  0  0
    3.1285  -14.4095  -11.2577 C   0  0  0  0  0  0  0  0  0  0  0  0
  2  3  1  6  0  0  0
  2  6  1  0  0  0  0
  2  1  1  0  0  0  0
  4  3  2  0  0  0  0
  5  3  1  0  0  0  0
  6  7  2  0  0  0  0
  8  7  1  6  0  0  0
  8  9  1  0  0  0  0
  8 10  1  0  0  0  0
 11 10  1  6  0  0  0
 11 13  1  0  0  0  0
 12 11  1  0  0  0  0
 12 17  1  0  0  0  0
 13 14  1  1  0  0  0
 13 15  1  0  0  0  0
 15 16  1  1  0  0  0
 17 18  1  6  0  0  0
 17 15  1  0  0  0  0
 18 19  1  0  0  0  0
 20 19  2  0  0  0  0
 21 27  2  0  0  0  0
 21 20  1  0  0  0  0
 22 21  1  0  0  0  0
 23 22  1  0  0  0  0
 24 22  2  0  0  0  0
 24 25  1  0  0  0  0
 25 26  2  0  0  0  0
 26 27  1  0  0  0  0
 27 18  1  0  0  0  0
M  END
>  <CHROM.1>
47.00309141,-6.27414957,109.79526521,-99.03629089,25.09717643,166.80548869
3.84231080,-15.15227339,-9.88773847,-1.09345908,0.37948570,1.62698441

>  <Name>
lig.pdb

>  <RI>
0

>  <Rbt.Current_Directory>
/home/itssahil/PROJECTS/Mol_Feturizer/New_Systems/rnas/4b5r

>  <Rbt.Executable>
rbdock ($Id: //depot/dev/client3/rdock/2013.1/src/exe/rbdock.cxx#4 $)

>  <Rbt.Library>
libRbt.so (2013.1, Build901 2013/11/27)

>  <Rbt.Parameter_File>
/export/apps/rDock/src/rDock_2013.1_src/data/scripts/dock_solv.prm

>  <Rbt.Receptor>
prm/pocket_docking_2.prm

>  <SCORE>
-7.35059

>  <SCORE.INTER>
-11.2961

>  <SCORE.INTER.CONST>
1

>  <SCORE.INTER.POLAR>
0

>  <SCORE.INTER.ROT>
6

>  <SCORE.INTER.SOLV>
12.0072

>  <SCORE.INTER.VDW>
-19.1331

>  <SCORE.INTER.norm>
-0.418372

>  <SCORE.INTRA>
2.65466

>  <SCORE.INTRA.DIHEDRAL>
2.67892

>  <SCORE.INTRA.DIHEDRAL.0>
10.2917

>  <SCORE.INTRA.POLAR>
0

>  <SCORE.INTRA.POLAR.0>
0

>  <SCORE.INTRA.REPUL>
0.219845

>  <SCORE.INTRA.REPUL.0>
0

>  <SCORE.INTRA.SOLV>
2.4819

>  <SCORE.INTRA.SOLV.lig_0>
-39.6315

>  <SCORE.INTRA.VDW>
-1.02497

>  <SCORE.INTRA.VDW.0>
-4.02152

>  <SCORE.INTRA.norm>
0.0983209

>  <SCORE.RESTR>
1.2908

>  <SCORE.RESTR.CAVITY>
1.2908

>  <SCORE.RESTR.norm>
0.0478073

>  <SCORE.SYSTEM>
0

>  <SCORE.SYSTEM.CONST>
0

>  <SCORE.SYSTEM.DIHEDRAL>
0

>  <SCORE.SYSTEM.SOLV>
0

>  <SCORE.SYSTEM.norm>
0

>  <SCORE.heavy>
27

>  <SCORE.norm>
-0.272244

>  <RMSD>
5.067

$$$$
lig.pdb
 OpenBabel11021811493D
libRbt.so/2013.1/901 2013/11/27
 27 29  0  0  0  0  0  0  0  0999 V2000
    5.6767  -12.5744  -14.3991 N   0  0  0  0  0  0  0  0  0  0  0  0
    5.6385  -11.9733  -13.0312 C   0  0  2  0  0  0  0  0  0  0  0  0
    7.0654  -11.6952  -12.5678 C   0  0  0  0  0  0  0  0  0  0  0  0
    7.3352  -11.7529  -11.3738 O   0  0  0  0  0  0  0  0  0  0  0  0
    7.9795  -11.4039  -13.3497 O   0  0  0  0  0  0  0  0  0  0  0  0
    4.8587  -12.8192  -12.0044 C   0  0  0  0  0  0  0  0  0  0  0  0
    4.4163  -14.2351  -12.4586 C   0  0  0  0  0  0  0  0  0  0  0  0
    3.4739  -15.2971  -11.2807 S   0  0  2  0  0  0  0  0  0  0  0  0
    3.1481  -16.7550  -12.2945 C   0  0  0  0  0  0  0  0  0  0  0  0
    1.8254  -14.5594  -11.2694 C   0  0  0  0  0  0  0  0  0  0  0  0
    1.1513  -14.8294   -9.9308 C   0  0  1  0  0  0  0  0  0  0  0  0
    1.1959  -16.1999   -9.5632 O   0  0  0  0  0  0  0  0  0  0  0  0
    1.8185  -14.1257   -8.7797 C   0  0  1  0  0  0  0  0  0  0  0  0
    1.4382  -12.7801   -8.7519 O   0  0  0  0  0  0  0  0  0  0  0  0
    1.2739  -14.9207   -7.6137 C   0  0  1  0  0  0  0  0  0  0  0  0
   -0.0144  -14.4555   -7.2663 O   0  0  0  0  0  0  0  0  0  0  0  0
    1.1580  -16.3416   -8.1542 C   0  0  2  0  0  0  0  0  0  0  0  0
    2.1991  -17.2883   -7.6683 N   0  0  0  0  0  0  0  0  0  0  0  0
    2.1846  -18.6476   -7.8555 C   0  0  0  0  0  0  0  0  0  0  0  0
    3.2841  -19.1863   -7.2825 N   0  0  0  0  0  0  0  0  0  0  0  0
    4.0124  -18.1986   -6.7366 C   0  0  0  0  0  0  0  0  0  0  0  0
    5.2159  -18.2013   -6.0479 C   0  0  0  0  0  0  0  0  0  0  0  0
    5.8607  -19.3399   -5.8302 N   0  0  0  0  0  0  0  0  0  0  0  0
    5.7368  -17.0044   -5.5977 N   0  0  0  0  0  0  0  0  0  0  0  0
    5.0772  -15.8036   -5.8270 C   0  0  0  0  0  0  0  0  0  0  0  0
    3.8834  -15.8200   -6.5193 N   0  0  0  0  0  0  0  0  0  0  0  0
    3.3498  -16.9950   -6.9642 C   0  0  0  0  0  0  0  0  0  0  0  0
  2  3  1  1  0  0  0
  2  6  1  0  0  0  0
  2  1  1  0  0  0  0
  4  3  2  0  0  0  0
  5  3  1  0  0  0  0
  6  7  2  0  0  0  0
  8  7  1  6  0  0  0
  8  9  1  0  0  0  0
  8 10  1  0  0  0  0
 11 10  1  6  0  0  0
 11 13  1  0  0  0  0
 12 11  1  0  0  0  0
 12 17  1  0  0  0  0
 13 14  1  1  0  0  0
 13 15  1  0  0  0  0
 15 16  1  6  0  0  0
 17 18  1  1  0  0  0
 17 15  1  0  0  0  0
 18 19  1  0  0  0  0
 20 19  2  0  0  0  0
 21 27  2  0  0  0  0
 21 20  1  0  0  0  0
 22 21  1  0  0  0  0
 23 22  1  0  0  0  0
 24 22  2  0  0  0  0
 24 25  1  0  0  0  0
 25 26  2  0  0  0  0
 26 27  1  0  0  0  0
 27 18  1  0  0  0  0
M  END
>  <CHROM.1>
-149.15211655,8.69280144,177.50444535,-152.29383064,-50.63690177,-70.75295091
3.68713920,-15.24703474,-9.41456846,-1.24186346,0.00516396,2.26403822

>  <Name>
lig.pdb

>  <RI>
0

>  <Rbt.Current_Directory>
/home/itssahil/PROJECTS/Mol_Feturizer/New_Systems/rnas/4b5r

>  <Rbt.Executable>
rbdock ($Id: //depot/dev/client3/rdock/2013.1/src/exe/rbdock.cxx#4 $)

>  <Rbt.Library>
libRbt.so (2013.1, Build901 2013/11/27)

>  <Rbt.Parameter_File>
/export/apps/rDock/src/rDock_2013.1_src/data/scripts/dock_solv.prm

>  <Rbt.Receptor>
prm/pocket_docking_6.prm

>  <SCORE>
-15.9694

>  <SCORE.INTER>
-16.6876

>  <SCORE.INTER.CONST>
1

>  <SCORE.INTER.POLAR>
0

>  <SCORE.INTER.ROT>
6

>  <SCORE.INTER.SOLV>
14.9174

>  <SCORE.INTER.VDW>
-23.6975

>  <SCORE.INTER.norm>
-0.61806

>  <SCORE.INTRA>
0.707428

>  <SCORE.INTRA.DIHEDRAL>
0.407365

>  <SCORE.INTRA.DIHEDRAL.0>
10.2917

>  <SCORE.INTRA.POLAR>
0

>  <SCORE.INTRA.POLAR.0>
0

>  <SCORE.INTRA.REPUL>
0

>  <SCORE.INTRA.REPUL.0>
0

>  <SCORE.INTRA.SOLV>
-2.02793

>  <SCORE.INTRA.SOLV.lig_0>
-39.6315

>  <SCORE.INTRA.VDW>
1.51771

>  <SCORE.INTRA.VDW.0>
-4.02152

>  <SCORE.INTRA.norm>
0.026201

>  <SCORE.RESTR>
0.010776

>  <SCORE.RESTR.CAVITY>
0.010776

>  <SCORE.RESTR.norm>
0.000399113

>  <SCORE.SYSTEM>
0

>  <SCORE.SYSTEM.CONST>
0

>  <SCORE.SYSTEM.DIHEDRAL>
0

>  <SCORE.SYSTEM.SOLV>
0

>  <SCORE.SYSTEM.norm>
0

>  <SCORE.heavy>
27

>  <SCORE.norm>
-0.59146

>  <RMSD>
5.072

$$$$
lig.pdb
 OpenBabel11021811493D
libRbt.so/2013.1/901 2013/11/27
 27 29  0  0  0  0  0  0  0  0999 V2000
    7.0162  -16.6061  -11.9412 N   0  0  0  0  0  0  0  0  0  0  0  0
    6.0305  -15.5361  -11.5986 C   0  0  2  0  0  0  0  0  0  0  0  0
    6.7330  -14.4508  -10.7882 C   0  0  0  0  0  0  0  0  0  0  0  0
    7.9572  -14.3951  -10.7859 O   0  0  0  0  0  0  0  0  0  0  0  0
    6.1187  -13.6119  -10.1169 O   0  0  0  0  0  0  0  0  0  0  0  0
    4.7711  -16.0610  -10.8799 C   0  0  0  0  0  0  0  0  0  0  0  0
    4.9254  -17.3769  -10.0729 C   0  0  0  0  0  0  0  0  0  0  0  0
    3.4556  -18.0635   -9.1944 S   0  0  2  0  0  0  0  0  0  0  0  0
    3.5179  -19.7976   -9.6928 C   0  0  0  0  0  0  0  0  0  0  0  0
    2.0621  -17.5074  -10.1997 C   0  0  0  0  0  0  0  0  0  0  0  0
    1.3581  -16.3491   -9.5052 C   0  0  1  0  0  0  0  0  0  0  0  0
    1.5808  -16.3358   -8.1033 O   0  0  0  0  0  0  0  0  0  0  0  0
    1.8474  -15.0007   -9.9608 C   0  0  1  0  0  0  0  0  0  0  0  0
    1.2738  -14.6709  -11.1929 O   0  0  0  0  0  0  0  0  0  0  0  0
    1.3580  -14.1287   -8.8257 C   0  0  1  0  0  0  0  0  0  0  0  0
   -0.0024  -13.7978   -9.0173 O   0  0  0  0  0  0  0  0  0  0  0  0
    1.4824  -15.0179   -7.5935 C   0  0  2  0  0  0  0  0  0  0  0  0
    2.6206  -14.6904   -6.6915 N   0  0  0  0  0  0  0  0  0  0  0  0
    2.6791  -13.6088   -5.8490 C   0  0  0  0  0  0  0  0  0  0  0  0
    3.8555  -13.6281   -5.1833 N   0  0  0  0  0  0  0  0  0  0  0  0
    4.5534  -14.7070   -5.5741 C   0  0  0  0  0  0  0  0  0  0  0  0
    5.7966  -15.1959   -5.2024 C   0  0  0  0  0  0  0  0  0  0  0  0
    6.5229  -14.5584   -4.2938 N   0  0  0  0  0  0  0  0  0  0  0  0
    6.2654  -16.3568   -5.7849 N   0  0  0  0  0  0  0  0  0  0  0  0
    5.5112  -17.0399   -6.7306 C   0  0  0  0  0  0  0  0  0  0  0  0
    4.2738  -16.5413   -7.0837 N   0  0  0  0  0  0  0  0  0  0  0  0
    3.7985  -15.3906   -6.5241 C   0  0  0  0  0  0  0  0  0  0  0  0
  2  3  1  1  0  0  0
  2  6  1  0  0  0  0
  2  1  1  0  0  0  0
  4  3  2  0  0  0  0
  5  3  1  0  0  0  0
  6  7  2  0  0  0  0
  8  7  1  6  0  0  0
  8  9  1  0  0  0  0
  8 10  1  0  0  0  0
 11 10  1  6  0  0  0
 11 13  1  0  0  0  0
 12 11  1  0  0  0  0
 12 17  1  0  0  0  0
 13 14  1  6  0  0  0
 13 15  1  0  0  0  0
 15 16  1  6  0  0  0
 17 18  1  6  0  0  0
 17 15  1  0  0  0  0
 18 19  1  0  0  0  0
 20 19  2  0  0  0  0
 21 27  2  0  0  0  0
 21 20  1  0  0  0  0
 22 21  1  0  0  0  0
 23 22  1  0  0  0  0
 24 22  2  0  0  0  0
 24 25  1  0  0  0  0
 25 26  2  0  0  0  0
 26 27  1  0  0  0  0
 27 18  1  0  0  0  0
M  END
>  <CHROM.1>
16.69488381,26.11124215,132.41957165,-104.11443925,-23.37845308,-166.62997674
3.92522376,-15.68505114,-8.54846207,-1.47654110,-0.00811465,1.26395738

>  <Name>
lig.pdb

>  <RI>
0

>  <Rbt.Current_Directory>
/home/itssahil/PROJECTS/Mol_Feturizer/New_Systems/rnas/4b5r

>  <Rbt.Executable>
rbdock ($Id: //depot/dev/client3/rdock/2013.1/src/exe/rbdock.cxx#4 $)

>  <Rbt.Library>
libRbt.so (2013.1, Build901 2013/11/27)

>  <Rbt.Parameter_File>
/export/apps/rDock/src/rDock_2013.1_src/data/scripts/dock_solv.prm

>  <Rbt.Receptor>
prm/pocket_docking_2.prm

>  <SCORE>
-3.80997

>  <SCORE.INTER>
-9.0898

>  <SCORE.INTER.CONST>
1

>  <SCORE.INTER.POLAR>
0

>  <SCORE.INTER.ROT>
6

>  <SCORE.INTER.SOLV>
11.6375

>  <SCORE.INTER.VDW>
-17.539

>  <SCORE.INTER.norm>
-0.336659

>  <SCORE.INTRA>
2.70797

>  <SCORE.INTRA.DIHEDRAL>
4.0462

>  <SCORE.INTRA.DIHEDRAL.0>
10.2917

>  <SCORE.INTRA.POLAR>
0

>  <SCORE.INTRA.POLAR.0>
0

>  <SCORE.INTRA.REPUL>
0

>  <SCORE.INTRA.REPUL.0>
0

>  <SCORE.INTRA.SOLV>
-1.07392

>  <SCORE.INTRA.SOLV.lig_0>
-39.6315

>  <SCORE.INTRA.VDW>
1.22183

>  <SCORE.INTRA.VDW.0>
-4.02152

>  <SCORE.INTRA.norm>
0.100295

>  <SCORE.RESTR>
2.57186

>  <SCORE.RESTR.CAVITY>
2.57186

>  <SCORE.RESTR.norm>
0.0952541

>  <SCORE.SYSTEM>
0

>  <SCORE.SYSTEM.CONST>
0

>  <SCORE.SYSTEM.DIHEDRAL>
0

>  <SCORE.SYSTEM.SOLV>
0

>  <SCORE.SYSTEM.norm>
0

>  <SCORE.heavy>
27

>  <SCORE.norm>
-0.14111

>  <RMSD>
5.074

$$$$
lig.pdb
 OpenBabel11021811493D
libRbt.so/2013.1/901 2013/11/27
 27 29  0  0  0  0  0  0  0  0999 V2000
    5.7973  -17.7176  -11.6786 N   0  0  0  0  0  0  0  0  0  0  0  0
    5.6355  -16.7893  -10.5184 C   0  0  2  0  0  0  0  0  0  0  0  0
    6.9809  -16.1407  -10.2064 C   0  0  0  0  0  0  0  0  0  0  0  0
    7.0113  -15.0223   -9.7064 O   0  0  0  0  0  0  0  0  0  0  0  0
    8.0627  -16.6942  -10.4416 O   0  0  0  0  0  0  0  0  0  0  0  0
    5.0201  -17.4568   -9.2721 C   0  0  0  0  0  0  0  0  0  0  0  0
    5.7530  -17.2282   -7.9241 C   0  0  0  0  0  0  0  0  0  0  0  0
    5.0730  -18.0043   -6.3947 S   0  0  2  0  0  0  0  0  0  0  0  0
    5.9197  -19.5988   -6.3951 C   0  0  0  0  0  0  0  0  0  0  0  0
    3.4195  -18.5372   -6.8882 C   0  0  0  0  0  0  0  0  0  0  0  0
    2.5082  -17.3243   -7.0229 C   0  0  1  0  0  0  0  0  0  0  0  0
    3.2269  -16.1002   -7.0411 O   0  0  0  0  0  0  0  0  0  0  0  0
    1.7337  -17.3067   -8.3134 C   0  0  1  0  0  0  0  0  0  0  0  0
    0.6412  -18.1760   -8.2315 O   0  0  0  0  0  0  0  0  0  0  0  0
    1.3300  -15.8502   -8.3760 C   0  0  1  0  0  0  0  0  0  0  0  0
    0.1825  -15.6282   -7.5817 O   0  0  0  0  0  0  0  0  0  0  0  0
    2.5108  -15.1101   -7.7576 C   0  0  2  0  0  0  0  0  0  0  0  0
    3.3839  -14.3933   -8.7273 N   0  0  0  0  0  0  0  0  0  0  0  0
    4.4916  -13.6525   -8.4000 C   0  0  0  0  0  0  0  0  0  0  0  0
    5.0379  -13.1484   -9.5291 N   0  0  0  0  0  0  0  0  0  0  0  0
    4.3081  -13.5574  -10.5798 C   0  0  0  0  0  0  0  0  0  0  0  0
    4.4352  -13.3380  -11.9430 C   0  0  0  0  0  0  0  0  0  0  0  0
    5.4322  -12.5998  -12.4127 N   0  0  0  0  0  0  0  0  0  0  0  0
    3.5156  -13.9023  -12.8047 N   0  0  0  0  0  0  0  0  0  0  0  0
    2.4722  -14.6855  -12.3274 C   0  0  0  0  0  0  0  0  0  0  0  0
    2.3652  -14.8975  -10.9680 N   0  0  0  0  0  0  0  0  0  0  0  0
    3.2605  -14.3405  -10.1013 C   0  0  0  0  0  0  0  0  0  0  0  0
  2  3  1  1  0  0  0
  2  6  1  0  0  0  0
  2  1  1  0  0  0  0
  4  3  2  0  0  0  0
  5  3  1  0  0  0  0
  6  7  2  0  0  0  0
  8  7  1  6  0  0  0
  8  9  1  0  0  0  0
  8 10  1  0  0  0  0
 11 10  1  6  0  0  0
 11 13  1  0  0  0  0
 12 11  1  0  0  0  0
 12 17  1  0  0  0  0
 13 14  1  1  0  0  0
 13 15  1  0  0  0  0
 15 16  1  1  0  0  0
 17 18  1  6  0  0  0
 17 15  1  0  0  0  0
 18 19  1  0  0  0  0
 20 19  2  0  0  0  0
 21 27  2  0  0  0  0
 21 20  1  0  0  0  0
 22 21  1  0  0  0  0
 23 22  1  0  0  0  0
 24 22  2  0  0  0  0
 24 25  1  0  0  0  0
 25 26  2  0  0  0  0
 26 27  1  0  0  0  0
 27 18  1  0  0  0  0
M  END
>  <CHROM.1>
151.07518793,130.77677154,89.67231729,-73.03500101,13.71788716,-61.22272349
4.10056101,-15.96866331,-9.13671305,-1.34625892,-0.24538767,2.33846791

>  <Name>
lig.pdb

>  <RI>
0

>  <Rbt.Current_Directory>
/home/itssahil/PROJECTS/Mol_Feturizer/New_Systems/rnas/4b5r

>  <Rbt.Executable>
rbdock ($Id: //depot/dev/client3/rdock/2013.1/src/exe/rbdock.cxx#4 $)

>  <Rbt.Library>
libRbt.so (2013.1, Build901 2013/11/27)

>  <Rbt.Parameter_File>
/export/apps/rDock/src/rDock_2013.1_src/data/scripts/dock_solv.prm

>  <Rbt.Receptor>
prm/pocket_docking_4.prm

>  <SCORE>
-12.0031

>  <SCORE.INTER>
-12.7389

>  <SCORE.INTER.CONST>
1

>  <SCORE.INTER.POLAR>
0

>  <SCORE.INTER.ROT>
6

>  <SCORE.INTER.SOLV>
11.3543

>  <SCORE.INTER.VDW>
-19.8774

>  <SCORE.INTER.norm>
-0.47181

>  <SCORE.INTRA>
0.735808

>  <SCORE.INTRA.DIHEDRAL>
2.49645

>  <SCORE.INTRA.DIHEDRAL.0>
10.2917

>  <SCORE.INTRA.POLAR>
0

>  <SCORE.INTRA.POLAR.0>
0

>  <SCORE.INTRA.REPUL>
0

>  <SCORE.INTRA.REPUL.0>
0

>  <SCORE.INTRA.SOLV>
-0.871023

>  <SCORE.INTRA.SOLV.lig_0>
-39.6315

>  <SCORE.INTRA.VDW>
-0.0769063

>  <SCORE.INTRA.VDW.0>
-4.02152

>  <SCORE.INTRA.norm>
0.0272521

>  <SCORE.RESTR>
0

>  <SCORE.RESTR.CAVITY>
0

>  <SCORE.RESTR.norm>
0

>  <SCORE.SYSTEM>
0

>  <SCORE.SYSTEM.CONST>
0

>  <SCORE.SYSTEM.DIHEDRAL>
0

>  <SCORE.SYSTEM.SOLV>
0

>  <SCORE.SYSTEM.norm>
0

>  <SCORE.heavy>
27

>  <SCORE.norm>
-0.444558

>  <RMSD>
5.086

$$$$
lig.pdb
 OpenBabel11021811493D
libRbt.so/2013.1/901 2013/11/27
 27 29  0  0  0  0  0  0  0  0999 V2000
    7.1428  -14.4205  -11.1494 N   0  0  0  0  0  0  0  0  0  0  0  0
    6.9793  -15.2071   -9.8890 C   0  0  2  0  0  0  0  0  0  0  0  0
    6.0414  -16.3817  -10.1514 C   0  0  0  0  0  0  0  0  0  0  0  0
    5.8237  -17.1925   -9.2587 O   0  0  0  0  0  0  0  0  0  0  0  0
    5.4833  -16.5636  -11.2410 O   0  0  0  0  0  0  0  0  0  0  0  0
    6.5134  -14.3612   -8.6869 C   0  0  0  0  0  0  0  0  0  0  0  0
    4.9966  -14.3854   -8.3623 C   0  0  0  0  0  0  0  0  0  0  0  0
    4.3714  -13.3899   -6.9404 S   0  0  2  0  0  0  0  0  0  0  0  0
    5.4888  -13.9088   -5.6207 C   0  0  0  0  0  0  0  0  0  0  0  0
    2.8750  -14.2654   -6.4345 C   0  0  0  0  0  0  0  0  0  0  0  0
    1.8330  -14.1833   -7.5422 C   0  0  1  0  0  0  0  0  0  0  0  0
    2.2954  -13.4637   -8.6752 O   0  0  0  0  0  0  0  0  0  0  0  0
    1.4548  -15.5292   -8.0997 C   0  0  1  0  0  0  0  0  0  0  0  0
    0.5578  -16.1719   -7.2405 O   0  0  0  0  0  0  0  0  0  0  0  0
    0.8280  -15.1200   -9.4142 C   0  0  1  0  0  0  0  0  0  0  0  0
   -0.5146  -14.7280   -9.2126 O   0  0  0  0  0  0  0  0  0  0  0  0
    1.6385  -13.9045   -9.8502 C   0  0  2  0  0  0  0  0  0  0  0  0
    2.6009  -14.1524  -10.9586 N   0  0  0  0  0  0  0  0  0  0  0  0
    3.8881  -13.6799  -11.0118 C   0  0  0  0  0  0  0  0  0  0  0  0
    4.4679  -14.0996  -12.1586 N   0  0  0  0  0  0  0  0  0  0  0  0
    3.5814  -14.8417  -12.8423 C   0  0  0  0  0  0  0  0  0  0  0  0
    3.6651  -15.5086  -14.0550 C   0  0  0  0  0  0  0  0  0  0  0  0
    4.7881  -15.4782  -14.7603 N   0  0  0  0  0  0  0  0  0  0  0  0
    2.5678  -16.2091  -14.5156 N   0  0  0  0  0  0  0  0  0  0  0  0
    1.3886  -16.2575  -13.7828 C   0  0  0  0  0  0  0  0  0  0  0  0
    1.3260  -15.5924  -12.5752 N   0  0  0  0  0  0  0  0  0  0  0  0
    2.3983  -14.8882  -12.1089 C   0  0  0  0  0  0  0  0  0  0  0  0
  2  3  1  6  0  0  0
  2  6  1  0  0  0  0
  2  1  1  0  0  0  0
  4  3  2  0  0  0  0
  5  3  1  0  0  0  0
  6  7  2  0  0  0  0
  8  7  1  6  0  0  0
  8  9  1  0  0  0  0
  8 10  1  0  0  0  0
 11 10  1  1  0  0  0
 11 13  1  0  0  0  0
 12 11  1  0  0  0  0
 12 17  1  0  0  0  0
 13 14  1  1  0  0  0
 13 15  1  0  0  0  0
 15 16  1  1  0  0  0
 17 18  1  6  0  0  0
 17 15  1  0  0  0  0
 18 19  1  0  0  0  0
 20 19  2  0  0  0  0
 21 27  2  0  0  0  0
 21 20  1  0  0  0  0
 22 21  1  0  0  0  0
 23 22  1  0  0  0  0
 24 22  2  0  0  0  0
 24 25  1  0  0  0  0
 25 26  2  0  0  0  0
 26 27  1  0  0  0  0
 27 18  1  0  0  0  0
M  END
>  <CHROM.1>
176.53839933,97.79023008,-50.64558429,-65.54996908,0.51027625,-17.39266012
3.52153086,-14.89625299,-10.02074521,-1.58713667,-0.00087760,1.36746122

>  <Name>
lig.pdb

>  <RI>
0

>  <Rbt.Current_Directory>
/home/itssahil/PROJECTS/Mol_Feturizer/New_Systems/rnas/4b5r

>  <Rbt.Executable>
rbdock ($Id: //depot/dev/client3/rdock/2013.1/src/exe/rbdock.cxx#4 $)

>  <Rbt.Library>
libRbt.so (2013.1, Build901 2013/11/27)

>  <Rbt.Parameter_File>
/export/apps/rDock/src/rDock_2013.1_src/data/scripts/dock_solv.prm

>  <Rbt.Receptor>
prm/pocket_docking_2.prm

>  <SCORE>
-8.14709

>  <SCORE.INTER>
-11.9584

>  <SCORE.INTER.CONST>
1

>  <SCORE.INTER.POLAR>
0

>  <SCORE.INTER.ROT>
6

>  <SCORE.INTER.SOLV>
15.5336

>  <SCORE.INTER.VDW>
-20.7501

>  <SCORE.INTER.norm>
-0.442905

>  <SCORE.INTRA>
2.28849

>  <SCORE.INTRA.DIHEDRAL>
2.5732

>  <SCORE.INTRA.DIHEDRAL.0>
10.2917

>  <SCORE.INTRA.POLAR>
0

>  <SCORE.INTRA.POLAR.0>
0

>  <SCORE.INTRA.REPUL>
0

>  <SCORE.INTRA.REPUL.0>
0

>  <SCORE.INTRA.SOLV>
-0.209709

>  <SCORE.INTRA.SOLV.lig_0>
-39.6315

>  <SCORE.INTRA.VDW>
1.10675

>  <SCORE.INTRA.VDW.0>
-4.02152

>  <SCORE.INTRA.norm>
0.0847591

>  <SCORE.RESTR>
1.52284

>  <SCORE.RESTR.CAVITY>
1.52284

>  <SCORE.RESTR.norm>
0.0564013

>  <SCORE.SYSTEM>
0

>  <SCORE.SYSTEM.CONST>
0

>  <SCORE.SYSTEM.DIHEDRAL>
0

>  <SCORE.SYSTEM.SOLV>
0

>  <SCORE.SYSTEM.norm>
0

>  <SCORE.heavy>
27

>  <SCORE.norm>
-0.301744

>  <RMSD>
5.096

$$$$
lig.pdb
 OpenBabel11021811493D
libRbt.so/2013.1/901 2013/11/27
 27 29  0  0  0  0  0  0  0  0999 V2000
    7.4743  -14.6564  -14.6205 N   0  0  0  0  0  0  0  0  0  0  0  0
    6.1283  -14.9619  -15.1941 C   0  0  2  0  0  0  0  0  0  0  0  0
    5.4397  -13.6549  -15.5758 C   0  0  0  0  0  0  0  0  0  0  0  0
    5.5798  -12.6675  -14.8637 O   0  0  0  0  0  0  0  0  0  0  0  0
    4.7298  -13.5405  -16.5832 O   0  0  0  0  0  0  0  0  0  0  0  0
    5.2440  -15.8260  -14.2726 C   0  0  0  0  0  0  0  0  0  0  0  0
    4.2418  -15.0722  -13.3595 C   0  0  0  0  0  0  0  0  0  0  0  0
    3.1581  -16.0459  -12.2276 S   0  0  2  0  0  0  0  0  0  0  0  0
    1.6804  -16.2600  -13.2425 C   0  0  0  0  0  0  0  0  0  0  0  0
    2.5483  -14.8121  -11.0581 C   0  0  0  0  0  0  0  0  0  0  0  0
    1.8712  -15.5078   -9.8846 C   0  0  1  0  0  0  0  0  0  0  0  0
    2.7145  -16.4592   -9.2529 O   0  0  0  0  0  0  0  0  0  0  0  0
    1.4966  -14.5642   -8.7735 C   0  0  1  0  0  0  0  0  0  0  0  0
    0.3244  -13.8754   -9.1009 O   0  0  0  0  0  0  0  0  0  0  0  0
    1.3132  -15.5383   -7.6308 C   0  0  1  0  0  0  0  0  0  0  0  0
    0.0269  -16.1207   -7.6889 O   0  0  0  0  0  0  0  0  0  0  0  0
    2.3577  -16.6180   -7.8912 C   0  0  2  0  0  0  0  0  0  0  0  0
    3.5498  -16.5704   -7.0009 N   0  0  0  0  0  0  0  0  0  0  0  0
    4.1218  -15.4273   -6.5018 C   0  0  0  0  0  0  0  0  0  0  0  0
    5.1825  -15.7609   -5.7330 N   0  0  0  0  0  0  0  0  0  0  0  0
    5.3002  -17.0988   -5.7196 C   0  0  0  0  0  0  0  0  0  0  0  0
    6.1970  -17.9478   -5.0890 C   0  0  0  0  0  0  0  0  0  0  0  0
    7.1637  -17.4545   -4.3264 N   0  0  0  0  0  0  0  0  0  0  0  0
    6.0671  -19.3118   -5.2599 N   0  0  0  0  0  0  0  0  0  0  0  0
    5.0536  -19.8427   -6.0478 C   0  0  0  0  0  0  0  0  0  0  0  0
    4.1670  -18.9823   -6.6628 N   0  0  0  0  0  0  0  0  0  0  0  0
    4.2857  -17.6310   -6.5116 C   0  0  0  0  0  0  0  0  0  0  0  0
  2  3  1  1  0  0  0
  2  6  1  0  0  0  0
  2  1  1  0  0  0  0
  4  3  2  0  0  0  0
  5  3  1  0  0  0  0
  6  7  2  0  0  0  0
  8  7  1  6  0  0  0
  8  9  1  0  0  0  0
  8 10  1  0  0  0  0
 11 10  1  6  0  0  0
 11 13  1  0  0  0  0
 12 11  1  0  0  0  0
 12 17  1  0  0  0  0
 13 14  1  6  0  0  0
 13 15  1  0  0  0  0
 15 16  1  6  0  0  0
 17 18  1  1  0  0  0
 17 15  1  0  0  0  0
 18 19  1  0  0  0  0
 20 19  2  0  0  0  0
 21 27  2  0  0  0  0
 21 20  1  0  0  0  0
 22 21  1  0  0  0  0
 23 22  1  0  0  0  0
 24 22  2  0  0  0  0
 24 25  1  0  0  0  0
 25 26  2  0  0  0  0
 26 27  1  0  0  0  0
 27 18  1  0  0  0  0
M  END
>  <CHROM.1>
-37.49836711,95.31755952,-92.95091141,-168.18791544,54.88006680,85.28280132
3.88401135,-15.96246437,-9.83110627,-1.54137108,-0.24613815,1.91955965

>  <Name>
lig.pdb

>  <RI>
0

>  <Rbt.Current_Directory>
/home/itssahil/PROJECTS/Mol_Feturizer/New_Systems/rnas/4b5r

>  <Rbt.Executable>
rbdock ($Id: //depot/dev/client3/rdock/2013.1/src/exe/rbdock.cxx#4 $)

>  <Rbt.Library>
libRbt.so (2013.1, Build901 2013/11/27)

>  <Rbt.Parameter_File>
/export/apps/rDock/src/rDock_2013.1_src/data/scripts/dock_solv.prm

>  <Rbt.Receptor>
prm/pocket_docking_6.prm

>  <SCORE>
-13.7739

>  <SCORE.INTER>
-14.187

>  <SCORE.INTER.CONST>
1

>  <SCORE.INTER.POLAR>
0

>  <SCORE.INTER.ROT>
6

>  <SCORE.INTER.SOLV>
12.0569

>  <SCORE.INTER.VDW>
-21.077

>  <SCORE.INTER.norm>
-0.525445

>  <SCORE.INTRA>
0.412147

>  <SCORE.INTRA.DIHEDRAL>
-0.266752

>  <SCORE.INTRA.DIHEDRAL.0>
10.2917

>  <SCORE.INTRA.POLAR>
0

>  <SCORE.INTRA.POLAR.0>
0

>  <SCORE.INTRA.REPUL>
0

>  <SCORE.INTRA.REPUL.0>
0

>  <SCORE.INTRA.SOLV>
-3.02222

>  <SCORE.INTRA.SOLV.lig_0>
-39.6315

>  <SCORE.INTRA.VDW>
2.05663

>  <SCORE.INTRA.VDW.0>
-4.02152

>  <SCORE.INTRA.norm>
0.0152647

>  <SCORE.RESTR>
0.000944156

>  <SCORE.RESTR.CAVITY>
0.000944156

>  <SCORE.RESTR.norm>
3.49687e-05

>  <SCORE.SYSTEM>
0

>  <SCORE.SYSTEM.CONST>
0

>  <SCORE.SYSTEM.DIHEDRAL>
0

>  <SCORE.SYSTEM.SOLV>
0

>  <SCORE.SYSTEM.norm>
0

>  <SCORE.heavy>
27

>  <SCORE.norm>
-0.510146

>  <RMSD>
5.116

$$$$
lig.pdb
 OpenBabel11021811493D
libRbt.so/2013.1/901 2013/11/27
 27 29  0  0  0  0  0  0  0  0999 V2000
    0.8614  -12.1845   -7.8471 N   0  0  0  0  0  0  0  0  0  0  0  0
    1.7485  -13.2909   -8.3194 C   0  0  2  0  0  0  0  0  0  0  0  0
    0.9908  -14.1387   -9.3369 C   0  0  0  0  0  0  0  0  0  0  0  0
   -0.0889  -14.6302   -9.0298 O   0  0  0  0  0  0  0  0  0  0  0  0
    1.4213  -14.3638  -10.4753 O   0  0  0  0  0  0  0  0  0  0  0  0
    2.3282  -14.1503   -7.1778 C   0  0  0  0  0  0  0  0  0  0  0  0
    3.8080  -13.8910   -6.7911 C   0  0  0  0  0  0  0  0  0  0  0  0
    4.5656  -14.8896   -5.4375 S   0  0  2  0  0  0  0  0  0  0  0  0
    5.9081  -13.8075   -4.9022 C   0  0  0  0  0  0  0  0  0  0  0  0
    5.5191  -16.1450   -6.3186 C   0  0  0  0  0  0  0  0  0  0  0  0
    4.5740  -17.0761   -7.0665 C   0  0  1  0  0  0  0  0  0  0  0  0
    4.0012  -16.4670   -8.2138 O   0  0  0  0  0  0  0  0  0  0  0  0
    5.2587  -18.3003   -7.6124 C   0  0  1  0  0  0  0  0  0  0  0  0
    5.4515  -19.2391   -6.5939 O   0  0  0  0  0  0  0  0  0  0  0  0
    4.2493  -18.7459   -8.6472 C   0  0  1  0  0  0  0  0  0  0  0  0
    3.2171  -19.4895   -8.0321 O   0  0  0  0  0  0  0  0  0  0  0  0
    3.6681  -17.4430   -9.1849 C   0  0  2  0  0  0  0  0  0  0  0  0
    4.1415  -17.0533  -10.5414 N   0  0  0  0  0  0  0  0  0  0  0  0
    5.4553  -16.9622  -10.9271 C   0  0  0  0  0  0  0  0  0  0  0  0
    5.5119  -16.5839  -12.2237 N   0  0  0  0  0  0  0  0  0  0  0  0
    4.2587  -16.4377  -12.6844 C   0  0  0  0  0  0  0  0  0  0  0  0
    3.7602  -16.0798  -13.9277 C   0  0  0  0  0  0  0  0  0  0  0  0
    4.5874  -15.8098  -14.9289 N   0  0  0  0  0  0  0  0  0  0  0  0
    2.3932  -16.0143  -14.1118 N   0  0  0  0  0  0  0  0  0  0  0  0
    1.5152  -16.3039  -13.0749 C   0  0  0  0  0  0  0  0  0  0  0  0
    2.0299  -16.6639  -11.8461 N   0  0  0  0  0  0  0  0  0  0  0  0
    3.3785  -16.7255  -11.6442 C   0  0  0  0  0  0  0  0  0  0  0  0
  2  3  1  6  0  0  0
  2  6  1  0  0  0  0
  2  1  1  0  0  0  0
  4  3  2  0  0  0  0
  5  3  1  0  0  0  0
  6  7  2  0  0  0  0
  8  7  1  6  0  0  0
  8  9  1  0  0  0  0
  8 10  1  0  0  0  0
 11 10  1  6  0  0  0
 11 13  1  0  0  0  0
 12 11  1  0  0  0  0
 12 17  1  0  0  0  0
 13 14  1  1  0  0  0
 13 15  1  0  0  0  0
 15 16  1  1  0  0  0
 17 18  1  6  0  0  0
 17 15  1  0  0  0  0
 18 19  1  0  0  0  0
 20 19  2  0  0  0  0
 21 27  2  0  0  0  0
 21 20  1  0  0  0  0
 22 21  1  0  0  0  0
 23 22  1  0  0  0  0
 24 22  2  0  0  0  0
 24 25  1  0  0  0  0
 25 26  2  0  0  0  0
 26 27  1  0  0  0  0
 27 18  1  0  0  0  0
M  END
>  <CHROM.1>
-55.40259363,-102.92024705,-156.64262063,-66.59641723,73.50279926,67.36597434
3.54381287,-15.99377503,-9.25567736,1.29804683,-0.86639121,1.25881504

>  <Name>
lig.pdb

>  <RI>
0

>  <Rbt.Current_Directory>
/home/itssahil/PROJECTS/Mol_Feturizer/New_Systems/rnas/4b5r

>  <Rbt.Executable>
rbdock ($Id: //depot/dev/client3/rdock/2013.1/src/exe/rbdock.cxx#4 $)

>  <Rbt.Library>
libRbt.so (2013.1, Build901 2013/11/27)

>  <Rbt.Parameter_File>
/export/apps/rDock/src/rDock_2013.1_src/data/scripts/dock_solv.prm

>  <Rbt.Receptor>
prm/pocket_docking_5.prm

>  <SCORE>
-12.8888

>  <SCORE.INTER>
-11.1152

>  <SCORE.INTER.CONST>
1

>  <SCORE.INTER.POLAR>
0

>  <SCORE.INTER.ROT>
6

>  <SCORE.INTER.SOLV>
19.1634

>  <SCORE.INTER.VDW>
-21.398

>  <SCORE.INTER.norm>
-0.411675

>  <SCORE.INTRA>
-1.77362

>  <SCORE.INTRA.DIHEDRAL>
-0.961465

>  <SCORE.INTRA.DIHEDRAL.0>
10.2917

>  <SCORE.INTRA.POLAR>
0

>  <SCORE.INTRA.POLAR.0>
0

>  <SCORE.INTRA.REPUL>
0

>  <SCORE.INTRA.REPUL.0>
0

>  <SCORE.INTRA.SOLV>
-2.77272

>  <SCORE.INTRA.SOLV.lig_0>
-39.6315

>  <SCORE.INTRA.VDW>
0.0934797

>  <SCORE.INTRA.VDW.0>
-4.02152

>  <SCORE.INTRA.norm>
-0.0656895

>  <SCORE.RESTR>
0

>  <SCORE.RESTR.CAVITY>
0

>  <SCORE.RESTR.norm>
0

>  <SCORE.SYSTEM>
0

>  <SCORE.SYSTEM.CONST>
0

>  <SCORE.SYSTEM.DIHEDRAL>
0

>  <SCORE.SYSTEM.SOLV>
0

>  <SCORE.SYSTEM.norm>
0

>  <SCORE.heavy>
27

>  <SCORE.norm>
-0.477365

>  <RMSD>
5.119

$$$$
lig.pdb
 OpenBabel11021811493D
libRbt.so/2013.1/901 2013/11/27
 27 29  0  0  0  0  0  0  0  0999 V2000
    5.3845  -10.9117  -12.9321 N   0  0  0  0  0  0  0  0  0  0  0  0
    6.3359  -12.0562  -12.7944 C   0  0  2  0  0  0  0  0  0  0  0  0
    6.7007  -12.5723  -14.1831 C   0  0  0  0  0  0  0  0  0  0  0  0
    7.8738  -12.7999  -14.4545 O   0  0  0  0  0  0  0  0  0  0  0  0
    5.8577  -12.7715  -15.0672 O   0  0  0  0  0  0  0  0  0  0  0  0
    5.8174  -13.1865  -11.8825 C   0  0  0  0  0  0  0  0  0  0  0  0
    4.2855  -13.4314  -11.8768 C   0  0  0  0  0  0  0  0  0  0  0  0
    3.5981  -14.7646  -10.8027 S   0  0  2  0  0  0  0  0  0  0  0  0
    4.1742  -16.2466  -11.6580 C   0  0  0  0  0  0  0  0  0  0  0  0
    1.8498  -14.8133  -11.2528 C   0  0  0  0  0  0  0  0  0  0  0  0
    1.0885  -15.6832  -10.2612 C   0  0  1  0  0  0  0  0  0  0  0  0
    1.8194  -16.8365   -9.8727 O   0  0  0  0  0  0  0  0  0  0  0  0
    0.8004  -14.9837   -8.9601 C   0  0  1  0  0  0  0  0  0  0  0  0
   -0.2890  -14.1194   -9.1085 O   0  0  0  0  0  0  0  0  0  0  0  0
    0.5014  -16.1679   -8.0675 C   0  0  1  0  0  0  0  0  0  0  0  0
   -0.8379  -16.5836   -8.2422 O   0  0  0  0  0  0  0  0  0  0  0  0
    1.4304  -17.2631   -8.5791 C   0  0  2  0  0  0  0  0  0  0  0  0
    2.6095  -17.5448   -7.7150 N   0  0  0  0  0  0  0  0  0  0  0  0
    3.1174  -18.7913   -7.4479 C   0  0  0  0  0  0  0  0  0  0  0  0
    4.1865  -18.6690   -6.6298 N   0  0  0  0  0  0  0  0  0  0  0  0
    4.3834  -17.3658   -6.3711 C   0  0  0  0  0  0  0  0  0  0  0  0
    5.3328  -16.7013   -5.6097 C   0  0  0  0  0  0  0  0  0  0  0  0
    6.2763  -17.3816   -4.9723 N   0  0  0  0  0  0  0  0  0  0  0  0
    5.2872  -15.3235   -5.5289 N   0  0  0  0  0  0  0  0  0  0  0  0
    4.3106  -14.5977   -6.1990 C   0  0  0  0  0  0  0  0  0  0  0  0
    3.3776  -15.2760   -6.9566 N   0  0  0  0  0  0  0  0  0  0  0  0
    3.4028  -16.6381   -7.0408 C   0  0  0  0  0  0  0  0  0  0  0  0
  2  3  1  6  0  0  0
  2  6  1  0  0  0  0
  2  1  1  0  0  0  0
  4  3  2  0  0  0  0
  5  3  1  0  0  0  0
  6  7  2  0  0  0  0
  8  7  1  6  0  0  0
  8  9  1  0  0  0  0
  8 10  1  0  0  0  0
 11 10  1  6  0  0  0
 11 13  1  0  0  0  0
 12 11  1  0  0  0  0
 12 17  1  0  0  0  0
 13 14  1  6  0  0  0
 13 15  1  0  0  0  0
 15 16  1  6  0  0  0
 17 18  1  1  0  0  0
 17 15  1  0  0  0  0
 18 19  1  0  0  0  0
 20 19  2  0  0  0  0
 21 27  2  0  0  0  0
 21 20  1  0  0  0  0
 22 21  1  0  0  0  0
 23 22  1  0  0  0  0
 24 22  2  0  0  0  0
 24 25  1  0  0  0  0
 25 26  2  0  0  0  0
 26 27  1  0  0  0  0
 27 18  1  0  0  0  0
M  END
>  <CHROM.1>
133.87849124,32.71978706,-70.71026768,-169.17751602,-39.08720486,-100.33678592
3.62021462,-15.26734036,-9.56334035,-1.19406291,0.15511678,2.08286690

>  <Name>
lig.pdb

>  <RI>
0

>  <Rbt.Current_Directory>
/home/itssahil/PROJECTS/Mol_Feturizer/New_Systems/rnas/4b5r

>  <Rbt.Executable>
rbdock ($Id: //depot/dev/client3/rdock/2013.1/src/exe/rbdock.cxx#4 $)

>  <Rbt.Library>
libRbt.so (2013.1, Build901 2013/11/27)

>  <Rbt.Parameter_File>
/export/apps/rDock/src/rDock_2013.1_src/data/scripts/dock_solv.prm

>  <Rbt.Receptor>
prm/pocket_docking_5.prm

>  <SCORE>
-13.6304

>  <SCORE.INTER>
-13.8051

>  <SCORE.INTER.CONST>
1

>  <SCORE.INTER.POLAR>
0

>  <SCORE.INTER.ROT>
6

>  <SCORE.INTER.SOLV>
16.1322

>  <SCORE.INTER.VDW>
-22.1808

>  <SCORE.INTER.norm>
-0.511298

>  <SCORE.INTRA>
0.174687

>  <SCORE.INTRA.DIHEDRAL>
0.96573

>  <SCORE.INTRA.DIHEDRAL.0>
10.2917

>  <SCORE.INTRA.POLAR>
0

>  <SCORE.INTRA.POLAR.0>
0

>  <SCORE.INTRA.REPUL>
0

>  <SCORE.INTRA.REPUL.0>
0

>  <SCORE.INTRA.SOLV>
-2.05878

>  <SCORE.INTRA.SOLV.lig_0>
-39.6315

>  <SCORE.INTRA.VDW>
0.721212

>  <SCORE.INTRA.VDW.0>
-4.02152

>  <SCORE.INTRA.norm>
0.00646989

>  <SCORE.RESTR>
0

>  <SCORE.RESTR.CAVITY>
0

>  <SCORE.RESTR.norm>
0

>  <SCORE.SYSTEM>
0

>  <SCORE.SYSTEM.CONST>
0

>  <SCORE.SYSTEM.DIHEDRAL>
0

>  <SCORE.SYSTEM.SOLV>
0

>  <SCORE.SYSTEM.norm>
0

>  <SCORE.heavy>
27

>  <SCORE.norm>
-0.504829

>  <RMSD>
5.122

$$$$
lig.pdb
 OpenBabel11021811493D
libRbt.so/2013.1/901 2013/11/27
 27 29  0  0  0  0  0  0  0  0999 V2000
    6.9423  -16.4674  -14.6779 N   0  0  0  0  0  0  0  0  0  0  0  0
    7.8030  -16.4043  -13.4576 C   0  0  2  0  0  0  0  0  0  0  0  0
    7.6934  -17.7245  -12.7004 C   0  0  0  0  0  0  0  0  0  0  0  0
    7.4790  -17.7133  -11.4939 O   0  0  0  0  0  0  0  0  0  0  0  0
    7.8175  -18.8258  -13.2514 O   0  0  0  0  0  0  0  0  0  0  0  0
    7.5003  -15.1967  -12.5477 C   0  0  0  0  0  0  0  0  0  0  0  0
    6.2909  -14.3098  -12.9442 C   0  0  0  0  0  0  0  0  0  0  0  0
    5.8777  -12.8448  -11.9018 S   0  0  2  0  0  0  0  0  0  0  0  0
    7.2052  -11.7041  -12.3445 C   0  0  0  0  0  0  0  0  0  0  0  0
    6.4295  -13.3287  -10.2516 C   0  0  0  0  0  0  0  0  0  0  0  0
    5.5862  -14.4932   -9.7494 C   0  0  1  0  0  0  0  0  0  0  0  0
    6.0217  -14.9796   -8.4888 O   0  0  0  0  0  0  0  0  0  0  0  0
    4.1462  -14.1231   -9.5150 C   0  0  1  0  0  0  0  0  0  0  0  0
    3.4543  -14.0861  -10.7299 O   0  0  0  0  0  0  0  0  0  0  0  0
    3.7091  -15.2595   -8.6173 C   0  0  1  0  0  0  0  0  0  0  0  0
    3.3829  -16.3949   -9.3927 O   0  0  0  0  0  0  0  0  0  0  0  0
    4.9457  -15.5696   -7.7812 C   0  0  2  0  0  0  0  0  0  0  0  0
    4.8889  -15.0958   -6.3710 N   0  0  0  0  0  0  0  0  0  0  0  0
    4.1280  -14.0482   -5.9164 C   0  0  0  0  0  0  0  0  0  0  0  0
    4.3232  -13.9023   -4.5867 N   0  0  0  0  0  0  0  0  0  0  0  0
    5.1893  -14.8420   -4.1733 C   0  0  0  0  0  0  0  0  0  0  0  0
    5.7145  -15.1386   -2.9248 C   0  0  0  0  0  0  0  0  0  0  0  0
    5.3633  -14.4249   -1.8633 N   0  0  0  0  0  0  0  0  0  0  0  0
    6.6019  -16.1892   -2.7998 N   0  0  0  0  0  0  0  0  0  0  0  0
    6.9710  -16.9511   -3.9012 C   0  0  0  0  0  0  0  0  0  0  0  0
    6.4334  -16.6446   -5.1347 N   0  0  0  0  0  0  0  0  0  0  0  0
    5.5613  -15.6043   -5.2778 C   0  0  0  0  0  0  0  0  0  0  0  0
  2  3  1  1  0  0  0
  2  6  1  0  0  0  0
  2  1  1  0  0  0  0
  4  3  2  0  0  0  0
  5  3  1  0  0  0  0
  6  7  2  0  0  0  0
  8  7  1  6  0  0  0
  8  9  1  0  0  0  0
  8 10  1  0  0  0  0
 11 10  1  1  0  0  0
 11 13  1  0  0  0  0
 12 11  1  0  0  0  0
 12 17  1  0  0  0  0
 13 14  1  6  0  0  0
 13 15  1  0  0  0  0
 15 16  1  6  0  0  0
 17 18  1  1  0  0  0
 17 15  1  0  0  0  0
 18 19  1  0  0  0  0
 20 19  2  0  0  0  0
 21 27  2  0  0  0  0
 21 20  1  0  0  0  0
 22 21  1  0  0  0  0
 23 22  1  0  0  0  0
 24 22  2  0  0  0  0
 24 25  1  0  0  0  0
 25 26  2  0  0  0  0
 26 27  1  0  0  0  0
 27 18  1  0  0  0  0
M  END
>  <CHROM.1>
-131.25278234,5.31443377,73.37057282,-65.73800218,176.31373110,94.16416795
5.83179186,-15.16766487,-8.86670154,-1.23806156,-1.08713023,1.84595755

>  <Name>
lig.pdb

>  <RI>
0

>  <Rbt.Current_Directory>
/home/itssahil/PROJECTS/Mol_Feturizer/New_Systems/rnas/4b5r

>  <Rbt.Executable>
rbdock ($Id: //depot/dev/client3/rdock/2013.1/src/exe/rbdock.cxx#4 $)

>  <Rbt.Library>
libRbt.so (2013.1, Build901 2013/11/27)

>  <Rbt.Parameter_File>
/export/apps/rDock/src/rDock_2013.1_src/data/scripts/dock_solv.prm

>  <Rbt.Receptor>
prm/pocket_docking_7.prm

>  <SCORE>
-15.1152

>  <SCORE.INTER>
-15.5196

>  <SCORE.INTER.CONST>
1

>  <SCORE.INTER.POLAR>
0

>  <SCORE.INTER.ROT>
6

>  <SCORE.INTER.SOLV>
12.1208

>  <SCORE.INTER.VDW>
-21.9867

>  <SCORE.INTER.norm>
-0.574801

>  <SCORE.INTRA>
0.404464

>  <SCORE.INTRA.DIHEDRAL>
-1.87252

>  <SCORE.INTRA.DIHEDRAL.0>
10.2917

>  <SCORE.INTRA.POLAR>
0

>  <SCORE.INTRA.POLAR.0>
0

>  <SCORE.INTRA.REPUL>
0

>  <SCORE.INTRA.REPUL.0>
0

>  <SCORE.INTRA.SOLV>
-2.27326

>  <SCORE.INTRA.SOLV.lig_0>
-39.6315

>  <SCORE.INTRA.VDW>
2.47735

>  <SCORE.INTRA.VDW.0>
-4.02152

>  <SCORE.INTRA.norm>
0.0149801

>  <SCORE.RESTR>
0

>  <SCORE.RESTR.CAVITY>
0

>  <SCORE.RESTR.norm>
0

>  <SCORE.SYSTEM>
0

>  <SCORE.SYSTEM.CONST>
0

>  <SCORE.SYSTEM.DIHEDRAL>
0

>  <SCORE.SYSTEM.SOLV>
0

>  <SCORE.SYSTEM.norm>
0

>  <SCORE.heavy>
27

>  <SCORE.norm>
-0.559821

>  <RMSD>
5.125

$$$$
lig.pdb
 OpenBabel11021811493D
libRbt.so/2013.1/901 2013/11/27
 27 29  0  0  0  0  0  0  0  0999 V2000
    4.3463  -16.6109  -12.4795 N   0  0  0  0  0  0  0  0  0  0  0  0
    2.9424  -17.1191  -12.5484 C   0  0  2  0  0  0  0  0  0  0  0  0
    2.0584  -16.0580  -13.1971 C   0  0  0  0  0  0  0  0  0  0  0  0
    1.4171  -16.3381  -14.2031 O   0  0  0  0  0  0  0  0  0  0  0  0
    1.9581  -14.9067  -12.7542 O   0  0  0  0  0  0  0  0  0  0  0  0
    2.3815  -17.5758  -11.1866 C   0  0  0  0  0  0  0  0  0  0  0  0
    1.7295  -16.4837  -10.2985 C   0  0  0  0  0  0  0  0  0  0  0  0
    1.0442  -16.9616   -8.6536 S   0  0  2  0  0  0  0  0  0  0  0  0
   -0.7312  -16.9184   -8.9788 C   0  0  0  0  0  0  0  0  0  0  0  0
    1.2105  -15.4557   -7.6706 C   0  0  0  0  0  0  0  0  0  0  0  0
    2.5381  -15.4738   -6.9245 C   0  0  1  0  0  0  0  0  0  0  0  0
    3.5189  -16.2690   -7.5735 O   0  0  0  0  0  0  0  0  0  0  0  0
    3.1810  -14.1164   -6.8278 C   0  0  1  0  0  0  0  0  0  0  0  0
    2.5712  -13.3652   -5.8179 O   0  0  0  0  0  0  0  0  0  0  0  0
    4.6056  -14.5056   -6.5001 C   0  0  1  0  0  0  0  0  0  0  0  0
    4.7344  -14.7626   -5.1165 O   0  0  0  0  0  0  0  0  0  0  0  0
    4.8218  -15.8053   -7.2673 C   0  0  2  0  0  0  0  0  0  0  0  0
    5.6640  -15.6841   -8.4889 N   0  0  0  0  0  0  0  0  0  0  0  0
    6.7122  -16.5077   -8.8144 C   0  0  0  0  0  0  0  0  0  0  0  0
    7.2451  -16.1043   -9.9895 N   0  0  0  0  0  0  0  0  0  0  0  0
    6.5544  -15.0411  -10.4327 C   0  0  0  0  0  0  0  0  0  0  0  0
    6.6764  -14.2616  -11.5730 C   0  0  0  0  0  0  0  0  0  0  0  0
    7.6190  -14.5265  -12.4679 N   0  0  0  0  0  0  0  0  0  0  0  0
    5.8012  -13.2115  -11.7677 N   0  0  0  0  0  0  0  0  0  0  0  0
    4.8033  -12.9288  -10.8437 C   0  0  0  0  0  0  0  0  0  0  0  0
    4.6936  -13.7191   -9.7176 N   0  0  0  0  0  0  0  0  0  0  0  0
    5.5555  -14.7560   -9.5051 C   0  0  0  0  0  0  0  0  0  0  0  0
  2  3  1  1  0  0  0
  2  6  1  0  0  0  0
  2  1  1  0  0  0  0
  4  3  2  0  0  0  0
  5  3  1  0  0  0  0
  6  7  2  0  0  0  0
  8  7  1  6  0  0  0
  8  9  1  0  0  0  0
  8 10  1  0  0  0  0
 11 10  1  6  0  0  0
 11 13  1  0  0  0  0
 12 11  1  0  0  0  0
 12 17  1  0  0  0  0
 13 14  1  1  0  0  0
 13 15  1  0  0  0  0
 15 16  1  1  0  0  0
 17 18  1  6  0  0  0
 17 15  1  0  0  0  0
 18 19  1  0  0  0  0
 20 19  2  0  0  0  0
 21 27  2  0  0  0  0
 21 20  1  0  0  0  0
 22 21  1  0  0  0  0
 23 22  1  0  0  0  0
 24 22  2  0  0  0  0
 24 25  1  0  0  0  0
 25 26  2  0  0  0  0
 26 27  1  0  0  0  0
 27 18  1  0  0  0  0
M  END
>  <CHROM.1>
122.83024293,86.37078344,-105.61945409,-92.30649636,25.85710127,-108.55652906
3.71788241,-15.46004907,-9.60851287,1.44332707,-0.32775138,-1.69699624

>  <Name>
lig.pdb

>  <RI>
0

>  <Rbt.Current_Directory>
/home/itssahil/PROJECTS/Mol_Feturizer/New_Systems/rnas/4b5r

>  <Rbt.Executable>
rbdock ($Id: //depot/dev/client3/rdock/2013.1/src/exe/rbdock.cxx#4 $)

>  <Rbt.Library>
libRbt.so (2013.1, Build901 2013/11/27)

>  <Rbt.Parameter_File>
/export/apps/rDock/src/rDock_2013.1_src/data/scripts/dock_solv.prm

>  <Rbt.Receptor>
prm/pocket_docking_2.prm

>  <SCORE>
-9.9608

>  <SCORE.INTER>
-14.2536

>  <SCORE.INTER.CONST>
1

>  <SCORE.INTER.POLAR>
0

>  <SCORE.INTER.ROT>
6

>  <SCORE.INTER.SOLV>
12.6474

>  <SCORE.INTER.VDW>
-21.3182

>  <SCORE.INTER.norm>
-0.52791

>  <SCORE.INTRA>
2.75444

>  <SCORE.INTRA.DIHEDRAL>
4.32486

>  <SCORE.INTRA.DIHEDRAL.0>
10.2917

>  <SCORE.INTRA.POLAR>
0

>  <SCORE.INTRA.POLAR.0>
0

>  <SCORE.INTRA.REPUL>
0

>  <SCORE.INTRA.REPUL.0>
0

>  <SCORE.INTRA.SOLV>
1.07819

>  <SCORE.INTRA.SOLV.lig_0>
-39.6315

>  <SCORE.INTRA.VDW>
0.0529118

>  <SCORE.INTRA.VDW.0>
-4.02152

>  <SCORE.INTRA.norm>
0.102016

>  <SCORE.RESTR>
1.53834

>  <SCORE.RESTR.CAVITY>
1.53834

>  <SCORE.RESTR.norm>
0.0569756

>  <SCORE.SYSTEM>
0

>  <SCORE.SYSTEM.CONST>
0

>  <SCORE.SYSTEM.DIHEDRAL>
0

>  <SCORE.SYSTEM.SOLV>
0

>  <SCORE.SYSTEM.norm>
0

>  <SCORE.heavy>
27

>  <SCORE.norm>
-0.368918

>  <RMSD>
5.130

$$$$
lig.pdb
 OpenBabel11021811493D
libRbt.so/2013.1/901 2013/11/27
 27 29  0  0  0  0  0  0  0  0999 V2000
    6.3186  -14.6928  -14.9313 N   0  0  0  0  0  0  0  0  0  0  0  0
    5.0811  -15.3782  -15.4141 C   0  0  2  0  0  0  0  0  0  0  0  0
    4.8455  -15.0118  -16.8764 C   0  0  0  0  0  0  0  0  0  0  0  0
    5.0761  -13.8705  -17.2584 O   0  0  0  0  0  0  0  0  0  0  0  0
    4.4207  -15.8217  -17.7104 O   0  0  0  0  0  0  0  0  0  0  0  0
    3.8380  -15.0955  -14.5466 C   0  0  0  0  0  0  0  0  0  0  0  0
    3.1730  -16.3177  -13.8605 C   0  0  0  0  0  0  0  0  0  0  0  0
    1.6777  -16.0502  -12.8136 S   0  0  2  0  0  0  0  0  0  0  0  0
    2.2190  -14.6905  -11.7563 C   0  0  0  0  0  0  0  0  0  0  0  0
    1.7446  -17.4069  -11.6233 C   0  0  0  0  0  0  0  0  0  0  0  0
    3.1943  -17.8044  -11.3790 C   0  0  1  0  0  0  0  0  0  0  0  0
    3.9607  -16.7533  -10.8104 O   0  0  0  0  0  0  0  0  0  0  0  0
    3.3405  -18.9315  -10.3923 C   0  0  1  0  0  0  0  0  0  0  0  0
    3.0617  -20.1538  -11.0123 O   0  0  0  0  0  0  0  0  0  0  0  0
    4.7958  -18.7789  -10.0086 C   0  0  1  0  0  0  0  0  0  0  0  0
    5.6215  -19.3989  -10.9733 O   0  0  0  0  0  0  0  0  0  0  0  0
    5.0344  -17.2735  -10.0467 C   0  0  2  0  0  0  0  0  0  0  0  0
    5.1311  -16.6162   -8.7145 N   0  0  0  0  0  0  0  0  0  0  0  0
    6.1887  -16.7321   -7.8478 C   0  0  0  0  0  0  0  0  0  0  0  0
    5.9356  -16.0018   -6.7387 N   0  0  0  0  0  0  0  0  0  0  0  0
    4.7381  -15.4096   -6.8775 C   0  0  0  0  0  0  0  0  0  0  0  0
    4.0195  -14.5588   -6.0516 C   0  0  0  0  0  0  0  0  0  0  0  0
    4.5130  -14.1906   -4.8766 N   0  0  0  0  0  0  0  0  0  0  0  0
    2.7879  -14.0953   -6.4700 N   0  0  0  0  0  0  0  0  0  0  0  0
    2.2632  -14.4649   -7.7020 C   0  0  0  0  0  0  0  0  0  0  0  0
    2.9956  -15.3079   -8.5130 N   0  0  0  0  0  0  0  0  0  0  0  0
    4.2109  -15.7822   -8.1115 C   0  0  0  0  0  0  0  0  0  0  0  0
  2  3  1  6  0  0  0
  2  6  1  0  0  0  0
  2  1  1  0  0  0  0
  4  3  2  0  0  0  0
  5  3  1  0  0  0  0
  6  7  2  0  0  0  0
  8  7  1  6  0  0  0
  8  9  1  0  0  0  0
  8 10  1  0  0  0  0
 11 10  1  1  0  0  0
 11 13  1  0  0  0  0
 12 11  1  0  0  0  0
 12 17  1  0  0  0  0
 13 14  1  6  0  0  0
 13 15  1  0  0  0  0
 15 16  1  6  0  0  0
 17 18  1  1  0  0  0
 17 15  1  0  0  0  0
 18 19  1  0  0  0  0
 20 19  2  0  0  0  0
 21 27  2  0  0  0  0
 21 20  1  0  0  0  0
 22 21  1  0  0  0  0
 23 22  1  0  0  0  0
 24 22  2  0  0  0  0
 24 25  1  0  0  0  0
 25 26  2  0  0  0  0
 26 27  1  0  0  0  0
 27 18  1  0  0  0  0
M  END
>  <CHROM.1>
-38.45748984,-118.68063930,-49.32319147,29.35739058,62.44963084,-168.13240709
3.96562220,-16.19364077,-11.04444187,1.17167642,1.55613857,-1.15179047

>  <Name>
lig.pdb

>  <RI>
0

>  <Rbt.Current_Directory>
/home/itssahil/PROJECTS/Mol_Feturizer/New_Systems/rnas/4b5r

>  <Rbt.Executable>
rbdock ($Id: //depot/dev/client3/rdock/2013.1/src/exe/rbdock.cxx#4 $)

>  <Rbt.Library>
libRbt.so (2013.1, Build901 2013/11/27)

>  <Rbt.Parameter_File>
/export/apps/rDock/src/rDock_2013.1_src/data/scripts/dock_solv.prm

>  <Rbt.Receptor>
prm/pocket_docking_7.prm

>  <SCORE>
-13.1058

>  <SCORE.INTER>
-12.9734

>  <SCORE.INTER.CONST>
1

>  <SCORE.INTER.POLAR>
0

>  <SCORE.INTER.ROT>
6

>  <SCORE.INTER.SOLV>
12.0337

>  <SCORE.INTER.VDW>
-20.2601

>  <SCORE.INTER.norm>
-0.480495

>  <SCORE.INTRA>
-0.132406

>  <SCORE.INTRA.DIHEDRAL>
-2.04981

>  <SCORE.INTRA.DIHEDRAL.0>
10.2917

>  <SCORE.INTRA.POLAR>
0

>  <SCORE.INTRA.POLAR.0>
0

>  <SCORE.INTRA.REPUL>
0

>  <SCORE.INTRA.REPUL.0>
0

>  <SCORE.INTRA.SOLV>
-2.36695

>  <SCORE.INTRA.SOLV.lig_0>
-39.6315

>  <SCORE.INTRA.VDW>
2.07597

>  <SCORE.INTRA.VDW.0>
-4.02152

>  <SCORE.INTRA.norm>
-0.00490393

>  <SCORE.RESTR>
0

>  <SCORE.RESTR.CAVITY>
0

>  <SCORE.RESTR.norm>
0

>  <SCORE.SYSTEM>
0

>  <SCORE.SYSTEM.CONST>
0

>  <SCORE.SYSTEM.DIHEDRAL>
0

>  <SCORE.SYSTEM.SOLV>
0

>  <SCORE.SYSTEM.norm>
0

>  <SCORE.heavy>
27

>  <SCORE.norm>
-0.485399

>  <RMSD>
5.132

$$$$
lig.pdb
 OpenBabel11021811493D
libRbt.so/2013.1/901 2013/11/27
 27 29  0  0  0  0  0  0  0  0999 V2000
    2.4912  -15.2981  -13.0493 N   0  0  0  0  0  0  0  0  0  0  0  0
    3.2138  -15.8276  -11.8529 C   0  0  2  0  0  0  0  0  0  0  0  0
    3.6566  -17.2611  -12.1309 C   0  0  0  0  0  0  0  0  0  0  0  0
    4.8182  -17.5873  -11.9161 O   0  0  0  0  0  0  0  0  0  0  0  0
    2.8902  -18.1254  -12.5751 O   0  0  0  0  0  0  0  0  0  0  0  0
    2.4050  -15.7229  -10.5442 C   0  0  0  0  0  0  0  0  0  0  0  0
    1.7998  -17.0396   -9.9904 C   0  0  0  0  0  0  0  0  0  0  0  0
    0.8150  -16.9836   -8.4313 S   0  0  2  0  0  0  0  0  0  0  0  0
   -0.8534  -16.7243   -9.0704 C   0  0  0  0  0  0  0  0  0  0  0  0
    1.1502  -15.3342   -7.7764 C   0  0  0  0  0  0  0  0  0  0  0  0
    2.4512  -15.3509   -6.9848 C   0  0  1  0  0  0  0  0  0  0  0  0
    3.4412  -16.1775   -7.5780 O   0  0  0  0  0  0  0  0  0  0  0  0
    3.1110  -14.0006   -6.9025 C   0  0  1  0  0  0  0  0  0  0  0  0
    2.4787  -13.2135   -5.9348 O   0  0  0  0  0  0  0  0  0  0  0  0
    4.5175  -14.4011   -6.5156 C   0  0  1  0  0  0  0  0  0  0  0  0
    4.5952  -14.6219   -5.1220 O   0  0  0  0  0  0  0  0  0  0  0  0
    4.7399  -15.7242   -7.2396 C   0  0  2  0  0  0  0  0  0  0  0  0
    5.6250  -15.6487   -8.4343 N   0  0  0  0  0  0  0  0  0  0  0  0
    6.6755  -16.4913   -8.6976 C   0  0  0  0  0  0  0  0  0  0  0  0
    7.2527  -16.1295   -9.8653 N   0  0  0  0  0  0  0  0  0  0  0  0
    6.5885  -15.0743  -10.3647 C   0  0  0  0  0  0  0  0  0  0  0  0
    6.7576  -14.3318  -11.5234 C   0  0  0  0  0  0  0  0  0  0  0  0
    7.7279  -14.6327  -12.3764 N   0  0  0  0  0  0  0  0  0  0  0  0
    5.9003  -13.2804  -11.7807 N   0  0  0  0  0  0  0  0  0  0  0  0
    4.8739  -12.9601  -10.9011 C   0  0  0  0  0  0  0  0  0  0  0  0
    4.7175  -13.7141   -9.7558 N   0  0  0  0  0  0  0  0  0  0  0  0
    5.5610  -14.7516   -9.4816 C   0  0  0  0  0  0  0  0  0  0  0  0
  2  3  1  6  0  0  0
  2  6  1  0  0  0  0
  2  1  1  0  0  0  0
  4  3  2  0  0  0  0
  5  3  1  0  0  0  0
  6  7  2  0  0  0  0
  8  7  1  6  0  0  0
  8  9  1  0  0  0  0
  8 10  1  0  0  0  0
 11 10  1  6  0  0  0
 11 13  1  0  0  0  0
 12 11  1  0  0  0  0
 12 17  1  0  0  0  0
 13 14  1  1  0  0  0
 13 15  1  0  0  0  0
 15 16  1  1  0  0  0
 17 18  1  6  0  0  0
 17 15  1  0  0  0  0
 18 19  1  0  0  0  0
 20 19  2  0  0  0  0
 21 27  2  0  0  0  0
 21 20  1  0  0  0  0
 22 21  1  0  0  0  0
 23 22  1  0  0  0  0
 24 22  2  0  0  0  0
 24 25  1  0  0  0  0
 25 26  2  0  0  0  0
 26 27  1  0  0  0  0
 27 18  1  0  0  0  0
M  END
>  <CHROM.1>
130.27778607,105.39460427,91.07738591,-83.96196477,38.12574952,-108.92604259
3.85302750,-15.51612392,-9.42435147,0.74820263,-0.37436725,-1.88778209

>  <Name>
lig.pdb

>  <RI>
0

>  <Rbt.Current_Directory>
/home/itssahil/PROJECTS/Mol_Feturizer/New_Systems/rnas/4b5r

>  <Rbt.Executable>
rbdock ($Id: //depot/dev/client3/rdock/2013.1/src/exe/rbdock.cxx#4 $)

>  <Rbt.Library>
libRbt.so (2013.1, Build901 2013/11/27)

>  <Rbt.Parameter_File>
/export/apps/rDock/src/rDock_2013.1_src/data/scripts/dock_solv.prm

>  <Rbt.Receptor>
prm/pocket_docking_3.prm

>  <SCORE>
-13.4425

>  <SCORE.INTER>
-12.2053

>  <SCORE.INTER.CONST>
1

>  <SCORE.INTER.POLAR>
0

>  <SCORE.INTER.ROT>
6

>  <SCORE.INTER.SOLV>
12.7633

>  <SCORE.INTER.VDW>
-19.9913

>  <SCORE.INTER.norm>
-0.452048

>  <SCORE.INTRA>
-1.24786

>  <SCORE.INTRA.DIHEDRAL>
0.18606

>  <SCORE.INTRA.DIHEDRAL.0>
10.2917

>  <SCORE.INTRA.POLAR>
0

>  <SCORE.INTRA.POLAR.0>
0

>  <SCORE.INTRA.REPUL>
0

>  <SCORE.INTRA.REPUL.0>
0

>  <SCORE.INTRA.SOLV>
-0.51973

>  <SCORE.INTRA.SOLV.lig_0>
-39.6315

>  <SCORE.INTRA.VDW>
-1.08102

>  <SCORE.INTRA.VDW.0>
-4.02152

>  <SCORE.INTRA.norm>
-0.046217

>  <SCORE.RESTR>
0.01069

>  <SCORE.RESTR.CAVITY>
0.01069

>  <SCORE.RESTR.norm>
0.000395925

>  <SCORE.SYSTEM>
0

>  <SCORE.SYSTEM.CONST>
0

>  <SCORE.SYSTEM.DIHEDRAL>
0

>  <SCORE.SYSTEM.SOLV>
0

>  <SCORE.SYSTEM.norm>
0

>  <SCORE.heavy>
27

>  <SCORE.norm>
-0.497869

>  <RMSD>
5.134

$$$$
lig.pdb
 OpenBabel11021811493D
libRbt.so/2013.1/901 2013/11/27
 27 29  0  0  0  0  0  0  0  0999 V2000
    6.7703  -11.9129  -16.8580 N   0  0  0  0  0  0  0  0  0  0  0  0
    7.3882  -13.2689  -16.9735 C   0  0  2  0  0  0  0  0  0  0  0  0
    6.7186  -14.0271  -18.1159 C   0  0  0  0  0  0  0  0  0  0  0  0
    5.4996  -14.1517  -18.1261 O   0  0  0  0  0  0  0  0  0  0  0  0
    7.3558  -14.5365  -19.0467 O   0  0  0  0  0  0  0  0  0  0  0  0
    7.3622  -14.0755  -15.6595 C   0  0  0  0  0  0  0  0  0  0  0  0
    7.2998  -15.6201  -15.7897 C   0  0  0  0  0  0  0  0  0  0  0  0
    7.2595  -16.6448  -14.2561 S   0  0  2  0  0  0  0  0  0  0  0  0
    7.8166  -18.2449  -14.8796 C   0  0  0  0  0  0  0  0  0  0  0  0
    5.5035  -17.0008  -14.0293 C   0  0  0  0  0  0  0  0  0  0  0  0
    4.7973  -15.7696  -13.4773 C   0  0  1  0  0  0  0  0  0  0  0  0
    3.3869  -15.9241  -13.4292 O   0  0  0  0  0  0  0  0  0  0  0  0
    5.1746  -15.4597  -12.0535 C   0  0  1  0  0  0  0  0  0  0  0  0
    6.4183  -14.8214  -12.0126 O   0  0  0  0  0  0  0  0  0  0  0  0
    4.0299  -14.5558  -11.6524 C   0  0  1  0  0  0  0  0  0  0  0  0
    4.2725  -13.2364  -12.0967 O   0  0  0  0  0  0  0  0  0  0  0  0
    2.8299  -15.1190  -12.4055 C   0  0  2  0  0  0  0  0  0  0  0  0
    1.8625  -15.8824  -11.5703 N   0  0  0  0  0  0  0  0  0  0  0  0
    1.4747  -17.1799  -11.7917 C   0  0  0  0  0  0  0  0  0  0  0  0
    0.5886  -17.5470  -10.8390 N   0  0  0  0  0  0  0  0  0  0  0  0
    0.4041  -16.5130  -10.0018 C   0  0  0  0  0  0  0  0  0  0  0  0
   -0.3801  -16.3620   -8.8683 C   0  0  0  0  0  0  0  0  0  0  0  0
   -1.1311  -17.3657   -8.4345 N   0  0  0  0  0  0  0  0  0  0  0  0
   -0.3644  -15.1570   -8.1941 N   0  0  0  0  0  0  0  0  0  0  0  0
    0.4247  -14.1007   -8.6315 C   0  0  0  0  0  0  0  0  0  0  0  0
    1.2029  -14.2716   -9.7583 N   0  0  0  0  0  0  0  0  0  0  0  0
    1.1932  -15.4531  -10.4417 C   0  0  0  0  0  0  0  0  0  0  0  0
  2  3  1  6  0  0  0
  2  6  1  0  0  0  0
  2  1  1  0  0  0  0
  4  3  2  0  0  0  0
  5  3  1  0  0  0  0
  6  7  2  0  0  0  0
  8  7  1  6  0  0  0
  8  9  1  0  0  0  0
  8 10  1  0  0  0  0
 11 10  1  1  0  0  0
 11 13  1  0  0  0  0
 12 11  1  0  0  0  0
 12 17  1  0  0  0  0
 13 14  1  6  0  0  0
 13 15  1  0  0  0  0
 15 16  1  6  0  0  0
 17 18  1  1  0  0  0
 17 15  1  0  0  0  0
 18 19  1  0  0  0  0
 20 19  2  0  0  0  0
 21 27  2  0  0  0  0
 21 20  1  0  0  0  0
 22 21  1  0  0  0  0
 23 22  1  0  0  0  0
 24 22  2  0  0  0  0
 24 25  1  0  0  0  0
 25 26  2  0  0  0  0
 26 27  1  0  0  0  0
 27 18  1  0  0  0  0
M  END
>  <CHROM.1>
-54.28495915,150.59022257,-159.43498492,-76.29422755,172.71914256,-3.89734448
4.12344030,-15.39055557,-13.07475673,0.42366194,0.72978124,-0.43011075

>  <Name>
lig.pdb

>  <RI>
0

>  <Rbt.Current_Directory>
/home/itssahil/PROJECTS/Mol_Feturizer/New_Systems/rnas/4b5r

>  <Rbt.Executable>
rbdock ($Id: //depot/dev/client3/rdock/2013.1/src/exe/rbdock.cxx#4 $)

>  <Rbt.Library>
libRbt.so (2013.1, Build901 2013/11/27)

>  <Rbt.Parameter_File>
/export/apps/rDock/src/rDock_2013.1_src/data/scripts/dock_solv.prm

>  <Rbt.Receptor>
prm/pocket_docking_7.prm

>  <SCORE>
-13.413

>  <SCORE.INTER>
-13.3733

>  <SCORE.INTER.CONST>
1

>  <SCORE.INTER.POLAR>
0

>  <SCORE.INTER.ROT>
6

>  <SCORE.INTER.SOLV>
14.7484

>  <SCORE.INTER.VDW>
-21.4317

>  <SCORE.INTER.norm>
-0.495308

>  <SCORE.INTRA>
-0.0397022

>  <SCORE.INTRA.DIHEDRAL>
-0.402886

>  <SCORE.INTRA.DIHEDRAL.0>
10.2917

>  <SCORE.INTRA.POLAR>
0

>  <SCORE.INTRA.POLAR.0>
0

>  <SCORE.INTRA.REPUL>
0

>  <SCORE.INTRA.REPUL.0>
0

>  <SCORE.INTRA.SOLV>
-2.77612

>  <SCORE.INTRA.SOLV.lig_0>
-39.6315

>  <SCORE.INTRA.VDW>
1.5498

>  <SCORE.INTRA.VDW.0>
-4.02152

>  <SCORE.INTRA.norm>
-0.00147045

>  <SCORE.RESTR>
0

>  <SCORE.RESTR.CAVITY>
0

>  <SCORE.RESTR.norm>
0

>  <SCORE.SYSTEM>
0

>  <SCORE.SYSTEM.CONST>
0

>  <SCORE.SYSTEM.DIHEDRAL>
0

>  <SCORE.SYSTEM.SOLV>
0

>  <SCORE.SYSTEM.norm>
0

>  <SCORE.heavy>
27

>  <SCORE.norm>
-0.496778

>  <RMSD>
5.136

$$$$
lig.pdb
 OpenBabel11021811493D
libRbt.so/2013.1/901 2013/11/27
 27 29  0  0  0  0  0  0  0  0999 V2000
    6.1906  -13.5030  -10.7197 N   0  0  0  0  0  0  0  0  0  0  0  0
    6.1639  -14.9796  -10.4896 C   0  0  2  0  0  0  0  0  0  0  0  0
    7.2803  -15.6316  -11.2999 C   0  0  0  0  0  0  0  0  0  0  0  0
    7.9024  -16.5735  -10.8230 O   0  0  0  0  0  0  0  0  0  0  0  0
    7.5989  -15.2475  -12.4325 O   0  0  0  0  0  0  0  0  0  0  0  0
    4.7945  -15.6269  -10.7791 C   0  0  0  0  0  0  0  0  0  0  0  0
    4.5604  -16.1497  -12.2208 C   0  0  0  0  0  0  0  0  0  0  0  0
    2.9409  -16.9295  -12.6362 S   0  0  2  0  0  0  0  0  0  0  0  0
    2.5364  -16.1085  -14.1924 C   0  0  0  0  0  0  0  0  0  0  0  0
    1.7740  -16.0949  -11.5391 C   0  0  0  0  0  0  0  0  0  0  0  0
    1.6468  -16.8740  -10.2367 C   0  0  1  0  0  0  0  0  0  0  0  0
    2.7970  -16.7538   -9.4135 O   0  0  0  0  0  0  0  0  0  0  0  0
    0.5244  -16.3843   -9.3616 C   0  0  1  0  0  0  0  0  0  0  0  0
   -0.6995  -16.8747   -9.8281 O   0  0  0  0  0  0  0  0  0  0  0  0
    0.9317  -16.9748   -8.0298 C   0  0  1  0  0  0  0  0  0  0  0  0
    0.5225  -18.3251   -7.9501 O   0  0  0  0  0  0  0  0  0  0  0  0
    2.4552  -16.9195   -8.0488 C   0  0  2  0  0  0  0  0  0  0  0  0
    3.0586  -15.8575   -7.1977 N   0  0  0  0  0  0  0  0  0  0  0  0
    2.4473  -14.6806   -6.8455 C   0  0  0  0  0  0  0  0  0  0  0  0
    3.2864  -13.9598   -6.0685 N   0  0  0  0  0  0  0  0  0  0  0  0
    4.4247  -14.6539   -5.9055 C   0  0  0  0  0  0  0  0  0  0  0  0
    5.5887  -14.3807   -5.2034 C   0  0  0  0  0  0  0  0  0  0  0  0
    5.7115  -13.2477   -4.5246 N   0  0  0  0  0  0  0  0  0  0  0  0
    6.6146  -15.3049   -5.2146 N   0  0  0  0  0  0  0  0  0  0  0  0
    6.4960  -16.4997   -5.9132 C   0  0  0  0  0  0  0  0  0  0  0  0
    5.3277  -16.7567   -6.6014 N   0  0  0  0  0  0  0  0  0  0  0  0
    4.3068  -15.8507   -6.6079 C   0  0  0  0  0  0  0  0  0  0  0  0
  2  3  1  6  0  0  0
  2  6  1  0  0  0  0
  2  1  1  0  0  0  0
  4  3  2  0  0  0  0
  5  3  1  0  0  0  0
  6  7  2  0  0  0  0
  8  7  1  1  0  0  0
  8  9  1  0  0  0  0
  8 10  1  0  0  0  0
 11 10  1  6  0  0  0
 11 13  1  0  0  0  0
 12 11  1  0  0  0  0
 12 17  1  0  0  0  0
 13 14  1  6  0  0  0
 13 15  1  0  0  0  0
 15 16  1  6  0  0  0
 17 18  1  1  0  0  0
 17 15  1  0  0  0  0
 18 19  1  0  0  0  0
 20 19  2  0  0  0  0
 21 27  2  0  0  0  0
 21 20  1  0  0  0  0
 22 21  1  0  0  0  0
 23 22  1  0  0  0  0
 24 22  2  0  0  0  0
 24 25  1  0  0  0  0
 25 26  2  0  0  0  0
 26 27  1  0  0  0  0
 27 18  1  0  0  0  0
M  END
>  <CHROM.1>
142.11234373,90.82807477,133.06080268,-91.11572351,72.46279499,93.08770803
3.89464255,-15.90333595,-9.13847607,-1.92197335,0.27363796,1.43177963

>  <Name>
lig.pdb

>  <RI>
0

>  <Rbt.Current_Directory>
/home/itssahil/PROJECTS/Mol_Feturizer/New_Systems/rnas/4b5r

>  <Rbt.Executable>
rbdock ($Id: //depot/dev/client3/rdock/2013.1/src/exe/rbdock.cxx#4 $)

>  <Rbt.Library>
libRbt.so (2013.1, Build901 2013/11/27)

>  <Rbt.Parameter_File>
/export/apps/rDock/src/rDock_2013.1_src/data/scripts/dock_solv.prm

>  <Rbt.Receptor>
prm/pocket_docking_2.prm

>  <SCORE>
-9.62565

>  <SCORE.INTER>
-10.6313

>  <SCORE.INTER.CONST>
1

>  <SCORE.INTER.POLAR>
0

>  <SCORE.INTER.ROT>
6

>  <SCORE.INTER.SOLV>
15.5464

>  <SCORE.INTER.VDW>
-19.8697

>  <SCORE.INTER.norm>
-0.393754

>  <SCORE.INTRA>
0.395743

>  <SCORE.INTRA.DIHEDRAL>
-0.270351

>  <SCORE.INTRA.DIHEDRAL.0>
10.2917

>  <SCORE.INTRA.POLAR>
0

>  <SCORE.INTRA.POLAR.0>
0

>  <SCORE.INTRA.REPUL>
0

>  <SCORE.INTRA.REPUL.0>
0

>  <SCORE.INTRA.SOLV>
-2.92382

>  <SCORE.INTRA.SOLV.lig_0>
-39.6315

>  <SCORE.INTRA.VDW>
1.99283

>  <SCORE.INTRA.VDW.0>
-4.02152

>  <SCORE.INTRA.norm>
0.0146572

>  <SCORE.RESTR>
0.609952

>  <SCORE.RESTR.CAVITY>
0.609952

>  <SCORE.RESTR.norm>
0.0225908

>  <SCORE.SYSTEM>
0

>  <SCORE.SYSTEM.CONST>
0

>  <SCORE.SYSTEM.DIHEDRAL>
0

>  <SCORE.SYSTEM.SOLV>
0

>  <SCORE.SYSTEM.norm>
0

>  <SCORE.heavy>
27

>  <SCORE.norm>
-0.356506

>  <RMSD>
5.147

$$$$
lig.pdb
 OpenBabel11021811493D
libRbt.so/2013.1/901 2013/11/27
 27 29  0  0  0  0  0  0  0  0999 V2000
    5.5078  -14.0985  -11.4419 N   0  0  0  0  0  0  0  0  0  0  0  0
    6.3100  -14.7696  -10.3742 C   0  0  2  0  0  0  0  0  0  0  0  0
    7.4426  -15.5600  -11.0228 C   0  0  0  0  0  0  0  0  0  0  0  0
    8.5229  -15.0164  -11.2207 O   0  0  0  0  0  0  0  0  0  0  0  0
    7.3221  -16.7418  -11.3701 O   0  0  0  0  0  0  0  0  0  0  0  0
    5.4684  -15.6490   -9.4275 C   0  0  0  0  0  0  0  0  0  0  0  0
    4.3770  -16.5349  -10.0837 C   0  0  0  0  0  0  0  0  0  0  0  0
    3.3299  -17.6065   -9.0072 S   0  0  2  0  0  0  0  0  0  0  0  0
    3.1013  -19.0563  -10.0585 C   0  0  0  0  0  0  0  0  0  0  0  0
    1.6869  -16.8691   -9.1437 C   0  0  0  0  0  0  0  0  0  0  0  0
    1.6628  -15.5311   -8.4166 C   0  0  1  0  0  0  0  0  0  0  0  0
    2.1718  -15.6185   -7.0943 O   0  0  0  0  0  0  0  0  0  0  0  0
    2.5301  -14.4878   -9.0684 C   0  0  1  0  0  0  0  0  0  0  0  0
    1.8789  -13.9468  -10.1816 O   0  0  0  0  0  0  0  0  0  0  0  0
    2.6812  -13.5014   -7.9316 C   0  0  1  0  0  0  0  0  0  0  0  0
    1.5533  -12.6522   -7.8704 O   0  0  0  0  0  0  0  0  0  0  0  0
    2.7115  -14.3752   -6.6826 C   0  0  2  0  0  0  0  0  0  0  0  0
    4.0532  -14.5374   -6.0585 N   0  0  0  0  0  0  0  0  0  0  0  0
    4.7772  -13.5354   -5.4626 C   0  0  0  0  0  0  0  0  0  0  0  0
    5.9442  -14.0424   -5.0060 N   0  0  0  0  0  0  0  0  0  0  0  0
    5.9829  -15.3549   -5.2884 C   0  0  0  0  0  0  0  0  0  0  0  0
    6.9322  -16.3335   -5.0361 C   0  0  0  0  0  0  0  0  0  0  0  0
    8.0550  -16.0292   -4.3987 N   0  0  0  0  0  0  0  0  0  0  0  0
    6.6914  -17.6284   -5.4507 N   0  0  0  0  0  0  0  0  0  0  0  0
    5.5157  -17.9632   -6.1106 C   0  0  0  0  0  0  0  0  0  0  0  0
    4.5799  -16.9770   -6.3478 N   0  0  0  0  0  0  0  0  0  0  0  0
    4.8054  -15.6902   -5.9522 C   0  0  0  0  0  0  0  0  0  0  0  0
  2  3  1  6  0  0  0
  2  6  1  0  0  0  0
  2  1  1  0  0  0  0
  4  3  2  0  0  0  0
  5  3  1  0  0  0  0
  6  7  2  0  0  0  0
  8  7  1  6  0  0  0
  8  9  1  0  0  0  0
  8 10  1  0  0  0  0
 11 10  1  6  0  0  0
 11 13  1  0  0  0  0
 12 11  1  0  0  0  0
 12 17  1  0  0  0  0
 13 14  1  6  0  0  0
 13 15  1  0  0  0  0
 15 16  1  1  0  0  0
 17 18  1  6  0  0  0
 17 15  1  0  0  0  0
 18 19  1  0  0  0  0
 20 19  2  0  0  0  0
 21 27  2  0  0  0  0
 21 20  1  0  0  0  0
 22 21  1  0  0  0  0
 23 22  1  0  0  0  0
 24 22  2  0  0  0  0
 24 25  1  0  0  0  0
 25 26  2  0  0  0  0
 26 27  1  0  0  0  0
 27 18  1  0  0  0  0
M  END
>  <CHROM.1>
89.79793273,42.38036659,-144.46715386,-70.73323706,-50.61041106,-174.24396366
4.55833405,-15.64967889,-8.09397047,-1.99565325,-0.24061066,1.48554456

>  <Name>
lig.pdb

>  <RI>
0

>  <Rbt.Current_Directory>
/home/itssahil/PROJECTS/Mol_Feturizer/New_Systems/rnas/4b5r

>  <Rbt.Executable>
rbdock ($Id: //depot/dev/client3/rdock/2013.1/src/exe/rbdock.cxx#4 $)

>  <Rbt.Library>
libRbt.so (2013.1, Build901 2013/11/27)

>  <Rbt.Parameter_File>
/export/apps/rDock/src/rDock_2013.1_src/data/scripts/dock_solv.prm

>  <Rbt.Receptor>
prm/pocket_docking_3.prm

>  <SCORE>
-11.3402

>  <SCORE.INTER>
-11.0342

>  <SCORE.INTER.CONST>
1

>  <SCORE.INTER.POLAR>
0

>  <SCORE.INTER.ROT>
6

>  <SCORE.INTER.SOLV>
12.5474

>  <SCORE.INTER.VDW>
-19.1386

>  <SCORE.INTER.norm>
-0.408672

>  <SCORE.INTRA>
-0.340485

>  <SCORE.INTRA.DIHEDRAL>
0.634219

>  <SCORE.INTRA.DIHEDRAL.0>
10.2917

>  <SCORE.INTRA.POLAR>
0

>  <SCORE.INTRA.POLAR.0>
0

>  <SCORE.INTRA.REPUL>
0.0291765

>  <SCORE.INTRA.REPUL.0>
0

>  <SCORE.INTRA.SOLV>
-0.372943

>  <SCORE.INTRA.SOLV.lig_0>
-39.6315

>  <SCORE.INTRA.VDW>
-0.617006

>  <SCORE.INTRA.VDW.0>
-4.02152

>  <SCORE.INTRA.norm>
-0.0126106

>  <SCORE.RESTR>
0.0344661

>  <SCORE.RESTR.CAVITY>
0.0344661

>  <SCORE.RESTR.norm>
0.00127652

>  <SCORE.SYSTEM>
0

>  <SCORE.SYSTEM.CONST>
0

>  <SCORE.SYSTEM.DIHEDRAL>
0

>  <SCORE.SYSTEM.SOLV>
0

>  <SCORE.SYSTEM.norm>
0

>  <SCORE.heavy>
27

>  <SCORE.norm>
-0.420006

>  <RMSD>
5.149

$$$$
lig.pdb
 OpenBabel11021811493D
libRbt.so/2013.1/901 2013/11/27
 27 29  0  0  0  0  0  0  0  0999 V2000
    6.7882  -17.0776  -10.0029 N   0  0  0  0  0  0  0  0  0  0  0  0
    5.9650  -15.8327  -10.0842 C   0  0  2  0  0  0  0  0  0  0  0  0
    6.8279  -14.6981  -10.6284 C   0  0  0  0  0  0  0  0  0  0  0  0
    7.4745  -14.0046   -9.8521 O   0  0  0  0  0  0  0  0  0  0  0  0
    6.9053  -14.4342  -11.8352 O   0  0  0  0  0  0  0  0  0  0  0  0
    5.2895  -15.4487   -8.7523 C   0  0  0  0  0  0  0  0  0  0  0  0
    5.2602  -13.9396   -8.3940 C   0  0  0  0  0  0  0  0  0  0  0  0
    4.4726  -13.4124   -6.8112 S   0  0  2  0  0  0  0  0  0  0  0  0
    5.6946  -13.9636   -5.6019 C   0  0  0  0  0  0  0  0  0  0  0  0
    3.1920  -14.6565   -6.5392 C   0  0  0  0  0  0  0  0  0  0  0  0
    2.0772  -14.4776   -7.5612 C   0  0  1  0  0  0  0  0  0  0  0  0
    2.4715  -13.6771   -8.6654 O   0  0  0  0  0  0  0  0  0  0  0  0
    1.6398  -15.7721   -8.1924 C   0  0  1  0  0  0  0  0  0  0  0  0
    0.7944  -16.4700   -7.3241 O   0  0  0  0  0  0  0  0  0  0  0  0
    0.9301  -15.2554   -9.4243 C   0  0  1  0  0  0  0  0  0  0  0  0
   -0.3889  -14.8661   -9.0993 O   0  0  0  0  0  0  0  0  0  0  0  0
    1.7277  -14.0183   -9.8217 C   0  0  2  0  0  0  0  0  0  0  0  0
    2.6069  -14.1896  -11.0107 N   0  0  0  0  0  0  0  0  0  0  0  0
    3.8553  -13.6398  -11.1598 C   0  0  0  0  0  0  0  0  0  0  0  0
    4.3607  -14.0049  -12.3592 N   0  0  0  0  0  0  0  0  0  0  0  0
    3.4650  -14.7874  -12.9833 C   0  0  0  0  0  0  0  0  0  0  0  0
    3.4859  -15.4279  -14.2129 C   0  0  0  0  0  0  0  0  0  0  0  0
    4.5423  -15.3184  -15.0076 N   0  0  0  0  0  0  0  0  0  0  0  0
    2.3968  -16.1852  -14.5963 N   0  0  0  0  0  0  0  0  0  0  0  0
    1.2878  -16.3165  -13.7700 C   0  0  0  0  0  0  0  0  0  0  0  0
    1.2876  -15.6765  -12.5474 N   0  0  0  0  0  0  0  0  0  0  0  0
    2.3522  -14.9170  -12.1560 C   0  0  0  0  0  0  0  0  0  0  0  0
  2  3  1  1  0  0  0
  2  6  1  0  0  0  0
  2  1  1  0  0  0  0
  4  3  2  0  0  0  0
  5  3  1  0  0  0  0
  6  7  2  0  0  0  0
  8  7  1  6  0  0  0
  8  9  1  0  0  0  0
  8 10  1  0  0  0  0
 11 10  1  1  0  0  0
 11 13  1  0  0  0  0
 12 11  1  0  0  0  0
 12 17  1  0  0  0  0
 13 14  1  1  0  0  0
 13 15  1  0  0  0  0
 15 16  1  1  0  0  0
 17 18  1  6  0  0  0
 17 15  1  0  0  0  0
 18 19  1  0  0  0  0
 20 19  2  0  0  0  0
 21 27  2  0  0  0  0
 21 20  1  0  0  0  0
 22 21  1  0  0  0  0
 23 22  1  0  0  0  0
 24 22  2  0  0  0  0
 24 25  1  0  0  0  0
 25 26  2  0  0  0  0
 26 27  1  0  0  0  0
 27 18  1  0  0  0  0
M  END
>  <CHROM.1>
-88.93828930,140.08690929,72.96870163,-70.27254407,16.72095729,-22.77928109
3.62854124,-14.82670865,-10.08161605,-1.45949119,-0.11431585,-1.72106970

>  <Name>
lig.pdb

>  <RI>
0

>  <Rbt.Current_Directory>
/home/itssahil/PROJECTS/Mol_Feturizer/New_Systems/rnas/4b5r

>  <Rbt.Executable>
rbdock ($Id: //depot/dev/client3/rdock/2013.1/src/exe/rbdock.cxx#4 $)

>  <Rbt.Library>
libRbt.so (2013.1, Build901 2013/11/27)

>  <Rbt.Parameter_File>
/export/apps/rDock/src/rDock_2013.1_src/data/scripts/dock_solv.prm

>  <Rbt.Receptor>
prm/pocket_docking_2.prm

>  <SCORE>
-7.37353

>  <SCORE.INTER>
-11.6293

>  <SCORE.INTER.CONST>
1

>  <SCORE.INTER.POLAR>
0

>  <SCORE.INTER.ROT>
6

>  <SCORE.INTER.SOLV>
17.2829

>  <SCORE.INTER.VDW>
-21.1138

>  <SCORE.INTER.norm>
-0.430715

>  <SCORE.INTRA>
2.70153

>  <SCORE.INTRA.DIHEDRAL>
3.03142

>  <SCORE.INTRA.DIHEDRAL.0>
10.2917

>  <SCORE.INTRA.POLAR>
0

>  <SCORE.INTRA.POLAR.0>
0

>  <SCORE.INTRA.REPUL>
0

>  <SCORE.INTRA.REPUL.0>
0

>  <SCORE.INTRA.SOLV>
-1.8671

>  <SCORE.INTRA.SOLV.lig_0>
-39.6315

>  <SCORE.INTRA.VDW>
2.11937

>  <SCORE.INTRA.VDW.0>
-4.02152

>  <SCORE.INTRA.norm>
0.100057

>  <SCORE.RESTR>
1.55425

>  <SCORE.RESTR.CAVITY>
1.55425

>  <SCORE.RESTR.norm>
0.0575647

>  <SCORE.SYSTEM>
0

>  <SCORE.SYSTEM.CONST>
0

>  <SCORE.SYSTEM.DIHEDRAL>
0

>  <SCORE.SYSTEM.SOLV>
0

>  <SCORE.SYSTEM.norm>
0

>  <SCORE.heavy>
27

>  <SCORE.norm>
-0.273094

>  <RMSD>
5.151

$$$$
lig.pdb
 OpenBabel11021811493D
libRbt.so/2013.1/901 2013/11/27
 27 29  0  0  0  0  0  0  0  0999 V2000
    7.0796  -17.7832  -13.4743 N   0  0  0  0  0  0  0  0  0  0  0  0
    7.3037  -16.7092  -12.4592 C   0  0  2  0  0  0  0  0  0  0  0  0
    7.3015  -17.3308  -11.0657 C   0  0  0  0  0  0  0  0  0  0  0  0
    7.6466  -16.6563  -10.1025 O   0  0  0  0  0  0  0  0  0  0  0  0
    6.9681  -18.5040  -10.8554 O   0  0  0  0  0  0  0  0  0  0  0  0
    6.3049  -15.5391  -12.5646 C   0  0  0  0  0  0  0  0  0  0  0  0
    5.1770  -15.4861  -11.5009 C   0  0  0  0  0  0  0  0  0  0  0  0
    3.9443  -14.1154  -11.5736 S   0  0  2  0  0  0  0  0  0  0  0  0
    4.9913  -12.7154  -12.0242 C   0  0  0  0  0  0  0  0  0  0  0  0
    3.6422  -13.7235   -9.8367 C   0  0  0  0  0  0  0  0  0  0  0  0
    2.6650  -14.7310   -9.2456 C   0  0  1  0  0  0  0  0  0  0  0  0
    3.2222  -16.0319   -9.1338 O   0  0  0  0  0  0  0  0  0  0  0  0
    2.2478  -14.3954   -7.8389 C   0  0  1  0  0  0  0  0  0  0  0  0
    1.2755  -13.3903   -7.8515 O   0  0  0  0  0  0  0  0  0  0  0  0
    1.7123  -15.7338   -7.3805 C   0  0  1  0  0  0  0  0  0  0  0  0
    0.3828  -15.9056   -7.8277 O   0  0  0  0  0  0  0  0  0  0  0  0
    2.6056  -16.7515   -8.0809 C   0  0  2  0  0  0  0  0  0  0  0  0
    3.6106  -17.4163   -7.2066 N   0  0  0  0  0  0  0  0  0  0  0  0
    3.6227  -18.7500   -6.8841 C   0  0  0  0  0  0  0  0  0  0  0  0
    4.6753  -19.0011   -6.0739 N   0  0  0  0  0  0  0  0  0  0  0  0
    5.3478  -17.8556   -5.8748 C   0  0  0  0  0  0  0  0  0  0  0  0
    6.4901  -17.5619   -5.1457 C   0  0  0  0  0  0  0  0  0  0  0  0
    7.1240  -18.5178   -4.4794 N   0  0  0  0  0  0  0  0  0  0  0  0
    6.9622  -16.2644   -5.1273 N   0  0  0  0  0  0  0  0  0  0  0  0
    6.3139  -15.2553   -5.8282 C   0  0  0  0  0  0  0  0  0  0  0  0
    5.1818  -15.5678   -6.5530 N   0  0  0  0  0  0  0  0  0  0  0  0
    4.6966  -16.8434   -6.5754 C   0  0  0  0  0  0  0  0  0  0  0  0
  2  3  1  1  0  0  0
  2  6  1  0  0  0  0
  2  1  1  0  0  0  0
  4  3  2  0  0  0  0
  5  3  1  0  0  0  0
  6  7  2  0  0  0  0
  8  7  1  1  0  0  0
  8  9  1  0  0  0  0
  8 10  1  0  0  0  0
 11 10  1  1  0  0  0
 11 13  1  0  0  0  0
 12 11  1  0  0  0  0
 12 17  1  0  0  0  0
 13 14  1  6  0  0  0
 13 15  1  0  0  0  0
 15 16  1  6  0  0  0
 17 18  1  1  0  0  0
 17 15  1  0  0  0  0
 18 19  1  0  0  0  0
 20 19  2  0  0  0  0
 21 27  2  0  0  0  0
 21 20  1  0  0  0  0
 22 21  1  0  0  0  0
 23 22  1  0  0  0  0
 24 22  2  0  0  0  0
 24 25  1  0  0  0  0
 25 26  2  0  0  0  0
 26 27  1  0  0  0  0
 27 18  1  0  0  0  0
M  END
>  <CHROM.1>
170.22204943,104.18927364,-39.42769251,-80.10430644,68.49822483,-126.49940202
4.68780667,-16.11414625,-8.79206836,-1.41587382,-0.54478623,1.93640680

>  <Name>
lig.pdb

>  <RI>
0

>  <Rbt.Current_Directory>
/home/itssahil/PROJECTS/Mol_Feturizer/New_Systems/rnas/4b5r

>  <Rbt.Executable>
rbdock ($Id: //depot/dev/client3/rdock/2013.1/src/exe/rbdock.cxx#4 $)

>  <Rbt.Library>
libRbt.so (2013.1, Build901 2013/11/27)

>  <Rbt.Parameter_File>
/export/apps/rDock/src/rDock_2013.1_src/data/scripts/dock_solv.prm

>  <Rbt.Receptor>
prm/pocket_docking_5.prm

>  <SCORE>
-13.6333

>  <SCORE.INTER>
-12.6784

>  <SCORE.INTER.CONST>
1

>  <SCORE.INTER.POLAR>
0

>  <SCORE.INTER.ROT>
6

>  <SCORE.INTER.SOLV>
12.4675

>  <SCORE.INTER.VDW>
-20.2081

>  <SCORE.INTER.norm>
-0.46957

>  <SCORE.INTRA>
-0.954929

>  <SCORE.INTRA.DIHEDRAL>
-2.41663

>  <SCORE.INTRA.DIHEDRAL.0>
10.2917

>  <SCORE.INTRA.POLAR>
0

>  <SCORE.INTRA.POLAR.0>
0

>  <SCORE.INTRA.REPUL>
0

>  <SCORE.INTRA.REPUL.0>
0

>  <SCORE.INTRA.SOLV>
-2.46832

>  <SCORE.INTRA.SOLV.lig_0>
-39.6315

>  <SCORE.INTRA.VDW>
1.48754

>  <SCORE.INTRA.VDW.0>
-4.02152

>  <SCORE.INTRA.norm>
-0.0353678

>  <SCORE.RESTR>
0

>  <SCORE.RESTR.CAVITY>
0

>  <SCORE.RESTR.norm>
0

>  <SCORE.SYSTEM>
0

>  <SCORE.SYSTEM.CONST>
0

>  <SCORE.SYSTEM.DIHEDRAL>
0

>  <SCORE.SYSTEM.SOLV>
0

>  <SCORE.SYSTEM.norm>
0

>  <SCORE.heavy>
27

>  <SCORE.norm>
-0.504938

>  <RMSD>
5.152

$$$$
lig.pdb
 OpenBabel11021811493D
libRbt.so/2013.1/901 2013/11/27
 27 29  0  0  0  0  0  0  0  0999 V2000
    1.7236  -16.3533  -14.4888 N   0  0  0  0  0  0  0  0  0  0  0  0
    2.1840  -15.6305  -13.2642 C   0  0  2  0  0  0  0  0  0  0  0  0
    3.6426  -15.2206  -13.4449 C   0  0  0  0  0  0  0  0  0  0  0  0
    3.9285  -14.0333  -13.5470 O   0  0  0  0  0  0  0  0  0  0  0  0
    4.5677  -16.0409  -13.4999 O   0  0  0  0  0  0  0  0  0  0  0  0
    1.9709  -16.4244  -11.9595 C   0  0  0  0  0  0  0  0  0  0  0  0
    1.3593  -15.6495  -10.7628 C   0  0  0  0  0  0  0  0  0  0  0  0
    1.0840  -16.5384   -9.1699 S   0  0  2  0  0  0  0  0  0  0  0  0
   -0.7099  -16.7409   -9.1778 C   0  0  0  0  0  0  0  0  0  0  0  0
    1.2384  -15.2382   -7.9259 C   0  0  0  0  0  0  0  0  0  0  0  0
    2.5296  -15.4293   -7.1412 C   0  0  1  0  0  0  0  0  0  0  0  0
    3.4731  -16.2363   -7.8296 O   0  0  0  0  0  0  0  0  0  0  0  0
    3.2685  -14.1414   -6.8950 C   0  0  1  0  0  0  0  0  0  0  0  0
    2.6766  -13.4405   -5.8394 O   0  0  0  0  0  0  0  0  0  0  0  0
    4.6453  -14.6701   -6.5585 C   0  0  1  0  0  0  0  0  0  0  0  0
    4.6982  -15.0624   -5.2020 O   0  0  0  0  0  0  0  0  0  0  0  0
    4.7938  -15.9068   -7.4377 C   0  0  2  0  0  0  0  0  0  0  0  0
    5.6914  -15.7407   -8.6137 N   0  0  0  0  0  0  0  0  0  0  0  0
    6.7613  -16.5455   -8.9147 C   0  0  0  0  0  0  0  0  0  0  0  0
    7.3452  -16.1012  -10.0501 N   0  0  0  0  0  0  0  0  0  0  0  0
    6.6665  -15.0297  -10.4921 C   0  0  0  0  0  0  0  0  0  0  0  0
    6.8350  -14.2138  -11.6005 C   0  0  0  0  0  0  0  0  0  0  0  0
    7.8211  -14.4430  -12.4576 N   0  0  0  0  0  0  0  0  0  0  0  0
    5.9603  -13.1648  -11.8036 N   0  0  0  0  0  0  0  0  0  0  0  0
    4.9174  -12.9190  -10.9195 C   0  0  0  0  0  0  0  0  0  0  0  0
    4.7621  -13.7453   -9.8251 N   0  0  0  0  0  0  0  0  0  0  0  0
    5.6225  -14.7817   -9.6044 C   0  0  0  0  0  0  0  0  0  0  0  0
  2  3  1  6  0  0  0
  2  6  1  0  0  0  0
  2  1  1  0  0  0  0
  4  3  2  0  0  0  0
  5  3  1  0  0  0  0
  6  7  2  0  0  0  0
  8  7  1  6  0  0  0
  8  9  1  0  0  0  0
  8 10  1  0  0  0  0
 11 10  1  6  0  0  0
 11 13  1  0  0  0  0
 12 11  1  0  0  0  0
 12 17  1  0  0  0  0
 13 14  1  1  0  0  0
 13 15  1  0  0  0  0
 15 16  1  1  0  0  0
 17 18  1  6  0  0  0
 17 15  1  0  0  0  0
 18 19  1  0  0  0  0
 20 19  2  0  0  0  0
 21 27  2  0  0  0  0
 21 20  1  0  0  0  0
 22 21  1  0  0  0  0
 23 22  1  0  0  0  0
 24 22  2  0  0  0  0
 24 25  1  0  0  0  0
 25 26  2  0  0  0  0
 26 27  1  0  0  0  0
 27 18  1  0  0  0  0
M  END
>  <CHROM.1>
112.20460095,-134.32164450,-105.98824965,-109.11364271,20.07401595,-114.64701029
3.87598176,-15.23214120,-9.87126416,1.28784026,-0.24986907,-1.60853114

>  <Name>
lig.pdb

>  <RI>
0

>  <Rbt.Current_Directory>
/home/itssahil/PROJECTS/Mol_Feturizer/New_Systems/rnas/4b5r

>  <Rbt.Executable>
rbdock ($Id: //depot/dev/client3/rdock/2013.1/src/exe/rbdock.cxx#4 $)

>  <Rbt.Library>
libRbt.so (2013.1, Build901 2013/11/27)

>  <Rbt.Parameter_File>
/export/apps/rDock/src/rDock_2013.1_src/data/scripts/dock_solv.prm

>  <Rbt.Receptor>
prm/pocket_docking_2.prm

>  <SCORE>
-8.6887

>  <SCORE.INTER>
-10.774

>  <SCORE.INTER.CONST>
1

>  <SCORE.INTER.POLAR>
0

>  <SCORE.INTER.ROT>
6

>  <SCORE.INTER.SOLV>
18.6295

>  <SCORE.INTER.VDW>
-20.9925

>  <SCORE.INTER.norm>
-0.399036

>  <SCORE.INTRA>
1.8204

>  <SCORE.INTRA.DIHEDRAL>
5.70691

>  <SCORE.INTRA.DIHEDRAL.0>
10.2917

>  <SCORE.INTRA.POLAR>
0

>  <SCORE.INTRA.POLAR.0>
0

>  <SCORE.INTRA.REPUL>
0

>  <SCORE.INTRA.REPUL.0>
0

>  <SCORE.INTRA.SOLV>
-1.28889

>  <SCORE.INTRA.SOLV.lig_0>
-39.6315

>  <SCORE.INTRA.VDW>
-0.388614

>  <SCORE.INTRA.VDW.0>
-4.02152

>  <SCORE.INTRA.norm>
0.0674222

>  <SCORE.RESTR>
0.264872

>  <SCORE.RESTR.CAVITY>
0.264872

>  <SCORE.RESTR.norm>
0.00981006

>  <SCORE.SYSTEM>
0

>  <SCORE.SYSTEM.CONST>
0

>  <SCORE.SYSTEM.DIHEDRAL>
0

>  <SCORE.SYSTEM.SOLV>
0

>  <SCORE.SYSTEM.norm>
0

>  <SCORE.heavy>
27

>  <SCORE.norm>
-0.321804

>  <RMSD>
5.167

$$$$
lig.pdb
 OpenBabel11021811493D
libRbt.so/2013.1/901 2013/11/27
 27 29  0  0  0  0  0  0  0  0999 V2000
    3.9777  -14.9156  -12.2749 N   0  0  0  0  0  0  0  0  0  0  0  0
    2.9623  -16.0075  -12.1711 C   0  0  2  0  0  0  0  0  0  0  0  0
    2.1971  -16.1047  -13.4876 C   0  0  0  0  0  0  0  0  0  0  0  0
    0.9954  -16.3445  -13.4720 O   0  0  0  0  0  0  0  0  0  0  0  0
    2.7387  -15.9562  -14.5905 O   0  0  0  0  0  0  0  0  0  0  0  0
    2.0111  -15.8564  -10.9669 C   0  0  0  0  0  0  0  0  0  0  0  0
    1.9748  -17.0311   -9.9543 C   0  0  0  0  0  0  0  0  0  0  0  0
    0.8531  -16.9173   -8.4940 S   0  0  2  0  0  0  0  0  0  0  0  0
   -0.7404  -16.6192   -9.2886 C   0  0  0  0  0  0  0  0  0  0  0  0
    1.1788  -15.2672   -7.8360 C   0  0  0  0  0  0  0  0  0  0  0  0
    2.5605  -15.2333   -7.1962 C   0  0  1  0  0  0  0  0  0  0  0  0
    3.5770  -15.7091   -8.0654 O   0  0  0  0  0  0  0  0  0  0  0  0
    3.0132  -13.8430   -6.8391 C   0  0  1  0  0  0  0  0  0  0  0  0
    2.4025  -13.4275   -5.6515 O   0  0  0  0  0  0  0  0  0  0  0  0
    4.5028  -14.0636   -6.6951 C   0  0  1  0  0  0  0  0  0  0  0  0
    4.7966  -14.5833   -5.4143 O   0  0  0  0  0  0  0  0  0  0  0  0
    4.8253  -15.1214   -7.7445 C   0  0  2  0  0  0  0  0  0  0  0  0
    5.5227  -14.6142   -8.9580 N   0  0  0  0  0  0  0  0  0  0  0  0
    5.3963  -13.3494   -9.4750 C   0  0  0  0  0  0  0  0  0  0  0  0
    6.1723  -13.2406  -10.5765 N   0  0  0  0  0  0  0  0  0  0  0  0
    6.8041  -14.4092  -10.7749 C   0  0  0  0  0  0  0  0  0  0  0  0
    7.7084  -14.8261  -11.7397 C   0  0  0  0  0  0  0  0  0  0  0  0
    8.0970  -13.9948  -12.6976 N   0  0  0  0  0  0  0  0  0  0  0  0
    8.2035  -16.1140  -11.6870 N   0  0  0  0  0  0  0  0  0  0  0  0
    7.8128  -16.9921  -10.6840 C   0  0  0  0  0  0  0  0  0  0  0  0
    6.9163  -16.5575   -9.7290 N   0  0  0  0  0  0  0  0  0  0  0  0
    6.4104  -15.2904   -9.7708 C   0  0  0  0  0  0  0  0  0  0  0  0
  2  3  1  6  0  0  0
  2  6  1  0  0  0  0
  2  1  1  0  0  0  0
  4  3  2  0  0  0  0
  5  3  1  0  0  0  0
  6  7  2  0  0  0  0
  8  7  1  6  0  0  0
  8  9  1  0  0  0  0
  8 10  1  0  0  0  0
 11 10  1  6  0  0  0
 11 13  1  0  0  0  0
 12 11  1  0  0  0  0
 12 17  1  0  0  0  0
 13 14  1  1  0  0  0
 13 15  1  0  0  0  0
 15 16  1  1  0  0  0
 17 18  1  6  0  0  0
 17 15  1  0  0  0  0
 18 19  1  0  0  0  0
 20 19  2  0  0  0  0
 21 27  2  0  0  0  0
 21 20  1  0  0  0  0
 22 21  1  0  0  0  0
 23 22  1  0  0  0  0
 24 22  2  0  0  0  0
 24 25  1  0  0  0  0
 25 26  2  0  0  0  0
 26 27  1  0  0  0  0
 27 18  1  0  0  0  0
M  END
>  <CHROM.1>
-142.09164410,-122.01866063,55.33380987,-71.06700646,52.42591016,90.17255434
3.95454806,-15.35374283,-9.77036225,0.61761905,-0.22761965,-1.78074673

>  <Name>
lig.pdb

>  <RI>
0

>  <Rbt.Current_Directory>
/home/itssahil/PROJECTS/Mol_Feturizer/New_Systems/rnas/4b5r

>  <Rbt.Executable>
rbdock ($Id: //depot/dev/client3/rdock/2013.1/src/exe/rbdock.cxx#4 $)

>  <Rbt.Library>
libRbt.so (2013.1, Build901 2013/11/27)

>  <Rbt.Parameter_File>
/export/apps/rDock/src/rDock_2013.1_src/data/scripts/dock_solv.prm

>  <Rbt.Receptor>
prm/pocket_docking_3.prm

>  <SCORE>
-15.1167

>  <SCORE.INTER>
-15.7098

>  <SCORE.INTER.CONST>
1

>  <SCORE.INTER.POLAR>
0

>  <SCORE.INTER.ROT>
6

>  <SCORE.INTER.SOLV>
13.7868

>  <SCORE.INTER.VDW>
-22.6688

>  <SCORE.INTER.norm>
-0.581846

>  <SCORE.INTRA>
0.59315

>  <SCORE.INTRA.DIHEDRAL>
-1.51626

>  <SCORE.INTRA.DIHEDRAL.0>
10.2917

>  <SCORE.INTRA.POLAR>
0

>  <SCORE.INTRA.POLAR.0>
0

>  <SCORE.INTRA.REPUL>
0

>  <SCORE.INTRA.REPUL.0>
0

>  <SCORE.INTRA.SOLV>
0.741306

>  <SCORE.INTRA.SOLV.lig_0>
-39.6315

>  <SCORE.INTRA.VDW>
0.980625

>  <SCORE.INTRA.VDW.0>
-4.02152

>  <SCORE.INTRA.norm>
0.0219685

>  <SCORE.RESTR>
0

>  <SCORE.RESTR.CAVITY>
0

>  <SCORE.RESTR.norm>
0

>  <SCORE.SYSTEM>
0

>  <SCORE.SYSTEM.CONST>
0

>  <SCORE.SYSTEM.DIHEDRAL>
0

>  <SCORE.SYSTEM.SOLV>
0

>  <SCORE.SYSTEM.norm>
0

>  <SCORE.heavy>
27

>  <SCORE.norm>
-0.559877

>  <RMSD>
5.172

$$$$
lig.pdb
 OpenBabel11021811493D
libRbt.so/2013.1/901 2013/11/27
 27 29  0  0  0  0  0  0  0  0999 V2000
    1.7408  -15.8458  -13.4442 N   0  0  0  0  0  0  0  0  0  0  0  0
    2.6217  -15.7931  -12.2379 C   0  0  2  0  0  0  0  0  0  0  0  0
    3.5357  -17.0149  -12.2333 C   0  0  0  0  0  0  0  0  0  0  0  0
    3.0929  -18.1024  -12.5838 O   0  0  0  0  0  0  0  0  0  0  0  0
    4.7215  -16.9637  -11.8822 O   0  0  0  0  0  0  0  0  0  0  0  0
    1.8479  -15.6532  -10.9115 C   0  0  0  0  0  0  0  0  0  0  0  0
    1.6711  -16.9425  -10.0671 C   0  0  0  0  0  0  0  0  0  0  0  0
    0.7493  -16.8462   -8.4719 S   0  0  2  0  0  0  0  0  0  0  0  0
   -0.9122  -16.4302   -9.0427 C   0  0  0  0  0  0  0  0  0  0  0  0
    1.2461  -15.2492   -7.7903 C   0  0  0  0  0  0  0  0  0  0  0  0
    2.5619  -15.3990   -7.0383 C   0  0  1  0  0  0  0  0  0  0  0  0
    3.5024  -16.2007   -7.7370 O   0  0  0  0  0  0  0  0  0  0  0  0
    3.2809  -14.0920   -6.8378 C   0  0  1  0  0  0  0  0  0  0  0  0
    2.7041  -13.3822   -5.7798 O   0  0  0  0  0  0  0  0  0  0  0  0
    4.6769  -14.5865   -6.5296 C   0  0  1  0  0  0  0  0  0  0  0  0
    4.7751  -14.9506   -5.1677 O   0  0  0  0  0  0  0  0  0  0  0  0
    4.8264  -15.8372   -7.3885 C   0  0  2  0  0  0  0  0  0  0  0  0
    5.6878  -15.6768   -8.5920 N   0  0  0  0  0  0  0  0  0  0  0  0
    6.7609  -16.4705   -8.9108 C   0  0  0  0  0  0  0  0  0  0  0  0
    7.3057  -16.0359  -10.0692 N   0  0  0  0  0  0  0  0  0  0  0  0
    6.5986  -14.9817  -10.5083 C   0  0  0  0  0  0  0  0  0  0  0  0
    6.7232  -14.1812  -11.6335 C   0  0  0  0  0  0  0  0  0  0  0  0
    7.6881  -14.4096  -12.5147 N   0  0  0  0  0  0  0  0  0  0  0  0
    5.8274  -13.1486  -11.8280 N   0  0  0  0  0  0  0  0  0  0  0  0
    4.8063  -12.9041  -10.9185 C   0  0  0  0  0  0  0  0  0  0  0  0
    4.6945  -13.7149   -9.8074 N   0  0  0  0  0  0  0  0  0  0  0  0
    5.5764  -14.7349   -9.5952 C   0  0  0  0  0  0  0  0  0  0  0  0
  2  3  1  1  0  0  0
  2  6  1  0  0  0  0
  2  1  1  0  0  0  0
  4  3  2  0  0  0  0
  5  3  1  0  0  0  0
  6  7  2  0  0  0  0
  8  7  1  6  0  0  0
  8  9  1  0  0  0  0
  8 10  1  0  0  0  0
 11 10  1  6  0  0  0
 11 13  1  0  0  0  0
 12 11  1  0  0  0  0
 12 17  1  0  0  0  0
 13 14  1  1  0  0  0
 13 15  1  0  0  0  0
 15 16  1  1  0  0  0
 17 18  1  6  0  0  0
 17 15  1  0  0  0  0
 18 19  1  0  0  0  0
 20 19  2  0  0  0  0
 21 27  2  0  0  0  0
 21 20  1  0  0  0  0
 22 21  1  0  0  0  0
 23 22  1  0  0  0  0
 24 22  2  0  0  0  0
 24 25  1  0  0  0  0
 25 26  2  0  0  0  0
 26 27  1  0  0  0  0
 27 18  1  0  0  0  0
M  END
>  <CHROM.1>
-39.24759935,101.43370434,65.55862837,-84.41104171,43.28177261,-114.27596475
3.81618222,-15.47965071,-9.51861908,0.76305978,-0.33063000,-1.79332072

>  <Name>
lig.pdb

>  <RI>
0

>  <Rbt.Current_Directory>
/home/itssahil/PROJECTS/Mol_Feturizer/New_Systems/rnas/4b5r

>  <Rbt.Executable>
rbdock ($Id: //depot/dev/client3/rdock/2013.1/src/exe/rbdock.cxx#4 $)

>  <Rbt.Library>
libRbt.so (2013.1, Build901 2013/11/27)

>  <Rbt.Parameter_File>
/export/apps/rDock/src/rDock_2013.1_src/data/scripts/dock_solv.prm

>  <Rbt.Receptor>
prm/pocket_docking_3.prm

>  <SCORE>
-13.0608

>  <SCORE.INTER>
-11.371

>  <SCORE.INTER.CONST>
1

>  <SCORE.INTER.POLAR>
0

>  <SCORE.INTER.ROT>
6

>  <SCORE.INTER.SOLV>
16.2157

>  <SCORE.INTER.VDW>
-20.5859

>  <SCORE.INTER.norm>
-0.421149

>  <SCORE.INTRA>
-1.68978

>  <SCORE.INTRA.DIHEDRAL>
0.45058

>  <SCORE.INTRA.DIHEDRAL.0>
10.2917

>  <SCORE.INTRA.POLAR>
0

>  <SCORE.INTRA.POLAR.0>
0

>  <SCORE.INTRA.REPUL>
0

>  <SCORE.INTRA.REPUL.0>
0

>  <SCORE.INTRA.SOLV>
-2.02291

>  <SCORE.INTRA.SOLV.lig_0>
-39.6315

>  <SCORE.INTRA.VDW>
-0.903616

>  <SCORE.INTRA.VDW.0>
-4.02152

>  <SCORE.INTRA.norm>
-0.0625845

>  <SCORE.RESTR>
0

>  <SCORE.RESTR.CAVITY>
0

>  <SCORE.RESTR.norm>
0

>  <SCORE.SYSTEM>
0

>  <SCORE.SYSTEM.CONST>
0

>  <SCORE.SYSTEM.DIHEDRAL>
0

>  <SCORE.SYSTEM.SOLV>
0

>  <SCORE.SYSTEM.norm>
0

>  <SCORE.heavy>
27

>  <SCORE.norm>
-0.483733

>  <RMSD>
5.174

$$$$
lig.pdb
 OpenBabel11021811493D
libRbt.so/2013.1/901 2013/11/27
 27 29  0  0  0  0  0  0  0  0999 V2000
    5.7254  -11.6701  -13.8462 N   0  0  0  0  0  0  0  0  0  0  0  0
    6.1098  -13.1137  -13.8921 C   0  0  2  0  0  0  0  0  0  0  0  0
    5.9625  -13.6246  -15.3223 C   0  0  0  0  0  0  0  0  0  0  0  0
    6.7909  -14.4070  -15.7730 O   0  0  0  0  0  0  0  0  0  0  0  0
    5.0353  -13.2787  -16.0656 O   0  0  0  0  0  0  0  0  0  0  0  0
    5.3363  -13.9929  -12.8887 C   0  0  0  0  0  0  0  0  0  0  0  0
    4.1574  -14.8269  -13.4554 C   0  0  0  0  0  0  0  0  0  0  0  0
    3.1859  -15.8953  -12.3073 S   0  0  2  0  0  0  0  0  0  0  0  0
    1.6519  -16.1147  -13.2335 C   0  0  0  0  0  0  0  0  0  0  0  0
    2.6138  -14.7446  -11.0383 C   0  0  0  0  0  0  0  0  0  0  0  0
    1.8893  -15.5109   -9.9395 C   0  0  1  0  0  0  0  0  0  0  0  0
    2.6964  -16.5223   -9.3554 O   0  0  0  0  0  0  0  0  0  0  0  0
    1.4976  -14.6440   -8.7732 C   0  0  1  0  0  0  0  0  0  0  0  0
    0.3480  -13.9102   -9.0829 O   0  0  0  0  0  0  0  0  0  0  0  0
    1.2626  -15.6954   -7.7112 C   0  0  1  0  0  0  0  0  0  0  0  0
   -0.0312  -16.2466   -7.8494 O   0  0  0  0  0  0  0  0  0  0  0  0
    2.2956  -16.7733   -8.0201 C   0  0  2  0  0  0  0  0  0  0  0  0
    3.4608  -16.8142   -7.0945 N   0  0  0  0  0  0  0  0  0  0  0  0
    4.0636  -17.9554   -6.6282 C   0  0  0  0  0  0  0  0  0  0  0  0
    5.0864  -17.6154   -5.8123 N   0  0  0  0  0  0  0  0  0  0  0  0
    5.1603  -16.2757   -5.7504 C   0  0  0  0  0  0  0  0  0  0  0  0
    6.0193  -15.4213   -5.0762 C   0  0  0  0  0  0  0  0  0  0  0  0
    6.9930  -15.9101   -4.3195 N   0  0  0  0  0  0  0  0  0  0  0  0
    5.8523  -14.0569   -5.2073 N   0  0  0  0  0  0  0  0  0  0  0  0
    4.8430  -13.5312   -6.0040 C   0  0  0  0  0  0  0  0  0  0  0  0
    4.0013  -14.3972   -6.6721 N   0  0  0  0  0  0  0  0  0  0  0  0
    4.1469  -15.7486   -6.5471 C   0  0  0  0  0  0  0  0  0  0  0  0
  2  3  1  6  0  0  0
  2  6  1  0  0  0  0
  2  1  1  0  0  0  0
  4  3  2  0  0  0  0
  5  3  1  0  0  0  0
  6  7  2  0  0  0  0
  8  7  1  6  0  0  0
  8  9  1  0  0  0  0
  8 10  1  0  0  0  0
 11 10  1  6  0  0  0
 11 13  1  0  0  0  0
 12 11  1  0  0  0  0
 12 17  1  0  0  0  0
 13 14  1  6  0  0  0
 13 15  1  0  0  0  0
 15 16  1  6  0  0  0
 17 18  1  1  0  0  0
 17 15  1  0  0  0  0
 18 19  1  0  0  0  0
 20 19  2  0  0  0  0
 21 27  2  0  0  0  0
 21 20  1  0  0  0  0
 22 21  1  0  0  0  0
 23 22  1  0  0  0  0
 24 22  2  0  0  0  0
 24 25  1  0  0  0  0
 25 26  2  0  0  0  0
 26 27  1  0  0  0  0
 27 18  1  0  0  0  0
M  END
>  <CHROM.1>
141.18076036,100.87501544,159.33558490,-175.03408497,56.88973196,-99.85361450
3.84799386,-15.16562948,-9.75834974,-1.47692024,0.28345933,1.76980409

>  <Name>
lig.pdb

>  <RI>
0

>  <Rbt.Current_Directory>
/home/itssahil/PROJECTS/Mol_Feturizer/New_Systems/rnas/4b5r

>  <Rbt.Executable>
rbdock ($Id: //depot/dev/client3/rdock/2013.1/src/exe/rbdock.cxx#4 $)

>  <Rbt.Library>
libRbt.so (2013.1, Build901 2013/11/27)

>  <Rbt.Parameter_File>
/export/apps/rDock/src/rDock_2013.1_src/data/scripts/dock_solv.prm

>  <Rbt.Receptor>
prm/blind_docking_100.prm

>  <SCORE>
-15.5695

>  <SCORE.INTER>
-14.5401

>  <SCORE.INTER.CONST>
1

>  <SCORE.INTER.POLAR>
0

>  <SCORE.INTER.ROT>
6

>  <SCORE.INTER.SOLV>
13.1443

>  <SCORE.INTER.VDW>
-21.6748

>  <SCORE.INTER.norm>
-0.538523

>  <SCORE.INTRA>
-1.0294

>  <SCORE.INTRA.DIHEDRAL>
-2.235

>  <SCORE.INTRA.DIHEDRAL.0>
10.2917

>  <SCORE.INTRA.POLAR>
0

>  <SCORE.INTRA.POLAR.0>
0

>  <SCORE.INTRA.REPUL>
0

>  <SCORE.INTRA.REPUL.0>
0

>  <SCORE.INTRA.SOLV>
-2.74348

>  <SCORE.INTRA.SOLV.lig_0>
-39.6315

>  <SCORE.INTRA.VDW>
1.45984

>  <SCORE.INTRA.VDW.0>
-4.02152

>  <SCORE.INTRA.norm>
-0.0381259

>  <SCORE.RESTR>
0

>  <SCORE.RESTR.CAVITY>
0

>  <SCORE.RESTR.norm>
0

>  <SCORE.SYSTEM>
0

>  <SCORE.SYSTEM.CONST>
0

>  <SCORE.SYSTEM.DIHEDRAL>
0

>  <SCORE.SYSTEM.SOLV>
0

>  <SCORE.SYSTEM.norm>
0

>  <SCORE.heavy>
27

>  <SCORE.norm>
-0.576649

>  <RMSD>
5.177

$$$$
lig.pdb
 OpenBabel11021811493D
libRbt.so/2013.1/901 2013/11/27
 27 29  0  0  0  0  0  0  0  0999 V2000
    6.3748  -16.2632  -15.0865 N   0  0  0  0  0  0  0  0  0  0  0  0
    7.3784  -16.3180  -13.9802 C   0  0  2  0  0  0  0  0  0  0  0  0
    7.2343  -17.6447  -13.2405 C   0  0  0  0  0  0  0  0  0  0  0  0
    8.0222  -18.5544  -13.4718 O   0  0  0  0  0  0  0  0  0  0  0  0
    6.3432  -17.8547  -12.4077 O   0  0  0  0  0  0  0  0  0  0  0  0
    7.3052  -15.1158  -13.0173 C   0  0  0  0  0  0  0  0  0  0  0  0
    6.1019  -14.1527  -13.1935 C   0  0  0  0  0  0  0  0  0  0  0  0
    5.9576  -12.6903  -12.0780 S   0  0  2  0  0  0  0  0  0  0  0  0
    7.3146  -11.6552  -12.6668 C   0  0  0  0  0  0  0  0  0  0  0  0
    6.6696  -13.2705  -10.5230 C   0  0  0  0  0  0  0  0  0  0  0  0
    5.8410  -14.4267   -9.9789 C   0  0  1  0  0  0  0  0  0  0  0  0
    6.4437  -15.0493   -8.8544 O   0  0  0  0  0  0  0  0  0  0  0  0
    4.4895  -13.9993   -9.4729 C   0  0  1  0  0  0  0  0  0  0  0  0
    3.6104  -13.8133  -10.5446 O   0  0  0  0  0  0  0  0  0  0  0  0
    4.1279  -15.1863   -8.6077 C   0  0  1  0  0  0  0  0  0  0  0  0
    3.5985  -16.2265   -9.4043 O   0  0  0  0  0  0  0  0  0  0  0  0
    5.4608  -15.6399   -8.0229 C   0  0  2  0  0  0  0  0  0  0  0  0
    5.6717  -15.2938   -6.5904 N   0  0  0  0  0  0  0  0  0  0  0  0
    5.4677  -14.0556   -6.0353 C   0  0  0  0  0  0  0  0  0  0  0  0
    5.7573  -14.1076   -4.7159 N   0  0  0  0  0  0  0  0  0  0  0  0
    6.1360  -15.3588   -4.4075 C   0  0  0  0  0  0  0  0  0  0  0  0
    6.5237  -15.9459   -3.2127 C   0  0  0  0  0  0  0  0  0  0  0  0
    6.5631  -15.2305   -2.0964 N   0  0  0  0  0  0  0  0  0  0  0  0
    6.8619  -17.2846   -3.1987 N   0  0  0  0  0  0  0  0  0  0  0  0
    6.8159  -18.0481   -4.3583 C   0  0  0  0  0  0  0  0  0  0  0  0
    6.4220  -17.4479   -5.5369 N   0  0  0  0  0  0  0  0  0  0  0  0
    6.0924  -16.1237   -5.5705 C   0  0  0  0  0  0  0  0  0  0  0  0
  2  3  1  1  0  0  0
  2  6  1  0  0  0  0
  2  1  1  0  0  0  0
  4  3  2  0  0  0  0
  5  3  1  0  0  0  0
  6  7  2  0  0  0  0
  8  7  1  6  0  0  0
  8  9  1  0  0  0  0
  8 10  1  0  0  0  0
 11 10  1  1  0  0  0
 11 13  1  0  0  0  0
 12 11  1  0  0  0  0
 12 17  1  0  0  0  0
 13 14  1  6  0  0  0
 13 15  1  0  0  0  0
 15 16  1  6  0  0  0
 17 18  1  1  0  0  0
 17 15  1  0  0  0  0
 18 19  1  0  0  0  0
 20 19  2  0  0  0  0
 21 27  2  0  0  0  0
 21 20  1  0  0  0  0
 22 21  1  0  0  0  0
 23 22  1  0  0  0  0
 24 22  2  0  0  0  0
 24 25  1  0  0  0  0
 25 26  2  0  0  0  0
 26 27  1  0  0  0  0
 27 18  1  0  0  0  0
M  END
>  <CHROM.1>
101.06851657,8.71425422,70.51372610,-62.50738542,172.03087652,70.81292727
6.07657662,-15.30846695,-9.13826773,-1.42118217,-1.28038319,1.79970911

>  <Name>
lig.pdb

>  <RI>
0

>  <Rbt.Current_Directory>
/home/itssahil/PROJECTS/Mol_Feturizer/New_Systems/rnas/4b5r

>  <Rbt.Executable>
rbdock ($Id: //depot/dev/client3/rdock/2013.1/src/exe/rbdock.cxx#4 $)

>  <Rbt.Library>
libRbt.so (2013.1, Build901 2013/11/27)

>  <Rbt.Parameter_File>
/export/apps/rDock/src/rDock_2013.1_src/data/scripts/dock_solv.prm

>  <Rbt.Receptor>
prm/pocket_docking_8.prm

>  <SCORE>
-13.8236

>  <SCORE.INTER>
-13.3101

>  <SCORE.INTER.CONST>
1

>  <SCORE.INTER.POLAR>
0

>  <SCORE.INTER.ROT>
6

>  <SCORE.INTER.SOLV>
11.5748

>  <SCORE.INTER.VDW>
-20.3317

>  <SCORE.INTER.norm>
-0.492967

>  <SCORE.INTRA>
-0.513464

>  <SCORE.INTRA.DIHEDRAL>
-1.46894

>  <SCORE.INTRA.DIHEDRAL.0>
10.2917

>  <SCORE.INTRA.POLAR>
0

>  <SCORE.INTRA.POLAR.0>
0

>  <SCORE.INTRA.REPUL>
0

>  <SCORE.INTRA.REPUL.0>
0

>  <SCORE.INTRA.SOLV>
-2.71146

>  <SCORE.INTRA.SOLV.lig_0>
-39.6315

>  <SCORE.INTRA.VDW>
1.57673

>  <SCORE.INTRA.VDW.0>
-4.02152

>  <SCORE.INTRA.norm>
-0.0190172

>  <SCORE.RESTR>
0

>  <SCORE.RESTR.CAVITY>
0

>  <SCORE.RESTR.norm>
0

>  <SCORE.SYSTEM>
0

>  <SCORE.SYSTEM.CONST>
0

>  <SCORE.SYSTEM.DIHEDRAL>
0

>  <SCORE.SYSTEM.SOLV>
0

>  <SCORE.SYSTEM.norm>
0

>  <SCORE.heavy>
27

>  <SCORE.norm>
-0.511984

>  <RMSD>
5.180

$$$$
lig.pdb
 OpenBabel11021811493D
libRbt.so/2013.1/901 2013/11/27
 27 29  0  0  0  0  0  0  0  0999 V2000
    6.8292  -12.9396  -13.8771 N   0  0  0  0  0  0  0  0  0  0  0  0
    6.2425  -14.0883  -14.6323 C   0  0  2  0  0  0  0  0  0  0  0  0
    5.3661  -13.5497  -15.7592 C   0  0  0  0  0  0  0  0  0  0  0  0
    5.4116  -12.3586  -16.0437 O   0  0  0  0  0  0  0  0  0  0  0  0
    4.5938  -14.2662  -16.4089 O   0  0  0  0  0  0  0  0  0  0  0  0
    5.4781  -15.0891  -13.7423 C   0  0  0  0  0  0  0  0  0  0  0  0
    3.9898  -14.7657  -13.4476 C   0  0  0  0  0  0  0  0  0  0  0  0
    3.0189  -15.9187  -12.3838 S   0  0  2  0  0  0  0  0  0  0  0  0
    1.5612  -16.2100  -13.4083 C   0  0  0  0  0  0  0  0  0  0  0  0
    2.2991  -14.8356  -11.1305 C   0  0  0  0  0  0  0  0  0  0  0  0
    1.4864  -15.6626  -10.1430 C   0  0  1  0  0  0  0  0  0  0  0  0
    2.1861  -16.8098   -9.6852 O   0  0  0  0  0  0  0  0  0  0  0  0
    1.1530  -14.9157   -8.8795 C   0  0  1  0  0  0  0  0  0  0  0  0
    0.0815  -14.0451   -9.1029 O   0  0  0  0  0  0  0  0  0  0  0  0
    0.8023  -16.0651   -7.9608 C   0  0  1  0  0  0  0  0  0  0  0  0
   -0.5335  -16.4718   -8.1775 O   0  0  0  0  0  0  0  0  0  0  0  0
    1.7383  -17.1874   -8.3954 C   0  0  2  0  0  0  0  0  0  0  0  0
    2.8767  -17.4522   -7.4734 N   0  0  0  0  0  0  0  0  0  0  0  0
    3.3162  -18.6951   -7.0925 C   0  0  0  0  0  0  0  0  0  0  0  0
    4.3656  -18.5562   -6.2517 N   0  0  0  0  0  0  0  0  0  0  0  0
    4.6170  -17.2468   -6.0900 C   0  0  0  0  0  0  0  0  0  0  0  0
    5.5744  -16.5672   -5.3524 C   0  0  0  0  0  0  0  0  0  0  0  0
    6.4653  -17.2364   -4.6326 N   0  0  0  0  0  0  0  0  0  0  0  0
    5.5926  -15.1868   -5.3818 N   0  0  0  0  0  0  0  0  0  0  0  0
    4.6719  -14.4733   -6.1388 C   0  0  0  0  0  0  0  0  0  0  0  0
    3.7300  -15.1671   -6.8710 N   0  0  0  0  0  0  0  0  0  0  0  0
    3.6924  -16.5314   -6.8469 C   0  0  0  0  0  0  0  0  0  0  0  0
  2  3  1  6  0  0  0
  2  6  1  0  0  0  0
  2  1  1  0  0  0  0
  4  3  2  0  0  0  0
  5  3  1  0  0  0  0
  6  7  2  0  0  0  0
  8  7  1  6  0  0  0
  8  9  1  0  0  0  0
  8 10  1  0  0  0  0
 11 10  1  6  0  0  0
 11 13  1  0  0  0  0
 12 11  1  0  0  0  0
 12 17  1  0  0  0  0
 13 14  1  6  0  0  0
 13 15  1  0  0  0  0
 15 16  1  6  0  0  0
 17 18  1  1  0  0  0
 17 15  1  0  0  0  0
 18 19  1  0  0  0  0
 20 19  2  0  0  0  0
 21 27  2  0  0  0  0
 21 20  1  0  0  0  0
 22 21  1  0  0  0  0
 23 22  1  0  0  0  0
 24 22  2  0  0  0  0
 24 25  1  0  0  0  0
 25 26  2  0  0  0  0
 26 27  1  0  0  0  0
 27 18  1  0  0  0  0
M  END
>  <CHROM.1>
11.41238989,85.76753621,-128.77750896,-178.51514996,47.50555276,-103.67952987
3.49855009,-15.62578782,-10.02838241,-1.44389141,0.15976223,1.85835429

>  <Name>
lig.pdb

>  <RI>
0

>  <Rbt.Current_Directory>
/home/itssahil/PROJECTS/Mol_Feturizer/New_Systems/rnas/4b5r

>  <Rbt.Executable>
rbdock ($Id: //depot/dev/client3/rdock/2013.1/src/exe/rbdock.cxx#4 $)

>  <Rbt.Library>
libRbt.so (2013.1, Build901 2013/11/27)

>  <Rbt.Parameter_File>
/export/apps/rDock/src/rDock_2013.1_src/data/scripts/dock_solv.prm

>  <Rbt.Receptor>
prm/blind_docking_60.prm

>  <SCORE>
-15.1009

>  <SCORE.INTER>
-15.8154

>  <SCORE.INTER.CONST>
1

>  <SCORE.INTER.POLAR>
0

>  <SCORE.INTER.ROT>
6

>  <SCORE.INTER.SOLV>
11.038

>  <SCORE.INTER.VDW>
-21.8229

>  <SCORE.INTER.norm>
-0.585755

>  <SCORE.INTRA>
0.714524

>  <SCORE.INTRA.DIHEDRAL>
0.682827

>  <SCORE.INTRA.DIHEDRAL.0>
10.2917

>  <SCORE.INTRA.POLAR>
0

>  <SCORE.INTRA.POLAR.0>
0

>  <SCORE.INTRA.REPUL>
0

>  <SCORE.INTRA.REPUL.0>
0

>  <SCORE.INTRA.SOLV>
-2.52606

>  <SCORE.INTRA.SOLV.lig_0>
-39.6315

>  <SCORE.INTRA.VDW>
1.63614

>  <SCORE.INTRA.VDW.0>
-4.02152

>  <SCORE.INTRA.norm>
0.0264638

>  <SCORE.RESTR>
0

>  <SCORE.RESTR.CAVITY>
0

>  <SCORE.RESTR.norm>
0

>  <SCORE.SYSTEM>
0

>  <SCORE.SYSTEM.CONST>
0

>  <SCORE.SYSTEM.DIHEDRAL>
0

>  <SCORE.SYSTEM.SOLV>
0

>  <SCORE.SYSTEM.norm>
0

>  <SCORE.heavy>
27

>  <SCORE.norm>
-0.559291

>  <RMSD>
5.186

$$$$
lig.pdb
 OpenBabel11021811493D
libRbt.so/2013.1/901 2013/11/27
 27 29  0  0  0  0  0  0  0  0999 V2000
    7.9374  -15.5318  -11.5453 N   0  0  0  0  0  0  0  0  0  0  0  0
    6.7409  -14.6688  -11.7853 C   0  0  2  0  0  0  0  0  0  0  0  0
    6.2831  -14.0696  -10.4589 C   0  0  0  0  0  0  0  0  0  0  0  0
    6.7678  -14.4801   -9.4109 O   0  0  0  0  0  0  0  0  0  0  0  0
    5.4281  -13.1778  -10.3856 O   0  0  0  0  0  0  0  0  0  0  0  0
    5.5903  -15.3936  -12.5125 C   0  0  0  0  0  0  0  0  0  0  0  0
    4.3961  -15.8595  -11.6387 C   0  0  0  0  0  0  0  0  0  0  0  0
    2.9888  -16.7387  -12.4450 S   0  0  2  0  0  0  0  0  0  0  0  0
    2.8237  -15.8131  -13.9863 C   0  0  0  0  0  0  0  0  0  0  0  0
    1.5399  -16.1206  -11.5617 C   0  0  0  0  0  0  0  0  0  0  0  0
    1.3907  -16.8609  -10.2391 C   0  0  1  0  0  0  0  0  0  0  0  0
    2.5480  -16.7605   -9.4231 O   0  0  0  0  0  0  0  0  0  0  0  0
    0.2902  -16.3091   -9.3732 C   0  0  1  0  0  0  0  0  0  0  0  0
   -0.9523  -16.7674   -9.8227 O   0  0  0  0  0  0  0  0  0  0  0  0
    0.6819  -16.8791   -8.0279 C   0  0  1  0  0  0  0  0  0  0  0  0
    0.2254  -18.2114   -7.9118 O   0  0  0  0  0  0  0  0  0  0  0  0
    2.2063  -16.8786   -8.0535 C   0  0  2  0  0  0  0  0  0  0  0  0
    2.8507  -15.8173   -7.2322 N   0  0  0  0  0  0  0  0  0  0  0  0
    2.2739  -14.6206   -6.8885 C   0  0  0  0  0  0  0  0  0  0  0  0
    3.1446  -13.9070   -6.1401 N   0  0  0  0  0  0  0  0  0  0  0  0
    4.2694  -14.6249   -5.9871 C   0  0  0  0  0  0  0  0  0  0  0  0
    5.4529  -14.3676   -5.3120 C   0  0  0  0  0  0  0  0  0  0  0  0
    5.6152  -13.2267   -4.6551 N   0  0  0  0  0  0  0  0  0  0  0  0
    6.4566  -15.3158   -5.3271 N   0  0  0  0  0  0  0  0  0  0  0  0
    6.2966  -16.5189   -6.0029 C   0  0  0  0  0  0  0  0  0  0  0  0
    5.1095  -16.7596   -6.6642 N   0  0  0  0  0  0  0  0  0  0  0  0
    4.1100  -15.8300   -6.6667 C   0  0  0  0  0  0  0  0  0  0  0  0
  2  3  1  1  0  0  0
  2  6  1  0  0  0  0
  2  1  1  0  0  0  0
  4  3  2  0  0  0  0
  5  3  1  0  0  0  0
  6  7  2  0  0  0  0
  8  7  1  1  0  0  0
  8  9  1  0  0  0  0
  8 10  1  0  0  0  0
 11 10  1  6  0  0  0
 11 13  1  0  0  0  0
 12 11  1  0  0  0  0
 12 17  1  0  0  0  0
 13 14  1  6  0  0  0
 13 15  1  0  0  0  0
 15 16  1  6  0  0  0
 17 18  1  1  0  0  0
 17 15  1  0  0  0  0
 18 19  1  0  0  0  0
 20 19  2  0  0  0  0
 21 27  2  0  0  0  0
 21 20  1  0  0  0  0
 22 21  1  0  0  0  0
 23 22  1  0  0  0  0
 24 22  2  0  0  0  0
 24 25  1  0  0  0  0
 25 26  2  0  0  0  0
 26 27  1  0  0  0  0
 27 18  1  0  0  0  0
M  END
>  <CHROM.1>
-10.26764591,102.11819813,-39.62882872,-80.41540648,56.59158729,94.33081339
3.71538179,-15.68032652,-9.08527006,-2.07802977,0.36185917,1.48791353

>  <Name>
lig.pdb

>  <RI>
0

>  <Rbt.Current_Directory>
/home/itssahil/PROJECTS/Mol_Feturizer/New_Systems/rnas/4b5r

>  <Rbt.Executable>
rbdock ($Id: //depot/dev/client3/rdock/2013.1/src/exe/rbdock.cxx#4 $)

>  <Rbt.Library>
libRbt.so (2013.1, Build901 2013/11/27)

>  <Rbt.Parameter_File>
/export/apps/rDock/src/rDock_2013.1_src/data/scripts/dock_solv.prm

>  <Rbt.Receptor>
prm/pocket_docking_2.prm

>  <SCORE>
-11.5653

>  <SCORE.INTER>
-11.5569

>  <SCORE.INTER.CONST>
1

>  <SCORE.INTER.POLAR>
0

>  <SCORE.INTER.ROT>
6

>  <SCORE.INTER.SOLV>
15.3393

>  <SCORE.INTER.VDW>
-20.4177

>  <SCORE.INTER.norm>
-0.428034

>  <SCORE.INTRA>
-0.551365

>  <SCORE.INTRA.DIHEDRAL>
-2.53103

>  <SCORE.INTRA.DIHEDRAL.0>
10.2917

>  <SCORE.INTRA.POLAR>
0

>  <SCORE.INTRA.POLAR.0>
0

>  <SCORE.INTRA.REPUL>
0

>  <SCORE.INTRA.REPUL.0>
0

>  <SCORE.INTRA.SOLV>
-2.83793

>  <SCORE.INTRA.SOLV.lig_0>
-39.6315

>  <SCORE.INTRA.VDW>
2.13311

>  <SCORE.INTRA.VDW.0>
-4.02152

>  <SCORE.INTRA.norm>
-0.0204209

>  <SCORE.RESTR>
0.543012

>  <SCORE.RESTR.CAVITY>
0.543012

>  <SCORE.RESTR.norm>
0.0201116

>  <SCORE.SYSTEM>
0

>  <SCORE.SYSTEM.CONST>
0

>  <SCORE.SYSTEM.DIHEDRAL>
0

>  <SCORE.SYSTEM.SOLV>
0

>  <SCORE.SYSTEM.norm>
0

>  <SCORE.heavy>
27

>  <SCORE.norm>
-0.428344

>  <RMSD>
5.188

$$$$
lig.pdb
 OpenBabel11021811493D
libRbt.so/2013.1/901 2013/11/27
 27 29  0  0  0  0  0  0  0  0999 V2000
    5.9232  -11.7988  -14.2847 N   0  0  0  0  0  0  0  0  0  0  0  0
    6.0727  -13.2844  -14.3526 C   0  0  2  0  0  0  0  0  0  0  0  0
    5.5507  -13.7778  -15.6988 C   0  0  0  0  0  0  0  0  0  0  0  0
    5.6947  -14.9547  -16.0084 O   0  0  0  0  0  0  0  0  0  0  0  0
    4.9837  -13.0356  -16.5109 O   0  0  0  0  0  0  0  0  0  0  0  0
    5.4104  -14.0281  -13.1753 C   0  0  0  0  0  0  0  0  0  0  0  0
    4.1781  -14.9088  -13.5107 C   0  0  0  0  0  0  0  0  0  0  0  0
    3.3342  -15.8207  -12.1469 S   0  0  2  0  0  0  0  0  0  0  0  0
    1.6460  -15.9272  -12.7779 C   0  0  0  0  0  0  0  0  0  0  0  0
    3.1044  -14.5616  -10.8728 C   0  0  0  0  0  0  0  0  0  0  0  0
    2.3090  -15.1448   -9.7123 C   0  0  1  0  0  0  0  0  0  0  0  0
    2.9538  -16.2586   -9.1130 O   0  0  0  0  0  0  0  0  0  0  0  0
    2.1281  -14.1774   -8.5736 C   0  0  1  0  0  0  0  0  0  0  0  0
    1.1106  -13.2657   -8.8730 O   0  0  0  0  0  0  0  0  0  0  0  0
    1.7628  -15.1285   -7.4555 C   0  0  1  0  0  0  0  0  0  0  0  0
    0.3879  -15.4487   -7.5180 O   0  0  0  0  0  0  0  0  0  0  0  0
    2.5773  -16.3825   -7.7530 C   0  0  2  0  0  0  0  0  0  0  0  0
    3.7589  -16.5912   -6.8718 N   0  0  0  0  0  0  0  0  0  0  0  0
    4.3272  -17.8060   -6.5817 C   0  0  0  0  0  0  0  0  0  0  0  0
    5.3788  -17.6176   -5.7535 N   0  0  0  0  0  0  0  0  0  0  0  0
    5.5050  -16.3026   -5.5107 C   0  0  0  0  0  0  0  0  0  0  0  0
    6.4097  -15.5797   -4.7482 C   0  0  0  0  0  0  0  0  0  0  0  0
    7.3794  -16.2017   -4.0907 N   0  0  0  0  0  0  0  0  0  0  0  0
    6.2921  -14.2052   -4.6871 N   0  0  0  0  0  0  0  0  0  0  0  0
    5.2874  -13.5399   -5.3782 C   0  0  0  0  0  0  0  0  0  0  0  0
    4.3998  -14.2757   -6.1367 N   0  0  0  0  0  0  0  0  0  0  0  0
    4.4962  -15.6357   -6.2016 C   0  0  0  0  0  0  0  0  0  0  0  0
  2  3  1  6  0  0  0
  2  6  1  0  0  0  0
  2  1  1  0  0  0  0
  4  3  2  0  0  0  0
  5  3  1  0  0  0  0
  6  7  2  0  0  0  0
  8  7  1  6  0  0  0
  8  9  1  0  0  0  0
  8 10  1  0  0  0  0
 11 10  1  6  0  0  0
 11 13  1  0  0  0  0
 12 11  1  0  0  0  0
 12 17  1  0  0  0  0
 13 14  1  6  0  0  0
 13 15  1  0  0  0  0
 15 16  1  6  0  0  0
 17 18  1  1  0  0  0
 17 15  1  0  0  0  0
 18 19  1  0  0  0  0
 20 19  2  0  0  0  0
 21 27  2  0  0  0  0
 21 20  1  0  0  0  0
 22 21  1  0  0  0  0
 23 22  1  0  0  0  0
 24 22  2  0  0  0  0
 24 25  1  0  0  0  0
 25 26  2  0  0  0  0
 26 27  1  0  0  0  0
 27 18  1  0  0  0  0
M  END
>  <CHROM.1>
173.31545963,112.56911655,151.78888332,175.43360575,59.83886450,-86.73083546
4.06906734,-15.04852231,-9.63315768,-1.56515914,0.17384647,1.75781564

>  <Name>
lig.pdb

>  <RI>
0

>  <Rbt.Current_Directory>
/home/itssahil/PROJECTS/Mol_Feturizer/New_Systems/rnas/4b5r

>  <Rbt.Executable>
rbdock ($Id: //depot/dev/client3/rdock/2013.1/src/exe/rbdock.cxx#4 $)

>  <Rbt.Library>
libRbt.so (2013.1, Build901 2013/11/27)

>  <Rbt.Parameter_File>
/export/apps/rDock/src/rDock_2013.1_src/data/scripts/dock_solv.prm

>  <Rbt.Receptor>
prm/blind_docking_100.prm

>  <SCORE>
-15.1681

>  <SCORE.INTER>
-14.4113

>  <SCORE.INTER.CONST>
1

>  <SCORE.INTER.POLAR>
0

>  <SCORE.INTER.ROT>
6

>  <SCORE.INTER.SOLV>
13.5618

>  <SCORE.INTER.VDW>
-21.7282

>  <SCORE.INTER.norm>
-0.533753

>  <SCORE.INTRA>
-0.756789

>  <SCORE.INTRA.DIHEDRAL>
-3.31711

>  <SCORE.INTRA.DIHEDRAL.0>
10.2917

>  <SCORE.INTRA.POLAR>
0

>  <SCORE.INTRA.POLAR.0>
0

>  <SCORE.INTRA.REPUL>
0

>  <SCORE.INTRA.REPUL.0>
0

>  <SCORE.INTRA.SOLV>
-2.68437

>  <SCORE.INTRA.SOLV.lig_0>
-39.6315

>  <SCORE.INTRA.VDW>
2.24395

>  <SCORE.INTRA.VDW.0>
-4.02152

>  <SCORE.INTRA.norm>
-0.0280292

>  <SCORE.RESTR>
0

>  <SCORE.RESTR.CAVITY>
0

>  <SCORE.RESTR.norm>
0

>  <SCORE.SYSTEM>
0

>  <SCORE.SYSTEM.CONST>
0

>  <SCORE.SYSTEM.DIHEDRAL>
0

>  <SCORE.SYSTEM.SOLV>
0

>  <SCORE.SYSTEM.norm>
0

>  <SCORE.heavy>
27

>  <SCORE.norm>
-0.561782

>  <RMSD>
5.190

$$$$
lig.pdb
 OpenBabel11021811493D
libRbt.so/2013.1/901 2013/11/27
 27 29  0  0  0  0  0  0  0  0999 V2000
    3.2427  -20.0430  -10.5641 N   0  0  0  0  0  0  0  0  0  0  0  0
    4.3581  -19.0712  -10.7777 C   0  0  2  0  0  0  0  0  0  0  0  0
    5.1538  -18.9318   -9.4833 C   0  0  0  0  0  0  0  0  0  0  0  0
    5.5182  -19.9381   -8.8864 O   0  0  0  0  0  0  0  0  0  0  0  0
    5.4508  -17.8345   -8.9937 O   0  0  0  0  0  0  0  0  0  0  0  0
    3.8927  -17.7020  -11.3128 C   0  0  0  0  0  0  0  0  0  0  0  0
    2.4128  -17.5959  -11.7658 C   0  0  0  0  0  0  0  0  0  0  0  0
    1.7928  -15.9872  -12.4225 S   0  0  2  0  0  0  0  0  0  0  0  0
    3.0081  -15.6333  -13.7098 C   0  0  0  0  0  0  0  0  0  0  0  0
    2.3135  -14.7901  -11.1745 C   0  0  0  0  0  0  0  0  0  0  0  0
    1.5453  -15.0296   -9.8815 C   0  0  1  0  0  0  0  0  0  0  0  0
    1.6867  -16.3574   -9.3997 O   0  0  0  0  0  0  0  0  0  0  0  0
    2.0300  -14.1781   -8.7389 C   0  0  1  0  0  0  0  0  0  0  0  0
    1.5210  -12.8807   -8.8551 O   0  0  0  0  0  0  0  0  0  0  0  0
    1.4569  -14.9376   -7.5629 C   0  0  1  0  0  0  0  0  0  0  0  0
    0.1027  -14.5837   -7.3678 O   0  0  0  0  0  0  0  0  0  0  0  0
    1.5299  -16.3986   -7.9925 C   0  0  2  0  0  0  0  0  0  0  0  0
    2.6067  -17.1944   -7.3420 N   0  0  0  0  0  0  0  0  0  0  0  0
    2.6059  -18.5587   -7.1947 C   0  0  0  0  0  0  0  0  0  0  0  0
    3.7384  -18.9373   -6.5610 N   0  0  0  0  0  0  0  0  0  0  0  0
    4.4741  -17.8433   -6.3044 C   0  0  0  0  0  0  0  0  0  0  0  0
    5.7068  -17.6733   -5.6928 C   0  0  0  0  0  0  0  0  0  0  0  0
    6.3791  -18.7222   -5.2373 N   0  0  0  0  0  0  0  0  0  0  0  0
    6.2278  -16.4005   -5.5697 N   0  0  0  0  0  0  0  0  0  0  0  0
    5.5391  -15.2941   -6.0507 C   0  0  0  0  0  0  0  0  0  0  0  0
    4.3163  -15.4835   -6.6617 N   0  0  0  0  0  0  0  0  0  0  0  0
    3.7826  -16.7338   -6.7843 C   0  0  0  0  0  0  0  0  0  0  0  0
  2  3  1  1  0  0  0
  2  6  1  0  0  0  0
  2  1  1  0  0  0  0
  4  3  2  0  0  0  0
  5  3  1  0  0  0  0
  6  7  2  0  0  0  0
  8  7  1  1  0  0  0
  8  9  1  0  0  0  0
  8 10  1  0  0  0  0
 11 10  1  6  0  0  0
 11 13  1  0  0  0  0
 12 11  1  0  0  0  0
 12 17  1  0  0  0  0
 13 14  1  6  0  0  0
 13 15  1  0  0  0  0
 15 16  1  6  0  0  0
 17 18  1  1  0  0  0
 17 15  1  0  0  0  0
 18 19  1  0  0  0  0
 20 19  2  0  0  0  0
 21 27  2  0  0  0  0
 21 20  1  0  0  0  0
 22 21  1  0  0  0  0
 23 22  1  0  0  0  0
 24 22  2  0  0  0  0
 24 25  1  0  0  0  0
 25 26  2  0  0  0  0
 26 27  1  0  0  0  0
 27 18  1  0  0  0  0
M  END
>  <CHROM.1>
48.64997737,-9.56843622,52.95117892,-67.58144877,55.95385050,-84.09052240
3.31698850,-16.77344126,-8.81763156,2.53229861,0.88579219,-1.97079326

>  <Name>
lig.pdb

>  <RI>
0

>  <Rbt.Current_Directory>
/home/itssahil/PROJECTS/Mol_Feturizer/New_Systems/rnas/4b5r

>  <Rbt.Executable>
rbdock ($Id: //depot/dev/client3/rdock/2013.1/src/exe/rbdock.cxx#4 $)

>  <Rbt.Library>
libRbt.so (2013.1, Build901 2013/11/27)

>  <Rbt.Parameter_File>
/export/apps/rDock/src/rDock_2013.1_src/data/scripts/dock_solv.prm

>  <Rbt.Receptor>
prm/pocket_docking_5.prm

>  <SCORE>
-16.9842

>  <SCORE.INTER>
-15.268

>  <SCORE.INTER.CONST>
1

>  <SCORE.INTER.POLAR>
0

>  <SCORE.INTER.ROT>
6

>  <SCORE.INTER.SOLV>
15.1603

>  <SCORE.INTER.VDW>
-22.8321

>  <SCORE.INTER.norm>
-0.565481

>  <SCORE.INTRA>
-1.71621

>  <SCORE.INTRA.DIHEDRAL>
-1.48238

>  <SCORE.INTRA.DIHEDRAL.0>
10.2917

>  <SCORE.INTRA.POLAR>
0

>  <SCORE.INTRA.POLAR.0>
0

>  <SCORE.INTRA.REPUL>
0

>  <SCORE.INTRA.REPUL.0>
0

>  <SCORE.INTRA.SOLV>
-0.509866

>  <SCORE.INTRA.SOLV.lig_0>
-39.6315

>  <SCORE.INTRA.VDW>
-0.720086

>  <SCORE.INTRA.VDW.0>
-4.02152

>  <SCORE.INTRA.norm>
-0.0635632

>  <SCORE.RESTR>
0

>  <SCORE.RESTR.CAVITY>
0

>  <SCORE.RESTR.norm>
0

>  <SCORE.SYSTEM>
0

>  <SCORE.SYSTEM.CONST>
0

>  <SCORE.SYSTEM.DIHEDRAL>
0

>  <SCORE.SYSTEM.SOLV>
0

>  <SCORE.SYSTEM.norm>
0

>  <SCORE.heavy>
27

>  <SCORE.norm>
-0.629044

>  <RMSD>
5.203

$$$$
lig.pdb
 OpenBabel11021811493D
libRbt.so/2013.1/901 2013/11/27
 27 29  0  0  0  0  0  0  0  0999 V2000
    6.1046  -18.2297   -8.0985 N   0  0  0  0  0  0  0  0  0  0  0  0
    5.9592  -16.8880   -7.4562 C   0  0  2  0  0  0  0  0  0  0  0  0
    4.5910  -16.8005   -6.7864 C   0  0  0  0  0  0  0  0  0  0  0  0
    4.0061  -17.8298   -6.4699 O   0  0  0  0  0  0  0  0  0  0  0  0
    4.0294  -15.7239   -6.5468 O   0  0  0  0  0  0  0  0  0  0  0  0
    6.1992  -15.7098   -8.4217 C   0  0  0  0  0  0  0  0  0  0  0  0
    6.8466  -16.0493   -9.7899 C   0  0  0  0  0  0  0  0  0  0  0  0
    7.1674  -14.6848  -10.9895 S   0  0  2  0  0  0  0  0  0  0  0  0
    7.6248  -13.3343   -9.8821 C   0  0  0  0  0  0  0  0  0  0  0  0
    5.5125  -14.1408  -11.4661 C   0  0  0  0  0  0  0  0  0  0  0  0
    4.8543  -15.2024  -12.3374 C   0  0  1  0  0  0  0  0  0  0  0  0
    4.2236  -16.2207  -11.5754 O   0  0  0  0  0  0  0  0  0  0  0  0
    3.7462  -14.6577  -13.1981 C   0  0  1  0  0  0  0  0  0  0  0  0
    4.2795  -14.0061  -14.3148 O   0  0  0  0  0  0  0  0  0  0  0  0
    3.0134  -15.9336  -13.5492 C   0  0  1  0  0  0  0  0  0  0  0  0
    3.6535  -16.5815  -14.6296 O   0  0  0  0  0  0  0  0  0  0  0  0
    3.1526  -16.7979  -12.3009 C   0  0  2  0  0  0  0  0  0  0  0  0
    1.9222  -16.9093  -11.4703 N   0  0  0  0  0  0  0  0  0  0  0  0
    1.0537  -17.9717  -11.4779 C   0  0  0  0  0  0  0  0  0  0  0  0
    0.0524  -17.7325  -10.6018 N   0  0  0  0  0  0  0  0  0  0  0  0
    0.2634  -16.5392  -10.0225 C   0  0  0  0  0  0  0  0  0  0  0  0
   -0.4437  -15.8336   -9.0609 C   0  0  0  0  0  0  0  0  0  0  0  0
   -1.5552  -16.3382   -8.5417 N   0  0  0  0  0  0  0  0  0  0  0  0
    0.0269  -14.6033   -8.6466 N   0  0  0  0  0  0  0  0  0  0  0  0
    1.1945  -14.0671   -9.1746 C   0  0  0  0  0  0  0  0  0  0  0  0
    1.8879  -14.7866  -10.1265 N   0  0  0  0  0  0  0  0  0  0  0  0
    1.4327  -16.0005  -10.5536 C   0  0  0  0  0  0  0  0  0  0  0  0
  2  3  1  6  0  0  0
  2  6  1  0  0  0  0
  2  1  1  0  0  0  0
  4  3  2  0  0  0  0
  5  3  1  0  0  0  0
  6  7  2  0  0  0  0
  8  7  1  1  0  0  0
  8  9  1  0  0  0  0
  8 10  1  0  0  0  0
 11 10  1  1  0  0  0
 11 13  1  0  0  0  0
 12 11  1  0  0  0  0
 12 17  1  0  0  0  0
 13 14  1  6  0  0  0
 13 15  1  0  0  0  0
 15 16  1  6  0  0  0
 17 18  1  1  0  0  0
 17 15  1  0  0  0  0
 18 19  1  0  0  0  0
 20 19  2  0  0  0  0
 21 27  2  0  0  0  0
 21 20  1  0  0  0  0
 22 21  1  0  0  0  0
 23 22  1  0  0  0  0
 24 22  2  0  0  0  0
 24 25  1  0  0  0  0
 25 26  2  0  0  0  0
 26 27  1  0  0  0  0
 27 18  1  0  0  0  0
M  END
>  <CHROM.1>
22.74899441,-13.00800962,35.85243398,-71.00009342,84.69531004,-140.27620407
3.59176430,-15.84264521,-10.33106777,-0.18822032,0.16247136,1.77104793

>  <Name>
lig.pdb

>  <RI>
0

>  <Rbt.Current_Directory>
/home/itssahil/PROJECTS/Mol_Feturizer/New_Systems/rnas/4b5r

>  <Rbt.Executable>
rbdock ($Id: //depot/dev/client3/rdock/2013.1/src/exe/rbdock.cxx#4 $)

>  <Rbt.Library>
libRbt.so (2013.1, Build901 2013/11/27)

>  <Rbt.Parameter_File>
/export/apps/rDock/src/rDock_2013.1_src/data/scripts/dock_solv.prm

>  <Rbt.Receptor>
prm/pocket_docking_4.prm

>  <SCORE>
-4.88506

>  <SCORE.INTER>
-5.36356

>  <SCORE.INTER.CONST>
1

>  <SCORE.INTER.POLAR>
0

>  <SCORE.INTER.ROT>
6

>  <SCORE.INTER.SOLV>
17.5011

>  <SCORE.INTER.VDW>
-17.0094

>  <SCORE.INTER.norm>
-0.19865

>  <SCORE.INTRA>
0.478501

>  <SCORE.INTRA.DIHEDRAL>
0.363383

>  <SCORE.INTRA.DIHEDRAL.0>
10.2917

>  <SCORE.INTRA.POLAR>
0

>  <SCORE.INTRA.POLAR.0>
0

>  <SCORE.INTRA.REPUL>
0

>  <SCORE.INTRA.REPUL.0>
0

>  <SCORE.INTRA.SOLV>
-2.08773

>  <SCORE.INTRA.SOLV.lig_0>
-39.6315

>  <SCORE.INTRA.VDW>
1.34068

>  <SCORE.INTRA.VDW.0>
-4.02152

>  <SCORE.INTRA.norm>
0.0177223

>  <SCORE.RESTR>
0

>  <SCORE.RESTR.CAVITY>
0

>  <SCORE.RESTR.norm>
0

>  <SCORE.SYSTEM>
0

>  <SCORE.SYSTEM.CONST>
0

>  <SCORE.SYSTEM.DIHEDRAL>
0

>  <SCORE.SYSTEM.SOLV>
0

>  <SCORE.SYSTEM.norm>
0

>  <SCORE.heavy>
27

>  <SCORE.norm>
-0.180928

>  <RMSD>
5.207

$$$$
lig.pdb
 OpenBabel11021811493D
libRbt.so/2013.1/901 2013/11/27
 27 29  0  0  0  0  0  0  0  0999 V2000
    5.7874  -15.0809  -12.4698 N   0  0  0  0  0  0  0  0  0  0  0  0
    5.8775  -14.4599  -11.1133 C   0  0  2  0  0  0  0  0  0  0  0  0
    7.3409  -14.1703  -10.7928 C   0  0  0  0  0  0  0  0  0  0  0  0
    7.6228  -13.2519  -10.0320 O   0  0  0  0  0  0  0  0  0  0  0  0
    8.2748  -14.8241  -11.2747 O   0  0  0  0  0  0  0  0  0  0  0  0
    5.2036  -15.2932  -10.0045 C   0  0  0  0  0  0  0  0  0  0  0  0
    4.2690  -16.4423  -10.4654 C   0  0  0  0  0  0  0  0  0  0  0  0
    3.4258  -17.4741   -9.1894 S   0  0  2  0  0  0  0  0  0  0  0  0
    3.1901  -19.0258  -10.0818 C   0  0  0  0  0  0  0  0  0  0  0  0
    1.7285  -16.8568   -9.1980 C   0  0  0  0  0  0  0  0  0  0  0  0
    1.6512  -15.5567   -8.4086 C   0  0  1  0  0  0  0  0  0  0  0  0
    2.1489  -15.6903   -7.0857 O   0  0  0  0  0  0  0  0  0  0  0  0
    2.4893  -14.4550   -8.9995 C   0  0  1  0  0  0  0  0  0  0  0  0
    1.8319  -13.8835  -10.0936 O   0  0  0  0  0  0  0  0  0  0  0  0
    2.5948  -13.5196   -7.8153 C   0  0  1  0  0  0  0  0  0  0  0  0
    1.4380  -12.7126   -7.7276 O   0  0  0  0  0  0  0  0  0  0  0  0
    2.6415  -14.4507   -6.6089 C   0  0  2  0  0  0  0  0  0  0  0  0
    3.9813  -14.5976   -5.9769 N   0  0  0  0  0  0  0  0  0  0  0  0
    4.6704  -13.5980   -5.3373 C   0  0  0  0  0  0  0  0  0  0  0  0
    5.8471  -14.0881   -4.8871 N   0  0  0  0  0  0  0  0  0  0  0  0
    5.9262  -15.3878   -5.2166 C   0  0  0  0  0  0  0  0  0  0  0  0
    6.9008  -16.3476   -4.9900 C   0  0  0  0  0  0  0  0  0  0  0  0
    8.0082  -16.0351   -4.3300 N   0  0  0  0  0  0  0  0  0  0  0  0
    6.7012  -17.6327   -5.4540 N   0  0  0  0  0  0  0  0  0  0  0  0
    5.5421  -17.9763   -6.1382 C   0  0  0  0  0  0  0  0  0  0  0  0
    4.5806  -17.0090   -6.3492 N   0  0  0  0  0  0  0  0  0  0  0  0
    4.7652  -15.7317   -5.9047 C   0  0  0  0  0  0  0  0  0  0  0  0
  2  3  1  1  0  0  0
  2  6  1  0  0  0  0
  2  1  1  0  0  0  0
  4  3  2  0  0  0  0
  5  3  1  0  0  0  0
  6  7  2  0  0  0  0
  8  7  1  6  0  0  0
  8  9  1  0  0  0  0
  8 10  1  0  0  0  0
 11 10  1  6  0  0  0
 11 13  1  0  0  0  0
 12 11  1  0  0  0  0
 12 17  1  0  0  0  0
 13 14  1  6  0  0  0
 13 15  1  0  0  0  0
 15 16  1  1  0  0  0
 17 18  1  6  0  0  0
 17 15  1  0  0  0  0
 18 19  1  0  0  0  0
 20 19  2  0  0  0  0
 21 27  2  0  0  0  0
 21 20  1  0  0  0  0
 22 21  1  0  0  0  0
 23 22  1  0  0  0  0
 24 22  2  0  0  0  0
 24 25  1  0  0  0  0
 25 26  2  0  0  0  0
 26 27  1  0  0  0  0
 27 18  1  0  0  0  0
M  END
>  <CHROM.1>
152.22343927,-13.71009760,-153.29014608,-78.97909937,-55.21665358,-174.95344105
4.52477609,-15.46975797,-8.10903450,-1.85345481,0.00774919,1.66728493

>  <Name>
lig.pdb

>  <RI>
0

>  <Rbt.Current_Directory>
/home/itssahil/PROJECTS/Mol_Feturizer/New_Systems/rnas/4b5r

>  <Rbt.Executable>
rbdock ($Id: //depot/dev/client3/rdock/2013.1/src/exe/rbdock.cxx#4 $)

>  <Rbt.Library>
libRbt.so (2013.1, Build901 2013/11/27)

>  <Rbt.Parameter_File>
/export/apps/rDock/src/rDock_2013.1_src/data/scripts/dock_solv.prm

>  <Rbt.Receptor>
prm/pocket_docking_3.prm

>  <SCORE>
-11.8352

>  <SCORE.INTER>
-11.0759

>  <SCORE.INTER.CONST>
1

>  <SCORE.INTER.POLAR>
0

>  <SCORE.INTER.ROT>
6

>  <SCORE.INTER.SOLV>
12.456

>  <SCORE.INTER.VDW>
-19.136

>  <SCORE.INTER.norm>
-0.410219

>  <SCORE.INTRA>
-0.792161

>  <SCORE.INTRA.DIHEDRAL>
-1.27419

>  <SCORE.INTRA.DIHEDRAL.0>
10.2917

>  <SCORE.INTRA.POLAR>
0

>  <SCORE.INTRA.POLAR.0>
0

>  <SCORE.INTRA.REPUL>
0.0386554

>  <SCORE.INTRA.REPUL.0>
0

>  <SCORE.INTRA.SOLV>
-1.18675

>  <SCORE.INTRA.SOLV.lig_0>
-39.6315

>  <SCORE.INTRA.VDW>
0.245029

>  <SCORE.INTRA.VDW.0>
-4.02152

>  <SCORE.INTRA.norm>
-0.0293393

>  <SCORE.RESTR>
0.0328685

>  <SCORE.RESTR.CAVITY>
0.0328685

>  <SCORE.RESTR.norm>
0.00121735

>  <SCORE.SYSTEM>
0

>  <SCORE.SYSTEM.CONST>
0

>  <SCORE.SYSTEM.DIHEDRAL>
0

>  <SCORE.SYSTEM.SOLV>
0

>  <SCORE.SYSTEM.norm>
0

>  <SCORE.heavy>
27

>  <SCORE.norm>
-0.438341

>  <RMSD>
5.208

$$$$
lig.pdb
 OpenBabel11021811493D
libRbt.so/2013.1/901 2013/11/27
 27 29  0  0  0  0  0  0  0  0999 V2000
    1.9402  -14.9805  -11.5170 N   0  0  0  0  0  0  0  0  0  0  0  0
    3.1566  -15.3439  -12.3060 C   0  0  2  0  0  0  0  0  0  0  0  0
    2.7280  -15.8457  -13.6817 C   0  0  0  0  0  0  0  0  0  0  0  0
    1.6410  -16.3961  -13.8127 O   0  0  0  0  0  0  0  0  0  0  0  0
    3.4372  -15.7279  -14.6892 O   0  0  0  0  0  0  0  0  0  0  0  0
    4.0797  -16.3519  -11.5920 C   0  0  0  0  0  0  0  0  0  0  0  0
    3.4928  -17.0809  -10.3548 C   0  0  0  0  0  0  0  0  0  0  0  0
    4.5469  -18.2951   -9.4503 S   0  0  2  0  0  0  0  0  0  0  0  0
    3.5674  -19.8040   -9.6034 C   0  0  0  0  0  0  0  0  0  0  0  0
    4.2428  -17.9095   -7.7123 C   0  0  0  0  0  0  0  0  0  0  0  0
    4.7639  -16.5135   -7.3975 C   0  0  1  0  0  0  0  0  0  0  0  0
    6.0757  -16.2950   -7.8945 O   0  0  0  0  0  0  0  0  0  0  0  0
    3.9499  -15.4203   -8.0359 C   0  0  1  0  0  0  0  0  0  0  0  0
    2.7802  -15.1992   -7.3018 O   0  0  0  0  0  0  0  0  0  0  0  0
    4.9252  -14.2664   -7.9603 C   0  0  1  0  0  0  0  0  0  0  0  0
    4.8794  -13.6731   -6.6785 O   0  0  0  0  0  0  0  0  0  0  0  0
    6.2892  -14.9191   -8.1552 C   0  0  2  0  0  0  0  0  0  0  0  0
    6.9073  -14.7020   -9.4920 N   0  0  0  0  0  0  0  0  0  0  0  0
    7.3188  -13.4906   -9.9882 C   0  0  0  0  0  0  0  0  0  0  0  0
    7.8309  -13.6691  -11.2265 N   0  0  0  0  0  0  0  0  0  0  0  0
    7.7655  -14.9746  -11.5350 C   0  0  0  0  0  0  0  0  0  0  0  0
    8.1568  -15.6859  -12.6591 C   0  0  0  0  0  0  0  0  0  0  0  0
    8.7159  -15.0605  -13.6867 N   0  0  0  0  0  0  0  0  0  0  0  0
    7.9631  -17.0527  -12.6925 N   0  0  0  0  0  0  0  0  0  0  0  0
    7.3878  -17.7219  -11.6197 C   0  0  0  0  0  0  0  0  0  0  0  0
    7.0099  -16.9980  -10.5071 N   0  0  0  0  0  0  0  0  0  0  0  0
    7.1864  -15.6453  -10.4606 C   0  0  0  0  0  0  0  0  0  0  0  0
  2  3  1  6  0  0  0
  2  6  1  0  0  0  0
  2  1  1  0  0  0  0
  4  3  2  0  0  0  0
  5  3  1  0  0  0  0
  6  7  2  0  0  0  0
  8  7  1  6  0  0  0
  8  9  1  0  0  0  0
  8 10  1  0  0  0  0
 11 10  1  6  0  0  0
 11 13  1  0  0  0  0
 12 11  1  0  0  0  0
 12 17  1  0  0  0  0
 13 14  1  1  0  0  0
 13 15  1  0  0  0  0
 15 16  1  1  0  0  0
 17 18  1  6  0  0  0
 17 15  1  0  0  0  0
 18 19  1  0  0  0  0
 20 19  2  0  0  0  0
 21 27  2  0  0  0  0
 21 20  1  0  0  0  0
 22 21  1  0  0  0  0
 23 22  1  0  0  0  0
 24 22  2  0  0  0  0
 24 25  1  0  0  0  0
 25 26  2  0  0  0  0
 26 27  1  0  0  0  0
 27 18  1  0  0  0  0
M  END
>  <CHROM.1>
-29.17375299,13.47432171,-120.42540542,-65.07449523,-47.30146751,-175.18773507
5.19055304,-16.01237071,-10.37021848,1.33194453,-0.33016008,-1.62329702

>  <Name>
lig.pdb

>  <RI>
0

>  <Rbt.Current_Directory>
/home/itssahil/PROJECTS/Mol_Feturizer/New_Systems/rnas/4b5r

>  <Rbt.Executable>
rbdock ($Id: //depot/dev/client3/rdock/2013.1/src/exe/rbdock.cxx#4 $)

>  <Rbt.Library>
libRbt.so (2013.1, Build901 2013/11/27)

>  <Rbt.Parameter_File>
/export/apps/rDock/src/rDock_2013.1_src/data/scripts/dock_solv.prm

>  <Rbt.Receptor>
prm/pocket_docking_4.prm

>  <SCORE>
-8.91059

>  <SCORE.INTER>
-8.26214

>  <SCORE.INTER.CONST>
1

>  <SCORE.INTER.POLAR>
0

>  <SCORE.INTER.ROT>
6

>  <SCORE.INTER.SOLV>
13.6888

>  <SCORE.INTER.VDW>
-17.671

>  <SCORE.INTER.norm>
-0.306005

>  <SCORE.INTRA>
-0.648446

>  <SCORE.INTRA.DIHEDRAL>
-0.829935

>  <SCORE.INTRA.DIHEDRAL.0>
10.2917

>  <SCORE.INTRA.POLAR>
0

>  <SCORE.INTRA.POLAR.0>
0

>  <SCORE.INTRA.REPUL>
0.0417691

>  <SCORE.INTRA.REPUL.0>
0

>  <SCORE.INTRA.SOLV>
-0.360781

>  <SCORE.INTRA.SOLV.lig_0>
-39.6315

>  <SCORE.INTRA.VDW>
-0.261933

>  <SCORE.INTRA.VDW.0>
-4.02152

>  <SCORE.INTRA.norm>
-0.0240165

>  <SCORE.RESTR>
0

>  <SCORE.RESTR.CAVITY>
0

>  <SCORE.RESTR.norm>
0

>  <SCORE.SYSTEM>
0

>  <SCORE.SYSTEM.CONST>
0

>  <SCORE.SYSTEM.DIHEDRAL>
0

>  <SCORE.SYSTEM.SOLV>
0

>  <SCORE.SYSTEM.norm>
0

>  <SCORE.heavy>
27

>  <SCORE.norm>
-0.330022

>  <RMSD>
5.209

$$$$
lig.pdb
 OpenBabel11021811493D
libRbt.so/2013.1/901 2013/11/27
 27 29  0  0  0  0  0  0  0  0999 V2000
    4.5541  -18.4494   -7.8525 N   0  0  0  0  0  0  0  0  0  0  0  0
    5.7292  -17.5523   -7.6325 C   0  0  2  0  0  0  0  0  0  0  0  0
    5.3427  -16.4563   -6.6438 C   0  0  0  0  0  0  0  0  0  0  0  0
    6.2097  -15.9286   -5.9571 O   0  0  0  0  0  0  0  0  0  0  0  0
    4.1766  -16.0698   -6.4934 O   0  0  0  0  0  0  0  0  0  0  0  0
    6.3143  -16.9675   -8.9339 C   0  0  0  0  0  0  0  0  0  0  0  0
    6.3289  -15.4214   -9.0598 C   0  0  0  0  0  0  0  0  0  0  0  0
    7.0095  -14.6566  -10.5945 S   0  0  2  0  0  0  0  0  0  0  0  0
    7.5907  -13.0639   -9.9738 C   0  0  0  0  0  0  0  0  0  0  0  0
    5.5365  -14.1159  -11.4887 C   0  0  0  0  0  0  0  0  0  0  0  0
    4.9551  -15.2841  -12.2740 C   0  0  1  0  0  0  0  0  0  0  0  0
    4.3184  -16.2403  -11.4399 O   0  0  0  0  0  0  0  0  0  0  0  0
    3.8752  -14.8704  -13.2374 C   0  0  1  0  0  0  0  0  0  0  0  0
    4.4435  -14.3186  -14.3901 O   0  0  0  0  0  0  0  0  0  0  0  0
    3.1999  -16.2008  -13.4869 C   0  0  1  0  0  0  0  0  0  0  0  0
    3.9125  -16.9333  -14.4629 O   0  0  0  0  0  0  0  0  0  0  0  0
    3.3029  -16.9266  -12.1501 C   0  0  2  0  0  0  0  0  0  0  0  0
    2.0366  -16.9954  -11.3704 N   0  0  0  0  0  0  0  0  0  0  0  0
    1.0983  -17.9920  -11.4679 C   0  0  0  0  0  0  0  0  0  0  0  0
    0.0826  -17.7302  -10.6151 N   0  0  0  0  0  0  0  0  0  0  0  0
    0.3523  -16.5876   -9.9627 C   0  0  0  0  0  0  0  0  0  0  0  0
   -0.3414  -15.8865   -8.9881 C   0  0  0  0  0  0  0  0  0  0  0  0
   -1.5041  -16.3387   -8.5372 N   0  0  0  0  0  0  0  0  0  0  0  0
    0.1959  -14.7164   -8.4892 N   0  0  0  0  0  0  0  0  0  0  0  0
    1.4171  -14.2363   -8.9453 C   0  0  0  0  0  0  0  0  0  0  0  0
    2.0958  -14.9508   -9.9114 N   0  0  0  0  0  0  0  0  0  0  0  0
    1.5754  -16.1049  -10.4216 C   0  0  0  0  0  0  0  0  0  0  0  0
  2  3  1  1  0  0  0
  2  6  1  0  0  0  0
  2  1  1  0  0  0  0
  4  3  2  0  0  0  0
  5  3  1  0  0  0  0
  6  7  2  0  0  0  0
  8  7  1  1  0  0  0
  8  9  1  0  0  0  0
  8 10  1  0  0  0  0
 11 10  1  1  0  0  0
 11 13  1  0  0  0  0
 12 11  1  0  0  0  0
 12 17  1  0  0  0  0
 13 14  1  6  0  0  0
 13 15  1  0  0  0  0
 15 16  1  6  0  0  0
 17 18  1  1  0  0  0
 17 15  1  0  0  0  0
 18 19  1  0  0  0  0
 20 19  2  0  0  0  0
 21 27  2  0  0  0  0
 21 20  1  0  0  0  0
 22 21  1  0  0  0  0
 23 22  1  0  0  0  0
 24 22  2  0  0  0  0
 24 25  1  0  0  0  0
 25 26  2  0  0  0  0
 26 27  1  0  0  0  0
 27 18  1  0  0  0  0
M  END
>  <CHROM.1>
153.51710355,120.31957649,-152.14466763,-83.14846114,72.83392704,-151.13202173
3.70093837,-15.88240085,-10.21519078,0.07014449,0.21255264,1.69084984

>  <Name>
lig.pdb

>  <RI>
0

>  <Rbt.Current_Directory>
/home/itssahil/PROJECTS/Mol_Feturizer/New_Systems/rnas/4b5r

>  <Rbt.Executable>
rbdock ($Id: //depot/dev/client3/rdock/2013.1/src/exe/rbdock.cxx#4 $)

>  <Rbt.Library>
libRbt.so (2013.1, Build901 2013/11/27)

>  <Rbt.Parameter_File>
/export/apps/rDock/src/rDock_2013.1_src/data/scripts/dock_solv.prm

>  <Rbt.Receptor>
prm/pocket_docking_3.prm

>  <SCORE>
-4.98029

>  <SCORE.INTER>
-4.08913

>  <SCORE.INTER.CONST>
1

>  <SCORE.INTER.POLAR>
0

>  <SCORE.INTER.ROT>
6

>  <SCORE.INTER.SOLV>
13.94

>  <SCORE.INTER.VDW>
-14.9728

>  <SCORE.INTER.norm>
-0.151449

>  <SCORE.INTRA>
-1.00727

>  <SCORE.INTRA.DIHEDRAL>
-0.770812

>  <SCORE.INTRA.DIHEDRAL.0>
10.2917

>  <SCORE.INTRA.POLAR>
0

>  <SCORE.INTRA.POLAR.0>
0

>  <SCORE.INTRA.REPUL>
0

>  <SCORE.INTRA.REPUL.0>
0

>  <SCORE.INTRA.SOLV>
-2.44331

>  <SCORE.INTRA.SOLV.lig_0>
-39.6315

>  <SCORE.INTRA.VDW>
0.59979

>  <SCORE.INTRA.VDW.0>
-4.02152

>  <SCORE.INTRA.norm>
-0.0373064

>  <SCORE.RESTR>
0.11611

>  <SCORE.RESTR.CAVITY>
0.11611

>  <SCORE.RESTR.norm>
0.00430038

>  <SCORE.SYSTEM>
0

>  <SCORE.SYSTEM.CONST>
0

>  <SCORE.SYSTEM.DIHEDRAL>
0

>  <SCORE.SYSTEM.SOLV>
0

>  <SCORE.SYSTEM.norm>
0

>  <SCORE.heavy>
27

>  <SCORE.norm>
-0.184455

>  <RMSD>
5.213

$$$$
lig.pdb
 OpenBabel11021811493D
libRbt.so/2013.1/901 2013/11/27
 27 29  0  0  0  0  0  0  0  0999 V2000
    8.4170  -14.4363  -10.7970 N   0  0  0  0  0  0  0  0  0  0  0  0
    7.3016  -15.2810  -10.2714 C   0  0  2  0  0  0  0  0  0  0  0  0
    6.9139  -16.3106  -11.3287 C   0  0  0  0  0  0  0  0  0  0  0  0
    7.7079  -16.5909  -12.2192 O   0  0  0  0  0  0  0  0  0  0  0  0
    5.8169  -16.8836  -11.3361 O   0  0  0  0  0  0  0  0  0  0  0  0
    6.0824  -14.4683   -9.7910 C   0  0  0  0  0  0  0  0  0  0  0  0
    5.3415  -14.9978   -8.5351 C   0  0  0  0  0  0  0  0  0  0  0  0
    3.8703  -14.0760   -7.9111 S   0  0  2  0  0  0  0  0  0  0  0  0
    4.5950  -13.1109   -6.5684 C   0  0  0  0  0  0  0  0  0  0  0  0
    2.9722  -15.3118   -6.9477 C   0  0  0  0  0  0  0  0  0  0  0  0
    2.5429  -16.4572   -7.8550 C   0  0  1  0  0  0  0  0  0  0  0  0
    2.0847  -16.0087   -9.1216 O   0  0  0  0  0  0  0  0  0  0  0  0
    3.6677  -17.3990   -8.1915 C   0  0  1  0  0  0  0  0  0  0  0  0
    3.9014  -18.2715   -7.1237 O   0  0  0  0  0  0  0  0  0  0  0  0
    3.0968  -18.0910   -9.4095 C   0  0  1  0  0  0  0  0  0  0  0  0
    2.2259  -19.1316   -9.0150 O   0  0  0  0  0  0  0  0  0  0  0  0
    2.2861  -17.0051  -10.1081 C   0  0  2  0  0  0  0  0  0  0  0  0
    2.9107  -16.4439  -11.3374 N   0  0  0  0  0  0  0  0  0  0  0  0
    3.0285  -17.0993  -12.5372 C   0  0  0  0  0  0  0  0  0  0  0  0
    3.6449  -16.2892  -13.4268 N   0  0  0  0  0  0  0  0  0  0  0  0
    3.9191  -15.1198  -12.8256 C   0  0  0  0  0  0  0  0  0  0  0  0
    4.5243  -13.9586  -13.2815 C   0  0  0  0  0  0  0  0  0  0  0  0
    4.9517  -13.8732  -14.5343 N   0  0  0  0  0  0  0  0  0  0  0  0
    4.6706  -12.8915  -12.4174 N   0  0  0  0  0  0  0  0  0  0  0  0
    4.2190  -12.9637  -11.1057 C   0  0  0  0  0  0  0  0  0  0  0  0
    3.6139  -14.1255  -10.6716 N   0  0  0  0  0  0  0  0  0  0  0  0
    3.4687  -15.1930  -11.5098 C   0  0  0  0  0  0  0  0  0  0  0  0
  2  3  1  6  0  0  0
  2  6  1  0  0  0  0
  2  1  1  0  0  0  0
  4  3  2  0  0  0  0
  5  3  1  0  0  0  0
  6  7  2  0  0  0  0
  8  7  1  6  0  0  0
  8  9  1  0  0  0  0
  8 10  1  0  0  0  0
 11 10  1  1  0  0  0
 11 13  1  0  0  0  0
 12 11  1  0  0  0  0
 12 17  1  0  0  0  0
 13 14  1  1  0  0  0
 13 15  1  0  0  0  0
 15 16  1  1  0  0  0
 17 18  1  6  0  0  0
 17 15  1  0  0  0  0
 18 19  1  0  0  0  0
 20 19  2  0  0  0  0
 21 27  2  0  0  0  0
 21 20  1  0  0  0  0
 22 21  1  0  0  0  0
 23 22  1  0  0  0  0
 24 22  2  0  0  0  0
 24 25  1  0  0  0  0
 25 26  2  0  0  0  0
 26 27  1  0  0  0  0
 27 18  1  0  0  0  0
M  END
>  <CHROM.1>
20.25810891,-143.00873610,-98.84320311,-61.85271930,-40.44592761,-168.66932902
4.33672863,-15.59024496,-10.21314622,-0.84097401,0.86327796,1.32323758

>  <Name>
lig.pdb

>  <RI>
0

>  <Rbt.Current_Directory>
/home/itssahil/PROJECTS/Mol_Feturizer/New_Systems/rnas/4b5r

>  <Rbt.Executable>
rbdock ($Id: //depot/dev/client3/rdock/2013.1/src/exe/rbdock.cxx#4 $)

>  <Rbt.Library>
libRbt.so (2013.1, Build901 2013/11/27)

>  <Rbt.Parameter_File>
/export/apps/rDock/src/rDock_2013.1_src/data/scripts/dock_solv.prm

>  <Rbt.Receptor>
prm/pocket_docking_2.prm

>  <SCORE>
3.83505

>  <SCORE.INTER>
0.641346

>  <SCORE.INTER.CONST>
1

>  <SCORE.INTER.POLAR>
0

>  <SCORE.INTER.ROT>
6

>  <SCORE.INTER.SOLV>
12.6837

>  <SCORE.INTER.VDW>
-11.4003

>  <SCORE.INTER.norm>
0.0237535

>  <SCORE.INTRA>
0.66436

>  <SCORE.INTRA.DIHEDRAL>
0.0361599

>  <SCORE.INTRA.DIHEDRAL.0>
10.2917

>  <SCORE.INTRA.POLAR>
0

>  <SCORE.INTRA.POLAR.0>
0

>  <SCORE.INTRA.REPUL>
0

>  <SCORE.INTRA.REPUL.0>
0

>  <SCORE.INTRA.SOLV>
-0.915521

>  <SCORE.INTRA.SOLV.lig_0>
-39.6315

>  <SCORE.INTRA.VDW>
1.10404

>  <SCORE.INTRA.VDW.0>
-4.02152

>  <SCORE.INTRA.norm>
0.0246059

>  <SCORE.RESTR>
2.52935

>  <SCORE.RESTR.CAVITY>
2.52935

>  <SCORE.RESTR.norm>
0.0936796

>  <SCORE.SYSTEM>
0

>  <SCORE.SYSTEM.CONST>
0

>  <SCORE.SYSTEM.DIHEDRAL>
0

>  <SCORE.SYSTEM.SOLV>
0

>  <SCORE.SYSTEM.norm>
0

>  <SCORE.heavy>
27

>  <SCORE.norm>
0.142039

>  <RMSD>
5.218

$$$$
lig.pdb
 OpenBabel11021811493D
libRbt.so/2013.1/901 2013/11/27
 27 29  0  0  0  0  0  0  0  0999 V2000
    7.2135  -13.2366  -11.0137 N   0  0  0  0  0  0  0  0  0  0  0  0
    7.1865  -14.5557  -10.3113 C   0  0  2  0  0  0  0  0  0  0  0  0
    7.2798  -15.6740  -11.3452 C   0  0  0  0  0  0  0  0  0  0  0  0
    8.0218  -16.6272  -11.1392 O   0  0  0  0  0  0  0  0  0  0  0  0
    6.6368  -15.6648  -12.4027 O   0  0  0  0  0  0  0  0  0  0  0  0
    5.9701  -14.7374   -9.3811 C   0  0  0  0  0  0  0  0  0  0  0  0
    6.2446  -14.6866   -7.8551 C   0  0  0  0  0  0  0  0  0  0  0  0
    4.8340  -14.9035   -6.6861 S   0  0  2  0  0  0  0  0  0  0  0  0
    5.6970  -15.3258   -5.1576 C   0  0  0  0  0  0  0  0  0  0  0  0
    4.1694  -16.5260   -7.1190 C   0  0  0  0  0  0  0  0  0  0  0  0
    2.7744  -16.3684   -7.7094 C   0  0  1  0  0  0  0  0  0  0  0  0
    2.7534  -15.5110   -8.8406 O   0  0  0  0  0  0  0  0  0  0  0  0
    2.2011  -17.6606   -8.2259 C   0  0  1  0  0  0  0  0  0  0  0  0
    1.7149  -18.4305   -7.1644 O   0  0  0  0  0  0  0  0  0  0  0  0
    1.1068  -17.1381   -9.1302 C   0  0  1  0  0  0  0  0  0  0  0  0
   -0.0448  -16.8278   -8.3722 O   0  0  0  0  0  0  0  0  0  0  0  0
    1.6833  -15.8490   -9.7050 C   0  0  2  0  0  0  0  0  0  0  0  0
    2.1274  -15.9338  -11.1234 N   0  0  0  0  0  0  0  0  0  0  0  0
    1.7353  -16.8947  -12.0211 C   0  0  0  0  0  0  0  0  0  0  0  0
    2.3332  -16.6610  -13.2108 N   0  0  0  0  0  0  0  0  0  0  0  0
    3.0971  -15.5618  -13.0997 C   0  0  0  0  0  0  0  0  0  0  0  0
    3.9011  -14.8917  -14.0091 C   0  0  0  0  0  0  0  0  0  0  0  0
    4.0105  -15.3293  -15.2566 N   0  0  0  0  0  0  0  0  0  0  0  0
    4.5807  -13.7608  -13.6017 N   0  0  0  0  0  0  0  0  0  0  0  0
    4.4679  -13.2857  -12.3012 C   0  0  0  0  0  0  0  0  0  0  0  0
    3.6584  -13.9626  -11.4118 N   0  0  0  0  0  0  0  0  0  0  0  0
    2.9860  -15.0869  -11.7952 C   0  0  0  0  0  0  0  0  0  0  0  0
  2  3  1  6  0  0  0
  2  6  1  0  0  0  0
  2  1  1  0  0  0  0
  4  3  2  0  0  0  0
  5  3  1  0  0  0  0
  6  7  2  0  0  0  0
  8  7  1  6  0  0  0
  8  9  1  0  0  0  0
  8 10  1  0  0  0  0
 11 10  1  6  0  0  0
 11 13  1  0  0  0  0
 12 11  1  0  0  0  0
 12 17  1  0  0  0  0
 13 14  1  1  0  0  0
 13 15  1  0  0  0  0
 15 16  1  1  0  0  0
 17 18  1  6  0  0  0
 17 15  1  0  0  0  0
 18 19  1  0  0  0  0
 20 19  2  0  0  0  0
 21 27  2  0  0  0  0
 21 20  1  0  0  0  0
 22 21  1  0  0  0  0
 23 22  1  0  0  0  0
 24 22  2  0  0  0  0
 24 25  1  0  0  0  0
 25 26  2  0  0  0  0
 26 27  1  0  0  0  0
 27 18  1  0  0  0  0
M  END
>  <CHROM.1>
136.18342361,-107.75590559,161.58546095,-113.39520108,56.79314332,138.57164009
4.05074689,-15.59315695,-10.11622824,-1.26838877,0.35602570,1.70159907

>  <Name>
lig.pdb

>  <RI>
0

>  <Rbt.Current_Directory>
/home/itssahil/PROJECTS/Mol_Feturizer/New_Systems/rnas/4b5r

>  <Rbt.Executable>
rbdock ($Id: //depot/dev/client3/rdock/2013.1/src/exe/rbdock.cxx#4 $)

>  <Rbt.Library>
libRbt.so (2013.1, Build901 2013/11/27)

>  <Rbt.Parameter_File>
/export/apps/rDock/src/rDock_2013.1_src/data/scripts/dock_solv.prm

>  <Rbt.Receptor>
prm/pocket_docking_3.prm

>  <SCORE>
-11.0249

>  <SCORE.INTER>
-11.6368

>  <SCORE.INTER.CONST>
1

>  <SCORE.INTER.POLAR>
0

>  <SCORE.INTER.ROT>
6

>  <SCORE.INTER.SOLV>
14.1522

>  <SCORE.INTER.VDW>
-20.0752

>  <SCORE.INTER.norm>
-0.430991

>  <SCORE.INTRA>
0.610162

>  <SCORE.INTRA.DIHEDRAL>
0.838783

>  <SCORE.INTRA.DIHEDRAL.0>
10.2917

>  <SCORE.INTRA.POLAR>
0

>  <SCORE.INTRA.POLAR.0>
0

>  <SCORE.INTRA.REPUL>
0.143543

>  <SCORE.INTRA.REPUL.0>
0

>  <SCORE.INTRA.SOLV>
-0.22549

>  <SCORE.INTRA.SOLV.lig_0>
-39.6315

>  <SCORE.INTRA.VDW>
-0.414198

>  <SCORE.INTRA.VDW.0>
-4.02152

>  <SCORE.INTRA.norm>
0.0225986

>  <SCORE.RESTR>
0.00173686

>  <SCORE.RESTR.CAVITY>
0.00173686

>  <SCORE.RESTR.norm>
6.43283e-05

>  <SCORE.SYSTEM>
0

>  <SCORE.SYSTEM.CONST>
0

>  <SCORE.SYSTEM.DIHEDRAL>
0

>  <SCORE.SYSTEM.SOLV>
0

>  <SCORE.SYSTEM.norm>
0

>  <SCORE.heavy>
27

>  <SCORE.norm>
-0.408328

>  <RMSD>
5.221

$$$$
lig.pdb
 OpenBabel11021811493D
libRbt.so/2013.1/901 2013/11/27
 27 29  0  0  0  0  0  0  0  0999 V2000
    1.7392  -16.5499  -13.8674 N   0  0  0  0  0  0  0  0  0  0  0  0
    2.8847  -15.6212  -13.6238 C   0  0  2  0  0  0  0  0  0  0  0  0
    4.1781  -16.4284  -13.5639 C   0  0  0  0  0  0  0  0  0  0  0  0
    5.1581  -16.0473  -14.1932 O   0  0  0  0  0  0  0  0  0  0  0  0
    4.2885  -17.4700  -12.9045 O   0  0  0  0  0  0  0  0  0  0  0  0
    2.7072  -14.7327  -12.3760 C   0  0  0  0  0  0  0  0  0  0  0  0
    1.6693  -15.2054  -11.3243 C   0  0  0  0  0  0  0  0  0  0  0  0
    1.4031  -14.1848   -9.8107 S   0  0  2  0  0  0  0  0  0  0  0  0
    3.1021  -13.8196   -9.3214 C   0  0  0  0  0  0  0  0  0  0  0  0
    0.9772  -15.4027   -8.5470 C   0  0  0  0  0  0  0  0  0  0  0  0
    1.8663  -16.6302   -8.6967 C   0  0  1  0  0  0  0  0  0  0  0  0
    3.2298  -16.3551   -8.4130 O   0  0  0  0  0  0  0  0  0  0  0  0
    1.5147  -17.7359   -7.7380 C   0  0  1  0  0  0  0  0  0  0  0  0
    0.3941  -18.4346   -8.1985 O   0  0  0  0  0  0  0  0  0  0  0  0
    2.7848  -18.5564   -7.7812 C   0  0  1  0  0  0  0  0  0  0  0  0
    2.7752  -19.4100   -8.9073 O   0  0  0  0  0  0  0  0  0  0  0  0
    3.8906  -17.5211   -7.9542 C   0  0  2  0  0  0  0  0  0  0  0  0
    4.6987  -17.2511   -6.7334 N   0  0  0  0  0  0  0  0  0  0  0  0
    5.5986  -18.1203   -6.1697 C   0  0  0  0  0  0  0  0  0  0  0  0
    6.1464  -17.5446   -5.0762 N   0  0  0  0  0  0  0  0  0  0  0  0
    5.6231  -16.3164   -4.9288 C   0  0  0  0  0  0  0  0  0  0  0  0
    5.8427  -15.3176   -3.9926 C   0  0  0  0  0  0  0  0  0  0  0  0
    6.7164  -15.4995   -3.0112 N   0  0  0  0  0  0  0  0  0  0  0  0
    5.1457  -14.1302   -4.0984 N   0  0  0  0  0  0  0  0  0  0  0  0
    4.2349  -13.9224   -5.1265 C   0  0  0  0  0  0  0  0  0  0  0  0
    4.0339  -14.9258   -6.0524 N   0  0  0  0  0  0  0  0  0  0  0  0
    4.7081  -16.1089   -5.9581 C   0  0  0  0  0  0  0  0  0  0  0  0
  2  3  1  1  0  0  0
  2  6  1  0  0  0  0
  2  1  1  0  0  0  0
  4  3  2  0  0  0  0
  5  3  1  0  0  0  0
  6  7  2  0  0  0  0
  8  7  1  6  0  0  0
  8  9  1  0  0  0  0
  8 10  1  0  0  0  0
 11 10  1  1  0  0  0
 11 13  1  0  0  0  0
 12 11  1  0  0  0  0
 12 17  1  0  0  0  0
 13 14  1  6  0  0  0
 13 15  1  0  0  0  0
 15 16  1  6  0  0  0
 17 18  1  1  0  0  0
 17 15  1  0  0  0  0
 18 19  1  0  0  0  0
 20 19  2  0  0  0  0
 21 27  2  0  0  0  0
 21 20  1  0  0  0  0
 22 21  1  0  0  0  0
 23 22  1  0  0  0  0
 24 22  2  0  0  0  0
 24 25  1  0  0  0  0
 25 26  2  0  0  0  0
 26 27  1  0  0  0  0
 27 18  1  0  0  0  0
M  END
>  <CHROM.1>
133.03569287,19.20371205,-45.26483321,41.06485466,66.45857864,-169.97743034
3.47282270,-16.19842693,-8.59136602,-2.69306640,-1.23200805,0.46024264

>  <Name>
lig.pdb

>  <RI>
0

>  <Rbt.Current_Directory>
/home/itssahil/PROJECTS/Mol_Feturizer/New_Systems/rnas/4b5r

>  <Rbt.Executable>
rbdock ($Id: //depot/dev/client3/rdock/2013.1/src/exe/rbdock.cxx#4 $)

>  <Rbt.Library>
libRbt.so (2013.1, Build901 2013/11/27)

>  <Rbt.Parameter_File>
/export/apps/rDock/src/rDock_2013.1_src/data/scripts/dock_solv.prm

>  <Rbt.Receptor>
prm/pocket_docking_4.prm

>  <SCORE>
-13.7819

>  <SCORE.INTER>
-14.9623

>  <SCORE.INTER.CONST>
1

>  <SCORE.INTER.POLAR>
0

>  <SCORE.INTER.ROT>
6

>  <SCORE.INTER.SOLV>
19.4281

>  <SCORE.INTER.VDW>
-24.0509

>  <SCORE.INTER.norm>
-0.554159

>  <SCORE.INTRA>
1.06397

>  <SCORE.INTRA.DIHEDRAL>
-2.3468

>  <SCORE.INTRA.DIHEDRAL.0>
10.2917

>  <SCORE.INTRA.POLAR>
0

>  <SCORE.INTRA.POLAR.0>
0

>  <SCORE.INTRA.REPUL>
0

>  <SCORE.INTRA.REPUL.0>
0

>  <SCORE.INTRA.SOLV>
-2.02113

>  <SCORE.INTRA.SOLV.lig_0>
-39.6315

>  <SCORE.INTRA.VDW>
3.24793

>  <SCORE.INTRA.VDW.0>
-4.02152

>  <SCORE.INTRA.norm>
0.0394062

>  <SCORE.RESTR>
0.116419

>  <SCORE.RESTR.CAVITY>
0.116419

>  <SCORE.RESTR.norm>
0.00431183

>  <SCORE.SYSTEM>
0

>  <SCORE.SYSTEM.CONST>
0

>  <SCORE.SYSTEM.DIHEDRAL>
0

>  <SCORE.SYSTEM.SOLV>
0

>  <SCORE.SYSTEM.norm>
0

>  <SCORE.heavy>
27

>  <SCORE.norm>
-0.510441

>  <RMSD>
5.227

$$$$
lig.pdb
 OpenBabel11021811493D
libRbt.so/2013.1/901 2013/11/27
 27 29  0  0  0  0  0  0  0  0999 V2000
    6.7779  -15.0202  -10.0371 N   0  0  0  0  0  0  0  0  0  0  0  0
    6.5517  -16.0338  -11.1120 C   0  0  2  0  0  0  0  0  0  0  0  0
    7.7197  -15.9908  -12.0929 C   0  0  0  0  0  0  0  0  0  0  0  0
    8.2630  -14.9203  -12.3393 O   0  0  0  0  0  0  0  0  0  0  0  0
    8.1507  -16.9991  -12.6668 O   0  0  0  0  0  0  0  0  0  0  0  0
    5.1958  -15.8823  -11.8308 C   0  0  0  0  0  0  0  0  0  0  0  0
    4.3034  -17.1487  -11.9117 C   0  0  0  0  0  0  0  0  0  0  0  0
    2.6710  -17.0380  -12.7641 S   0  0  2  0  0  0  0  0  0  0  0  0
    3.0037  -15.7777  -14.0133 C   0  0  0  0  0  0  0  0  0  0  0  0
    1.6593  -16.0736  -11.6203 C   0  0  0  0  0  0  0  0  0  0  0  0
    1.4689  -16.8498  -10.3239 C   0  0  1  0  0  0  0  0  0  0  0  0
    2.6324  -16.8486   -9.5104 O   0  0  0  0  0  0  0  0  0  0  0  0
    0.4062  -16.2634   -9.4338 C   0  0  1  0  0  0  0  0  0  0  0  0
   -0.8630  -16.6295   -9.8932 O   0  0  0  0  0  0  0  0  0  0  0  0
    0.7662  -16.9033   -8.1113 C   0  0  1  0  0  0  0  0  0  0  0  0
    0.2300  -18.2088   -8.0399 O   0  0  0  0  0  0  0  0  0  0  0  0
    2.2878  -16.9942   -8.1441 C   0  0  2  0  0  0  0  0  0  0  0  0
    2.9975  -16.0035   -7.2891 N   0  0  0  0  0  0  0  0  0  0  0  0
    2.5398  -14.7461   -6.9851 C   0  0  0  0  0  0  0  0  0  0  0  0
    3.4391  -14.1271   -6.1879 N   0  0  0  0  0  0  0  0  0  0  0  0
    4.4647  -14.9652   -5.9647 C   0  0  0  0  0  0  0  0  0  0  0  0
    5.6272  -14.8355   -5.2202 C   0  0  0  0  0  0  0  0  0  0  0  0
    5.8776  -13.7133   -4.5587 N   0  0  0  0  0  0  0  0  0  0  0  0
    6.5168  -15.8905   -5.1713 N   0  0  0  0  0  0  0  0  0  0  0  0
    6.2628  -17.0749   -5.8513 C   0  0  0  0  0  0  0  0  0  0  0  0
    5.0978  -17.1876   -6.5823 N   0  0  0  0  0  0  0  0  0  0  0  0
    4.2114  -16.1517   -6.6484 C   0  0  0  0  0  0  0  0  0  0  0  0
  2  3  1  6  0  0  0
  2  6  1  0  0  0  0
  2  1  1  0  0  0  0
  4  3  2  0  0  0  0
  5  3  1  0  0  0  0
  6  7  2  0  0  0  0
  8  7  1  1  0  0  0
  8  9  1  0  0  0  0
  8 10  1  0  0  0  0
 11 10  1  6  0  0  0
 11 13  1  0  0  0  0
 12 11  1  0  0  0  0
 12 17  1  0  0  0  0
 13 14  1  6  0  0  0
 13 15  1  0  0  0  0
 15 16  1  6  0  0  0
 17 18  1  1  0  0  0
 17 15  1  0  0  0  0
 18 19  1  0  0  0  0
 20 19  2  0  0  0  0
 21 27  2  0  0  0  0
 21 20  1  0  0  0  0
 22 21  1  0  0  0  0
 23 22  1  0  0  0  0
 24 22  2  0  0  0  0
 24 25  1  0  0  0  0
 25 26  2  0  0  0  0
 26 27  1  0  0  0  0
 27 18  1  0  0  0  0
M  END
>  <CHROM.1>
-34.62976165,-127.46239009,30.90378331,-64.60315949,74.96342131,89.02120490
3.92194650,-16.14820697,-9.29644289,-1.59477664,0.17882043,1.43796837

>  <Name>
lig.pdb

>  <RI>
0

>  <Rbt.Current_Directory>
/home/itssahil/PROJECTS/Mol_Feturizer/New_Systems/rnas/4b5r

>  <Rbt.Executable>
rbdock ($Id: //depot/dev/client3/rdock/2013.1/src/exe/rbdock.cxx#4 $)

>  <Rbt.Library>
libRbt.so (2013.1, Build901 2013/11/27)

>  <Rbt.Parameter_File>
/export/apps/rDock/src/rDock_2013.1_src/data/scripts/dock_solv.prm

>  <Rbt.Receptor>
prm/pocket_docking_3.prm

>  <SCORE>
-14.8222

>  <SCORE.INTER>
-14.4929

>  <SCORE.INTER.CONST>
1

>  <SCORE.INTER.POLAR>
0

>  <SCORE.INTER.ROT>
6

>  <SCORE.INTER.SOLV>
14.0523

>  <SCORE.INTER.VDW>
-21.946

>  <SCORE.INTER.norm>
-0.536772

>  <SCORE.INTRA>
-0.329326

>  <SCORE.INTRA.DIHEDRAL>
-1.07081

>  <SCORE.INTRA.DIHEDRAL.0>
10.2917

>  <SCORE.INTRA.POLAR>
0

>  <SCORE.INTRA.POLAR.0>
0

>  <SCORE.INTRA.REPUL>
0

>  <SCORE.INTRA.REPUL.0>
0

>  <SCORE.INTRA.SOLV>
-3.2185

>  <SCORE.INTRA.SOLV.lig_0>
-39.6315

>  <SCORE.INTRA.VDW>
1.81533

>  <SCORE.INTRA.VDW.0>
-4.02152

>  <SCORE.INTRA.norm>
-0.0121973

>  <SCORE.RESTR>
0

>  <SCORE.RESTR.CAVITY>
0

>  <SCORE.RESTR.norm>
0

>  <SCORE.SYSTEM>
0

>  <SCORE.SYSTEM.CONST>
0

>  <SCORE.SYSTEM.DIHEDRAL>
0

>  <SCORE.SYSTEM.SOLV>
0

>  <SCORE.SYSTEM.norm>
0

>  <SCORE.heavy>
27

>  <SCORE.norm>
-0.54897

>  <RMSD>
5.228

$$$$
lig.pdb
 OpenBabel11021811493D
libRbt.so/2013.1/901 2013/11/27
 27 29  0  0  0  0  0  0  0  0999 V2000
    6.9610  -12.9452  -13.7247 N   0  0  0  0  0  0  0  0  0  0  0  0
    6.3189  -14.0338  -14.5226 C   0  0  2  0  0  0  0  0  0  0  0  0
    5.4609  -13.4097  -15.6192 C   0  0  0  0  0  0  0  0  0  0  0  0
    5.4988  -12.1983  -15.8005 O   0  0  0  0  0  0  0  0  0  0  0  0
    4.7112  -14.0758  -16.3446 O   0  0  0  0  0  0  0  0  0  0  0  0
    5.5156  -15.0360  -13.6692 C   0  0  0  0  0  0  0  0  0  0  0  0
    3.9824  -14.8133  -13.5896 C   0  0  0  0  0  0  0  0  0  0  0  0
    2.9627  -15.9727  -12.5799 S   0  0  2  0  0  0  0  0  0  0  0  0
    1.5515  -16.2519  -13.6709 C   0  0  0  0  0  0  0  0  0  0  0  0
    2.1898  -14.8983  -11.3510 C   0  0  0  0  0  0  0  0  0  0  0  0
    1.2306  -15.7099  -10.4904 C   0  0  1  0  0  0  0  0  0  0  0  0
    1.6752  -17.0422  -10.2844 O   0  0  0  0  0  0  0  0  0  0  0  0
    1.0773  -15.1615   -9.0971 C   0  0  1  0  0  0  0  0  0  0  0  0
    0.2132  -14.0619   -9.1044 O   0  0  0  0  0  0  0  0  0  0  0  0
    0.5001  -16.3654   -8.3859 C   0  0  1  0  0  0  0  0  0  0  0  0
   -0.8939  -16.4387   -8.6053 O   0  0  0  0  0  0  0  0  0  0  0  0
    1.1712  -17.5548   -9.0637 C   0  0  2  0  0  0  0  0  0  0  0  0
    2.2371  -18.2180   -8.2637 N   0  0  0  0  0  0  0  0  0  0  0  0
    2.5861  -17.8871   -6.9785 C   0  0  0  0  0  0  0  0  0  0  0  0
    3.5889  -18.6957   -6.5687 N   0  0  0  0  0  0  0  0  0  0  0  0
    3.8875  -19.5483   -7.5627 C   0  0  0  0  0  0  0  0  0  0  0  0
    4.8156  -20.5737   -7.6618 C   0  0  0  0  0  0  0  0  0  0  0  0
    5.6127  -20.8569   -6.6400 N   0  0  0  0  0  0  0  0  0  0  0  0
    4.8950  -21.2993   -8.8339 N   0  0  0  0  0  0  0  0  0  0  0  0
    4.0599  -21.0199   -9.9083 C   0  0  0  0  0  0  0  0  0  0  0  0
    3.1384  -19.9995   -9.7891 N   0  0  0  0  0  0  0  0  0  0  0  0
    3.0520  -19.2666   -8.6407 C   0  0  0  0  0  0  0  0  0  0  0  0
  2  3  1  6  0  0  0
  2  6  1  0  0  0  0
  2  1  1  0  0  0  0
  4  3  2  0  0  0  0
  5  3  1  0  0  0  0
  6  7  2  0  0  0  0
  8  7  1  6  0  0  0
  8  9  1  0  0  0  0
  8 10  1  0  0  0  0
 11 10  1  6  0  0  0
 11 13  1  0  0  0  0
 12 11  1  0  0  0  0
 12 17  1  0  0  0  0
 13 14  1  6  0  0  0
 13 15  1  0  0  0  0
 15 16  1  6  0  0  0
 17 18  1  1  0  0  0
 17 15  1  0  0  0  0
 18 19  1  0  0  0  0
 20 19  2  0  0  0  0
 21 27  2  0  0  0  0
 21 20  1  0  0  0  0
 22 21  1  0  0  0  0
 23 22  1  0  0  0  0
 24 22  2  0  0  0  0
 24 25  1  0  0  0  0
 25 26  2  0  0  0  0
 26 27  1  0  0  0  0
 27 18  1  0  0  0  0
M  END
>  <CHROM.1>
7.06005164,97.86184624,-136.60556242,176.17904597,33.65495122,123.24234275
3.20092831,-16.67920775,-10.77003729,-1.33065224,-0.51032534,2.36223638

>  <Name>
lig.pdb

>  <RI>
0

>  <Rbt.Current_Directory>
/home/itssahil/PROJECTS/Mol_Feturizer/New_Systems/rnas/4b5r

>  <Rbt.Executable>
rbdock ($Id: //depot/dev/client3/rdock/2013.1/src/exe/rbdock.cxx#4 $)

>  <Rbt.Library>
libRbt.so (2013.1, Build901 2013/11/27)

>  <Rbt.Parameter_File>
/export/apps/rDock/src/rDock_2013.1_src/data/scripts/dock_solv.prm

>  <Rbt.Receptor>
prm/blind_docking_40.prm

>  <SCORE>
-14.0147

>  <SCORE.INTER>
-16.3007

>  <SCORE.INTER.CONST>
1

>  <SCORE.INTER.POLAR>
0

>  <SCORE.INTER.ROT>
6

>  <SCORE.INTER.SOLV>
11.5208

>  <SCORE.INTER.VDW>
-22.3074

>  <SCORE.INTER.norm>
-0.60373

>  <SCORE.INTRA>
2.28605

>  <SCORE.INTRA.DIHEDRAL>
1.1797

>  <SCORE.INTRA.DIHEDRAL.0>
10.2917

>  <SCORE.INTRA.POLAR>
0

>  <SCORE.INTRA.POLAR.0>
0

>  <SCORE.INTRA.REPUL>
0.0424197

>  <SCORE.INTRA.REPUL.0>
0

>  <SCORE.INTRA.SOLV>
-2.9952

>  <SCORE.INTRA.SOLV.lig_0>
-39.6315

>  <SCORE.INTRA.VDW>
2.98171

>  <SCORE.INTRA.VDW.0>
-4.02152

>  <SCORE.INTRA.norm>
0.0846687

>  <SCORE.RESTR>
0

>  <SCORE.RESTR.CAVITY>
0

>  <SCORE.RESTR.norm>
0

>  <SCORE.SYSTEM>
0

>  <SCORE.SYSTEM.CONST>
0

>  <SCORE.SYSTEM.DIHEDRAL>
0

>  <SCORE.SYSTEM.SOLV>
0

>  <SCORE.SYSTEM.norm>
0

>  <SCORE.heavy>
27

>  <SCORE.norm>
-0.519062

>  <RMSD>
5.231

$$$$
lig.pdb
 OpenBabel11021811493D
libRbt.so/2013.1/901 2013/11/27
 27 29  0  0  0  0  0  0  0  0999 V2000
    5.6964  -12.6532  -14.5141 N   0  0  0  0  0  0  0  0  0  0  0  0
    5.6291  -13.9513  -15.2520 C   0  0  2  0  0  0  0  0  0  0  0  0
    5.1554  -13.6908  -16.6788 C   0  0  0  0  0  0  0  0  0  0  0  0
    5.3989  -12.6133  -17.2093 O   0  0  0  0  0  0  0  0  0  0  0  0
    4.5218  -14.5251  -17.3378 O   0  0  0  0  0  0  0  0  0  0  0  0
    4.7666  -15.0192  -14.5494 C   0  0  0  0  0  0  0  0  0  0  0  0
    4.0616  -14.5930  -13.2349 C   0  0  0  0  0  0  0  0  0  0  0  0
    3.0196  -15.8247  -12.3402 S   0  0  2  0  0  0  0  0  0  0  0  0
    1.7633  -16.2002  -13.5813 C   0  0  0  0  0  0  0  0  0  0  0  0
    2.0395  -14.8115  -11.2114 C   0  0  0  0  0  0  0  0  0  0  0  0
    1.3096  -15.7076  -10.2196 C   0  0  1  0  0  0  0  0  0  0  0  0
    2.1143  -16.7830   -9.7599 O   0  0  0  0  0  0  0  0  0  0  0  0
    0.9103  -14.9912   -8.9576 C   0  0  1  0  0  0  0  0  0  0  0  0
   -0.2383  -14.2253   -9.1811 O   0  0  0  0  0  0  0  0  0  0  0  0
    0.6704  -16.1655   -8.0347 C   0  0  1  0  0  0  0  0  0  0  0  0
   -0.6221  -16.6960   -8.2472 O   0  0  0  0  0  0  0  0  0  0  0  0
    1.7062  -17.1968   -8.4681 C   0  0  2  0  0  0  0  0  0  0  0  0
    2.8662  -17.3512   -7.5478 N   0  0  0  0  0  0  0  0  0  0  0  0
    3.4495  -18.5436   -7.2001 C   0  0  0  0  0  0  0  0  0  0  0  0
    4.4733  -18.3056   -6.3501 N   0  0  0  0  0  0  0  0  0  0  0  0
    4.5670  -16.9807   -6.1498 C   0  0  0  0  0  0  0  0  0  0  0  0
    5.4355  -16.2140   -5.3880 C   0  0  0  0  0  0  0  0  0  0  0  0
    6.3981  -16.7933   -4.6827 N   0  0  0  0  0  0  0  0  0  0  0  0
    5.2896  -14.8409   -5.3779 N   0  0  0  0  0  0  0  0  0  0  0  0
    4.2922  -14.2202   -6.1192 C   0  0  0  0  0  0  0  0  0  0  0  0
    3.4409  -14.9994   -6.8760 N   0  0  0  0  0  0  0  0  0  0  0  0
    3.5655  -16.3586   -6.8910 C   0  0  0  0  0  0  0  0  0  0  0  0
  2  3  1  6  0  0  0
  2  6  1  0  0  0  0
  2  1  1  0  0  0  0
  4  3  2  0  0  0  0
  5  3  1  0  0  0  0
  6  7  2  0  0  0  0
  8  7  1  6  0  0  0
  8  9  1  0  0  0  0
  8 10  1  0  0  0  0
 11 10  1  6  0  0  0
 11 13  1  0  0  0  0
 12 11  1  0  0  0  0
 12 17  1  0  0  0  0
 13 14  1  6  0  0  0
 13 15  1  0  0  0  0
 15 16  1  6  0  0  0
 17 18  1  1  0  0  0
 17 15  1  0  0  0  0
 18 19  1  0  0  0  0
 20 19  2  0  0  0  0
 21 27  2  0  0  0  0
 21 20  1  0  0  0  0
 22 21  1  0  0  0  0
 23 22  1  0  0  0  0
 24 22  2  0  0  0  0
 24 25  1  0  0  0  0
 25 26  2  0  0  0  0
 26 27  1  0  0  0  0
 27 18  1  0  0  0  0
M  END
>  <CHROM.1>
28.79832109,2.20660396,-60.71410244,-169.62581195,40.57914023,-101.32215810
3.32743636,-15.55761622,-10.24630086,-1.45841034,0.18317842,1.81192940

>  <Name>
lig.pdb

>  <RI>
0

>  <Rbt.Current_Directory>
/home/itssahil/PROJECTS/Mol_Feturizer/New_Systems/rnas/4b5r

>  <Rbt.Executable>
rbdock ($Id: //depot/dev/client3/rdock/2013.1/src/exe/rbdock.cxx#4 $)

>  <Rbt.Library>
libRbt.so (2013.1, Build901 2013/11/27)

>  <Rbt.Parameter_File>
/export/apps/rDock/src/rDock_2013.1_src/data/scripts/dock_solv.prm

>  <Rbt.Receptor>
prm/pocket_docking_7.prm

>  <SCORE>
-17.3261

>  <SCORE.INTER>
-17.6284

>  <SCORE.INTER.CONST>
1

>  <SCORE.INTER.POLAR>
0

>  <SCORE.INTER.ROT>
6

>  <SCORE.INTER.SOLV>
13.8934

>  <SCORE.INTER.VDW>
-23.9834

>  <SCORE.INTER.norm>
-0.652903

>  <SCORE.INTRA>
0.302246

>  <SCORE.INTRA.DIHEDRAL>
-1.06982

>  <SCORE.INTRA.DIHEDRAL.0>
10.2917

>  <SCORE.INTRA.POLAR>
0

>  <SCORE.INTRA.POLAR.0>
0

>  <SCORE.INTRA.REPUL>
0

>  <SCORE.INTRA.REPUL.0>
0

>  <SCORE.INTRA.SOLV>
-2.22505

>  <SCORE.INTRA.SOLV.lig_0>
-39.6315

>  <SCORE.INTRA.VDW>
1.94968

>  <SCORE.INTRA.VDW.0>
-4.02152

>  <SCORE.INTRA.norm>
0.0111943

>  <SCORE.RESTR>
0

>  <SCORE.RESTR.CAVITY>
0

>  <SCORE.RESTR.norm>
0

>  <SCORE.SYSTEM>
0

>  <SCORE.SYSTEM.CONST>
0

>  <SCORE.SYSTEM.DIHEDRAL>
0

>  <SCORE.SYSTEM.SOLV>
0

>  <SCORE.SYSTEM.norm>
0

>  <SCORE.heavy>
27

>  <SCORE.norm>
-0.641708

>  <RMSD>
5.233

$$$$
lig.pdb
 OpenBabel11021811493D
libRbt.so/2013.1/901 2013/11/27
 27 29  0  0  0  0  0  0  0  0999 V2000
    5.4462  -11.1535  -13.2126 N   0  0  0  0  0  0  0  0  0  0  0  0
    5.8544  -12.1452  -12.1715 C   0  0  2  0  0  0  0  0  0  0  0  0
    7.0999  -12.8862  -12.6486 C   0  0  0  0  0  0  0  0  0  0  0  0
    7.9634  -13.2013  -11.8381 O   0  0  0  0  0  0  0  0  0  0  0  0
    7.2887  -13.1860  -13.8345 O   0  0  0  0  0  0  0  0  0  0  0  0
    4.7289  -13.1195  -11.7690 C   0  0  0  0  0  0  0  0  0  0  0  0
    4.7129  -14.4990  -12.4784 C   0  0  0  0  0  0  0  0  0  0  0  0
    3.3889  -15.7095  -12.0479 S   0  0  2  0  0  0  0  0  0  0  0  0
    2.5511  -15.9040  -13.6352 C   0  0  0  0  0  0  0  0  0  0  0  0
    2.1641  -14.7074  -11.1776 C   0  0  0  0  0  0  0  0  0  0  0  0
    1.2033  -15.6144  -10.4202 C   0  0  1  0  0  0  0  0  0  0  0  0
    1.7029  -16.9346  -10.2688 O   0  0  0  0  0  0  0  0  0  0  0  0
    0.9505  -15.1605   -9.0076 C   0  0  1  0  0  0  0  0  0  0  0  0
    0.0339  -14.1043   -8.9977 O   0  0  0  0  0  0  0  0  0  0  0  0
    0.3983  -16.4315   -8.4012 C   0  0  1  0  0  0  0  0  0  0  0  0
   -0.9771  -16.5566   -8.7007 O   0  0  0  0  0  0  0  0  0  0  0  0
    1.1625  -17.5443   -9.1099 C   0  0  2  0  0  0  0  0  0  0  0  0
    2.2173  -18.2046   -8.2929 N   0  0  0  0  0  0  0  0  0  0  0  0
    2.5563  -17.8617   -7.0082 C   0  0  0  0  0  0  0  0  0  0  0  0
    3.5507  -18.6713   -6.5805 N   0  0  0  0  0  0  0  0  0  0  0  0
    3.8538  -19.5362   -7.5624 C   0  0  0  0  0  0  0  0  0  0  0  0
    4.7770  -20.5677   -7.6419 C   0  0  0  0  0  0  0  0  0  0  0  0
    5.5631  -20.8442   -6.6098 N   0  0  0  0  0  0  0  0  0  0  0  0
    4.8631  -21.3063   -8.8053 N   0  0  0  0  0  0  0  0  0  0  0  0
    4.0395  -21.0340   -9.8904 C   0  0  0  0  0  0  0  0  0  0  0  0
    3.1227  -20.0074   -9.7907 N   0  0  0  0  0  0  0  0  0  0  0  0
    3.0298  -19.2617   -8.6511 C   0  0  0  0  0  0  0  0  0  0  0  0
  2  3  1  6  0  0  0
  2  6  1  0  0  0  0
  2  1  1  0  0  0  0
  4  3  2  0  0  0  0
  5  3  1  0  0  0  0
  6  7  2  0  0  0  0
  8  7  1  6  0  0  0
  8  9  1  0  0  0  0
  8 10  1  0  0  0  0
 11 10  1  1  0  0  0
 11 13  1  0  0  0  0
 12 11  1  0  0  0  0
 12 17  1  0  0  0  0
 13 14  1  6  0  0  0
 13 15  1  0  0  0  0
 15 16  1  6  0  0  0
 17 18  1  1  0  0  0
 17 15  1  0  0  0  0
 18 19  1  0  0  0  0
 20 19  2  0  0  0  0
 21 27  2  0  0  0  0
 21 20  1  0  0  0  0
 22 21  1  0  0  0  0
 23 22  1  0  0  0  0
 24 22  2  0  0  0  0
 24 25  1  0  0  0  0
 25 26  2  0  0  0  0
 26 27  1  0  0  0  0
 27 18  1  0  0  0  0
M  END
>  <CHROM.1>
143.67793724,96.17068996,118.29933767,-164.15247913,16.54826542,117.53177168
3.43028290,-16.42264205,-10.15998136,1.23858576,0.27100369,-0.54149591

>  <Name>
lig.pdb

>  <RI>
0

>  <Rbt.Current_Directory>
/home/itssahil/PROJECTS/Mol_Feturizer/New_Systems/rnas/4b5r

>  <Rbt.Executable>
rbdock ($Id: //depot/dev/client3/rdock/2013.1/src/exe/rbdock.cxx#4 $)

>  <Rbt.Library>
libRbt.so (2013.1, Build901 2013/11/27)

>  <Rbt.Parameter_File>
/export/apps/rDock/src/rDock_2013.1_src/data/scripts/dock_solv.prm

>  <Rbt.Receptor>
prm/pocket_docking_7.prm

>  <SCORE>
-12.3596

>  <SCORE.INTER>
-15.7381

>  <SCORE.INTER.CONST>
1

>  <SCORE.INTER.POLAR>
0

>  <SCORE.INTER.ROT>
6

>  <SCORE.INTER.SOLV>
17.082

>  <SCORE.INTER.VDW>
-23.7861

>  <SCORE.INTER.norm>
-0.582894

>  <SCORE.INTRA>
3.3785

>  <SCORE.INTRA.DIHEDRAL>
3.42981

>  <SCORE.INTRA.DIHEDRAL.0>
10.2917

>  <SCORE.INTRA.POLAR>
0

>  <SCORE.INTRA.POLAR.0>
0

>  <SCORE.INTRA.REPUL>
0.0177996

>  <SCORE.INTRA.REPUL.0>
0

>  <SCORE.INTRA.SOLV>
-3.06465

>  <SCORE.INTRA.SOLV.lig_0>
-39.6315

>  <SCORE.INTRA.VDW>
3.10692

>  <SCORE.INTRA.VDW.0>
-4.02152

>  <SCORE.INTRA.norm>
0.12513

>  <SCORE.RESTR>
0

>  <SCORE.RESTR.CAVITY>
0

>  <SCORE.RESTR.norm>
0

>  <SCORE.SYSTEM>
0

>  <SCORE.SYSTEM.CONST>
0

>  <SCORE.SYSTEM.DIHEDRAL>
0

>  <SCORE.SYSTEM.SOLV>
0

>  <SCORE.SYSTEM.norm>
0

>  <SCORE.heavy>
27

>  <SCORE.norm>
-0.457764

>  <RMSD>
5.239

$$$$
lig.pdb
 OpenBabel11021811493D
libRbt.so/2013.1/901 2013/11/27
 27 29  0  0  0  0  0  0  0  0999 V2000
    5.5814  -13.1230  -15.2012 N   0  0  0  0  0  0  0  0  0  0  0  0
    5.7008  -14.5676  -15.5659 C   0  0  2  0  0  0  0  0  0  0  0  0
    5.2832  -14.7512  -17.0220 C   0  0  0  0  0  0  0  0  0  0  0  0
    5.7851  -15.6508  -17.6859 O   0  0  0  0  0  0  0  0  0  0  0  0
    4.4526  -14.0217  -17.5784 O   0  0  0  0  0  0  0  0  0  0  0  0
    4.9234  -15.5102  -14.6252 C   0  0  0  0  0  0  0  0  0  0  0  0
    4.1344  -14.8454  -13.4667 C   0  0  0  0  0  0  0  0  0  0  0  0
    3.1879  -15.9166  -12.3005 S   0  0  2  0  0  0  0  0  0  0  0  0
    1.6553  -16.1785  -13.2180 C   0  0  0  0  0  0  0  0  0  0  0  0
    2.5977  -14.7598  -11.0454 C   0  0  0  0  0  0  0  0  0  0  0  0
    1.8757  -15.5230   -9.9428 C   0  0  1  0  0  0  0  0  0  0  0  0
    2.6842  -16.5325   -9.3574 O   0  0  0  0  0  0  0  0  0  0  0  0
    1.4861  -14.6528   -8.7783 C   0  0  1  0  0  0  0  0  0  0  0  0
    0.3357  -13.9202   -9.0878 O   0  0  0  0  0  0  0  0  0  0  0  0
    1.2536  -15.7010   -7.7127 C   0  0  1  0  0  0  0  0  0  0  0  0
   -0.0404  -16.2530   -7.8467 O   0  0  0  0  0  0  0  0  0  0  0  0
    2.2862  -16.7796   -8.0206 C   0  0  2  0  0  0  0  0  0  0  0  0
    3.4533  -16.8176   -7.0972 N   0  0  0  0  0  0  0  0  0  0  0  0
    4.0574  -17.9572   -6.6288 C   0  0  0  0  0  0  0  0  0  0  0  0
    5.0818  -17.6145   -5.8160 N   0  0  0  0  0  0  0  0  0  0  0  0
    5.1554  -16.2746   -5.7582 C   0  0  0  0  0  0  0  0  0  0  0  0
    6.0156  -15.4180   -5.0881 C   0  0  0  0  0  0  0  0  0  0  0  0
    6.9909  -15.9043   -4.3320 N   0  0  0  0  0  0  0  0  0  0  0  0
    5.8479  -14.0540   -5.2230 N   0  0  0  0  0  0  0  0  0  0  0  0
    4.8368  -13.5310   -6.0191 C   0  0  0  0  0  0  0  0  0  0  0  0
    3.9940  -14.3991   -6.6829 N   0  0  0  0  0  0  0  0  0  0  0  0
    4.1402  -15.7501   -6.5543 C   0  0  0  0  0  0  0  0  0  0  0  0
  2  3  1  6  0  0  0
  2  6  1  0  0  0  0
  2  1  1  0  0  0  0
  4  3  2  0  0  0  0
  5  3  1  0  0  0  0
  6  7  2  0  0  0  0
  8  7  1  6  0  0  0
  8  9  1  0  0  0  0
  8 10  1  0  0  0  0
 11 10  1  6  0  0  0
 11 13  1  0  0  0  0
 12 11  1  0  0  0  0
 12 17  1  0  0  0  0
 13 14  1  6  0  0  0
 13 15  1  0  0  0  0
 15 16  1  6  0  0  0
 17 18  1  1  0  0  0
 17 15  1  0  0  0  0
 18 19  1  0  0  0  0
 20 19  2  0  0  0  0
 21 27  2  0  0  0  0
 21 20  1  0  0  0  0
 22 21  1  0  0  0  0
 23 22  1  0  0  0  0
 24 22  2  0  0  0  0
 24 25  1  0  0  0  0
 25 26  2  0  0  0  0
 26 27  1  0  0  0  0
 27 18  1  0  0  0  0
M  END
>  <CHROM.1>
150.14504465,0.50791843,-82.89335225,-175.78934173,56.09842669,-99.85218742
3.72371116,-15.44030811,-10.11636849,-1.52262933,0.10703071,1.66330604

>  <Name>
lig.pdb

>  <RI>
0

>  <Rbt.Current_Directory>
/home/itssahil/PROJECTS/Mol_Feturizer/New_Systems/rnas/4b5r

>  <Rbt.Executable>
rbdock ($Id: //depot/dev/client3/rdock/2013.1/src/exe/rbdock.cxx#4 $)

>  <Rbt.Library>
libRbt.so (2013.1, Build901 2013/11/27)

>  <Rbt.Parameter_File>
/export/apps/rDock/src/rDock_2013.1_src/data/scripts/dock_solv.prm

>  <Rbt.Receptor>
prm/pocket_docking_8.prm

>  <SCORE>
-17.3449

>  <SCORE.INTER>
-16.5185

>  <SCORE.INTER.CONST>
1

>  <SCORE.INTER.POLAR>
0

>  <SCORE.INTER.ROT>
6

>  <SCORE.INTER.SOLV>
13.4627

>  <SCORE.INTER.VDW>
-23.0999

>  <SCORE.INTER.norm>
-0.611795

>  <SCORE.INTRA>
-0.826411

>  <SCORE.INTRA.DIHEDRAL>
-2.13424

>  <SCORE.INTRA.DIHEDRAL.0>
10.2917

>  <SCORE.INTRA.POLAR>
0

>  <SCORE.INTRA.POLAR.0>
0

>  <SCORE.INTRA.REPUL>
0

>  <SCORE.INTRA.REPUL.0>
0

>  <SCORE.INTRA.SOLV>
-2.33898

>  <SCORE.INTRA.SOLV.lig_0>
-39.6315

>  <SCORE.INTRA.VDW>
1.4102

>  <SCORE.INTRA.VDW.0>
-4.02152

>  <SCORE.INTRA.norm>
-0.0306078

>  <SCORE.RESTR>
0

>  <SCORE.RESTR.CAVITY>
0

>  <SCORE.RESTR.norm>
0

>  <SCORE.SYSTEM>
0

>  <SCORE.SYSTEM.CONST>
0

>  <SCORE.SYSTEM.DIHEDRAL>
0

>  <SCORE.SYSTEM.SOLV>
0

>  <SCORE.SYSTEM.norm>
0

>  <SCORE.heavy>
27

>  <SCORE.norm>
-0.642403

>  <RMSD>
5.243

$$$$
lig.pdb
 OpenBabel11021811493D
libRbt.so/2013.1/901 2013/11/27
 27 29  0  0  0  0  0  0  0  0999 V2000
    6.0659  -13.0040  -11.7740 N   0  0  0  0  0  0  0  0  0  0  0  0
    5.1438  -13.5319  -10.7227 C   0  0  2  0  0  0  0  0  0  0  0  0
    5.9462  -14.3641   -9.7268 C   0  0  0  0  0  0  0  0  0  0  0  0
    5.6555  -14.3285   -8.5368 O   0  0  0  0  0  0  0  0  0  0  0  0
    6.8960  -15.0820  -10.0647 O   0  0  0  0  0  0  0  0  0  0  0  0
    3.9443  -14.3183  -11.2890 C   0  0  0  0  0  0  0  0  0  0  0  0
    4.2348  -15.7453  -11.8237 C   0  0  0  0  0  0  0  0  0  0  0  0
    2.8450  -16.7381  -12.5210 S   0  0  2  0  0  0  0  0  0  0  0  0
    2.6247  -15.9614  -14.1358 C   0  0  0  0  0  0  0  0  0  0  0  0
    1.3905  -16.0888  -11.6696 C   0  0  0  0  0  0  0  0  0  0  0  0
    1.0726  -16.9587  -10.4606 C   0  0  1  0  0  0  0  0  0  0  0  0
    2.2388  -17.3857   -9.7728 O   0  0  0  0  0  0  0  0  0  0  0  0
    0.2760  -16.2380   -9.4063 C   0  0  1  0  0  0  0  0  0  0  0  0
   -1.0714  -16.1797   -9.7764 O   0  0  0  0  0  0  0  0  0  0  0  0
    0.5251  -17.1303   -8.2105 C   0  0  1  0  0  0  0  0  0  0  0  0
   -0.3504  -18.2392   -8.2394 O   0  0  0  0  0  0  0  0  0  0  0  0
    1.9547  -17.6230   -8.4055 C   0  0  2  0  0  0  0  0  0  0  0  0
    2.9668  -16.9908   -7.5155 N   0  0  0  0  0  0  0  0  0  0  0  0
    4.0586  -17.6259   -6.9793 C   0  0  0  0  0  0  0  0  0  0  0  0
    4.7563  -16.7480   -6.2244 N   0  0  0  0  0  0  0  0  0  0  0  0
    4.1396  -15.5557   -6.2705 C   0  0  0  0  0  0  0  0  0  0  0  0
    4.4371  -14.3312   -5.6922 C   0  0  0  0  0  0  0  0  0  0  0  0
    5.5137  -14.1943   -4.9294 N   0  0  0  0  0  0  0  0  0  0  0  0
    3.6028  -13.2558   -5.9253 N   0  0  0  0  0  0  0  0  0  0  0  0
    2.4774  -13.3823   -6.7297 C   0  0  0  0  0  0  0  0  0  0  0  0
    2.2007  -14.6075   -7.3015 N   0  0  0  0  0  0  0  0  0  0  0  0
    3.0099  -15.6831   -7.0750 C   0  0  0  0  0  0  0  0  0  0  0  0
  2  3  1  1  0  0  0
  2  6  1  0  0  0  0
  2  1  1  0  0  0  0
  4  3  2  0  0  0  0
  5  3  1  0  0  0  0
  6  7  2  0  0  0  0
  8  7  1  1  0  0  0
  8  9  1  0  0  0  0
  8 10  1  0  0  0  0
 11 10  1  6  0  0  0
 11 13  1  0  0  0  0
 12 11  1  0  0  0  0
 12 17  1  0  0  0  0
 13 14  1  6  0  0  0
 13 15  1  0  0  0  0
 15 16  1  6  0  0  0
 17 18  1  1  0  0  0
 17 15  1  0  0  0  0
 18 19  1  0  0  0  0
 20 19  2  0  0  0  0
 21 27  2  0  0  0  0
 21 20  1  0  0  0  0
 22 21  1  0  0  0  0
 23 22  1  0  0  0  0
 24 22  2  0  0  0  0
 24 25  1  0  0  0  0
 25 26  2  0  0  0  0
 26 27  1  0  0  0  0
 27 18  1  0  0  0  0
M  END
>  <CHROM.1>
143.13196887,74.84889296,76.06939476,-95.34953430,39.44536131,-96.16653364
3.16283569,-15.68045889,-9.14755755,-2.10463096,0.52472670,1.53014743

>  <Name>
lig.pdb

>  <RI>
0

>  <Rbt.Current_Directory>
/home/itssahil/PROJECTS/Mol_Feturizer/New_Systems/rnas/4b5r

>  <Rbt.Executable>
rbdock ($Id: //depot/dev/client3/rdock/2013.1/src/exe/rbdock.cxx#4 $)

>  <Rbt.Library>
libRbt.so (2013.1, Build901 2013/11/27)

>  <Rbt.Parameter_File>
/export/apps/rDock/src/rDock_2013.1_src/data/scripts/dock_solv.prm

>  <Rbt.Receptor>
prm/pocket_docking_2.prm

>  <SCORE>
-12.1739

>  <SCORE.INTER>
-13.3827

>  <SCORE.INTER.CONST>
1

>  <SCORE.INTER.POLAR>
0

>  <SCORE.INTER.ROT>
6

>  <SCORE.INTER.SOLV>
15.2288

>  <SCORE.INTER.VDW>
-21.598

>  <SCORE.INTER.norm>
-0.495655

>  <SCORE.INTRA>
0.753864

>  <SCORE.INTRA.DIHEDRAL>
3.53706

>  <SCORE.INTRA.DIHEDRAL.0>
10.2917

>  <SCORE.INTRA.POLAR>
0

>  <SCORE.INTRA.POLAR.0>
0

>  <SCORE.INTRA.REPUL>
0

>  <SCORE.INTRA.REPUL.0>
0

>  <SCORE.INTRA.SOLV>
-1.18078

>  <SCORE.INTRA.SOLV.lig_0>
-39.6315

>  <SCORE.INTRA.VDW>
-0.424277

>  <SCORE.INTRA.VDW.0>
-4.02152

>  <SCORE.INTRA.norm>
0.0279209

>  <SCORE.RESTR>
0.454929

>  <SCORE.RESTR.CAVITY>
0.454929

>  <SCORE.RESTR.norm>
0.0168492

>  <SCORE.SYSTEM>
0

>  <SCORE.SYSTEM.CONST>
0

>  <SCORE.SYSTEM.DIHEDRAL>
0

>  <SCORE.SYSTEM.SOLV>
0

>  <SCORE.SYSTEM.norm>
0

>  <SCORE.heavy>
27

>  <SCORE.norm>
-0.450885

>  <RMSD>
5.245

$$$$
lig.pdb
 OpenBabel11021811493D
libRbt.so/2013.1/901 2013/11/27
 27 29  0  0  0  0  0  0  0  0999 V2000
    3.6426  -17.6167  -11.9741 N   0  0  0  0  0  0  0  0  0  0  0  0
    2.2232  -17.3570  -12.3638 C   0  0  2  0  0  0  0  0  0  0  0  0
    2.1685  -16.1199  -13.2553 C   0  0  0  0  0  0  0  0  0  0  0  0
    2.2639  -15.0070  -12.7514 O   0  0  0  0  0  0  0  0  0  0  0  0
    2.0248  -16.1840  -14.4830 O   0  0  0  0  0  0  0  0  0  0  0  0
    1.2627  -17.2392  -11.1632 C   0  0  0  0  0  0  0  0  0  0  0  0
    1.9098  -17.1853   -9.7543 C   0  0  0  0  0  0  0  0  0  0  0  0
    0.8170  -17.0510   -8.2740 S   0  0  2  0  0  0  0  0  0  0  0  0
   -0.8096  -16.8978   -9.0421 C   0  0  0  0  0  0  0  0  0  0  0  0
    1.0556  -15.3476   -7.7233 C   0  0  0  0  0  0  0  0  0  0  0  0
    2.4467  -15.1923   -7.1232 C   0  0  1  0  0  0  0  0  0  0  0  0
    3.4717  -15.6434   -7.9956 O   0  0  0  0  0  0  0  0  0  0  0  0
    2.8146  -13.7595   -6.8454 C   0  0  1  0  0  0  0  0  0  0  0  0
    2.2060  -13.3263   -5.6630 O   0  0  0  0  0  0  0  0  0  0  0  0
    4.3185  -13.8752   -6.7310 C   0  0  1  0  0  0  0  0  0  0  0  0
    4.6764  -14.3107   -5.4351 O   0  0  0  0  0  0  0  0  0  0  0  0
    4.6855  -14.9605   -7.7369 C   0  0  2  0  0  0  0  0  0  0  0  0
    5.3189  -14.4697   -8.9916 N   0  0  0  0  0  0  0  0  0  0  0  0
    5.0226  -13.2859   -9.6191 C   0  0  0  0  0  0  0  0  0  0  0  0
    5.7883  -13.1671  -10.7268 N   0  0  0  0  0  0  0  0  0  0  0  0
    6.5796  -14.2484  -10.8209 C   0  0  0  0  0  0  0  0  0  0  0  0
    7.5443  -14.6178  -11.7457 C   0  0  0  0  0  0  0  0  0  0  0  0
    7.8236  -13.8282  -12.7744 N   0  0  0  0  0  0  0  0  0  0  0  0
    8.2142  -15.8137  -11.5790 N   0  0  0  0  0  0  0  0  0  0  0  0
    7.9387  -16.6458  -10.5012 C   0  0  0  0  0  0  0  0  0  0  0  0
    6.9794  -16.2586   -9.5878 N   0  0  0  0  0  0  0  0  0  0  0  0
    6.3017  -15.0838   -9.7418 C   0  0  0  0  0  0  0  0  0  0  0  0
  2  3  1  1  0  0  0
  2  6  1  0  0  0  0
  2  1  1  0  0  0  0
  4  3  2  0  0  0  0
  5  3  1  0  0  0  0
  6  7  2  0  0  0  0
  8  7  1  6  0  0  0
  8  9  1  0  0  0  0
  8 10  1  0  0  0  0
 11 10  1  6  0  0  0
 11 13  1  0  0  0  0
 12 11  1  0  0  0  0
 12 17  1  0  0  0  0
 13 14  1  1  0  0  0
 13 15  1  0  0  0  0
 15 16  1  1  0  0  0
 17 18  1  6  0  0  0
 17 15  1  0  0  0  0
 18 19  1  0  0  0  0
 20 19  2  0  0  0  0
 21 27  2  0  0  0  0
 21 20  1  0  0  0  0
 22 21  1  0  0  0  0
 23 22  1  0  0  0  0
 24 22  2  0  0  0  0
 24 25  1  0  0  0  0
 25 26  2  0  0  0  0
 26 27  1  0  0  0  0
 27 18  1  0  0  0  0
M  END
>  <CHROM.1>
-77.00684024,9.04133520,-4.09974319,-71.08325501,53.12197848,84.98505365
3.81220283,-15.42601185,-9.69019343,0.52613235,-0.31632286,-1.86513831

>  <Name>
lig.pdb

>  <RI>
0

>  <Rbt.Current_Directory>
/home/itssahil/PROJECTS/Mol_Feturizer/New_Systems/rnas/4b5r

>  <Rbt.Executable>
rbdock ($Id: //depot/dev/client3/rdock/2013.1/src/exe/rbdock.cxx#4 $)

>  <Rbt.Library>
libRbt.so (2013.1, Build901 2013/11/27)

>  <Rbt.Parameter_File>
/export/apps/rDock/src/rDock_2013.1_src/data/scripts/dock_solv.prm

>  <Rbt.Receptor>
prm/pocket_docking_4.prm

>  <SCORE>
-16.7229

>  <SCORE.INTER>
-17.051

>  <SCORE.INTER.CONST>
1

>  <SCORE.INTER.POLAR>
0

>  <SCORE.INTER.ROT>
6

>  <SCORE.INTER.SOLV>
15.2518

>  <SCORE.INTER.VDW>
-24.0513

>  <SCORE.INTER.norm>
-0.631519

>  <SCORE.INTRA>
0.328112

>  <SCORE.INTRA.DIHEDRAL>
-2.61077

>  <SCORE.INTRA.DIHEDRAL.0>
10.2917

>  <SCORE.INTRA.POLAR>
0

>  <SCORE.INTRA.POLAR.0>
0

>  <SCORE.INTRA.REPUL>
0

>  <SCORE.INTRA.REPUL.0>
0

>  <SCORE.INTRA.SOLV>
-2.35478

>  <SCORE.INTRA.SOLV.lig_0>
-39.6315

>  <SCORE.INTRA.VDW>
2.81089

>  <SCORE.INTRA.VDW.0>
-4.02152

>  <SCORE.INTRA.norm>
0.0121523

>  <SCORE.RESTR>
0

>  <SCORE.RESTR.CAVITY>
0

>  <SCORE.RESTR.norm>
0

>  <SCORE.SYSTEM>
0

>  <SCORE.SYSTEM.CONST>
0

>  <SCORE.SYSTEM.DIHEDRAL>
0

>  <SCORE.SYSTEM.SOLV>
0

>  <SCORE.SYSTEM.norm>
0

>  <SCORE.heavy>
27

>  <SCORE.norm>
-0.619367

>  <RMSD>
5.245

$$$$
lig.pdb
 OpenBabel11021811493D
libRbt.so/2013.1/901 2013/11/27
 27 29  0  0  0  0  0  0  0  0999 V2000
    4.2420  -15.1104  -13.8583 N   0  0  0  0  0  0  0  0  0  0  0  0
    3.6059  -16.0057  -12.8445 C   0  0  2  0  0  0  0  0  0  0  0  0
    2.3642  -15.3202  -12.2819 C   0  0  0  0  0  0  0  0  0  0  0  0
    1.2566  -15.6398  -12.6976 O   0  0  0  0  0  0  0  0  0  0  0  0
    2.4199  -14.4384  -11.4153 O   0  0  0  0  0  0  0  0  0  0  0  0
    4.5669  -16.4556  -11.7256 C   0  0  0  0  0  0  0  0  0  0  0  0
    4.9172  -17.9659  -11.6718 C   0  0  0  0  0  0  0  0  0  0  0  0
    6.0566  -18.5721  -10.3535 S   0  0  2  0  0  0  0  0  0  0  0  0
    6.8353  -19.9801  -11.1725 C   0  0  0  0  0  0  0  0  0  0  0  0
    4.9615  -19.4487   -9.2160 C   0  0  0  0  0  0  0  0  0  0  0  0
    5.7444  -19.8876   -7.9856 C   0  0  1  0  0  0  0  0  0  0  0  0
    6.5130  -18.8350   -7.4229 O   0  0  0  0  0  0  0  0  0  0  0  0
    4.8619  -20.3355   -6.8515 C   0  0  1  0  0  0  0  0  0  0  0  0
    4.4050  -21.6371   -7.0817 O   0  0  0  0  0  0  0  0  0  0  0  0
    5.8293  -20.2423   -5.6923 C   0  0  1  0  0  0  0  0  0  0  0  0
    6.6372  -21.4004   -5.6377 O   0  0  0  0  0  0  0  0  0  0  0  0
    6.7058  -19.0429   -6.0350 C   0  0  2  0  0  0  0  0  0  0  0  0
    6.4234  -17.8101   -5.2496 N   0  0  0  0  0  0  0  0  0  0  0  0
    6.9938  -17.4904   -4.0431 C   0  0  0  0  0  0  0  0  0  0  0  0
    6.5060  -16.3017   -3.6229 N   0  0  0  0  0  0  0  0  0  0  0  0
    5.6380  -15.8443   -4.5401 C   0  0  0  0  0  0  0  0  0  0  0  0
    4.8769  -14.6872   -4.6054 C   0  0  0  0  0  0  0  0  0  0  0  0
    4.9400  -13.7878   -3.6324 N   0  0  0  0  0  0  0  0  0  0  0  0
    4.0582  -14.4803   -5.6979 N   0  0  0  0  0  0  0  0  0  0  0  0
    3.9895  -15.4090   -6.7288 C   0  0  0  0  0  0  0  0  0  0  0  0
    4.7587  -16.5520   -6.6490 N   0  0  0  0  0  0  0  0  0  0  0  0
    5.5672  -16.7765   -5.5724 C   0  0  0  0  0  0  0  0  0  0  0  0
  2  3  1  1  0  0  0
  2  6  1  0  0  0  0
  2  1  1  0  0  0  0
  4  3  2  0  0  0  0
  5  3  1  0  0  0  0
  6  7  2  0  0  0  0
  8  7  1  6  0  0  0
  8  9  1  0  0  0  0
  8 10  1  0  0  0  0
 11 10  1  6  0  0  0
 11 13  1  0  0  0  0
 12 11  1  0  0  0  0
 12 17  1  0  0  0  0
 13 14  1  6  0  0  0
 13 15  1  0  0  0  0
 15 16  1  6  0  0  0
 17 18  1  1  0  0  0
 17 15  1  0  0  0  0
 18 19  1  0  0  0  0
 20 19  2  0  0  0  0
 21 27  2  0  0  0  0
 21 20  1  0  0  0  0
 22 21  1  0  0  0  0
 23 22  1  0  0  0  0
 24 22  2  0  0  0  0
 24 25  1  0  0  0  0
 25 26  2  0  0  0  0
 26 27  1  0  0  0  0
 27 18  1  0  0  0  0
M  END
>  <CHROM.1>
100.46653117,-113.78540727,-150.28656461,-174.08363198,49.15980710,-152.10327092
5.06099016,-17.49394092,-8.09903090,2.39065699,1.14572441,-2.13382647

>  <Name>
lig.pdb

>  <RI>
0

>  <Rbt.Current_Directory>
/home/itssahil/PROJECTS/Mol_Feturizer/New_Systems/rnas/4b5r

>  <Rbt.Executable>
rbdock ($Id: //depot/dev/client3/rdock/2013.1/src/exe/rbdock.cxx#4 $)

>  <Rbt.Library>
libRbt.so (2013.1, Build901 2013/11/27)

>  <Rbt.Parameter_File>
/export/apps/rDock/src/rDock_2013.1_src/data/scripts/dock_solv.prm

>  <Rbt.Receptor>
prm/pocket_docking_7.prm

>  <SCORE>
-11.8431

>  <SCORE.INTER>
-10.9729

>  <SCORE.INTER.CONST>
1

>  <SCORE.INTER.POLAR>
0

>  <SCORE.INTER.ROT>
6

>  <SCORE.INTER.SOLV>
14.5725

>  <SCORE.INTER.VDW>
-19.7728

>  <SCORE.INTER.norm>
-0.406404

>  <SCORE.INTRA>
-0.870198

>  <SCORE.INTRA.DIHEDRAL>
-0.965044

>  <SCORE.INTRA.DIHEDRAL.0>
10.2917

>  <SCORE.INTRA.POLAR>
0

>  <SCORE.INTRA.POLAR.0>
0

>  <SCORE.INTRA.REPUL>
0

>  <SCORE.INTRA.REPUL.0>
0

>  <SCORE.INTRA.SOLV>
-2.80907

>  <SCORE.INTRA.SOLV.lig_0>
-39.6315

>  <SCORE.INTRA.VDW>
1.01686

>  <SCORE.INTRA.VDW.0>
-4.02152

>  <SCORE.INTRA.norm>
-0.0322296

>  <SCORE.RESTR>
0

>  <SCORE.RESTR.CAVITY>
0

>  <SCORE.RESTR.norm>
0

>  <SCORE.SYSTEM>
0

>  <SCORE.SYSTEM.CONST>
0

>  <SCORE.SYSTEM.DIHEDRAL>
0

>  <SCORE.SYSTEM.SOLV>
0

>  <SCORE.SYSTEM.norm>
0

>  <SCORE.heavy>
27

>  <SCORE.norm>
-0.438633

>  <RMSD>
5.253

$$$$
lig.pdb
 OpenBabel11021811493D
libRbt.so/2013.1/901 2013/11/27
 27 29  0  0  0  0  0  0  0  0999 V2000
    4.1801  -17.0564  -12.2345 N   0  0  0  0  0  0  0  0  0  0  0  0
    2.7368  -17.3460  -12.4937 C   0  0  2  0  0  0  0  0  0  0  0  0
    2.1281  -16.1876  -13.2784 C   0  0  0  0  0  0  0  0  0  0  0  0
    1.5383  -15.2958  -12.6797 O   0  0  0  0  0  0  0  0  0  0  0  0
    2.1963  -16.1039  -14.5113 O   0  0  0  0  0  0  0  0  0  0  0  0
    1.9291  -17.6591  -11.2180 C   0  0  0  0  0  0  0  0  0  0  0  0
    1.9297  -16.5756  -10.1078 C   0  0  0  0  0  0  0  0  0  0  0  0
    0.9883  -16.8896   -8.5526 S   0  0  2  0  0  0  0  0  0  0  0  0
   -0.6968  -17.0513   -9.1802 C   0  0  0  0  0  0  0  0  0  0  0  0
    0.8735  -15.2571   -7.7888 C   0  0  0  0  0  0  0  0  0  0  0  0
    2.1497  -14.9634   -7.0112 C   0  0  1  0  0  0  0  0  0  0  0  0
    3.1225  -15.9878   -7.1507 O   0  0  0  0  0  0  0  0  0  0  0  0
    2.8601  -13.7245   -7.4863 C   0  0  1  0  0  0  0  0  0  0  0  0
    2.2322  -12.5835   -6.9765 O   0  0  0  0  0  0  0  0  0  0  0  0
    4.2379  -13.9534   -6.9053 C   0  0  1  0  0  0  0  0  0  0  0  0
    4.2669  -13.5567   -5.5493 O   0  0  0  0  0  0  0  0  0  0  0  0
    4.4281  -15.4641   -6.9834 C   0  0  2  0  0  0  0  0  0  0  0  0
    5.3492  -15.9294   -8.0564 N   0  0  0  0  0  0  0  0  0  0  0  0
    5.7621  -17.2250   -8.2404 C   0  0  0  0  0  0  0  0  0  0  0  0
    6.5911  -17.2794   -9.3069 N   0  0  0  0  0  0  0  0  0  0  0  0
    6.7138  -16.0441   -9.8197 C   0  0  0  0  0  0  0  0  0  0  0  0
    7.4250  -15.5531  -10.9040 C   0  0  0  0  0  0  0  0  0  0  0  0
    8.1572  -16.3696  -11.6503 N   0  0  0  0  0  0  0  0  0  0  0  0
    7.3563  -14.2062  -11.2005 N   0  0  0  0  0  0  0  0  0  0  0  0
    6.5859  -13.3414  -10.4334 C   0  0  0  0  0  0  0  0  0  0  0  0
    5.8804  -13.8493   -9.3616 N   0  0  0  0  0  0  0  0  0  0  0  0
    5.9434  -15.1766   -9.0493 C   0  0  0  0  0  0  0  0  0  0  0  0
  2  3  1  1  0  0  0
  2  6  1  0  0  0  0
  2  1  1  0  0  0  0
  4  3  2  0  0  0  0
  5  3  1  0  0  0  0
  6  7  2  0  0  0  0
  8  7  1  6  0  0  0
  8  9  1  0  0  0  0
  8 10  1  0  0  0  0
 11 10  1  6  0  0  0
 11 13  1  0  0  0  0
 12 11  1  0  0  0  0
 12 17  1  0  0  0  0
 13 14  1  1  0  0  0
 13 15  1  0  0  0  0
 15 16  1  1  0  0  0
 17 18  1  6  0  0  0
 17 15  1  0  0  0  0
 18 19  1  0  0  0  0
 20 19  2  0  0  0  0
 21 27  2  0  0  0  0
 21 20  1  0  0  0  0
 22 21  1  0  0  0  0
 23 22  1  0  0  0  0
 24 22  2  0  0  0  0
 24 25  1  0  0  0  0
 25 26  2  0  0  0  0
 26 27  1  0  0  0  0
 27 18  1  0  0  0  0
M  END
>  <CHROM.1>
-95.41702860,57.40445828,-61.60314176,-83.14492854,3.75492648,-66.59984166
3.75035305,-15.61765886,-9.49639224,0.46752352,-0.17288903,-1.90494085

>  <Name>
lig.pdb

>  <RI>
0

>  <Rbt.Current_Directory>
/home/itssahil/PROJECTS/Mol_Feturizer/New_Systems/rnas/4b5r

>  <Rbt.Executable>
rbdock ($Id: //depot/dev/client3/rdock/2013.1/src/exe/rbdock.cxx#4 $)

>  <Rbt.Library>
libRbt.so (2013.1, Build901 2013/11/27)

>  <Rbt.Parameter_File>
/export/apps/rDock/src/rDock_2013.1_src/data/scripts/dock_solv.prm

>  <Rbt.Receptor>
prm/pocket_docking_3.prm

>  <SCORE>
-12.2569

>  <SCORE.INTER>
-16.3592

>  <SCORE.INTER.CONST>
1

>  <SCORE.INTER.POLAR>
0

>  <SCORE.INTER.ROT>
6

>  <SCORE.INTER.SOLV>
14.1093

>  <SCORE.INTER.VDW>
-23.2092

>  <SCORE.INTER.norm>
-0.605895

>  <SCORE.INTRA>
4.10226

>  <SCORE.INTRA.DIHEDRAL>
5.28124

>  <SCORE.INTRA.DIHEDRAL.0>
10.2917

>  <SCORE.INTRA.POLAR>
0

>  <SCORE.INTRA.POLAR.0>
0

>  <SCORE.INTRA.REPUL>
0

>  <SCORE.INTRA.REPUL.0>
0

>  <SCORE.INTRA.SOLV>
-0.0927937

>  <SCORE.INTRA.SOLV.lig_0>
-39.6315

>  <SCORE.INTRA.VDW>
1.50804

>  <SCORE.INTRA.VDW.0>
-4.02152

>  <SCORE.INTRA.norm>
0.151936

>  <SCORE.RESTR>
0

>  <SCORE.RESTR.CAVITY>
0

>  <SCORE.RESTR.norm>
0

>  <SCORE.SYSTEM>
0

>  <SCORE.SYSTEM.CONST>
0

>  <SCORE.SYSTEM.DIHEDRAL>
0

>  <SCORE.SYSTEM.SOLV>
0

>  <SCORE.SYSTEM.norm>
0

>  <SCORE.heavy>
27

>  <SCORE.norm>
-0.453959

>  <RMSD>
5.254

$$$$
lig.pdb
 OpenBabel11021811493D
libRbt.so/2013.1/901 2013/11/27
 27 29  0  0  0  0  0  0  0  0999 V2000
    4.1789  -17.3613  -12.3898 N   0  0  0  0  0  0  0  0  0  0  0  0
    2.6886  -17.4319  -12.3005 C   0  0  2  0  0  0  0  0  0  0  0  0
    2.0904  -16.1786  -12.9326 C   0  0  0  0  0  0  0  0  0  0  0  0
    2.5351  -15.0776  -12.6295 O   0  0  0  0  0  0  0  0  0  0  0  0
    1.1589  -16.2175  -13.7466 O   0  0  0  0  0  0  0  0  0  0  0  0
    2.1638  -17.6557  -10.8679 C   0  0  0  0  0  0  0  0  0  0  0  0
    1.3360  -16.5037  -10.2399 C   0  0  0  0  0  0  0  0  0  0  0  0
    0.6838  -16.7040   -8.5258 S   0  0  2  0  0  0  0  0  0  0  0  0
   -1.0896  -16.4923   -8.7902 C   0  0  0  0  0  0  0  0  0  0  0  0
    1.0654  -15.1238   -7.7390 C   0  0  0  0  0  0  0  0  0  0  0  0
    2.4892  -15.1499   -7.1991 C   0  0  1  0  0  0  0  0  0  0  0  0
    3.4295  -15.6067   -8.1595 O   0  0  0  0  0  0  0  0  0  0  0  0
    3.0006  -13.7879   -6.8133 C   0  0  1  0  0  0  0  0  0  0  0  0
    2.4860  -13.4150   -5.5675 O   0  0  0  0  0  0  0  0  0  0  0  0
    4.4907  -14.0473   -6.7865 C   0  0  1  0  0  0  0  0  0  0  0  0
    4.8612  -14.6324   -5.5547 O   0  0  0  0  0  0  0  0  0  0  0  0
    4.7117  -15.0619   -7.9028 C   0  0  2  0  0  0  0  0  0  0  0  0
    5.3342  -14.5140   -9.1392 N   0  0  0  0  0  0  0  0  0  0  0  0
    5.0029  -13.3220   -9.7327 C   0  0  0  0  0  0  0  0  0  0  0  0
    5.7689  -13.1459  -10.8326 N   0  0  0  0  0  0  0  0  0  0  0  0
    6.5944  -14.1983  -10.9549 C   0  0  0  0  0  0  0  0  0  0  0  0
    7.5741  -14.5092  -11.8856 C   0  0  0  0  0  0  0  0  0  0  0  0
    7.8322  -13.6808  -12.8889 N   0  0  0  0  0  0  0  0  0  0  0  0
    8.2808  -15.6878  -11.7512 N   0  0  0  0  0  0  0  0  0  0  0  0
    8.0277  -16.5601  -10.7001 C   0  0  0  0  0  0  0  0  0  0  0  0
    7.0529  -16.2309   -9.7803 N   0  0  0  0  0  0  0  0  0  0  0  0
    6.3389  -15.0740   -9.9026 C   0  0  0  0  0  0  0  0  0  0  0  0
  2  3  1  1  0  0  0
  2  6  1  0  0  0  0
  2  1  1  0  0  0  0
  4  3  2  0  0  0  0
  5  3  1  0  0  0  0
  6  7  2  0  0  0  0
  8  7  1  6  0  0  0
  8  9  1  0  0  0  0
  8 10  1  0  0  0  0
 11 10  1  6  0  0  0
 11 13  1  0  0  0  0
 12 11  1  0  0  0  0
 12 17  1  0  0  0  0
 13 14  1  1  0  0  0
 13 15  1  0  0  0  0
 15 16  1  1  0  0  0
 17 18  1  6  0  0  0
 17 15  1  0  0  0  0
 18 19  1  0  0  0  0
 20 19  2  0  0  0  0
 21 27  2  0  0  0  0
 21 20  1  0  0  0  0
 22 21  1  0  0  0  0
 23 22  1  0  0  0  0
 24 22  2  0  0  0  0
 24 25  1  0  0  0  0
 25 26  2  0  0  0  0
 26 27  1  0  0  0  0
 27 18  1  0  0  0  0
M  END
>  <CHROM.1>
-47.91736228,114.59911035,-122.11309877,-85.08013611,49.35170203,76.55506333
3.85130061,-15.37158887,-9.74240295,0.45268477,-0.28148764,-1.86903272

>  <Name>
lig.pdb

>  <RI>
0

>  <Rbt.Current_Directory>
/home/itssahil/PROJECTS/Mol_Feturizer/New_Systems/rnas/4b5r

>  <Rbt.Executable>
rbdock ($Id: //depot/dev/client3/rdock/2013.1/src/exe/rbdock.cxx#4 $)

>  <Rbt.Library>
libRbt.so (2013.1, Build901 2013/11/27)

>  <Rbt.Parameter_File>
/export/apps/rDock/src/rDock_2013.1_src/data/scripts/dock_solv.prm

>  <Rbt.Receptor>
prm/pocket_docking_4.prm

>  <SCORE>
-15.8514

>  <SCORE.INTER>
-15.9612

>  <SCORE.INTER.CONST>
1

>  <SCORE.INTER.POLAR>
0

>  <SCORE.INTER.ROT>
6

>  <SCORE.INTER.SOLV>
14.4642

>  <SCORE.INTER.VDW>
-23.0622

>  <SCORE.INTER.norm>
-0.591154

>  <SCORE.INTRA>
0.109721

>  <SCORE.INTRA.DIHEDRAL>
-0.481371

>  <SCORE.INTRA.DIHEDRAL.0>
10.2917

>  <SCORE.INTRA.POLAR>
0

>  <SCORE.INTRA.POLAR.0>
0

>  <SCORE.INTRA.REPUL>
0

>  <SCORE.INTRA.REPUL.0>
0

>  <SCORE.INTRA.SOLV>
-1.96196

>  <SCORE.INTRA.SOLV.lig_0>
-39.6315

>  <SCORE.INTRA.VDW>
1.33139

>  <SCORE.INTRA.VDW.0>
-4.02152

>  <SCORE.INTRA.norm>
0.00406374

>  <SCORE.RESTR>
0

>  <SCORE.RESTR.CAVITY>
0

>  <SCORE.RESTR.norm>
0

>  <SCORE.SYSTEM>
0

>  <SCORE.SYSTEM.CONST>
0

>  <SCORE.SYSTEM.DIHEDRAL>
0

>  <SCORE.SYSTEM.SOLV>
0

>  <SCORE.SYSTEM.norm>
0

>  <SCORE.heavy>
27

>  <SCORE.norm>
-0.587091

>  <RMSD>
5.271

$$$$
lig.pdb
 OpenBabel11021811493D
libRbt.so/2013.1/901 2013/11/27
 27 29  0  0  0  0  0  0  0  0999 V2000
    5.8556  -12.9385  -11.8874 N   0  0  0  0  0  0  0  0  0  0  0  0
    5.6682  -13.7389  -10.6391 C   0  0  2  0  0  0  0  0  0  0  0  0
    6.6630  -14.8958  -10.6336 C   0  0  0  0  0  0  0  0  0  0  0  0
    6.6780  -15.6756   -9.6883 O   0  0  0  0  0  0  0  0  0  0  0  0
    7.4736  -15.0874  -11.5490 O   0  0  0  0  0  0  0  0  0  0  0  0
    4.2212  -14.2283  -10.4284 C   0  0  0  0  0  0  0  0  0  0  0  0
    3.5878  -13.9567   -9.0385 C   0  0  0  0  0  0  0  0  0  0  0  0
    1.8613  -14.5222   -8.7178 S   0  0  2  0  0  0  0  0  0  0  0  0
    1.1570  -13.0761   -7.8979 C   0  0  0  0  0  0  0  0  0  0  0  0
    2.0325  -15.6245   -7.2976 C   0  0  0  0  0  0  0  0  0  0  0  0
    2.5119  -16.9926   -7.7645 C   0  0  1  0  0  0  0  0  0  0  0  0
    2.2949  -17.2036   -9.1515 O   0  0  0  0  0  0  0  0  0  0  0  0
    3.9949  -17.1884   -7.5978 C   0  0  1  0  0  0  0  0  0  0  0  0
    4.2947  -17.4872   -6.2649 O   0  0  0  0  0  0  0  0  0  0  0  0
    4.2291  -18.3529   -8.5344 C   0  0  1  0  0  0  0  0  0  0  0  0
    3.9071  -19.5686   -7.8901 O   0  0  0  0  0  0  0  0  0  0  0  0
    3.2419  -18.1191   -9.6725 C   0  0  2  0  0  0  0  0  0  0  0  0
    3.8460  -17.6242  -10.9400 N   0  0  0  0  0  0  0  0  0  0  0  0
    5.1796  -17.6809  -11.2581 C   0  0  0  0  0  0  0  0  0  0  0  0
    5.3668  -17.1424  -12.4838 N   0  0  0  0  0  0  0  0  0  0  0  0
    4.1772  -16.7471  -12.9662 C   0  0  0  0  0  0  0  0  0  0  0  0
    3.8099  -16.1519  -14.1634 C   0  0  0  0  0  0  0  0  0  0  0  0
    4.7251  -15.8760  -15.0831 N   0  0  0  0  0  0  0  0  0  0  0  0
    2.4799  -15.8561  -14.3883 N   0  0  0  0  0  0  0  0  0  0  0  0
    1.5096  -16.1483  -13.4381 C   0  0  0  0  0  0  0  0  0  0  0  0
    1.8935  -16.7461  -12.2549 N   0  0  0  0  0  0  0  0  0  0  0  0
    3.2047  -17.0377  -12.0126 C   0  0  0  0  0  0  0  0  0  0  0  0
  2  3  1  6  0  0  0
  2  6  1  0  0  0  0
  2  1  1  0  0  0  0
  4  3  2  0  0  0  0
  5  3  1  0  0  0  0
  6  7  2  0  0  0  0
  8  7  1  1  0  0  0
  8  9  1  0  0  0  0
  8 10  1  0  0  0  0
 11 10  1  6  0  0  0
 11 13  1  0  0  0  0
 12 11  1  0  0  0  0
 12 17  1  0  0  0  0
 13 14  1  1  0  0  0
 13 15  1  0  0  0  0
 15 16  1  1  0  0  0
 17 18  1  6  0  0  0
 17 15  1  0  0  0  0
 18 19  1  0  0  0  0
 20 19  2  0  0  0  0
 21 27  2  0  0  0  0
 21 20  1  0  0  0  0
 22 21  1  0  0  0  0
 23 22  1  0  0  0  0
 24 22  2  0  0  0  0
 24 25  1  0  0  0  0
 25 26  2  0  0  0  0
 26 27  1  0  0  0  0
 27 18  1  0  0  0  0
M  END
>  <CHROM.1>
179.75008933,-129.93065945,-135.36943571,-80.45060192,-18.95397573,136.28877146
3.83584584,-16.07081220,-10.35078754,0.67957632,1.21066410,-0.58087944

>  <Name>
lig.pdb

>  <RI>
0

>  <Rbt.Current_Directory>
/home/itssahil/PROJECTS/Mol_Feturizer/New_Systems/rnas/4b5r

>  <Rbt.Executable>
rbdock ($Id: //depot/dev/client3/rdock/2013.1/src/exe/rbdock.cxx#4 $)

>  <Rbt.Library>
libRbt.so (2013.1, Build901 2013/11/27)

>  <Rbt.Parameter_File>
/export/apps/rDock/src/rDock_2013.1_src/data/scripts/dock_solv.prm

>  <Rbt.Receptor>
prm/pocket_docking_4.prm

>  <SCORE>
-9.31399

>  <SCORE.INTER>
-9.65765

>  <SCORE.INTER.CONST>
1

>  <SCORE.INTER.POLAR>
0

>  <SCORE.INTER.ROT>
6

>  <SCORE.INTER.SOLV>
12.1532

>  <SCORE.INTER.VDW>
-18.0895

>  <SCORE.INTER.norm>
-0.357691

>  <SCORE.INTRA>
0.343653

>  <SCORE.INTRA.DIHEDRAL>
2.97838

>  <SCORE.INTRA.DIHEDRAL.0>
10.2917

>  <SCORE.INTRA.POLAR>
0

>  <SCORE.INTRA.POLAR.0>
0

>  <SCORE.INTRA.REPUL>
0.12693

>  <SCORE.INTRA.REPUL.0>
0

>  <SCORE.INTRA.SOLV>
-1.3531

>  <SCORE.INTRA.SOLV.lig_0>
-39.6315

>  <SCORE.INTRA.VDW>
-1.10363

>  <SCORE.INTRA.VDW.0>
-4.02152

>  <SCORE.INTRA.norm>
0.0127279

>  <SCORE.RESTR>
0

>  <SCORE.RESTR.CAVITY>
0

>  <SCORE.RESTR.norm>
0

>  <SCORE.SYSTEM>
0

>  <SCORE.SYSTEM.CONST>
0

>  <SCORE.SYSTEM.DIHEDRAL>
0

>  <SCORE.SYSTEM.SOLV>
0

>  <SCORE.SYSTEM.norm>
0

>  <SCORE.heavy>
27

>  <SCORE.norm>
-0.344963

>  <RMSD>
5.277

$$$$
lig.pdb
 OpenBabel11021811493D
libRbt.so/2013.1/901 2013/11/27
 27 29  0  0  0  0  0  0  0  0999 V2000
    6.8098  -16.4055  -10.4732 N   0  0  0  0  0  0  0  0  0  0  0  0
    6.9708  -16.8063  -11.9041 C   0  0  2  0  0  0  0  0  0  0  0  0
    7.9901  -15.8860  -12.5690 C   0  0  0  0  0  0  0  0  0  0  0  0
    8.4234  -14.9191  -11.9533 O   0  0  0  0  0  0  0  0  0  0  0  0
    8.4051  -16.0663  -13.7209 O   0  0  0  0  0  0  0  0  0  0  0  0
    5.6437  -16.8505  -12.6881 C   0  0  0  0  0  0  0  0  0  0  0  0
    4.3428  -16.9748  -11.8521 C   0  0  0  0  0  0  0  0  0  0  0  0
    2.7206  -17.0395  -12.7284 S   0  0  2  0  0  0  0  0  0  0  0  0
    2.9668  -15.8120  -14.0292 C   0  0  0  0  0  0  0  0  0  0  0  0
    1.6139  -16.1141  -11.6418 C   0  0  0  0  0  0  0  0  0  0  0  0
    1.4489  -16.8580  -10.3231 C   0  0  1  0  0  0  0  0  0  0  0  0
    2.6146  -16.8024   -9.5148 O   0  0  0  0  0  0  0  0  0  0  0  0
    0.3738  -16.2753   -9.4457 C   0  0  1  0  0  0  0  0  0  0  0  0
   -0.8866  -16.6883   -9.8893 O   0  0  0  0  0  0  0  0  0  0  0  0
    0.7554  -16.8676   -8.1071 C   0  0  1  0  0  0  0  0  0  0  0  0
    0.2549  -18.1845   -7.9966 O   0  0  0  0  0  0  0  0  0  0  0  0
    2.2787  -16.9184   -8.1436 C   0  0  2  0  0  0  0  0  0  0  0  0
    2.9643  -15.8851   -7.3199 N   0  0  0  0  0  0  0  0  0  0  0  0
    2.5208  -14.6007   -7.1284 C   0  0  0  0  0  0  0  0  0  0  0  0
    3.3899  -13.9460   -6.3264 N   0  0  0  0  0  0  0  0  0  0  0  0
    4.3817  -14.7868   -5.9896 C   0  0  0  0  0  0  0  0  0  0  0  0
    5.5048  -14.6290   -5.1919 C   0  0  0  0  0  0  0  0  0  0  0  0
    5.7454  -13.4688   -4.5955 N   0  0  0  0  0  0  0  0  0  0  0  0
    6.3651  -15.6956   -5.0215 N   0  0  0  0  0  0  0  0  0  0  0  0
    6.1203  -16.9191   -5.6322 C   0  0  0  0  0  0  0  0  0  0  0  0
    4.9943  -17.0590   -6.4178 N   0  0  0  0  0  0  0  0  0  0  0  0
    4.1377  -16.0127   -6.6038 C   0  0  0  0  0  0  0  0  0  0  0  0
  2  3  1  6  0  0  0
  2  6  1  0  0  0  0
  2  1  1  0  0  0  0
  4  3  2  0  0  0  0
  5  3  1  0  0  0  0
  6  7  2  0  0  0  0
  8  7  1  1  0  0  0
  8  9  1  0  0  0  0
  8 10  1  0  0  0  0
 11 10  1  6  0  0  0
 11 13  1  0  0  0  0
 12 11  1  0  0  0  0
 12 17  1  0  0  0  0
 13 14  1  6  0  0  0
 13 15  1  0  0  0  0
 15 16  1  6  0  0  0
 17 18  1  1  0  0  0
 17 15  1  0  0  0  0
 18 19  1  0  0  0  0
 20 19  2  0  0  0  0
 21 27  2  0  0  0  0
 21 20  1  0  0  0  0
 22 21  1  0  0  0  0
 23 22  1  0  0  0  0
 24 22  2  0  0  0  0
 24 25  1  0  0  0  0
 25 26  2  0  0  0  0
 26 27  1  0  0  0  0
 27 18  1  0  0  0  0
M  END
>  <CHROM.1>
-6.94529979,-20.60608341,-40.38383395,-65.59601742,71.87821092,84.05766354
3.94574501,-16.15072770,-9.39615634,-1.31350210,0.17673468,1.40603768

>  <Name>
lig.pdb

>  <RI>
0

>  <Rbt.Current_Directory>
/home/itssahil/PROJECTS/Mol_Feturizer/New_Systems/rnas/4b5r

>  <Rbt.Executable>
rbdock ($Id: //depot/dev/client3/rdock/2013.1/src/exe/rbdock.cxx#4 $)

>  <Rbt.Library>
libRbt.so (2013.1, Build901 2013/11/27)

>  <Rbt.Parameter_File>
/export/apps/rDock/src/rDock_2013.1_src/data/scripts/dock_solv.prm

>  <Rbt.Receptor>
prm/pocket_docking_4.prm

>  <SCORE>
-14.9112

>  <SCORE.INTER>
-14.6966

>  <SCORE.INTER.CONST>
1

>  <SCORE.INTER.POLAR>
0

>  <SCORE.INTER.ROT>
6

>  <SCORE.INTER.SOLV>
15.3802

>  <SCORE.INTER.VDW>
-22.5244

>  <SCORE.INTER.norm>
-0.544317

>  <SCORE.INTRA>
-0.214637

>  <SCORE.INTRA.DIHEDRAL>
-2.35751

>  <SCORE.INTRA.DIHEDRAL.0>
10.2917

>  <SCORE.INTRA.POLAR>
0

>  <SCORE.INTRA.POLAR.0>
0

>  <SCORE.INTRA.REPUL>
0

>  <SCORE.INTRA.REPUL.0>
0

>  <SCORE.INTRA.SOLV>
-2.71639

>  <SCORE.INTRA.SOLV.lig_0>
-39.6315

>  <SCORE.INTRA.VDW>
2.32231

>  <SCORE.INTRA.VDW.0>
-4.02152

>  <SCORE.INTRA.norm>
-0.00794952

>  <SCORE.RESTR>
0

>  <SCORE.RESTR.CAVITY>
0

>  <SCORE.RESTR.norm>
0

>  <SCORE.SYSTEM>
0

>  <SCORE.SYSTEM.CONST>
0

>  <SCORE.SYSTEM.DIHEDRAL>
0

>  <SCORE.SYSTEM.SOLV>
0

>  <SCORE.SYSTEM.norm>
0

>  <SCORE.heavy>
27

>  <SCORE.norm>
-0.552266

>  <RMSD>
5.283

$$$$
lig.pdb
 OpenBabel11021811493D
libRbt.so/2013.1/901 2013/11/27
 27 29  0  0  0  0  0  0  0  0999 V2000
    3.2408  -17.5215  -12.0735 N   0  0  0  0  0  0  0  0  0  0  0  0
    2.4288  -16.2693  -12.1545 C   0  0  2  0  0  0  0  0  0  0  0  0
    3.3501  -15.0966  -12.4773 C   0  0  0  0  0  0  0  0  0  0  0  0
    2.9465  -13.9501  -12.3212 O   0  0  0  0  0  0  0  0  0  0  0  0
    4.5031  -15.2468  -12.9013 O   0  0  0  0  0  0  0  0  0  0  0  0
    1.5794  -15.9993  -10.8961 C   0  0  0  0  0  0  0  0  0  0  0  0
    1.6173  -17.0795   -9.7834 C   0  0  0  0  0  0  0  0  0  0  0  0
    0.6185  -16.8218   -8.2539 S   0  0  2  0  0  0  0  0  0  0  0  0
   -1.0255  -16.5359   -8.9433 C   0  0  0  0  0  0  0  0  0  0  0  0
    1.0359  -15.1375   -7.7530 C   0  0  0  0  0  0  0  0  0  0  0  0
    2.4522  -15.1043   -7.1941 C   0  0  1  0  0  0  0  0  0  0  0  0
    3.4180  -15.5696   -8.1247 O   0  0  0  0  0  0  0  0  0  0  0  0
    2.9209  -13.7156   -6.8521 C   0  0  1  0  0  0  0  0  0  0  0  0
    2.3789  -13.3119   -5.6277 O   0  0  0  0  0  0  0  0  0  0  0  0
    4.4170  -13.9323   -6.7965 C   0  0  1  0  0  0  0  0  0  0  0  0
    4.7860  -14.4616   -5.5393 O   0  0  0  0  0  0  0  0  0  0  0  0
    4.6811  -14.9804   -7.8717 C   0  0  2  0  0  0  0  0  0  0  0  0
    5.3056  -14.4608   -9.1193 N   0  0  0  0  0  0  0  0  0  0  0  0
    5.0034  -13.2640   -9.7186 C   0  0  0  0  0  0  0  0  0  0  0  0
    5.7617  -13.1193  -10.8282 N   0  0  0  0  0  0  0  0  0  0  0  0
    6.5541  -14.1968  -10.9513 C   0  0  0  0  0  0  0  0  0  0  0  0
    7.5135  -14.5440  -11.8902 C   0  0  0  0  0  0  0  0  0  0  0  0
    7.7849  -13.7313  -12.9029 N   0  0  0  0  0  0  0  0  0  0  0  0
    8.1864  -15.7421  -11.7542 N   0  0  0  0  0  0  0  0  0  0  0  0
    7.9193  -16.5983  -10.6934 C   0  0  0  0  0  0  0  0  0  0  0  0
    6.9651  -16.2331   -9.7655 N   0  0  0  0  0  0  0  0  0  0  0  0
    6.2846  -15.0564   -9.8892 C   0  0  0  0  0  0  0  0  0  0  0  0
  2  3  1  1  0  0  0
  2  6  1  0  0  0  0
  2  1  1  0  0  0  0
  4  3  2  0  0  0  0
  5  3  1  0  0  0  0
  6  7  2  0  0  0  0
  8  7  1  6  0  0  0
  8  9  1  0  0  0  0
  8 10  1  0  0  0  0
 11 10  1  6  0  0  0
 11 13  1  0  0  0  0
 12 11  1  0  0  0  0
 12 17  1  0  0  0  0
 13 14  1  1  0  0  0
 13 15  1  0  0  0  0
 15 16  1  1  0  0  0
 17 18  1  6  0  0  0
 17 15  1  0  0  0  0
 18 19  1  0  0  0  0
 20 19  2  0  0  0  0
 21 27  2  0  0  0  0
 21 20  1  0  0  0  0
 22 21  1  0  0  0  0
 23 22  1  0  0  0  0
 24 22  2  0  0  0  0
 24 25  1  0  0  0  0
 25 26  2  0  0  0  0
 26 27  1  0  0  0  0
 27 18  1  0  0  0  0
M  END
>  <CHROM.1>
-165.11484880,-3.49259136,54.13018288,-72.48839645,58.04619608,80.49358052
3.95438890,-15.17264559,-9.63362730,0.55968273,-0.30739411,-1.84489277

>  <Name>
lig.pdb

>  <RI>
0

>  <Rbt.Current_Directory>
/home/itssahil/PROJECTS/Mol_Feturizer/New_Systems/rnas/4b5r

>  <Rbt.Executable>
rbdock ($Id: //depot/dev/client3/rdock/2013.1/src/exe/rbdock.cxx#4 $)

>  <Rbt.Library>
libRbt.so (2013.1, Build901 2013/11/27)

>  <Rbt.Parameter_File>
/export/apps/rDock/src/rDock_2013.1_src/data/scripts/dock_solv.prm

>  <Rbt.Receptor>
prm/pocket_docking_4.prm

>  <SCORE>
-15.7247

>  <SCORE.INTER>
-13.8987

>  <SCORE.INTER.CONST>
1

>  <SCORE.INTER.POLAR>
0

>  <SCORE.INTER.ROT>
6

>  <SCORE.INTER.SOLV>
13.8482

>  <SCORE.INTER.VDW>
-21.4819

>  <SCORE.INTER.norm>
-0.514767

>  <SCORE.INTRA>
-1.82602

>  <SCORE.INTRA.DIHEDRAL>
-1.64618

>  <SCORE.INTRA.DIHEDRAL.0>
10.2917

>  <SCORE.INTRA.POLAR>
0

>  <SCORE.INTRA.POLAR.0>
0

>  <SCORE.INTRA.REPUL>
0

>  <SCORE.INTRA.REPUL.0>
0

>  <SCORE.INTRA.SOLV>
-2.01051

>  <SCORE.INTRA.SOLV.lig_0>
-39.6315

>  <SCORE.INTRA.VDW>
0.00231954

>  <SCORE.INTRA.VDW.0>
-4.02152

>  <SCORE.INTRA.norm>
-0.0676305

>  <SCORE.RESTR>
0

>  <SCORE.RESTR.CAVITY>
0

>  <SCORE.RESTR.norm>
0

>  <SCORE.SYSTEM>
0

>  <SCORE.SYSTEM.CONST>
0

>  <SCORE.SYSTEM.DIHEDRAL>
0

>  <SCORE.SYSTEM.SOLV>
0

>  <SCORE.SYSTEM.norm>
0

>  <SCORE.heavy>
27

>  <SCORE.norm>
-0.582398

>  <RMSD>
5.283

$$$$
lig.pdb
 OpenBabel11021811493D
libRbt.so/2013.1/901 2013/11/27
 27 29  0  0  0  0  0  0  0  0999 V2000
    7.5398  -13.7729  -14.1379 N   0  0  0  0  0  0  0  0  0  0  0  0
    6.2452  -13.2072  -13.6500 C   0  0  2  0  0  0  0  0  0  0  0  0
    6.4303  -11.7226  -13.3502 C   0  0  0  0  0  0  0  0  0  0  0  0
    5.7843  -10.8936  -13.9804 O   0  0  0  0  0  0  0  0  0  0  0  0
    7.2176  -11.3051  -12.4913 O   0  0  0  0  0  0  0  0  0  0  0  0
    5.6537  -13.9644  -12.4440 C   0  0  0  0  0  0  0  0  0  0  0  0
    4.1352  -13.7835  -12.1827 C   0  0  0  0  0  0  0  0  0  0  0  0
    3.3649  -14.6566  -10.7516 S   0  0  2  0  0  0  0  0  0  0  0  0
    4.1804  -16.2653  -10.8321 C   0  0  0  0  0  0  0  0  0  0  0  0
    1.7285  -15.1136  -11.3640 C   0  0  0  0  0  0  0  0  0  0  0  0
    0.9715  -15.8770  -10.2852 C   0  0  1  0  0  0  0  0  0  0  0  0
    1.6644  -17.0362   -9.8479 O   0  0  0  0  0  0  0  0  0  0  0  0
    0.7727  -15.0789   -9.0247 C   0  0  1  0  0  0  0  0  0  0  0  0
   -0.2810  -14.1740   -9.1885 O   0  0  0  0  0  0  0  0  0  0  0  0
    0.4582  -16.1847   -8.0416 C   0  0  1  0  0  0  0  0  0  0  0  0
   -0.9052  -16.5448   -8.1334 O   0  0  0  0  0  0  0  0  0  0  0  0
    1.3125  -17.3559   -8.5135 C   0  0  2  0  0  0  0  0  0  0  0  0
    2.5136  -17.6368   -7.6800 N   0  0  0  0  0  0  0  0  0  0  0  0
    3.0155  -18.8845   -7.4072 C   0  0  0  0  0  0  0  0  0  0  0  0
    4.1099  -18.7609   -6.6233 N   0  0  0  0  0  0  0  0  0  0  0  0
    4.3286  -17.4560   -6.3924 C   0  0  0  0  0  0  0  0  0  0  0  0
    5.3075  -16.7900   -5.6708 C   0  0  0  0  0  0  0  0  0  0  0  0
    6.2621  -17.4705   -5.0501 N   0  0  0  0  0  0  0  0  0  0  0  0
    5.2795  -15.4107   -5.6118 N   0  0  0  0  0  0  0  0  0  0  0  0
    4.2914  -14.6848   -6.2649 C   0  0  0  0  0  0  0  0  0  0  0  0
    3.3289  -15.3648   -6.9830 N   0  0  0  0  0  0  0  0  0  0  0  0
    3.3366  -16.7283   -7.0450 C   0  0  0  0  0  0  0  0  0  0  0  0
  2  3  1  1  0  0  0
  2  6  1  0  0  0  0
  2  1  1  0  0  0  0
  4  3  2  0  0  0  0
  5  3  1  0  0  0  0
  6  7  2  0  0  0  0
  8  7  1  6  0  0  0
  8  9  1  0  0  0  0
  8 10  1  0  0  0  0
 11 10  1  6  0  0  0
 11 13  1  0  0  0  0
 12 11  1  0  0  0  0
 12 17  1  0  0  0  0
 13 14  1  6  0  0  0
 13 15  1  0  0  0  0
 15 16  1  6  0  0  0
 17 18  1  1  0  0  0
 17 15  1  0  0  0  0
 18 19  1  0  0  0  0
 20 19  2  0  0  0  0
 21 27  2  0  0  0  0
 21 20  1  0  0  0  0
 22 21  1  0  0  0  0
 23 22  1  0  0  0  0
 24 22  2  0  0  0  0
 24 25  1  0  0  0  0
 25 26  2  0  0  0  0
 26 27  1  0  0  0  0
 27 18  1  0  0  0  0
M  END
>  <CHROM.1>
117.80230982,-159.51795991,-40.75246636,178.93429806,-57.27157747,-96.66658159
3.58631776,-15.33684445,-9.48785245,-1.15415391,0.17569142,2.12406994

>  <Name>
lig.pdb

>  <RI>
0

>  <Rbt.Current_Directory>
/home/itssahil/PROJECTS/Mol_Feturizer/New_Systems/rnas/4b5r

>  <Rbt.Executable>
rbdock ($Id: //depot/dev/client3/rdock/2013.1/src/exe/rbdock.cxx#4 $)

>  <Rbt.Library>
libRbt.so (2013.1, Build901 2013/11/27)

>  <Rbt.Parameter_File>
/export/apps/rDock/src/rDock_2013.1_src/data/scripts/dock_solv.prm

>  <Rbt.Receptor>
prm/pocket_docking_5.prm

>  <SCORE>
-15.076

>  <SCORE.INTER>
-14.6845

>  <SCORE.INTER.CONST>
1

>  <SCORE.INTER.POLAR>
0

>  <SCORE.INTER.ROT>
6

>  <SCORE.INTER.SOLV>
11.3711

>  <SCORE.INTER.VDW>
-21.1801

>  <SCORE.INTER.norm>
-0.543871

>  <SCORE.INTRA>
-0.420796

>  <SCORE.INTRA.DIHEDRAL>
-1.39801

>  <SCORE.INTRA.DIHEDRAL.0>
10.2917

>  <SCORE.INTRA.POLAR>
0

>  <SCORE.INTRA.POLAR.0>
0

>  <SCORE.INTRA.REPUL>
0

>  <SCORE.INTRA.REPUL.0>
0

>  <SCORE.INTRA.SOLV>
-2.48495

>  <SCORE.INTRA.SOLV.lig_0>
-39.6315

>  <SCORE.INTRA.VDW>
1.52068

>  <SCORE.INTRA.VDW.0>
-4.02152

>  <SCORE.INTRA.norm>
-0.015585

>  <SCORE.RESTR>
0.0293596

>  <SCORE.RESTR.CAVITY>
0.0293596

>  <SCORE.RESTR.norm>
0.00108739

>  <SCORE.SYSTEM>
0

>  <SCORE.SYSTEM.CONST>
0

>  <SCORE.SYSTEM.DIHEDRAL>
0

>  <SCORE.SYSTEM.SOLV>
0

>  <SCORE.SYSTEM.norm>
0

>  <SCORE.heavy>
27

>  <SCORE.norm>
-0.558369

>  <RMSD>
5.283

$$$$
lig.pdb
 OpenBabel11021811493D
libRbt.so/2013.1/901 2013/11/27
 27 29  0  0  0  0  0  0  0  0999 V2000
    1.1935  -17.6869  -11.2327 N   0  0  0  0  0  0  0  0  0  0  0  0
    1.8850  -16.4379  -10.7900 C   0  0  2  0  0  0  0  0  0  0  0  0
    3.3920  -16.6194  -10.9460 C   0  0  0  0  0  0  0  0  0  0  0  0
    4.0989  -15.6426  -11.1648 O   0  0  0  0  0  0  0  0  0  0  0  0
    3.9461  -17.7232  -10.8666 O   0  0  0  0  0  0  0  0  0  0  0  0
    1.5076  -15.9937   -9.3624 C   0  0  0  0  0  0  0  0  0  0  0  0
    2.3220  -14.8196   -8.7585 C   0  0  0  0  0  0  0  0  0  0  0  0
    1.9258  -14.2426   -7.0515 S   0  0  2  0  0  0  0  0  0  0  0  0
    1.1100  -12.6672   -7.3860 C   0  0  0  0  0  0  0  0  0  0  0  0
    3.5101  -13.6391   -6.4289 C   0  0  0  0  0  0  0  0  0  0  0  0
    4.4073  -14.8191   -6.0792 C   0  0  1  0  0  0  0  0  0  0  0  0
    4.3918  -15.8311   -7.0746 O   0  0  0  0  0  0  0  0  0  0  0  0
    5.8609  -14.4446   -5.9684 C   0  0  1  0  0  0  0  0  0  0  0  0
    6.1081  -13.8321   -4.7357 O   0  0  0  0  0  0  0  0  0  0  0  0
    6.5094  -15.8053   -6.0959 C   0  0  1  0  0  0  0  0  0  0  0  0
    6.4948  -16.4706   -4.8492 O   0  0  0  0  0  0  0  0  0  0  0  0
    5.6081  -16.5572   -7.0689 C   0  0  2  0  0  0  0  0  0  0  0  0
    6.1587  -16.7189   -8.4425 N   0  0  0  0  0  0  0  0  0  0  0  0
    6.2494  -17.9053   -9.1261 C   0  0  0  0  0  0  0  0  0  0  0  0
    6.7971  -17.6770  -10.3407 N   0  0  0  0  0  0  0  0  0  0  0  0
    7.0535  -16.3637  -10.4570 C   0  0  0  0  0  0  0  0  0  0  0  0
    7.5956  -15.6090  -11.4861 C   0  0  0  0  0  0  0  0  0  0  0  0
    7.9658  -16.1898  -12.6198 N   0  0  0  0  0  0  0  0  0  0  0  0
    7.7392  -14.2459  -11.3182 N   0  0  0  0  0  0  0  0  0  0  0  0
    7.3469  -13.6231  -10.1401 C   0  0  0  0  0  0  0  0  0  0  0  0
    6.8039  -14.3898   -9.1292 N   0  0  0  0  0  0  0  0  0  0  0  0
    6.6625  -15.7396   -9.2750 C   0  0  0  0  0  0  0  0  0  0  0  0
  2  3  1  1  0  0  0
  2  6  1  0  0  0  0
  2  1  1  0  0  0  0
  4  3  2  0  0  0  0
  5  3  1  0  0  0  0
  6  7  2  0  0  0  0
  8  7  1  6  0  0  0
  8  9  1  0  0  0  0
  8 10  1  0  0  0  0
 11 10  1  6  0  0  0
 11 13  1  0  0  0  0
 12 11  1  0  0  0  0
 12 17  1  0  0  0  0
 13 14  1  1  0  0  0
 13 15  1  0  0  0  0
 15 16  1  1  0  0  0
 17 18  1  6  0  0  0
 17 15  1  0  0  0  0
 18 19  1  0  0  0  0
 20 19  2  0  0  0  0
 21 27  2  0  0  0  0
 21 20  1  0  0  0  0
 22 21  1  0  0  0  0
 23 22  1  0  0  0  0
 24 22  2  0  0  0  0
 24 25  1  0  0  0  0
 25 26  2  0  0  0  0
 26 27  1  0  0  0  0
 27 18  1  0  0  0  0
M  END
>  <CHROM.1>
150.95487310,172.00206298,-107.29468542,-75.08456403,44.55467765,-112.01783562
4.81926008,-15.54490203,-8.68860214,0.99081980,0.05768831,-1.91626521

>  <Name>
lig.pdb

>  <RI>
0

>  <Rbt.Current_Directory>
/home/itssahil/PROJECTS/Mol_Feturizer/New_Systems/rnas/4b5r

>  <Rbt.Executable>
rbdock ($Id: //depot/dev/client3/rdock/2013.1/src/exe/rbdock.cxx#4 $)

>  <Rbt.Library>
libRbt.so (2013.1, Build901 2013/11/27)

>  <Rbt.Parameter_File>
/export/apps/rDock/src/rDock_2013.1_src/data/scripts/dock_solv.prm

>  <Rbt.Receptor>
prm/pocket_docking_4.prm

>  <SCORE>
-12.9705

>  <SCORE.INTER>
-11.9299

>  <SCORE.INTER.CONST>
1

>  <SCORE.INTER.POLAR>
0

>  <SCORE.INTER.ROT>
6

>  <SCORE.INTER.SOLV>
13.7764

>  <SCORE.INTER.VDW>
-20.1454

>  <SCORE.INTER.norm>
-0.441848

>  <SCORE.INTRA>
-1.04064

>  <SCORE.INTRA.DIHEDRAL>
1.57433

>  <SCORE.INTRA.DIHEDRAL.0>
10.2917

>  <SCORE.INTRA.POLAR>
0

>  <SCORE.INTRA.POLAR.0>
0

>  <SCORE.INTRA.REPUL>
0

>  <SCORE.INTRA.REPUL.0>
0

>  <SCORE.INTRA.SOLV>
-1.57707

>  <SCORE.INTRA.SOLV.lig_0>
-39.6315

>  <SCORE.INTRA.VDW>
-1.03927

>  <SCORE.INTRA.VDW.0>
-4.02152

>  <SCORE.INTRA.norm>
-0.0385422

>  <SCORE.RESTR>
0

>  <SCORE.RESTR.CAVITY>
0

>  <SCORE.RESTR.norm>
0

>  <SCORE.SYSTEM>
0

>  <SCORE.SYSTEM.CONST>
0

>  <SCORE.SYSTEM.DIHEDRAL>
0

>  <SCORE.SYSTEM.SOLV>
0

>  <SCORE.SYSTEM.norm>
0

>  <SCORE.heavy>
27

>  <SCORE.norm>
-0.48039

>  <RMSD>
5.300

$$$$
lig.pdb
 OpenBabel11021811493D
libRbt.so/2013.1/901 2013/11/27
 27 29  0  0  0  0  0  0  0  0999 V2000
    6.8427  -13.8129  -14.7466 N   0  0  0  0  0  0  0  0  0  0  0  0
    5.7570  -13.0782  -14.0286 C   0  0  2  0  0  0  0  0  0  0  0  0
    6.2127  -11.6459  -13.7655 C   0  0  0  0  0  0  0  0  0  0  0  0
    5.9430  -10.7672  -14.5759 O   0  0  0  0  0  0  0  0  0  0  0  0
    6.8571  -11.3215  -12.7598 O   0  0  0  0  0  0  0  0  0  0  0  0
    5.2874  -13.7752  -12.7358 C   0  0  0  0  0  0  0  0  0  0  0  0
    3.7565  -13.9440  -12.5502 C   0  0  0  0  0  0  0  0  0  0  0  0
    3.1270  -14.7639  -11.0222 S   0  0  2  0  0  0  0  0  0  0  0  0
    4.1287  -16.2654  -10.9825 C   0  0  0  0  0  0  0  0  0  0  0  0
    1.5452  -15.4664  -11.5382 C   0  0  0  0  0  0  0  0  0  0  0  0
    0.8655  -16.1300  -10.3478 C   0  0  1  0  0  0  0  0  0  0  0  0
    1.5895  -17.2491   -9.8591 O   0  0  0  0  0  0  0  0  0  0  0  0
    0.7514  -15.2242   -9.1512 C   0  0  1  0  0  0  0  0  0  0  0  0
   -0.3132  -14.3333   -9.3210 O   0  0  0  0  0  0  0  0  0  0  0  0
    0.5074  -16.2388   -8.0560 C   0  0  1  0  0  0  0  0  0  0  0  0
   -0.8582  -16.6008   -8.0229 O   0  0  0  0  0  0  0  0  0  0  0  0
    1.3303  -17.4499   -8.4811 C   0  0  2  0  0  0  0  0  0  0  0  0
    2.5862  -17.6613   -7.7101 N   0  0  0  0  0  0  0  0  0  0  0  0
    3.2037  -18.8712   -7.5164 C   0  0  0  0  0  0  0  0  0  0  0  0
    4.3168  -18.6872   -6.7717 N   0  0  0  0  0  0  0  0  0  0  0  0
    4.4337  -17.3794   -6.4886 C   0  0  0  0  0  0  0  0  0  0  0  0
    5.3830  -16.6628   -5.7760 C   0  0  0  0  0  0  0  0  0  0  0  0
    6.4181  -17.2841   -5.2265 N   0  0  0  0  0  0  0  0  0  0  0  0
    5.2404  -15.2950   -5.6512 N   0  0  0  0  0  0  0  0  0  0  0  0
    4.1666  -14.6301   -6.2296 C   0  0  0  0  0  0  0  0  0  0  0  0
    3.2349  -15.3593   -6.9400 N   0  0  0  0  0  0  0  0  0  0  0  0
    3.3558  -16.7131   -7.0663 C   0  0  0  0  0  0  0  0  0  0  0  0
  2  3  1  1  0  0  0
  2  6  1  0  0  0  0
  2  1  1  0  0  0  0
  4  3  2  0  0  0  0
  5  3  1  0  0  0  0
  6  7  2  0  0  0  0
  8  7  1  6  0  0  0
  8  9  1  0  0  0  0
  8 10  1  0  0  0  0
 11 10  1  6  0  0  0
 11 13  1  0  0  0  0
 12 11  1  0  0  0  0
 12 17  1  0  0  0  0
 13 14  1  6  0  0  0
 13 15  1  0  0  0  0
 15 16  1  6  0  0  0
 17 18  1  1  0  0  0
 17 15  1  0  0  0  0
 18 19  1  0  0  0  0
 20 19  2  0  0  0  0
 21 27  2  0  0  0  0
 21 20  1  0  0  0  0
 22 21  1  0  0  0  0
 23 22  1  0  0  0  0
 24 22  2  0  0  0  0
 24 25  1  0  0  0  0
 25 26  2  0  0  0  0
 26 27  1  0  0  0  0
 27 18  1  0  0  0  0
M  END
>  <CHROM.1>
92.32042348,-131.32369285,-50.06083965,-177.34234236,-64.94192465,-87.45479226
3.49172871,-15.36161210,-9.65575128,-1.21617793,0.22594355,2.08775052

>  <Name>
lig.pdb

>  <RI>
0

>  <Rbt.Current_Directory>
/home/itssahil/PROJECTS/Mol_Feturizer/New_Systems/rnas/4b5r

>  <Rbt.Executable>
rbdock ($Id: //depot/dev/client3/rdock/2013.1/src/exe/rbdock.cxx#4 $)

>  <Rbt.Library>
libRbt.so (2013.1, Build901 2013/11/27)

>  <Rbt.Parameter_File>
/export/apps/rDock/src/rDock_2013.1_src/data/scripts/dock_solv.prm

>  <Rbt.Receptor>
prm/blind_docking_40.prm

>  <SCORE>
-15.132

>  <SCORE.INTER>
-13.7217

>  <SCORE.INTER.CONST>
1

>  <SCORE.INTER.POLAR>
0

>  <SCORE.INTER.ROT>
6

>  <SCORE.INTER.SOLV>
11.0307

>  <SCORE.INTER.VDW>
-20.4247

>  <SCORE.INTER.norm>
-0.508209

>  <SCORE.INTRA>
-1.41742

>  <SCORE.INTRA.DIHEDRAL>
-2.81185

>  <SCORE.INTRA.DIHEDRAL.0>
10.2917

>  <SCORE.INTRA.POLAR>
0

>  <SCORE.INTRA.POLAR.0>
0

>  <SCORE.INTRA.REPUL>
0

>  <SCORE.INTRA.REPUL.0>
0

>  <SCORE.INTRA.SOLV>
-2.60522

>  <SCORE.INTRA.SOLV.lig_0>
-39.6315

>  <SCORE.INTRA.VDW>
1.29112

>  <SCORE.INTRA.VDW.0>
-4.02152

>  <SCORE.INTRA.norm>
-0.0524971

>  <SCORE.RESTR>
0.00705689

>  <SCORE.RESTR.CAVITY>
0.00705689

>  <SCORE.RESTR.norm>
0.000261366

>  <SCORE.SYSTEM>
0

>  <SCORE.SYSTEM.CONST>
0

>  <SCORE.SYSTEM.DIHEDRAL>
0

>  <SCORE.SYSTEM.SOLV>
0

>  <SCORE.SYSTEM.norm>
0

>  <SCORE.heavy>
27

>  <SCORE.norm>
-0.560445

>  <RMSD>
5.305

$$$$
lig.pdb
 OpenBabel11021811493D
libRbt.so/2013.1/901 2013/11/27
 27 29  0  0  0  0  0  0  0  0999 V2000
    6.7786  -16.9589  -10.3994 N   0  0  0  0  0  0  0  0  0  0  0  0
    6.9531  -17.2422  -11.8566 C   0  0  2  0  0  0  0  0  0  0  0  0
    7.9411  -16.2396  -12.4454 C   0  0  0  0  0  0  0  0  0  0  0  0
    8.4132  -15.3643  -11.7294 O   0  0  0  0  0  0  0  0  0  0  0  0
    8.2924  -16.2624  -13.6320 O   0  0  0  0  0  0  0  0  0  0  0  0
    5.6282  -17.2696  -12.6452 C   0  0  0  0  0  0  0  0  0  0  0  0
    4.3273  -17.0369  -11.8328 C   0  0  0  0  0  0  0  0  0  0  0  0
    2.7069  -17.0636  -12.7143 S   0  0  2  0  0  0  0  0  0  0  0  0
    2.9795  -15.8289  -14.0029 C   0  0  0  0  0  0  0  0  0  0  0  0
    1.6141  -16.1282  -11.6223 C   0  0  0  0  0  0  0  0  0  0  0  0
    1.4290  -16.8826  -10.3123 C   0  0  1  0  0  0  0  0  0  0  0  0
    2.5974  -16.8720   -9.5059 O   0  0  0  0  0  0  0  0  0  0  0  0
    0.3736  -16.2783   -9.4256 C   0  0  1  0  0  0  0  0  0  0  0  0
   -0.8995  -16.6477   -9.8714 O   0  0  0  0  0  0  0  0  0  0  0  0
    0.7395  -16.8980   -8.0950 C   0  0  1  0  0  0  0  0  0  0  0  0
    0.1996  -18.2004   -7.9993 O   0  0  0  0  0  0  0  0  0  0  0  0
    2.2606  -16.9943   -8.1354 C   0  0  2  0  0  0  0  0  0  0  0  0
    2.9786  -15.9922   -7.3009 N   0  0  0  0  0  0  0  0  0  0  0  0
    2.5222  -14.7320   -7.0066 C   0  0  0  0  0  0  0  0  0  0  0  0
    3.4297  -14.1020   -6.2277 N   0  0  0  0  0  0  0  0  0  0  0  0
    4.4594  -14.9356   -6.0065 C   0  0  0  0  0  0  0  0  0  0  0  0
    5.6304  -14.7950   -5.2775 C   0  0  0  0  0  0  0  0  0  0  0  0
    5.8866  -13.6645   -4.6325 N   0  0  0  0  0  0  0  0  0  0  0  0
    6.5224  -15.8478   -5.2264 N   0  0  0  0  0  0  0  0  0  0  0  0
    6.2626  -17.0408   -5.8890 C   0  0  0  0  0  0  0  0  0  0  0  0
    5.0891  -17.1642   -6.6048 N   0  0  0  0  0  0  0  0  0  0  0  0
    4.2002  -16.1307   -6.6729 C   0  0  0  0  0  0  0  0  0  0  0  0
  2  3  1  6  0  0  0
  2  6  1  0  0  0  0
  2  1  1  0  0  0  0
  4  3  2  0  0  0  0
  5  3  1  0  0  0  0
  6  7  2  0  0  0  0
  8  7  1  1  0  0  0
  8  9  1  0  0  0  0
  8 10  1  0  0  0  0
 11 10  1  6  0  0  0
 11 13  1  0  0  0  0
 12 11  1  0  0  0  0
 12 17  1  0  0  0  0
 13 14  1  6  0  0  0
 13 15  1  0  0  0  0
 15 16  1  6  0  0  0
 17 18  1  1  0  0  0
 17 15  1  0  0  0  0
 18 19  1  0  0  0  0
 20 19  2  0  0  0  0
 21 27  2  0  0  0  0
 21 20  1  0  0  0  0
 22 21  1  0  0  0  0
 23 22  1  0  0  0  0
 24 22  2  0  0  0  0
 24 25  1  0  0  0  0
 25 26  2  0  0  0  0
 26 27  1  0  0  0  0
 27 18  1  0  0  0  0
M  END
>  <CHROM.1>
-1.90003700,-1.29394115,-54.83098986,-65.71657676,71.17566827,89.51997685
3.95954325,-16.29523290,-9.38859800,-1.33710452,0.12532413,1.39566556

>  <Name>
lig.pdb

>  <RI>
0

>  <Rbt.Current_Directory>
/home/itssahil/PROJECTS/Mol_Feturizer/New_Systems/rnas/4b5r

>  <Rbt.Executable>
rbdock ($Id: //depot/dev/client3/rdock/2013.1/src/exe/rbdock.cxx#4 $)

>  <Rbt.Library>
libRbt.so (2013.1, Build901 2013/11/27)

>  <Rbt.Parameter_File>
/export/apps/rDock/src/rDock_2013.1_src/data/scripts/dock_solv.prm

>  <Rbt.Receptor>
prm/pocket_docking_3.prm

>  <SCORE>
-15.415

>  <SCORE.INTER>
-14.9419

>  <SCORE.INTER.CONST>
1

>  <SCORE.INTER.POLAR>
0

>  <SCORE.INTER.ROT>
6

>  <SCORE.INTER.SOLV>
15.5923

>  <SCORE.INTER.VDW>
-22.7587

>  <SCORE.INTER.norm>
-0.553405

>  <SCORE.INTRA>
-0.473029

>  <SCORE.INTRA.DIHEDRAL>
-2.94458

>  <SCORE.INTRA.DIHEDRAL.0>
10.2917

>  <SCORE.INTRA.POLAR>
0

>  <SCORE.INTRA.POLAR.0>
0

>  <SCORE.INTRA.REPUL>
0

>  <SCORE.INTRA.REPUL.0>
0

>  <SCORE.INTRA.SOLV>
-2.43115

>  <SCORE.INTRA.SOLV.lig_0>
-39.6315

>  <SCORE.INTRA.VDW>
2.21484

>  <SCORE.INTRA.VDW.0>
-4.02152

>  <SCORE.INTRA.norm>
-0.0175196

>  <SCORE.RESTR>
0

>  <SCORE.RESTR.CAVITY>
0

>  <SCORE.RESTR.norm>
0

>  <SCORE.SYSTEM>
0

>  <SCORE.SYSTEM.CONST>
0

>  <SCORE.SYSTEM.DIHEDRAL>
0

>  <SCORE.SYSTEM.SOLV>
0

>  <SCORE.SYSTEM.norm>
0

>  <SCORE.heavy>
27

>  <SCORE.norm>
-0.570925

>  <RMSD>
5.309

$$$$
lig.pdb
 OpenBabel11021811493D
libRbt.so/2013.1/901 2013/11/27
 27 29  0  0  0  0  0  0  0  0999 V2000
    4.3161  -15.9148  -14.6210 N   0  0  0  0  0  0  0  0  0  0  0  0
    3.7324  -16.3470  -13.3147 C   0  0  2  0  0  0  0  0  0  0  0  0
    2.7958  -15.2574  -12.8013 C   0  0  0  0  0  0  0  0  0  0  0  0
    1.6065  -15.5076  -12.6436 O   0  0  0  0  0  0  0  0  0  0  0  0
    3.1817  -14.1117  -12.5361 O   0  0  0  0  0  0  0  0  0  0  0  0
    4.7901  -16.7345  -12.2616 C   0  0  0  0  0  0  0  0  0  0  0  0
    4.5841  -18.0869  -11.5301 C   0  0  0  0  0  0  0  0  0  0  0  0
    5.8097  -18.6076  -10.2533 S   0  0  2  0  0  0  0  0  0  0  0  0
    6.6775  -19.9382  -11.1112 C   0  0  0  0  0  0  0  0  0  0  0  0
    4.8266  -19.5829   -9.0939 C   0  0  0  0  0  0  0  0  0  0  0  0
    5.6826  -19.9720   -7.8959 C   0  0  1  0  0  0  0  0  0  0  0  0
    6.4424  -18.8843   -7.3908 O   0  0  0  0  0  0  0  0  0  0  0  0
    4.8718  -20.4259   -6.7119 C   0  0  1  0  0  0  0  0  0  0  0  0
    4.4477  -21.7459   -6.8958 O   0  0  0  0  0  0  0  0  0  0  0  0
    5.8908  -20.2788   -5.6036 C   0  0  1  0  0  0  0  0  0  0  0  0
    6.7385  -21.4090   -5.5681 O   0  0  0  0  0  0  0  0  0  0  0  0
    6.7094  -19.0587   -6.0106 C   0  0  2  0  0  0  0  0  0  0  0  0
    6.4248  -17.8206   -5.2345 N   0  0  0  0  0  0  0  0  0  0  0  0
    6.9910  -17.4929   -4.0282 C   0  0  0  0  0  0  0  0  0  0  0  0
    6.5024  -16.3013   -3.6177 N   0  0  0  0  0  0  0  0  0  0  0  0
    5.6378  -15.8497   -4.5411 C   0  0  0  0  0  0  0  0  0  0  0  0
    4.8775  -14.6926   -4.6168 C   0  0  0  0  0  0  0  0  0  0  0  0
    4.9376  -13.7868   -3.6496 N   0  0  0  0  0  0  0  0  0  0  0  0
    4.0627  -14.4928   -5.7136 N   0  0  0  0  0  0  0  0  0  0  0  0
    3.9972  -15.4283   -6.7384 C   0  0  0  0  0  0  0  0  0  0  0  0
    4.7657  -16.5711   -6.6483 N   0  0  0  0  0  0  0  0  0  0  0  0
    5.5702  -16.7887   -5.5673 C   0  0  0  0  0  0  0  0  0  0  0  0
  2  3  1  1  0  0  0
  2  6  1  0  0  0  0
  2  1  1  0  0  0  0
  4  3  2  0  0  0  0
  5  3  1  0  0  0  0
  6  7  2  0  0  0  0
  8  7  1  6  0  0  0
  8  9  1  0  0  0  0
  8 10  1  0  0  0  0
 11 10  1  6  0  0  0
 11 13  1  0  0  0  0
 12 11  1  0  0  0  0
 12 17  1  0  0  0  0
 13 14  1  6  0  0  0
 13 15  1  0  0  0  0
 15 16  1  6  0  0  0
 17 18  1  1  0  0  0
 17 15  1  0  0  0  0
 18 19  1  0  0  0  0
 20 19  2  0  0  0  0
 21 27  2  0  0  0  0
 21 20  1  0  0  0  0
 22 21  1  0  0  0  0
 23 22  1  0  0  0  0
 24 22  2  0  0  0  0
 24 25  1  0  0  0  0
 25 26  2  0  0  0  0
 26 27  1  0  0  0  0
 27 18  1  0  0  0  0
M  END
>  <CHROM.1>
118.24535821,-130.88553482,-107.54650273,-174.37975096,45.75208400,-155.73260185
5.09580595,-17.55020809,-8.17720844,2.38523274,1.20650363,-2.16194979

>  <Name>
lig.pdb

>  <RI>
0

>  <Rbt.Current_Directory>
/home/itssahil/PROJECTS/Mol_Feturizer/New_Systems/rnas/4b5r

>  <Rbt.Executable>
rbdock ($Id: //depot/dev/client3/rdock/2013.1/src/exe/rbdock.cxx#4 $)

>  <Rbt.Library>
libRbt.so (2013.1, Build901 2013/11/27)

>  <Rbt.Parameter_File>
/export/apps/rDock/src/rDock_2013.1_src/data/scripts/dock_solv.prm

>  <Rbt.Receptor>
prm/pocket_docking_8.prm

>  <SCORE>
-12.2359

>  <SCORE.INTER>
-11.5455

>  <SCORE.INTER.CONST>
1

>  <SCORE.INTER.POLAR>
0

>  <SCORE.INTER.ROT>
6

>  <SCORE.INTER.SOLV>
15.5957

>  <SCORE.INTER.VDW>
-20.4955

>  <SCORE.INTER.norm>
-0.42761

>  <SCORE.INTRA>
-0.690393

>  <SCORE.INTRA.DIHEDRAL>
-0.567726

>  <SCORE.INTRA.DIHEDRAL.0>
10.2917

>  <SCORE.INTRA.POLAR>
0

>  <SCORE.INTRA.POLAR.0>
0

>  <SCORE.INTRA.REPUL>
0

>  <SCORE.INTRA.REPUL.0>
0

>  <SCORE.INTRA.SOLV>
-2.81142

>  <SCORE.INTRA.SOLV.lig_0>
-39.6315

>  <SCORE.INTRA.VDW>
0.999181

>  <SCORE.INTRA.VDW.0>
-4.02152

>  <SCORE.INTRA.norm>
-0.0255701

>  <SCORE.RESTR>
0

>  <SCORE.RESTR.CAVITY>
0

>  <SCORE.RESTR.norm>
0

>  <SCORE.SYSTEM>
0

>  <SCORE.SYSTEM.CONST>
0

>  <SCORE.SYSTEM.DIHEDRAL>
0

>  <SCORE.SYSTEM.SOLV>
0

>  <SCORE.SYSTEM.norm>
0

>  <SCORE.heavy>
27

>  <SCORE.norm>
-0.45318

>  <RMSD>
5.310

$$$$
lig.pdb
 OpenBabel11021811493D
libRbt.so/2013.1/901 2013/11/27
 27 29  0  0  0  0  0  0  0  0999 V2000
    7.9614  -16.5650  -12.0101 N   0  0  0  0  0  0  0  0  0  0  0  0
    6.8129  -15.6433  -11.7543 C   0  0  2  0  0  0  0  0  0  0  0  0
    6.5475  -15.5807  -10.2531 C   0  0  0  0  0  0  0  0  0  0  0  0
    6.9586  -16.4796   -9.5286 O   0  0  0  0  0  0  0  0  0  0  0  0
    5.9225  -14.6545   -9.7207 O   0  0  0  0  0  0  0  0  0  0  0  0
    5.5398  -16.0058  -12.5452 C   0  0  0  0  0  0  0  0  0  0  0  0
    4.3147  -16.4766  -11.7182 C   0  0  0  0  0  0  0  0  0  0  0  0
    2.7612  -16.9320  -12.6031 S   0  0  2  0  0  0  0  0  0  0  0  0
    2.8195  -15.8203  -14.0245 C   0  0  0  0  0  0  0  0  0  0  0  0
    1.4687  -16.1223  -11.6359 C   0  0  0  0  0  0  0  0  0  0  0  0
    1.1262  -16.9751  -10.4214 C   0  0  1  0  0  0  0  0  0  0  0  0
    2.2793  -17.4143   -9.7194 O   0  0  0  0  0  0  0  0  0  0  0  0
    0.3324  -16.2314   -9.3812 C   0  0  1  0  0  0  0  0  0  0  0  0
   -1.0107  -16.1548   -9.7636 O   0  0  0  0  0  0  0  0  0  0  0  0
    0.5565  -17.1160   -8.1747 C   0  0  1  0  0  0  0  0  0  0  0  0
   -0.3367  -18.2107   -8.2007 O   0  0  0  0  0  0  0  0  0  0  0  0
    1.9795  -17.6337   -8.3524 C   0  0  2  0  0  0  0  0  0  0  0  0
    2.9941  -17.0093   -7.4596 N   0  0  0  0  0  0  0  0  0  0  0  0
    4.0542  -17.6636   -6.8843 C   0  0  0  0  0  0  0  0  0  0  0  0
    4.7651  -16.7876   -6.1395 N   0  0  0  0  0  0  0  0  0  0  0  0
    4.1883  -15.5781   -6.2307 C   0  0  0  0  0  0  0  0  0  0  0  0
    4.5140  -14.3480   -5.6801 C   0  0  0  0  0  0  0  0  0  0  0  0
    5.5795  -14.2242   -4.8996 N   0  0  0  0  0  0  0  0  0  0  0  0
    3.7197  -13.2535   -5.9593 N   0  0  0  0  0  0  0  0  0  0  0  0
    2.6066  -13.3666   -6.7827 C   0  0  0  0  0  0  0  0  0  0  0  0
    2.3015  -14.5978   -7.3263 N   0  0  0  0  0  0  0  0  0  0  0  0
    3.0709  -15.6919   -7.0541 C   0  0  0  0  0  0  0  0  0  0  0  0
  2  3  1  1  0  0  0
  2  6  1  0  0  0  0
  2  1  1  0  0  0  0
  4  3  2  0  0  0  0
  5  3  1  0  0  0  0
  6  7  2  0  0  0  0
  8  7  1  1  0  0  0
  8  9  1  0  0  0  0
  8 10  1  0  0  0  0
 11 10  1  6  0  0  0
 11 13  1  0  0  0  0
 12 11  1  0  0  0  0
 12 17  1  0  0  0  0
 13 14  1  6  0  0  0
 13 15  1  0  0  0  0
 15 16  1  6  0  0  0
 17 18  1  1  0  0  0
 17 15  1  0  0  0  0
 18 19  1  0  0  0  0
 20 19  2  0  0  0  0
 21 27  2  0  0  0  0
 21 20  1  0  0  0  0
 22 21  1  0  0  0  0
 23 22  1  0  0  0  0
 24 22  2  0  0  0  0
 24 25  1  0  0  0  0
 25 26  2  0  0  0  0
 26 27  1  0  0  0  0
 27 18  1  0  0  0  0
M  END
>  <CHROM.1>
-20.41585045,113.80584707,-31.88153780,-81.56910103,47.69524546,-97.67869060
3.40945458,-16.08321784,-9.25573985,-1.46829133,0.21737795,1.35673463

>  <Name>
lig.pdb

>  <RI>
0

>  <Rbt.Current_Directory>
/home/itssahil/PROJECTS/Mol_Feturizer/New_Systems/rnas/4b5r

>  <Rbt.Executable>
rbdock ($Id: //depot/dev/client3/rdock/2013.1/src/exe/rbdock.cxx#4 $)

>  <Rbt.Library>
libRbt.so (2013.1, Build901 2013/11/27)

>  <Rbt.Parameter_File>
/export/apps/rDock/src/rDock_2013.1_src/data/scripts/dock_solv.prm

>  <Rbt.Receptor>
prm/pocket_docking_2.prm

>  <SCORE>
-12.0911

>  <SCORE.INTER>
-11.7177

>  <SCORE.INTER.CONST>
1

>  <SCORE.INTER.POLAR>
0

>  <SCORE.INTER.ROT>
6

>  <SCORE.INTER.SOLV>
17.274

>  <SCORE.INTER.VDW>
-21.1698

>  <SCORE.INTER.norm>
-0.433988

>  <SCORE.INTRA>
-0.890103

>  <SCORE.INTRA.DIHEDRAL>
-2.35401

>  <SCORE.INTRA.DIHEDRAL.0>
10.2917

>  <SCORE.INTRA.POLAR>
0

>  <SCORE.INTRA.POLAR.0>
0

>  <SCORE.INTRA.REPUL>
0

>  <SCORE.INTRA.REPUL.0>
0

>  <SCORE.INTRA.SOLV>
-2.58662

>  <SCORE.INTRA.SOLV.lig_0>
-39.6315

>  <SCORE.INTRA.VDW>
1.58021

>  <SCORE.INTRA.VDW.0>
-4.02152

>  <SCORE.INTRA.norm>
-0.0329668

>  <SCORE.RESTR>
0.516714

>  <SCORE.RESTR.CAVITY>
0.516714

>  <SCORE.RESTR.norm>
0.0191376

>  <SCORE.SYSTEM>
0

>  <SCORE.SYSTEM.CONST>
0

>  <SCORE.SYSTEM.DIHEDRAL>
0

>  <SCORE.SYSTEM.SOLV>
0

>  <SCORE.SYSTEM.norm>
0

>  <SCORE.heavy>
27

>  <SCORE.norm>
-0.447817

>  <RMSD>
5.311

$$$$
lig.pdb
 OpenBabel11021811493D
libRbt.so/2013.1/901 2013/11/27
 27 29  0  0  0  0  0  0  0  0999 V2000
    8.0963  -15.1139  -13.1723 N   0  0  0  0  0  0  0  0  0  0  0  0
    6.7409  -15.0876  -13.8017 C   0  0  2  0  0  0  0  0  0  0  0  0
    6.5413  -13.7466  -14.5017 C   0  0  0  0  0  0  0  0  0  0  0  0
    7.4740  -12.9545  -14.5679 O   0  0  0  0  0  0  0  0  0  0  0  0
    5.4645  -13.4096  -15.0105 O   0  0  0  0  0  0  0  0  0  0  0  0
    5.5946  -15.3946  -12.8170 C   0  0  0  0  0  0  0  0  0  0  0  0
    4.4226  -16.2558  -13.3567 C   0  0  0  0  0  0  0  0  0  0  0  0
    3.0155  -16.6546  -12.2323 S   0  0  2  0  0  0  0  0  0  0  0  0
    1.5992  -16.1992  -13.2551 C   0  0  0  0  0  0  0  0  0  0  0  0
    3.0025  -15.2776  -11.0636 C   0  0  0  0  0  0  0  0  0  0  0  0
    2.2245  -15.6715   -9.8150 C   0  0  1  0  0  0  0  0  0  0  0  0
    2.8524  -16.7158   -9.0867 O   0  0  0  0  0  0  0  0  0  0  0  0
    2.1074  -14.5538   -8.8138 C   0  0  1  0  0  0  0  0  0  0  0  0
    1.1099  -13.6562   -9.2082 O   0  0  0  0  0  0  0  0  0  0  0  0
    1.7466  -15.3324   -7.5681 C   0  0  1  0  0  0  0  0  0  0  0  0
    0.3612  -15.6106   -7.5517 O   0  0  0  0  0  0  0  0  0  0  0  0
    2.5129  -16.6424   -7.7134 C   0  0  2  0  0  0  0  0  0  0  0  0
    3.7133  -16.7710   -6.8423 N   0  0  0  0  0  0  0  0  0  0  0  0
    4.3312  -17.9511   -6.5126 C   0  0  0  0  0  0  0  0  0  0  0  0
    5.3859  -17.6901   -5.7083 N   0  0  0  0  0  0  0  0  0  0  0  0
    5.4653  -16.3626   -5.5200 C   0  0  0  0  0  0  0  0  0  0  0  0
    6.3520  -15.5763   -4.8003 C   0  0  0  0  0  0  0  0  0  0  0  0
    7.3534  -16.1346   -4.1332 N   0  0  0  0  0  0  0  0  0  0  0  0
    6.1831  -14.2058   -4.7922 N   0  0  0  0  0  0  0  0  0  0  0  0
    5.1447  -13.6070   -5.4942 C   0  0  0  0  0  0  0  0  0  0  0  0
    4.2756  -14.4054   -6.2095 N   0  0  0  0  0  0  0  0  0  0  0  0
    4.4228  -15.7624   -6.2217 C   0  0  0  0  0  0  0  0  0  0  0  0
  2  3  1  1  0  0  0
  2  6  1  0  0  0  0
  2  1  1  0  0  0  0
  4  3  2  0  0  0  0
  5  3  1  0  0  0  0
  6  7  2  0  0  0  0
  8  7  1  6  0  0  0
  8  9  1  0  0  0  0
  8 10  1  0  0  0  0
 11 10  1  6  0  0  0
 11 13  1  0  0  0  0
 12 11  1  0  0  0  0
 12 17  1  0  0  0  0
 13 14  1  6  0  0  0
 13 15  1  0  0  0  0
 15 16  1  6  0  0  0
 17 18  1  1  0  0  0
 17 15  1  0  0  0  0
 18 19  1  0  0  0  0
 20 19  2  0  0  0  0
 21 27  2  0  0  0  0
 21 20  1  0  0  0  0
 22 21  1  0  0  0  0
 23 22  1  0  0  0  0
 24 22  2  0  0  0  0
 24 25  1  0  0  0  0
 25 26  2  0  0  0  0
 26 27  1  0  0  0  0
 27 18  1  0  0  0  0
M  END
>  <CHROM.1>
5.95177649,-141.61857099,130.21253079,-161.14864167,65.39574709,-79.88567277
4.24305706,-15.46617741,-9.46987613,-1.47878838,0.19002036,1.68285957

>  <Name>
lig.pdb

>  <RI>
0

>  <Rbt.Current_Directory>
/home/itssahil/PROJECTS/Mol_Feturizer/New_Systems/rnas/4b5r

>  <Rbt.Executable>
rbdock ($Id: //depot/dev/client3/rdock/2013.1/src/exe/rbdock.cxx#4 $)

>  <Rbt.Library>
libRbt.so (2013.1, Build901 2013/11/27)

>  <Rbt.Parameter_File>
/export/apps/rDock/src/rDock_2013.1_src/data/scripts/dock_solv.prm

>  <Rbt.Receptor>
prm/pocket_docking_4.prm

>  <SCORE>
-12.223

>  <SCORE.INTER>
-11.8825

>  <SCORE.INTER.CONST>
1

>  <SCORE.INTER.POLAR>
0

>  <SCORE.INTER.ROT>
6

>  <SCORE.INTER.SOLV>
12.802

>  <SCORE.INTER.VDW>
-19.789

>  <SCORE.INTER.norm>
-0.440093

>  <SCORE.INTRA>
-0.350172

>  <SCORE.INTRA.DIHEDRAL>
-0.766634

>  <SCORE.INTRA.DIHEDRAL.0>
10.2917

>  <SCORE.INTRA.POLAR>
0

>  <SCORE.INTRA.POLAR.0>
0

>  <SCORE.INTRA.REPUL>
0

>  <SCORE.INTRA.REPUL.0>
0

>  <SCORE.INTRA.SOLV>
-3.10626

>  <SCORE.INTRA.SOLV.lig_0>
-39.6315

>  <SCORE.INTRA.VDW>
1.58627

>  <SCORE.INTRA.VDW.0>
-4.02152

>  <SCORE.INTRA.norm>
-0.0129693

>  <SCORE.RESTR>
0.00972353

>  <SCORE.RESTR.CAVITY>
0.00972353

>  <SCORE.RESTR.norm>
0.000360131

>  <SCORE.SYSTEM>
0

>  <SCORE.SYSTEM.CONST>
0

>  <SCORE.SYSTEM.DIHEDRAL>
0

>  <SCORE.SYSTEM.SOLV>
0

>  <SCORE.SYSTEM.norm>
0

>  <SCORE.heavy>
27

>  <SCORE.norm>
-0.452702

>  <RMSD>
5.322

$$$$
lig.pdb
 OpenBabel11021811493D
libRbt.so/2013.1/901 2013/11/27
 27 29  0  0  0  0  0  0  0  0999 V2000
    5.3874  -14.5923  -17.1018 N   0  0  0  0  0  0  0  0  0  0  0  0
    5.3807  -14.2201  -15.6543 C   0  0  2  0  0  0  0  0  0  0  0  0
    6.8139  -13.9640  -15.1978 C   0  0  0  0  0  0  0  0  0  0  0  0
    7.7060  -14.7266  -15.5505 O   0  0  0  0  0  0  0  0  0  0  0  0
    7.1263  -13.0112  -14.4722 O   0  0  0  0  0  0  0  0  0  0  0  0
    4.6692  -15.2496  -14.7532 C   0  0  0  0  0  0  0  0  0  0  0  0
    3.9413  -14.6956  -13.5003 C   0  0  0  0  0  0  0  0  0  0  0  0
    3.0754  -15.8745  -12.3761 S   0  0  2  0  0  0  0  0  0  0  0  0
    1.5956  -16.2626  -13.3349 C   0  0  0  0  0  0  0  0  0  0  0  0
    2.3496  -14.8038  -11.1157 C   0  0  0  0  0  0  0  0  0  0  0  0
    1.5395  -15.6415  -10.1351 C   0  0  1  0  0  0  0  0  0  0  0  0
    2.2506  -16.7791   -9.6709 O   0  0  0  0  0  0  0  0  0  0  0  0
    1.1850  -14.8990   -8.8748 C   0  0  1  0  0  0  0  0  0  0  0  0
    0.1039  -14.0430   -9.1078 O   0  0  0  0  0  0  0  0  0  0  0  0
    0.8419  -16.0530   -7.9589 C   0  0  1  0  0  0  0  0  0  0  0  0
   -0.4864  -16.4777   -8.1872 O   0  0  0  0  0  0  0  0  0  0  0  0
    1.7966  -17.1626   -8.3850 C   0  0  2  0  0  0  0  0  0  0  0  0
    2.9304  -17.4119   -7.4530 N   0  0  0  0  0  0  0  0  0  0  0  0
    3.3847  -18.6487   -7.0697 C   0  0  0  0  0  0  0  0  0  0  0  0
    4.4243  -18.4956   -6.2192 N   0  0  0  0  0  0  0  0  0  0  0  0
    4.6548  -17.1828   -6.0535 C   0  0  0  0  0  0  0  0  0  0  0  0
    5.5954  -16.4902   -5.3063 C   0  0  0  0  0  0  0  0  0  0  0  0
    6.4894  -17.1472   -4.5793 N   0  0  0  0  0  0  0  0  0  0  0  0
    5.5934  -15.1096   -5.3337 N   0  0  0  0  0  0  0  0  0  0  0  0
    4.6692  -14.4088   -6.0982 C   0  0  0  0  0  0  0  0  0  0  0  0
    3.7444  -15.1153   -6.8399 N   0  0  0  0  0  0  0  0  0  0  0  0
    3.7267  -16.4800   -6.8179 C   0  0  0  0  0  0  0  0  0  0  0  0
  2  3  1  1  0  0  0
  2  6  1  0  0  0  0
  2  1  1  0  0  0  0
  4  3  2  0  0  0  0
  5  3  1  0  0  0  0
  6  7  2  0  0  0  0
  8  7  1  6  0  0  0
  8  9  1  0  0  0  0
  8 10  1  0  0  0  0
 11 10  1  6  0  0  0
 11 13  1  0  0  0  0
 12 11  1  0  0  0  0
 12 17  1  0  0  0  0
 13 14  1  6  0  0  0
 13 15  1  0  0  0  0
 15 16  1  6  0  0  0
 17 18  1  1  0  0  0
 17 15  1  0  0  0  0
 18 19  1  0  0  0  0
 20 19  2  0  0  0  0
 21 27  2  0  0  0  0
 21 20  1  0  0  0  0
 22 21  1  0  0  0  0
 23 22  1  0  0  0  0
 24 22  2  0  0  0  0
 24 25  1  0  0  0  0
 25 26  2  0  0  0  0
 26 27  1  0  0  0  0
 27 18  1  0  0  0  0
M  END
>  <CHROM.1>
-43.27934053,-147.85875174,-75.32806434,177.53472756,48.31858708,-103.56391459
3.66173196,-15.72345503,-10.07975900,-1.36242764,0.08644070,1.78738130

>  <Name>
lig.pdb

>  <RI>
0

>  <Rbt.Current_Directory>
/home/itssahil/PROJECTS/Mol_Feturizer/New_Systems/rnas/4b5r

>  <Rbt.Executable>
rbdock ($Id: //depot/dev/client3/rdock/2013.1/src/exe/rbdock.cxx#4 $)

>  <Rbt.Library>
libRbt.so (2013.1, Build901 2013/11/27)

>  <Rbt.Parameter_File>
/export/apps/rDock/src/rDock_2013.1_src/data/scripts/dock_solv.prm

>  <Rbt.Receptor>
prm/pocket_docking_5.prm

>  <SCORE>
-16.2551

>  <SCORE.INTER>
-15.4893

>  <SCORE.INTER.CONST>
1

>  <SCORE.INTER.POLAR>
0

>  <SCORE.INTER.ROT>
6

>  <SCORE.INTER.SOLV>
12.1362

>  <SCORE.INTER.VDW>
-21.9716

>  <SCORE.INTER.norm>
-0.573677

>  <SCORE.INTRA>
-0.765857

>  <SCORE.INTRA.DIHEDRAL>
-1.15469

>  <SCORE.INTRA.DIHEDRAL.0>
10.2917

>  <SCORE.INTRA.POLAR>
0

>  <SCORE.INTRA.POLAR.0>
0

>  <SCORE.INTRA.REPUL>
0

>  <SCORE.INTRA.REPUL.0>
0

>  <SCORE.INTRA.SOLV>
-2.87967

>  <SCORE.INTRA.SOLV.lig_0>
-39.6315

>  <SCORE.INTRA.VDW>
1.25132

>  <SCORE.INTRA.VDW.0>
-4.02152

>  <SCORE.INTRA.norm>
-0.0283651

>  <SCORE.RESTR>
0

>  <SCORE.RESTR.CAVITY>
0

>  <SCORE.RESTR.norm>
0

>  <SCORE.SYSTEM>
0

>  <SCORE.SYSTEM.CONST>
0

>  <SCORE.SYSTEM.DIHEDRAL>
0

>  <SCORE.SYSTEM.SOLV>
0

>  <SCORE.SYSTEM.norm>
0

>  <SCORE.heavy>
27

>  <SCORE.norm>
-0.602042

>  <RMSD>
5.324

$$$$
lig.pdb
 OpenBabel11021811493D
libRbt.so/2013.1/901 2013/11/27
 27 29  0  0  0  0  0  0  0  0999 V2000
    7.4395  -14.9518  -13.9641 N   0  0  0  0  0  0  0  0  0  0  0  0
    7.1193  -16.3731  -13.6303 C   0  0  2  0  0  0  0  0  0  0  0  0
    6.8888  -17.1500  -14.9232 C   0  0  0  0  0  0  0  0  0  0  0  0
    6.6578  -16.5411  -15.9613 O   0  0  0  0  0  0  0  0  0  0  0  0
    6.9185  -18.3862  -14.9769 O   0  0  0  0  0  0  0  0  0  0  0  0
    5.9377  -16.5285  -12.6517 C   0  0  0  0  0  0  0  0  0  0  0  0
    4.5209  -16.6201  -13.2769 C   0  0  0  0  0  0  0  0  0  0  0  0
    3.0624  -16.8004  -12.1617 S   0  0  2  0  0  0  0  0  0  0  0  0
    1.7278  -16.1957  -13.2165 C   0  0  0  0  0  0  0  0  0  0  0  0
    3.2161  -15.3998  -11.0319 C   0  0  0  0  0  0  0  0  0  0  0  0
    2.4112  -15.6695   -9.7675 C   0  0  1  0  0  0  0  0  0  0  0  0
    2.9554  -16.7235   -8.9877 O   0  0  0  0  0  0  0  0  0  0  0  0
    2.3843  -14.4986   -8.8222 C   0  0  1  0  0  0  0  0  0  0  0  0
    1.4604  -13.5452   -9.2622 O   0  0  0  0  0  0  0  0  0  0  0  0
    1.9648  -15.1846   -7.5409 C   0  0  1  0  0  0  0  0  0  0  0  0
    0.5617  -15.3512   -7.5144 O   0  0  0  0  0  0  0  0  0  0  0  0
    2.6248  -16.5566   -7.6204 C   0  0  2  0  0  0  0  0  0  0  0  0
    3.8125  -16.7373   -6.7411 N   0  0  0  0  0  0  0  0  0  0  0  0
    4.3987  -17.9402   -6.4372 C   0  0  0  0  0  0  0  0  0  0  0  0
    5.4506  -17.7262   -5.6157 N   0  0  0  0  0  0  0  0  0  0  0  0
    5.5595  -16.4065   -5.3908 C   0  0  0  0  0  0  0  0  0  0  0  0
    6.4568  -15.6611   -4.6413 C   0  0  0  0  0  0  0  0  0  0  0  0
    7.4375  -16.2609   -3.9795 N   0  0  0  0  0  0  0  0  0  0  0  0
    6.3204  -14.2877   -4.5979 N   0  0  0  0  0  0  0  0  0  0  0  0
    5.3040  -13.6456   -5.2939 C   0  0  0  0  0  0  0  0  0  0  0  0
    4.4239  -14.4036   -6.0391 N   0  0  0  0  0  0  0  0  0  0  0  0
    4.5390  -15.7629   -6.0864 C   0  0  0  0  0  0  0  0  0  0  0  0
  2  3  1  6  0  0  0
  2  6  1  0  0  0  0
  2  1  1  0  0  0  0
  4  3  2  0  0  0  0
  5  3  1  0  0  0  0
  6  7  2  0  0  0  0
  8  7  1  6  0  0  0
  8  9  1  0  0  0  0
  8 10  1  0  0  0  0
 11 10  1  6  0  0  0
 11 13  1  0  0  0  0
 12 11  1  0  0  0  0
 12 17  1  0  0  0  0
 13 14  1  6  0  0  0
 13 15  1  0  0  0  0
 15 16  1  6  0  0  0
 17 18  1  1  0  0  0
 17 15  1  0  0  0  0
 18 19  1  0  0  0  0
 20 19  2  0  0  0  0
 21 27  2  0  0  0  0
 21 20  1  0  0  0  0
 22 21  1  0  0  0  0
 23 22  1  0  0  0  0
 24 22  2  0  0  0  0
 24 25  1  0  0  0  0
 25 26  2  0  0  0  0
 26 27  1  0  0  0  0
 27 18  1  0  0  0  0
M  END
>  <CHROM.1>
-17.77682139,88.67012959,157.93106799,-159.61887595,67.73451108,-74.48500703
4.38982235,-16.01293569,-9.48820775,-1.46422133,-0.18250370,1.46463072

>  <Name>
lig.pdb

>  <RI>
0

>  <Rbt.Current_Directory>
/home/itssahil/PROJECTS/Mol_Feturizer/New_Systems/rnas/4b5r

>  <Rbt.Executable>
rbdock ($Id: //depot/dev/client3/rdock/2013.1/src/exe/rbdock.cxx#4 $)

>  <Rbt.Library>
libRbt.so (2013.1, Build901 2013/11/27)

>  <Rbt.Parameter_File>
/export/apps/rDock/src/rDock_2013.1_src/data/scripts/dock_solv.prm

>  <Rbt.Receptor>
prm/pocket_docking_6.prm

>  <SCORE>
-13.3038

>  <SCORE.INTER>
-13.7545

>  <SCORE.INTER.CONST>
1

>  <SCORE.INTER.POLAR>
0

>  <SCORE.INTER.ROT>
6

>  <SCORE.INTER.SOLV>
12.6208

>  <SCORE.INTER.VDW>
-20.9766

>  <SCORE.INTER.norm>
-0.509427

>  <SCORE.INTRA>
0.441319

>  <SCORE.INTRA.DIHEDRAL>
0.236761

>  <SCORE.INTRA.DIHEDRAL.0>
10.2917

>  <SCORE.INTRA.POLAR>
0

>  <SCORE.INTRA.POLAR.0>
0

>  <SCORE.INTRA.REPUL>
0

>  <SCORE.INTRA.REPUL.0>
0

>  <SCORE.INTRA.SOLV>
-2.61177

>  <SCORE.INTRA.SOLV.lig_0>
-39.6315

>  <SCORE.INTRA.VDW>
1.62883

>  <SCORE.INTRA.VDW.0>
-4.02152

>  <SCORE.INTRA.norm>
0.0163451

>  <SCORE.RESTR>
0.00938307

>  <SCORE.RESTR.CAVITY>
0.00938307

>  <SCORE.RESTR.norm>
0.000347521

>  <SCORE.SYSTEM>
0

>  <SCORE.SYSTEM.CONST>
0

>  <SCORE.SYSTEM.DIHEDRAL>
0

>  <SCORE.SYSTEM.SOLV>
0

>  <SCORE.SYSTEM.norm>
0

>  <SCORE.heavy>
27

>  <SCORE.norm>
-0.492734

>  <RMSD>
5.325

$$$$
lig.pdb
 OpenBabel11021811493D
libRbt.so/2013.1/901 2013/11/27
 27 29  0  0  0  0  0  0  0  0999 V2000
    7.4969  -15.1016  -13.9470 N   0  0  0  0  0  0  0  0  0  0  0  0
    7.1273  -16.5177  -13.6437 C   0  0  2  0  0  0  0  0  0  0  0  0
    6.8490  -17.2524  -14.9518 C   0  0  0  0  0  0  0  0  0  0  0  0
    6.9753  -18.4704  -14.9997 O   0  0  0  0  0  0  0  0  0  0  0  0
    6.5012  -16.6700  -15.9870 O   0  0  0  0  0  0  0  0  0  0  0  0
    5.9545  -16.6530  -12.6517 C   0  0  0  0  0  0  0  0  0  0  0  0
    4.5262  -16.6661  -13.2569 C   0  0  0  0  0  0  0  0  0  0  0  0
    3.0777  -16.8188  -12.1246 S   0  0  2  0  0  0  0  0  0  0  0  0
    1.7388  -16.2097  -13.1714 C   0  0  0  0  0  0  0  0  0  0  0  0
    3.2591  -15.4087  -11.0107 C   0  0  0  0  0  0  0  0  0  0  0  0
    2.4524  -15.6501   -9.7417 C   0  0  1  0  0  0  0  0  0  0  0  0
    2.9786  -16.7061   -8.9522 O   0  0  0  0  0  0  0  0  0  0  0  0
    2.4501  -14.4691   -8.8086 C   0  0  1  0  0  0  0  0  0  0  0  0
    1.5433  -13.5031   -9.2562 O   0  0  0  0  0  0  0  0  0  0  0  0
    2.0210  -15.1338   -7.5192 C   0  0  1  0  0  0  0  0  0  0  0  0
    0.6151  -15.2735   -7.4876 O   0  0  0  0  0  0  0  0  0  0  0  0
    2.6547  -16.5188   -7.5860 C   0  0  2  0  0  0  0  0  0  0  0  0
    3.8410  -16.7128   -6.7077 N   0  0  0  0  0  0  0  0  0  0  0  0
    4.4483  -17.9159   -6.4493 C   0  0  0  0  0  0  0  0  0  0  0  0
    5.4917  -17.7158   -5.6135 N   0  0  0  0  0  0  0  0  0  0  0  0
    5.5744  -16.4045   -5.3348 C   0  0  0  0  0  0  0  0  0  0  0  0
    6.4537  -15.6736   -4.5504 C   0  0  0  0  0  0  0  0  0  0  0  0
    7.4421  -16.2813   -3.9076 N   0  0  0  0  0  0  0  0  0  0  0  0
    6.2911  -14.3059   -4.4523 N   0  0  0  0  0  0  0  0  0  0  0  0
    5.2664  -13.6551   -5.1277 C   0  0  0  0  0  0  0  0  0  0  0  0
    4.4046  -14.3985   -5.9082 N   0  0  0  0  0  0  0  0  0  0  0  0
    4.5456  -15.7524   -6.0098 C   0  0  0  0  0  0  0  0  0  0  0  0
  2  3  1  6  0  0  0
  2  6  1  0  0  0  0
  2  1  1  0  0  0  0
  4  3  2  0  0  0  0
  5  3  1  0  0  0  0
  6  7  2  0  0  0  0
  8  7  1  6  0  0  0
  8  9  1  0  0  0  0
  8 10  1  0  0  0  0
 11 10  1  6  0  0  0
 11 13  1  0  0  0  0
 12 11  1  0  0  0  0
 12 17  1  0  0  0  0
 13 14  1  6  0  0  0
 13 15  1  0  0  0  0
 15 16  1  6  0  0  0
 17 18  1  1  0  0  0
 17 15  1  0  0  0  0
 18 19  1  0  0  0  0
 20 19  2  0  0  0  0
 21 27  2  0  0  0  0
 21 20  1  0  0  0  0
 22 21  1  0  0  0  0
 23 22  1  0  0  0  0
 24 22  2  0  0  0  0
 24 25  1  0  0  0  0
 25 26  2  0  0  0  0
 26 27  1  0  0  0  0
 27 18  1  0  0  0  0
M  END
>  <CHROM.1>
155.31099337,88.30290952,160.84058927,-160.22964900,67.66156793,-70.82521259
4.40565518,-16.03231087,-9.45292225,-1.46874254,-0.21292021,1.45394401

>  <Name>
lig.pdb

>  <RI>
0

>  <Rbt.Current_Directory>
/home/itssahil/PROJECTS/Mol_Feturizer/New_Systems/rnas/4b5r

>  <Rbt.Executable>
rbdock ($Id: //depot/dev/client3/rdock/2013.1/src/exe/rbdock.cxx#4 $)

>  <Rbt.Library>
libRbt.so (2013.1, Build901 2013/11/27)

>  <Rbt.Parameter_File>
/export/apps/rDock/src/rDock_2013.1_src/data/scripts/dock_solv.prm

>  <Rbt.Receptor>
prm/blind_docking_80.prm

>  <SCORE>
-13.1611

>  <SCORE.INTER>
-13.4501

>  <SCORE.INTER.CONST>
1

>  <SCORE.INTER.POLAR>
0

>  <SCORE.INTER.ROT>
6

>  <SCORE.INTER.SOLV>
13.6065

>  <SCORE.INTER.VDW>
-21.1022

>  <SCORE.INTER.norm>
-0.498152

>  <SCORE.INTRA>
0.286797

>  <SCORE.INTRA.DIHEDRAL>
0.245654

>  <SCORE.INTRA.DIHEDRAL.0>
10.2917

>  <SCORE.INTRA.POLAR>
0

>  <SCORE.INTRA.POLAR.0>
0

>  <SCORE.INTRA.REPUL>
0

>  <SCORE.INTRA.REPUL.0>
0

>  <SCORE.INTRA.SOLV>
-2.78023

>  <SCORE.INTRA.SOLV.lig_0>
-39.6315

>  <SCORE.INTRA.VDW>
1.55408

>  <SCORE.INTRA.VDW.0>
-4.02152

>  <SCORE.INTRA.norm>
0.0106221

>  <SCORE.RESTR>
0.00225098

>  <SCORE.RESTR.CAVITY>
0.00225098

>  <SCORE.RESTR.norm>
8.33695e-05

>  <SCORE.SYSTEM>
0

>  <SCORE.SYSTEM.CONST>
0

>  <SCORE.SYSTEM.DIHEDRAL>
0

>  <SCORE.SYSTEM.SOLV>
0

>  <SCORE.SYSTEM.norm>
0

>  <SCORE.heavy>
27

>  <SCORE.norm>
-0.487446

>  <RMSD>
5.331

$$$$
lig.pdb
 OpenBabel11021811493D
libRbt.so/2013.1/901 2013/11/27
 27 29  0  0  0  0  0  0  0  0999 V2000
    5.6572  -15.1481  -17.0730 N   0  0  0  0  0  0  0  0  0  0  0  0
    4.9220  -14.4235  -15.9921 C   0  0  2  0  0  0  0  0  0  0  0  0
    5.8911  -13.4971  -15.2634 C   0  0  0  0  0  0  0  0  0  0  0  0
    5.6530  -12.2963  -15.2078 O   0  0  0  0  0  0  0  0  0  0  0  0
    6.9266  -13.9031  -14.7204 O   0  0  0  0  0  0  0  0  0  0  0  0
    4.1796  -15.3570  -15.0147 C   0  0  0  0  0  0  0  0  0  0  0  0
    4.0467  -14.8690  -13.5482 C   0  0  0  0  0  0  0  0  0  0  0  0
    3.1753  -15.9410  -12.3256 S   0  0  2  0  0  0  0  0  0  0  0  0
    1.5882  -16.2027  -13.1454 C   0  0  0  0  0  0  0  0  0  0  0  0
    2.6648  -14.7851  -11.0352 C   0  0  0  0  0  0  0  0  0  0  0  0
    1.9338  -15.5380   -9.9315 C   0  0  1  0  0  0  0  0  0  0  0  0
    2.7318  -16.5531   -9.3414 O   0  0  0  0  0  0  0  0  0  0  0  0
    1.5502  -14.6604   -8.7704 C   0  0  1  0  0  0  0  0  0  0  0  0
    0.4072  -13.9182   -9.0844 O   0  0  0  0  0  0  0  0  0  0  0  0
    1.3061  -15.7031   -7.7020 C   0  0  1  0  0  0  0  0  0  0  0  0
    0.0073  -16.2434   -7.8364 O   0  0  0  0  0  0  0  0  0  0  0  0
    2.3292  -16.7922   -8.0045 C   0  0  2  0  0  0  0  0  0  0  0  0
    3.4943  -16.8380   -7.0789 N   0  0  0  0  0  0  0  0  0  0  0  0
    4.0993  -17.9815   -6.6214 C   0  0  0  0  0  0  0  0  0  0  0  0
    5.1212  -17.6458   -5.8026 N   0  0  0  0  0  0  0  0  0  0  0  0
    5.1924  -16.3065   -5.7303 C   0  0  0  0  0  0  0  0  0  0  0  0
    6.0495  -15.4556   -5.0492 C   0  0  0  0  0  0  0  0  0  0  0  0
    7.0241  -15.9483   -4.2961 N   0  0  0  0  0  0  0  0  0  0  0  0
    5.8797  -14.0906   -5.1698 N   0  0  0  0  0  0  0  0  0  0  0  0
    4.8695  -13.5607   -5.9626 C   0  0  0  0  0  0  0  0  0  0  0  0
    4.0298  -14.4232   -6.6376 N   0  0  0  0  0  0  0  0  0  0  0  0
    4.1781  -15.7753   -6.5231 C   0  0  0  0  0  0  0  0  0  0  0  0
  2  3  1  1  0  0  0
  2  6  1  0  0  0  0
  2  1  1  0  0  0  0
  4  3  2  0  0  0  0
  5  3  1  0  0  0  0
  6  7  2  0  0  0  0
  8  7  1  6  0  0  0
  8  9  1  0  0  0  0
  8 10  1  0  0  0  0
 11 10  1  6  0  0  0
 11 13  1  0  0  0  0
 12 11  1  0  0  0  0
 12 17  1  0  0  0  0
 13 14  1  6  0  0  0
 13 15  1  0  0  0  0
 15 16  1  6  0  0  0
 17 18  1  1  0  0  0
 17 15  1  0  0  0  0
 18 19  1  0  0  0  0
 20 19  2  0  0  0  0
 21 27  2  0  0  0  0
 21 20  1  0  0  0  0
 22 21  1  0  0  0  0
 23 22  1  0  0  0  0
 24 22  2  0  0  0  0
 24 25  1  0  0  0  0
 25 26  2  0  0  0  0
 26 27  1  0  0  0  0
 27 18  1  0  0  0  0
M  END
>  <CHROM.1>
122.52888890,148.53957055,-54.69101246,-179.40597821,58.86825045,-98.83231859
3.81263943,-15.33867640,-9.92567319,-1.50615716,0.22688357,1.71091567

>  <Name>
lig.pdb

>  <RI>
0

>  <Rbt.Current_Directory>
/home/itssahil/PROJECTS/Mol_Feturizer/New_Systems/rnas/4b5r

>  <Rbt.Executable>
rbdock ($Id: //depot/dev/client3/rdock/2013.1/src/exe/rbdock.cxx#4 $)

>  <Rbt.Library>
libRbt.so (2013.1, Build901 2013/11/27)

>  <Rbt.Parameter_File>
/export/apps/rDock/src/rDock_2013.1_src/data/scripts/dock_solv.prm

>  <Rbt.Receptor>
prm/pocket_docking_5.prm

>  <SCORE>
-17.2247

>  <SCORE.INTER>
-16.4517

>  <SCORE.INTER.CONST>
1

>  <SCORE.INTER.POLAR>
0

>  <SCORE.INTER.ROT>
6

>  <SCORE.INTER.SOLV>
12.5622

>  <SCORE.INTER.VDW>
-22.7552

>  <SCORE.INTER.norm>
-0.609321

>  <SCORE.INTRA>
-0.773079

>  <SCORE.INTRA.DIHEDRAL>
-1.88844

>  <SCORE.INTRA.DIHEDRAL.0>
10.2917

>  <SCORE.INTRA.POLAR>
0

>  <SCORE.INTRA.POLAR.0>
0

>  <SCORE.INTRA.REPUL>
0

>  <SCORE.INTRA.REPUL.0>
0

>  <SCORE.INTRA.SOLV>
-3.00394

>  <SCORE.INTRA.SOLV.lig_0>
-39.6315

>  <SCORE.INTRA.VDW>
1.67311

>  <SCORE.INTRA.VDW.0>
-4.02152

>  <SCORE.INTRA.norm>
-0.0286325

>  <SCORE.RESTR>
0

>  <SCORE.RESTR.CAVITY>
0

>  <SCORE.RESTR.norm>
0

>  <SCORE.SYSTEM>
0

>  <SCORE.SYSTEM.CONST>
0

>  <SCORE.SYSTEM.DIHEDRAL>
0

>  <SCORE.SYSTEM.SOLV>
0

>  <SCORE.SYSTEM.norm>
0

>  <SCORE.heavy>
27

>  <SCORE.norm>
-0.637953

>  <RMSD>
5.338

$$$$
lig.pdb
 OpenBabel11021811493D
libRbt.so/2013.1/901 2013/11/27
 27 29  0  0  0  0  0  0  0  0999 V2000
    3.3725  -14.4894  -12.6798 N   0  0  0  0  0  0  0  0  0  0  0  0
    4.5208  -14.7028  -13.6126 C   0  0  2  0  0  0  0  0  0  0  0  0
    4.0241  -15.4323  -14.8573 C   0  0  0  0  0  0  0  0  0  0  0  0
    4.6505  -15.3336  -15.9060 O   0  0  0  0  0  0  0  0  0  0  0  0
    2.9998  -16.1269  -14.8634 O   0  0  0  0  0  0  0  0  0  0  0  0
    5.7183  -15.4271  -12.9652 C   0  0  0  0  0  0  0  0  0  0  0  0
    6.2204  -16.7140  -13.6712 C   0  0  0  0  0  0  0  0  0  0  0  0
    7.6459  -17.6329  -12.9451 S   0  0  2  0  0  0  0  0  0  0  0  0
    7.7677  -19.0460  -14.0622 C   0  0  0  0  0  0  0  0  0  0  0  0
    6.9336  -18.4479  -11.4994 C   0  0  0  0  0  0  0  0  0  0  0  0
    6.3243  -17.4058  -10.5708 C   0  0  1  0  0  0  0  0  0  0  0  0
    5.6433  -17.9870   -9.4691 O   0  0  0  0  0  0  0  0  0  0  0  0
    7.3517  -16.5125   -9.9290 C   0  0  1  0  0  0  0  0  0  0  0  0
    7.7684  -15.5303  -10.8332 O   0  0  0  0  0  0  0  0  0  0  0  0
    6.5519  -15.9541   -8.7728 C   0  0  1  0  0  0  0  0  0  0  0  0
    5.7550  -14.8719   -9.2095 O   0  0  0  0  0  0  0  0  0  0  0  0
    5.6409  -17.1051   -8.3606 C   0  0  2  0  0  0  0  0  0  0  0  0
    6.0321  -17.8002   -7.1036 N   0  0  0  0  0  0  0  0  0  0  0  0
    5.9750  -17.2557   -5.8454 C   0  0  0  0  0  0  0  0  0  0  0  0
    6.4046  -18.1694   -4.9465 N   0  0  0  0  0  0  0  0  0  0  0  0
    6.7297  -19.2965   -5.6006 C   0  0  0  0  0  0  0  0  0  0  0  0
    7.2067  -20.5223   -5.1620 C   0  0  0  0  0  0  0  0  0  0  0  0
    7.4177  -20.7358   -3.8699 N   0  0  0  0  0  0  0  0  0  0  0  0
    7.4530  -21.5188   -6.0856 N   0  0  0  0  0  0  0  0  0  0  0  0
    7.2274  -21.3124   -7.4407 C   0  0  0  0  0  0  0  0  0  0  0  0
    6.7470  -20.0878   -7.8578 N   0  0  0  0  0  0  0  0  0  0  0  0
    6.5059  -19.0888   -6.9594 C   0  0  0  0  0  0  0  0  0  0  0  0
  2  3  1  6  0  0  0
  2  6  1  0  0  0  0
  2  1  1  0  0  0  0
  4  3  2  0  0  0  0
  5  3  1  0  0  0  0
  6  7  2  0  0  0  0
  8  7  1  6  0  0  0
  8  9  1  0  0  0  0
  8 10  1  0  0  0  0
 11 10  1  1  0  0  0
 11 13  1  0  0  0  0
 12 11  1  0  0  0  0
 12 17  1  0  0  0  0
 13 14  1  6  0  0  0
 13 15  1  0  0  0  0
 15 16  1  6  0  0  0
 17 18  1  1  0  0  0
 17 15  1  0  0  0  0
 18 19  1  0  0  0  0
 20 19  2  0  0  0  0
 21 27  2  0  0  0  0
 21 20  1  0  0  0  0
 22 21  1  0  0  0  0
 23 22  1  0  0  0  0
 24 22  2  0  0  0  0
 24 25  1  0  0  0  0
 25 26  2  0  0  0  0
 26 27  1  0  0  0  0
 27 18  1  0  0  0  0
M  END
>  <CHROM.1>
156.48758653,125.10402802,177.27961623,-57.68462060,174.85882388,-172.10168275
6.22293694,-17.53396380,-10.05786162,1.94779515,1.02998525,-1.46819620

>  <Name>
lig.pdb

>  <RI>
0

>  <Rbt.Current_Directory>
/home/itssahil/PROJECTS/Mol_Feturizer/New_Systems/rnas/4b5r

>  <Rbt.Executable>
rbdock ($Id: //depot/dev/client3/rdock/2013.1/src/exe/rbdock.cxx#4 $)

>  <Rbt.Library>
libRbt.so (2013.1, Build901 2013/11/27)

>  <Rbt.Parameter_File>
/export/apps/rDock/src/rDock_2013.1_src/data/scripts/dock_solv.prm

>  <Rbt.Receptor>
prm/pocket_docking_8.prm

>  <SCORE>
-11.9487

>  <SCORE.INTER>
-11.1428

>  <SCORE.INTER.CONST>
1

>  <SCORE.INTER.POLAR>
0

>  <SCORE.INTER.ROT>
6

>  <SCORE.INTER.SOLV>
12.1386

>  <SCORE.INTER.VDW>
-19.0747

>  <SCORE.INTER.norm>
-0.412697

>  <SCORE.INTRA>
-0.805883

>  <SCORE.INTRA.DIHEDRAL>
-2.46227

>  <SCORE.INTRA.DIHEDRAL.0>
10.2917

>  <SCORE.INTRA.POLAR>
0

>  <SCORE.INTRA.POLAR.0>
0

>  <SCORE.INTRA.REPUL>
0.000218962

>  <SCORE.INTRA.REPUL.0>
0

>  <SCORE.INTRA.SOLV>
-1.96896

>  <SCORE.INTRA.SOLV.lig_0>
-39.6315

>  <SCORE.INTRA.VDW>
1.40864

>  <SCORE.INTRA.VDW.0>
-4.02152

>  <SCORE.INTRA.norm>
-0.0298475

>  <SCORE.RESTR>
0

>  <SCORE.RESTR.CAVITY>
0

>  <SCORE.RESTR.norm>
0

>  <SCORE.SYSTEM>
0

>  <SCORE.SYSTEM.CONST>
0

>  <SCORE.SYSTEM.DIHEDRAL>
0

>  <SCORE.SYSTEM.SOLV>
0

>  <SCORE.SYSTEM.norm>
0

>  <SCORE.heavy>
27

>  <SCORE.norm>
-0.442545

>  <RMSD>
5.338

$$$$
lig.pdb
 OpenBabel11021811493D
libRbt.so/2013.1/901 2013/11/27
 27 29  0  0  0  0  0  0  0  0999 V2000
    7.9113  -16.3813  -11.6083 N   0  0  0  0  0  0  0  0  0  0  0  0
    6.6452  -15.7708  -11.1002 C   0  0  2  0  0  0  0  0  0  0  0  0
    6.7847  -15.5036   -9.6044 C   0  0  0  0  0  0  0  0  0  0  0  0
    7.0865  -16.4225   -8.8519 O   0  0  0  0  0  0  0  0  0  0  0  0
    6.6001  -14.3874   -9.1027 O   0  0  0  0  0  0  0  0  0  0  0  0
    5.3857  -16.6021  -11.4173 C   0  0  0  0  0  0  0  0  0  0  0  0
    4.3029  -15.9216  -12.2953 C   0  0  0  0  0  0  0  0  0  0  0  0
    2.7679  -16.8587  -12.7067 S   0  0  2  0  0  0  0  0  0  0  0  0
    2.2440  -16.0384  -14.2273 C   0  0  0  0  0  0  0  0  0  0  0  0
    1.5421  -16.1894  -11.5616 C   0  0  0  0  0  0  0  0  0  0  0  0
    1.5605  -16.9887  -10.2653 C   0  0  1  0  0  0  0  0  0  0  0  0
    2.7520  -16.7919   -9.5189 O   0  0  0  0  0  0  0  0  0  0  0  0
    0.4671  -16.5919   -9.3101 C   0  0  1  0  0  0  0  0  0  0  0  0
   -0.7464  -17.1668   -9.7011 O   0  0  0  0  0  0  0  0  0  0  0  0
    1.0056  -17.1638   -8.0173 C   0  0  1  0  0  0  0  0  0  0  0  0
    0.7026  -18.5413   -7.9305 O   0  0  0  0  0  0  0  0  0  0  0  0
    2.5162  -16.9958   -8.1371 C   0  0  2  0  0  0  0  0  0  0  0  0
    3.0966  -15.9006   -7.3125 N   0  0  0  0  0  0  0  0  0  0  0  0
    2.4787  -14.7086   -7.0289 C   0  0  0  0  0  0  0  0  0  0  0  0
    3.2958  -13.9579   -6.2568 N   0  0  0  0  0  0  0  0  0  0  0  0
    4.4261  -14.6471   -6.0296 C   0  0  0  0  0  0  0  0  0  0  0  0
    5.5686  -14.3475   -5.3033 C   0  0  0  0  0  0  0  0  0  0  0  0
    5.6742  -13.1874   -4.6688 N   0  0  0  0  0  0  0  0  0  0  0  0
    6.5911  -15.2736   -5.2440 N   0  0  0  0  0  0  0  0  0  0  0  0
    6.4900  -16.4963   -5.8956 C   0  0  0  0  0  0  0  0  0  0  0  0
    5.3428  -16.7791   -6.6087 N   0  0  0  0  0  0  0  0  0  0  0  0
    4.3259  -15.8719   -6.6848 C   0  0  0  0  0  0  0  0  0  0  0  0
  2  3  1  1  0  0  0
  2  6  1  0  0  0  0
  2  1  1  0  0  0  0
  4  3  2  0  0  0  0
  5  3  1  0  0  0  0
  6  7  2  0  0  0  0
  8  7  1  1  0  0  0
  8  9  1  0  0  0  0
  8 10  1  0  0  0  0
 11 10  1  6  0  0  0
 11 13  1  0  0  0  0
 12 11  1  0  0  0  0
 12 17  1  0  0  0  0
 13 14  1  6  0  0  0
 13 15  1  0  0  0  0
 15 16  1  6  0  0  0
 17 18  1  1  0  0  0
 17 15  1  0  0  0  0
 18 19  1  0  0  0  0
 20 19  2  0  0  0  0
 21 27  2  0  0  0  0
 21 20  1  0  0  0  0
 22 21  1  0  0  0  0
 23 22  1  0  0  0  0
 24 22  2  0  0  0  0
 24 25  1  0  0  0  0
 25 26  2  0  0  0  0
 26 27  1  0  0  0  0
 27 18  1  0  0  0  0
M  END
>  <CHROM.1>
-55.32553197,-119.06952655,-155.83808570,-89.21223157,68.77133520,85.30041669
3.86438288,-16.04862418,-8.98523869,-2.15658014,0.22153435,1.40054095

>  <Name>
lig.pdb

>  <RI>
0

>  <Rbt.Current_Directory>
/home/itssahil/PROJECTS/Mol_Feturizer/New_Systems/rnas/4b5r

>  <Rbt.Executable>
rbdock ($Id: //depot/dev/client3/rdock/2013.1/src/exe/rbdock.cxx#4 $)

>  <Rbt.Library>
libRbt.so (2013.1, Build901 2013/11/27)

>  <Rbt.Parameter_File>
/export/apps/rDock/src/rDock_2013.1_src/data/scripts/dock_solv.prm

>  <Rbt.Receptor>
prm/pocket_docking_2.prm

>  <SCORE>
-10.447

>  <SCORE.INTER>
-9.43115

>  <SCORE.INTER.CONST>
1

>  <SCORE.INTER.POLAR>
0

>  <SCORE.INTER.ROT>
6

>  <SCORE.INTER.SOLV>
16.8987

>  <SCORE.INTER.VDW>
-19.5203

>  <SCORE.INTER.norm>
-0.349302

>  <SCORE.INTRA>
-1.61986

>  <SCORE.INTRA.DIHEDRAL>
-0.592662

>  <SCORE.INTRA.DIHEDRAL.0>
10.2917

>  <SCORE.INTRA.POLAR>
0

>  <SCORE.INTRA.POLAR.0>
0

>  <SCORE.INTRA.REPUL>
0

>  <SCORE.INTRA.REPUL.0>
0

>  <SCORE.INTRA.SOLV>
-2.1288

>  <SCORE.INTRA.SOLV.lig_0>
-39.6315

>  <SCORE.INTRA.VDW>
-0.259126

>  <SCORE.INTRA.VDW.0>
-4.02152

>  <SCORE.INTRA.norm>
-0.0599947

>  <SCORE.RESTR>
0.604044

>  <SCORE.RESTR.CAVITY>
0.604044

>  <SCORE.RESTR.norm>
0.022372

>  <SCORE.SYSTEM>
0

>  <SCORE.SYSTEM.CONST>
0

>  <SCORE.SYSTEM.DIHEDRAL>
0

>  <SCORE.SYSTEM.SOLV>
0

>  <SCORE.SYSTEM.norm>
0

>  <SCORE.heavy>
27

>  <SCORE.norm>
-0.386924

>  <RMSD>
5.339

$$$$
lig.pdb
 OpenBabel11021811493D
libRbt.so/2013.1/901 2013/11/27
 27 29  0  0  0  0  0  0  0  0999 V2000
    7.0996  -18.2384  -15.2525 N   0  0  0  0  0  0  0  0  0  0  0  0
    6.4888  -16.9982  -14.6843 C   0  0  2  0  0  0  0  0  0  0  0  0
    7.4646  -15.8376  -14.8545 C   0  0  0  0  0  0  0  0  0  0  0  0
    7.2485  -14.9866  -15.7093 O   0  0  0  0  0  0  0  0  0  0  0  0
    8.4844  -15.7125  -14.1644 O   0  0  0  0  0  0  0  0  0  0  0  0
    6.0296  -17.1487  -13.2199 C   0  0  0  0  0  0  0  0  0  0  0  0
    4.5138  -16.9702  -12.9418 C   0  0  0  0  0  0  0  0  0  0  0  0
    3.8984  -17.1310  -11.2101 S   0  0  2  0  0  0  0  0  0  0  0  0
    3.1421  -18.7699  -11.2493 C   0  0  0  0  0  0  0  0  0  0  0  0
    2.4097  -16.1088  -11.1919 C   0  0  0  0  0  0  0  0  0  0  0  0
    1.9799  -15.8534   -9.7533 C   0  0  1  0  0  0  0  0  0  0  0  0
    1.9999  -17.0305   -8.9599 O   0  0  0  0  0  0  0  0  0  0  0  0
    2.8955  -14.9096   -9.0210 C   0  0  1  0  0  0  0  0  0  0  0  0
    2.6183  -13.5885   -9.3868 O   0  0  0  0  0  0  0  0  0  0  0  0
    2.5252  -15.2187   -7.5873 C   0  0  1  0  0  0  0  0  0  0  0  0
    1.3583  -14.5103   -7.2220 O   0  0  0  0  0  0  0  0  0  0  0  0
    2.2155  -16.7115   -7.5967 C   0  0  2  0  0  0  0  0  0  0  0  0
    3.2628  -17.5769   -6.9882 N   0  0  0  0  0  0  0  0  0  0  0  0
    3.2314  -18.9481   -6.9439 C   0  0  0  0  0  0  0  0  0  0  0  0
    4.3431  -19.3975   -6.3197 N   0  0  0  0  0  0  0  0  0  0  0  0
    5.0956  -18.3420   -5.9681 C   0  0  0  0  0  0  0  0  0  0  0  0
    6.3190  -18.2450   -5.3229 C   0  0  0  0  0  0  0  0  0  0  0  0
    6.9607  -19.3394   -4.9353 N   0  0  0  0  0  0  0  0  0  0  0  0
    6.8631  -16.9965   -5.0950 N   0  0  0  0  0  0  0  0  0  0  0  0
    6.2068  -15.8426   -5.5040 C   0  0  0  0  0  0  0  0  0  0  0  0
    4.9928  -15.9591   -6.1499 N   0  0  0  0  0  0  0  0  0  0  0  0
    4.4365  -17.1849   -6.3760 C   0  0  0  0  0  0  0  0  0  0  0  0
  2  3  1  1  0  0  0
  2  6  1  0  0  0  0
  2  1  1  0  0  0  0
  4  3  2  0  0  0  0
  5  3  1  0  0  0  0
  6  7  2  0  0  0  0
  8  7  1  6  0  0  0
  8  9  1  0  0  0  0
  8 10  1  0  0  0  0
 11 10  1  6  0  0  0
 11 13  1  0  0  0  0
 12 11  1  0  0  0  0
 12 17  1  0  0  0  0
 13 14  1  6  0  0  0
 13 15  1  0  0  0  0
 15 16  1  6  0  0  0
 17 18  1  6  0  0  0
 17 15  1  0  0  0  0
 18 19  1  0  0  0  0
 20 19  2  0  0  0  0
 21 27  2  0  0  0  0
 21 20  1  0  0  0  0
 22 21  1  0  0  0  0
 23 22  1  0  0  0  0
 24 22  2  0  0  0  0
 24 25  1  0  0  0  0
 25 26  2  0  0  0  0
 26 27  1  0  0  0  0
 27 18  1  0  0  0  0
M  END
>  <CHROM.1>
105.64591951,-117.85772910,-103.82091516,-165.75266878,-45.87291686,-57.17176656
4.54116960,-16.77141882,-9.54414202,-1.29028299,-0.40504199,1.77706337

>  <Name>
lig.pdb

>  <RI>
0

>  <Rbt.Current_Directory>
/home/itssahil/PROJECTS/Mol_Feturizer/New_Systems/rnas/4b5r

>  <Rbt.Executable>
rbdock ($Id: //depot/dev/client3/rdock/2013.1/src/exe/rbdock.cxx#4 $)

>  <Rbt.Library>
libRbt.so (2013.1, Build901 2013/11/27)

>  <Rbt.Parameter_File>
/export/apps/rDock/src/rDock_2013.1_src/data/scripts/dock_solv.prm

>  <Rbt.Receptor>
prm/pocket_docking_7.prm

>  <SCORE>
-11.2915

>  <SCORE.INTER>
-11.1755

>  <SCORE.INTER.CONST>
1

>  <SCORE.INTER.POLAR>
0

>  <SCORE.INTER.ROT>
6

>  <SCORE.INTER.SOLV>
13.889

>  <SCORE.INTER.VDW>
-19.68

>  <SCORE.INTER.norm>
-0.413906

>  <SCORE.INTRA>
-0.116059

>  <SCORE.INTRA.DIHEDRAL>
-0.0132764

>  <SCORE.INTRA.DIHEDRAL.0>
10.2917

>  <SCORE.INTRA.POLAR>
0

>  <SCORE.INTRA.POLAR.0>
0

>  <SCORE.INTRA.REPUL>
0

>  <SCORE.INTRA.REPUL.0>
0

>  <SCORE.INTRA.SOLV>
-2.84384

>  <SCORE.INTRA.SOLV.lig_0>
-39.6315

>  <SCORE.INTRA.VDW>
1.3125

>  <SCORE.INTRA.VDW.0>
-4.02152

>  <SCORE.INTRA.norm>
-0.00429849

>  <SCORE.RESTR>
0

>  <SCORE.RESTR.CAVITY>
0

>  <SCORE.RESTR.norm>
0

>  <SCORE.SYSTEM>
0

>  <SCORE.SYSTEM.CONST>
0

>  <SCORE.SYSTEM.DIHEDRAL>
0

>  <SCORE.SYSTEM.SOLV>
0

>  <SCORE.SYSTEM.norm>
0

>  <SCORE.heavy>
27

>  <SCORE.norm>
-0.418204

>  <RMSD>
5.339

$$$$
lig.pdb
 OpenBabel11021811493D
libRbt.so/2013.1/901 2013/11/27
 27 29  0  0  0  0  0  0  0  0999 V2000
    6.7962  -15.8140  -10.0586 N   0  0  0  0  0  0  0  0  0  0  0  0
    6.3839  -14.9929  -11.2375 C   0  0  2  0  0  0  0  0  0  0  0  0
    6.6689  -13.5225  -10.9461 C   0  0  0  0  0  0  0  0  0  0  0  0
    7.5793  -13.2230  -10.1824 O   0  0  0  0  0  0  0  0  0  0  0  0
    6.0124  -12.6003  -11.4466 O   0  0  0  0  0  0  0  0  0  0  0  0
    4.9200  -15.2171  -11.6671 C   0  0  0  0  0  0  0  0  0  0  0  0
    4.5424  -16.6453  -12.1405 C   0  0  0  0  0  0  0  0  0  0  0  0
    2.8086  -16.9801  -12.6747 S   0  0  2  0  0  0  0  0  0  0  0  0
    2.6743  -15.9282  -14.1359 C   0  0  0  0  0  0  0  0  0  0  0  0
    1.8136  -16.0181  -11.5144 C   0  0  0  0  0  0  0  0  0  0  0  0
    1.3592  -16.9094  -10.3661 C   0  0  1  0  0  0  0  0  0  0  0  0
    2.4444  -17.5314   -9.6947 O   0  0  0  0  0  0  0  0  0  0  0  0
    0.6468  -16.1537   -9.2767 C   0  0  1  0  0  0  0  0  0  0  0  0
   -0.6734  -15.8914   -9.6563 O   0  0  0  0  0  0  0  0  0  0  0  0
    0.7514  -17.1431   -8.1372 C   0  0  1  0  0  0  0  0  0  0  0  0
   -0.2642  -18.1197   -8.2453 O   0  0  0  0  0  0  0  0  0  0  0  0
    2.1054  -17.8115   -8.3482 C   0  0  2  0  0  0  0  0  0  0  0  0
    3.1763  -17.3775   -7.4095 N   0  0  0  0  0  0  0  0  0  0  0  0
    4.1176  -18.2009   -6.8448 C   0  0  0  0  0  0  0  0  0  0  0  0
    4.9276  -17.4683   -6.0483 N   0  0  0  0  0  0  0  0  0  0  0  0
    4.5318  -16.1857   -6.0954 C   0  0  0  0  0  0  0  0  0  0  0  0
    5.0160  -15.0393   -5.4838 C   0  0  0  0  0  0  0  0  0  0  0  0
    6.0685  -15.1028   -4.6790 N   0  0  0  0  0  0  0  0  0  0  0  0
    4.3932  -13.8314   -5.7280 N   0  0  0  0  0  0  0  0  0  0  0  0
    3.2961  -13.7486   -6.5761 C   0  0  0  0  0  0  0  0  0  0  0  0
    2.8319  -14.8993   -7.1803 N   0  0  0  0  0  0  0  0  0  0  0  0
    3.4303  -16.1030   -6.9436 C   0  0  0  0  0  0  0  0  0  0  0  0
  2  3  1  1  0  0  0
  2  6  1  0  0  0  0
  2  1  1  0  0  0  0
  4  3  2  0  0  0  0
  5  3  1  0  0  0  0
  6  7  2  0  0  0  0
  8  7  1  1  0  0  0
  8  9  1  0  0  0  0
  8 10  1  0  0  0  0
 11 10  1  6  0  0  0
 11 13  1  0  0  0  0
 12 11  1  0  0  0  0
 12 17  1  0  0  0  0
 13 14  1  6  0  0  0
 13 15  1  0  0  0  0
 15 16  1  6  0  0  0
 17 18  1  1  0  0  0
 17 15  1  0  0  0  0
 18 19  1  0  0  0  0
 20 19  2  0  0  0  0
 21 27  2  0  0  0  0
 21 20  1  0  0  0  0
 22 21  1  0  0  0  0
 23 22  1  0  0  0  0
 24 22  2  0  0  0  0
 24 25  1  0  0  0  0
 25 26  2  0  0  0  0
 26 27  1  0  0  0  0
 27 18  1  0  0  0  0
M  END
>  <CHROM.1>
28.31203135,-62.41160300,64.63246186,-95.58616280,56.43990835,-100.02708491
3.57161062,-15.91356983,-9.21930872,-1.83646790,0.50660405,1.62086924

>  <Name>
lig.pdb

>  <RI>
0

>  <Rbt.Current_Directory>
/home/itssahil/PROJECTS/Mol_Feturizer/New_Systems/rnas/4b5r

>  <Rbt.Executable>
rbdock ($Id: //depot/dev/client3/rdock/2013.1/src/exe/rbdock.cxx#4 $)

>  <Rbt.Library>
libRbt.so (2013.1, Build901 2013/11/27)

>  <Rbt.Parameter_File>
/export/apps/rDock/src/rDock_2013.1_src/data/scripts/dock_solv.prm

>  <Rbt.Receptor>
prm/pocket_docking_3.prm

>  <SCORE>
-12.8441

>  <SCORE.INTER>
-14.278

>  <SCORE.INTER.CONST>
1

>  <SCORE.INTER.POLAR>
0

>  <SCORE.INTER.ROT>
6

>  <SCORE.INTER.SOLV>
14.1489

>  <SCORE.INTER.VDW>
-21.8349

>  <SCORE.INTER.norm>
-0.528814

>  <SCORE.INTRA>
1.43391

>  <SCORE.INTRA.DIHEDRAL>
2.85574

>  <SCORE.INTRA.DIHEDRAL.0>
10.2917

>  <SCORE.INTRA.POLAR>
0

>  <SCORE.INTRA.POLAR.0>
0

>  <SCORE.INTRA.REPUL>
0

>  <SCORE.INTRA.REPUL.0>
0

>  <SCORE.INTRA.SOLV>
-2.44613

>  <SCORE.INTRA.SOLV.lig_0>
-39.6315

>  <SCORE.INTRA.VDW>
1.22911

>  <SCORE.INTRA.VDW.0>
-4.02152

>  <SCORE.INTRA.norm>
0.0531079

>  <SCORE.RESTR>
0

>  <SCORE.RESTR.CAVITY>
0

>  <SCORE.RESTR.norm>
0

>  <SCORE.SYSTEM>
0

>  <SCORE.SYSTEM.CONST>
0

>  <SCORE.SYSTEM.DIHEDRAL>
0

>  <SCORE.SYSTEM.SOLV>
0

>  <SCORE.SYSTEM.norm>
0

>  <SCORE.heavy>
27

>  <SCORE.norm>
-0.475706

>  <RMSD>
5.342

$$$$
lig.pdb
 OpenBabel11021811493D
libRbt.so/2013.1/901 2013/11/27
 27 29  0  0  0  0  0  0  0  0999 V2000
    3.9324  -17.2870  -12.6449 N   0  0  0  0  0  0  0  0  0  0  0  0
    2.4547  -17.0621  -12.6410 C   0  0  2  0  0  0  0  0  0  0  0  0
    2.1739  -15.5837  -12.8934 C   0  0  0  0  0  0  0  0  0  0  0  0
    3.1058  -14.8224  -13.1251 O   0  0  0  0  0  0  0  0  0  0  0  0
    1.0330  -15.1046  -12.8705 O   0  0  0  0  0  0  0  0  0  0  0  0
    1.7548  -17.5668  -11.3630 C   0  0  0  0  0  0  0  0  0  0  0  0
    0.9692  -16.5155  -10.5358 C   0  0  0  0  0  0  0  0  0  0  0  0
    0.1137  -17.0516   -8.9918 S   0  0  2  0  0  0  0  0  0  0  0  0
    0.0883  -15.5150   -8.0442 C   0  0  0  0  0  0  0  0  0  0  0  0
    1.3941  -17.9470   -8.0859 C   0  0  0  0  0  0  0  0  0  0  0  0
    2.7612  -17.3645   -8.4193 C   0  0  1  0  0  0  0  0  0  0  0  0
    2.9899  -16.1126   -7.7903 O   0  0  0  0  0  0  0  0  0  0  0  0
    3.9022  -18.2219   -7.9411 C   0  0  1  0  0  0  0  0  0  0  0  0
    4.0961  -19.2968   -8.8145 O   0  0  0  0  0  0  0  0  0  0  0  0
    5.0352  -17.2201   -7.9719 C   0  0  1  0  0  0  0  0  0  0  0  0
    5.5519  -17.1092   -9.2825 O   0  0  0  0  0  0  0  0  0  0  0  0
    4.3756  -15.9007   -7.5865 C   0  0  2  0  0  0  0  0  0  0  0  0
    4.6629  -15.4322   -6.2029 N   0  0  0  0  0  0  0  0  0  0  0  0
    4.1401  -14.3037   -5.6231 C   0  0  0  0  0  0  0  0  0  0  0  0
    4.6170  -14.1905   -4.3633 N   0  0  0  0  0  0  0  0  0  0  0  0
    5.4311  -15.2299   -4.1163 C   0  0  0  0  0  0  0  0  0  0  0  0
    6.1597  -15.5952   -2.9947 C   0  0  0  0  0  0  0  0  0  0  0  0
    6.1186  -14.8511   -1.8973 N   0  0  0  0  0  0  0  0  0  0  0  0
    6.9228  -16.7455   -3.0325 N   0  0  0  0  0  0  0  0  0  0  0  0
    6.9675  -17.5394   -4.1715 C   0  0  0  0  0  0  0  0  0  0  0  0
    6.2310  -17.1629   -5.2762 N   0  0  0  0  0  0  0  0  0  0  0  0
    5.4780  -16.0245   -5.2591 C   0  0  0  0  0  0  0  0  0  0  0  0
  2  3  1  1  0  0  0
  2  6  1  0  0  0  0
  2  1  1  0  0  0  0
  4  3  2  0  0  0  0
  5  3  1  0  0  0  0
  6  7  2  0  0  0  0
  8  7  1  6  0  0  0
  8  9  1  0  0  0  0
  8 10  1  0  0  0  0
 11 10  1  1  0  0  0
 11 13  1  0  0  0  0
 12 11  1  0  0  0  0
 12 17  1  0  0  0  0
 13 14  1  6  0  0  0
 13 15  1  0  0  0  0
 15 16  1  6  0  0  0
 17 18  1  1  0  0  0
 17 15  1  0  0  0  0
 18 19  1  0  0  0  0
 20 19  2  0  0  0  0
 21 27  2  0  0  0  0
 21 20  1  0  0  0  0
 22 21  1  0  0  0  0
 23 22  1  0  0  0  0
 24 22  2  0  0  0  0
 24 25  1  0  0  0  0
 25 26  2  0  0  0  0
 26 27  1  0  0  0  0
 27 18  1  0  0  0  0
M  END
>  <CHROM.1>
3.70456276,121.16525148,153.52969937,30.33157812,74.61549705,-57.94236860
3.58727808,-16.43442176,-7.98460379,-2.08231631,-0.27335301,1.34567344

>  <Name>
lig.pdb

>  <RI>
0

>  <Rbt.Current_Directory>
/home/itssahil/PROJECTS/Mol_Feturizer/New_Systems/rnas/4b5r

>  <Rbt.Executable>
rbdock ($Id: //depot/dev/client3/rdock/2013.1/src/exe/rbdock.cxx#4 $)

>  <Rbt.Library>
libRbt.so (2013.1, Build901 2013/11/27)

>  <Rbt.Parameter_File>
/export/apps/rDock/src/rDock_2013.1_src/data/scripts/dock_solv.prm

>  <Rbt.Receptor>
prm/pocket_docking_5.prm

>  <SCORE>
-17.2243

>  <SCORE.INTER>
-18.6865

>  <SCORE.INTER.CONST>
1

>  <SCORE.INTER.POLAR>
0

>  <SCORE.INTER.ROT>
6

>  <SCORE.INTER.SOLV>
14.7949

>  <SCORE.INTER.VDW>
-24.9893

>  <SCORE.INTER.norm>
-0.692091

>  <SCORE.INTRA>
1.45947

>  <SCORE.INTRA.DIHEDRAL>
-1.40559

>  <SCORE.INTRA.DIHEDRAL.0>
10.2917

>  <SCORE.INTRA.POLAR>
0

>  <SCORE.INTRA.POLAR.0>
0

>  <SCORE.INTRA.REPUL>
0

>  <SCORE.INTRA.REPUL.0>
0

>  <SCORE.INTRA.SOLV>
-2.02564

>  <SCORE.INTRA.SOLV.lig_0>
-39.6315

>  <SCORE.INTRA.VDW>
3.17509

>  <SCORE.INTRA.VDW.0>
-4.02152

>  <SCORE.INTRA.norm>
0.0540546

>  <SCORE.RESTR>
0.00265859

>  <SCORE.RESTR.CAVITY>
0.00265859

>  <SCORE.RESTR.norm>
9.84662e-05

>  <SCORE.SYSTEM>
0

>  <SCORE.SYSTEM.CONST>
0

>  <SCORE.SYSTEM.DIHEDRAL>
0

>  <SCORE.SYSTEM.SOLV>
0

>  <SCORE.SYSTEM.norm>
0

>  <SCORE.heavy>
27

>  <SCORE.norm>
-0.637938

>  <RMSD>
5.342

$$$$
lig.pdb
 OpenBabel11021811493D
libRbt.so/2013.1/901 2013/11/27
 27 29  0  0  0  0  0  0  0  0999 V2000
    1.5592  -16.2734  -12.0228 N   0  0  0  0  0  0  0  0  0  0  0  0
    1.9224  -14.8975  -11.5657 C   0  0  2  0  0  0  0  0  0  0  0  0
    3.4248  -14.6944  -11.7375 C   0  0  0  0  0  0  0  0  0  0  0  0
    3.8410  -13.6567  -12.2394 O   0  0  0  0  0  0  0  0  0  0  0  0
    4.2594  -15.5415  -11.3946 O   0  0  0  0  0  0  0  0  0  0  0  0
    1.4636  -14.5812  -10.1278 C   0  0  0  0  0  0  0  0  0  0  0  0
    2.5520  -14.6215   -9.0231 C   0  0  0  0  0  0  0  0  0  0  0  0
    2.0691  -14.2592   -7.2798 S   0  0  2  0  0  0  0  0  0  0  0  0
    1.1887  -12.6945   -7.4696 C   0  0  0  0  0  0  0  0  0  0  0  0
    3.5993  -13.6590   -6.5314 C   0  0  0  0  0  0  0  0  0  0  0  0
    4.5509  -14.8259   -6.3028 C   0  0  1  0  0  0  0  0  0  0  0  0
    4.5855  -15.7259   -7.4001 O   0  0  0  0  0  0  0  0  0  0  0  0
    5.9848  -14.3973   -6.1429 C   0  0  1  0  0  0  0  0  0  0  0  0
    6.2004  -13.9084   -4.8504 O   0  0  0  0  0  0  0  0  0  0  0  0
    6.6977  -15.7045   -6.4097 C   0  0  1  0  0  0  0  0  0  0  0  0
    6.7126  -16.4986   -5.2409 O   0  0  0  0  0  0  0  0  0  0  0  0
    5.8349  -16.3903   -7.4632 C   0  0  2  0  0  0  0  0  0  0  0  0
    6.3951  -16.3788   -8.8425 N   0  0  0  0  0  0  0  0  0  0  0  0
    6.5815  -17.4855   -9.6321 C   0  0  0  0  0  0  0  0  0  0  0  0
    7.1071  -17.1018  -10.8170 N   0  0  0  0  0  0  0  0  0  0  0  0
    7.2551  -15.7669  -10.8099 C   0  0  0  0  0  0  0  0  0  0  0  0
    7.7324  -14.8785  -11.7615 C   0  0  0  0  0  0  0  0  0  0  0  0
    8.1473  -15.3198  -12.9417 N   0  0  0  0  0  0  0  0  0  0  0  0
    7.7643  -13.5297  -11.4676 N   0  0  0  0  0  0  0  0  0  0  0  0
    7.3240  -13.0526  -10.2395 C   0  0  0  0  0  0  0  0  0  0  0  0
    6.8469  -13.9513   -9.3071 N   0  0  0  0  0  0  0  0  0  0  0  0
    6.8160  -15.2888   -9.5778 C   0  0  0  0  0  0  0  0  0  0  0  0
  2  3  1  1  0  0  0
  2  6  1  0  0  0  0
  2  1  1  0  0  0  0
  4  3  2  0  0  0  0
  5  3  1  0  0  0  0
  6  7  2  0  0  0  0
  8  7  1  6  0  0  0
  8  9  1  0  0  0  0
  8 10  1  0  0  0  0
 11 10  1  6  0  0  0
 11 13  1  0  0  0  0
 12 11  1  0  0  0  0
 12 17  1  0  0  0  0
 13 14  1  1  0  0  0
 13 15  1  0  0  0  0
 15 16  1  1  0  0  0
 17 18  1  6  0  0  0
 17 15  1  0  0  0  0
 18 19  1  0  0  0  0
 20 19  2  0  0  0  0
 21 27  2  0  0  0  0
 21 20  1  0  0  0  0
 22 21  1  0  0  0  0
 23 22  1  0  0  0  0
 24 22  2  0  0  0  0
 24 25  1  0  0  0  0
 25 26  2  0  0  0  0
 26 27  1  0  0  0  0
 27 18  1  0  0  0  0
M  END
>  <CHROM.1>
134.41878102,102.97314298,-51.35091063,-74.05426131,42.55209059,-114.14038301
4.95853396,-14.95864960,-9.06743162,1.09024601,0.20356135,-1.60594995

>  <Name>
lig.pdb

>  <RI>
0

>  <Rbt.Current_Directory>
/home/itssahil/PROJECTS/Mol_Feturizer/New_Systems/rnas/4b5r

>  <Rbt.Executable>
rbdock ($Id: //depot/dev/client3/rdock/2013.1/src/exe/rbdock.cxx#4 $)

>  <Rbt.Library>
libRbt.so (2013.1, Build901 2013/11/27)

>  <Rbt.Parameter_File>
/export/apps/rDock/src/rDock_2013.1_src/data/scripts/dock_solv.prm

>  <Rbt.Receptor>
prm/pocket_docking_3.prm

>  <SCORE>
-17.0885

>  <SCORE.INTER>
-14.9832

>  <SCORE.INTER.CONST>
1

>  <SCORE.INTER.POLAR>
0

>  <SCORE.INTER.ROT>
6

>  <SCORE.INTER.SOLV>
14.329

>  <SCORE.INTER.VDW>
-22.3651

>  <SCORE.INTER.norm>
-0.554934

>  <SCORE.INTRA>
-2.10531

>  <SCORE.INTRA.DIHEDRAL>
-1.82744

>  <SCORE.INTRA.DIHEDRAL.0>
10.2917

>  <SCORE.INTRA.POLAR>
0

>  <SCORE.INTRA.POLAR.0>
0

>  <SCORE.INTRA.REPUL>
0

>  <SCORE.INTRA.REPUL.0>
0

>  <SCORE.INTRA.SOLV>
-2.56412

>  <SCORE.INTRA.SOLV.lig_0>
-39.6315

>  <SCORE.INTRA.VDW>
0.0904672

>  <SCORE.INTRA.VDW.0>
-4.02152

>  <SCORE.INTRA.norm>
-0.0779746

>  <SCORE.RESTR>
0

>  <SCORE.RESTR.CAVITY>
0

>  <SCORE.RESTR.norm>
0

>  <SCORE.SYSTEM>
0

>  <SCORE.SYSTEM.CONST>
0

>  <SCORE.SYSTEM.DIHEDRAL>
0

>  <SCORE.SYSTEM.SOLV>
0

>  <SCORE.SYSTEM.norm>
0

>  <SCORE.heavy>
27

>  <SCORE.norm>
-0.632909

>  <RMSD>
5.344

$$$$
lig.pdb
 OpenBabel11021811493D
libRbt.so/2013.1/901 2013/11/27
 27 29  0  0  0  0  0  0  0  0999 V2000
    5.8471  -12.3842  -14.7007 N   0  0  0  0  0  0  0  0  0  0  0  0
    5.7420  -11.9668  -13.2694 C   0  0  2  0  0  0  0  0  0  0  0  0
    7.1384  -11.6659  -12.7331 C   0  0  0  0  0  0  0  0  0  0  0  0
    7.3034  -11.5138  -11.5283 O   0  0  0  0  0  0  0  0  0  0  0  0
    8.1299  -11.5604  -13.4663 O   0  0  0  0  0  0  0  0  0  0  0  0
    4.9953  -12.9824  -12.3812 C   0  0  0  0  0  0  0  0  0  0  0  0
    4.3688  -14.2078  -13.0971 C   0  0  0  0  0  0  0  0  0  0  0  0
    3.4556  -15.4580  -12.0938 S   0  0  2  0  0  0  0  0  0  0  0  0
    2.1467  -15.9480  -13.2366 C   0  0  0  0  0  0  0  0  0  0  0  0
    2.4933  -14.4557  -10.9400 C   0  0  0  0  0  0  0  0  0  0  0  0
    1.9616  -15.3351   -9.8160 C   0  0  1  0  0  0  0  0  0  0  0  0
    2.9935  -16.0260   -9.1281 O   0  0  0  0  0  0  0  0  0  0  0  0
    1.2660  -14.5550   -8.7330 C   0  0  1  0  0  0  0  0  0  0  0  0
   -0.0277  -14.2137   -9.1401 O   0  0  0  0  0  0  0  0  0  0  0  0
    1.2870  -15.5636   -7.6059 C   0  0  1  0  0  0  0  0  0  0  0  0
    0.2213  -16.4800   -7.7523 O   0  0  0  0  0  0  0  0  0  0  0  0
    2.6063  -16.3043   -7.7942 C   0  0  2  0  0  0  0  0  0  0  0  0
    3.6763  -15.9437   -6.8240 N   0  0  0  0  0  0  0  0  0  0  0  0
    3.8548  -14.7033   -6.2649 C   0  0  0  0  0  0  0  0  0  0  0  0
    4.9192  -14.7409   -5.4324 N   0  0  0  0  0  0  0  0  0  0  0  0
    5.4255  -15.9849   -5.4372 C   0  0  0  0  0  0  0  0  0  0  0  0
    6.4938  -16.5573   -4.7637 C   0  0  0  0  0  0  0  0  0  0  0  0
    7.2250  -15.8322   -3.9276 N   0  0  0  0  0  0  0  0  0  0  0  0
    6.7827  -17.8918   -4.9697 N   0  0  0  0  0  0  0  0  0  0  0  0
    6.0196  -18.6656   -5.8350 C   0  0  0  0  0  0  0  0  0  0  0  0
    4.9566  -18.0799   -6.4920 N   0  0  0  0  0  0  0  0  0  0  0  0
    4.6621  -16.7600   -6.3066 C   0  0  0  0  0  0  0  0  0  0  0  0
  2  3  1  1  0  0  0
  2  6  1  0  0  0  0
  2  1  1  0  0  0  0
  4  3  2  0  0  0  0
  5  3  1  0  0  0  0
  6  7  2  0  0  0  0
  8  7  1  6  0  0  0
  8  9  1  0  0  0  0
  8 10  1  0  0  0  0
 11 10  1  6  0  0  0
 11 13  1  0  0  0  0
 12 11  1  0  0  0  0
 12 17  1  0  0  0  0
 13 14  1  6  0  0  0
 13 15  1  0  0  0  0
 15 16  1  6  0  0  0
 17 18  1  1  0  0  0
 17 15  1  0  0  0  0
 18 19  1  0  0  0  0
 20 19  2  0  0  0  0
 21 27  2  0  0  0  0
 21 20  1  0  0  0  0
 22 21  1  0  0  0  0
 23 22  1  0  0  0  0
 24 22  2  0  0  0  0
 24 25  1  0  0  0  0
 25 26  2  0  0  0  0
 26 27  1  0  0  0  0
 27 18  1  0  0  0  0
M  END
>  <CHROM.1>
-168.40025274,-4.85030895,145.08477880,-165.57584959,56.66597790,86.74295425
4.21825416,-15.02192765,-9.23399684,-1.48630972,0.26899798,2.02085990

>  <Name>
lig.pdb

>  <RI>
0

>  <Rbt.Current_Directory>
/home/itssahil/PROJECTS/Mol_Feturizer/New_Systems/rnas/4b5r

>  <Rbt.Executable>
rbdock ($Id: //depot/dev/client3/rdock/2013.1/src/exe/rbdock.cxx#4 $)

>  <Rbt.Library>
libRbt.so (2013.1, Build901 2013/11/27)

>  <Rbt.Parameter_File>
/export/apps/rDock/src/rDock_2013.1_src/data/scripts/dock_solv.prm

>  <Rbt.Receptor>
prm/pocket_docking_6.prm

>  <SCORE>
-16.6949

>  <SCORE.INTER>
-16.6376

>  <SCORE.INTER.CONST>
1

>  <SCORE.INTER.POLAR>
0

>  <SCORE.INTER.ROT>
6

>  <SCORE.INTER.SOLV>
14.9471

>  <SCORE.INTER.VDW>
-23.6741

>  <SCORE.INTER.norm>
-0.616207

>  <SCORE.INTRA>
-0.0573302

>  <SCORE.INTRA.DIHEDRAL>
-2.13839

>  <SCORE.INTRA.DIHEDRAL.0>
10.2917

>  <SCORE.INTRA.POLAR>
0

>  <SCORE.INTRA.POLAR.0>
0

>  <SCORE.INTRA.REPUL>
0

>  <SCORE.INTRA.REPUL.0>
0

>  <SCORE.INTRA.SOLV>
-2.7897

>  <SCORE.INTRA.SOLV.lig_0>
-39.6315

>  <SCORE.INTRA.VDW>
2.40671

>  <SCORE.INTRA.VDW.0>
-4.02152

>  <SCORE.INTRA.norm>
-0.00212334

>  <SCORE.RESTR>
0

>  <SCORE.RESTR.CAVITY>
0

>  <SCORE.RESTR.norm>
0

>  <SCORE.SYSTEM>
0

>  <SCORE.SYSTEM.CONST>
0

>  <SCORE.SYSTEM.DIHEDRAL>
0

>  <SCORE.SYSTEM.SOLV>
0

>  <SCORE.SYSTEM.norm>
0

>  <SCORE.heavy>
27

>  <SCORE.norm>
-0.61833

>  <RMSD>
5.346

$$$$
lig.pdb
 OpenBabel11021811493D
libRbt.so/2013.1/901 2013/11/27
 27 29  0  0  0  0  0  0  0  0999 V2000
    7.2074  -16.1325  -11.0824 N   0  0  0  0  0  0  0  0  0  0  0  0
    6.6066  -14.9815  -11.8228 C   0  0  2  0  0  0  0  0  0  0  0  0
    6.5551  -13.7668  -10.9009 C   0  0  0  0  0  0  0  0  0  0  0  0
    5.5469  -13.0707  -10.8740 O   0  0  0  0  0  0  0  0  0  0  0  0
    7.4985  -13.4396  -10.1695 O   0  0  0  0  0  0  0  0  0  0  0  0
    5.2265  -15.2922  -12.4364 C   0  0  0  0  0  0  0  0  0  0  0  0
    4.4962  -16.5551  -11.9086 C   0  0  0  0  0  0  0  0  0  0  0  0
    2.8438  -16.9880  -12.6054 S   0  0  2  0  0  0  0  0  0  0  0  0
    2.7749  -15.9164  -14.0568 C   0  0  0  0  0  0  0  0  0  0  0  0
    1.6867  -16.1156  -11.5275 C   0  0  0  0  0  0  0  0  0  0  0  0
    1.2856  -17.0179  -10.3680 C   0  0  1  0  0  0  0  0  0  0  0  0
    2.4053  -17.5758   -9.6970 O   0  0  0  0  0  0  0  0  0  0  0  0
    0.5408  -16.2893   -9.2817 C   0  0  1  0  0  0  0  0  0  0  0  0
   -0.7934  -16.0998   -9.6559 O   0  0  0  0  0  0  0  0  0  0  0  0
    0.7029  -17.2605   -8.1333 C   0  0  1  0  0  0  0  0  0  0  0  0
   -0.2611  -18.2896   -8.2258 O   0  0  0  0  0  0  0  0  0  0  0  0
    2.0887  -17.8597   -8.3458 C   0  0  2  0  0  0  0  0  0  0  0  0
    3.1406  -17.3613   -7.4178 N   0  0  0  0  0  0  0  0  0  0  0  0
    4.1178  -18.1317   -6.8394 C   0  0  0  0  0  0  0  0  0  0  0  0
    4.8959  -17.3492   -6.0587 N   0  0  0  0  0  0  0  0  0  0  0  0
    4.4442  -16.0862   -6.1296 C   0  0  0  0  0  0  0  0  0  0  0  0
    4.8785  -14.9083   -5.5411 C   0  0  0  0  0  0  0  0  0  0  0  0
    5.9338  -14.9102   -4.7374 N   0  0  0  0  0  0  0  0  0  0  0  0
    4.2031  -13.7336   -5.8071 N   0  0  0  0  0  0  0  0  0  0  0  0
    3.1024  -13.7153   -6.6544 C   0  0  0  0  0  0  0  0  0  0  0  0
    2.6883  -14.8966   -7.2355 N   0  0  0  0  0  0  0  0  0  0  0  0
    3.3392  -16.0682   -6.9770 C   0  0  0  0  0  0  0  0  0  0  0  0
  2  3  1  1  0  0  0
  2  6  1  0  0  0  0
  2  1  1  0  0  0  0
  4  3  2  0  0  0  0
  5  3  1  0  0  0  0
  6  7  2  0  0  0  0
  8  7  1  1  0  0  0
  8  9  1  0  0  0  0
  8 10  1  0  0  0  0
 11 10  1  6  0  0  0
 11 13  1  0  0  0  0
 12 11  1  0  0  0  0
 12 17  1  0  0  0  0
 13 14  1  6  0  0  0
 13 15  1  0  0  0  0
 15 16  1  6  0  0  0
 17 18  1  1  0  0  0
 17 15  1  0  0  0  0
 18 19  1  0  0  0  0
 20 19  2  0  0  0  0
 21 27  2  0  0  0  0
 21 20  1  0  0  0  0
 22 21  1  0  0  0  0
 23 22  1  0  0  0  0
 24 22  2  0  0  0  0
 24 25  1  0  0  0  0
 25 26  2  0  0  0  0
 26 27  1  0  0  0  0
 27 18  1  0  0  0  0
M  END
>  <CHROM.1>
-136.45528336,15.79369067,13.22524014,-90.51058702,51.33885538,-100.77727354
3.52883416,-15.96752511,-9.27299145,-1.49462765,0.47421761,1.55195558

>  <Name>
lig.pdb

>  <RI>
0

>  <Rbt.Current_Directory>
/home/itssahil/PROJECTS/Mol_Feturizer/New_Systems/rnas/4b5r

>  <Rbt.Executable>
rbdock ($Id: //depot/dev/client3/rdock/2013.1/src/exe/rbdock.cxx#4 $)

>  <Rbt.Library>
libRbt.so (2013.1, Build901 2013/11/27)

>  <Rbt.Parameter_File>
/export/apps/rDock/src/rDock_2013.1_src/data/scripts/dock_solv.prm

>  <Rbt.Receptor>
prm/pocket_docking_3.prm

>  <SCORE>
-13.301

>  <SCORE.INTER>
-14.5188

>  <SCORE.INTER.CONST>
1

>  <SCORE.INTER.POLAR>
0

>  <SCORE.INTER.ROT>
6

>  <SCORE.INTER.SOLV>
13.6478

>  <SCORE.INTER.VDW>
-21.8284

>  <SCORE.INTER.norm>
-0.537732

>  <SCORE.INTRA>
1.21773

>  <SCORE.INTRA.DIHEDRAL>
-0.298354

>  <SCORE.INTRA.DIHEDRAL.0>
10.2917

>  <SCORE.INTRA.POLAR>
0

>  <SCORE.INTRA.POLAR.0>
0

>  <SCORE.INTRA.REPUL>
0

>  <SCORE.INTRA.REPUL.0>
0

>  <SCORE.INTRA.SOLV>
-2.06698

>  <SCORE.INTRA.SOLV.lig_0>
-39.6315

>  <SCORE.INTRA.VDW>
2.4004

>  <SCORE.INTRA.VDW.0>
-4.02152

>  <SCORE.INTRA.norm>
0.0451011

>  <SCORE.RESTR>
0

>  <SCORE.RESTR.CAVITY>
0

>  <SCORE.RESTR.norm>
0

>  <SCORE.SYSTEM>
0

>  <SCORE.SYSTEM.CONST>
0

>  <SCORE.SYSTEM.DIHEDRAL>
0

>  <SCORE.SYSTEM.SOLV>
0

>  <SCORE.SYSTEM.norm>
0

>  <SCORE.heavy>
27

>  <SCORE.norm>
-0.492631

>  <RMSD>
5.347

$$$$
lig.pdb
 OpenBabel11021811493D
libRbt.so/2013.1/901 2013/11/27
 27 29  0  0  0  0  0  0  0  0999 V2000
    5.7463  -14.3547  -16.7204 N   0  0  0  0  0  0  0  0  0  0  0  0
    5.7043  -14.0878  -15.2503 C   0  0  2  0  0  0  0  0  0  0  0  0
    7.1293  -13.9130  -14.7336 C   0  0  0  0  0  0  0  0  0  0  0  0
    8.0167  -14.6504  -15.1466 O   0  0  0  0  0  0  0  0  0  0  0  0
    7.4393  -13.0526  -13.8996 O   0  0  0  0  0  0  0  0  0  0  0  0
    4.9325  -15.1553  -14.4487 C   0  0  0  0  0  0  0  0  0  0  0  0
    3.9072  -14.6389  -13.4054 C   0  0  0  0  0  0  0  0  0  0  0  0
    2.9544  -15.8635  -12.4074 S   0  0  2  0  0  0  0  0  0  0  0  0
    1.5671  -16.2197  -13.5065 C   0  0  0  0  0  0  0  0  0  0  0  0
    2.1136  -14.8451  -11.1755 C   0  0  0  0  0  0  0  0  0  0  0  0
    1.3261  -15.7361  -10.2240 C   0  0  1  0  0  0  0  0  0  0  0  0
    2.0692  -16.8662   -9.7926 O   0  0  0  0  0  0  0  0  0  0  0  0
    0.9468  -15.0436   -8.9426 C   0  0  1  0  0  0  0  0  0  0  0  0
   -0.1585  -14.2129   -9.1527 O   0  0  0  0  0  0  0  0  0  0  0  0
    0.6355  -16.2349   -8.0638 C   0  0  1  0  0  0  0  0  0  0  0  0
   -0.6792  -16.6911   -8.3095 O   0  0  0  0  0  0  0  0  0  0  0  0
    1.6235  -17.3023   -8.5207 C   0  0  2  0  0  0  0  0  0  0  0  0
    2.7618  -17.5469   -7.5929 N   0  0  0  0  0  0  0  0  0  0  0  0
    3.2285  -18.7818   -7.2185 C   0  0  0  0  0  0  0  0  0  0  0  0
    4.2688  -18.6244   -6.3696 N   0  0  0  0  0  0  0  0  0  0  0  0
    4.4875  -17.3106   -6.1962 C   0  0  0  0  0  0  0  0  0  0  0  0
    5.4235  -16.6140   -5.4470 C   0  0  0  0  0  0  0  0  0  0  0  0
    6.3253  -17.2672   -4.7263 N   0  0  0  0  0  0  0  0  0  0  0  0
    5.4087  -15.2333   -5.4658 N   0  0  0  0  0  0  0  0  0  0  0  0
    4.4762  -14.5363   -6.2237 C   0  0  0  0  0  0  0  0  0  0  0  0
    3.5561  -15.2468   -6.9675 N   0  0  0  0  0  0  0  0  0  0  0  0
    3.5511  -16.6117   -6.9540 C   0  0  0  0  0  0  0  0  0  0  0  0
  2  3  1  1  0  0  0
  2  6  1  0  0  0  0
  2  1  1  0  0  0  0
  4  3  2  0  0  0  0
  5  3  1  0  0  0  0
  6  7  2  0  0  0  0
  8  7  1  6  0  0  0
  8  9  1  0  0  0  0
  8 10  1  0  0  0  0
 11 10  1  6  0  0  0
 11 13  1  0  0  0  0
 12 11  1  0  0  0  0
 12 17  1  0  0  0  0
 13 14  1  6  0  0  0
 13 15  1  0  0  0  0
 15 16  1  6  0  0  0
 17 18  1  1  0  0  0
 17 15  1  0  0  0  0
 18 19  1  0  0  0  0
 20 19  2  0  0  0  0
 21 27  2  0  0  0  0
 21 20  1  0  0  0  0
 22 21  1  0  0  0  0
 23 22  1  0  0  0  0
 24 22  2  0  0  0  0
 24 25  1  0  0  0  0
 25 26  2  0  0  0  0
 26 27  1  0  0  0  0
 27 18  1  0  0  0  0
M  END
>  <CHROM.1>
-40.96200391,-133.09542305,-85.76496967,-177.36954174,44.94339631,-105.41165893
3.59663030,-15.78280245,-10.06846284,-1.28688860,0.10448558,1.81603599

>  <Name>
lig.pdb

>  <RI>
0

>  <Rbt.Current_Directory>
/home/itssahil/PROJECTS/Mol_Feturizer/New_Systems/rnas/4b5r

>  <Rbt.Executable>
rbdock ($Id: //depot/dev/client3/rdock/2013.1/src/exe/rbdock.cxx#4 $)

>  <Rbt.Library>
libRbt.so (2013.1, Build901 2013/11/27)

>  <Rbt.Parameter_File>
/export/apps/rDock/src/rDock_2013.1_src/data/scripts/dock_solv.prm

>  <Rbt.Receptor>
prm/pocket_docking_6.prm

>  <SCORE>
-16.2675

>  <SCORE.INTER>
-15.484

>  <SCORE.INTER.CONST>
1

>  <SCORE.INTER.POLAR>
0

>  <SCORE.INTER.ROT>
6

>  <SCORE.INTER.SOLV>
11.735

>  <SCORE.INTER.VDW>
-21.8343

>  <SCORE.INTER.norm>
-0.573481

>  <SCORE.INTRA>
-0.783513

>  <SCORE.INTRA.DIHEDRAL>
-1.16632

>  <SCORE.INTRA.DIHEDRAL.0>
10.2917

>  <SCORE.INTRA.POLAR>
0

>  <SCORE.INTRA.POLAR.0>
0

>  <SCORE.INTRA.REPUL>
0

>  <SCORE.INTRA.REPUL.0>
0

>  <SCORE.INTRA.SOLV>
-2.83143

>  <SCORE.INTRA.SOLV.lig_0>
-39.6315

>  <SCORE.INTRA.VDW>
1.21536

>  <SCORE.INTRA.VDW.0>
-4.02152

>  <SCORE.INTRA.norm>
-0.029019

>  <SCORE.RESTR>
0

>  <SCORE.RESTR.CAVITY>
0

>  <SCORE.RESTR.norm>
0

>  <SCORE.SYSTEM>
0

>  <SCORE.SYSTEM.CONST>
0

>  <SCORE.SYSTEM.DIHEDRAL>
0

>  <SCORE.SYSTEM.SOLV>
0

>  <SCORE.SYSTEM.norm>
0

>  <SCORE.heavy>
27

>  <SCORE.norm>
-0.6025

>  <RMSD>
5.349

$$$$
lig.pdb
 OpenBabel11021811493D
libRbt.so/2013.1/901 2013/11/27
 27 29  0  0  0  0  0  0  0  0999 V2000
    6.2281  -14.4546  -16.6145 N   0  0  0  0  0  0  0  0  0  0  0  0
    5.3009  -13.8835  -15.5908 C   0  0  2  0  0  0  0  0  0  0  0  0
    6.0943  -12.9911  -14.6409 C   0  0  0  0  0  0  0  0  0  0  0  0
    5.8703  -11.7866  -14.6145 O   0  0  0  0  0  0  0  0  0  0  0  0
    6.9719  -13.4287  -13.8858 O   0  0  0  0  0  0  0  0  0  0  0  0
    4.4876  -14.9490  -14.8286 C   0  0  0  0  0  0  0  0  0  0  0  0
    4.0265  -14.5809  -13.3938 C   0  0  0  0  0  0  0  0  0  0  0  0
    3.0550  -15.8135  -12.4240 S   0  0  2  0  0  0  0  0  0  0  0  0
    1.7210  -16.2048  -13.5759 C   0  0  0  0  0  0  0  0  0  0  0  0
    2.1458  -14.7992  -11.2382 C   0  0  0  0  0  0  0  0  0  0  0  0
    1.1894  -15.6756  -10.4402 C   0  0  1  0  0  0  0  0  0  0  0  0
    1.6782  -16.9964  -10.2621 O   0  0  0  0  0  0  0  0  0  0  0  0
    0.9661  -15.1815   -9.0361 C   0  0  1  0  0  0  0  0  0  0  0  0
    0.0605  -14.1158   -9.0386 O   0  0  0  0  0  0  0  0  0  0  0  0
    0.4118  -16.4301   -8.3864 C   0  0  1  0  0  0  0  0  0  0  0  0
   -0.9698  -16.5485   -8.6586 O   0  0  0  0  0  0  0  0  0  0  0  0
    1.1521  -17.5693   -9.0782 C   0  0  2  0  0  0  0  0  0  0  0  0
    2.2144  -18.2188   -8.2622 N   0  0  0  0  0  0  0  0  0  0  0  0
    2.5518  -17.8717   -6.9782 C   0  0  0  0  0  0  0  0  0  0  0  0
    3.5546  -18.6714   -6.5512 N   0  0  0  0  0  0  0  0  0  0  0  0
    3.8647  -19.5339   -7.5330 C   0  0  0  0  0  0  0  0  0  0  0  0
    4.7978  -20.5564   -7.6130 C   0  0  0  0  0  0  0  0  0  0  0  0
    5.5880  -20.8246   -6.5818 N   0  0  0  0  0  0  0  0  0  0  0  0
    4.8896  -21.2950   -8.7760 N   0  0  0  0  0  0  0  0  0  0  0  0
    4.0619  -21.0315   -9.8601 C   0  0  0  0  0  0  0  0  0  0  0  0
    3.1352  -20.0137   -9.7599 N   0  0  0  0  0  0  0  0  0  0  0  0
    3.0367  -19.2682   -8.6208 C   0  0  0  0  0  0  0  0  0  0  0  0
  2  3  1  1  0  0  0
  2  6  1  0  0  0  0
  2  1  1  0  0  0  0
  4  3  2  0  0  0  0
  5  3  1  0  0  0  0
  6  7  2  0  0  0  0
  8  7  1  6  0  0  0
  8  9  1  0  0  0  0
  8 10  1  0  0  0  0
 11 10  1  1  0  0  0
 11 13  1  0  0  0  0
 12 11  1  0  0  0  0
 12 17  1  0  0  0  0
 13 14  1  6  0  0  0
 13 15  1  0  0  0  0
 15 16  1  6  0  0  0
 17 18  1  1  0  0  0
 17 15  1  0  0  0  0
 18 19  1  0  0  0  0
 20 19  2  0  0  0  0
 21 27  2  0  0  0  0
 21 20  1  0  0  0  0
 22 21  1  0  0  0  0
 23 22  1  0  0  0  0
 24 22  2  0  0  0  0
 24 25  1  0  0  0  0
 25 26  2  0  0  0  0
 26 27  1  0  0  0  0
 27 18  1  0  0  0  0
M  END
>  <CHROM.1>
114.60930187,152.85255096,-52.83488383,174.79668741,31.20502310,119.62812537
3.22383131,-16.64727440,-10.72630672,-1.28449741,-0.51693117,2.39238177

>  <Name>
lig.pdb

>  <RI>
0

>  <Rbt.Current_Directory>
/home/itssahil/PROJECTS/Mol_Feturizer/New_Systems/rnas/4b5r

>  <Rbt.Executable>
rbdock ($Id: //depot/dev/client3/rdock/2013.1/src/exe/rbdock.cxx#4 $)

>  <Rbt.Library>
libRbt.so (2013.1, Build901 2013/11/27)

>  <Rbt.Parameter_File>
/export/apps/rDock/src/rDock_2013.1_src/data/scripts/dock_solv.prm

>  <Rbt.Receptor>
prm/pocket_docking_8.prm

>  <SCORE>
-15.2232

>  <SCORE.INTER>
-16.8269

>  <SCORE.INTER.CONST>
1

>  <SCORE.INTER.POLAR>
0

>  <SCORE.INTER.ROT>
6

>  <SCORE.INTER.SOLV>
12.1743

>  <SCORE.INTER.VDW>
-22.876

>  <SCORE.INTER.norm>
-0.623217

>  <SCORE.INTRA>
1.60364

>  <SCORE.INTRA.DIHEDRAL>
0.603997

>  <SCORE.INTRA.DIHEDRAL.0>
10.2917

>  <SCORE.INTRA.POLAR>
0

>  <SCORE.INTRA.POLAR.0>
0

>  <SCORE.INTRA.REPUL>
0.0256997

>  <SCORE.INTRA.REPUL.0>
0

>  <SCORE.INTRA.SOLV>
-3.39699

>  <SCORE.INTRA.SOLV.lig_0>
-39.6315

>  <SCORE.INTRA.VDW>
2.87164

>  <SCORE.INTRA.VDW.0>
-4.02152

>  <SCORE.INTRA.norm>
0.0593942

>  <SCORE.RESTR>
0

>  <SCORE.RESTR.CAVITY>
0

>  <SCORE.RESTR.norm>
0

>  <SCORE.SYSTEM>
0

>  <SCORE.SYSTEM.CONST>
0

>  <SCORE.SYSTEM.DIHEDRAL>
0

>  <SCORE.SYSTEM.SOLV>
0

>  <SCORE.SYSTEM.norm>
0

>  <SCORE.heavy>
27

>  <SCORE.norm>
-0.563822

>  <RMSD>
5.349

$$$$
lig.pdb
 OpenBabel11021811493D
libRbt.so/2013.1/901 2013/11/27
 27 29  0  0  0  0  0  0  0  0999 V2000
    3.9515  -17.5703  -12.1166 N   0  0  0  0  0  0  0  0  0  0  0  0
    2.5081  -17.3970  -12.4638 C   0  0  2  0  0  0  0  0  0  0  0  0
    2.3471  -16.1438  -13.3192 C   0  0  0  0  0  0  0  0  0  0  0  0
    2.3925  -15.0400  -12.7889 O   0  0  0  0  0  0  0  0  0  0  0  0
    2.1646  -16.1861  -14.5426 O   0  0  0  0  0  0  0  0  0  0  0  0
    1.5741  -17.3754  -11.2370 C   0  0  0  0  0  0  0  0  0  0  0  0
    2.1984  -16.9183   -9.8924 C   0  0  0  0  0  0  0  0  0  0  0  0
    1.1375  -16.8757   -8.3837 S   0  0  2  0  0  0  0  0  0  0  0  0
   -0.4506  -16.3684   -9.0766 C   0  0  0  0  0  0  0  0  0  0  0  0
    1.6196  -15.3377   -7.5689 C   0  0  0  0  0  0  0  0  0  0  0  0
    2.9792  -15.5128   -6.9053 C   0  0  1  0  0  0  0  0  0  0  0  0
    3.7625  -16.5230   -7.5226 O   0  0  0  0  0  0  0  0  0  0  0  0
    3.8429  -14.2832   -6.9927 C   0  0  1  0  0  0  0  0  0  0  0  0
    3.4446  -13.3455   -6.0345 O   0  0  0  0  0  0  0  0  0  0  0  0
    5.2045  -14.8787   -6.7104 C   0  0  1  0  0  0  0  0  0  0  0  0
    5.3947  -15.0209   -5.3173 O   0  0  0  0  0  0  0  0  0  0  0  0
    5.1438  -16.2634   -7.3456 C   0  0  2  0  0  0  0  0  0  0  0  0
    5.8983  -16.4060   -8.6210 N   0  0  0  0  0  0  0  0  0  0  0  0
    6.1917  -17.5949   -9.2401 C   0  0  0  0  0  0  0  0  0  0  0  0
    6.8857  -17.3458  -10.3732 N   0  0  0  0  0  0  0  0  0  0  0  0
    7.0378  -16.0174  -10.5012 C   0  0  0  0  0  0  0  0  0  0  0  0
    7.6526  -15.2404  -11.4711 C   0  0  0  0  0  0  0  0  0  0  0  0
    8.2322  -15.8113  -12.5189 N   0  0  0  0  0  0  0  0  0  0  0  0
    7.6483  -13.8663  -11.3358 N   0  0  0  0  0  0  0  0  0  0  0  0
    7.0368  -13.2546  -10.2488 C   0  0  0  0  0  0  0  0  0  0  0  0
    6.4249  -14.0440   -9.2965 N   0  0  0  0  0  0  0  0  0  0  0  0
    6.4269  -15.4042   -9.4102 C   0  0  0  0  0  0  0  0  0  0  0  0
  2  3  1  1  0  0  0
  2  6  1  0  0  0  0
  2  1  1  0  0  0  0
  4  3  2  0  0  0  0
  5  3  1  0  0  0  0
  6  7  2  0  0  0  0
  8  7  1  6  0  0  0
  8  9  1  0  0  0  0
  8 10  1  0  0  0  0
 11 10  1  6  0  0  0
 11 13  1  0  0  0  0
 12 11  1  0  0  0  0
 12 17  1  0  0  0  0
 13 14  1  1  0  0  0
 13 15  1  0  0  0  0
 15 16  1  1  0  0  0
 17 18  1  6  0  0  0
 17 15  1  0  0  0  0
 18 19  1  0  0  0  0
 20 19  2  0  0  0  0
 21 27  2  0  0  0  0
 21 20  1  0  0  0  0
 22 21  1  0  0  0  0
 23 22  1  0  0  0  0
 24 22  2  0  0  0  0
 24 25  1  0  0  0  0
 25 26  2  0  0  0  0
 26 27  1  0  0  0  0
 27 18  1  0  0  0  0
M  END
>  <CHROM.1>
-76.40111688,25.75680658,-35.29068685,-74.86481923,25.45354260,-73.11303270
4.18351920,-15.81465026,-9.58747507,0.74218012,-0.22282300,-1.75849676

>  <Name>
lig.pdb

>  <RI>
0

>  <Rbt.Current_Directory>
/home/itssahil/PROJECTS/Mol_Feturizer/New_Systems/rnas/4b5r

>  <Rbt.Executable>
rbdock ($Id: //depot/dev/client3/rdock/2013.1/src/exe/rbdock.cxx#4 $)

>  <Rbt.Library>
libRbt.so (2013.1, Build901 2013/11/27)

>  <Rbt.Parameter_File>
/export/apps/rDock/src/rDock_2013.1_src/data/scripts/dock_solv.prm

>  <Rbt.Receptor>
prm/pocket_docking_3.prm

>  <SCORE>
-13.0127

>  <SCORE.INTER>
-15.1586

>  <SCORE.INTER.CONST>
1

>  <SCORE.INTER.POLAR>
0

>  <SCORE.INTER.ROT>
6

>  <SCORE.INTER.SOLV>
13.0553

>  <SCORE.INTER.VDW>
-22.0575

>  <SCORE.INTER.norm>
-0.561431

>  <SCORE.INTRA>
2.14599

>  <SCORE.INTRA.DIHEDRAL>
0.943979

>  <SCORE.INTRA.DIHEDRAL.0>
10.2917

>  <SCORE.INTRA.POLAR>
0

>  <SCORE.INTRA.POLAR.0>
0

>  <SCORE.INTRA.REPUL>
0

>  <SCORE.INTRA.REPUL.0>
0

>  <SCORE.INTRA.SOLV>
-0.0302336

>  <SCORE.INTRA.SOLV.lig_0>
-39.6315

>  <SCORE.INTRA.VDW>
1.68912

>  <SCORE.INTRA.VDW.0>
-4.02152

>  <SCORE.INTRA.norm>
0.0794812

>  <SCORE.RESTR>
0

>  <SCORE.RESTR.CAVITY>
0

>  <SCORE.RESTR.norm>
0

>  <SCORE.SYSTEM>
0

>  <SCORE.SYSTEM.CONST>
0

>  <SCORE.SYSTEM.DIHEDRAL>
0

>  <SCORE.SYSTEM.SOLV>
0

>  <SCORE.SYSTEM.norm>
0

>  <SCORE.heavy>
27

>  <SCORE.norm>
-0.48195

>  <RMSD>
5.356

$$$$
lig.pdb
 OpenBabel11021811493D
libRbt.so/2013.1/901 2013/11/27
 27 29  0  0  0  0  0  0  0  0999 V2000
    5.0399  -14.7696  -17.1952 N   0  0  0  0  0  0  0  0  0  0  0  0
    5.4195  -14.5967  -15.7600 C   0  0  2  0  0  0  0  0  0  0  0  0
    6.9305  -14.7565  -15.6203 C   0  0  0  0  0  0  0  0  0  0  0  0
    7.4564  -15.8212  -15.9232 O   0  0  0  0  0  0  0  0  0  0  0  0
    7.6648  -13.8512  -15.2042 O   0  0  0  0  0  0  0  0  0  0  0  0
    4.6549  -15.5306  -14.8002 C   0  0  0  0  0  0  0  0  0  0  0  0
    4.0783  -14.8870  -13.5118 C   0  0  0  0  0  0  0  0  0  0  0  0
    3.1580  -15.9498  -12.3173 S   0  0  2  0  0  0  0  0  0  0  0  0
    1.6033  -16.2138  -13.1964 C   0  0  0  0  0  0  0  0  0  0  0  0
    2.6002  -14.7850  -11.0549 C   0  0  0  0  0  0  0  0  0  0  0  0
    1.8770  -15.5375   -9.9458 C   0  0  1  0  0  0  0  0  0  0  0  0
    2.6811  -16.5486   -9.3572 O   0  0  0  0  0  0  0  0  0  0  0  0
    1.4967  -14.6582   -8.7849 C   0  0  1  0  0  0  0  0  0  0  0  0
    0.3498  -13.9202   -9.0949 O   0  0  0  0  0  0  0  0  0  0  0  0
    1.2610  -15.6990   -7.7127 C   0  0  1  0  0  0  0  0  0  0  0  0
   -0.0368  -16.2436   -7.8394 O   0  0  0  0  0  0  0  0  0  0  0  0
    2.2859  -16.7857   -8.0177 C   0  0  2  0  0  0  0  0  0  0  0  0
    3.4557  -16.8258   -7.0979 N   0  0  0  0  0  0  0  0  0  0  0  0
    4.0529  -17.9665   -6.6234 C   0  0  0  0  0  0  0  0  0  0  0  0
    5.0825  -17.6257   -5.8164 N   0  0  0  0  0  0  0  0  0  0  0  0
    5.1662  -16.2860   -5.7683 C   0  0  0  0  0  0  0  0  0  0  0  0
    6.0348  -15.4311   -5.1072 C   0  0  0  0  0  0  0  0  0  0  0  0
    7.0091  -15.9192   -4.3508 N   0  0  0  0  0  0  0  0  0  0  0  0
    5.8767  -14.0669   -5.2511 N   0  0  0  0  0  0  0  0  0  0  0  0
    4.8669  -13.5420   -6.0476 C   0  0  0  0  0  0  0  0  0  0  0  0
    4.0156  -14.4086   -6.7025 N   0  0  0  0  0  0  0  0  0  0  0  0
    4.1523  -15.7597   -6.5649 C   0  0  0  0  0  0  0  0  0  0  0  0
  2  3  1  6  0  0  0
  2  6  1  0  0  0  0
  2  1  1  0  0  0  0
  4  3  2  0  0  0  0
  5  3  1  0  0  0  0
  6  7  2  0  0  0  0
  8  7  1  6  0  0  0
  8  9  1  0  0  0  0
  8 10  1  0  0  0  0
 11 10  1  6  0  0  0
 11 13  1  0  0  0  0
 12 11  1  0  0  0  0
 12 17  1  0  0  0  0
 13 14  1  6  0  0  0
 13 15  1  0  0  0  0
 15 16  1  6  0  0  0
 17 18  1  1  0  0  0
 17 15  1  0  0  0  0
 18 19  1  0  0  0  0
 20 19  2  0  0  0  0
 21 27  2  0  0  0  0
 21 20  1  0  0  0  0
 22 21  1  0  0  0  0
 23 22  1  0  0  0  0
 24 22  2  0  0  0  0
 24 25  1  0  0  0  0
 25 26  2  0  0  0  0
 26 27  1  0  0  0  0
 27 18  1  0  0  0  0
M  END
>  <CHROM.1>
-61.65154966,-134.21611624,-73.67086018,-177.00105266,56.91911015,-99.95559934
3.93650345,-15.51240999,-9.99456616,-1.42143459,0.08242511,1.63998538

>  <Name>
lig.pdb

>  <RI>
0

>  <Rbt.Current_Directory>
/home/itssahil/PROJECTS/Mol_Feturizer/New_Systems/rnas/4b5r

>  <Rbt.Executable>
rbdock ($Id: //depot/dev/client3/rdock/2013.1/src/exe/rbdock.cxx#4 $)

>  <Rbt.Library>
libRbt.so (2013.1, Build901 2013/11/27)

>  <Rbt.Parameter_File>
/export/apps/rDock/src/rDock_2013.1_src/data/scripts/dock_solv.prm

>  <Rbt.Receptor>
prm/pocket_docking_5.prm

>  <SCORE>
-16.7737

>  <SCORE.INTER>
-15.4083

>  <SCORE.INTER.CONST>
1

>  <SCORE.INTER.POLAR>
0

>  <SCORE.INTER.ROT>
6

>  <SCORE.INTER.SOLV>
13.9243

>  <SCORE.INTER.VDW>
-22.5137

>  <SCORE.INTER.norm>
-0.570679

>  <SCORE.INTRA>
-1.36533

>  <SCORE.INTRA.DIHEDRAL>
-2.19233

>  <SCORE.INTRA.DIHEDRAL.0>
10.2917

>  <SCORE.INTRA.POLAR>
0

>  <SCORE.INTRA.POLAR.0>
0

>  <SCORE.INTRA.REPUL>
0

>  <SCORE.INTRA.REPUL.0>
0

>  <SCORE.INTRA.SOLV>
-2.86138

>  <SCORE.INTRA.SOLV.lig_0>
-39.6315

>  <SCORE.INTRA.VDW>
1.16152

>  <SCORE.INTRA.VDW.0>
-4.02152

>  <SCORE.INTRA.norm>
-0.0505679

>  <SCORE.RESTR>
0

>  <SCORE.RESTR.CAVITY>
0

>  <SCORE.RESTR.norm>
0

>  <SCORE.SYSTEM>
0

>  <SCORE.SYSTEM.CONST>
0

>  <SCORE.SYSTEM.DIHEDRAL>
0

>  <SCORE.SYSTEM.SOLV>
0

>  <SCORE.SYSTEM.norm>
0

>  <SCORE.heavy>
27

>  <SCORE.norm>
-0.621247

>  <RMSD>
5.358

$$$$
lig.pdb
 OpenBabel11021811493D
libRbt.so/2013.1/901 2013/11/27
 27 29  0  0  0  0  0  0  0  0999 V2000
    5.3880  -14.0367  -16.9282 N   0  0  0  0  0  0  0  0  0  0  0  0
    5.4609  -13.8570  -15.4462 C   0  0  2  0  0  0  0  0  0  0  0  0
    6.9244  -13.7532  -15.0270 C   0  0  0  0  0  0  0  0  0  0  0  0
    7.7452  -14.5305  -15.5000 O   0  0  0  0  0  0  0  0  0  0  0  0
    7.3312  -12.9122  -14.2152 O   0  0  0  0  0  0  0  0  0  0  0  0
    4.7151  -14.9486  -14.6524 C   0  0  0  0  0  0  0  0  0  0  0  0
    3.9673  -14.4927  -13.3719 C   0  0  0  0  0  0  0  0  0  0  0  0
    3.0600  -15.7498  -12.3720 S   0  0  2  0  0  0  0  0  0  0  0  0
    1.7291  -16.2128  -13.5005 C   0  0  0  0  0  0  0  0  0  0  0  0
    2.1245  -14.7565  -11.1888 C   0  0  0  0  0  0  0  0  0  0  0  0
    1.1661  -15.6503  -10.4128 C   0  0  1  0  0  0  0  0  0  0  0  0
    1.6575  -16.9730  -10.2570 O   0  0  0  0  0  0  0  0  0  0  0  0
    0.9338  -15.1835   -9.0009 C   0  0  1  0  0  0  0  0  0  0  0  0
    0.0253  -14.1203   -8.9883 O   0  0  0  0  0  0  0  0  0  0  0  0
    0.3793  -16.4455   -8.3779 C   0  0  1  0  0  0  0  0  0  0  0  0
   -1.0005  -16.5624   -8.6600 O   0  0  0  0  0  0  0  0  0  0  0  0
    1.1265  -17.5695   -9.0870 C   0  0  2  0  0  0  0  0  0  0  0  0
    2.1860  -18.2316   -8.2775 N   0  0  0  0  0  0  0  0  0  0  0  0
    2.5134  -17.9098   -6.9843 C   0  0  0  0  0  0  0  0  0  0  0  0
    3.5167  -18.7141   -6.5673 N   0  0  0  0  0  0  0  0  0  0  0  0
    3.8369  -19.5549   -7.5646 C   0  0  0  0  0  0  0  0  0  0  0  0
    4.7748  -20.5717   -7.6595 C   0  0  0  0  0  0  0  0  0  0  0  0
    5.5592  -20.8580   -6.6288 N   0  0  0  0  0  0  0  0  0  0  0  0
    4.8773  -21.2856   -8.8370 N   0  0  0  0  0  0  0  0  0  0  0  0
    4.0558  -21.0030   -9.9209 C   0  0  0  0  0  0  0  0  0  0  0  0
    3.1242  -19.9912   -9.8059 N   0  0  0  0  0  0  0  0  0  0  0  0
    3.0150  -19.2699   -8.6522 C   0  0  0  0  0  0  0  0  0  0  0  0
  2  3  1  1  0  0  0
  2  6  1  0  0  0  0
  2  1  1  0  0  0  0
  4  3  2  0  0  0  0
  5  3  1  0  0  0  0
  6  7  2  0  0  0  0
  8  7  1  6  0  0  0
  8  9  1  0  0  0  0
  8 10  1  0  0  0  0
 11 10  1  1  0  0  0
 11 13  1  0  0  0  0
 12 11  1  0  0  0  0
 12 17  1  0  0  0  0
 13 14  1  6  0  0  0
 13 15  1  0  0  0  0
 15 16  1  6  0  0  0
 17 18  1  1  0  0  0
 17 15  1  0  0  0  0
 18 19  1  0  0  0  0
 20 19  2  0  0  0  0
 21 27  2  0  0  0  0
 21 20  1  0  0  0  0
 22 21  1  0  0  0  0
 23 22  1  0  0  0  0
 24 22  2  0  0  0  0
 24 25  1  0  0  0  0
 25 26  2  0  0  0  0
 26 27  1  0  0  0  0
 27 18  1  0  0  0  0
M  END
>  <CHROM.1>
-44.35098645,-142.57858992,-67.21655389,172.05096526,30.39439164,119.77887117
3.30639021,-16.73980892,-10.78680898,-1.19667700,-0.49566885,2.36084823

>  <Name>
lig.pdb

>  <RI>
0

>  <Rbt.Current_Directory>
/home/itssahil/PROJECTS/Mol_Feturizer/New_Systems/rnas/4b5r

>  <Rbt.Executable>
rbdock ($Id: //depot/dev/client3/rdock/2013.1/src/exe/rbdock.cxx#4 $)

>  <Rbt.Library>
libRbt.so (2013.1, Build901 2013/11/27)

>  <Rbt.Parameter_File>
/export/apps/rDock/src/rDock_2013.1_src/data/scripts/dock_solv.prm

>  <Rbt.Receptor>
prm/pocket_docking_8.prm

>  <SCORE>
-15.3261

>  <SCORE.INTER>
-16.4815

>  <SCORE.INTER.CONST>
1

>  <SCORE.INTER.POLAR>
0

>  <SCORE.INTER.ROT>
6

>  <SCORE.INTER.SOLV>
13.5581

>  <SCORE.INTER.VDW>
-23.107

>  <SCORE.INTER.norm>
-0.610425

>  <SCORE.INTRA>
1.15543

>  <SCORE.INTRA.DIHEDRAL>
0.242764

>  <SCORE.INTRA.DIHEDRAL.0>
10.2917

>  <SCORE.INTRA.POLAR>
0

>  <SCORE.INTRA.POLAR.0>
0

>  <SCORE.INTRA.REPUL>
0.0263202

>  <SCORE.INTRA.REPUL.0>
0

>  <SCORE.INTRA.SOLV>
-3.26544

>  <SCORE.INTRA.SOLV.lig_0>
-39.6315

>  <SCORE.INTRA.VDW>
2.53517

>  <SCORE.INTRA.VDW.0>
-4.02152

>  <SCORE.INTRA.norm>
0.0427937

>  <SCORE.RESTR>
0

>  <SCORE.RESTR.CAVITY>
0

>  <SCORE.RESTR.norm>
0

>  <SCORE.SYSTEM>
0

>  <SCORE.SYSTEM.CONST>
0

>  <SCORE.SYSTEM.DIHEDRAL>
0

>  <SCORE.SYSTEM.SOLV>
0

>  <SCORE.SYSTEM.norm>
0

>  <SCORE.heavy>
27

>  <SCORE.norm>
-0.567632

>  <RMSD>
5.358

$$$$
lig.pdb
 OpenBabel11021811493D
libRbt.so/2013.1/901 2013/11/27
 27 29  0  0  0  0  0  0  0  0999 V2000
    6.7189  -16.4782   -9.8445 N   0  0  0  0  0  0  0  0  0  0  0  0
    6.8413  -16.3384  -11.3276 C   0  0  2  0  0  0  0  0  0  0  0  0
    7.8969  -15.2830  -11.6443 C   0  0  0  0  0  0  0  0  0  0  0  0
    7.6466  -14.4036  -12.4602 O   0  0  0  0  0  0  0  0  0  0  0  0
    9.0150  -15.2727  -11.1136 O   0  0  0  0  0  0  0  0  0  0  0  0
    5.5038  -16.0389  -12.0341 C   0  0  0  0  0  0  0  0  0  0  0  0
    4.3024  -16.9501  -11.6694 C   0  0  0  0  0  0  0  0  0  0  0  0
    2.6743  -16.6501  -12.4836 S   0  0  2  0  0  0  0  0  0  0  0  0
    3.1528  -15.5835  -13.8595 C   0  0  0  0  0  0  0  0  0  0  0  0
    1.8827  -15.4298  -11.4132 C   0  0  0  0  0  0  0  0  0  0  0  0
    1.3214  -16.1192  -10.1765 C   0  0  1  0  0  0  0  0  0  0  0  0
    2.2875  -16.9183   -9.5106 O   0  0  0  0  0  0  0  0  0  0  0  0
    0.8614  -15.1530   -9.1181 C   0  0  1  0  0  0  0  0  0  0  0  0
   -0.3925  -14.6322   -9.4533 O   0  0  0  0  0  0  0  0  0  0  0  0
    0.8230  -16.0616   -7.9093 C   0  0  1  0  0  0  0  0  0  0  0  0
   -0.3847  -16.7951   -7.8895 O   0  0  0  0  0  0  0  0  0  0  0  0
    1.9837  -17.0249   -8.1311 C   0  0  2  0  0  0  0  0  0  0  0  0
    3.1815  -16.7753   -7.2831 N   0  0  0  0  0  0  0  0  0  0  0  0
    4.0333  -17.7413   -6.8096 C   0  0  0  0  0  0  0  0  0  0  0  0
    5.0068  -17.1547   -6.0777 N   0  0  0  0  0  0  0  0  0  0  0  0
    4.8039  -15.8269   -6.0775 C   0  0  0  0  0  0  0  0  0  0  0  0
    5.5026  -14.7789   -5.4979 C   0  0  0  0  0  0  0  0  0  0  0  0
    6.5972  -15.0155   -4.7868 N   0  0  0  0  0  0  0  0  0  0  0  0
    5.0486  -13.4870   -5.6753 N   0  0  0  0  0  0  0  0  0  0  0  0
    3.9094  -13.2239   -6.4255 C   0  0  0  0  0  0  0  0  0  0  0  0
    3.2304  -14.2793   -6.9996 N   0  0  0  0  0  0  0  0  0  0  0  0
    3.6604  -15.5633   -6.8275 C   0  0  0  0  0  0  0  0  0  0  0  0
  2  3  1  1  0  0  0
  2  6  1  0  0  0  0
  2  1  1  0  0  0  0
  4  3  2  0  0  0  0
  5  3  1  0  0  0  0
  6  7  2  0  0  0  0
  8  7  1  1  0  0  0
  8  9  1  0  0  0  0
  8 10  1  0  0  0  0
 11 10  1  6  0  0  0
 11 13  1  0  0  0  0
 12 11  1  0  0  0  0
 12 17  1  0  0  0  0
 13 14  1  6  0  0  0
 13 15  1  0  0  0  0
 15 16  1  6  0  0  0
 17 18  1  1  0  0  0
 17 15  1  0  0  0  0
 18 19  1  0  0  0  0
 20 19  2  0  0  0  0
 21 27  2  0  0  0  0
 21 20  1  0  0  0  0
 22 21  1  0  0  0  0
 23 22  1  0  0  0  0
 24 22  2  0  0  0  0
 24 25  1  0  0  0  0
 25 26  2  0  0  0  0
 26 27  1  0  0  0  0
 27 18  1  0  0  0  0
M  END
>  <CHROM.1>
-131.95845511,-49.38102483,15.21156072,-78.27349970,52.39077359,-93.19535912
3.88130653,-15.77827995,-9.20760074,-1.03673152,0.11671646,1.47005465

>  <Name>
lig.pdb

>  <RI>
0

>  <Rbt.Current_Directory>
/home/itssahil/PROJECTS/Mol_Feturizer/New_Systems/rnas/4b5r

>  <Rbt.Executable>
rbdock ($Id: //depot/dev/client3/rdock/2013.1/src/exe/rbdock.cxx#4 $)

>  <Rbt.Library>
libRbt.so (2013.1, Build901 2013/11/27)

>  <Rbt.Parameter_File>
/export/apps/rDock/src/rDock_2013.1_src/data/scripts/dock_solv.prm

>  <Rbt.Receptor>
prm/pocket_docking_2.prm

>  <SCORE>
-9.45001

>  <SCORE.INTER>
-12.1245

>  <SCORE.INTER.CONST>
1

>  <SCORE.INTER.POLAR>
0

>  <SCORE.INTER.ROT>
6

>  <SCORE.INTER.SOLV>
13.2822

>  <SCORE.INTER.VDW>
-20.1104

>  <SCORE.INTER.norm>
-0.449056

>  <SCORE.INTRA>
1.68909

>  <SCORE.INTRA.DIHEDRAL>
0.63324

>  <SCORE.INTRA.DIHEDRAL.0>
10.2917

>  <SCORE.INTRA.POLAR>
0

>  <SCORE.INTRA.POLAR.0>
0

>  <SCORE.INTRA.REPUL>
0

>  <SCORE.INTRA.REPUL.0>
0

>  <SCORE.INTRA.SOLV>
-1.73034

>  <SCORE.INTRA.SOLV.lig_0>
-39.6315

>  <SCORE.INTRA.VDW>
2.23765

>  <SCORE.INTRA.VDW.0>
-4.02152

>  <SCORE.INTRA.norm>
0.062559

>  <SCORE.RESTR>
0.98542

>  <SCORE.RESTR.CAVITY>
0.98542

>  <SCORE.RESTR.norm>
0.036497

>  <SCORE.SYSTEM>
0

>  <SCORE.SYSTEM.CONST>
0

>  <SCORE.SYSTEM.DIHEDRAL>
0

>  <SCORE.SYSTEM.SOLV>
0

>  <SCORE.SYSTEM.norm>
0

>  <SCORE.heavy>
27

>  <SCORE.norm>
-0.35

>  <RMSD>
5.361

$$$$
lig.pdb
 OpenBabel11021811493D
libRbt.so/2013.1/901 2013/11/27
 27 29  0  0  0  0  0  0  0  0999 V2000
    7.8745  -16.6206  -11.3175 N   0  0  0  0  0  0  0  0  0  0  0  0
    6.7938  -15.6110  -11.1011 C   0  0  2  0  0  0  0  0  0  0  0  0
    6.3844  -15.6249   -9.6313 C   0  0  0  0  0  0  0  0  0  0  0  0
    5.6812  -14.7230   -9.1911 O   0  0  0  0  0  0  0  0  0  0  0  0
    6.7369  -16.5138   -8.8455 O   0  0  0  0  0  0  0  0  0  0  0  0
    5.5798  -15.7934  -12.0343 C   0  0  0  0  0  0  0  0  0  0  0  0
    4.3699  -16.5767  -11.4607 C   0  0  0  0  0  0  0  0  0  0  0  0
    2.8871  -16.8364  -12.5273 S   0  0  2  0  0  0  0  0  0  0  0  0
    3.1246  -15.5649  -13.7868 C   0  0  0  0  0  0  0  0  0  0  0  0
    1.5464  -16.0817  -11.5815 C   0  0  0  0  0  0  0  0  0  0  0  0
    1.1692  -16.9853  -10.4150 C   0  0  1  0  0  0  0  0  0  0  0  0
    2.3031  -17.5240   -9.7522 O   0  0  0  0  0  0  0  0  0  0  0  0
    0.4235  -16.2638   -9.3248 C   0  0  1  0  0  0  0  0  0  0  0  0
   -0.9167  -16.0955   -9.6876 O   0  0  0  0  0  0  0  0  0  0  0  0
    0.6104  -17.2280   -8.1743 C   0  0  1  0  0  0  0  0  0  0  0  0
   -0.3390  -18.2717   -8.2542 O   0  0  0  0  0  0  0  0  0  0  0  0
    2.0029  -17.8073   -8.3972 C   0  0  2  0  0  0  0  0  0  0  0  0
    3.0557  -17.2898   -7.4806 N   0  0  0  0  0  0  0  0  0  0  0  0
    4.0577  -18.0407   -6.9193 C   0  0  0  0  0  0  0  0  0  0  0  0
    4.8283  -17.2445   -6.1449 N   0  0  0  0  0  0  0  0  0  0  0  0
    4.3472  -15.9918   -6.2030 C   0  0  0  0  0  0  0  0  0  0  0  0
    4.7625  -14.8072   -5.6142 C   0  0  0  0  0  0  0  0  0  0  0  0
    5.8282  -14.7891   -4.8246 N   0  0  0  0  0  0  0  0  0  0  0  0
    4.0571  -13.6469   -5.8649 N   0  0  0  0  0  0  0  0  0  0  0  0
    2.9450  -13.6494   -6.6974 C   0  0  0  0  0  0  0  0  0  0  0  0
    2.5501  -14.8369   -7.2792 N   0  0  0  0  0  0  0  0  0  0  0  0
    3.2308  -15.9947   -7.0356 C   0  0  0  0  0  0  0  0  0  0  0  0
  2  3  1  1  0  0  0
  2  6  1  0  0  0  0
  2  1  1  0  0  0  0
  4  3  2  0  0  0  0
  5  3  1  0  0  0  0
  6  7  2  0  0  0  0
  8  7  1  1  0  0  0
  8  9  1  0  0  0  0
  8 10  1  0  0  0  0
 11 10  1  6  0  0  0
 11 13  1  0  0  0  0
 12 11  1  0  0  0  0
 12 17  1  0  0  0  0
 13 14  1  6  0  0  0
 13 15  1  0  0  0  0
 15 16  1  6  0  0  0
 17 18  1  1  0  0  0
 17 15  1  0  0  0  0
 18 19  1  0  0  0  0
 20 19  2  0  0  0  0
 21 27  2  0  0  0  0
 21 20  1  0  0  0  0
 22 21  1  0  0  0  0
 23 22  1  0  0  0  0
 24 22  2  0  0  0  0
 24 25  1  0  0  0  0
 25 26  2  0  0  0  0
 26 27  1  0  0  0  0
 27 18  1  0  0  0  0
M  END
>  <CHROM.1>
167.54159215,96.71472128,-18.70892249,-74.83039939,42.87722339,-100.05436584
3.48483218,-16.20992054,-9.08517114,-1.99768804,0.21111412,1.44354046

>  <Name>
lig.pdb

>  <RI>
0

>  <Rbt.Current_Directory>
/home/itssahil/PROJECTS/Mol_Feturizer/New_Systems/rnas/4b5r

>  <Rbt.Executable>
rbdock ($Id: //depot/dev/client3/rdock/2013.1/src/exe/rbdock.cxx#4 $)

>  <Rbt.Library>
libRbt.so (2013.1, Build901 2013/11/27)

>  <Rbt.Parameter_File>
/export/apps/rDock/src/rDock_2013.1_src/data/scripts/dock_solv.prm

>  <Rbt.Receptor>
prm/pocket_docking_3.prm

>  <SCORE>
-13.5814

>  <SCORE.INTER>
-12.8581

>  <SCORE.INTER.CONST>
1

>  <SCORE.INTER.POLAR>
0

>  <SCORE.INTER.ROT>
6

>  <SCORE.INTER.SOLV>
15.4019

>  <SCORE.INTER.VDW>
-21.306

>  <SCORE.INTER.norm>
-0.476226

>  <SCORE.INTRA>
-0.723256

>  <SCORE.INTRA.DIHEDRAL>
-1.32837

>  <SCORE.INTRA.DIHEDRAL.0>
10.2917

>  <SCORE.INTRA.POLAR>
0

>  <SCORE.INTRA.POLAR.0>
0

>  <SCORE.INTRA.REPUL>
0

>  <SCORE.INTRA.REPUL.0>
0

>  <SCORE.INTRA.SOLV>
-1.88397

>  <SCORE.INTRA.SOLV.lig_0>
-39.6315

>  <SCORE.INTRA.VDW>
0.88291

>  <SCORE.INTRA.VDW.0>
-4.02152

>  <SCORE.INTRA.norm>
-0.0267873

>  <SCORE.RESTR>
0

>  <SCORE.RESTR.CAVITY>
0

>  <SCORE.RESTR.norm>
0

>  <SCORE.SYSTEM>
0

>  <SCORE.SYSTEM.CONST>
0

>  <SCORE.SYSTEM.DIHEDRAL>
0

>  <SCORE.SYSTEM.SOLV>
0

>  <SCORE.SYSTEM.norm>
0

>  <SCORE.heavy>
27

>  <SCORE.norm>
-0.503013

>  <RMSD>
5.362

$$$$
lig.pdb
 OpenBabel11021811493D
libRbt.so/2013.1/901 2013/11/27
 27 29  0  0  0  0  0  0  0  0999 V2000
    6.5716  -15.4069   -8.8008 N   0  0  0  0  0  0  0  0  0  0  0  0
    6.4412  -16.7459   -9.4520 C   0  0  2  0  0  0  0  0  0  0  0  0
    6.2496  -16.5546  -10.9536 C   0  0  0  0  0  0  0  0  0  0  0  0
    5.9628  -17.5183  -11.6540 O   0  0  0  0  0  0  0  0  0  0  0  0
    6.3766  -15.4569  -11.5112 O   0  0  0  0  0  0  0  0  0  0  0  0
    5.3316  -17.6260   -8.8418 C   0  0  0  0  0  0  0  0  0  0  0  0
    4.8408  -17.2449   -7.4204 C   0  0  0  0  0  0  0  0  0  0  0  0
    3.5196  -18.2607   -6.6294 S   0  0  2  0  0  0  0  0  0  0  0  0
    4.2060  -19.9235   -6.7823 C   0  0  0  0  0  0  0  0  0  0  0  0
    2.2336  -18.3445   -7.8947 C   0  0  0  0  0  0  0  0  0  0  0  0
    1.5997  -16.9713   -8.0740 C   0  0  1  0  0  0  0  0  0  0  0  0
    2.5563  -15.9601   -8.3526 O   0  0  0  0  0  0  0  0  0  0  0  0
    0.6537  -16.9044   -9.2427 C   0  0  1  0  0  0  0  0  0  0  0  0
   -0.5753  -17.4780   -8.9012 O   0  0  0  0  0  0  0  0  0  0  0  0
    0.5732  -15.4082   -9.4506 C   0  0  1  0  0  0  0  0  0  0  0  0
   -0.3577  -14.8409   -8.5514 O   0  0  0  0  0  0  0  0  0  0  0  0
    1.9698  -14.9082   -9.0983 C   0  0  2  0  0  0  0  0  0  0  0  0
    2.8137  -14.5217  -10.2622 N   0  0  0  0  0  0  0  0  0  0  0  0
    3.8526  -13.6260  -10.2259 C   0  0  0  0  0  0  0  0  0  0  0  0
    4.3914  -13.5210  -11.4613 N   0  0  0  0  0  0  0  0  0  0  0  0
    3.7250  -14.3391  -12.2922 C   0  0  0  0  0  0  0  0  0  0  0  0
    3.8743  -14.6170  -13.6424 C   0  0  0  0  0  0  0  0  0  0  0  0
    4.8258  -14.0202  -14.3481 N   0  0  0  0  0  0  0  0  0  0  0  0
    3.0248  -15.5265  -14.2408 N   0  0  0  0  0  0  0  0  0  0  0  0
    2.0303  -16.1661  -13.5118 C   0  0  0  0  0  0  0  0  0  0  0  0
    1.9006  -15.8811  -12.1677 N   0  0  0  0  0  0  0  0  0  0  0  0
    2.7262  -14.9785  -11.5620 C   0  0  0  0  0  0  0  0  0  0  0  0
  2  3  1  6  0  0  0
  2  6  1  0  0  0  0
  2  1  1  0  0  0  0
  4  3  2  0  0  0  0
  5  3  1  0  0  0  0
  6  7  2  0  0  0  0
  8  7  1  6  0  0  0
  8  9  1  0  0  0  0
  8 10  1  0  0  0  0
 11 10  1  6  0  0  0
 11 13  1  0  0  0  0
 12 11  1  0  0  0  0
 12 17  1  0  0  0  0
 13 14  1  1  0  0  0
 13 15  1  0  0  0  0
 15 16  1  1  0  0  0
 17 18  1  6  0  0  0
 17 15  1  0  0  0  0
 18 19  1  0  0  0  0
 20 19  2  0  0  0  0
 21 27  2  0  0  0  0
 21 20  1  0  0  0  0
 22 21  1  0  0  0  0
 23 22  1  0  0  0  0
 24 22  2  0  0  0  0
 24 25  1  0  0  0  0
 25 26  2  0  0  0  0
 26 27  1  0  0  0  0
 27 18  1  0  0  0  0
M  END
>  <CHROM.1>
-171.31673552,-19.18230458,52.64652216,-68.98834179,54.46550983,-85.74282334
3.36794108,-16.16222429,-9.99002127,-1.33054186,-0.14807187,2.11367753

>  <Name>
lig.pdb

>  <RI>
0

>  <Rbt.Current_Directory>
/home/itssahil/PROJECTS/Mol_Feturizer/New_Systems/rnas/4b5r

>  <Rbt.Executable>
rbdock ($Id: //depot/dev/client3/rdock/2013.1/src/exe/rbdock.cxx#4 $)

>  <Rbt.Library>
libRbt.so (2013.1, Build901 2013/11/27)

>  <Rbt.Parameter_File>
/export/apps/rDock/src/rDock_2013.1_src/data/scripts/dock_solv.prm

>  <Rbt.Receptor>
prm/pocket_docking_5.prm

>  <SCORE>
-15.2457

>  <SCORE.INTER>
-14.0341

>  <SCORE.INTER.CONST>
1

>  <SCORE.INTER.POLAR>
0

>  <SCORE.INTER.ROT>
6

>  <SCORE.INTER.SOLV>
14.4165

>  <SCORE.INTER.VDW>
-21.7616

>  <SCORE.INTER.norm>
-0.519781

>  <SCORE.INTRA>
-1.21165

>  <SCORE.INTRA.DIHEDRAL>
-0.991537

>  <SCORE.INTRA.DIHEDRAL.0>
10.2917

>  <SCORE.INTRA.POLAR>
0

>  <SCORE.INTRA.POLAR.0>
0

>  <SCORE.INTRA.REPUL>
0

>  <SCORE.INTRA.REPUL.0>
0

>  <SCORE.INTRA.SOLV>
-0.549939

>  <SCORE.INTRA.SOLV.lig_0>
-39.6315

>  <SCORE.INTRA.VDW>
-0.440907

>  <SCORE.INTRA.VDW.0>
-4.02152

>  <SCORE.INTRA.norm>
-0.0448757

>  <SCORE.RESTR>
0

>  <SCORE.RESTR.CAVITY>
0

>  <SCORE.RESTR.norm>
0

>  <SCORE.SYSTEM>
0

>  <SCORE.SYSTEM.CONST>
0

>  <SCORE.SYSTEM.DIHEDRAL>
0

>  <SCORE.SYSTEM.SOLV>
0

>  <SCORE.SYSTEM.norm>
0

>  <SCORE.heavy>
27

>  <SCORE.norm>
-0.564657

>  <RMSD>
5.363

$$$$
lig.pdb
 OpenBabel11021811493D
libRbt.so/2013.1/901 2013/11/27
 27 29  0  0  0  0  0  0  0  0999 V2000
    3.3129  -19.1560  -11.0990 N   0  0  0  0  0  0  0  0  0  0  0  0
    2.6279  -18.0061  -11.7642 C   0  0  2  0  0  0  0  0  0  0  0  0
    3.6789  -17.0855  -12.3774 C   0  0  0  0  0  0  0  0  0  0  0  0
    3.4204  -16.4750  -13.4080 O   0  0  0  0  0  0  0  0  0  0  0  0
    4.8013  -16.9251  -11.8810 O   0  0  0  0  0  0  0  0  0  0  0  0
    1.6660  -17.2370  -10.8361 C   0  0  0  0  0  0  0  0  0  0  0  0
    1.5885  -17.7135   -9.3618 C   0  0  0  0  0  0  0  0  0  0  0  0
    0.4522  -16.8407   -8.1997 S   0  0  2  0  0  0  0  0  0  0  0  0
   -0.9192  -16.4126   -9.2931 C   0  0  0  0  0  0  0  0  0  0  0  0
    1.2093  -15.2122   -8.0085 C   0  0  0  0  0  0  0  0  0  0  0  0
    2.4895  -15.3339   -7.1926 C   0  0  1  0  0  0  0  0  0  0  0  0
    3.4698  -16.1382   -7.8309 O   0  0  0  0  0  0  0  0  0  0  0  0
    3.1853  -14.0158   -6.9833 C   0  0  1  0  0  0  0  0  0  0  0  0
    2.5521  -13.2927   -5.9674 O   0  0  0  0  0  0  0  0  0  0  0  0
    4.5699  -14.4894   -6.6004 C   0  0  1  0  0  0  0  0  0  0  0  0
    4.6072  -14.8272   -5.2287 O   0  0  0  0  0  0  0  0  0  0  0  0
    4.7722  -15.7542   -7.4273 C   0  0  2  0  0  0  0  0  0  0  0  0
    5.6880  -15.6069   -8.5918 N   0  0  0  0  0  0  0  0  0  0  0  0
    6.7830  -16.3944   -8.8443 C   0  0  0  0  0  0  0  0  0  0  0  0
    7.3775  -15.9756   -9.9838 N   0  0  0  0  0  0  0  0  0  0  0  0
    6.6813  -14.9378  -10.4761 C   0  0  0  0  0  0  0  0  0  0  0  0
    6.8509  -14.1573  -11.6094 C   0  0  0  0  0  0  0  0  0  0  0  0
    7.8587  -14.3914  -12.4396 N   0  0  0  0  0  0  0  0  0  0  0  0
    5.9548  -13.1385  -11.8658 N   0  0  0  0  0  0  0  0  0  0  0  0
    4.8893  -12.8883  -11.0103 C   0  0  0  0  0  0  0  0  0  0  0  0
    4.7333  -13.6793   -9.8903 N   0  0  0  0  0  0  0  0  0  0  0  0
    5.6145  -14.6853   -9.6171 C   0  0  0  0  0  0  0  0  0  0  0  0
  2  3  1  1  0  0  0
  2  6  1  0  0  0  0
  2  1  1  0  0  0  0
  4  3  2  0  0  0  0
  5  3  1  0  0  0  0
  6  7  2  0  0  0  0
  8  7  1  6  0  0  0
  8  9  1  0  0  0  0
  8 10  1  0  0  0  0
 11 10  1  6  0  0  0
 11 13  1  0  0  0  0
 12 11  1  0  0  0  0
 12 17  1  0  0  0  0
 13 14  1  1  0  0  0
 13 15  1  0  0  0  0
 15 16  1  1  0  0  0
 17 18  1  6  0  0  0
 17 15  1  0  0  0  0
 18 19  1  0  0  0  0
 20 19  2  0  0  0  0
 21 27  2  0  0  0  0
 21 20  1  0  0  0  0
 22 21  1  0  0  0  0
 23 22  1  0  0  0  0
 24 22  2  0  0  0  0
 24 25  1  0  0  0  0
 25 26  2  0  0  0  0
 26 27  1  0  0  0  0
 27 18  1  0  0  0  0
M  END
>  <CHROM.1>
147.44599086,2.42808079,34.52192515,-71.03983254,62.68775729,-114.30234288
3.85947486,-15.64653761,-9.45197709,2.66232221,0.45323420,1.15155695

>  <Name>
lig.pdb

>  <RI>
0

>  <Rbt.Current_Directory>
/home/itssahil/PROJECTS/Mol_Feturizer/New_Systems/rnas/4b5r

>  <Rbt.Executable>
rbdock ($Id: //depot/dev/client3/rdock/2013.1/src/exe/rbdock.cxx#4 $)

>  <Rbt.Library>
libRbt.so (2013.1, Build901 2013/11/27)

>  <Rbt.Parameter_File>
/export/apps/rDock/src/rDock_2013.1_src/data/scripts/dock_solv.prm

>  <Rbt.Receptor>
prm/pocket_docking_4.prm

>  <SCORE>
-14.0512

>  <SCORE.INTER>
-11.8678

>  <SCORE.INTER.CONST>
1

>  <SCORE.INTER.POLAR>
0

>  <SCORE.INTER.ROT>
6

>  <SCORE.INTER.SOLV>
13.7446

>  <SCORE.INTER.VDW>
-20.0934

>  <SCORE.INTER.norm>
-0.439548

>  <SCORE.INTRA>
-2.18346

>  <SCORE.INTRA.DIHEDRAL>
-1.78146

>  <SCORE.INTRA.DIHEDRAL.0>
10.2917

>  <SCORE.INTRA.POLAR>
0

>  <SCORE.INTRA.POLAR.0>
0

>  <SCORE.INTRA.REPUL>
0

>  <SCORE.INTRA.REPUL.0>
0

>  <SCORE.INTRA.SOLV>
-2.36537

>  <SCORE.INTRA.SOLV.lig_0>
-39.6315

>  <SCORE.INTRA.VDW>
-0.110043

>  <SCORE.INTRA.VDW.0>
-4.02152

>  <SCORE.INTRA.norm>
-0.0808688

>  <SCORE.RESTR>
0

>  <SCORE.RESTR.CAVITY>
0

>  <SCORE.RESTR.norm>
0

>  <SCORE.SYSTEM>
0

>  <SCORE.SYSTEM.CONST>
0

>  <SCORE.SYSTEM.DIHEDRAL>
0

>  <SCORE.SYSTEM.SOLV>
0

>  <SCORE.SYSTEM.norm>
0

>  <SCORE.heavy>
27

>  <SCORE.norm>
-0.520417

>  <RMSD>
5.364

$$$$
lig.pdb
 OpenBabel11021811493D
libRbt.so/2013.1/901 2013/11/27
 27 29  0  0  0  0  0  0  0  0999 V2000
    6.8126  -13.5189  -14.6542 N   0  0  0  0  0  0  0  0  0  0  0  0
    6.3492  -12.8763  -13.3868 C   0  0  2  0  0  0  0  0  0  0  0  0
    7.5035  -12.0872  -12.7758 C   0  0  0  0  0  0  0  0  0  0  0  0
    7.3166  -11.4354  -11.7550 O   0  0  0  0  0  0  0  0  0  0  0  0
    8.6379  -12.0673  -13.2703 O   0  0  0  0  0  0  0  0  0  0  0  0
    5.7373  -13.8682  -12.3771 C   0  0  0  0  0  0  0  0  0  0  0  0
    4.2154  -13.7385  -12.1060 C   0  0  0  0  0  0  0  0  0  0  0  0
    3.4209  -14.8903  -10.9036 S   0  0  2  0  0  0  0  0  0  0  0  0
    4.0211  -16.4892  -11.4889 C   0  0  0  0  0  0  0  0  0  0  0  0
    1.7087  -14.9814  -11.4708 C   0  0  0  0  0  0  0  0  0  0  0  0
    0.8703  -15.7423  -10.4521 C   0  0  1  0  0  0  0  0  0  0  0  0
    1.3213  -17.0745  -10.2592 O   0  0  0  0  0  0  0  0  0  0  0  0
    0.9241  -15.1404   -9.0737 C   0  0  1  0  0  0  0  0  0  0  0  0
    0.0829  -14.0254   -9.0016 O   0  0  0  0  0  0  0  0  0  0  0  0
    0.4373  -16.3061   -8.2415 C   0  0  1  0  0  0  0  0  0  0  0  0
   -0.9747  -16.3607   -8.2585 O   0  0  0  0  0  0  0  0  0  0  0  0
    0.9888  -17.5322   -8.9605 C   0  0  2  0  0  0  0  0  0  0  0  0
    2.1484  -18.1859   -8.2939 N   0  0  0  0  0  0  0  0  0  0  0  0
    2.6097  -17.8909   -7.0357 C   0  0  0  0  0  0  0  0  0  0  0  0
    3.6732  -18.6776   -6.7572 N   0  0  0  0  0  0  0  0  0  0  0  0
    3.9013  -19.4810   -7.8091 C   0  0  0  0  0  0  0  0  0  0  0  0
    4.8480  -20.4677   -8.0383 C   0  0  0  0  0  0  0  0  0  0  0  0
    5.7494  -20.7600   -7.1101 N   0  0  0  0  0  0  0  0  0  0  0  0
    4.8366  -21.1456   -9.2413 N   0  0  0  0  0  0  0  0  0  0  0  0
    3.8924  -20.8566  -10.2184 C   0  0  0  0  0  0  0  0  0  0  0  0
    2.9544  -19.8753   -9.9700 N   0  0  0  0  0  0  0  0  0  0  0  0
    2.9563  -19.1895   -8.7898 C   0  0  0  0  0  0  0  0  0  0  0  0
  2  3  1  1  0  0  0
  2  6  1  0  0  0  0
  2  1  1  0  0  0  0
  4  3  2  0  0  0  0
  5  3  1  0  0  0  0
  6  7  2  0  0  0  0
  8  7  1  6  0  0  0
  8  9  1  0  0  0  0
  8 10  1  0  0  0  0
 11 10  1  6  0  0  0
 11 13  1  0  0  0  0
 12 11  1  0  0  0  0
 12 17  1  0  0  0  0
 13 14  1  6  0  0  0
 13 15  1  0  0  0  0
 15 16  1  6  0  0  0
 17 18  1  1  0  0  0
 17 15  1  0  0  0  0
 18 19  1  0  0  0  0
 20 19  2  0  0  0  0
 21 27  2  0  0  0  0
 21 20  1  0  0  0  0
 22 21  1  0  0  0  0
 23 22  1  0  0  0  0
 24 22  2  0  0  0  0
 24 25  1  0  0  0  0
 25 26  2  0  0  0  0
 26 27  1  0  0  0  0
 27 18  1  0  0  0  0
M  END
>  <CHROM.1>
176.97710280,-112.08898253,-49.85023313,-171.76438698,-60.62482432,129.14231092
3.56680113,-16.32135902,-10.12828397,-1.06831801,-0.32049436,2.68024054

>  <Name>
lig.pdb

>  <RI>
0

>  <Rbt.Current_Directory>
/home/itssahil/PROJECTS/Mol_Feturizer/New_Systems/rnas/4b5r

>  <Rbt.Executable>
rbdock ($Id: //depot/dev/client3/rdock/2013.1/src/exe/rbdock.cxx#4 $)

>  <Rbt.Library>
libRbt.so (2013.1, Build901 2013/11/27)

>  <Rbt.Parameter_File>
/export/apps/rDock/src/rDock_2013.1_src/data/scripts/dock_solv.prm

>  <Rbt.Receptor>
prm/pocket_docking_6.prm

>  <SCORE>
-15.7495

>  <SCORE.INTER>
-15.4306

>  <SCORE.INTER.CONST>
1

>  <SCORE.INTER.POLAR>
0

>  <SCORE.INTER.ROT>
6

>  <SCORE.INTER.SOLV>
12.106

>  <SCORE.INTER.VDW>
-21.9224

>  <SCORE.INTER.norm>
-0.571503

>  <SCORE.INTRA>
-0.318905

>  <SCORE.INTRA.DIHEDRAL>
-2.57988

>  <SCORE.INTRA.DIHEDRAL.0>
10.2917

>  <SCORE.INTRA.POLAR>
0

>  <SCORE.INTRA.POLAR.0>
0

>  <SCORE.INTRA.REPUL>
0.0770098

>  <SCORE.INTRA.REPUL.0>
0

>  <SCORE.INTRA.SOLV>
-2.72972

>  <SCORE.INTRA.SOLV.lig_0>
-39.6315

>  <SCORE.INTRA.VDW>
1.95084

>  <SCORE.INTRA.VDW.0>
-4.02152

>  <SCORE.INTRA.norm>
-0.0118113

>  <SCORE.RESTR>
0

>  <SCORE.RESTR.CAVITY>
0

>  <SCORE.RESTR.norm>
0

>  <SCORE.SYSTEM>
0

>  <SCORE.SYSTEM.CONST>
0

>  <SCORE.SYSTEM.DIHEDRAL>
0

>  <SCORE.SYSTEM.SOLV>
0

>  <SCORE.SYSTEM.norm>
0

>  <SCORE.heavy>
27

>  <SCORE.norm>
-0.583315

>  <RMSD>
5.368

$$$$
lig.pdb
 OpenBabel11021811493D
libRbt.so/2013.1/901 2013/11/27
 27 29  0  0  0  0  0  0  0  0999 V2000
    3.9225  -17.3575  -12.2296 N   0  0  0  0  0  0  0  0  0  0  0  0
    2.4460  -17.3965  -12.4584 C   0  0  2  0  0  0  0  0  0  0  0  0
    2.0502  -16.2347  -13.3649 C   0  0  0  0  0  0  0  0  0  0  0  0
    2.6357  -15.1629  -13.2642 O   0  0  0  0  0  0  0  0  0  0  0  0
    1.1483  -16.3193  -14.2082 O   0  0  0  0  0  0  0  0  0  0  0  0
    1.6178  -17.4145  -11.1578 C   0  0  0  0  0  0  0  0  0  0  0  0
    1.0021  -16.0650  -10.7036 C   0  0  0  0  0  0  0  0  0  0  0  0
    0.0051  -16.0153   -9.1521 S   0  0  2  0  0  0  0  0  0  0  0  0
    0.5131  -14.4314   -8.4503 C   0  0  0  0  0  0  0  0  0  0  0  0
    0.8871  -17.1363   -8.0445 C   0  0  0  0  0  0  0  0  0  0  0  0
    2.3827  -17.0606   -8.3219 C   0  0  1  0  0  0  0  0  0  0  0  0
    2.9799  -15.8910   -7.7826 O   0  0  0  0  0  0  0  0  0  0  0  0
    3.1591  -18.1853   -7.6914 C   0  0  1  0  0  0  0  0  0  0  0  0
    3.0294  -19.3487   -8.4567 O   0  0  0  0  0  0  0  0  0  0  0  0
    4.5574  -17.6088   -7.7199 C   0  0  1  0  0  0  0  0  0  0  0  0
    5.1387  -17.8036   -8.9931 O   0  0  0  0  0  0  0  0  0  0  0  0
    4.3486  -16.1155   -7.4943 C   0  0  2  0  0  0  0  0  0  0  0  0
    4.7123  -15.6256   -6.1364 N   0  0  0  0  0  0  0  0  0  0  0  0
    4.3050  -14.4360   -5.5869 C   0  0  0  0  0  0  0  0  0  0  0  0
    4.8234  -14.3208   -4.3438 N   0  0  0  0  0  0  0  0  0  0  0  0
    5.5507  -15.4182   -4.0775 C   0  0  0  0  0  0  0  0  0  0  0  0
    6.2748  -15.8062   -2.9605 C   0  0  0  0  0  0  0  0  0  0  0  0
    6.3277  -15.0232   -1.8911 N   0  0  0  0  0  0  0  0  0  0  0  0
    6.9340  -17.0195   -2.9734 N   0  0  0  0  0  0  0  0  0  0  0  0
    6.8793  -17.8538   -4.0827 C   0  0  0  0  0  0  0  0  0  0  0  0
    6.1488  -17.4533   -5.1830 N   0  0  0  0  0  0  0  0  0  0  0  0
    5.4979  -16.2535   -5.1906 C   0  0  0  0  0  0  0  0  0  0  0  0
  2  3  1  6  0  0  0
  2  6  1  0  0  0  0
  2  1  1  0  0  0  0
  4  3  2  0  0  0  0
  5  3  1  0  0  0  0
  6  7  2  0  0  0  0
  8  7  1  6  0  0  0
  8  9  1  0  0  0  0
  8 10  1  0  0  0  0
 11 10  1  1  0  0  0
 11 13  1  0  0  0  0
 12 11  1  0  0  0  0
 12 17  1  0  0  0  0
 13 14  1  6  0  0  0
 13 15  1  0  0  0  0
 15 16  1  6  0  0  0
 17 18  1  1  0  0  0
 17 15  1  0  0  0  0
 18 19  1  0  0  0  0
 20 19  2  0  0  0  0
 21 27  2  0  0  0  0
 21 20  1  0  0  0  0
 22 21  1  0  0  0  0
 23 22  1  0  0  0  0
 24 22  2  0  0  0  0
 24 25  1  0  0  0  0
 25 26  2  0  0  0  0
 26 27  1  0  0  0  0
 27 18  1  0  0  0  0
M  END
>  <CHROM.1>
-35.53887959,100.12564242,141.29555982,33.64880850,76.51451693,-42.81295437
3.46324969,-16.45833993,-7.99752446,-2.15878890,-0.54228503,1.19256114

>  <Name>
lig.pdb

>  <RI>
0

>  <Rbt.Current_Directory>
/home/itssahil/PROJECTS/Mol_Feturizer/New_Systems/rnas/4b5r

>  <Rbt.Executable>
rbdock ($Id: //depot/dev/client3/rdock/2013.1/src/exe/rbdock.cxx#4 $)

>  <Rbt.Library>
libRbt.so (2013.1, Build901 2013/11/27)

>  <Rbt.Parameter_File>
/export/apps/rDock/src/rDock_2013.1_src/data/scripts/dock_solv.prm

>  <Rbt.Receptor>
prm/pocket_docking_6.prm

>  <SCORE>
-18.9434

>  <SCORE.INTER>
-20.286

>  <SCORE.INTER.CONST>
1

>  <SCORE.INTER.POLAR>
0

>  <SCORE.INTER.ROT>
6

>  <SCORE.INTER.SOLV>
14.486

>  <SCORE.INTER.VDW>
-25.9527

>  <SCORE.INTER.norm>
-0.751335

>  <SCORE.INTRA>
1.34267

>  <SCORE.INTRA.DIHEDRAL>
-1.02258

>  <SCORE.INTRA.DIHEDRAL.0>
10.2917

>  <SCORE.INTRA.POLAR>
0

>  <SCORE.INTRA.POLAR.0>
0

>  <SCORE.INTRA.REPUL>
0

>  <SCORE.INTRA.REPUL.0>
0

>  <SCORE.INTRA.SOLV>
-1.32829

>  <SCORE.INTRA.SOLV.lig_0>
-39.6315

>  <SCORE.INTRA.VDW>
2.51811

>  <SCORE.INTRA.VDW.0>
-4.02152

>  <SCORE.INTRA.norm>
0.0497286

>  <SCORE.RESTR>
0

>  <SCORE.RESTR.CAVITY>
0

>  <SCORE.RESTR.norm>
0

>  <SCORE.SYSTEM>
0

>  <SCORE.SYSTEM.CONST>
0

>  <SCORE.SYSTEM.DIHEDRAL>
0

>  <SCORE.SYSTEM.SOLV>
0

>  <SCORE.SYSTEM.norm>
0

>  <SCORE.heavy>
27

>  <SCORE.norm>
-0.701606

>  <RMSD>
5.370

$$$$
lig.pdb
 OpenBabel11021811493D
libRbt.so/2013.1/901 2013/11/27
 27 29  0  0  0  0  0  0  0  0999 V2000
    7.2190  -16.4792  -15.9978 N   0  0  0  0  0  0  0  0  0  0  0  0
    7.6363  -17.2667  -14.7980 C   0  0  2  0  0  0  0  0  0  0  0  0
    7.7464  -18.7396  -15.1809 C   0  0  0  0  0  0  0  0  0  0  0  0
    7.2071  -19.1396  -16.2061 O   0  0  0  0  0  0  0  0  0  0  0  0
    8.3590  -19.5670  -14.4939 O   0  0  0  0  0  0  0  0  0  0  0  0
    6.7219  -17.0613  -13.5734 C   0  0  0  0  0  0  0  0  0  0  0  0
    7.4118  -16.6368  -12.2504 C   0  0  0  0  0  0  0  0  0  0  0  0
    6.3763  -16.3805  -10.7453 S   0  0  2  0  0  0  0  0  0  0  0  0
    6.0829  -18.0821  -10.2180 C   0  0  0  0  0  0  0  0  0  0  0  0
    4.7463  -15.9834  -11.4140 C   0  0  0  0  0  0  0  0  0  0  0  0
    3.8417  -15.4806  -10.2966 C   0  0  1  0  0  0  0  0  0  0  0  0
    3.6822  -16.4303   -9.2536 O   0  0  0  0  0  0  0  0  0  0  0  0
    4.3861  -14.2645   -9.5967 C   0  0  1  0  0  0  0  0  0  0  0  0
    4.1501  -13.1201  -10.3652 O   0  0  0  0  0  0  0  0  0  0  0  0
    3.5811  -14.2962   -8.3164 C   0  0  1  0  0  0  0  0  0  0  0  0
    2.3099  -13.7154   -8.5258 O   0  0  0  0  0  0  0  0  0  0  0  0
    3.4044  -15.7822   -8.0250 C   0  0  2  0  0  0  0  0  0  0  0  0
    4.2486  -16.3131   -6.9197 N   0  0  0  0  0  0  0  0  0  0  0  0
    4.5191  -17.6395   -6.6952 C   0  0  0  0  0  0  0  0  0  0  0  0
    5.3162  -17.7522   -5.6092 N   0  0  0  0  0  0  0  0  0  0  0  0
    5.5722  -16.5224   -5.1339 C   0  0  0  0  0  0  0  0  0  0  0  0
    6.3309  -16.0784   -4.0615 C   0  0  0  0  0  0  0  0  0  0  0  0
    6.9721  -16.9460   -3.2897 N   0  0  0  0  0  0  0  0  0  0  0  0
    6.4152  -14.7231   -3.8115 N   0  0  0  0  0  0  0  0  0  0  0  0
    5.7568  -13.8027   -4.6173 C   0  0  0  0  0  0  0  0  0  0  0  0
    5.0112  -14.2630   -5.6835 N   0  0  0  0  0  0  0  0  0  0  0  0
    4.9101  -15.5998   -5.9402 C   0  0  0  0  0  0  0  0  0  0  0  0
  2  3  1  6  0  0  0
  2  6  1  0  0  0  0
  2  1  1  0  0  0  0
  4  3  2  0  0  0  0
  5  3  1  0  0  0  0
  6  7  2  0  0  0  0
  8  7  1  6  0  0  0
  8  9  1  0  0  0  0
  8 10  1  0  0  0  0
 11 10  1  6  0  0  0
 11 13  1  0  0  0  0
 12 11  1  0  0  0  0
 12 17  1  0  0  0  0
 13 14  1  6  0  0  0
 13 15  1  0  0  0  0
 15 16  1  6  0  0  0
 17 18  1  1  0  0  0
 17 15  1  0  0  0  0
 18 19  1  0  0  0  0
 20 19  2  0  0  0  0
 21 27  2  0  0  0  0
 21 20  1  0  0  0  0
 22 21  1  0  0  0  0
 23 22  1  0  0  0  0
 24 22  2  0  0  0  0
 24 25  1  0  0  0  0
 25 26  2  0  0  0  0
 26 27  1  0  0  0  0
 27 18  1  0  0  0  0
M  END
>  <CHROM.1>
-17.50442264,-126.27494366,78.07425571,-169.09274273,-59.00612712,-43.21762561
5.57622253,-16.24023520,-9.45335155,1.25816537,0.82146039,-1.58838851

>  <Name>
lig.pdb

>  <RI>
0

>  <Rbt.Current_Directory>
/home/itssahil/PROJECTS/Mol_Feturizer/New_Systems/rnas/4b5r

>  <Rbt.Executable>
rbdock ($Id: //depot/dev/client3/rdock/2013.1/src/exe/rbdock.cxx#4 $)

>  <Rbt.Library>
libRbt.so (2013.1, Build901 2013/11/27)

>  <Rbt.Parameter_File>
/export/apps/rDock/src/rDock_2013.1_src/data/scripts/dock_solv.prm

>  <Rbt.Receptor>
prm/pocket_docking_7.prm

>  <SCORE>
-10.4339

>  <SCORE.INTER>
-10.1813

>  <SCORE.INTER.CONST>
1

>  <SCORE.INTER.POLAR>
0

>  <SCORE.INTER.ROT>
6

>  <SCORE.INTER.SOLV>
14.6274

>  <SCORE.INTER.VDW>
-19.2634

>  <SCORE.INTER.norm>
-0.377086

>  <SCORE.INTRA>
-0.252608

>  <SCORE.INTRA.DIHEDRAL>
-1.05623

>  <SCORE.INTRA.DIHEDRAL.0>
10.2917

>  <SCORE.INTRA.POLAR>
0

>  <SCORE.INTRA.POLAR.0>
0

>  <SCORE.INTRA.REPUL>
0

>  <SCORE.INTRA.REPUL.0>
0

>  <SCORE.INTRA.SOLV>
-2.70195

>  <SCORE.INTRA.SOLV.lig_0>
-39.6315

>  <SCORE.INTRA.VDW>
1.62648

>  <SCORE.INTRA.VDW.0>
-4.02152

>  <SCORE.INTRA.norm>
-0.00935585

>  <SCORE.RESTR>
0

>  <SCORE.RESTR.CAVITY>
0

>  <SCORE.RESTR.norm>
0

>  <SCORE.SYSTEM>
0

>  <SCORE.SYSTEM.CONST>
0

>  <SCORE.SYSTEM.DIHEDRAL>
0

>  <SCORE.SYSTEM.SOLV>
0

>  <SCORE.SYSTEM.norm>
0

>  <SCORE.heavy>
27

>  <SCORE.norm>
-0.386442

>  <RMSD>
5.370

$$$$
lig.pdb
 OpenBabel11021811493D
libRbt.so/2013.1/901 2013/11/27
 27 29  0  0  0  0  0  0  0  0999 V2000
    5.3125  -14.4661  -16.9661 N   0  0  0  0  0  0  0  0  0  0  0  0
    5.7311  -14.4824  -15.5313 C   0  0  2  0  0  0  0  0  0  0  0  0
    7.2238  -14.7880  -15.4501 C   0  0  0  0  0  0  0  0  0  0  0  0
    7.9638  -14.0283  -14.8360 O   0  0  0  0  0  0  0  0  0  0  0  0
    7.7355  -15.7790  -15.9867 O   0  0  0  0  0  0  0  0  0  0  0  0
    4.9025  -15.4435  -14.6552 C   0  0  0  0  0  0  0  0  0  0  0  0
    4.1849  -14.8249  -13.4268 C   0  0  0  0  0  0  0  0  0  0  0  0
    3.1819  -15.9207  -12.3328 S   0  0  2  0  0  0  0  0  0  0  0  0
    1.6749  -16.1176  -13.3074 C   0  0  0  0  0  0  0  0  0  0  0  0
    2.5731  -14.8009  -11.0533 C   0  0  0  0  0  0  0  0  0  0  0  0
    1.8627  -15.5992   -9.9682 C   0  0  1  0  0  0  0  0  0  0  0  0
    2.6947  -16.5918   -9.3869 O   0  0  0  0  0  0  0  0  0  0  0  0
    1.4357  -14.7558   -8.7969 C   0  0  1  0  0  0  0  0  0  0  0  0
    0.2673  -14.0535   -9.1094 O   0  0  0  0  0  0  0  0  0  0  0  0
    1.2234  -15.8241   -7.7472 C   0  0  1  0  0  0  0  0  0  0  0  0
   -0.0522  -16.4122   -7.9017 O   0  0  0  0  0  0  0  0  0  0  0  0
    2.2906  -16.8677   -8.0576 C   0  0  2  0  0  0  0  0  0  0  0  0
    3.4488  -16.8831   -7.1224 N   0  0  0  0  0  0  0  0  0  0  0  0
    4.0799  -18.0104   -6.6600 C   0  0  0  0  0  0  0  0  0  0  0  0
    5.0859  -17.6482   -5.8328 N   0  0  0  0  0  0  0  0  0  0  0  0
    5.1212  -16.3075   -5.7598 C   0  0  0  0  0  0  0  0  0  0  0  0
    5.9500  -15.4346   -5.0717 C   0  0  0  0  0  0  0  0  0  0  0  0
    6.9309  -15.9017   -4.3106 N   0  0  0  0  0  0  0  0  0  0  0  0
    5.7454  -14.0744   -5.1936 N   0  0  0  0  0  0  0  0  0  0  0  0
    4.7282  -13.5711   -5.9947 C   0  0  0  0  0  0  0  0  0  0  0  0
    3.9170  -14.4552   -6.6766 N   0  0  0  0  0  0  0  0  0  0  0  0
    4.0999  -15.8029   -6.5609 C   0  0  0  0  0  0  0  0  0  0  0  0
  2  3  1  6  0  0  0
  2  6  1  0  0  0  0
  2  1  1  0  0  0  0
  4  3  2  0  0  0  0
  5  3  1  0  0  0  0
  6  7  2  0  0  0  0
  8  7  1  6  0  0  0
  8  9  1  0  0  0  0
  8 10  1  0  0  0  0
 11 10  1  6  0  0  0
 11 13  1  0  0  0  0
 12 11  1  0  0  0  0
 12 17  1  0  0  0  0
 13 14  1  6  0  0  0
 13 15  1  0  0  0  0
 15 16  1  6  0  0  0
 17 18  1  1  0  0  0
 17 15  1  0  0  0  0
 18 19  1  0  0  0  0
 20 19  2  0  0  0  0
 21 27  2  0  0  0  0
 21 20  1  0  0  0  0
 22 21  1  0  0  0  0
 23 22  1  0  0  0  0
 24 22  2  0  0  0  0
 24 25  1  0  0  0  0
 25 26  2  0  0  0  0
 26 27  1  0  0  0  0
 27 18  1  0  0  0  0
M  END
>  <CHROM.1>
125.89300741,-123.00217200,-77.81791899,-172.95596685,57.19785120,-99.98581766
3.97737909,-15.52877324,-9.96181328,-1.38150369,0.08728172,1.64711882

>  <Name>
lig.pdb

>  <RI>
0

>  <Rbt.Current_Directory>
/home/itssahil/PROJECTS/Mol_Feturizer/New_Systems/rnas/4b5r

>  <Rbt.Executable>
rbdock ($Id: //depot/dev/client3/rdock/2013.1/src/exe/rbdock.cxx#4 $)

>  <Rbt.Library>
libRbt.so (2013.1, Build901 2013/11/27)

>  <Rbt.Parameter_File>
/export/apps/rDock/src/rDock_2013.1_src/data/scripts/dock_solv.prm

>  <Rbt.Receptor>
prm/pocket_docking_5.prm

>  <SCORE>
-16.8058

>  <SCORE.INTER>
-15.3552

>  <SCORE.INTER.CONST>
1

>  <SCORE.INTER.POLAR>
0

>  <SCORE.INTER.ROT>
6

>  <SCORE.INTER.SOLV>
12.6195

>  <SCORE.INTER.VDW>
-22.0433

>  <SCORE.INTER.norm>
-0.568712

>  <SCORE.INTRA>
-1.4506

>  <SCORE.INTRA.DIHEDRAL>
-2.10102

>  <SCORE.INTRA.DIHEDRAL.0>
10.2917

>  <SCORE.INTRA.POLAR>
0

>  <SCORE.INTRA.POLAR.0>
0

>  <SCORE.INTRA.REPUL>
0

>  <SCORE.INTRA.REPUL.0>
0

>  <SCORE.INTRA.SOLV>
-2.95504

>  <SCORE.INTRA.SOLV.lig_0>
-39.6315

>  <SCORE.INTRA.VDW>
1.07743

>  <SCORE.INTRA.VDW.0>
-4.02152

>  <SCORE.INTRA.norm>
-0.0537258

>  <SCORE.RESTR>
0

>  <SCORE.RESTR.CAVITY>
0

>  <SCORE.RESTR.norm>
0

>  <SCORE.SYSTEM>
0

>  <SCORE.SYSTEM.CONST>
0

>  <SCORE.SYSTEM.DIHEDRAL>
0

>  <SCORE.SYSTEM.SOLV>
0

>  <SCORE.SYSTEM.norm>
0

>  <SCORE.heavy>
27

>  <SCORE.norm>
-0.622438

>  <RMSD>
5.371

$$$$
lig.pdb
 OpenBabel11021811493D
libRbt.so/2013.1/901 2013/11/27
 27 29  0  0  0  0  0  0  0  0999 V2000
    5.6941  -12.2719  -14.3412 N   0  0  0  0  0  0  0  0  0  0  0  0
    5.5665  -12.0570  -12.8676 C   0  0  2  0  0  0  0  0  0  0  0  0
    6.9585  -11.8940  -12.2643 C   0  0  0  0  0  0  0  0  0  0  0  0
    7.8876  -11.5326  -12.9769 O   0  0  0  0  0  0  0  0  0  0  0  0
    7.2026  -12.1172  -11.0716 O   0  0  0  0  0  0  0  0  0  0  0  0
    4.7573  -13.1556  -12.1492 C   0  0  0  0  0  0  0  0  0  0  0  0
    4.1591  -14.2767  -13.0391 C   0  0  0  0  0  0  0  0  0  0  0  0
    3.1743  -15.6186  -12.2436 S   0  0  2  0  0  0  0  0  0  0  0  0
    2.0346  -16.0622  -13.5717 C   0  0  0  0  0  0  0  0  0  0  0  0
    2.0419  -14.7264  -11.1558 C   0  0  0  0  0  0  0  0  0  0  0  0
    1.3333  -15.7103  -10.2342 C   0  0  1  0  0  0  0  0  0  0  0  0
    2.1832  -16.7608   -9.7993 O   0  0  0  0  0  0  0  0  0  0  0  0
    0.8536  -15.0812   -8.9538 C   0  0  1  0  0  0  0  0  0  0  0  0
   -0.3293  -14.3702   -9.1798 O   0  0  0  0  0  0  0  0  0  0  0  0
    0.6520  -16.3118   -8.0974 C   0  0  1  0  0  0  0  0  0  0  0  0
   -0.6005  -16.9020   -8.3799 O   0  0  0  0  0  0  0  0  0  0  0  0
    1.7585  -17.2609   -8.5438 C   0  0  2  0  0  0  0  0  0  0  0  0
    2.8955  -17.3963   -7.5924 N   0  0  0  0  0  0  0  0  0  0  0  0
    3.4655  -18.5817   -7.2012 C   0  0  0  0  0  0  0  0  0  0  0  0
    4.4696  -18.3261   -6.3330 N   0  0  0  0  0  0  0  0  0  0  0  0
    4.5639  -16.9970   -6.1635 C   0  0  0  0  0  0  0  0  0  0  0  0
    5.4170  -16.2145   -5.4003 C   0  0  0  0  0  0  0  0  0  0  0  0
    6.3601  -16.7795   -4.6579 N   0  0  0  0  0  0  0  0  0  0  0  0
    5.2765  -14.8411   -5.4278 N   0  0  0  0  0  0  0  0  0  0  0  0
    4.2997  -14.2356   -6.2081 C   0  0  0  0  0  0  0  0  0  0  0  0
    3.4636  -15.0305   -6.9656 N   0  0  0  0  0  0  0  0  0  0  0  0
    3.5830  -16.3900   -6.9438 C   0  0  0  0  0  0  0  0  0  0  0  0
  2  3  1  1  0  0  0
  2  6  1  0  0  0  0
  2  1  1  0  0  0  0
  4  3  2  0  0  0  0
  5  3  1  0  0  0  0
  6  7  2  0  0  0  0
  8  7  1  6  0  0  0
  8  9  1  0  0  0  0
  8 10  1  0  0  0  0
 11 10  1  6  0  0  0
 11 13  1  0  0  0  0
 12 11  1  0  0  0  0
 12 17  1  0  0  0  0
 13 14  1  6  0  0  0
 13 15  1  0  0  0  0
 15 16  1  6  0  0  0
 17 18  1  1  0  0  0
 17 15  1  0  0  0  0
 18 19  1  0  0  0  0
 20 19  2  0  0  0  0
 21 27  2  0  0  0  0
 21 20  1  0  0  0  0
 22 21  1  0  0  0  0
 23 22  1  0  0  0  0
 24 22  2  0  0  0  0
 24 25  1  0  0  0  0
 25 26  2  0  0  0  0
 26 27  1  0  0  0  0
 27 18  1  0  0  0  0
M  END
>  <CHROM.1>
22.91275325,-2.07512176,150.55974658,-169.56974010,37.84336530,-106.82035707
3.61935973,-15.21433769,-9.52007548,-1.21333129,0.43445606,1.98530388

>  <Name>
lig.pdb

>  <RI>
0

>  <Rbt.Current_Directory>
/home/itssahil/PROJECTS/Mol_Feturizer/New_Systems/rnas/4b5r

>  <Rbt.Executable>
rbdock ($Id: //depot/dev/client3/rdock/2013.1/src/exe/rbdock.cxx#4 $)

>  <Rbt.Library>
libRbt.so (2013.1, Build901 2013/11/27)

>  <Rbt.Parameter_File>
/export/apps/rDock/src/rDock_2013.1_src/data/scripts/dock_solv.prm

>  <Rbt.Receptor>
prm/pocket_docking_6.prm

>  <SCORE>
-18.7649

>  <SCORE.INTER>
-19.0487

>  <SCORE.INTER.CONST>
1

>  <SCORE.INTER.POLAR>
0

>  <SCORE.INTER.ROT>
6

>  <SCORE.INTER.SOLV>
14.197

>  <SCORE.INTER.VDW>
-25.0315

>  <SCORE.INTER.norm>
-0.705507

>  <SCORE.INTRA>
0.2838

>  <SCORE.INTRA.DIHEDRAL>
-0.96113

>  <SCORE.INTRA.DIHEDRAL.0>
10.2917

>  <SCORE.INTRA.POLAR>
0

>  <SCORE.INTRA.POLAR.0>
0

>  <SCORE.INTRA.REPUL>
0

>  <SCORE.INTRA.REPUL.0>
0

>  <SCORE.INTRA.SOLV>
-2.16595

>  <SCORE.INTRA.SOLV.lig_0>
-39.6315

>  <SCORE.INTRA.VDW>
1.84734

>  <SCORE.INTRA.VDW.0>
-4.02152

>  <SCORE.INTRA.norm>
0.0105111

>  <SCORE.RESTR>
0

>  <SCORE.RESTR.CAVITY>
0

>  <SCORE.RESTR.norm>
0

>  <SCORE.SYSTEM>
0

>  <SCORE.SYSTEM.CONST>
0

>  <SCORE.SYSTEM.DIHEDRAL>
0

>  <SCORE.SYSTEM.SOLV>
0

>  <SCORE.SYSTEM.norm>
0

>  <SCORE.heavy>
27

>  <SCORE.norm>
-0.694996

>  <RMSD>
5.372

$$$$
lig.pdb
 OpenBabel11021811493D
libRbt.so/2013.1/901 2013/11/27
 27 29  0  0  0  0  0  0  0  0999 V2000
    5.8848  -12.7780  -14.6810 N   0  0  0  0  0  0  0  0  0  0  0  0
    5.6862  -12.3608  -13.2596 C   0  0  2  0  0  0  0  0  0  0  0  0
    7.0460  -12.0796  -12.6270 C   0  0  0  0  0  0  0  0  0  0  0  0
    8.0264  -11.9241  -13.3456 O   0  0  0  0  0  0  0  0  0  0  0  0
    7.2134  -12.0043  -11.4030 O   0  0  0  0  0  0  0  0  0  0  0  0
    4.8659  -13.3670  -12.4275 C   0  0  0  0  0  0  0  0  0  0  0  0
    4.1769  -14.5186  -13.2057 C   0  0  0  0  0  0  0  0  0  0  0  0
    3.1745  -15.7537  -12.2712 S   0  0  2  0  0  0  0  0  0  0  0  0
    1.8695  -16.1299  -13.4608 C   0  0  0  0  0  0  0  0  0  0  0  0
    2.2391  -14.7439  -11.1020 C   0  0  0  0  0  0  0  0  0  0  0  0
    1.5840  -15.6401  -10.0594 C   0  0  1  0  0  0  0  0  0  0  0  0
    2.4874  -16.5849   -9.5056 O   0  0  0  0  0  0  0  0  0  0  0  0
    1.0766  -14.8819   -8.8622 C   0  0  1  0  0  0  0  0  0  0  0  0
   -0.1414  -14.2644   -9.1637 O   0  0  0  0  0  0  0  0  0  0  0  0
    0.9402  -16.0053   -7.8584 C   0  0  1  0  0  0  0  0  0  0  0  0
   -0.2815  -16.6879   -8.0543 O   0  0  0  0  0  0  0  0  0  0  0  0
    2.0922  -16.9459   -8.1941 C   0  0  2  0  0  0  0  0  0  0  0  0
    3.2373  -16.9053   -7.2436 N   0  0  0  0  0  0  0  0  0  0  0  0
    3.8822  -18.0029   -6.7314 C   0  0  0  0  0  0  0  0  0  0  0  0
    4.8697  -17.5918   -5.9049 N   0  0  0  0  0  0  0  0  0  0  0  0
    4.8797  -16.2489   -5.8811 C   0  0  0  0  0  0  0  0  0  0  0  0
    5.6828  -15.3360   -5.2147 C   0  0  0  0  0  0  0  0  0  0  0  0
    6.6613  -15.7563   -4.4239 N   0  0  0  0  0  0  0  0  0  0  0  0
    5.4552  -13.9853   -5.3896 N   0  0  0  0  0  0  0  0  0  0  0  0
    4.4404  -13.5308   -6.2222 C   0  0  0  0  0  0  0  0  0  0  0  0
    3.6550  -14.4543   -6.8817 N   0  0  0  0  0  0  0  0  0  0  0  0
    3.8606  -15.7932   -6.7139 C   0  0  0  0  0  0  0  0  0  0  0  0
  2  3  1  1  0  0  0
  2  6  1  0  0  0  0
  2  1  1  0  0  0  0
  4  3  2  0  0  0  0
  5  3  1  0  0  0  0
  6  7  2  0  0  0  0
  8  7  1  6  0  0  0
  8  9  1  0  0  0  0
  8 10  1  0  0  0  0
 11 10  1  6  0  0  0
 11 13  1  0  0  0  0
 12 11  1  0  0  0  0
 12 17  1  0  0  0  0
 13 14  1  6  0  0  0
 13 15  1  0  0  0  0
 15 16  1  6  0  0  0
 17 18  1  1  0  0  0
 17 15  1  0  0  0  0
 18 19  1  0  0  0  0
 20 19  2  0  0  0  0
 21 27  2  0  0  0  0
 21 20  1  0  0  0  0
 22 21  1  0  0  0  0
 23 22  1  0  0  0  0
 24 22  2  0  0  0  0
 24 25  1  0  0  0  0
 25 26  2  0  0  0  0
 26 27  1  0  0  0  0
 27 18  1  0  0  0  0
M  END
>  <CHROM.1>
16.03858969,-9.72196449,145.90127266,-168.03455334,48.23013422,-105.66461748
3.80948707,-14.99589107,-9.46420814,-1.27160383,0.45119175,1.84827705

>  <Name>
lig.pdb

>  <RI>
0

>  <Rbt.Current_Directory>
/home/itssahil/PROJECTS/Mol_Feturizer/New_Systems/rnas/4b5r

>  <Rbt.Executable>
rbdock ($Id: //depot/dev/client3/rdock/2013.1/src/exe/rbdock.cxx#4 $)

>  <Rbt.Library>
libRbt.so (2013.1, Build901 2013/11/27)

>  <Rbt.Parameter_File>
/export/apps/rDock/src/rDock_2013.1_src/data/scripts/dock_solv.prm

>  <Rbt.Receptor>
prm/pocket_docking_5.prm

>  <SCORE>
-18.3356

>  <SCORE.INTER>
-18.0976

>  <SCORE.INTER.CONST>
1

>  <SCORE.INTER.POLAR>
0

>  <SCORE.INTER.ROT>
6

>  <SCORE.INTER.SOLV>
13.2268

>  <SCORE.INTER.VDW>
-24.074

>  <SCORE.INTER.norm>
-0.67028

>  <SCORE.INTRA>
-0.238085

>  <SCORE.INTRA.DIHEDRAL>
-1.78599

>  <SCORE.INTRA.DIHEDRAL.0>
10.2917

>  <SCORE.INTRA.POLAR>
0

>  <SCORE.INTRA.POLAR.0>
0

>  <SCORE.INTRA.REPUL>
0

>  <SCORE.INTRA.REPUL.0>
0

>  <SCORE.INTRA.SOLV>
-2.18454

>  <SCORE.INTRA.SOLV.lig_0>
-39.6315

>  <SCORE.INTRA.VDW>
1.74718

>  <SCORE.INTRA.VDW.0>
-4.02152

>  <SCORE.INTRA.norm>
-0.00881797

>  <SCORE.RESTR>
0

>  <SCORE.RESTR.CAVITY>
0

>  <SCORE.RESTR.norm>
0

>  <SCORE.SYSTEM>
0

>  <SCORE.SYSTEM.CONST>
0

>  <SCORE.SYSTEM.DIHEDRAL>
0

>  <SCORE.SYSTEM.SOLV>
0

>  <SCORE.SYSTEM.norm>
0

>  <SCORE.heavy>
27

>  <SCORE.norm>
-0.679098

>  <RMSD>
5.374

$$$$
lig.pdb
 OpenBabel11021811493D
libRbt.so/2013.1/901 2013/11/27
 27 29  0  0  0  0  0  0  0  0999 V2000
    6.7318  -16.4175   -9.3932 N   0  0  0  0  0  0  0  0  0  0  0  0
    6.4838  -16.7927  -10.8185 C   0  0  2  0  0  0  0  0  0  0  0  0
    7.6017  -16.2229  -11.6868 C   0  0  0  0  0  0  0  0  0  0  0  0
    7.7291  -16.6134  -12.8413 O   0  0  0  0  0  0  0  0  0  0  0  0
    8.4040  -15.3750  -11.2755 O   0  0  0  0  0  0  0  0  0  0  0  0
    5.0912  -16.3780  -11.3349 C   0  0  0  0  0  0  0  0  0  0  0  0
    4.3001  -17.4419  -12.1403 C   0  0  0  0  0  0  0  0  0  0  0  0
    2.6297  -17.0084  -12.7927 S   0  0  2  0  0  0  0  0  0  0  0  0
    3.0352  -15.7143  -13.9844 C   0  0  0  0  0  0  0  0  0  0  0  0
    1.9100  -15.9987  -11.4796 C   0  0  0  0  0  0  0  0  0  0  0  0
    1.4159  -16.8972  -10.3535 C   0  0  1  0  0  0  0  0  0  0  0  0
    2.4734  -17.5712   -9.6882 O   0  0  0  0  0  0  0  0  0  0  0  0
    0.7224  -16.1398   -9.2532 C   0  0  1  0  0  0  0  0  0  0  0  0
   -0.5849  -15.8230   -9.6361 O   0  0  0  0  0  0  0  0  0  0  0  0
    0.7835  -17.1559   -8.1342 C   0  0  1  0  0  0  0  0  0  0  0  0
   -0.2650  -18.0934   -8.2698 O   0  0  0  0  0  0  0  0  0  0  0  0
    2.1147  -17.8672   -8.3502 C   0  0  2  0  0  0  0  0  0  0  0  0
    3.1931  -17.4911   -7.3953 N   0  0  0  0  0  0  0  0  0  0  0  0
    4.0530  -18.3688   -6.7843 C   0  0  0  0  0  0  0  0  0  0  0  0
    4.8983  -17.6789   -5.9863 N   0  0  0  0  0  0  0  0  0  0  0  0
    4.6055  -16.3712   -6.0778 C   0  0  0  0  0  0  0  0  0  0  0  0
    5.1630  -15.2490   -5.4842 C   0  0  0  0  0  0  0  0  0  0  0  0
    6.1875  -15.3711   -4.6505 N   0  0  0  0  0  0  0  0  0  0  0  0
    4.6429  -14.0038   -5.7767 N   0  0  0  0  0  0  0  0  0  0  0  0
    3.5766  -13.8603   -6.6554 C   0  0  0  0  0  0  0  0  0  0  0  0
    3.0385  -14.9881   -7.2410 N   0  0  0  0  0  0  0  0  0  0  0  0
    3.5348  -16.2275   -6.9568 C   0  0  0  0  0  0  0  0  0  0  0  0
  2  3  1  6  0  0  0
  2  6  1  0  0  0  0
  2  1  1  0  0  0  0
  4  3  2  0  0  0  0
  5  3  1  0  0  0  0
  6  7  2  0  0  0  0
  8  7  1  1  0  0  0
  8  9  1  0  0  0  0
  8 10  1  0  0  0  0
 11 10  1  6  0  0  0
 11 13  1  0  0  0  0
 12 11  1  0  0  0  0
 12 17  1  0  0  0  0
 13 14  1  6  0  0  0
 13 15  1  0  0  0  0
 15 16  1  6  0  0  0
 17 18  1  1  0  0  0
 17 15  1  0  0  0  0
 18 19  1  0  0  0  0
 20 19  2  0  0  0  0
 21 27  2  0  0  0  0
 21 20  1  0  0  0  0
 22 21  1  0  0  0  0
 23 22  1  0  0  0  0
 24 22  2  0  0  0  0
 24 25  1  0  0  0  0
 25 26  2  0  0  0  0
 26 27  1  0  0  0  0
 27 18  1  0  0  0  0
M  END
>  <CHROM.1>
166.65283377,-134.29815530,65.21276560,-78.30265726,66.16163007,-103.87967104
3.75378472,-16.44478976,-9.29707938,-1.36318415,0.14830407,1.47313744

>  <Name>
lig.pdb

>  <RI>
0

>  <Rbt.Current_Directory>
/home/itssahil/PROJECTS/Mol_Feturizer/New_Systems/rnas/4b5r

>  <Rbt.Executable>
rbdock ($Id: //depot/dev/client3/rdock/2013.1/src/exe/rbdock.cxx#4 $)

>  <Rbt.Library>
libRbt.so (2013.1, Build901 2013/11/27)

>  <Rbt.Parameter_File>
/export/apps/rDock/src/rDock_2013.1_src/data/scripts/dock_solv.prm

>  <Rbt.Receptor>
prm/pocket_docking_3.prm

>  <SCORE>
-16.2265

>  <SCORE.INTER>
-15.2362

>  <SCORE.INTER.CONST>
1

>  <SCORE.INTER.POLAR>
0

>  <SCORE.INTER.ROT>
6

>  <SCORE.INTER.SOLV>
14.0753

>  <SCORE.INTER.VDW>
-22.4492

>  <SCORE.INTER.norm>
-0.564304

>  <SCORE.INTRA>
-0.990268

>  <SCORE.INTRA.DIHEDRAL>
-0.992683

>  <SCORE.INTRA.DIHEDRAL.0>
10.2917

>  <SCORE.INTRA.POLAR>
0

>  <SCORE.INTRA.POLAR.0>
0

>  <SCORE.INTRA.REPUL>
0

>  <SCORE.INTRA.REPUL.0>
0

>  <SCORE.INTRA.SOLV>
-1.37198

>  <SCORE.INTRA.SOLV.lig_0>
-39.6315

>  <SCORE.INTRA.VDW>
0.192063

>  <SCORE.INTRA.VDW.0>
-4.02152

>  <SCORE.INTRA.norm>
-0.0366766

>  <SCORE.RESTR>
0

>  <SCORE.RESTR.CAVITY>
0

>  <SCORE.RESTR.norm>
0

>  <SCORE.SYSTEM>
0

>  <SCORE.SYSTEM.CONST>
0

>  <SCORE.SYSTEM.DIHEDRAL>
0

>  <SCORE.SYSTEM.SOLV>
0

>  <SCORE.SYSTEM.norm>
0

>  <SCORE.heavy>
27

>  <SCORE.norm>
-0.600981

>  <RMSD>
5.377

$$$$
lig.pdb
 OpenBabel11021811493D
libRbt.so/2013.1/901 2013/11/27
 27 29  0  0  0  0  0  0  0  0999 V2000
    7.4281  -13.4269  -14.0359 N   0  0  0  0  0  0  0  0  0  0  0  0
    6.0706  -12.9697  -13.6090 C   0  0  2  0  0  0  0  0  0  0  0  0
    6.1945  -11.6157  -12.9164 C   0  0  0  0  0  0  0  0  0  0  0  0
    7.1860  -11.3720  -12.2387 O   0  0  0  0  0  0  0  0  0  0  0  0
    5.3268  -10.7373  -13.0013 O   0  0  0  0  0  0  0  0  0  0  0  0
    5.3192  -13.9929  -12.7336 C   0  0  0  0  0  0  0  0  0  0  0  0
    4.0043  -14.5762  -13.3144 C   0  0  0  0  0  0  0  0  0  0  0  0
    3.0524  -15.8007  -12.3155 S   0  0  2  0  0  0  0  0  0  0  0  0
    1.7148  -16.2268  -13.4506 C   0  0  0  0  0  0  0  0  0  0  0  0
    2.1408  -14.7743  -11.1419 C   0  0  0  0  0  0  0  0  0  0  0  0
    1.5031  -15.6559  -10.0763 C   0  0  1  0  0  0  0  0  0  0  0  0
    2.4190  -16.5843   -9.5154 O   0  0  0  0  0  0  0  0  0  0  0  0
    1.0033  -14.8796   -8.8876 C   0  0  1  0  0  0  0  0  0  0  0  0
   -0.2222  -14.2760   -9.1871 O   0  0  0  0  0  0  0  0  0  0  0  0
    0.8855  -15.9856   -7.8623 C   0  0  1  0  0  0  0  0  0  0  0  0
   -0.3335  -16.6799   -8.0326 O   0  0  0  0  0  0  0  0  0  0  0  0
    2.0403  -16.9242   -8.1934 C   0  0  2  0  0  0  0  0  0  0  0  0
    3.1952  -16.8586   -7.2562 N   0  0  0  0  0  0  0  0  0  0  0  0
    3.8505  -17.9424   -6.7280 C   0  0  0  0  0  0  0  0  0  0  0  0
    4.8448  -17.5096   -5.9208 N   0  0  0  0  0  0  0  0  0  0  0  0
    4.8488  -16.1665   -5.9253 C   0  0  0  0  0  0  0  0  0  0  0  0
    5.6547  -15.2362   -5.2868 C   0  0  0  0  0  0  0  0  0  0  0  0
    6.6434  -15.6356   -4.4977 N   0  0  0  0  0  0  0  0  0  0  0  0
    5.4191  -13.8905   -5.4875 N   0  0  0  0  0  0  0  0  0  0  0  0
    4.3934  -13.4582   -6.3187 C   0  0  0  0  0  0  0  0  0  0  0  0
    3.6054  -14.3988   -6.9503 N   0  0  0  0  0  0  0  0  0  0  0  0
    3.8190  -15.7329   -6.7566 C   0  0  0  0  0  0  0  0  0  0  0  0
  2  3  1  1  0  0  0
  2  6  1  0  0  0  0
  2  1  1  0  0  0  0
  4  3  2  0  0  0  0
  5  3  1  0  0  0  0
  6  7  2  0  0  0  0
  8  7  1  6  0  0  0
  8  9  1  0  0  0  0
  8 10  1  0  0  0  0
 11 10  1  6  0  0  0
 11 13  1  0  0  0  0
 12 11  1  0  0  0  0
 12 17  1  0  0  0  0
 13 14  1  6  0  0  0
 13 15  1  0  0  0  0
 15 16  1  6  0  0  0
 17 18  1  1  0  0  0
 17 15  1  0  0  0  0
 18 19  1  0  0  0  0
 20 19  2  0  0  0  0
 21 27  2  0  0  0  0
 21 20  1  0  0  0  0
 22 21  1  0  0  0  0
 23 22  1  0  0  0  0
 24 22  2  0  0  0  0
 24 25  1  0  0  0  0
 25 26  2  0  0  0  0
 26 27  1  0  0  0  0
 27 18  1  0  0  0  0
M  END
>  <CHROM.1>
-34.49187847,-116.67269258,-176.61121811,-169.54787567,48.98395748,-105.88389272
3.70078114,-14.95507609,-9.51989644,-1.29614784,0.48924345,1.85797584

>  <Name>
lig.pdb

>  <RI>
0

>  <Rbt.Current_Directory>
/home/itssahil/PROJECTS/Mol_Feturizer/New_Systems/rnas/4b5r

>  <Rbt.Executable>
rbdock ($Id: //depot/dev/client3/rdock/2013.1/src/exe/rbdock.cxx#4 $)

>  <Rbt.Library>
libRbt.so (2013.1, Build901 2013/11/27)

>  <Rbt.Parameter_File>
/export/apps/rDock/src/rDock_2013.1_src/data/scripts/dock_solv.prm

>  <Rbt.Receptor>
prm/blind_docking_80.prm

>  <SCORE>
-18.7123

>  <SCORE.INTER>
-17.8013

>  <SCORE.INTER.CONST>
1

>  <SCORE.INTER.POLAR>
0

>  <SCORE.INTER.ROT>
6

>  <SCORE.INTER.SOLV>
12.3171

>  <SCORE.INTER.VDW>
-23.5732

>  <SCORE.INTER.norm>
-0.659307

>  <SCORE.INTRA>
-0.911068

>  <SCORE.INTRA.DIHEDRAL>
-1.32926

>  <SCORE.INTRA.DIHEDRAL.0>
10.2917

>  <SCORE.INTRA.POLAR>
0

>  <SCORE.INTRA.POLAR.0>
0

>  <SCORE.INTRA.REPUL>
0

>  <SCORE.INTRA.REPUL.0>
0

>  <SCORE.INTRA.SOLV>
-2.76391

>  <SCORE.INTRA.SOLV.lig_0>
-39.6315

>  <SCORE.INTRA.VDW>
1.13552

>  <SCORE.INTRA.VDW.0>
-4.02152

>  <SCORE.INTRA.norm>
-0.0337432

>  <SCORE.RESTR>
0

>  <SCORE.RESTR.CAVITY>
0

>  <SCORE.RESTR.norm>
0

>  <SCORE.SYSTEM>
0

>  <SCORE.SYSTEM.CONST>
0

>  <SCORE.SYSTEM.DIHEDRAL>
0

>  <SCORE.SYSTEM.SOLV>
0

>  <SCORE.SYSTEM.norm>
0

>  <SCORE.heavy>
27

>  <SCORE.norm>
-0.69305

>  <RMSD>
5.385

$$$$
lig.pdb
 OpenBabel11021811493D
libRbt.so/2013.1/901 2013/11/27
 27 29  0  0  0  0  0  0  0  0999 V2000
    7.5937  -15.0655  -12.1345 N   0  0  0  0  0  0  0  0  0  0  0  0
    6.5991  -15.9206  -11.4178 C   0  0  2  0  0  0  0  0  0  0  0  0
    7.1047  -17.3600  -11.3918 C   0  0  0  0  0  0  0  0  0  0  0  0
    7.8102  -17.7694  -12.3063 O   0  0  0  0  0  0  0  0  0  0  0  0
    6.8295  -18.1509  -10.4805 O   0  0  0  0  0  0  0  0  0  0  0  0
    5.1719  -15.8265  -11.9943 C   0  0  0  0  0  0  0  0  0  0  0  0
    4.3566  -17.1447  -12.0582 C   0  0  0  0  0  0  0  0  0  0  0  0
    2.6441  -17.1035  -12.7432 S   0  0  2  0  0  0  0  0  0  0  0  0
    2.8095  -15.8659  -14.0472 C   0  0  0  0  0  0  0  0  0  0  0  0
    1.7224  -16.1408  -11.5245 C   0  0  0  0  0  0  0  0  0  0  0  0
    1.2118  -17.0607  -10.4233 C   0  0  1  0  0  0  0  0  0  0  0  0
    2.2496  -17.8171   -9.8182 O   0  0  0  0  0  0  0  0  0  0  0  0
    0.5896  -16.3169   -9.2722 C   0  0  1  0  0  0  0  0  0  0  0  0
   -0.7089  -15.9162   -9.6029 O   0  0  0  0  0  0  0  0  0  0  0  0
    0.6268  -17.3827   -8.1993 C   0  0  1  0  0  0  0  0  0  0  0  0
   -0.4735  -18.2577   -8.3436 O   0  0  0  0  0  0  0  0  0  0  0  0
    1.9118  -18.1521   -8.4840 C   0  0  2  0  0  0  0  0  0  0  0  0
    3.0342  -17.8747   -7.5461 N   0  0  0  0  0  0  0  0  0  0  0  0
    3.9057  -18.8127   -7.0526 C   0  0  0  0  0  0  0  0  0  0  0  0
    4.7933  -18.2061   -6.2330 N   0  0  0  0  0  0  0  0  0  0  0  0
    4.5159  -16.8925   -6.1953 C   0  0  0  0  0  0  0  0  0  0  0  0
    5.1138  -15.8339   -5.5285 C   0  0  0  0  0  0  0  0  0  0  0  0
    6.1699  -16.0412   -4.7532 N   0  0  0  0  0  0  0  0  0  0  0  0
    4.6001  -14.5620   -5.6868 N   0  0  0  0  0  0  0  0  0  0  0  0
    3.5006  -14.3289   -6.5032 C   0  0  0  0  0  0  0  0  0  0  0  0
    2.9225  -15.3940   -7.1634 N   0  0  0  0  0  0  0  0  0  0  0  0
    3.4121  -16.6591   -7.0118 C   0  0  0  0  0  0  0  0  0  0  0  0
  2  3  1  6  0  0  0
  2  6  1  0  0  0  0
  2  1  1  0  0  0  0
  4  3  2  0  0  0  0
  5  3  1  0  0  0  0
  6  7  2  0  0  0  0
  8  7  1  1  0  0  0
  8  9  1  0  0  0  0
  8 10  1  0  0  0  0
 11 10  1  6  0  0  0
 11 13  1  0  0  0  0
 12 11  1  0  0  0  0
 12 17  1  0  0  0  0
 13 14  1  6  0  0  0
 13 15  1  0  0  0  0
 15 16  1  6  0  0  0
 17 18  1  1  0  0  0
 17 15  1  0  0  0  0
 18 19  1  0  0  0  0
 20 19  2  0  0  0  0
 21 27  2  0  0  0  0
 21 20  1  0  0  0  0
 22 21  1  0  0  0  0
 23 22  1  0  0  0  0
 24 22  2  0  0  0  0
 24 25  1  0  0  0  0
 25 26  2  0  0  0  0
 26 27  1  0  0  0  0
 27 18  1  0  0  0  0
M  END
>  <CHROM.1>
-30.08592228,140.97836184,35.63121578,-86.86985941,54.93791146,-100.28429643
3.62506318,-16.77190696,-9.41012105,-1.25615748,0.06576485,1.53082585

>  <Name>
lig.pdb

>  <RI>
0

>  <Rbt.Current_Directory>
/home/itssahil/PROJECTS/Mol_Feturizer/New_Systems/rnas/4b5r

>  <Rbt.Executable>
rbdock ($Id: //depot/dev/client3/rdock/2013.1/src/exe/rbdock.cxx#4 $)

>  <Rbt.Library>
libRbt.so (2013.1, Build901 2013/11/27)

>  <Rbt.Parameter_File>
/export/apps/rDock/src/rDock_2013.1_src/data/scripts/dock_solv.prm

>  <Rbt.Receptor>
prm/pocket_docking_4.prm

>  <SCORE>
-14.0845

>  <SCORE.INTER>
-14.4782

>  <SCORE.INTER.CONST>
1

>  <SCORE.INTER.POLAR>
0

>  <SCORE.INTER.ROT>
6

>  <SCORE.INTER.SOLV>
13.7415

>  <SCORE.INTER.VDW>
-21.8326

>  <SCORE.INTER.norm>
-0.536228

>  <SCORE.INTRA>
0.393633

>  <SCORE.INTRA.DIHEDRAL>
0.01687

>  <SCORE.INTRA.DIHEDRAL.0>
10.2917

>  <SCORE.INTRA.POLAR>
0

>  <SCORE.INTRA.POLAR.0>
0

>  <SCORE.INTRA.REPUL>
0

>  <SCORE.INTRA.REPUL.0>
0

>  <SCORE.INTRA.SOLV>
-2.70789

>  <SCORE.INTRA.SOLV.lig_0>
-39.6315

>  <SCORE.INTRA.VDW>
1.73914

>  <SCORE.INTRA.VDW.0>
-4.02152

>  <SCORE.INTRA.norm>
0.014579

>  <SCORE.RESTR>
0

>  <SCORE.RESTR.CAVITY>
0

>  <SCORE.RESTR.norm>
0

>  <SCORE.SYSTEM>
0

>  <SCORE.SYSTEM.CONST>
0

>  <SCORE.SYSTEM.DIHEDRAL>
0

>  <SCORE.SYSTEM.SOLV>
0

>  <SCORE.SYSTEM.norm>
0

>  <SCORE.heavy>
27

>  <SCORE.norm>
-0.521649

>  <RMSD>
5.386

$$$$
lig.pdb
 OpenBabel11021811493D
libRbt.so/2013.1/901 2013/11/27
 27 29  0  0  0  0  0  0  0  0999 V2000
    5.8946  -13.2541  -15.1254 N   0  0  0  0  0  0  0  0  0  0  0  0
    5.7248  -12.6372  -13.7746 C   0  0  2  0  0  0  0  0  0  0  0  0
    7.0971  -12.2721  -13.2163 C   0  0  0  0  0  0  0  0  0  0  0  0
    7.1750  -11.6399  -12.1693 O   0  0  0  0  0  0  0  0  0  0  0  0
    8.1544  -12.5828  -13.7796 O   0  0  0  0  0  0  0  0  0  0  0  0
    4.9217  -13.5117  -12.7907 C   0  0  0  0  0  0  0  0  0  0  0  0
    4.2110  -14.7567  -13.3835 C   0  0  0  0  0  0  0  0  0  0  0  0
    3.2276  -15.8423  -12.2619 S   0  0  2  0  0  0  0  0  0  0  0  0
    1.7316  -16.1046  -13.2380 C   0  0  0  0  0  0  0  0  0  0  0  0
    2.5847  -14.6989  -11.0205 C   0  0  0  0  0  0  0  0  0  0  0  0
    1.8643  -15.4788   -9.9285 C   0  0  1  0  0  0  0  0  0  0  0  0
    2.6738  -16.4966   -9.3593 O   0  0  0  0  0  0  0  0  0  0  0  0
    1.4760  -14.6261   -8.7506 C   0  0  1  0  0  0  0  0  0  0  0  0
    0.3250  -13.8893   -9.0477 O   0  0  0  0  0  0  0  0  0  0  0  0
    1.2450  -15.6902   -7.7006 C   0  0  1  0  0  0  0  0  0  0  0  0
   -0.0489  -16.2405   -7.8411 O   0  0  0  0  0  0  0  0  0  0  0  0
    2.2776  -16.7638   -8.0258 C   0  0  2  0  0  0  0  0  0  0  0  0
    3.4459  -16.8152   -7.1045 N   0  0  0  0  0  0  0  0  0  0  0  0
    4.0447  -17.9616   -6.6463 C   0  0  0  0  0  0  0  0  0  0  0  0
    5.0721  -17.6308   -5.8323 N   0  0  0  0  0  0  0  0  0  0  0  0
    5.1527  -16.2918   -5.7638 C   0  0  0  0  0  0  0  0  0  0  0  0
    6.0183  -15.4451   -5.0882 C   0  0  0  0  0  0  0  0  0  0  0  0
    6.9923  -15.9425   -4.3375 N   0  0  0  0  0  0  0  0  0  0  0  0
    5.8574  -14.0792   -5.2117 N   0  0  0  0  0  0  0  0  0  0  0  0
    4.8479  -13.5446   -6.0021 C   0  0  0  0  0  0  0  0  0  0  0  0
    3.9997  -14.4030   -6.6716 N   0  0  0  0  0  0  0  0  0  0  0  0
    4.1391  -15.7557   -6.5541 C   0  0  0  0  0  0  0  0  0  0  0  0
  2  3  1  1  0  0  0
  2  6  1  0  0  0  0
  2  1  1  0  0  0  0
  4  3  2  0  0  0  0
  5  3  1  0  0  0  0
  6  7  2  0  0  0  0
  8  7  1  6  0  0  0
  8  9  1  0  0  0  0
  8 10  1  0  0  0  0
 11 10  1  6  0  0  0
 11 13  1  0  0  0  0
 12 11  1  0  0  0  0
 12 17  1  0  0  0  0
 13 14  1  6  0  0  0
 13 15  1  0  0  0  0
 15 16  1  6  0  0  0
 17 18  1  1  0  0  0
 17 15  1  0  0  0  0
 18 19  1  0  0  0  0
 20 19  2  0  0  0  0
 21 27  2  0  0  0  0
 21 20  1  0  0  0  0
 22 21  1  0  0  0  0
 23 22  1  0  0  0  0
 24 22  2  0  0  0  0
 24 25  1  0  0  0  0
 25 26  2  0  0  0  0
 26 27  1  0  0  0  0
 27 18  1  0  0  0  0
M  END
>  <CHROM.1>
173.27887125,-10.04054371,135.02826918,-174.00675617,53.98513651,-100.35323488
4.00585707,-14.99878789,-9.48475871,-1.36137622,0.38927252,1.82776128

>  <Name>
lig.pdb

>  <RI>
0

>  <Rbt.Current_Directory>
/home/itssahil/PROJECTS/Mol_Feturizer/New_Systems/rnas/4b5r

>  <Rbt.Executable>
rbdock ($Id: //depot/dev/client3/rdock/2013.1/src/exe/rbdock.cxx#4 $)

>  <Rbt.Library>
libRbt.so (2013.1, Build901 2013/11/27)

>  <Rbt.Parameter_File>
/export/apps/rDock/src/rDock_2013.1_src/data/scripts/dock_solv.prm

>  <Rbt.Receptor>
prm/pocket_docking_5.prm

>  <SCORE>
-17.0496

>  <SCORE.INTER>
-16.3299

>  <SCORE.INTER.CONST>
1

>  <SCORE.INTER.POLAR>
0

>  <SCORE.INTER.ROT>
6

>  <SCORE.INTER.SOLV>
13.4033

>  <SCORE.INTER.VDW>
-22.9544

>  <SCORE.INTER.norm>
-0.604811

>  <SCORE.INTRA>
-0.719669

>  <SCORE.INTRA.DIHEDRAL>
-2.63598

>  <SCORE.INTRA.DIHEDRAL.0>
10.2917

>  <SCORE.INTRA.POLAR>
0

>  <SCORE.INTRA.POLAR.0>
0

>  <SCORE.INTRA.REPUL>
0

>  <SCORE.INTRA.REPUL.0>
0

>  <SCORE.INTRA.SOLV>
-2.27111

>  <SCORE.INTRA.SOLV.lig_0>
-39.6315

>  <SCORE.INTRA.VDW>
1.73388

>  <SCORE.INTRA.VDW.0>
-4.02152

>  <SCORE.INTRA.norm>
-0.0266544

>  <SCORE.RESTR>
0

>  <SCORE.RESTR.CAVITY>
0

>  <SCORE.RESTR.norm>
0

>  <SCORE.SYSTEM>
0

>  <SCORE.SYSTEM.CONST>
0

>  <SCORE.SYSTEM.DIHEDRAL>
0

>  <SCORE.SYSTEM.SOLV>
0

>  <SCORE.SYSTEM.norm>
0

>  <SCORE.heavy>
27

>  <SCORE.norm>
-0.631465

>  <RMSD>
5.394

$$$$
lig.pdb
 OpenBabel11021811493D
libRbt.so/2013.1/901 2013/11/27
 27 29  0  0  0  0  0  0  0  0999 V2000
    5.7372  -12.5717  -14.6631 N   0  0  0  0  0  0  0  0  0  0  0  0
    5.5620  -12.1829  -13.2305 C   0  0  2  0  0  0  0  0  0  0  0  0
    6.9299  -11.8878  -12.6222 C   0  0  0  0  0  0  0  0  0  0  0  0
    7.0928  -12.0090  -11.4137 O   0  0  0  0  0  0  0  0  0  0  0  0
    7.8992  -11.5206  -13.2985 O   0  0  0  0  0  0  0  0  0  0  0  0
    4.7781  -13.2183  -12.3991 C   0  0  0  0  0  0  0  0  0  0  0  0
    4.0910  -14.3672  -13.1831 C   0  0  0  0  0  0  0  0  0  0  0  0
    3.1313  -15.6364  -12.2495 S   0  0  2  0  0  0  0  0  0  0  0  0
    1.8833  -16.1083  -13.4657 C   0  0  0  0  0  0  0  0  0  0  0  0
    2.1091  -14.6562  -11.1287 C   0  0  0  0  0  0  0  0  0  0  0  0
    1.4753  -15.5656  -10.0843 C   0  0  1  0  0  0  0  0  0  0  0  0
    2.3953  -16.5030   -9.5454 O   0  0  0  0  0  0  0  0  0  0  0  0
    0.9722  -14.8198   -8.8776 C   0  0  1  0  0  0  0  0  0  0  0  0
   -0.2559  -14.2146   -9.1626 O   0  0  0  0  0  0  0  0  0  0  0  0
    0.8593  -15.9502   -7.8787 C   0  0  1  0  0  0  0  0  0  0  0  0
   -0.3566  -16.6457   -8.0654 O   0  0  0  0  0  0  0  0  0  0  0  0
    2.0183  -16.8757   -8.2319 C   0  0  2  0  0  0  0  0  0  0  0  0
    3.1729  -16.8273   -7.2934 N   0  0  0  0  0  0  0  0  0  0  0  0
    3.8230  -17.9206   -6.7787 C   0  0  0  0  0  0  0  0  0  0  0  0
    4.8188  -17.5027   -5.9656 N   0  0  0  0  0  0  0  0  0  0  0  0
    4.8289  -16.1597   -5.9530 C   0  0  0  0  0  0  0  0  0  0  0  0
    5.6387  -15.2412   -5.3024 C   0  0  0  0  0  0  0  0  0  0  0  0
    6.6251  -15.6551   -4.5180 N   0  0  0  0  0  0  0  0  0  0  0  0
    5.4092  -13.8920   -5.4861 N   0  0  0  0  0  0  0  0  0  0  0  0
    4.3860  -13.4445   -6.3122 C   0  0  0  0  0  0  0  0  0  0  0  0
    3.5941  -14.3734   -6.9560 N   0  0  0  0  0  0  0  0  0  0  0  0
    3.8015  -15.7109   -6.7792 C   0  0  0  0  0  0  0  0  0  0  0  0
  2  3  1  1  0  0  0
  2  6  1  0  0  0  0
  2  1  1  0  0  0  0
  4  3  2  0  0  0  0
  5  3  1  0  0  0  0
  6  7  2  0  0  0  0
  8  7  1  6  0  0  0
  8  9  1  0  0  0  0
  8 10  1  0  0  0  0
 11 10  1  6  0  0  0
 11 13  1  0  0  0  0
 12 11  1  0  0  0  0
 12 17  1  0  0  0  0
 13 14  1  6  0  0  0
 13 15  1  0  0  0  0
 15 16  1  6  0  0  0
 17 18  1  1  0  0  0
 17 15  1  0  0  0  0
 18 19  1  0  0  0  0
 20 19  2  0  0  0  0
 21 27  2  0  0  0  0
 21 20  1  0  0  0  0
 22 21  1  0  0  0  0
 23 22  1  0  0  0  0
 24 22  2  0  0  0  0
 24 25  1  0  0  0  0
 25 26  2  0  0  0  0
 26 27  1  0  0  0  0
 27 18  1  0  0  0  0
M  END
>  <CHROM.1>
-154.58353689,-9.83982430,150.19243830,-167.98747915,44.54105190,-106.69223676
3.73123073,-14.89113915,-9.48891561,-1.25984568,0.46311934,1.86552351

>  <Name>
lig.pdb

>  <RI>
0

>  <Rbt.Current_Directory>
/home/itssahil/PROJECTS/Mol_Feturizer/New_Systems/rnas/4b5r

>  <Rbt.Executable>
rbdock ($Id: //depot/dev/client3/rdock/2013.1/src/exe/rbdock.cxx#4 $)

>  <Rbt.Library>
libRbt.so (2013.1, Build901 2013/11/27)

>  <Rbt.Parameter_File>
/export/apps/rDock/src/rDock_2013.1_src/data/scripts/dock_solv.prm

>  <Rbt.Receptor>
prm/pocket_docking_7.prm

>  <SCORE>
-18.2767

>  <SCORE.INTER>
-18.3353

>  <SCORE.INTER.CONST>
1

>  <SCORE.INTER.POLAR>
0

>  <SCORE.INTER.ROT>
6

>  <SCORE.INTER.SOLV>
14.6317

>  <SCORE.INTER.VDW>
-24.7008

>  <SCORE.INTER.norm>
-0.679085

>  <SCORE.INTRA>
0.058584

>  <SCORE.INTRA.DIHEDRAL>
-1.42565

>  <SCORE.INTRA.DIHEDRAL.0>
10.2917

>  <SCORE.INTRA.POLAR>
0

>  <SCORE.INTRA.POLAR.0>
0

>  <SCORE.INTRA.REPUL>
0

>  <SCORE.INTRA.REPUL.0>
0

>  <SCORE.INTRA.SOLV>
-2.14879

>  <SCORE.INTRA.SOLV.lig_0>
-39.6315

>  <SCORE.INTRA.VDW>
1.8458

>  <SCORE.INTRA.VDW.0>
-4.02152

>  <SCORE.INTRA.norm>
0.00216978

>  <SCORE.RESTR>
0

>  <SCORE.RESTR.CAVITY>
0

>  <SCORE.RESTR.norm>
0

>  <SCORE.SYSTEM>
0

>  <SCORE.SYSTEM.CONST>
0

>  <SCORE.SYSTEM.DIHEDRAL>
0

>  <SCORE.SYSTEM.SOLV>
0

>  <SCORE.SYSTEM.norm>
0

>  <SCORE.heavy>
27

>  <SCORE.norm>
-0.676915

>  <RMSD>
5.396

$$$$
lig.pdb
 OpenBabel11021811493D
libRbt.so/2013.1/901 2013/11/27
 27 29  0  0  0  0  0  0  0  0999 V2000
    6.7338  -17.5983  -10.3750 N   0  0  0  0  0  0  0  0  0  0  0  0
    6.9157  -17.3603  -11.8394 C   0  0  2  0  0  0  0  0  0  0  0  0
    7.7302  -16.0859  -12.0408 C   0  0  0  0  0  0  0  0  0  0  0  0
    7.5592  -15.4125  -13.0502 O   0  0  0  0  0  0  0  0  0  0  0  0
    8.5737  -15.6933  -11.2246 O   0  0  0  0  0  0  0  0  0  0  0  0
    5.5923  -17.3238  -12.6301 C   0  0  0  0  0  0  0  0  0  0  0  0
    4.2970  -17.0795  -11.8122 C   0  0  0  0  0  0  0  0  0  0  0  0
    2.6784  -17.0306  -12.6961 S   0  0  2  0  0  0  0  0  0  0  0  0
    2.9905  -15.7653  -13.9456 C   0  0  0  0  0  0  0  0  0  0  0  0
    1.6116  -16.0971  -11.5771 C   0  0  0  0  0  0  0  0  0  0  0  0
    1.2085  -16.9756  -10.4001 C   0  0  1  0  0  0  0  0  0  0  0  0
    2.3269  -17.5287   -9.7229 O   0  0  0  0  0  0  0  0  0  0  0  0
    0.4721  -16.2228   -9.3248 C   0  0  1  0  0  0  0  0  0  0  0  0
   -0.8620  -16.0313   -9.6981 O   0  0  0  0  0  0  0  0  0  0  0  0
    0.6319  -17.1741   -8.1596 C   0  0  1  0  0  0  0  0  0  0  0  0
   -0.3391  -18.1984   -8.2303 O   0  0  0  0  0  0  0  0  0  0  0  0
    2.0130  -17.7860   -8.3658 C   0  0  2  0  0  0  0  0  0  0  0  0
    3.0713  -17.2778   -7.4503 N   0  0  0  0  0  0  0  0  0  0  0  0
    4.0845  -18.0316   -6.9135 C   0  0  0  0  0  0  0  0  0  0  0  0
    4.8571  -17.2442   -6.1321 N   0  0  0  0  0  0  0  0  0  0  0  0
    4.3663  -15.9944   -6.1618 C   0  0  0  0  0  0  0  0  0  0  0  0
    4.7790  -14.8179   -5.5550 C   0  0  0  0  0  0  0  0  0  0  0  0
    5.8526  -14.8066   -4.7760 N   0  0  0  0  0  0  0  0  0  0  0  0
    4.0625  -13.6585   -5.7767 N   0  0  0  0  0  0  0  0  0  0  0  0
    2.9420  -13.6537   -6.5978 C   0  0  0  0  0  0  0  0  0  0  0  0
    2.5498  -14.8330   -7.1978 N   0  0  0  0  0  0  0  0  0  0  0  0
    3.2414  -15.9900   -6.9829 C   0  0  0  0  0  0  0  0  0  0  0  0
  2  3  1  1  0  0  0
  2  6  1  0  0  0  0
  2  1  1  0  0  0  0
  4  3  2  0  0  0  0
  5  3  1  0  0  0  0
  6  7  2  0  0  0  0
  8  7  1  1  0  0  0
  8  9  1  0  0  0  0
  8 10  1  0  0  0  0
 11 10  1  6  0  0  0
 11 13  1  0  0  0  0
 12 11  1  0  0  0  0
 12 17  1  0  0  0  0
 13 14  1  6  0  0  0
 13 15  1  0  0  0  0
 15 16  1  6  0  0  0
 17 18  1  1  0  0  0
 17 15  1  0  0  0  0
 18 19  1  0  0  0  0
 20 19  2  0  0  0  0
 21 27  2  0  0  0  0
 21 20  1  0  0  0  0
 22 21  1  0  0  0  0
 23 22  1  0  0  0  0
 24 22  2  0  0  0  0
 24 25  1  0  0  0  0
 25 26  2  0  0  0  0
 26 27  1  0  0  0  0
 27 18  1  0  0  0  0
M  END
>  <CHROM.1>
-150.59683247,18.87921002,-54.75009861,-75.27517560,54.80346499,-97.37975572
3.63172404,-16.39511434,-9.43581202,-1.03947166,0.15127872,1.39015477

>  <Name>
lig.pdb

>  <RI>
0

>  <Rbt.Current_Directory>
/home/itssahil/PROJECTS/Mol_Feturizer/New_Systems/rnas/4b5r

>  <Rbt.Executable>
rbdock ($Id: //depot/dev/client3/rdock/2013.1/src/exe/rbdock.cxx#4 $)

>  <Rbt.Library>
libRbt.so (2013.1, Build901 2013/11/27)

>  <Rbt.Parameter_File>
/export/apps/rDock/src/rDock_2013.1_src/data/scripts/dock_solv.prm

>  <Rbt.Receptor>
prm/pocket_docking_3.prm

>  <SCORE>
-16.4256

>  <SCORE.INTER>
-15.8554

>  <SCORE.INTER.CONST>
1

>  <SCORE.INTER.POLAR>
0

>  <SCORE.INTER.ROT>
6

>  <SCORE.INTER.SOLV>
14.6304

>  <SCORE.INTER.VDW>
-23.0471

>  <SCORE.INTER.norm>
-0.587238

>  <SCORE.INTRA>
-0.570146

>  <SCORE.INTRA.DIHEDRAL>
-2.47771

>  <SCORE.INTRA.DIHEDRAL.0>
10.2917

>  <SCORE.INTRA.POLAR>
0

>  <SCORE.INTRA.POLAR.0>
0

>  <SCORE.INTRA.REPUL>
0

>  <SCORE.INTRA.REPUL.0>
0

>  <SCORE.INTRA.SOLV>
-1.92872

>  <SCORE.INTRA.SOLV.lig_0>
-39.6315

>  <SCORE.INTRA.VDW>
1.63307

>  <SCORE.INTRA.VDW.0>
-4.02152

>  <SCORE.INTRA.norm>
-0.0211165

>  <SCORE.RESTR>
0

>  <SCORE.RESTR.CAVITY>
0

>  <SCORE.RESTR.norm>
0

>  <SCORE.SYSTEM>
0

>  <SCORE.SYSTEM.CONST>
0

>  <SCORE.SYSTEM.DIHEDRAL>
0

>  <SCORE.SYSTEM.SOLV>
0

>  <SCORE.SYSTEM.norm>
0

>  <SCORE.heavy>
27

>  <SCORE.norm>
-0.608355

>  <RMSD>
5.400

$$$$
lig.pdb
 OpenBabel11021811493D
libRbt.so/2013.1/901 2013/11/27
 27 29  0  0  0  0  0  0  0  0999 V2000
    7.4626  -13.4996  -13.9394 N   0  0  0  0  0  0  0  0  0  0  0  0
    6.0797  -13.1038  -13.5335 C   0  0  2  0  0  0  0  0  0  0  0  0
    6.1431  -11.7910  -12.7585 C   0  0  0  0  0  0  0  0  0  0  0  0
    7.0884  -11.5768  -12.0086 O   0  0  0  0  0  0  0  0  0  0  0  0
    5.2702  -10.9179  -12.8461 O   0  0  0  0  0  0  0  0  0  0  0  0
    5.3286  -14.1965  -12.7462 C   0  0  0  0  0  0  0  0  0  0  0  0
    3.9784  -14.6798  -13.3379 C   0  0  0  0  0  0  0  0  0  0  0  0
    3.0253  -15.9808  -12.4421 S   0  0  2  0  0  0  0  0  0  0  0  0
    1.6242  -16.2278  -13.5537 C   0  0  0  0  0  0  0  0  0  0  0  0
    2.2052  -15.0692  -11.1162 C   0  0  0  0  0  0  0  0  0  0  0  0
    1.4566  -16.0401  -10.2126 C   0  0  1  0  0  0  0  0  0  0  0  0
    2.2725  -17.1141   -9.7696 O   0  0  0  0  0  0  0  0  0  0  0  0
    0.9711  -15.4063   -8.9367 C   0  0  1  0  0  0  0  0  0  0  0  0
   -0.1896  -14.6645   -9.1785 O   0  0  0  0  0  0  0  0  0  0  0  0
    0.7242  -16.6361   -8.0911 C   0  0  1  0  0  0  0  0  0  0  0  0
   -0.5377  -17.1931   -8.3983 O   0  0  0  0  0  0  0  0  0  0  0  0
    1.8141  -17.6102   -8.5245 C   0  0  2  0  0  0  0  0  0  0  0  0
    2.9309  -17.7794   -7.5548 N   0  0  0  0  0  0  0  0  0  0  0  0
    3.4307  -18.9821   -7.1227 C   0  0  0  0  0  0  0  0  0  0  0  0
    4.4373  -18.7562   -6.2491 N   0  0  0  0  0  0  0  0  0  0  0  0
    4.6021  -17.4299   -6.1161 C   0  0  0  0  0  0  0  0  0  0  0  0
    5.4879  -16.6730   -5.3645 C   0  0  0  0  0  0  0  0  0  0  0  0
    6.3900  -17.2664   -4.5941 N   0  0  0  0  0  0  0  0  0  0  0  0
    5.4229  -15.2953   -5.4328 N   0  0  0  0  0  0  0  0  0  0  0  0
    4.4897  -14.6606   -6.2427 C   0  0  0  0  0  0  0  0  0  0  0  0
    3.6201  -15.4306   -6.9881 N   0  0  0  0  0  0  0  0  0  0  0  0
    3.6648  -16.7935   -6.9261 C   0  0  0  0  0  0  0  0  0  0  0  0
  2  3  1  1  0  0  0
  2  6  1  0  0  0  0
  2  1  1  0  0  0  0
  4  3  2  0  0  0  0
  5  3  1  0  0  0  0
  6  7  2  0  0  0  0
  8  7  1  6  0  0  0
  8  9  1  0  0  0  0
  8 10  1  0  0  0  0
 11 10  1  1  0  0  0
 11 13  1  0  0  0  0
 12 11  1  0  0  0  0
 12 17  1  0  0  0  0
 13 14  1  6  0  0  0
 13 15  1  0  0  0  0
 15 16  1  6  0  0  0
 17 18  1  1  0  0  0
 17 15  1  0  0  0  0
 18 19  1  0  0  0  0
 20 19  2  0  0  0  0
 21 27  2  0  0  0  0
 21 20  1  0  0  0  0
 22 21  1  0  0  0  0
 23 22  1  0  0  0  0
 24 22  2  0  0  0  0
 24 25  1  0  0  0  0
 25 26  2  0  0  0  0
 26 27  1  0  0  0  0
 27 18  1  0  0  0  0
M  END
>  <CHROM.1>
-36.27026232,-122.42298735,-177.49444741,-175.54946139,51.28703289,-109.43255973
3.60108514,-15.56682685,-9.60728598,-1.29661295,0.43870999,2.00726503

>  <Name>
lig.pdb

>  <RI>
0

>  <Rbt.Current_Directory>
/home/itssahil/PROJECTS/Mol_Feturizer/New_Systems/rnas/4b5r

>  <Rbt.Executable>
rbdock ($Id: //depot/dev/client3/rdock/2013.1/src/exe/rbdock.cxx#4 $)

>  <Rbt.Library>
libRbt.so (2013.1, Build901 2013/11/27)

>  <Rbt.Parameter_File>
/export/apps/rDock/src/rDock_2013.1_src/data/scripts/dock_solv.prm

>  <Rbt.Receptor>
prm/pocket_docking_5.prm

>  <SCORE>
-18.3769

>  <SCORE.INTER>
-17.0358

>  <SCORE.INTER.CONST>
1

>  <SCORE.INTER.POLAR>
0

>  <SCORE.INTER.ROT>
6

>  <SCORE.INTER.SOLV>
11.752

>  <SCORE.INTER.VDW>
-22.8745

>  <SCORE.INTER.norm>
-0.630957

>  <SCORE.INTRA>
-1.34108

>  <SCORE.INTRA.DIHEDRAL>
-2.02756

>  <SCORE.INTRA.DIHEDRAL.0>
10.2917

>  <SCORE.INTRA.POLAR>
0

>  <SCORE.INTRA.POLAR.0>
0

>  <SCORE.INTRA.REPUL>
0

>  <SCORE.INTRA.REPUL.0>
0

>  <SCORE.INTRA.SOLV>
-2.7776

>  <SCORE.INTRA.SOLV.lig_0>
-39.6315

>  <SCORE.INTRA.VDW>
1.0615

>  <SCORE.INTRA.VDW.0>
-4.02152

>  <SCORE.INTRA.norm>
-0.0496697

>  <SCORE.RESTR>
0

>  <SCORE.RESTR.CAVITY>
0

>  <SCORE.RESTR.norm>
0

>  <SCORE.SYSTEM>
0

>  <SCORE.SYSTEM.CONST>
0

>  <SCORE.SYSTEM.DIHEDRAL>
0

>  <SCORE.SYSTEM.SOLV>
0

>  <SCORE.SYSTEM.norm>
0

>  <SCORE.heavy>
27

>  <SCORE.norm>
-0.680626

>  <RMSD>
5.402

$$$$
lig.pdb
 OpenBabel11021811493D
libRbt.so/2013.1/901 2013/11/27
 27 29  0  0  0  0  0  0  0  0999 V2000
    7.7665  -15.0541  -14.0929 N   0  0  0  0  0  0  0  0  0  0  0  0
    6.6576  -14.3045  -13.4277 C   0  0  2  0  0  0  0  0  0  0  0  0
    7.2534  -13.2815  -12.4650 C   0  0  0  0  0  0  0  0  0  0  0  0
    6.5245  -12.4450  -11.9447 O   0  0  0  0  0  0  0  0  0  0  0  0
    8.4578  -13.2495  -12.1818 O   0  0  0  0  0  0  0  0  0  0  0  0
    5.6269  -15.2140  -12.7291 C   0  0  0  0  0  0  0  0  0  0  0  0
    4.1498  -15.0706  -13.1808 C   0  0  0  0  0  0  0  0  0  0  0  0
    2.8645  -16.1247  -12.3806 S   0  0  2  0  0  0  0  0  0  0  0  0
    1.6083  -16.2028  -13.6749 C   0  0  0  0  0  0  0  0  0  0  0  0
    2.0471  -14.9978  -11.2301 C   0  0  0  0  0  0  0  0  0  0  0  0
    1.3699  -15.7959  -10.1238 C   0  0  1  0  0  0  0  0  0  0  0  0
    2.2157  -16.7951   -9.5746 O   0  0  0  0  0  0  0  0  0  0  0  0
    0.9880  -14.9542   -8.9359 C   0  0  1  0  0  0  0  0  0  0  0  0
   -0.1864  -14.2444   -9.2059 O   0  0  0  0  0  0  0  0  0  0  0  0
    0.8058  -16.0248   -7.8829 C   0  0  1  0  0  0  0  0  0  0  0  0
   -0.4776  -16.6053   -7.9955 O   0  0  0  0  0  0  0  0  0  0  0  0
    1.8559  -17.0733   -8.2331 C   0  0  2  0  0  0  0  0  0  0  0  0
    3.0454  -17.0982   -7.3382 N   0  0  0  0  0  0  0  0  0  0  0  0
    3.7151  -18.2280   -6.9405 C   0  0  0  0  0  0  0  0  0  0  0  0
    4.7409  -17.8750   -6.1340 N   0  0  0  0  0  0  0  0  0  0  0  0
    4.7509  -16.5375   -6.0111 C   0  0  0  0  0  0  0  0  0  0  0  0
    5.5845  -15.6730   -5.3180 C   0  0  0  0  0  0  0  0  0  0  0  0
    6.6002  -16.1466   -4.6084 N   0  0  0  0  0  0  0  0  0  0  0  0
    5.3477  -14.3140   -5.3810 N   0  0  0  0  0  0  0  0  0  0  0  0
    4.2936  -13.8036   -6.1280 C   0  0  0  0  0  0  0  0  0  0  0  0
    3.4781  -14.6790   -6.8158 N   0  0  0  0  0  0  0  0  0  0  0  0
    3.6926  -16.0258   -6.7579 C   0  0  0  0  0  0  0  0  0  0  0  0
  2  3  1  1  0  0  0
  2  6  1  0  0  0  0
  2  1  1  0  0  0  0
  4  3  2  0  0  0  0
  5  3  1  0  0  0  0
  6  7  2  0  0  0  0
  8  7  1  6  0  0  0
  8  9  1  0  0  0  0
  8 10  1  0  0  0  0
 11 10  1  6  0  0  0
 11 13  1  0  0  0  0
 12 11  1  0  0  0  0
 12 17  1  0  0  0  0
 13 14  1  6  0  0  0
 13 15  1  0  0  0  0
 15 16  1  6  0  0  0
 17 18  1  1  0  0  0
 17 15  1  0  0  0  0
 18 19  1  0  0  0  0
 20 19  2  0  0  0  0
 21 27  2  0  0  0  0
 21 20  1  0  0  0  0
 22 21  1  0  0  0  0
 23 22  1  0  0  0  0
 24 22  2  0  0  0  0
 24 25  1  0  0  0  0
 25 26  2  0  0  0  0
 26 27  1  0  0  0  0
 27 18  1  0  0  0  0
M  END
>  <CHROM.1>
170.68453734,-122.75119350,-154.06981250,-157.43726606,47.04410973,-97.47394916
3.79728998,-15.48501878,-9.48608989,-1.17809408,0.26801338,1.72548029

>  <Name>
lig.pdb

>  <RI>
0

>  <Rbt.Current_Directory>
/home/itssahil/PROJECTS/Mol_Feturizer/New_Systems/rnas/4b5r

>  <Rbt.Executable>
rbdock ($Id: //depot/dev/client3/rdock/2013.1/src/exe/rbdock.cxx#4 $)

>  <Rbt.Library>
libRbt.so (2013.1, Build901 2013/11/27)

>  <Rbt.Parameter_File>
/export/apps/rDock/src/rDock_2013.1_src/data/scripts/dock_solv.prm

>  <Rbt.Receptor>
prm/pocket_docking_3.prm

>  <SCORE>
-13.8104

>  <SCORE.INTER>
-14.0665

>  <SCORE.INTER.CONST>
1

>  <SCORE.INTER.POLAR>
0

>  <SCORE.INTER.ROT>
6

>  <SCORE.INTER.SOLV>
12.0089

>  <SCORE.INTER.VDW>
-20.9806

>  <SCORE.INTER.norm>
-0.52098

>  <SCORE.INTRA>
0.250867

>  <SCORE.INTRA.DIHEDRAL>
0.800909

>  <SCORE.INTRA.DIHEDRAL.0>
10.2917

>  <SCORE.INTRA.POLAR>
0

>  <SCORE.INTRA.POLAR.0>
0

>  <SCORE.INTRA.REPUL>
0

>  <SCORE.INTRA.REPUL.0>
0

>  <SCORE.INTRA.SOLV>
-2.84133

>  <SCORE.INTRA.SOLV.lig_0>
-39.6315

>  <SCORE.INTRA.VDW>
1.27108

>  <SCORE.INTRA.VDW.0>
-4.02152

>  <SCORE.INTRA.norm>
0.00929138

>  <SCORE.RESTR>
0.00523914

>  <SCORE.RESTR.CAVITY>
0.00523914

>  <SCORE.RESTR.norm>
0.000194042

>  <SCORE.SYSTEM>
0

>  <SCORE.SYSTEM.CONST>
0

>  <SCORE.SYSTEM.DIHEDRAL>
0

>  <SCORE.SYSTEM.SOLV>
0

>  <SCORE.SYSTEM.norm>
0

>  <SCORE.heavy>
27

>  <SCORE.norm>
-0.511494

>  <RMSD>
5.403

$$$$
lig.pdb
 OpenBabel11021811493D
libRbt.so/2013.1/901 2013/11/27
 27 29  0  0  0  0  0  0  0  0999 V2000
    6.5326  -15.8427   -9.3390 N   0  0  0  0  0  0  0  0  0  0  0  0
    6.3833  -17.0690  -10.1803 C   0  0  2  0  0  0  0  0  0  0  0  0
    7.3540  -16.9902  -11.3549 C   0  0  0  0  0  0  0  0  0  0  0  0
    7.8732  -15.9171  -11.6389 O   0  0  0  0  0  0  0  0  0  0  0  0
    7.6450  -17.9711  -12.0512 O   0  0  0  0  0  0  0  0  0  0  0  0
    4.9371  -17.3256  -10.6502 C   0  0  0  0  0  0  0  0  0  0  0  0
    4.5480  -16.7713  -12.0458 C   0  0  0  0  0  0  0  0  0  0  0  0
    2.8309  -17.0378  -12.6657 S   0  0  2  0  0  0  0  0  0  0  0  0
    2.7828  -15.9175  -14.0807 C   0  0  0  0  0  0  0  0  0  0  0  0
    1.8105  -16.1049  -11.5037 C   0  0  0  0  0  0  0  0  0  0  0  0
    1.2915  -17.0350  -10.4151 C   0  0  1  0  0  0  0  0  0  0  0  0
    2.3250  -17.7952   -9.8074 O   0  0  0  0  0  0  0  0  0  0  0  0
    0.6582  -16.3020   -9.2631 C   0  0  1  0  0  0  0  0  0  0  0  0
   -0.6379  -15.9002   -9.6018 O   0  0  0  0  0  0  0  0  0  0  0  0
    0.6875  -17.3769   -8.1992 C   0  0  1  0  0  0  0  0  0  0  0  0
   -0.4102  -18.2521   -8.3606 O   0  0  0  0  0  0  0  0  0  0  0  0
    1.9761  -18.1422   -8.4791 C   0  0  2  0  0  0  0  0  0  0  0  0
    3.0898  -17.8713   -7.5290 N   0  0  0  0  0  0  0  0  0  0  0  0
    3.9642  -18.8107   -7.0434 C   0  0  0  0  0  0  0  0  0  0  0  0
    4.8417  -18.2106   -6.2084 N   0  0  0  0  0  0  0  0  0  0  0  0
    4.5550  -16.8995   -6.1530 C   0  0  0  0  0  0  0  0  0  0  0  0
    5.1408  -15.8472   -5.4660 C   0  0  0  0  0  0  0  0  0  0  0  0
    6.1927  -16.0589   -4.6862 N   0  0  0  0  0  0  0  0  0  0  0  0
    4.6195  -14.5765   -5.6088 N   0  0  0  0  0  0  0  0  0  0  0  0
    3.5243  -14.3386   -6.4295 C   0  0  0  0  0  0  0  0  0  0  0  0
    2.9582  -15.3975   -7.1099 N   0  0  0  0  0  0  0  0  0  0  0  0
    3.4554  -16.6614   -6.9738 C   0  0  0  0  0  0  0  0  0  0  0  0
  2  3  1  6  0  0  0
  2  6  1  0  0  0  0
  2  1  1  0  0  0  0
  4  3  2  0  0  0  0
  5  3  1  0  0  0  0
  6  7  2  0  0  0  0
  8  7  1  1  0  0  0
  8  9  1  0  0  0  0
  8 10  1  0  0  0  0
 11 10  1  6  0  0  0
 11 13  1  0  0  0  0
 12 11  1  0  0  0  0
 12 17  1  0  0  0  0
 13 14  1  6  0  0  0
 13 15  1  0  0  0  0
 15 16  1  6  0  0  0
 17 18  1  1  0  0  0
 17 15  1  0  0  0  0
 18 19  1  0  0  0  0
 20 19  2  0  0  0  0
 21 27  2  0  0  0  0
 21 20  1  0  0  0  0
 22 21  1  0  0  0  0
 23 22  1  0  0  0  0
 24 22  2  0  0  0  0
 24 25  1  0  0  0  0
 25 26  2  0  0  0  0
 26 27  1  0  0  0  0
 27 18  1  0  0  0  0
M  END
>  <CHROM.1>
-15.57732644,94.03406838,167.54780823,-95.38918183,51.39169216,-99.79112104
3.66983922,-16.77488705,-9.23706148,-1.50640571,0.05896862,1.50554528

>  <Name>
lig.pdb

>  <RI>
0

>  <Rbt.Current_Directory>
/home/itssahil/PROJECTS/Mol_Feturizer/New_Systems/rnas/4b5r

>  <Rbt.Executable>
rbdock ($Id: //depot/dev/client3/rdock/2013.1/src/exe/rbdock.cxx#4 $)

>  <Rbt.Library>
libRbt.so (2013.1, Build901 2013/11/27)

>  <Rbt.Parameter_File>
/export/apps/rDock/src/rDock_2013.1_src/data/scripts/dock_solv.prm

>  <Rbt.Receptor>
prm/pocket_docking_4.prm

>  <SCORE>
-14.858

>  <SCORE.INTER>
-14.745

>  <SCORE.INTER.CONST>
1

>  <SCORE.INTER.POLAR>
0

>  <SCORE.INTER.ROT>
6

>  <SCORE.INTER.SOLV>
13.8662

>  <SCORE.INTER.VDW>
-22.0521

>  <SCORE.INTER.norm>
-0.54611

>  <SCORE.INTRA>
-0.113036

>  <SCORE.INTRA.DIHEDRAL>
0.0434358

>  <SCORE.INTRA.DIHEDRAL.0>
10.2917

>  <SCORE.INTRA.POLAR>
0

>  <SCORE.INTRA.POLAR.0>
0

>  <SCORE.INTRA.REPUL>
0

>  <SCORE.INTRA.REPUL.0>
0

>  <SCORE.INTRA.SOLV>
-0.926165

>  <SCORE.INTRA.SOLV.lig_0>
-39.6315

>  <SCORE.INTRA.VDW>
0.328328

>  <SCORE.INTRA.VDW.0>
-4.02152

>  <SCORE.INTRA.norm>
-0.00418653

>  <SCORE.RESTR>
0

>  <SCORE.RESTR.CAVITY>
0

>  <SCORE.RESTR.norm>
0

>  <SCORE.SYSTEM>
0

>  <SCORE.SYSTEM.CONST>
0

>  <SCORE.SYSTEM.DIHEDRAL>
0

>  <SCORE.SYSTEM.SOLV>
0

>  <SCORE.SYSTEM.norm>
0

>  <SCORE.heavy>
27

>  <SCORE.norm>
-0.550297

>  <RMSD>
5.408

$$$$
lig.pdb
 OpenBabel11021811493D
libRbt.so/2013.1/901 2013/11/27
 27 29  0  0  0  0  0  0  0  0999 V2000
    7.8580  -18.0548  -15.2686 N   0  0  0  0  0  0  0  0  0  0  0  0
    7.0589  -16.8824  -14.7984 C   0  0  2  0  0  0  0  0  0  0  0  0
    7.8542  -15.6041  -15.0465 C   0  0  0  0  0  0  0  0  0  0  0  0
    8.7813  -15.3143  -14.2992 O   0  0  0  0  0  0  0  0  0  0  0  0
    7.6031  -14.8282  -15.9775 O   0  0  0  0  0  0  0  0  0  0  0  0
    6.6000  -16.9942  -13.3305 C   0  0  0  0  0  0  0  0  0  0  0  0
    5.0706  -16.9618  -13.0728 C   0  0  0  0  0  0  0  0  0  0  0  0
    4.4541  -17.0846  -11.3384 S   0  0  2  0  0  0  0  0  0  0  0  0
    5.7984  -17.9904  -10.5435 C   0  0  0  0  0  0  0  0  0  0  0  0
    3.2120  -18.3931  -11.4209 C   0  0  0  0  0  0  0  0  0  0  0  0
    2.4078  -18.4197  -10.1279 C   0  0  1  0  0  0  0  0  0  0  0  0
    3.2178  -18.6512   -8.9852 O   0  0  0  0  0  0  0  0  0  0  0  0
    1.7267  -17.1115   -9.8278 C   0  0  1  0  0  0  0  0  0  0  0  0
    0.5677  -16.9834  -10.6000 O   0  0  0  0  0  0  0  0  0  0  0  0
    1.4411  -17.2783   -8.3517 C   0  0  1  0  0  0  0  0  0  0  0  0
    0.2625  -18.0356   -8.1661 O   0  0  0  0  0  0  0  0  0  0  0  0
    2.6303  -18.0777   -7.8309 C   0  0  2  0  0  0  0  0  0  0  0  0
    3.6198  -17.2944   -7.0412 N   0  0  0  0  0  0  0  0  0  0  0  0
    4.6967  -17.8209   -6.3733 C   0  0  0  0  0  0  0  0  0  0  0  0
    5.3757  -16.8208   -5.7681 N   0  0  0  0  0  0  0  0  0  0  0  0
    4.7618  -15.6576   -6.0404 C   0  0  0  0  0  0  0  0  0  0  0  0
    5.0457  -14.3490   -5.6807 C   0  0  0  0  0  0  0  0  0  0  0  0
    6.1024  -14.0756   -4.9269 N   0  0  0  0  0  0  0  0  0  0  0  0
    4.2191  -13.3348   -6.1219 N   0  0  0  0  0  0  0  0  0  0  0  0
    3.1147  -13.6056   -6.9198 C   0  0  0  0  0  0  0  0  0  0  0  0
    2.8513  -14.9136   -7.2724 N   0  0  0  0  0  0  0  0  0  0  0  0
    3.6531  -15.9293   -6.8383 C   0  0  0  0  0  0  0  0  0  0  0  0
  2  3  1  1  0  0  0
  2  6  1  0  0  0  0
  2  1  1  0  0  0  0
  4  3  2  0  0  0  0
  5  3  1  0  0  0  0
  6  7  2  0  0  0  0
  8  7  1  6  0  0  0
  8  9  1  0  0  0  0
  8 10  1  0  0  0  0
 11 10  1  6  0  0  0
 11 13  1  0  0  0  0
 12 11  1  0  0  0  0
 12 17  1  0  0  0  0
 13 14  1  6  0  0  0
 13 15  1  0  0  0  0
 15 16  1  6  0  0  0
 17 18  1  6  0  0  0
 17 15  1  0  0  0  0
 18 19  1  0  0  0  0
 20 19  2  0  0  0  0
 21 27  2  0  0  0  0
 21 20  1  0  0  0  0
 22 21  1  0  0  0  0
 23 22  1  0  0  0  0
 24 22  2  0  0  0  0
 24 25  1  0  0  0  0
 25 26  2  0  0  0  0
 26 27  1  0  0  0  0
 27 18  1  0  0  0  0
M  END
>  <CHROM.1>
-76.73714284,-120.49044059,-26.47912623,-168.45922586,-59.52096299,-66.87968929
4.43392695,-16.58347642,-9.84730580,1.03514861,-0.54254924,-1.92089702

>  <Name>
lig.pdb

>  <RI>
0

>  <Rbt.Current_Directory>
/home/itssahil/PROJECTS/Mol_Feturizer/New_Systems/rnas/4b5r

>  <Rbt.Executable>
rbdock ($Id: //depot/dev/client3/rdock/2013.1/src/exe/rbdock.cxx#4 $)

>  <Rbt.Library>
libRbt.so (2013.1, Build901 2013/11/27)

>  <Rbt.Parameter_File>
/export/apps/rDock/src/rDock_2013.1_src/data/scripts/dock_solv.prm

>  <Rbt.Receptor>
prm/pocket_docking_6.prm

>  <SCORE>
-11.0378

>  <SCORE.INTER>
-10.4387

>  <SCORE.INTER.CONST>
1

>  <SCORE.INTER.POLAR>
0

>  <SCORE.INTER.ROT>
6

>  <SCORE.INTER.SOLV>
15.6455

>  <SCORE.INTER.VDW>
-19.7743

>  <SCORE.INTER.norm>
-0.38662

>  <SCORE.INTRA>
-0.599062

>  <SCORE.INTRA.DIHEDRAL>
-2.39266

>  <SCORE.INTRA.DIHEDRAL.0>
10.2917

>  <SCORE.INTRA.POLAR>
0

>  <SCORE.INTRA.POLAR.0>
0

>  <SCORE.INTRA.REPUL>
0

>  <SCORE.INTRA.REPUL.0>
0

>  <SCORE.INTRA.SOLV>
-2.60005

>  <SCORE.INTRA.SOLV.lig_0>
-39.6315

>  <SCORE.INTRA.VDW>
1.8973

>  <SCORE.INTRA.VDW.0>
-4.02152

>  <SCORE.INTRA.norm>
-0.0221875

>  <SCORE.RESTR>
0

>  <SCORE.RESTR.CAVITY>
0

>  <SCORE.RESTR.norm>
0

>  <SCORE.SYSTEM>
0

>  <SCORE.SYSTEM.CONST>
0

>  <SCORE.SYSTEM.DIHEDRAL>
0

>  <SCORE.SYSTEM.SOLV>
0

>  <SCORE.SYSTEM.norm>
0

>  <SCORE.heavy>
27

>  <SCORE.norm>
-0.408807

>  <RMSD>
5.412

$$$$
lig.pdb
 OpenBabel11021811493D
libRbt.so/2013.1/901 2013/11/27
 27 29  0  0  0  0  0  0  0  0999 V2000
    5.1364  -15.1408  -15.9875 N   0  0  0  0  0  0  0  0  0  0  0  0
    5.7692  -14.5817  -14.7542 C   0  0  2  0  0  0  0  0  0  0  0  0
    7.2617  -14.8984  -14.7710 C   0  0  0  0  0  0  0  0  0  0  0  0
    8.0732  -13.9952  -14.6057 O   0  0  0  0  0  0  0  0  0  0  0  0
    7.7026  -16.0407  -14.9516 O   0  0  0  0  0  0  0  0  0  0  0  0
    5.0998  -15.0518  -13.4469 C   0  0  0  0  0  0  0  0  0  0  0  0
    3.6890  -15.6843  -13.5734 C   0  0  0  0  0  0  0  0  0  0  0  0
    2.8290  -16.2620  -12.0469 S   0  0  2  0  0  0  0  0  0  0  0  0
    1.9033  -14.7851  -11.5763 C   0  0  0  0  0  0  0  0  0  0  0  0
    4.1245  -16.2231  -10.7892 C   0  0  0  0  0  0  0  0  0  0  0  0
    3.9479  -17.3959   -9.8338 C   0  0  1  0  0  0  0  0  0  0  0  0
    5.0712  -17.5845   -8.9865 O   0  0  0  0  0  0  0  0  0  0  0  0
    2.8012  -17.2117   -8.8765 C   0  0  1  0  0  0  0  0  0  0  0  0
    1.5895  -17.4911   -9.5166 O   0  0  0  0  0  0  0  0  0  0  0  0
    3.1593  -18.2273   -7.8142 C   0  0  1  0  0  0  0  0  0  0  0  0
    2.7368  -19.5163   -8.2104 O   0  0  0  0  0  0  0  0  0  0  0  0
    4.6830  -18.1976   -7.7700 C   0  0  2  0  0  0  0  0  0  0  0  0
    5.2665  -17.4998   -6.5915 N   0  0  0  0  0  0  0  0  0  0  0  0
    6.2657  -17.9944   -5.7915 C   0  0  0  0  0  0  0  0  0  0  0  0
    6.5440  -17.0947   -4.8217 N   0  0  0  0  0  0  0  0  0  0  0  0
    5.7489  -16.0248   -4.9864 C   0  0  0  0  0  0  0  0  0  0  0  0
    5.6338  -14.8342   -4.2851 C   0  0  0  0  0  0  0  0  0  0  0  0
    6.4081  -14.5980   -3.2342 N   0  0  0  0  0  0  0  0  0  0  0  0
    4.7085  -13.8961   -4.6980 N   0  0  0  0  0  0  0  0  0  0  0  0
    3.8980  -14.1260   -5.8025 C   0  0  0  0  0  0  0  0  0  0  0  0
    4.0309  -15.3144   -6.4915 N   0  0  0  0  0  0  0  0  0  0  0  0
    4.9346  -16.2563   -6.0922 C   0  0  0  0  0  0  0  0  0  0  0  0
  2  3  1  1  0  0  0
  2  6  1  0  0  0  0
  2  1  1  0  0  0  0
  4  3  2  0  0  0  0
  5  3  1  0  0  0  0
  6  7  2  0  0  0  0
  8  7  1  6  0  0  0
  8  9  1  0  0  0  0
  8 10  1  0  0  0  0
 11 10  1  1  0  0  0
 11 13  1  0  0  0  0
 12 11  1  0  0  0  0
 12 17  1  0  0  0  0
 13 14  1  6  0  0  0
 13 15  1  0  0  0  0
 15 16  1  6  0  0  0
 17 18  1  1  0  0  0
 17 15  1  0  0  0  0
 18 19  1  0  0  0  0
 20 19  2  0  0  0  0
 21 27  2  0  0  0  0
 21 20  1  0  0  0  0
 22 21  1  0  0  0  0
 23 22  1  0  0  0  0
 24 22  2  0  0  0  0
 24 25  1  0  0  0  0
 25 26  2  0  0  0  0
 26 27  1  0  0  0  0
 27 18  1  0  0  0  0
M  END
>  <CHROM.1>
127.98867269,-16.15739545,91.03561274,-143.43831796,168.22719265,-108.73249785
4.67368268,-16.17227497,-9.48055963,-1.51362808,0.54486505,1.64067610

>  <Name>
lig.pdb

>  <RI>
0

>  <Rbt.Current_Directory>
/home/itssahil/PROJECTS/Mol_Feturizer/New_Systems/rnas/4b5r

>  <Rbt.Executable>
rbdock ($Id: //depot/dev/client3/rdock/2013.1/src/exe/rbdock.cxx#4 $)

>  <Rbt.Library>
libRbt.so (2013.1, Build901 2013/11/27)

>  <Rbt.Parameter_File>
/export/apps/rDock/src/rDock_2013.1_src/data/scripts/dock_solv.prm

>  <Rbt.Receptor>
prm/pocket_docking_4.prm

>  <SCORE>
-8.91479

>  <SCORE.INTER>
-10.3305

>  <SCORE.INTER.CONST>
1

>  <SCORE.INTER.POLAR>
0

>  <SCORE.INTER.ROT>
6

>  <SCORE.INTER.SOLV>
11.2576

>  <SCORE.INTER.VDW>
-18.2395

>  <SCORE.INTER.norm>
-0.38261

>  <SCORE.INTRA>
1.41001

>  <SCORE.INTRA.DIHEDRAL>
2.17534

>  <SCORE.INTRA.DIHEDRAL.0>
10.2917

>  <SCORE.INTRA.POLAR>
0

>  <SCORE.INTRA.POLAR.0>
0

>  <SCORE.INTRA.REPUL>
0

>  <SCORE.INTRA.REPUL.0>
0

>  <SCORE.INTRA.SOLV>
-2.03894

>  <SCORE.INTRA.SOLV.lig_0>
-39.6315

>  <SCORE.INTRA.VDW>
1.34181

>  <SCORE.INTRA.VDW.0>
-4.02152

>  <SCORE.INTRA.norm>
0.0522226

>  <SCORE.RESTR>
0.00568348

>  <SCORE.RESTR.CAVITY>
0.00568348

>  <SCORE.RESTR.norm>
0.000210499

>  <SCORE.SYSTEM>
0

>  <SCORE.SYSTEM.CONST>
0

>  <SCORE.SYSTEM.DIHEDRAL>
0

>  <SCORE.SYSTEM.SOLV>
0

>  <SCORE.SYSTEM.norm>
0

>  <SCORE.heavy>
27

>  <SCORE.norm>
-0.330177

>  <RMSD>
5.413

$$$$
lig.pdb
 OpenBabel11021811493D
libRbt.so/2013.1/901 2013/11/27
 27 29  0  0  0  0  0  0  0  0999 V2000
    7.0969  -15.6027  -10.4322 N   0  0  0  0  0  0  0  0  0  0  0  0
    6.1522  -16.7593  -10.3714 C   0  0  2  0  0  0  0  0  0  0  0  0
    6.7958  -17.9660  -11.0481 C   0  0  0  0  0  0  0  0  0  0  0  0
    6.5204  -19.0951  -10.6595 O   0  0  0  0  0  0  0  0  0  0  0  0
    7.6002  -17.8605  -11.9828 O   0  0  0  0  0  0  0  0  0  0  0  0
    4.7586  -16.4522  -10.9557 C   0  0  0  0  0  0  0  0  0  0  0  0
    4.2256  -17.4267  -12.0387 C   0  0  0  0  0  0  0  0  0  0  0  0
    2.5673  -17.1132  -12.7841 S   0  0  2  0  0  0  0  0  0  0  0  0
    2.9492  -15.8083  -13.9719 C   0  0  0  0  0  0  0  0  0  0  0  0
    1.7134  -16.1392  -11.5256 C   0  0  0  0  0  0  0  0  0  0  0  0
    1.1987  -17.0591  -10.4263 C   0  0  1  0  0  0  0  0  0  0  0  0
    2.2329  -17.8224   -9.8238 O   0  0  0  0  0  0  0  0  0  0  0  0
    0.5812  -16.3149   -9.2730 C   0  0  1  0  0  0  0  0  0  0  0  0
   -0.7153  -15.9065   -9.6018 O   0  0  0  0  0  0  0  0  0  0  0  0
    0.6135  -17.3835   -8.2027 C   0  0  1  0  0  0  0  0  0  0  0  0
   -0.4915  -18.2523   -8.3483 O   0  0  0  0  0  0  0  0  0  0  0  0
    1.8943  -18.1590   -8.4901 C   0  0  2  0  0  0  0  0  0  0  0  0
    3.0187  -17.8898   -7.5523 N   0  0  0  0  0  0  0  0  0  0  0  0
    3.8772  -18.8357   -7.0510 C   0  0  0  0  0  0  0  0  0  0  0  0
    4.7713  -18.2351   -6.2341 N   0  0  0  0  0  0  0  0  0  0  0  0
    4.5111  -16.9177   -6.2060 C   0  0  0  0  0  0  0  0  0  0  0  0
    5.1218  -15.8625   -5.5455 C   0  0  0  0  0  0  0  0  0  0  0  0
    6.1739  -16.0782   -4.7670 N   0  0  0  0  0  0  0  0  0  0  0  0
    4.6251  -14.5850   -5.7134 N   0  0  0  0  0  0  0  0  0  0  0  0
    3.5300  -14.3433   -6.5332 C   0  0  0  0  0  0  0  0  0  0  0  0
    2.9389  -15.4053   -7.1870 N   0  0  0  0  0  0  0  0  0  0  0  0
    3.4117  -16.6756   -7.0259 C   0  0  0  0  0  0  0  0  0  0  0  0
  2  3  1  6  0  0  0
  2  6  1  0  0  0  0
  2  1  1  0  0  0  0
  4  3  2  0  0  0  0
  5  3  1  0  0  0  0
  6  7  2  0  0  0  0
  8  7  1  1  0  0  0
  8  9  1  0  0  0  0
  8 10  1  0  0  0  0
 11 10  1  6  0  0  0
 11 13  1  0  0  0  0
 12 11  1  0  0  0  0
 12 17  1  0  0  0  0
 13 14  1  6  0  0  0
 13 15  1  0  0  0  0
 15 16  1  6  0  0  0
 17 18  1  1  0  0  0
 17 15  1  0  0  0  0
 18 19  1  0  0  0  0
 20 19  2  0  0  0  0
 21 27  2  0  0  0  0
 21 20  1  0  0  0  0
 22 21  1  0  0  0  0
 23 22  1  0  0  0  0
 24 22  2  0  0  0  0
 24 25  1  0  0  0  0
 25 26  2  0  0  0  0
 26 27  1  0  0  0  0
 27 18  1  0  0  0  0
M  END
>  <CHROM.1>
149.26134631,127.16949254,79.01045128,-79.31358035,57.38370581,-100.99536568
3.53911572,-16.91631462,-9.26846224,-1.69093453,-0.03489662,1.46132269

>  <Name>
lig.pdb

>  <RI>
0

>  <Rbt.Current_Directory>
/home/itssahil/PROJECTS/Mol_Feturizer/New_Systems/rnas/4b5r

>  <Rbt.Executable>
rbdock ($Id: //depot/dev/client3/rdock/2013.1/src/exe/rbdock.cxx#4 $)

>  <Rbt.Library>
libRbt.so (2013.1, Build901 2013/11/27)

>  <Rbt.Parameter_File>
/export/apps/rDock/src/rDock_2013.1_src/data/scripts/dock_solv.prm

>  <Rbt.Receptor>
prm/pocket_docking_7.prm

>  <SCORE>
-16.1568

>  <SCORE.INTER>
-14.9166

>  <SCORE.INTER.CONST>
1

>  <SCORE.INTER.POLAR>
0

>  <SCORE.INTER.ROT>
6

>  <SCORE.INTER.SOLV>
13.7145

>  <SCORE.INTER.VDW>
-22.1159

>  <SCORE.INTER.norm>
-0.552466

>  <SCORE.INTRA>
-1.24023

>  <SCORE.INTRA.DIHEDRAL>
-1.55775

>  <SCORE.INTRA.DIHEDRAL.0>
10.2917

>  <SCORE.INTRA.POLAR>
0

>  <SCORE.INTRA.POLAR.0>
0

>  <SCORE.INTRA.REPUL>
0

>  <SCORE.INTRA.REPUL.0>
0

>  <SCORE.INTRA.SOLV>
-2.49461

>  <SCORE.INTRA.SOLV.lig_0>
-39.6315

>  <SCORE.INTRA.VDW>
0.785949

>  <SCORE.INTRA.VDW.0>
-4.02152

>  <SCORE.INTRA.norm>
-0.0459345

>  <SCORE.RESTR>
0

>  <SCORE.RESTR.CAVITY>
0

>  <SCORE.RESTR.norm>
0

>  <SCORE.SYSTEM>
0

>  <SCORE.SYSTEM.CONST>
0

>  <SCORE.SYSTEM.DIHEDRAL>
0

>  <SCORE.SYSTEM.SOLV>
0

>  <SCORE.SYSTEM.norm>
0

>  <SCORE.heavy>
27

>  <SCORE.norm>
-0.598401

>  <RMSD>
5.413

$$$$
lig.pdb
 OpenBabel11021811493D
libRbt.so/2013.1/901 2013/11/27
 27 29  0  0  0  0  0  0  0  0999 V2000
    7.3662  -15.0877  -14.1378 N   0  0  0  0  0  0  0  0  0  0  0  0
    7.1534  -16.5363  -13.8374 C   0  0  2  0  0  0  0  0  0  0  0  0
    7.0311  -17.3058  -15.1493 C   0  0  0  0  0  0  0  0  0  0  0  0
    7.0426  -18.5311  -15.1348 O   0  0  0  0  0  0  0  0  0  0  0  0
    6.9242  -16.7455  -16.2477 O   0  0  0  0  0  0  0  0  0  0  0  0
    5.9566  -16.8058  -12.9030 C   0  0  0  0  0  0  0  0  0  0  0  0
    4.5480  -16.7976  -13.5528 C   0  0  0  0  0  0  0  0  0  0  0  0
    3.0721  -17.1066  -12.4899 S   0  0  2  0  0  0  0  0  0  0  0  0
    1.7801  -16.2460  -13.4116 C   0  0  0  0  0  0  0  0  0  0  0  0
    3.2880  -15.9523  -11.1178 C   0  0  0  0  0  0  0  0  0  0  0  0
    2.3894  -16.3601   -9.9577 C   0  0  1  0  0  0  0  0  0  0  0  0
    2.7603  -17.6081   -9.3918 O   0  0  0  0  0  0  0  0  0  0  0  0
    2.4523  -15.4047   -8.7964 C   0  0  1  0  0  0  0  0  0  0  0  0
    1.6747  -14.2728   -9.0610 O   0  0  0  0  0  0  0  0  0  0  0  0
    1.8850  -16.2700   -7.6929 C   0  0  1  0  0  0  0  0  0  0  0  0
    0.4727  -16.2569   -7.7410 O   0  0  0  0  0  0  0  0  0  0  0  0
    2.3788  -17.6727   -8.0291 C   0  0  2  0  0  0  0  0  0  0  0  0
    3.4870  -18.1740   -7.1707 N   0  0  0  0  0  0  0  0  0  0  0  0
    3.7426  -19.4939   -6.8960 C   0  0  0  0  0  0  0  0  0  0  0  0
    4.8220  -19.5777   -6.0865 N   0  0  0  0  0  0  0  0  0  0  0  0
    5.2731  -18.3367   -5.8409 C   0  0  0  0  0  0  0  0  0  0  0  0
    6.3410  -17.8659   -5.0923 C   0  0  0  0  0  0  0  0  0  0  0  0
    7.1381  -18.7135   -4.4553 N   0  0  0  0  0  0  0  0  0  0  0  0
    6.5675  -16.5055   -5.0236 N   0  0  0  0  0  0  0  0  0  0  0  0
    5.7467  -15.6070   -5.6934 C   0  0  0  0  0  0  0  0  0  0  0  0
    4.6922  -16.0945   -6.4383 N   0  0  0  0  0  0  0  0  0  0  0  0
    4.4487  -17.4357   -6.5104 C   0  0  0  0  0  0  0  0  0  0  0  0
  2  3  1  6  0  0  0
  2  6  1  0  0  0  0
  2  1  1  0  0  0  0
  4  3  2  0  0  0  0
  5  3  1  0  0  0  0
  6  7  2  0  0  0  0
  8  7  1  6  0  0  0
  8  9  1  0  0  0  0
  8 10  1  0  0  0  0
 11 10  1  6  0  0  0
 11 13  1  0  0  0  0
 12 11  1  0  0  0  0
 12 17  1  0  0  0  0
 13 14  1  6  0  0  0
 13 15  1  0  0  0  0
 15 16  1  6  0  0  0
 17 18  1  1  0  0  0
 17 15  1  0  0  0  0
 18 19  1  0  0  0  0
 20 19  2  0  0  0  0
 21 27  2  0  0  0  0
 21 20  1  0  0  0  0
 22 21  1  0  0  0  0
 23 22  1  0  0  0  0
 24 22  2  0  0  0  0
 24 25  1  0  0  0  0
 25 26  2  0  0  0  0
 26 27  1  0  0  0  0
 27 18  1  0  0  0  0
M  END
>  <CHROM.1>
169.67936307,80.08843062,153.89549771,-163.29484199,65.70651945,-87.93895351
4.35470546,-16.97647287,-9.77180439,-1.41884025,-0.26752025,1.68951525

>  <Name>
lig.pdb

>  <RI>
0

>  <Rbt.Current_Directory>
/home/itssahil/PROJECTS/Mol_Feturizer/New_Systems/rnas/4b5r

>  <Rbt.Executable>
rbdock ($Id: //depot/dev/client3/rdock/2013.1/src/exe/rbdock.cxx#4 $)

>  <Rbt.Library>
libRbt.so (2013.1, Build901 2013/11/27)

>  <Rbt.Parameter_File>
/export/apps/rDock/src/rDock_2013.1_src/data/scripts/dock_solv.prm

>  <Rbt.Receptor>
prm/pocket_docking_6.prm

>  <SCORE>
-12.9845

>  <SCORE.INTER>
-13.1283

>  <SCORE.INTER.CONST>
1

>  <SCORE.INTER.POLAR>
0

>  <SCORE.INTER.ROT>
6

>  <SCORE.INTER.SOLV>
12.1649

>  <SCORE.INTER.VDW>
-20.4072

>  <SCORE.INTER.norm>
-0.486232

>  <SCORE.INTRA>
0.143733

>  <SCORE.INTRA.DIHEDRAL>
0.245785

>  <SCORE.INTRA.DIHEDRAL.0>
10.2917

>  <SCORE.INTRA.POLAR>
0

>  <SCORE.INTRA.POLAR.0>
0

>  <SCORE.INTRA.REPUL>
0

>  <SCORE.INTRA.REPUL.0>
0

>  <SCORE.INTRA.SOLV>
-2.596

>  <SCORE.INTRA.SOLV.lig_0>
-39.6315

>  <SCORE.INTRA.VDW>
1.31884

>  <SCORE.INTRA.VDW.0>
-4.02152

>  <SCORE.INTRA.norm>
0.00532343

>  <SCORE.RESTR>
0

>  <SCORE.RESTR.CAVITY>
0

>  <SCORE.RESTR.norm>
0

>  <SCORE.SYSTEM>
0

>  <SCORE.SYSTEM.CONST>
0

>  <SCORE.SYSTEM.DIHEDRAL>
0

>  <SCORE.SYSTEM.SOLV>
0

>  <SCORE.SYSTEM.norm>
0

>  <SCORE.heavy>
27

>  <SCORE.norm>
-0.480909

>  <RMSD>
5.415

$$$$
lig.pdb
 OpenBabel11021811493D
libRbt.so/2013.1/901 2013/11/27
 27 29  0  0  0  0  0  0  0  0999 V2000
    6.2259  -12.7976  -12.4902 N   0  0  0  0  0  0  0  0  0  0  0  0
    6.2264  -14.2083  -11.9965 C   0  0  2  0  0  0  0  0  0  0  0  0
    7.6587  -14.7343  -11.9891 C   0  0  0  0  0  0  0  0  0  0  0  0
    8.5919  -13.9484  -12.1039 O   0  0  0  0  0  0  0  0  0  0  0  0
    7.9309  -15.9364  -11.8763 O   0  0  0  0  0  0  0  0  0  0  0  0
    5.2797  -15.1394  -12.7805 C   0  0  0  0  0  0  0  0  0  0  0  0
    4.4234  -16.1276  -11.9458 C   0  0  0  0  0  0  0  0  0  0  0  0
    3.2743  -17.2743  -12.8222 S   0  0  2  0  0  0  0  0  0  0  0  0
    1.8421  -16.2089  -13.0929 C   0  0  0  0  0  0  0  0  0  0  0  0
    2.6292  -18.3217  -11.4998 C   0  0  0  0  0  0  0  0  0  0  0  0
    3.7746  -19.0761  -10.8376 C   0  0  1  0  0  0  0  0  0  0  0  0
    4.7130  -18.2101  -10.2173 O   0  0  0  0  0  0  0  0  0  0  0  0
    3.3219  -19.9769   -9.7201 C   0  0  1  0  0  0  0  0  0  0  0  0
    2.7841  -21.1581  -10.2411 O   0  0  0  0  0  0  0  0  0  0  0  0
    4.6285  -20.1916   -8.9886 C   0  0  1  0  0  0  0  0  0  0  0  0
    5.3797  -21.2075   -9.6215 O   0  0  0  0  0  0  0  0  0  0  0  0
    5.3629  -18.8643   -9.1420 C   0  0  2  0  0  0  0  0  0  0  0  0
    5.3937  -18.0155   -7.9194 N   0  0  0  0  0  0  0  0  0  0  0  0
    6.2273  -18.2016   -6.8454 C   0  0  0  0  0  0  0  0  0  0  0  0
    5.9804  -17.2465   -5.9212 N   0  0  0  0  0  0  0  0  0  0  0  0
    5.0088  -16.4421   -6.3828 C   0  0  0  0  0  0  0  0  0  0  0  0
    4.3955  -15.3207   -5.8453 C   0  0  0  0  0  0  0  0  0  0  0  0
    4.7594  -14.8640   -4.6543 N   0  0  0  0  0  0  0  0  0  0  0  0
    3.4066  -14.6826   -6.5677 N   0  0  0  0  0  0  0  0  0  0  0  0
    3.0223  -15.1442   -7.8202 C   0  0  0  0  0  0  0  0  0  0  0  0
    3.6481  -16.2583   -8.3414 N   0  0  0  0  0  0  0  0  0  0  0  0
    4.6216  -16.9063   -7.6374 C   0  0  0  0  0  0  0  0  0  0  0  0
  2  3  1  6  0  0  0
  2  6  1  0  0  0  0
  2  1  1  0  0  0  0
  4  3  2  0  0  0  0
  5  3  1  0  0  0  0
  6  7  2  0  0  0  0
  8  7  1  1  0  0  0
  8  9  1  0  0  0  0
  8 10  1  0  0  0  0
 11 10  1  1  0  0  0
 11 13  1  0  0  0  0
 12 11  1  0  0  0  0
 12 17  1  0  0  0  0
 13 14  1  6  0  0  0
 13 15  1  0  0  0  0
 15 16  1  6  0  0  0
 17 18  1  1  0  0  0
 17 15  1  0  0  0  0
 18 19  1  0  0  0  0
 20 19  2  0  0  0  0
 21 27  2  0  0  0  0
 21 20  1  0  0  0  0
 22 21  1  0  0  0  0
 23 22  1  0  0  0  0
 24 22  2  0  0  0  0
 24 25  1  0  0  0  0
 25 26  2  0  0  0  0
 26 27  1  0  0  0  0
 27 18  1  0  0  0  0
M  END
>  <CHROM.1>
14.02079235,-136.99351315,-82.30318093,-60.81244360,62.62172623,-162.17201605
4.77144657,-16.96108692,-9.81700110,-1.17262403,1.11193859,1.60814543

>  <Name>
lig.pdb

>  <RI>
0

>  <Rbt.Current_Directory>
/home/itssahil/PROJECTS/Mol_Feturizer/New_Systems/rnas/4b5r

>  <Rbt.Executable>
rbdock ($Id: //depot/dev/client3/rdock/2013.1/src/exe/rbdock.cxx#4 $)

>  <Rbt.Library>
libRbt.so (2013.1, Build901 2013/11/27)

>  <Rbt.Parameter_File>
/export/apps/rDock/src/rDock_2013.1_src/data/scripts/dock_solv.prm

>  <Rbt.Receptor>
prm/pocket_docking_8.prm

>  <SCORE>
-9.09528

>  <SCORE.INTER>
-8.02715

>  <SCORE.INTER.CONST>
1

>  <SCORE.INTER.POLAR>
0

>  <SCORE.INTER.ROT>
6

>  <SCORE.INTER.SOLV>
11.4747

>  <SCORE.INTER.VDW>
-16.7763

>  <SCORE.INTER.norm>
-0.297302

>  <SCORE.INTRA>
-1.06813

>  <SCORE.INTRA.DIHEDRAL>
-2.03177

>  <SCORE.INTRA.DIHEDRAL.0>
10.2917

>  <SCORE.INTRA.POLAR>
0

>  <SCORE.INTRA.POLAR.0>
0

>  <SCORE.INTRA.REPUL>
0

>  <SCORE.INTRA.REPUL.0>
0

>  <SCORE.INTRA.SOLV>
-2.65893

>  <SCORE.INTRA.SOLV.lig_0>
-39.6315

>  <SCORE.INTRA.VDW>
1.27722

>  <SCORE.INTRA.VDW.0>
-4.02152

>  <SCORE.INTRA.norm>
-0.0395604

>  <SCORE.RESTR>
0

>  <SCORE.RESTR.CAVITY>
0

>  <SCORE.RESTR.norm>
0

>  <SCORE.SYSTEM>
0

>  <SCORE.SYSTEM.CONST>
0

>  <SCORE.SYSTEM.DIHEDRAL>
0

>  <SCORE.SYSTEM.SOLV>
0

>  <SCORE.SYSTEM.norm>
0

>  <SCORE.heavy>
27

>  <SCORE.norm>
-0.336862

>  <RMSD>
5.419

$$$$
lig.pdb
 OpenBabel11021811493D
libRbt.so/2013.1/901 2013/11/27
 27 29  0  0  0  0  0  0  0  0999 V2000
    4.9164  -14.0518  -16.7277 N   0  0  0  0  0  0  0  0  0  0  0  0
    5.5187  -15.0373  -15.7789 C   0  0  2  0  0  0  0  0  0  0  0  0
    6.2613  -16.1068  -16.5744 C   0  0  0  0  0  0  0  0  0  0  0  0
    6.0780  -16.1978  -17.7826 O   0  0  0  0  0  0  0  0  0  0  0  0
    7.0496  -16.9048  -16.0515 O   0  0  0  0  0  0  0  0  0  0  0  0
    4.5006  -15.6567  -14.8003 C   0  0  0  0  0  0  0  0  0  0  0  0
    4.7869  -15.4735  -13.2866 C   0  0  0  0  0  0  0  0  0  0  0  0
    3.6118  -16.1958  -12.0615 S   0  0  2  0  0  0  0  0  0  0  0  0
    2.3543  -14.9038  -11.9663 C   0  0  0  0  0  0  0  0  0  0  0  0
    4.4373  -15.9348  -10.4765 C   0  0  0  0  0  0  0  0  0  0  0  0
    4.4296  -17.2294   -9.6744 C   0  0  1  0  0  0  0  0  0  0  0  0
    5.5199  -17.3183   -8.7697 O   0  0  0  0  0  0  0  0  0  0  0  0
    3.2176  -17.3723   -8.7934 C   0  0  1  0  0  0  0  0  0  0  0  0
    2.1162  -17.7817   -9.5518 O   0  0  0  0  0  0  0  0  0  0  0  0
    3.6994  -18.4314   -7.8267 C   0  0  1  0  0  0  0  0  0  0  0  0
    3.5464  -19.7159   -8.3956 O   0  0  0  0  0  0  0  0  0  0  0  0
    5.1861  -18.1365   -7.6626 C   0  0  2  0  0  0  0  0  0  0  0  0
    5.5639  -17.4973   -6.3723 N   0  0  0  0  0  0  0  0  0  0  0  0
    6.3967  -18.0454   -5.4295 C   0  0  0  0  0  0  0  0  0  0  0  0
    6.5147  -17.1892   -4.3900 N   0  0  0  0  0  0  0  0  0  0  0  0
    5.7803  -16.0948   -4.6487 C   0  0  0  0  0  0  0  0  0  0  0  0
    5.5638  -14.9284   -3.9308 C   0  0  0  0  0  0  0  0  0  0  0  0
    6.1437  -14.7503   -2.7511 N   0  0  0  0  0  0  0  0  0  0  0  0
    4.7429  -13.9533   -4.4619 N   0  0  0  0  0  0  0  0  0  0  0  0
    4.1369  -14.1223   -5.7004 C   0  0  0  0  0  0  0  0  0  0  0  0
    4.3688  -15.2874   -6.4029 N   0  0  0  0  0  0  0  0  0  0  0  0
    5.1707  -16.2652   -5.8892 C   0  0  0  0  0  0  0  0  0  0  0  0
  2  3  1  6  0  0  0
  2  6  1  0  0  0  0
  2  1  1  0  0  0  0
  4  3  2  0  0  0  0
  5  3  1  0  0  0  0
  6  7  2  0  0  0  0
  8  7  1  6  0  0  0
  8  9  1  0  0  0  0
  8 10  1  0  0  0  0
 11 10  1  1  0  0  0
 11 13  1  0  0  0  0
 12 11  1  0  0  0  0
 12 17  1  0  0  0  0
 13 14  1  6  0  0  0
 13 15  1  0  0  0  0
 15 16  1  6  0  0  0
 17 18  1  1  0  0  0
 17 15  1  0  0  0  0
 18 19  1  0  0  0  0
 20 19  2  0  0  0  0
 21 27  2  0  0  0  0
 21 20  1  0  0  0  0
 22 21  1  0  0  0  0
 23 22  1  0  0  0  0
 24 22  2  0  0  0  0
 24 25  1  0  0  0  0
 25 26  2  0  0  0  0
 26 27  1  0  0  0  0
 27 18  1  0  0  0  0
M  END
>  <CHROM.1>
-13.68642096,-122.14396035,-84.05994605,-131.51480714,152.61956771,-122.83078050
4.79746015,-16.34368765,-9.70617276,-1.57532011,1.27829340,1.61414952

>  <Name>
lig.pdb

>  <RI>
0

>  <Rbt.Current_Directory>
/home/itssahil/PROJECTS/Mol_Feturizer/New_Systems/rnas/4b5r

>  <Rbt.Executable>
rbdock ($Id: //depot/dev/client3/rdock/2013.1/src/exe/rbdock.cxx#4 $)

>  <Rbt.Library>
libRbt.so (2013.1, Build901 2013/11/27)

>  <Rbt.Parameter_File>
/export/apps/rDock/src/rDock_2013.1_src/data/scripts/dock_solv.prm

>  <Rbt.Receptor>
prm/pocket_docking_8.prm

>  <SCORE>
-9.22311

>  <SCORE.INTER>
-10.7535

>  <SCORE.INTER.CONST>
1

>  <SCORE.INTER.POLAR>
0

>  <SCORE.INTER.ROT>
6

>  <SCORE.INTER.SOLV>
13.5329

>  <SCORE.INTER.VDW>
-19.28

>  <SCORE.INTER.norm>
-0.398279

>  <SCORE.INTRA>
1.53043

>  <SCORE.INTRA.DIHEDRAL>
4.01211

>  <SCORE.INTRA.DIHEDRAL.0>
10.2917

>  <SCORE.INTRA.POLAR>
0

>  <SCORE.INTRA.POLAR.0>
0

>  <SCORE.INTRA.REPUL>
0

>  <SCORE.INTRA.REPUL.0>
0

>  <SCORE.INTRA.SOLV>
-2.54896

>  <SCORE.INTRA.SOLV.lig_0>
-39.6315

>  <SCORE.INTRA.VDW>
0.798853

>  <SCORE.INTRA.VDW.0>
-4.02152

>  <SCORE.INTRA.norm>
0.0566825

>  <SCORE.RESTR>
0

>  <SCORE.RESTR.CAVITY>
0

>  <SCORE.RESTR.norm>
0

>  <SCORE.SYSTEM>
0

>  <SCORE.SYSTEM.CONST>
0

>  <SCORE.SYSTEM.DIHEDRAL>
0

>  <SCORE.SYSTEM.SOLV>
0

>  <SCORE.SYSTEM.norm>
0

>  <SCORE.heavy>
27

>  <SCORE.norm>
-0.341597

>  <RMSD>
5.425

$$$$
lig.pdb
 OpenBabel11021811493D
libRbt.so/2013.1/901 2013/11/27
 27 29  0  0  0  0  0  0  0  0999 V2000
    6.7099  -18.6423  -11.4917 N   0  0  0  0  0  0  0  0  0  0  0  0
    6.7734  -17.2179  -11.9402 C   0  0  2  0  0  0  0  0  0  0  0  0
    7.4722  -16.3874  -10.8678 C   0  0  0  0  0  0  0  0  0  0  0  0
    8.2893  -15.5364  -11.1993 O   0  0  0  0  0  0  0  0  0  0  0  0
    7.2559  -16.5355   -9.6582 O   0  0  0  0  0  0  0  0  0  0  0  0
    5.4007  -16.6255  -12.3177 C   0  0  0  0  0  0  0  0  0  0  0  0
    4.1823  -17.5827  -12.2408 C   0  0  0  0  0  0  0  0  0  0  0  0
    2.5115  -16.9394  -12.6856 S   0  0  2  0  0  0  0  0  0  0  0  0
    2.8998  -15.8750  -14.0913 C   0  0  0  0  0  0  0  0  0  0  0  0
    2.1927  -15.6813  -11.4297 C   0  0  0  0  0  0  0  0  0  0  0  0
    1.4067  -16.2935  -10.2779 C   0  0  1  0  0  0  0  0  0  0  0  0
    2.0735  -17.3992   -9.6880 O   0  0  0  0  0  0  0  0  0  0  0  0
    1.2016  -15.3420   -9.1298 C   0  0  1  0  0  0  0  0  0  0  0  0
    0.1656  -14.4493   -9.4230 O   0  0  0  0  0  0  0  0  0  0  0  0
    0.8536  -16.3123   -8.0227 C   0  0  1  0  0  0  0  0  0  0  0  0
   -0.5139  -16.6613   -8.0928 O   0  0  0  0  0  0  0  0  0  0  0  0
    1.6957  -17.5453   -8.3306 C   0  0  2  0  0  0  0  0  0  0  0  0
    2.8790  -17.7378   -7.4479 N   0  0  0  0  0  0  0  0  0  0  0  0
    3.4098  -18.9503   -7.0861 C   0  0  0  0  0  0  0  0  0  0  0  0
    4.4757  -18.7455   -6.2803 N   0  0  0  0  0  0  0  0  0  0  0  0
    4.6479  -17.4228   -6.1225 C   0  0  0  0  0  0  0  0  0  0  0  0
    5.5839  -16.6842   -5.4148 C   0  0  0  0  0  0  0  0  0  0  0  0
    6.5394  -17.2958   -4.7274 N   0  0  0  0  0  0  0  0  0  0  0  0
    5.5125  -15.3054   -5.4400 N   0  0  0  0  0  0  0  0  0  0  0  0
    4.5232  -14.6516   -6.1635 C   0  0  0  0  0  0  0  0  0  0  0  0
    3.6038  -15.4034   -6.8663 N   0  0  0  0  0  0  0  0  0  0  0  0
    3.6545  -16.7673   -6.8457 C   0  0  0  0  0  0  0  0  0  0  0  0
  2  3  1  1  0  0  0
  2  6  1  0  0  0  0
  2  1  1  0  0  0  0
  4  3  2  0  0  0  0
  5  3  1  0  0  0  0
  6  7  2  0  0  0  0
  8  7  1  1  0  0  0
  8  9  1  0  0  0  0
  8 10  1  0  0  0  0
 11 10  1  6  0  0  0
 11 13  1  0  0  0  0
 12 11  1  0  0  0  0
 12 17  1  0  0  0  0
 13 14  1  6  0  0  0
 13 15  1  0  0  0  0
 15 16  1  6  0  0  0
 17 18  1  1  0  0  0
 17 15  1  0  0  0  0
 18 19  1  0  0  0  0
 20 19  2  0  0  0  0
 21 27  2  0  0  0  0
 21 20  1  0  0  0  0
 22 21  1  0  0  0  0
 23 22  1  0  0  0  0
 24 22  2  0  0  0  0
 24 25  1  0  0  0  0
 25 26  2  0  0  0  0
 26 27  1  0  0  0  0
 27 18  1  0  0  0  0
M  END
>  <CHROM.1>
137.89686425,-2.50142784,38.89993936,-94.11753856,57.54938909,-92.04060652
3.81014589,-16.65838747,-9.23280168,-1.65459295,-0.09460874,1.59065447

>  <Name>
lig.pdb

>  <RI>
0

>  <Rbt.Current_Directory>
/home/itssahil/PROJECTS/Mol_Feturizer/New_Systems/rnas/4b5r

>  <Rbt.Executable>
rbdock ($Id: //depot/dev/client3/rdock/2013.1/src/exe/rbdock.cxx#4 $)

>  <Rbt.Library>
libRbt.so (2013.1, Build901 2013/11/27)

>  <Rbt.Parameter_File>
/export/apps/rDock/src/rDock_2013.1_src/data/scripts/dock_solv.prm

>  <Rbt.Receptor>
prm/pocket_docking_5.prm

>  <SCORE>
-14.7737

>  <SCORE.INTER>
-15.0893

>  <SCORE.INTER.CONST>
1

>  <SCORE.INTER.POLAR>
0

>  <SCORE.INTER.ROT>
6

>  <SCORE.INTER.SOLV>
14.6961

>  <SCORE.INTER.VDW>
-22.5583

>  <SCORE.INTER.norm>
-0.558864

>  <SCORE.INTRA>
0.315635

>  <SCORE.INTRA.DIHEDRAL>
0.0365356

>  <SCORE.INTRA.DIHEDRAL.0>
10.2917

>  <SCORE.INTRA.POLAR>
0

>  <SCORE.INTRA.POLAR.0>
0

>  <SCORE.INTRA.REPUL>
0

>  <SCORE.INTRA.REPUL.0>
0

>  <SCORE.INTRA.SOLV>
-2.34622

>  <SCORE.INTRA.SOLV.lig_0>
-39.6315

>  <SCORE.INTRA.VDW>
1.47048

>  <SCORE.INTRA.VDW.0>
-4.02152

>  <SCORE.INTRA.norm>
0.0116902

>  <SCORE.RESTR>
0

>  <SCORE.RESTR.CAVITY>
0

>  <SCORE.RESTR.norm>
0

>  <SCORE.SYSTEM>
0

>  <SCORE.SYSTEM.CONST>
0

>  <SCORE.SYSTEM.DIHEDRAL>
0

>  <SCORE.SYSTEM.SOLV>
0

>  <SCORE.SYSTEM.norm>
0

>  <SCORE.heavy>
27

>  <SCORE.norm>
-0.547174

>  <RMSD>
5.426

$$$$
lig.pdb
 OpenBabel11021811493D
libRbt.so/2013.1/901 2013/11/27
 27 29  0  0  0  0  0  0  0  0999 V2000
    3.2158  -18.0858  -12.1129 N   0  0  0  0  0  0  0  0  0  0  0  0
    2.4904  -16.7886  -12.2708 C   0  0  2  0  0  0  0  0  0  0  0  0
    3.4709  -15.7234  -12.7526 C   0  0  0  0  0  0  0  0  0  0  0  0
    3.2574  -15.1385  -13.8081 O   0  0  0  0  0  0  0  0  0  0  0  0
    4.4919  -15.4182  -12.1233 O   0  0  0  0  0  0  0  0  0  0  0  0
    1.7385  -16.3408  -11.0011 C   0  0  0  0  0  0  0  0  0  0  0  0
    1.6681  -17.3615   -9.8350 C   0  0  0  0  0  0  0  0  0  0  0  0
    0.7776  -16.8916   -8.2892 S   0  0  2  0  0  0  0  0  0  0  0  0
   -0.8017  -16.3147   -8.9467 C   0  0  0  0  0  0  0  0  0  0  0  0
    1.5171  -15.3069   -7.8381 C   0  0  0  0  0  0  0  0  0  0  0  0
    2.8319  -15.5436   -7.1070 C   0  0  1  0  0  0  0  0  0  0  0  0
    3.6242  -16.5499   -7.7193 O   0  0  0  0  0  0  0  0  0  0  0  0
    3.7290  -14.3351   -7.0966 C   0  0  1  0  0  0  0  0  0  0  0  0
    3.2998  -13.4247   -6.1256 O   0  0  0  0  0  0  0  0  0  0  0  0
    5.0573  -14.9771   -6.7626 C   0  0  1  0  0  0  0  0  0  0  0  0
    5.1643  -15.1778   -5.3679 O   0  0  0  0  0  0  0  0  0  0  0  0
    4.9991  -16.3341   -7.4550 C   0  0  2  0  0  0  0  0  0  0  0  0
    5.8213  -16.4476   -8.6909 N   0  0  0  0  0  0  0  0  0  0  0  0
    6.1572  -17.6227   -9.3149 C   0  0  0  0  0  0  0  0  0  0  0  0
    6.9081  -17.3475  -10.4047 N   0  0  0  0  0  0  0  0  0  0  0  0
    7.0556  -16.0160  -10.5005 C   0  0  0  0  0  0  0  0  0  0  0  0
    7.7145  -15.2166  -11.4222 C   0  0  0  0  0  0  0  0  0  0  0  0
    8.3536  -15.7637  -12.4478 N   0  0  0  0  0  0  0  0  0  0  0  0
    7.6915  -13.8452  -11.2625 N   0  0  0  0  0  0  0  0  0  0  0  0
    7.0180  -13.2583  -10.1988 C   0  0  0  0  0  0  0  0  0  0  0  0
    6.3631  -14.0697   -9.2947 N   0  0  0  0  0  0  0  0  0  0  0  0
    6.3826  -15.4275   -9.4326 C   0  0  0  0  0  0  0  0  0  0  0  0
  2  3  1  1  0  0  0
  2  6  1  0  0  0  0
  2  1  1  0  0  0  0
  4  3  2  0  0  0  0
  5  3  1  0  0  0  0
  6  7  2  0  0  0  0
  8  7  1  6  0  0  0
  8  9  1  0  0  0  0
  8 10  1  0  0  0  0
 11 10  1  6  0  0  0
 11 13  1  0  0  0  0
 12 11  1  0  0  0  0
 12 17  1  0  0  0  0
 13 14  1  1  0  0  0
 13 15  1  0  0  0  0
 15 16  1  1  0  0  0
 17 18  1  6  0  0  0
 17 15  1  0  0  0  0
 18 19  1  0  0  0  0
 20 19  2  0  0  0  0
 21 27  2  0  0  0  0
 21 20  1  0  0  0  0
 22 21  1  0  0  0  0
 23 22  1  0  0  0  0
 24 22  2  0  0  0  0
 24 25  1  0  0  0  0
 25 26  2  0  0  0  0
 26 27  1  0  0  0  0
 27 18  1  0  0  0  0
M  END
>  <CHROM.1>
121.41041658,-8.32756919,50.92908623,-81.62457010,43.44266054,-75.38880693
4.22453207,-15.77107334,-9.52105246,0.50378026,-0.24637552,-1.76692684

>  <Name>
lig.pdb

>  <RI>
0

>  <Rbt.Current_Directory>
/home/itssahil/PROJECTS/Mol_Feturizer/New_Systems/rnas/4b5r

>  <Rbt.Executable>
rbdock ($Id: //depot/dev/client3/rdock/2013.1/src/exe/rbdock.cxx#4 $)

>  <Rbt.Library>
libRbt.so (2013.1, Build901 2013/11/27)

>  <Rbt.Parameter_File>
/export/apps/rDock/src/rDock_2013.1_src/data/scripts/dock_solv.prm

>  <Rbt.Receptor>
prm/pocket_docking_4.prm

>  <SCORE>
-13.9573

>  <SCORE.INTER>
-13.0212

>  <SCORE.INTER.CONST>
1

>  <SCORE.INTER.POLAR>
0

>  <SCORE.INTER.ROT>
6

>  <SCORE.INTER.SOLV>
14.1997

>  <SCORE.INTER.VDW>
-21.0141

>  <SCORE.INTER.norm>
-0.482268

>  <SCORE.INTRA>
-0.936036

>  <SCORE.INTRA.DIHEDRAL>
-0.117736

>  <SCORE.INTRA.DIHEDRAL.0>
10.2917

>  <SCORE.INTRA.POLAR>
0

>  <SCORE.INTRA.POLAR.0>
0

>  <SCORE.INTRA.REPUL>
0

>  <SCORE.INTRA.REPUL.0>
0

>  <SCORE.INTRA.SOLV>
-2.10211

>  <SCORE.INTRA.SOLV.lig_0>
-39.6315

>  <SCORE.INTRA.VDW>
0.173885

>  <SCORE.INTRA.VDW.0>
-4.02152

>  <SCORE.INTRA.norm>
-0.034668

>  <SCORE.RESTR>
0

>  <SCORE.RESTR.CAVITY>
0

>  <SCORE.RESTR.norm>
0

>  <SCORE.SYSTEM>
0

>  <SCORE.SYSTEM.CONST>
0

>  <SCORE.SYSTEM.DIHEDRAL>
0

>  <SCORE.SYSTEM.SOLV>
0

>  <SCORE.SYSTEM.norm>
0

>  <SCORE.heavy>
27

>  <SCORE.norm>
-0.516936

>  <RMSD>
5.434

$$$$
lig.pdb
 OpenBabel11021811493D
libRbt.so/2013.1/901 2013/11/27
 27 29  0  0  0  0  0  0  0  0999 V2000
    6.6821  -16.2760   -9.5639 N   0  0  0  0  0  0  0  0  0  0  0  0
    6.4406  -16.9170  -10.8923 C   0  0  2  0  0  0  0  0  0  0  0  0
    7.6645  -16.7059  -11.7787 C   0  0  0  0  0  0  0  0  0  0  0  0
    8.3227  -15.6784  -11.6656 O   0  0  0  0  0  0  0  0  0  0  0  0
    8.0300  -17.5319  -12.6249 O   0  0  0  0  0  0  0  0  0  0  0  0
    5.1461  -16.4424  -11.5829 C   0  0  0  0  0  0  0  0  0  0  0  0
    4.0985  -17.5334  -11.9277 C   0  0  0  0  0  0  0  0  0  0  0  0
    2.5300  -17.0342  -12.7608 S   0  0  2  0  0  0  0  0  0  0  0  0
    3.0997  -15.6878  -13.8201 C   0  0  0  0  0  0  0  0  0  0  0  0
    1.6624  -16.0806  -11.4960 C   0  0  0  0  0  0  0  0  0  0  0  0
    1.1424  -17.0172  -10.4135 C   0  0  1  0  0  0  0  0  0  0  0  0
    2.1736  -17.7905   -9.8185 O   0  0  0  0  0  0  0  0  0  0  0  0
    0.5204  -16.2908   -9.2513 C   0  0  1  0  0  0  0  0  0  0  0  0
   -0.7745  -15.8765   -9.5794 O   0  0  0  0  0  0  0  0  0  0  0  0
    0.5475  -17.3759   -8.1978 C   0  0  1  0  0  0  0  0  0  0  0  0
   -0.5573  -18.2417   -8.3617 O   0  0  0  0  0  0  0  0  0  0  0  0
    1.8291  -18.1476   -8.4917 C   0  0  2  0  0  0  0  0  0  0  0  0
    2.9496  -17.8937   -7.5450 N   0  0  0  0  0  0  0  0  0  0  0  0
    3.7521  -18.8580   -6.9890 C   0  0  0  0  0  0  0  0  0  0  0  0
    4.6609  -18.2674   -6.1811 N   0  0  0  0  0  0  0  0  0  0  0  0
    4.4652  -16.9389   -6.2123 C   0  0  0  0  0  0  0  0  0  0  0  0
    5.1159  -15.8876   -5.5847 C   0  0  0  0  0  0  0  0  0  0  0  0
    6.1430  -16.1208   -4.7784 N   0  0  0  0  0  0  0  0  0  0  0  0
    4.6853  -14.5958   -5.8145 N   0  0  0  0  0  0  0  0  0  0  0  0
    3.6173  -14.3362   -6.6639 C   0  0  0  0  0  0  0  0  0  0  0  0
    2.9858  -15.3950   -7.2842 N   0  0  0  0  0  0  0  0  0  0  0  0
    3.3928  -16.6788   -7.0619 C   0  0  0  0  0  0  0  0  0  0  0  0
  2  3  1  6  0  0  0
  2  6  1  0  0  0  0
  2  1  1  0  0  0  0
  4  3  2  0  0  0  0
  5  3  1  0  0  0  0
  6  7  2  0  0  0  0
  8  7  1  1  0  0  0
  8  9  1  0  0  0  0
  8 10  1  0  0  0  0
 11 10  1  6  0  0  0
 11 13  1  0  0  0  0
 12 11  1  0  0  0  0
 12 17  1  0  0  0  0
 13 14  1  6  0  0  0
 13 15  1  0  0  0  0
 15 16  1  6  0  0  0
 17 18  1  1  0  0  0
 17 15  1  0  0  0  0
 18 19  1  0  0  0  0
 20 19  2  0  0  0  0
 21 27  2  0  0  0  0
 21 20  1  0  0  0  0
 22 21  1  0  0  0  0
 23 22  1  0  0  0  0
 24 22  2  0  0  0  0
 24 25  1  0  0  0  0
 25 26  2  0  0  0  0
 26 27  1  0  0  0  0
 27 18  1  0  0  0  0
M  END
>  <CHROM.1>
-32.93755025,-121.51967250,34.90891086,-72.42257672,57.04110437,-105.35822130
3.63866715,-16.74252703,-9.36141686,-0.97047896,0.09415293,1.53267146

>  <Name>
lig.pdb

>  <RI>
0

>  <Rbt.Current_Directory>
/home/itssahil/PROJECTS/Mol_Feturizer/New_Systems/rnas/4b5r

>  <Rbt.Executable>
rbdock ($Id: //depot/dev/client3/rdock/2013.1/src/exe/rbdock.cxx#4 $)

>  <Rbt.Library>
libRbt.so (2013.1, Build901 2013/11/27)

>  <Rbt.Parameter_File>
/export/apps/rDock/src/rDock_2013.1_src/data/scripts/dock_solv.prm

>  <Rbt.Receptor>
prm/pocket_docking_4.prm

>  <SCORE>
-16.6658

>  <SCORE.INTER>
-15.5942

>  <SCORE.INTER.CONST>
1

>  <SCORE.INTER.POLAR>
0

>  <SCORE.INTER.ROT>
6

>  <SCORE.INTER.SOLV>
14.8625

>  <SCORE.INTER.VDW>
-22.9503

>  <SCORE.INTER.norm>
-0.577562

>  <SCORE.INTRA>
-1.07163

>  <SCORE.INTRA.DIHEDRAL>
-1.75163

>  <SCORE.INTRA.DIHEDRAL.0>
10.2917

>  <SCORE.INTRA.POLAR>
0

>  <SCORE.INTRA.POLAR.0>
0

>  <SCORE.INTRA.REPUL>
0

>  <SCORE.INTRA.REPUL.0>
0

>  <SCORE.INTRA.SOLV>
-2.00359

>  <SCORE.INTRA.SOLV.lig_0>
-39.6315

>  <SCORE.INTRA.VDW>
0.805979

>  <SCORE.INTRA.VDW.0>
-4.02152

>  <SCORE.INTRA.norm>
-0.03969

>  <SCORE.RESTR>
0

>  <SCORE.RESTR.CAVITY>
0

>  <SCORE.RESTR.norm>
0

>  <SCORE.SYSTEM>
0

>  <SCORE.SYSTEM.CONST>
0

>  <SCORE.SYSTEM.DIHEDRAL>
0

>  <SCORE.SYSTEM.SOLV>
0

>  <SCORE.SYSTEM.norm>
0

>  <SCORE.heavy>
27

>  <SCORE.norm>
-0.617252

>  <RMSD>
5.442

$$$$
lig.pdb
 OpenBabel11021811493D
libRbt.so/2013.1/901 2013/11/27
 27 29  0  0  0  0  0  0  0  0999 V2000
    7.4305  -13.2605  -14.3093 N   0  0  0  0  0  0  0  0  0  0  0  0
    6.0882  -12.9477  -13.7310 C   0  0  2  0  0  0  0  0  0  0  0  0
    6.1980  -11.6989  -12.8611 C   0  0  0  0  0  0  0  0  0  0  0  0
    5.3737  -10.8008  -12.9862 O   0  0  0  0  0  0  0  0  0  0  0  0
    7.0961  -11.5416  -12.0242 O   0  0  0  0  0  0  0  0  0  0  0  0
    5.4549  -14.1254  -12.9630 C   0  0  0  0  0  0  0  0  0  0  0  0
    3.9841  -14.4752  -13.3107 C   0  0  0  0  0  0  0  0  0  0  0  0
    3.1639  -15.8695  -12.4238 S   0  0  2  0  0  0  0  0  0  0  0  0
    1.7544  -16.2007  -13.5024 C   0  0  0  0  0  0  0  0  0  0  0  0
    2.3139  -15.0586  -11.0520 C   0  0  0  0  0  0  0  0  0  0  0  0
    1.6306  -16.1048  -10.1813 C   0  0  1  0  0  0  0  0  0  0  0  0
    2.5306  -17.0970   -9.7114 O   0  0  0  0  0  0  0  0  0  0  0  0
    1.0375  -15.5310   -8.9226 C   0  0  1  0  0  0  0  0  0  0  0  0
   -0.1804  -14.9046   -9.2058 O   0  0  0  0  0  0  0  0  0  0  0  0
    0.8807  -16.7853   -8.0916 C   0  0  1  0  0  0  0  0  0  0  0  0
   -0.3080  -17.4608   -8.4489 O   0  0  0  0  0  0  0  0  0  0  0  0
    2.0764  -17.6448   -8.4866 C   0  0  2  0  0  0  0  0  0  0  0  0
    3.1671  -17.7111   -7.4755 N   0  0  0  0  0  0  0  0  0  0  0  0
    3.7424  -18.8642   -7.0039 C   0  0  0  0  0  0  0  0  0  0  0  0
    4.6962  -18.5468   -6.1000 N   0  0  0  0  0  0  0  0  0  0  0  0
    4.7531  -17.2097   -5.9862 C   0  0  0  0  0  0  0  0  0  0  0  0
    5.5499  -16.3743   -5.2183 C   0  0  0  0  0  0  0  0  0  0  0  0
    6.4668  -16.8833   -4.4060 N   0  0  0  0  0  0  0  0  0  0  0  0
    5.3813  -15.0072   -5.3147 N   0  0  0  0  0  0  0  0  0  0  0  0
    4.4318  -14.4600   -6.1683 C   0  0  0  0  0  0  0  0  0  0  0  0
    3.6519  -15.3071   -6.9291 N   0  0  0  0  0  0  0  0  0  0  0  0
    3.7995  -16.6612   -6.8402 C   0  0  0  0  0  0  0  0  0  0  0  0
  2  3  1  1  0  0  0
  2  6  1  0  0  0  0
  2  1  1  0  0  0  0
  4  3  2  0  0  0  0
  5  3  1  0  0  0  0
  6  7  2  0  0  0  0
  8  7  1  6  0  0  0
  8  9  1  0  0  0  0
  8 10  1  0  0  0  0
 11 10  1  1  0  0  0
 11 13  1  0  0  0  0
 12 11  1  0  0  0  0
 12 17  1  0  0  0  0
 13 14  1  6  0  0  0
 13 15  1  0  0  0  0
 15 16  1  6  0  0  0
 17 18  1  1  0  0  0
 17 15  1  0  0  0  0
 18 19  1  0  0  0  0
 20 19  2  0  0  0  0
 21 27  2  0  0  0  0
 21 20  1  0  0  0  0
 22 21  1  0  0  0  0
 23 22  1  0  0  0  0
 24 22  2  0  0  0  0
 24 25  1  0  0  0  0
 25 26  2  0  0  0  0
 26 27  1  0  0  0  0
 27 18  1  0  0  0  0
M  END
>  <CHROM.1>
132.60915274,-131.01772021,-162.82861069,-177.51863056,55.63452276,-111.19722584
3.71285967,-15.48763796,-9.59637976,-1.30727510,0.49026913,1.98022479

>  <Name>
lig.pdb

>  <RI>
0

>  <Rbt.Current_Directory>
/home/itssahil/PROJECTS/Mol_Feturizer/New_Systems/rnas/4b5r

>  <Rbt.Executable>
rbdock ($Id: //depot/dev/client3/rdock/2013.1/src/exe/rbdock.cxx#4 $)

>  <Rbt.Library>
libRbt.so (2013.1, Build901 2013/11/27)

>  <Rbt.Parameter_File>
/export/apps/rDock/src/rDock_2013.1_src/data/scripts/dock_solv.prm

>  <Rbt.Receptor>
prm/pocket_docking_6.prm

>  <SCORE>
-18.0962

>  <SCORE.INTER>
-16.7715

>  <SCORE.INTER.CONST>
1

>  <SCORE.INTER.POLAR>
0

>  <SCORE.INTER.ROT>
6

>  <SCORE.INTER.SOLV>
11.2704

>  <SCORE.INTER.VDW>
-22.5378

>  <SCORE.INTER.norm>
-0.621165

>  <SCORE.INTRA>
-1.32479

>  <SCORE.INTRA.DIHEDRAL>
-1.70135

>  <SCORE.INTRA.DIHEDRAL.0>
10.2917

>  <SCORE.INTRA.POLAR>
0

>  <SCORE.INTRA.POLAR.0>
0

>  <SCORE.INTRA.REPUL>
0

>  <SCORE.INTRA.REPUL.0>
0

>  <SCORE.INTRA.SOLV>
-2.89133

>  <SCORE.INTRA.SOLV.lig_0>
-39.6315

>  <SCORE.INTRA.VDW>
0.971553

>  <SCORE.INTRA.VDW.0>
-4.02152

>  <SCORE.INTRA.norm>
-0.0490662

>  <SCORE.RESTR>
0

>  <SCORE.RESTR.CAVITY>
0

>  <SCORE.RESTR.norm>
0

>  <SCORE.SYSTEM>
0

>  <SCORE.SYSTEM.CONST>
0

>  <SCORE.SYSTEM.DIHEDRAL>
0

>  <SCORE.SYSTEM.SOLV>
0

>  <SCORE.SYSTEM.norm>
0

>  <SCORE.heavy>
27

>  <SCORE.norm>
-0.670231

>  <RMSD>
5.447

$$$$
lig.pdb
 OpenBabel11021811493D
libRbt.so/2013.1/901 2013/11/27
 27 29  0  0  0  0  0  0  0  0999 V2000
    1.8932  -16.4419  -13.2477 N   0  0  0  0  0  0  0  0  0  0  0  0
    1.9514  -15.2145  -12.3966 C   0  0  2  0  0  0  0  0  0  0  0  0
    3.3606  -14.6323  -12.4555 C   0  0  0  0  0  0  0  0  0  0  0  0
    4.3276  -15.3800  -12.3697 O   0  0  0  0  0  0  0  0  0  0  0  0
    3.5807  -13.4210  -12.5826 O   0  0  0  0  0  0  0  0  0  0  0  0
    1.4888  -15.4456  -10.9439 C   0  0  0  0  0  0  0  0  0  0  0  0
    1.4534  -16.9151  -10.4479 C   0  0  0  0  0  0  0  0  0  0  0  0
    0.9031  -17.2621   -8.7216 S   0  0  2  0  0  0  0  0  0  0  0  0
   -0.8297  -16.7598   -8.7900 C   0  0  0  0  0  0  0  0  0  0  0  0
    1.5829  -15.8832   -7.7739 C   0  0  0  0  0  0  0  0  0  0  0  0
    3.0923  -16.0418   -7.6476 C   0  0  1  0  0  0  0  0  0  0  0  0
    3.4787  -17.3756   -7.3524 O   0  0  0  0  0  0  0  0  0  0  0  0
    3.8289  -15.7267   -8.9218 C   0  0  1  0  0  0  0  0  0  0  0  0
    3.9418  -14.3421   -9.0833 O   0  0  0  0  0  0  0  0  0  0  0  0
    5.1549  -16.4028   -8.6514 C   0  0  1  0  0  0  0  0  0  0  0  0
    5.9774  -15.5651   -7.8649 O   0  0  0  0  0  0  0  0  0  0  0  0
    4.7836  -17.6375   -7.8375 C   0  0  2  0  0  0  0  0  0  0  0  0
    4.8459  -18.9255   -8.5813 N   0  0  0  0  0  0  0  0  0  0  0  0
    4.0834  -20.0343   -8.3124 C   0  0  0  0  0  0  0  0  0  0  0  0
    4.4043  -21.0158   -9.1849 N   0  0  0  0  0  0  0  0  0  0  0  0
    5.3535  -20.5578  -10.0175 C   0  0  0  0  0  0  0  0  0  0  0  0
    6.0163  -21.1437  -11.0852 C   0  0  0  0  0  0  0  0  0  0  0  0
    5.7389  -22.3904  -11.4434 N   0  0  0  0  0  0  0  0  0  0  0  0
    6.9631  -20.4116  -11.7738 N   0  0  0  0  0  0  0  0  0  0  0  0
    7.2568  -19.1019  -11.4158 C   0  0  0  0  0  0  0  0  0  0  0  0
    6.5827  -18.5336  -10.3540 N   0  0  0  0  0  0  0  0  0  0  0  0
    5.6498  -19.2456   -9.6570 C   0  0  0  0  0  0  0  0  0  0  0  0
  2  3  1  1  0  0  0
  2  6  1  0  0  0  0
  2  1  1  0  0  0  0
  4  3  2  0  0  0  0
  5  3  1  0  0  0  0
  6  7  2  0  0  0  0
  8  7  1  6  0  0  0
  8  9  1  0  0  0  0
  8 10  1  0  0  0  0
 11 10  1  6  0  0  0
 11 13  1  0  0  0  0
 12 11  1  0  0  0  0
 12 17  1  0  0  0  0
 13 14  1  1  0  0  0
 13 15  1  0  0  0  0
 15 16  1  1  0  0  0
 17 18  1  6  0  0  0
 17 15  1  0  0  0  0
 18 19  1  0  0  0  0
 20 19  2  0  0  0  0
 21 27  2  0  0  0  0
 21 20  1  0  0  0  0
 22 21  1  0  0  0  0
 23 22  1  0  0  0  0
 24 22  2  0  0  0  0
 24 25  1  0  0  0  0
 25 26  2  0  0  0  0
 26 27  1  0  0  0  0
 27 18  1  0  0  0  0
M  END
>  <CHROM.1>
-43.93884939,18.08859176,65.91661168,-72.33365695,-43.00315814,-31.98707587
3.79482385,-17.38791175,-9.88701066,-2.62139765,-0.76662836,2.29545131

>  <Name>
lig.pdb

>  <RI>
0

>  <Rbt.Current_Directory>
/home/itssahil/PROJECTS/Mol_Feturizer/New_Systems/rnas/4b5r

>  <Rbt.Executable>
rbdock ($Id: //depot/dev/client3/rdock/2013.1/src/exe/rbdock.cxx#4 $)

>  <Rbt.Library>
libRbt.so (2013.1, Build901 2013/11/27)

>  <Rbt.Parameter_File>
/export/apps/rDock/src/rDock_2013.1_src/data/scripts/dock_solv.prm

>  <Rbt.Receptor>
prm/blind_docking_60.prm

>  <SCORE>
-11.0437

>  <SCORE.INTER>
-11.0428

>  <SCORE.INTER.CONST>
1

>  <SCORE.INTER.POLAR>
0

>  <SCORE.INTER.ROT>
6

>  <SCORE.INTER.SOLV>
13.2836

>  <SCORE.INTER.VDW>
-19.3898

>  <SCORE.INTER.norm>
-0.408994

>  <SCORE.INTRA>
-0.000893177

>  <SCORE.INTRA.DIHEDRAL>
-0.228835

>  <SCORE.INTRA.DIHEDRAL.0>
10.2917

>  <SCORE.INTRA.POLAR>
0

>  <SCORE.INTRA.POLAR.0>
0

>  <SCORE.INTRA.REPUL>
0

>  <SCORE.INTRA.REPUL.0>
0

>  <SCORE.INTRA.SOLV>
-0.867056

>  <SCORE.INTRA.SOLV.lig_0>
-39.6315

>  <SCORE.INTRA.VDW>
0.547052

>  <SCORE.INTRA.VDW.0>
-4.02152

>  <SCORE.INTRA.norm>
-3.30806e-05

>  <SCORE.RESTR>
0

>  <SCORE.RESTR.CAVITY>
0

>  <SCORE.RESTR.norm>
0

>  <SCORE.SYSTEM>
0

>  <SCORE.SYSTEM.CONST>
0

>  <SCORE.SYSTEM.DIHEDRAL>
0

>  <SCORE.SYSTEM.SOLV>
0

>  <SCORE.SYSTEM.norm>
0

>  <SCORE.heavy>
27

>  <SCORE.norm>
-0.409027

>  <RMSD>
5.459

$$$$
lig.pdb
 OpenBabel11021811493D
libRbt.so/2013.1/901 2013/11/27
 27 29  0  0  0  0  0  0  0  0999 V2000
    6.8765  -16.2624   -9.7720 N   0  0  0  0  0  0  0  0  0  0  0  0
    6.3184  -17.5105  -10.3758 C   0  0  2  0  0  0  0  0  0  0  0  0
    7.1683  -17.9063  -11.5796 C   0  0  0  0  0  0  0  0  0  0  0  0
    7.7615  -17.0401  -12.2117 O   0  0  0  0  0  0  0  0  0  0  0  0
    7.2872  -19.0780  -11.9603 O   0  0  0  0  0  0  0  0  0  0  0  0
    4.8237  -17.4075  -10.7405 C   0  0  0  0  0  0  0  0  0  0  0  0
    4.4823  -17.2350  -12.2440 C   0  0  0  0  0  0  0  0  0  0  0  0
    2.7129  -17.0988  -12.7483 S   0  0  2  0  0  0  0  0  0  0  0  0
    2.8092  -15.8662  -14.0640 C   0  0  0  0  0  0  0  0  0  0  0  0
    1.9754  -16.0931  -11.4420 C   0  0  0  0  0  0  0  0  0  0  0  0
    1.3265  -16.9974  -10.4025 C   0  0  1  0  0  0  0  0  0  0  0  0
    2.2437  -17.9168   -9.8293 O   0  0  0  0  0  0  0  0  0  0  0  0
    0.7843  -16.2433   -9.2181 C   0  0  1  0  0  0  0  0  0  0  0  0
   -0.4434  -15.6566   -9.5413 O   0  0  0  0  0  0  0  0  0  0  0  0
    0.6598  -17.3628   -8.2084 C   0  0  1  0  0  0  0  0  0  0  0  0
   -0.5427  -18.0752   -8.4169 O   0  0  0  0  0  0  0  0  0  0  0  0
    1.8382  -18.2782   -8.5210 C   0  0  2  0  0  0  0  0  0  0  0  0
    2.9682  -18.2043   -7.5546 N   0  0  0  0  0  0  0  0  0  0  0  0
    3.6569  -19.2812   -7.0557 C   0  0  0  0  0  0  0  0  0  0  0  0
    4.6139  -18.8420   -6.2080 N   0  0  0  0  0  0  0  0  0  0  0  0
    4.5612  -17.5008   -6.1574 C   0  0  0  0  0  0  0  0  0  0  0  0
    5.3127  -16.5656   -5.4623 C   0  0  0  0  0  0  0  0  0  0  0  0
    6.2997  -16.9565   -4.6669 N   0  0  0  0  0  0  0  0  0  0  0  0
    5.0249  -15.2236   -5.6134 N   0  0  0  0  0  0  0  0  0  0  0  0
    4.0006  -14.7995   -6.4504 C   0  0  0  0  0  0  0  0  0  0  0  0
    3.2672  -15.7446   -7.1386 N   0  0  0  0  0  0  0  0  0  0  0  0
    3.5326  -17.0757   -6.9946 C   0  0  0  0  0  0  0  0  0  0  0  0
  2  3  1  6  0  0  0
  2  6  1  0  0  0  0
  2  1  1  0  0  0  0
  4  3  2  0  0  0  0
  5  3  1  0  0  0  0
  6  7  2  0  0  0  0
  8  7  1  1  0  0  0
  8  9  1  0  0  0  0
  8 10  1  0  0  0  0
 11 10  1  6  0  0  0
 11 13  1  0  0  0  0
 12 11  1  0  0  0  0
 12 17  1  0  0  0  0
 13 14  1  6  0  0  0
 13 15  1  0  0  0  0
 15 16  1  6  0  0  0
 17 18  1  1  0  0  0
 17 15  1  0  0  0  0
 18 19  1  0  0  0  0
 20 19  2  0  0  0  0
 21 27  2  0  0  0  0
 21 20  1  0  0  0  0
 22 21  1  0  0  0  0
 23 22  1  0  0  0  0
 24 22  2  0  0  0  0
 24 25  1  0  0  0  0
 25 26  2  0  0  0  0
 26 27  1  0  0  0  0
 27 18  1  0  0  0  0
M  END
>  <CHROM.1>
-28.24737881,104.16164395,141.84329566,-96.20977867,57.86746915,-103.63618440
3.67581826,-17.12055964,-9.30300995,-1.51195325,-0.08421572,1.55109125

>  <Name>
lig.pdb

>  <RI>
0

>  <Rbt.Current_Directory>
/home/itssahil/PROJECTS/Mol_Feturizer/New_Systems/rnas/4b5r

>  <Rbt.Executable>
rbdock ($Id: //depot/dev/client3/rdock/2013.1/src/exe/rbdock.cxx#4 $)

>  <Rbt.Library>
libRbt.so (2013.1, Build901 2013/11/27)

>  <Rbt.Parameter_File>
/export/apps/rDock/src/rDock_2013.1_src/data/scripts/dock_solv.prm

>  <Rbt.Receptor>
prm/pocket_docking_7.prm

>  <SCORE>
-15.5367

>  <SCORE.INTER>
-14.7046

>  <SCORE.INTER.CONST>
1

>  <SCORE.INTER.POLAR>
0

>  <SCORE.INTER.ROT>
6

>  <SCORE.INTER.SOLV>
15.2746

>  <SCORE.INTER.VDW>
-22.4946

>  <SCORE.INTER.norm>
-0.544614

>  <SCORE.INTRA>
-0.832148

>  <SCORE.INTRA.DIHEDRAL>
-1.06446

>  <SCORE.INTRA.DIHEDRAL.0>
10.2917

>  <SCORE.INTRA.POLAR>
0

>  <SCORE.INTRA.POLAR.0>
0

>  <SCORE.INTRA.REPUL>
0

>  <SCORE.INTRA.REPUL.0>
0

>  <SCORE.INTRA.SOLV>
-2.10755

>  <SCORE.INTRA.SOLV.lig_0>
-39.6315

>  <SCORE.INTRA.VDW>
0.753853

>  <SCORE.INTRA.VDW.0>
-4.02152

>  <SCORE.INTRA.norm>
-0.0308203

>  <SCORE.RESTR>
0

>  <SCORE.RESTR.CAVITY>
0

>  <SCORE.RESTR.norm>
0

>  <SCORE.SYSTEM>
0

>  <SCORE.SYSTEM.CONST>
0

>  <SCORE.SYSTEM.DIHEDRAL>
0

>  <SCORE.SYSTEM.SOLV>
0

>  <SCORE.SYSTEM.norm>
0

>  <SCORE.heavy>
27

>  <SCORE.norm>
-0.575435

>  <RMSD>
5.465

$$$$
lig.pdb
 OpenBabel11021811493D
libRbt.so/2013.1/901 2013/11/27
 27 29  0  0  0  0  0  0  0  0999 V2000
    2.4242  -16.1826  -11.3721 N   0  0  0  0  0  0  0  0  0  0  0  0
    2.4053  -14.6884  -11.3374 C   0  0  2  0  0  0  0  0  0  0  0  0
    3.6653  -14.1571  -12.0142 C   0  0  0  0  0  0  0  0  0  0  0  0
    3.8178  -14.3182  -13.2194 O   0  0  0  0  0  0  0  0  0  0  0  0
    4.5598  -13.5658  -11.3961 O   0  0  0  0  0  0  0  0  0  0  0  0
    2.2272  -14.1039   -9.9216 C   0  0  0  0  0  0  0  0  0  0  0  0
    2.1708  -15.1186   -8.7495 C   0  0  0  0  0  0  0  0  0  0  0  0
    1.9526  -14.4862   -7.0302 S   0  0  2  0  0  0  0  0  0  0  0  0
    0.9608  -13.0050   -7.3164 C   0  0  0  0  0  0  0  0  0  0  0  0
    3.5440  -13.7193   -6.6548 C   0  0  0  0  0  0  0  0  0  0  0  0
    4.6477  -14.7664   -6.7254 C   0  0  1  0  0  0  0  0  0  0  0  0
    4.8658  -15.2423   -8.0450 O   0  0  0  0  0  0  0  0  0  0  0  0
    5.9929  -14.2372   -6.3062 C   0  0  1  0  0  0  0  0  0  0  0  0
    6.0744  -14.1789   -4.9112 O   0  0  0  0  0  0  0  0  0  0  0  0
    6.9041  -15.2825   -6.9108 C   0  0  1  0  0  0  0  0  0  0  0  0
    6.9842  -16.4090   -6.0614 O   0  0  0  0  0  0  0  0  0  0  0  0
    6.2019  -15.6855   -8.2027 C   0  0  2  0  0  0  0  0  0  0  0  0
    6.8161  -15.1493   -9.4483 N   0  0  0  0  0  0  0  0  0  0  0  0
    7.1223  -13.8315   -9.6780 C   0  0  0  0  0  0  0  0  0  0  0  0
    7.6657  -13.7104  -10.9099 N   0  0  0  0  0  0  0  0  0  0  0  0
    7.7238  -14.9270  -11.4760 C   0  0  0  0  0  0  0  0  0  0  0  0
    8.1938  -15.3591  -12.7068 C   0  0  0  0  0  0  0  0  0  0  0  0
    8.7077  -14.4925  -13.5696 N   0  0  0  0  0  0  0  0  0  0  0  0
    8.1259  -16.7023  -13.0199 N   0  0  0  0  0  0  0  0  0  0  0  0
    7.5992  -17.6222  -12.1221 C   0  0  0  0  0  0  0  0  0  0  0  0
    7.1416  -17.1743  -10.8996 N   0  0  0  0  0  0  0  0  0  0  0  0
    7.1934  -15.8490  -10.5770 C   0  0  0  0  0  0  0  0  0  0  0  0
  2  3  1  1  0  0  0
  2  6  1  0  0  0  0
  2  1  1  0  0  0  0
  4  3  2  0  0  0  0
  5  3  1  0  0  0  0
  6  7  2  0  0  0  0
  8  7  1  6  0  0  0
  8  9  1  0  0  0  0
  8 10  1  0  0  0  0
 11 10  1  6  0  0  0
 11 13  1  0  0  0  0
 12 11  1  0  0  0  0
 12 17  1  0  0  0  0
 13 14  1  1  0  0  0
 13 15  1  0  0  0  0
 15 16  1  1  0  0  0
 17 18  1  6  0  0  0
 17 15  1  0  0  0  0
 18 19  1  0  0  0  0
 20 19  2  0  0  0  0
 21 27  2  0  0  0  0
 21 20  1  0  0  0  0
 22 21  1  0  0  0  0
 23 22  1  0  0  0  0
 24 22  2  0  0  0  0
 24 25  1  0  0  0  0
 25 26  2  0  0  0  0
 26 27  1  0  0  0  0
 27 18  1  0  0  0  0
M  END
>  <CHROM.1>
67.29550566,3.13300450,31.33011168,-60.98470306,67.68537939,67.93011549,5.20317356
-14.92484607,-9.47576874,2.25357383,-0.22964396,1.52930735

>  <Name>
lig.pdb

>  <RI>
0

>  <Rbt.Current_Directory>
/home/itssahil/PROJECTS/Mol_Feturizer/New_Systems/rnas/4b5r

>  <Rbt.Executable>
rbdock ($Id: //depot/dev/client3/rdock/2013.1/src/exe/rbdock.cxx#4 $)

>  <Rbt.Library>
libRbt.so (2013.1, Build901 2013/11/27)

>  <Rbt.Parameter_File>
/export/apps/rDock/src/rDock_2013.1_src/data/scripts/dock_solv.prm

>  <Rbt.Receptor>
prm/blind_docking_60.prm

>  <SCORE>
-16.7366

>  <SCORE.INTER>
-15.6328

>  <SCORE.INTER.CONST>
1

>  <SCORE.INTER.POLAR>
0

>  <SCORE.INTER.ROT>
6

>  <SCORE.INTER.SOLV>
11.974

>  <SCORE.INTER.VDW>
-22.0132

>  <SCORE.INTER.norm>
-0.578992

>  <SCORE.INTRA>
-1.10421

>  <SCORE.INTRA.DIHEDRAL>
-1.56121

>  <SCORE.INTRA.DIHEDRAL.0>
10.2917

>  <SCORE.INTRA.POLAR>
0

>  <SCORE.INTRA.POLAR.0>
0

>  <SCORE.INTRA.REPUL>
0

>  <SCORE.INTRA.REPUL.0>
0

>  <SCORE.INTRA.SOLV>
-2.88105

>  <SCORE.INTRA.SOLV.lig_0>
-39.6315

>  <SCORE.INTRA.VDW>
1.11692

>  <SCORE.INTRA.VDW.0>
-4.02152

>  <SCORE.INTRA.norm>
-0.0408966

>  <SCORE.RESTR>
0.000406196

>  <SCORE.RESTR.CAVITY>
0.000406196

>  <SCORE.RESTR.norm>
1.50443e-05

>  <SCORE.SYSTEM>
0

>  <SCORE.SYSTEM.CONST>
0

>  <SCORE.SYSTEM.DIHEDRAL>
0

>  <SCORE.SYSTEM.SOLV>
0

>  <SCORE.SYSTEM.norm>
0

>  <SCORE.heavy>
27

>  <SCORE.norm>
-0.619874

>  <RMSD>
5.480

$$$$
lig.pdb
 OpenBabel11021811493D
libRbt.so/2013.1/901 2013/11/27
 27 29  0  0  0  0  0  0  0  0999 V2000
    7.2710  -18.1084  -13.8063 N   0  0  0  0  0  0  0  0  0  0  0  0
    6.5164  -16.9120  -14.2894 C   0  0  2  0  0  0  0  0  0  0  0  0
    7.3880  -16.1349  -15.2716 C   0  0  0  0  0  0  0  0  0  0  0  0
    6.9356  -15.8263  -16.3679 O   0  0  0  0  0  0  0  0  0  0  0  0
    8.5512  -15.7988  -15.0150 O   0  0  0  0  0  0  0  0  0  0  0  0
    5.9917  -16.0105  -13.1538 C   0  0  0  0  0  0  0  0  0  0  0  0
    6.5827  -14.5786  -13.0695 C   0  0  0  0  0  0  0  0  0  0  0  0
    6.0029  -13.4503  -11.7301 S   0  0  2  0  0  0  0  0  0  0  0  0
    7.0445  -12.0017  -12.0058 C   0  0  0  0  0  0  0  0  0  0  0  0
    6.7899  -14.1135  -10.2460 C   0  0  0  0  0  0  0  0  0  0  0  0
    6.2835  -15.5257   -9.9838 C   0  0  1  0  0  0  0  0  0  0  0  0
    7.0204  -16.1909   -8.9690 O   0  0  0  0  0  0  0  0  0  0  0  0
    4.8651  -15.5618   -9.4817 C   0  0  1  0  0  0  0  0  0  0  0  0
    3.9730  -15.3899  -10.5450 O   0  0  0  0  0  0  0  0  0  0  0  0
    4.8163  -16.9509   -8.8846 C   0  0  1  0  0  0  0  0  0  0  0  0
    4.5758  -17.9077   -9.8963 O   0  0  0  0  0  0  0  0  0  0  0  0
    6.2181  -17.1643   -8.3245 C   0  0  2  0  0  0  0  0  0  0  0  0
    6.3261  -17.0726   -6.8425 N   0  0  0  0  0  0  0  0  0  0  0  0
    6.6279  -18.1155   -6.0033 C   0  0  0  0  0  0  0  0  0  0  0  0
    6.6407  -17.6689   -4.7274 N   0  0  0  0  0  0  0  0  0  0  0  0
    6.3614  -16.3552   -4.7286 C   0  0  0  0  0  0  0  0  0  0  0  0
    6.2597  -15.4245   -3.7058 C   0  0  0  0  0  0  0  0  0  0  0  0
    6.4582  -15.7892   -2.4459 N   0  0  0  0  0  0  0  0  0  0  0  0
    5.9558  -14.1137   -4.0157 N   0  0  0  0  0  0  0  0  0  0  0  0
    5.7549  -13.7158   -5.3314 C   0  0  0  0  0  0  0  0  0  0  0  0
    5.8660  -14.6550   -6.3365 N   0  0  0  0  0  0  0  0  0  0  0  0
    6.1575  -15.9567   -6.0474 C   0  0  0  0  0  0  0  0  0  0  0  0
  2  3  1  6  0  0  0
  2  6  1  0  0  0  0
  2  1  1  0  0  0  0
  4  3  2  0  0  0  0
  5  3  1  0  0  0  0
  6  7  2  0  0  0  0
  8  7  1  6  0  0  0
  8  9  1  0  0  0  0
  8 10  1  0  0  0  0
 11 10  1  1  0  0  0
 11 13  1  0  0  0  0
 12 11  1  0  0  0  0
 12 17  1  0  0  0  0
 13 14  1  6  0  0  0
 13 15  1  0  0  0  0
 15 16  1  6  0  0  0
 17 18  1  1  0  0  0
 17 15  1  0  0  0  0
 18 19  1  0  0  0  0
 20 19  2  0  0  0  0
 21 27  2  0  0  0  0
 21 20  1  0  0  0  0
 22 21  1  0  0  0  0
 23 22  1  0  0  0  0
 24 22  2  0  0  0  0
 24 25  1  0  0  0  0
 25 26  2  0  0  0  0
 26 27  1  0  0  0  0
 27 18  1  0  0  0  0
M  END
>  <CHROM.1>
128.85309789,115.19148696,176.52625799,-62.90230123,170.07583896,-127.56885138
6.25767079,-15.67887565,-9.52287451,-0.12805014,-1.49471841,3.04708325

>  <Name>
lig.pdb

>  <RI>
0

>  <Rbt.Current_Directory>
/home/itssahil/PROJECTS/Mol_Feturizer/New_Systems/rnas/4b5r

>  <Rbt.Executable>
rbdock ($Id: //depot/dev/client3/rdock/2013.1/src/exe/rbdock.cxx#4 $)

>  <Rbt.Library>
libRbt.so (2013.1, Build901 2013/11/27)

>  <Rbt.Parameter_File>
/export/apps/rDock/src/rDock_2013.1_src/data/scripts/dock_solv.prm

>  <Rbt.Receptor>
prm/pocket_docking_7.prm

>  <SCORE>
-13.0411

>  <SCORE.INTER>
-11.5556

>  <SCORE.INTER.CONST>
1

>  <SCORE.INTER.POLAR>
0

>  <SCORE.INTER.ROT>
6

>  <SCORE.INTER.SOLV>
12.0537

>  <SCORE.INTER.VDW>
-19.3216

>  <SCORE.INTER.norm>
-0.427986

>  <SCORE.INTRA>
-1.48553

>  <SCORE.INTRA.DIHEDRAL>
-2.49059

>  <SCORE.INTRA.DIHEDRAL.0>
10.2917

>  <SCORE.INTRA.POLAR>
0

>  <SCORE.INTRA.POLAR.0>
0

>  <SCORE.INTRA.REPUL>
0

>  <SCORE.INTRA.REPUL.0>
0

>  <SCORE.INTRA.SOLV>
-2.19519

>  <SCORE.INTRA.SOLV.lig_0>
-39.6315

>  <SCORE.INTRA.VDW>
0.857364

>  <SCORE.INTRA.VDW.0>
-4.02152

>  <SCORE.INTRA.norm>
-0.0550194

>  <SCORE.RESTR>
0

>  <SCORE.RESTR.CAVITY>
0

>  <SCORE.RESTR.norm>
0

>  <SCORE.SYSTEM>
0

>  <SCORE.SYSTEM.CONST>
0

>  <SCORE.SYSTEM.DIHEDRAL>
0

>  <SCORE.SYSTEM.SOLV>
0

>  <SCORE.SYSTEM.norm>
0

>  <SCORE.heavy>
27

>  <SCORE.norm>
-0.483005

>  <RMSD>
5.483

$$$$
lig.pdb
 OpenBabel11021811493D
libRbt.so/2013.1/901 2013/11/27
 27 29  0  0  0  0  0  0  0  0999 V2000
    6.6570  -17.8218  -10.5469 N   0  0  0  0  0  0  0  0  0  0  0  0
    6.8254  -17.5417  -12.0054 C   0  0  2  0  0  0  0  0  0  0  0  0
    7.8146  -16.3936  -12.1826 C   0  0  0  0  0  0  0  0  0  0  0  0
    8.0870  -15.9990  -13.3103 O   0  0  0  0  0  0  0  0  0  0  0  0
    8.3700  -15.8339  -11.2286 O   0  0  0  0  0  0  0  0  0  0  0  0
    5.4977  -17.2710  -12.7415 C   0  0  0  0  0  0  0  0  0  0  0  0
    4.2018  -17.3390  -11.8915 C   0  0  0  0  0  0  0  0  0  0  0  0
    2.5783  -17.0315  -12.7119 S   0  0  2  0  0  0  0  0  0  0  0  0
    3.0074  -15.7194  -13.8752 C   0  0  0  0  0  0  0  0  0  0  0  0
    1.6611  -16.0679  -11.4904 C   0  0  0  0  0  0  0  0  0  0  0  0
    1.1152  -16.9935  -10.4112 C   0  0  1  0  0  0  0  0  0  0  0  0
    2.1168  -17.8275   -9.8486 O   0  0  0  0  0  0  0  0  0  0  0  0
    0.5542  -16.2543   -9.2261 C   0  0  1  0  0  0  0  0  0  0  0  0
   -0.7239  -15.7694   -9.5216 O   0  0  0  0  0  0  0  0  0  0  0  0
    0.5463  -17.3556   -8.1892 C   0  0  1  0  0  0  0  0  0  0  0  0
   -0.6045  -18.1612   -8.3430 O   0  0  0  0  0  0  0  0  0  0  0  0
    1.7806  -18.1871   -8.5204 C   0  0  2  0  0  0  0  0  0  0  0  0
    2.9310  -18.0055   -7.5932 N   0  0  0  0  0  0  0  0  0  0  0  0
    3.7119  -19.0158   -7.0907 C   0  0  0  0  0  0  0  0  0  0  0  0
    4.6594  -18.4857   -6.2854 N   0  0  0  0  0  0  0  0  0  0  0  0
    4.5099  -17.1510   -6.2659 C   0  0  0  0  0  0  0  0  0  0  0  0
    5.2115  -16.1454   -5.6185 C   0  0  0  0  0  0  0  0  0  0  0  0
    6.2484  -16.4422   -4.8462 N   0  0  0  0  0  0  0  0  0  0  0  0
    4.8215  -14.8324   -5.7929 N   0  0  0  0  0  0  0  0  0  0  0  0
    3.7437  -14.5064   -6.6065 C   0  0  0  0  0  0  0  0  0  0  0  0
    3.0611  -15.5203   -7.2473 N   0  0  0  0  0  0  0  0  0  0  0  0
    3.4278  -16.8243   -7.0795 C   0  0  0  0  0  0  0  0  0  0  0  0
  2  3  1  1  0  0  0
  2  6  1  0  0  0  0
  2  1  1  0  0  0  0
  4  3  2  0  0  0  0
  5  3  1  0  0  0  0
  6  7  2  0  0  0  0
  8  7  1  1  0  0  0
  8  9  1  0  0  0  0
  8 10  1  0  0  0  0
 11 10  1  6  0  0  0
 11 13  1  0  0  0  0
 12 11  1  0  0  0  0
 12 17  1  0  0  0  0
 13 14  1  6  0  0  0
 13 15  1  0  0  0  0
 15 16  1  6  0  0  0
 17 18  1  1  0  0  0
 17 15  1  0  0  0  0
 18 19  1  0  0  0  0
 20 19  2  0  0  0  0
 21 27  2  0  0  0  0
 21 20  1  0  0  0  0
 22 21  1  0  0  0  0
 23 22  1  0  0  0  0
 24 22  2  0  0  0  0
 24 25  1  0  0  0  0
 25 26  2  0  0  0  0
 26 27  1  0  0  0  0
 27 18  1  0  0  0  0
M  END
>  <CHROM.1>
-179.48663043,-0.58517766,-37.57907370,-78.64702687,52.12443378,-103.85951602
3.69033104,-16.83313680,-9.50012182,-0.95818001,0.07726255,1.57299548

>  <Name>
lig.pdb

>  <RI>
0

>  <Rbt.Current_Directory>
/home/itssahil/PROJECTS/Mol_Feturizer/New_Systems/rnas/4b5r

>  <Rbt.Executable>
rbdock ($Id: //depot/dev/client3/rdock/2013.1/src/exe/rbdock.cxx#4 $)

>  <Rbt.Library>
libRbt.so (2013.1, Build901 2013/11/27)

>  <Rbt.Parameter_File>
/export/apps/rDock/src/rDock_2013.1_src/data/scripts/dock_solv.prm

>  <Rbt.Receptor>
prm/pocket_docking_4.prm

>  <SCORE>
-17.2685

>  <SCORE.INTER>
-16.4234

>  <SCORE.INTER.CONST>
1

>  <SCORE.INTER.POLAR>
0

>  <SCORE.INTER.ROT>
6

>  <SCORE.INTER.SOLV>
14.3589

>  <SCORE.INTER.VDW>
-23.3352

>  <SCORE.INTER.norm>
-0.608273

>  <SCORE.INTRA>
-0.845168

>  <SCORE.INTRA.DIHEDRAL>
-2.94194

>  <SCORE.INTRA.DIHEDRAL.0>
10.2917

>  <SCORE.INTRA.POLAR>
0

>  <SCORE.INTRA.POLAR.0>
0

>  <SCORE.INTRA.REPUL>
0

>  <SCORE.INTRA.REPUL.0>
0

>  <SCORE.INTRA.SOLV>
-2.13875

>  <SCORE.INTRA.SOLV.lig_0>
-39.6315

>  <SCORE.INTRA.VDW>
1.69518

>  <SCORE.INTRA.VDW.0>
-4.02152

>  <SCORE.INTRA.norm>
-0.0313025

>  <SCORE.RESTR>
0

>  <SCORE.RESTR.CAVITY>
0

>  <SCORE.RESTR.norm>
0

>  <SCORE.SYSTEM>
0

>  <SCORE.SYSTEM.CONST>
0

>  <SCORE.SYSTEM.DIHEDRAL>
0

>  <SCORE.SYSTEM.SOLV>
0

>  <SCORE.SYSTEM.norm>
0

>  <SCORE.heavy>
27

>  <SCORE.norm>
-0.639576

>  <RMSD>
5.503

$$$$
lig.pdb
 OpenBabel11021811493D
libRbt.so/2013.1/901 2013/11/27
 27 29  0  0  0  0  0  0  0  0999 V2000
    1.9917  -16.4038  -11.4682 N   0  0  0  0  0  0  0  0  0  0  0  0
    2.3698  -14.9582  -11.5023 C   0  0  2  0  0  0  0  0  0  0  0  0
    3.7251  -14.8125  -12.1879 C   0  0  0  0  0  0  0  0  0  0  0  0
    3.9107  -13.8873  -12.9698 O   0  0  0  0  0  0  0  0  0  0  0  0
    4.6619  -15.5982  -11.9952 O   0  0  0  0  0  0  0  0  0  0  0  0
    2.3543  -14.2810  -10.1171 C   0  0  0  0  0  0  0  0  0  0  0  0
    1.9953  -15.1797   -8.9047 C   0  0  0  0  0  0  0  0  0  0  0  0
    1.9523  -14.4307   -7.2192 S   0  0  2  0  0  0  0  0  0  0  0  0
    1.0899  -12.8772   -7.5393 C   0  0  0  0  0  0  0  0  0  0  0  0
    3.6310  -13.8056   -6.9895 C   0  0  0  0  0  0  0  0  0  0  0  0
    4.5938  -14.9726   -6.8143 C   0  0  1  0  0  0  0  0  0  0  0  0
    4.7108  -15.7651   -7.9862 O   0  0  0  0  0  0  0  0  0  0  0  0
    6.0064  -14.5368   -6.5314 C   0  0  1  0  0  0  0  0  0  0  0  0
    6.1370  -14.1676   -5.1888 O   0  0  0  0  0  0  0  0  0  0  0  0
    6.7621  -15.8012   -6.8756 C   0  0  1  0  0  0  0  0  0  0  0  0
    6.7280  -16.7009   -5.7865 O   0  0  0  0  0  0  0  0  0  0  0  0
    5.9762  -16.3996   -8.0370 C   0  0  2  0  0  0  0  0  0  0  0  0
    6.6137  -16.2495   -9.3739 N   0  0  0  0  0  0  0  0  0  0  0  0
    6.9705  -17.2832  -10.2029 C   0  0  0  0  0  0  0  0  0  0  0  0
    7.5201  -16.7785  -11.3302 N   0  0  0  0  0  0  0  0  0  0  0  0
    7.5166  -15.4379  -11.2476 C   0  0  0  0  0  0  0  0  0  0  0  0
    7.9476  -14.4507  -12.1207 C   0  0  0  0  0  0  0  0  0  0  0  0
    8.4798  -14.7770  -13.2910 N   0  0  0  0  0  0  0  0  0  0  0  0
    7.8101  -13.1251  -11.7592 N   0  0  0  0  0  0  0  0  0  0  0  0
    7.2457  -12.7687  -10.5410 C   0  0  0  0  0  0  0  0  0  0  0  0
    6.8172  -13.7650   -9.6875 N   0  0  0  0  0  0  0  0  0  0  0  0
    6.9531  -15.0806  -10.0252 C   0  0  0  0  0  0  0  0  0  0  0  0
  2  3  1  1  0  0  0
  2  6  1  0  0  0  0
  2  1  1  0  0  0  0
  4  3  2  0  0  0  0
  5  3  1  0  0  0  0
  6  7  2  0  0  0  0
  8  7  1  6  0  0  0
  8  9  1  0  0  0  0
  8 10  1  0  0  0  0
 11 10  1  6  0  0  0
 11 13  1  0  0  0  0
 12 11  1  0  0  0  0
 12 17  1  0  0  0  0
 13 14  1  1  0  0  0
 13 15  1  0  0  0  0
 15 16  1  1  0  0  0
 17 18  1  6  0  0  0
 17 15  1  0  0  0  0
 18 19  1  0  0  0  0
 20 19  2  0  0  0  0
 21 27  2  0  0  0  0
 21 20  1  0  0  0  0
 22 21  1  0  0  0  0
 23 22  1  0  0  0  0
 24 22  2  0  0  0  0
 24 25  1  0  0  0  0
 25 26  2  0  0  0  0
 26 27  1  0  0  0  0
 27 18  1  0  0  0  0
M  END
>  <CHROM.1>
139.13771980,1.58059231,43.44187904,-70.86549378,66.14606693,-119.87324959
5.09303076,-14.94654324,-9.39012295,2.25376308,-0.15451530,1.61725243

>  <Name>
lig.pdb

>  <RI>
0

>  <Rbt.Current_Directory>
/home/itssahil/PROJECTS/Mol_Feturizer/New_Systems/rnas/4b5r

>  <Rbt.Executable>
rbdock ($Id: //depot/dev/client3/rdock/2013.1/src/exe/rbdock.cxx#4 $)

>  <Rbt.Library>
libRbt.so (2013.1, Build901 2013/11/27)

>  <Rbt.Parameter_File>
/export/apps/rDock/src/rDock_2013.1_src/data/scripts/dock_solv.prm

>  <Rbt.Receptor>
prm/pocket_docking_4.prm

>  <SCORE>
-17.1226

>  <SCORE.INTER>
-14.5925

>  <SCORE.INTER.CONST>
1

>  <SCORE.INTER.POLAR>
0

>  <SCORE.INTER.ROT>
6

>  <SCORE.INTER.SOLV>
11.8722

>  <SCORE.INTER.VDW>
-21.2857

>  <SCORE.INTER.norm>
-0.540462

>  <SCORE.INTRA>
-2.53015

>  <SCORE.INTRA.DIHEDRAL>
-1.57003

>  <SCORE.INTRA.DIHEDRAL.0>
10.2917

>  <SCORE.INTRA.POLAR>
0

>  <SCORE.INTRA.POLAR.0>
0

>  <SCORE.INTRA.REPUL>
0

>  <SCORE.INTRA.REPUL.0>
0

>  <SCORE.INTRA.SOLV>
-2.11319

>  <SCORE.INTRA.SOLV.lig_0>
-39.6315

>  <SCORE.INTRA.VDW>
-0.688538

>  <SCORE.INTRA.VDW.0>
-4.02152

>  <SCORE.INTRA.norm>
-0.0937092

>  <SCORE.RESTR>
0

>  <SCORE.RESTR.CAVITY>
0

>  <SCORE.RESTR.norm>
0

>  <SCORE.SYSTEM>
0

>  <SCORE.SYSTEM.CONST>
0

>  <SCORE.SYSTEM.DIHEDRAL>
0

>  <SCORE.SYSTEM.SOLV>
0

>  <SCORE.SYSTEM.norm>
0

>  <SCORE.heavy>
27

>  <SCORE.norm>
-0.634171

>  <RMSD>
5.508

$$$$
lig.pdb
 OpenBabel11021811493D
libRbt.so/2013.1/901 2013/11/27
 27 29  0  0  0  0  0  0  0  0999 V2000
    1.9935  -17.6160   -9.7753 N   0  0  0  0  0  0  0  0  0  0  0  0
    1.2769  -16.4145  -10.3014 C   0  0  2  0  0  0  0  0  0  0  0  0
    1.9538  -15.9530  -11.5886 C   0  0  0  0  0  0  0  0  0  0  0  0
    1.3952  -15.1294  -12.3036 O   0  0  0  0  0  0  0  0  0  0  0  0
    3.0557  -16.3797  -11.9568 O   0  0  0  0  0  0  0  0  0  0  0  0
    1.1549  -15.2682   -9.2771 C   0  0  0  0  0  0  0  0  0  0  0  0
    2.0341  -15.3737   -8.0034 C   0  0  0  0  0  0  0  0  0  0  0  0
    1.9316  -14.0388   -6.7341 S   0  0  2  0  0  0  0  0  0  0  0  0
    1.1905  -12.6955   -7.6859 C   0  0  0  0  0  0  0  0  0  0  0  0
    3.6283  -13.4309   -6.6194 C   0  0  0  0  0  0  0  0  0  0  0  0
    4.6006  -14.5970   -6.7395 C   0  0  1  0  0  0  0  0  0  0  0  0
    4.7696  -15.0315   -8.0804 O   0  0  0  0  0  0  0  0  0  0  0  0
    5.9962  -14.2520   -6.2938 C   0  0  1  0  0  0  0  0  0  0  0  0
    6.0745  -14.2707   -4.8976 O   0  0  0  0  0  0  0  0  0  0  0  0
    6.7811  -15.3677   -6.9474 C   0  0  1  0  0  0  0  0  0  0  0  0
    6.7214  -16.5352   -6.1535 O   0  0  0  0  0  0  0  0  0  0  0  0
    6.0448  -15.6221   -8.2580 C   0  0  2  0  0  0  0  0  0  0  0  0
    6.7266  -15.1035   -9.4756 N   0  0  0  0  0  0  0  0  0  0  0  0
    7.1083  -13.8009   -9.6767 C   0  0  0  0  0  0  0  0  0  0  0  0
    7.6974  -13.6931  -10.8887 N   0  0  0  0  0  0  0  0  0  0  0  0
    7.7107  -14.9040  -11.4697 C   0  0  0  0  0  0  0  0  0  0  0  0
    8.1978  -15.3449  -12.6907 C   0  0  0  0  0  0  0  0  0  0  0  0
    8.7841  -14.4958  -13.5243 N   0  0  0  0  0  0  0  0  0  0  0  0
    8.0705  -16.6787  -13.0247 N   0  0  0  0  0  0  0  0  0  0  0  0
    7.4674  -17.5808  -12.1573 C   0  0  0  0  0  0  0  0  0  0  0  0
    6.9938  -17.1247  -10.9440 N   0  0  0  0  0  0  0  0  0  0  0  0
    7.1038  -15.8080  -10.6013 C   0  0  0  0  0  0  0  0  0  0  0  0
  2  3  1  6  0  0  0
  2  6  1  0  0  0  0
  2  1  1  0  0  0  0
  4  3  2  0  0  0  0
  5  3  1  0  0  0  0
  6  7  2  0  0  0  0
  8  7  1  6  0  0  0
  8  9  1  0  0  0  0
  8 10  1  0  0  0  0
 11 10  1  6  0  0  0
 11 13  1  0  0  0  0
 12 11  1  0  0  0  0
 12 17  1  0  0  0  0
 13 14  1  1  0  0  0
 13 15  1  0  0  0  0
 15 16  1  1  0  0  0
 17 18  1  6  0  0  0
 17 15  1  0  0  0  0
 18 19  1  0  0  0  0
 20 19  2  0  0  0  0
 21 27  2  0  0  0  0
 21 20  1  0  0  0  0
 22 21  1  0  0  0  0
 23 22  1  0  0  0  0
 24 22  2  0  0  0  0
 24 25  1  0  0  0  0
 25 26  2  0  0  0  0
 26 27  1  0  0  0  0
 27 18  1  0  0  0  0
M  END
>  <CHROM.1>
167.60042223,13.21113020,-18.71515442,-37.80733303,77.98236935,63.31166160
4.86629121,-15.21228395,-9.30788600,2.40979703,0.00639242,1.30582422

>  <Name>
lig.pdb

>  <RI>
0

>  <Rbt.Current_Directory>
/home/itssahil/PROJECTS/Mol_Feturizer/New_Systems/rnas/4b5r

>  <Rbt.Executable>
rbdock ($Id: //depot/dev/client3/rdock/2013.1/src/exe/rbdock.cxx#4 $)

>  <Rbt.Library>
libRbt.so (2013.1, Build901 2013/11/27)

>  <Rbt.Parameter_File>
/export/apps/rDock/src/rDock_2013.1_src/data/scripts/dock_solv.prm

>  <Rbt.Receptor>
prm/pocket_docking_3.prm

>  <SCORE>
-14.8733

>  <SCORE.INTER>
-16.5628

>  <SCORE.INTER.CONST>
1

>  <SCORE.INTER.POLAR>
0

>  <SCORE.INTER.ROT>
6

>  <SCORE.INTER.SOLV>
12.9831

>  <SCORE.INTER.VDW>
-22.9696

>  <SCORE.INTER.norm>
-0.613436

>  <SCORE.INTRA>
1.68947

>  <SCORE.INTRA.DIHEDRAL>
0.303631

>  <SCORE.INTRA.DIHEDRAL.0>
10.2917

>  <SCORE.INTRA.POLAR>
0

>  <SCORE.INTRA.POLAR.0>
0

>  <SCORE.INTRA.REPUL>
0

>  <SCORE.INTRA.REPUL.0>
0

>  <SCORE.INTRA.SOLV>
-2.65438

>  <SCORE.INTRA.SOLV.lig_0>
-39.6315

>  <SCORE.INTRA.VDW>
2.86484

>  <SCORE.INTRA.VDW.0>
-4.02152

>  <SCORE.INTRA.norm>
0.0625728

>  <SCORE.RESTR>
0

>  <SCORE.RESTR.CAVITY>
0

>  <SCORE.RESTR.norm>
0

>  <SCORE.SYSTEM>
0

>  <SCORE.SYSTEM.CONST>
0

>  <SCORE.SYSTEM.DIHEDRAL>
0

>  <SCORE.SYSTEM.SOLV>
0

>  <SCORE.SYSTEM.norm>
0

>  <SCORE.heavy>
27

>  <SCORE.norm>
-0.550863

>  <RMSD>
5.513

$$$$
lig.pdb
 OpenBabel11021811493D
libRbt.so/2013.1/901 2013/11/27
 27 29  0  0  0  0  0  0  0  0999 V2000
    2.7091  -17.8899  -11.2008 N   0  0  0  0  0  0  0  0  0  0  0  0
    1.8635  -16.7008  -10.8764 C   0  0  2  0  0  0  0  0  0  0  0  0
    2.2957  -15.5272  -11.7505 C   0  0  0  0  0  0  0  0  0  0  0  0
    3.4808  -15.3840  -12.0273 O   0  0  0  0  0  0  0  0  0  0  0  0
    1.4967  -14.6946  -12.1978 O   0  0  0  0  0  0  0  0  0  0  0  0
    1.8648  -16.3297   -9.3797 C   0  0  0  0  0  0  0  0  0  0  0  0
    1.9294  -14.8184   -9.0353 C   0  0  0  0  0  0  0  0  0  0  0  0
    1.9407  -14.3058   -7.2631 S   0  0  2  0  0  0  0  0  0  0  0  0
    1.1520  -12.6844   -7.3540 C   0  0  0  0  0  0  0  0  0  0  0  0
    3.6503  -13.7975   -6.9791 C   0  0  0  0  0  0  0  0  0  0  0  0
    4.5319  -15.0289   -6.8184 C   0  0  1  0  0  0  0  0  0  0  0  0
    4.6190  -15.7978   -8.0086 O   0  0  0  0  0  0  0  0  0  0  0  0
    5.9643  -14.6936   -6.5003 C   0  0  1  0  0  0  0  0  0  0  0  0
    6.0937  -14.3675   -5.1465 O   0  0  0  0  0  0  0  0  0  0  0  0
    6.6427  -15.9956   -6.8648 C   0  0  1  0  0  0  0  0  0  0  0  0
    6.5301  -16.9182   -5.8004 O   0  0  0  0  0  0  0  0  0  0  0  0
    5.8414  -16.5121   -8.0546 C   0  0  2  0  0  0  0  0  0  0  0  0
    6.5119  -16.3705   -9.3761 N   0  0  0  0  0  0  0  0  0  0  0  0
    6.8524  -17.4075  -10.2079 C   0  0  0  0  0  0  0  0  0  0  0  0
    7.4423  -16.9106  -11.3181 N   0  0  0  0  0  0  0  0  0  0  0  0
    7.4809  -15.5715  -11.2220 C   0  0  0  0  0  0  0  0  0  0  0  0
    7.9626  -14.5908  -12.0757 C   0  0  0  0  0  0  0  0  0  0  0  0
    8.5088  -14.9235  -13.2379 N   0  0  0  0  0  0  0  0  0  0  0  0
    7.8609  -13.2649  -11.7039 N   0  0  0  0  0  0  0  0  0  0  0  0
    7.2825  -12.9016  -10.4943 C   0  0  0  0  0  0  0  0  0  0  0  0
    6.8034  -13.8912   -9.6602 N   0  0  0  0  0  0  0  0  0  0  0  0
    6.9033  -15.2073  -10.0082 C   0  0  0  0  0  0  0  0  0  0  0  0
  2  3  1  6  0  0  0
  2  6  1  0  0  0  0
  2  1  1  0  0  0  0
  4  3  2  0  0  0  0
  5  3  1  0  0  0  0
  6  7  2  0  0  0  0
  8  7  1  6  0  0  0
  8  9  1  0  0  0  0
  8 10  1  0  0  0  0
 11 10  1  6  0  0  0
 11 13  1  0  0  0  0
 12 11  1  0  0  0  0
 12 17  1  0  0  0  0
 13 14  1  1  0  0  0
 13 15  1  0  0  0  0
 15 16  1  1  0  0  0
 17 18  1  6  0  0  0
 17 15  1  0  0  0  0
 18 19  1  0  0  0  0
 20 19  2  0  0  0  0
 21 27  2  0  0  0  0
 21 20  1  0  0  0  0
 22 21  1  0  0  0  0
 23 22  1  0  0  0  0
 24 22  2  0  0  0  0
 24 25  1  0  0  0  0
 25 26  2  0  0  0  0
 26 27  1  0  0  0  0
 27 18  1  0  0  0  0
M  END
>  <CHROM.1>
-36.04488899,139.17171405,-150.91620022,-77.44459195,65.81857876,-121.94550495
4.85962085,-15.22312930,-9.28150365,2.53243832,-0.03196590,1.47043865

>  <Name>
lig.pdb

>  <RI>
0

>  <Rbt.Current_Directory>
/home/itssahil/PROJECTS/Mol_Feturizer/New_Systems/rnas/4b5r

>  <Rbt.Executable>
rbdock ($Id: //depot/dev/client3/rdock/2013.1/src/exe/rbdock.cxx#4 $)

>  <Rbt.Library>
libRbt.so (2013.1, Build901 2013/11/27)

>  <Rbt.Parameter_File>
/export/apps/rDock/src/rDock_2013.1_src/data/scripts/dock_solv.prm

>  <Rbt.Receptor>
prm/pocket_docking_5.prm

>  <SCORE>
-15.6888

>  <SCORE.INTER>
-14.3707

>  <SCORE.INTER.CONST>
1

>  <SCORE.INTER.POLAR>
0

>  <SCORE.INTER.ROT>
6

>  <SCORE.INTER.SOLV>
10.9907

>  <SCORE.INTER.VDW>
-20.844

>  <SCORE.INTER.norm>
-0.532248

>  <SCORE.INTRA>
-1.3181

>  <SCORE.INTRA.DIHEDRAL>
-0.942131

>  <SCORE.INTRA.DIHEDRAL.0>
10.2917

>  <SCORE.INTRA.POLAR>
0

>  <SCORE.INTRA.POLAR.0>
0

>  <SCORE.INTRA.REPUL>
0

>  <SCORE.INTRA.REPUL.0>
0

>  <SCORE.INTRA.SOLV>
-2.11213

>  <SCORE.INTRA.SOLV.lig_0>
-39.6315

>  <SCORE.INTRA.VDW>
0.209031

>  <SCORE.INTRA.VDW.0>
-4.02152

>  <SCORE.INTRA.norm>
-0.0488186

>  <SCORE.RESTR>
0

>  <SCORE.RESTR.CAVITY>
0

>  <SCORE.RESTR.norm>
0

>  <SCORE.SYSTEM>
0

>  <SCORE.SYSTEM.CONST>
0

>  <SCORE.SYSTEM.DIHEDRAL>
0

>  <SCORE.SYSTEM.SOLV>
0

>  <SCORE.SYSTEM.norm>
0

>  <SCORE.heavy>
27

>  <SCORE.norm>
-0.581066

>  <RMSD>
5.517

$$$$
lig.pdb
 OpenBabel11021811493D
libRbt.so/2013.1/901 2013/11/27
 27 29  0  0  0  0  0  0  0  0999 V2000
    7.5083  -18.0024  -15.2617 N   0  0  0  0  0  0  0  0  0  0  0  0
    6.8810  -16.8213  -14.5942 C   0  0  2  0  0  0  0  0  0  0  0  0
    7.9781  -15.9391  -14.0057 C   0  0  0  0  0  0  0  0  0  0  0  0
    8.5653  -15.1421  -14.7280 O   0  0  0  0  0  0  0  0  0  0  0  0
    8.3150  -15.9922  -12.8160 O   0  0  0  0  0  0  0  0  0  0  0  0
    5.8217  -17.1967  -13.5384 C   0  0  0  0  0  0  0  0  0  0  0  0
    4.4037  -16.5967  -13.7283 C   0  0  0  0  0  0  0  0  0  0  0  0
    3.0907  -17.0006  -12.4969 S   0  0  2  0  0  0  0  0  0  0  0  0
    1.6480  -16.2079  -13.2383 C   0  0  0  0  0  0  0  0  0  0  0  0
    3.4093  -15.8484  -11.1431 C   0  0  0  0  0  0  0  0  0  0  0  0
    2.4834  -16.1604   -9.9749 C   0  0  1  0  0  0  0  0  0  0  0  0
    2.7602  -17.4190   -9.3793 O   0  0  0  0  0  0  0  0  0  0  0  0
    2.6183  -15.1853   -8.8363 C   0  0  1  0  0  0  0  0  0  0  0  0
    1.9274  -14.0049   -9.1283 O   0  0  0  0  0  0  0  0  0  0  0  0
    1.9884  -15.9795   -7.7134 C   0  0  1  0  0  0  0  0  0  0  0  0
    0.5811  -15.8619   -7.7635 O   0  0  0  0  0  0  0  0  0  0  0  0
    2.3757  -17.4227   -8.0159 C   0  0  2  0  0  0  0  0  0  0  0  0
    3.4438  -17.9852   -7.1447 N   0  0  0  0  0  0  0  0  0  0  0  0
    3.5975  -19.3132   -6.8353 C   0  0  0  0  0  0  0  0  0  0  0  0
    4.6689  -19.4588   -6.0239 N   0  0  0  0  0  0  0  0  0  0  0  0
    5.2147  -18.2501   -5.8111 C   0  0  0  0  0  0  0  0  0  0  0  0
    6.3172  -17.8435   -5.0751 C   0  0  0  0  0  0  0  0  0  0  0  0
    7.0479  -18.7330   -4.4160 N   0  0  0  0  0  0  0  0  0  0  0  0
    6.6479  -16.5033   -5.0422 N   0  0  0  0  0  0  0  0  0  0  0  0
    5.8973  -15.5621   -5.7354 C   0  0  0  0  0  0  0  0  0  0  0  0
    4.8069  -15.9863   -6.4672 N   0  0  0  0  0  0  0  0  0  0  0  0
    4.4607  -17.3062   -6.5040 C   0  0  0  0  0  0  0  0  0  0  0  0
  2  3  1  1  0  0  0
  2  6  1  0  0  0  0
  2  1  1  0  0  0  0
  4  3  2  0  0  0  0
  5  3  1  0  0  0  0
  6  7  2  0  0  0  0
  8  7  1  6  0  0  0
  8  9  1  0  0  0  0
  8 10  1  0  0  0  0
 11 10  1  6  0  0  0
 11 13  1  0  0  0  0
 12 11  1  0  0  0  0
 12 17  1  0  0  0  0
 13 14  1  6  0  0  0
 13 15  1  0  0  0  0
 15 16  1  6  0  0  0
 17 18  1  1  0  0  0
 17 15  1  0  0  0  0
 18 19  1  0  0  0  0
 20 19  2  0  0  0  0
 21 27  2  0  0  0  0
 21 20  1  0  0  0  0
 22 21  1  0  0  0  0
 23 22  1  0  0  0  0
 24 22  2  0  0  0  0
 24 25  1  0  0  0  0
 25 26  2  0  0  0  0
 26 27  1  0  0  0  0
 27 18  1  0  0  0  0
M  END
>  <CHROM.1>
82.18616361,-123.70537648,-175.04815964,-174.14053421,66.50365371,-88.15295118
4.51230462,-16.77508789,-9.66687549,-1.35043739,-0.16714704,1.72384173

>  <Name>
lig.pdb

>  <RI>
0

>  <Rbt.Current_Directory>
/home/itssahil/PROJECTS/Mol_Feturizer/New_Systems/rnas/4b5r

>  <Rbt.Executable>
rbdock ($Id: //depot/dev/client3/rdock/2013.1/src/exe/rbdock.cxx#4 $)

>  <Rbt.Library>
libRbt.so (2013.1, Build901 2013/11/27)

>  <Rbt.Parameter_File>
/export/apps/rDock/src/rDock_2013.1_src/data/scripts/dock_solv.prm

>  <Rbt.Receptor>
prm/pocket_docking_8.prm

>  <SCORE>
-13.9301

>  <SCORE.INTER>
-12.7287

>  <SCORE.INTER.CONST>
1

>  <SCORE.INTER.POLAR>
0

>  <SCORE.INTER.ROT>
6

>  <SCORE.INTER.SOLV>
14.585

>  <SCORE.INTER.VDW>
-20.9475

>  <SCORE.INTER.norm>
-0.471433

>  <SCORE.INTRA>
-1.20144

>  <SCORE.INTRA.DIHEDRAL>
-1.92922

>  <SCORE.INTRA.DIHEDRAL.0>
10.2917

>  <SCORE.INTRA.POLAR>
0

>  <SCORE.INTRA.POLAR.0>
0

>  <SCORE.INTRA.REPUL>
0

>  <SCORE.INTRA.REPUL.0>
0

>  <SCORE.INTRA.SOLV>
-3.10075

>  <SCORE.INTRA.SOLV.lig_0>
-39.6315

>  <SCORE.INTRA.VDW>
1.31355

>  <SCORE.INTRA.VDW.0>
-4.02152

>  <SCORE.INTRA.norm>
-0.0444977

>  <SCORE.RESTR>
0

>  <SCORE.RESTR.CAVITY>
0

>  <SCORE.RESTR.norm>
0

>  <SCORE.SYSTEM>
0

>  <SCORE.SYSTEM.CONST>
0

>  <SCORE.SYSTEM.DIHEDRAL>
0

>  <SCORE.SYSTEM.SOLV>
0

>  <SCORE.SYSTEM.norm>
0

>  <SCORE.heavy>
27

>  <SCORE.norm>
-0.515931

>  <RMSD>
5.524

$$$$
lig.pdb
 OpenBabel11021811493D
libRbt.so/2013.1/901 2013/11/27
 27 29  0  0  0  0  0  0  0  0999 V2000
    5.7083  -13.8765  -14.9379 N   0  0  0  0  0  0  0  0  0  0  0  0
    5.4289  -12.9914  -13.7663 C   0  0  2  0  0  0  0  0  0  0  0  0
    6.7451  -12.4218  -13.2455 C   0  0  0  0  0  0  0  0  0  0  0  0
    7.8002  -12.9708  -13.5408 O   0  0  0  0  0  0  0  0  0  0  0  0
    6.8023  -11.4187  -12.5228 O   0  0  0  0  0  0  0  0  0  0  0  0
    4.6221  -13.6809  -12.6476 C   0  0  0  0  0  0  0  0  0  0  0  0
    4.0788  -15.1015  -12.9528 C   0  0  0  0  0  0  0  0  0  0  0  0
    3.0996  -15.9803  -11.6595 S   0  0  2  0  0  0  0  0  0  0  0  0
    1.8014  -14.7747  -11.3121 C   0  0  0  0  0  0  0  0  0  0  0  0
    4.0993  -15.7900  -10.1676 C   0  0  0  0  0  0  0  0  0  0  0  0
    4.2115  -17.1290   -9.4506 C   0  0  1  0  0  0  0  0  0  0  0  0
    5.3734  -17.2191   -8.6399 O   0  0  0  0  0  0  0  0  0  0  0  0
    3.0810  -17.3821   -8.4897 C   0  0  1  0  0  0  0  0  0  0  0  0
    1.9413  -17.7979   -9.1854 O   0  0  0  0  0  0  0  0  0  0  0  0
    3.6836  -18.4725   -7.6318 C   0  0  1  0  0  0  0  0  0  0  0  0
    3.5413  -19.7267   -8.2671 O   0  0  0  0  0  0  0  0  0  0  0  0
    5.1646  -18.1169   -7.5643 C   0  0  2  0  0  0  0  0  0  0  0  0
    5.6161  -17.5382   -6.2691 N   0  0  0  0  0  0  0  0  0  0  0  0
    6.4715  -18.1454   -5.3844 C   0  0  0  0  0  0  0  0  0  0  0  0
    6.6595  -17.3331   -4.3204 N   0  0  0  0  0  0  0  0  0  0  0  0
    5.9480  -16.2091   -4.5062 C   0  0  0  0  0  0  0  0  0  0  0  0
    5.7976  -15.0652   -3.7371 C   0  0  0  0  0  0  0  0  0  0  0  0
    6.4324  -14.9487   -2.5782 N   0  0  0  0  0  0  0  0  0  0  0  0
    4.9846  -14.0476   -4.1955 N   0  0  0  0  0  0  0  0  0  0  0  0
    4.3215  -14.1520   -5.4117 C   0  0  0  0  0  0  0  0  0  0  0  0
    4.4880  -15.2956   -6.1661 N   0  0  0  0  0  0  0  0  0  0  0  0
    5.2812  -16.3148   -5.7243 C   0  0  0  0  0  0  0  0  0  0  0  0
  2  3  1  1  0  0  0
  2  6  1  0  0  0  0
  2  1  1  0  0  0  0
  4  3  2  0  0  0  0
  5  3  1  0  0  0  0
  6  7  2  0  0  0  0
  8  7  1  6  0  0  0
  8  9  1  0  0  0  0
  8 10  1  0  0  0  0
 11 10  1  1  0  0  0
 11 13  1  0  0  0  0
 12 11  1  0  0  0  0
 12 17  1  0  0  0  0
 13 14  1  6  0  0  0
 13 15  1  0  0  0  0
 15 16  1  6  0  0  0
 17 18  1  1  0  0  0
 17 15  1  0  0  0  0
 18 19  1  0  0  0  0
 20 19  2  0  0  0  0
 21 27  2  0  0  0  0
 21 20  1  0  0  0  0
 22 21  1  0  0  0  0
 23 22  1  0  0  0  0
 24 22  2  0  0  0  0
 24 25  1  0  0  0  0
 25 26  2  0  0  0  0
 26 27  1  0  0  0  0
 27 18  1  0  0  0  0
M  END
>  <CHROM.1>
-19.14271947,-6.96924335,54.85393037,-133.54504246,155.13687763,-127.77711098
4.83146618,-15.71823403,-8.89171670,-1.59578103,0.91569538,1.92265530

>  <Name>
lig.pdb

>  <RI>
0

>  <Rbt.Current_Directory>
/home/itssahil/PROJECTS/Mol_Feturizer/New_Systems/rnas/4b5r

>  <Rbt.Executable>
rbdock ($Id: //depot/dev/client3/rdock/2013.1/src/exe/rbdock.cxx#4 $)

>  <Rbt.Library>
libRbt.so (2013.1, Build901 2013/11/27)

>  <Rbt.Parameter_File>
/export/apps/rDock/src/rDock_2013.1_src/data/scripts/dock_solv.prm

>  <Rbt.Receptor>
prm/pocket_docking_4.prm

>  <SCORE>
-10.3274

>  <SCORE.INTER>
-12.9107

>  <SCORE.INTER.CONST>
1

>  <SCORE.INTER.POLAR>
0

>  <SCORE.INTER.ROT>
6

>  <SCORE.INTER.SOLV>
10.0902

>  <SCORE.INTER.VDW>
-19.5705

>  <SCORE.INTER.norm>
-0.478174

>  <SCORE.INTRA>
2.57766

>  <SCORE.INTRA.DIHEDRAL>
4.56069

>  <SCORE.INTRA.DIHEDRAL.0>
10.2917

>  <SCORE.INTRA.POLAR>
0

>  <SCORE.INTRA.POLAR.0>
0

>  <SCORE.INTRA.REPUL>
0

>  <SCORE.INTRA.REPUL.0>
0

>  <SCORE.INTRA.SOLV>
-1.79252

>  <SCORE.INTRA.SOLV.lig_0>
-39.6315

>  <SCORE.INTRA.VDW>
1.19358

>  <SCORE.INTRA.VDW.0>
-4.02152

>  <SCORE.INTRA.norm>
0.095469

>  <SCORE.RESTR>
0.00560351

>  <SCORE.RESTR.CAVITY>
0.00560351

>  <SCORE.RESTR.norm>
0.000207537

>  <SCORE.SYSTEM>
0

>  <SCORE.SYSTEM.CONST>
0

>  <SCORE.SYSTEM.DIHEDRAL>
0

>  <SCORE.SYSTEM.SOLV>
0

>  <SCORE.SYSTEM.norm>
0

>  <SCORE.heavy>
27

>  <SCORE.norm>
-0.382498

>  <RMSD>
5.540

$$$$
lig.pdb
 OpenBabel11021811493D
libRbt.so/2013.1/901 2013/11/27
 27 29  0  0  0  0  0  0  0  0999 V2000
    3.2975  -17.5167  -11.4930 N   0  0  0  0  0  0  0  0  0  0  0  0
    2.2985  -16.5009  -11.0410 C   0  0  2  0  0  0  0  0  0  0  0  0
    2.5102  -15.2091  -11.8250 C   0  0  0  0  0  0  0  0  0  0  0  0
    1.5631  -14.6929  -12.4066 O   0  0  0  0  0  0  0  0  0  0  0  0
    3.6105  -14.6487  -11.9093 O   0  0  0  0  0  0  0  0  0  0  0  0
    2.3110  -16.2543   -9.5189 C   0  0  0  0  0  0  0  0  0  0  0  0
    1.9626  -14.8201   -9.0412 C   0  0  0  0  0  0  0  0  0  0  0  0
    1.9657  -14.4556   -7.2327 S   0  0  2  0  0  0  0  0  0  0  0  0
    1.0549  -12.8977   -7.1796 C   0  0  0  0  0  0  0  0  0  0  0  0
    3.6365  -13.8423   -6.9261 C   0  0  0  0  0  0  0  0  0  0  0  0
    4.5934  -15.0166   -6.7684 C   0  0  1  0  0  0  0  0  0  0  0  0
    4.6964  -15.7997   -7.9480 O   0  0  0  0  0  0  0  0  0  0  0  0
    6.0109  -14.5919   -6.4929 C   0  0  1  0  0  0  0  0  0  0  0  0
    6.1542  -14.2351   -5.1482 O   0  0  0  0  0  0  0  0  0  0  0  0
    6.7561  -15.8579   -6.8539 C   0  0  1  0  0  0  0  0  0  0  0  0
    6.7249  -16.7667   -5.7722 O   0  0  0  0  0  0  0  0  0  0  0  0
    5.9575  -16.4415   -8.0141 C   0  0  2  0  0  0  0  0  0  0  0  0
    6.5855  -16.2838   -9.3546 N   0  0  0  0  0  0  0  0  0  0  0  0
    6.9182  -17.3118  -10.2005 C   0  0  0  0  0  0  0  0  0  0  0  0
    7.4659  -16.8010  -11.3259 N   0  0  0  0  0  0  0  0  0  0  0  0
    7.4848  -15.4617  -11.2255 C   0  0  0  0  0  0  0  0  0  0  0  0
    7.9239  -14.4700  -12.0893 C   0  0  0  0  0  0  0  0  0  0  0  0
    8.4405  -14.7891  -13.2687 N   0  0  0  0  0  0  0  0  0  0  0  0
    7.8111  -13.1473  -11.7092 N   0  0  0  0  0  0  0  0  0  0  0  0
    7.2633  -12.7982  -10.4812 C   0  0  0  0  0  0  0  0  0  0  0  0
    6.8263  -13.7988   -9.6372 N   0  0  0  0  0  0  0  0  0  0  0  0
    6.9380  -15.1118   -9.9934 C   0  0  0  0  0  0  0  0  0  0  0  0
  2  3  1  6  0  0  0
  2  6  1  0  0  0  0
  2  1  1  0  0  0  0
  4  3  2  0  0  0  0
  5  3  1  0  0  0  0
  6  7  2  0  0  0  0
  8  7  1  6  0  0  0
  8  9  1  0  0  0  0
  8 10  1  0  0  0  0
 11 10  1  6  0  0  0
 11 13  1  0  0  0  0
 12 11  1  0  0  0  0
 12 17  1  0  0  0  0
 13 14  1  1  0  0  0
 13 15  1  0  0  0  0
 15 16  1  1  0  0  0
 17 18  1  6  0  0  0
 17 15  1  0  0  0  0
 18 19  1  0  0  0  0
 20 19  2  0  0  0  0
 21 27  2  0  0  0  0
 21 20  1  0  0  0  0
 22 21  1  0  0  0  0
 23 22  1  0  0  0  0
 24 22  2  0  0  0  0
 24 25  1  0  0  0  0
 25 26  2  0  0  0  0
 26 27  1  0  0  0  0
 27 18  1  0  0  0  0
M  END
>  <CHROM.1>
127.27862695,147.63498949,-163.92571472,-81.89208722,63.25702612,-119.23805487
4.95021157,-15.12437413,-9.28937833,0.73360886,0.05731526,-1.62145795

>  <Name>
lig.pdb

>  <RI>
0

>  <Rbt.Current_Directory>
/home/itssahil/PROJECTS/Mol_Feturizer/New_Systems/rnas/4b5r

>  <Rbt.Executable>
rbdock ($Id: //depot/dev/client3/rdock/2013.1/src/exe/rbdock.cxx#4 $)

>  <Rbt.Library>
libRbt.so (2013.1, Build901 2013/11/27)

>  <Rbt.Parameter_File>
/export/apps/rDock/src/rDock_2013.1_src/data/scripts/dock_solv.prm

>  <Rbt.Receptor>
prm/pocket_docking_3.prm

>  <SCORE>
-15.0765

>  <SCORE.INTER>
-13.7194

>  <SCORE.INTER.CONST>
1

>  <SCORE.INTER.POLAR>
0

>  <SCORE.INTER.ROT>
6

>  <SCORE.INTER.SOLV>
11.9241

>  <SCORE.INTER.VDW>
-20.721

>  <SCORE.INTER.norm>
-0.508127

>  <SCORE.INTRA>
-1.35709

>  <SCORE.INTRA.DIHEDRAL>
-0.513156

>  <SCORE.INTRA.DIHEDRAL.0>
10.2917

>  <SCORE.INTRA.POLAR>
0

>  <SCORE.INTRA.POLAR.0>
0

>  <SCORE.INTRA.REPUL>
0

>  <SCORE.INTRA.REPUL.0>
0

>  <SCORE.INTRA.SOLV>
-1.8477

>  <SCORE.INTRA.SOLV.lig_0>
-39.6315

>  <SCORE.INTRA.VDW>
-0.176657

>  <SCORE.INTRA.VDW.0>
-4.02152

>  <SCORE.INTRA.norm>
-0.0502624

>  <SCORE.RESTR>
0

>  <SCORE.RESTR.CAVITY>
0

>  <SCORE.RESTR.norm>
0

>  <SCORE.SYSTEM>
0

>  <SCORE.SYSTEM.CONST>
0

>  <SCORE.SYSTEM.DIHEDRAL>
0

>  <SCORE.SYSTEM.SOLV>
0

>  <SCORE.SYSTEM.norm>
0

>  <SCORE.heavy>
27

>  <SCORE.norm>
-0.558389

>  <RMSD>
5.543

$$$$
lig.pdb
 OpenBabel11021811493D
libRbt.so/2013.1/901 2013/11/27
 27 29  0  0  0  0  0  0  0  0999 V2000
    7.9551  -10.5771  -17.2716 N   0  0  0  0  0  0  0  0  0  0  0  0
    6.5978  -11.1809  -17.4367 C   0  0  2  0  0  0  0  0  0  0  0  0
    5.6488  -10.5636  -16.4138 C   0  0  0  0  0  0  0  0  0  0  0  0
    4.6270  -10.0059  -16.7968 O   0  0  0  0  0  0  0  0  0  0  0  0
    5.8647  -10.5932  -15.1955 O   0  0  0  0  0  0  0  0  0  0  0  0
    6.5923  -12.7213  -17.3648 C   0  0  0  0  0  0  0  0  0  0  0  0
    5.6637  -13.3672  -16.3031 C   0  0  0  0  0  0  0  0  0  0  0  0
    5.6142  -15.2058  -16.1597 S   0  0  2  0  0  0  0  0  0  0  0  0
    5.1521  -15.6838  -17.8382 C   0  0  0  0  0  0  0  0  0  0  0  0
    4.0519  -15.5236  -15.3113 C   0  0  0  0  0  0  0  0  0  0  0  0
    4.0556  -14.8339  -13.9535 C   0  0  1  0  0  0  0  0  0  0  0  0
    2.7686  -14.7979  -13.3554 O   0  0  0  0  0  0  0  0  0  0  0  0
    4.9075  -15.5403  -12.9334 C   0  0  1  0  0  0  0  0  0  0  0  0
    6.2573  -15.2393  -13.1414 O   0  0  0  0  0  0  0  0  0  0  0  0
    4.3578  -14.9492  -11.6541 C   0  0  1  0  0  0  0  0  0  0  0  0
    4.9492  -13.6900  -11.4057 O   0  0  0  0  0  0  0  0  0  0  0  0
    2.8741  -14.7507  -11.9436 C   0  0  2  0  0  0  0  0  0  0  0  0
    1.9669  -15.7343  -11.2910 N   0  0  0  0  0  0  0  0  0  0  0  0
    1.7492  -17.0192  -11.7207 C   0  0  0  0  0  0  0  0  0  0  0  0
    0.8693  -17.6219  -10.8901 N   0  0  0  0  0  0  0  0  0  0  0  0
    0.5218  -16.7524   -9.9272 C   0  0  0  0  0  0  0  0  0  0  0  0
   -0.3280  -16.8619   -8.8371 C   0  0  0  0  0  0  0  0  0  0  0  0
   -0.9725  -17.9971   -8.6013 N   0  0  0  0  0  0  0  0  0  0  0  0
   -0.4898  -15.7775   -7.9976 N   0  0  0  0  0  0  0  0  0  0  0  0
    0.1863  -14.5858   -8.2270 C   0  0  0  0  0  0  0  0  0  0  0  0
    1.0324  -14.4975   -9.3136 N   0  0  0  0  0  0  0  0  0  0  0  0
    1.1976  -15.5568  -10.1585 C   0  0  0  0  0  0  0  0  0  0  0  0
  2  3  1  1  0  0  0
  2  6  1  0  0  0  0
  2  1  1  0  0  0  0
  4  3  2  0  0  0  0
  5  3  1  0  0  0  0
  6  7  2  0  0  0  0
  8  7  1  6  0  0  0
  8  9  1  0  0  0  0
  8 10  1  0  0  0  0
 11 10  1  6  0  0  0
 11 13  1  0  0  0  0
 12 11  1  0  0  0  0
 12 17  1  0  0  0  0
 13 14  1  6  0  0  0
 13 15  1  0  0  0  0
 15 16  1  6  0  0  0
 17 18  1  1  0  0  0
 17 15  1  0  0  0  0
 18 19  1  0  0  0  0
 20 19  2  0  0  0  0
 21 27  2  0  0  0  0
 21 20  1  0  0  0  0
 22 21  1  0  0  0  0
 23 22  1  0  0  0  0
 24 22  2  0  0  0  0
 24 25  1  0  0  0  0
 25 26  2  0  0  0  0
 26 27  1  0  0  0  0
 27 18  1  0  0  0  0
M  END
>  <CHROM.1>
122.89098017,123.83915282,-56.85249571,-59.72306214,167.38303190,41.40930105
3.62967177,-14.49373495,-13.22243897,0.18376603,0.96043242,0.28109326

>  <Name>
lig.pdb

>  <RI>
0

>  <Rbt.Current_Directory>
/home/itssahil/PROJECTS/Mol_Feturizer/New_Systems/rnas/4b5r

>  <Rbt.Executable>
rbdock ($Id: //depot/dev/client3/rdock/2013.1/src/exe/rbdock.cxx#4 $)

>  <Rbt.Library>
libRbt.so (2013.1, Build901 2013/11/27)

>  <Rbt.Parameter_File>
/export/apps/rDock/src/rDock_2013.1_src/data/scripts/dock_solv.prm

>  <Rbt.Receptor>
prm/blind_docking_60.prm

>  <SCORE>
-15.8372

>  <SCORE.INTER>
-15.013

>  <SCORE.INTER.CONST>
1

>  <SCORE.INTER.POLAR>
0

>  <SCORE.INTER.ROT>
6

>  <SCORE.INTER.SOLV>
14.4719

>  <SCORE.INTER.VDW>
-22.4327

>  <SCORE.INTER.norm>
-0.556037

>  <SCORE.INTRA>
-0.824207

>  <SCORE.INTRA.DIHEDRAL>
-2.55048

>  <SCORE.INTRA.DIHEDRAL.0>
10.2917

>  <SCORE.INTRA.POLAR>
0

>  <SCORE.INTRA.POLAR.0>
0

>  <SCORE.INTRA.REPUL>
0

>  <SCORE.INTRA.REPUL.0>
0

>  <SCORE.INTRA.SOLV>
-3.21368

>  <SCORE.INTRA.SOLV.lig_0>
-39.6315

>  <SCORE.INTRA.VDW>
2.05787

>  <SCORE.INTRA.VDW.0>
-4.02152

>  <SCORE.INTRA.norm>
-0.0305262

>  <SCORE.RESTR>
0

>  <SCORE.RESTR.CAVITY>
0

>  <SCORE.RESTR.norm>
0

>  <SCORE.SYSTEM>
0

>  <SCORE.SYSTEM.CONST>
0

>  <SCORE.SYSTEM.DIHEDRAL>
0

>  <SCORE.SYSTEM.SOLV>
0

>  <SCORE.SYSTEM.norm>
0

>  <SCORE.heavy>
27

>  <SCORE.norm>
-0.586564

>  <RMSD>
5.563

$$$$
lig.pdb
 OpenBabel11021811493D
libRbt.so/2013.1/901 2013/11/27
 27 29  0  0  0  0  0  0  0  0999 V2000
    2.5568  -16.3643  -12.5835 N   0  0  0  0  0  0  0  0  0  0  0  0
    2.3945  -14.9434  -12.1495 C   0  0  2  0  0  0  0  0  0  0  0  0
    3.7726  -14.3045  -12.0054 C   0  0  0  0  0  0  0  0  0  0  0  0
    4.6758  -14.9314  -11.4640 O   0  0  0  0  0  0  0  0  0  0  0  0
    4.0281  -13.1631  -12.4099 O   0  0  0  0  0  0  0  0  0  0  0  0
    1.5518  -14.7794  -10.8685 C   0  0  0  0  0  0  0  0  0  0  0  0
    2.2306  -14.0595   -9.6737 C   0  0  0  0  0  0  0  0  0  0  0  0
    1.2800  -13.8360   -8.1085 S   0  0  2  0  0  0  0  0  0  0  0  0
    2.5759  -13.2876   -6.9774 C   0  0  0  0  0  0  0  0  0  0  0  0
    1.0465  -15.5235   -7.5090 C   0  0  0  0  0  0  0  0  0  0  0  0
    2.1509  -16.4194   -8.0542 C   0  0  1  0  0  0  0  0  0  0  0  0
    3.4461  -15.9894   -7.6634 O   0  0  0  0  0  0  0  0  0  0  0  0
    2.0714  -17.8333   -7.5445 C   0  0  1  0  0  0  0  0  0  0  0  0
    1.0885  -18.5425   -8.2423 O   0  0  0  0  0  0  0  0  0  0  0  0
    3.4743  -18.3155   -7.8408 C   0  0  1  0  0  0  0  0  0  0  0  0
    3.5767  -18.7149   -9.1925 O   0  0  0  0  0  0  0  0  0  0  0  0
    4.3451  -17.0834   -7.6214 C   0  0  2  0  0  0  0  0  0  0  0  0
    5.1440  -17.0911   -6.3652 N   0  0  0  0  0  0  0  0  0  0  0  0
    5.9576  -18.1147   -5.9491 C   0  0  0  0  0  0  0  0  0  0  0  0
    6.5248  -17.7790   -4.7688 N   0  0  0  0  0  0  0  0  0  0  0  0
    6.0990  -16.5538   -4.4200 C   0  0  0  0  0  0  0  0  0  0  0  0
    6.3768  -15.7486   -3.3259 C   0  0  0  0  0  0  0  0  0  0  0  0
    7.2102  -16.1653   -2.3817 N   0  0  0  0  0  0  0  0  0  0  0  0
    5.7805  -14.5065   -3.2351 N   0  0  0  0  0  0  0  0  0  0  0  0
    4.9134  -14.0534   -4.2212 C   0  0  0  0  0  0  0  0  0  0  0  0
    4.6534  -14.8664   -5.3057 N   0  0  0  0  0  0  0  0  0  0  0  0
    5.2277  -16.1005   -5.4073 C   0  0  0  0  0  0  0  0  0  0  0  0
  2  3  1  1  0  0  0
  2  6  1  0  0  0  0
  2  1  1  0  0  0  0
  4  3  2  0  0  0  0
  5  3  1  0  0  0  0
  6  7  2  0  0  0  0
  8  7  1  6  0  0  0
  8  9  1  0  0  0  0
  8 10  1  0  0  0  0
 11 10  1  1  0  0  0
 11 13  1  0  0  0  0
 12 11  1  0  0  0  0
 12 17  1  0  0  0  0
 13 14  1  6  0  0  0
 13 15  1  0  0  0  0
 15 16  1  6  0  0  0
 17 18  1  1  0  0  0
 17 15  1  0  0  0  0
 18 19  1  0  0  0  0
 20 19  2  0  0  0  0
 21 27  2  0  0  0  0
 21 20  1  0  0  0  0
 22 21  1  0  0  0  0
 23 22  1  0  0  0  0
 24 22  2  0  0  0  0
 24 25  1  0  0  0  0
 25 26  2  0  0  0  0
 26 27  1  0  0  0  0
 27 18  1  0  0  0  0
M  END
>  <CHROM.1>
-43.16572606,122.26470145,168.88328033,25.22574189,59.63028295,170.43593190
3.70551446,-15.79705220,-7.69388580,-3.09096138,-1.12204211,0.22456311

>  <Name>
lig.pdb

>  <RI>
0

>  <Rbt.Current_Directory>
/home/itssahil/PROJECTS/Mol_Feturizer/New_Systems/rnas/4b5r

>  <Rbt.Executable>
rbdock ($Id: //depot/dev/client3/rdock/2013.1/src/exe/rbdock.cxx#4 $)

>  <Rbt.Library>
libRbt.so (2013.1, Build901 2013/11/27)

>  <Rbt.Parameter_File>
/export/apps/rDock/src/rDock_2013.1_src/data/scripts/dock_solv.prm

>  <Rbt.Receptor>
prm/pocket_docking_5.prm

>  <SCORE>
-18.2755

>  <SCORE.INTER>
-19.8086

>  <SCORE.INTER.CONST>
1

>  <SCORE.INTER.POLAR>
0

>  <SCORE.INTER.ROT>
6

>  <SCORE.INTER.SOLV>
14.1496

>  <SCORE.INTER.VDW>
-25.5223

>  <SCORE.INTER.norm>
-0.733653

>  <SCORE.INTRA>
1.5331

>  <SCORE.INTRA.DIHEDRAL>
-1.26124

>  <SCORE.INTRA.DIHEDRAL.0>
10.2917

>  <SCORE.INTRA.POLAR>
0

>  <SCORE.INTRA.POLAR.0>
0

>  <SCORE.INTRA.REPUL>
0.197445

>  <SCORE.INTRA.REPUL.0>
0

>  <SCORE.INTRA.SOLV>
-2.12483

>  <SCORE.INTRA.SOLV.lig_0>
-39.6315

>  <SCORE.INTRA.VDW>
2.2389

>  <SCORE.INTRA.VDW.0>
-4.02152

>  <SCORE.INTRA.norm>
0.0567813

>  <SCORE.RESTR>
0

>  <SCORE.RESTR.CAVITY>
0

>  <SCORE.RESTR.norm>
0

>  <SCORE.SYSTEM>
0

>  <SCORE.SYSTEM.CONST>
0

>  <SCORE.SYSTEM.DIHEDRAL>
0

>  <SCORE.SYSTEM.SOLV>
0

>  <SCORE.SYSTEM.norm>
0

>  <SCORE.heavy>
27

>  <SCORE.norm>
-0.676872

>  <RMSD>
5.564

$$$$
lig.pdb
 OpenBabel11021811493D
libRbt.so/2013.1/901 2013/11/27
 27 29  0  0  0  0  0  0  0  0999 V2000
    0.7272  -13.8319   -7.8297 N   0  0  0  0  0  0  0  0  0  0  0  0
    0.8486  -14.7465   -9.0056 C   0  0  2  0  0  0  0  0  0  0  0  0
   -0.0560  -15.9567   -8.7926 C   0  0  0  0  0  0  0  0  0  0  0  0
   -1.1252  -16.0243   -9.3874 O   0  0  0  0  0  0  0  0  0  0  0  0
    0.2379  -16.8878   -8.0319 O   0  0  0  0  0  0  0  0  0  0  0  0
    2.2995  -15.1653   -9.3174 C   0  0  0  0  0  0  0  0  0  0  0  0
    3.4161  -14.4949   -8.4745 C   0  0  0  0  0  0  0  0  0  0  0  0
    5.1748  -14.9464   -8.8010 S   0  0  2  0  0  0  0  0  0  0  0  0
    5.6505  -13.6875  -10.0045 C   0  0  0  0  0  0  0  0  0  0  0  0
    5.0495  -16.3797   -9.8928 C   0  0  0  0  0  0  0  0  0  0  0  0
    5.0019  -17.6552   -9.0619 C   0  0  1  0  0  0  0  0  0  0  0  0
    6.0596  -17.7323   -8.1182 O   0  0  0  0  0  0  0  0  0  0  0  0
    3.7591  -17.7670   -8.2203 C   0  0  1  0  0  0  0  0  0  0  0  0
    2.6806  -18.1844   -9.0067 O   0  0  0  0  0  0  0  0  0  0  0  0
    4.1973  -18.8075   -7.2134 C   0  0  1  0  0  0  0  0  0  0  0  0
    4.0519  -20.1035   -7.7575 O   0  0  0  0  0  0  0  0  0  0  0  0
    5.6803  -18.5217   -7.0048 C   0  0  2  0  0  0  0  0  0  0  0  0
    6.0194  -17.8558   -5.7172 N   0  0  0  0  0  0  0  0  0  0  0  0
    6.7860  -18.4029   -4.7192 C   0  0  0  0  0  0  0  0  0  0  0  0
    6.8857  -17.5191   -3.7011 N   0  0  0  0  0  0  0  0  0  0  0  0
    6.2049  -16.4083   -4.0275 C   0  0  0  0  0  0  0  0  0  0  0  0
    5.9974  -15.2131   -3.3560 C   0  0  0  0  0  0  0  0  0  0  0  0
    6.5267  -15.0184   -2.1554 N   0  0  0  0  0  0  0  0  0  0  0  0
    5.2388  -14.2270   -3.9550 N   0  0  0  0  0  0  0  0  0  0  0  0
    4.6865  -14.4135   -5.2159 C   0  0  0  0  0  0  0  0  0  0  0  0
    4.9087  -15.6074   -5.8714 N   0  0  0  0  0  0  0  0  0  0  0  0
    5.6491  -16.5962   -5.2906 C   0  0  0  0  0  0  0  0  0  0  0  0
  2  3  1  1  0  0  0
  2  6  1  0  0  0  0
  2  1  1  0  0  0  0
  4  3  2  0  0  0  0
  5  3  1  0  0  0  0
  6  7  2  0  0  0  0
  8  7  1  6  0  0  0
  8  9  1  0  0  0  0
  8 10  1  0  0  0  0
 11 10  1  1  0  0  0
 11 13  1  0  0  0  0
 12 11  1  0  0  0  0
 12 17  1  0  0  0  0
 13 14  1  6  0  0  0
 13 15  1  0  0  0  0
 15 16  1  6  0  0  0
 17 18  1  1  0  0  0
 17 15  1  0  0  0  0
 18 19  1  0  0  0  0
 20 19  2  0  0  0  0
 21 27  2  0  0  0  0
 21 20  1  0  0  0  0
 22 21  1  0  0  0  0
 23 22  1  0  0  0  0
 24 22  2  0  0  0  0
 24 25  1  0  0  0  0
 25 26  2  0  0  0  0
 26 27  1  0  0  0  0
 27 18  1  0  0  0  0
M  END
>  <CHROM.1>
102.88886920,-5.38002186,92.18258273,-89.96379693,-51.56867604,-124.60326193
4.17000538,-16.33914293,-7.18213837,2.83620095,0.71721769,-2.55536829

>  <Name>
lig.pdb

>  <RI>
0

>  <Rbt.Current_Directory>
/home/itssahil/PROJECTS/Mol_Feturizer/New_Systems/rnas/4b5r

>  <Rbt.Executable>
rbdock ($Id: //depot/dev/client3/rdock/2013.1/src/exe/rbdock.cxx#4 $)

>  <Rbt.Library>
libRbt.so (2013.1, Build901 2013/11/27)

>  <Rbt.Parameter_File>
/export/apps/rDock/src/rDock_2013.1_src/data/scripts/dock_solv.prm

>  <Rbt.Receptor>
prm/pocket_docking_8.prm

>  <SCORE>
-15.239

>  <SCORE.INTER>
-13.9866

>  <SCORE.INTER.CONST>
1

>  <SCORE.INTER.POLAR>
0

>  <SCORE.INTER.ROT>
6

>  <SCORE.INTER.SOLV>
16.1733

>  <SCORE.INTER.VDW>
-22.3155

>  <SCORE.INTER.norm>
-0.518023

>  <SCORE.INTRA>
-1.25236

>  <SCORE.INTRA.DIHEDRAL>
-0.863969

>  <SCORE.INTRA.DIHEDRAL.0>
10.2917

>  <SCORE.INTRA.POLAR>
0

>  <SCORE.INTRA.POLAR.0>
0

>  <SCORE.INTRA.REPUL>
0

>  <SCORE.INTRA.REPUL.0>
0

>  <SCORE.INTRA.SOLV>
-0.857162

>  <SCORE.INTRA.SOLV.lig_0>
-39.6315

>  <SCORE.INTRA.VDW>
-0.391796

>  <SCORE.INTRA.VDW.0>
-4.02152

>  <SCORE.INTRA.norm>
-0.0463838

>  <SCORE.RESTR>
0

>  <SCORE.RESTR.CAVITY>
0

>  <SCORE.RESTR.norm>
0

>  <SCORE.SYSTEM>
0

>  <SCORE.SYSTEM.CONST>
0

>  <SCORE.SYSTEM.DIHEDRAL>
0

>  <SCORE.SYSTEM.SOLV>
0

>  <SCORE.SYSTEM.norm>
0

>  <SCORE.heavy>
27

>  <SCORE.norm>
-0.564407

>  <RMSD>
5.569

$$$$
lig.pdb
 OpenBabel11021811493D
libRbt.so/2013.1/901 2013/11/27
 27 29  0  0  0  0  0  0  0  0999 V2000
   -0.9707  -17.9804   -8.4628 N   0  0  0  0  0  0  0  0  0  0  0  0
    0.0805  -17.0567   -8.9880 C   0  0  2  0  0  0  0  0  0  0  0  0
    1.4405  -17.7420   -8.8926 C   0  0  0  0  0  0  0  0  0  0  0  0
    2.2325  -17.6456   -9.8227 O   0  0  0  0  0  0  0  0  0  0  0  0
    1.7888  -18.4065   -7.9083 O   0  0  0  0  0  0  0  0  0  0  0  0
    0.0878  -15.6743   -8.3049 C   0  0  0  0  0  0  0  0  0  0  0  0
    1.3375  -15.3218   -7.4560 C   0  0  0  0  0  0  0  0  0  0  0  0
    1.4077  -13.6858   -6.6062 S   0  0  2  0  0  0  0  0  0  0  0  0
    1.1658  -12.5523   -7.9904 C   0  0  0  0  0  0  0  0  0  0  0  0
    3.1719  -13.4355   -6.3120 C   0  0  0  0  0  0  0  0  0  0  0  0
    3.8787  -14.7832   -6.2526 C   0  0  1  0  0  0  0  0  0  0  0  0
    4.0104  -15.3880   -7.5302 O   0  0  0  0  0  0  0  0  0  0  0  0
    5.2947  -14.6871   -5.7516 C   0  0  1  0  0  0  0  0  0  0  0  0
    5.3058  -14.5680   -4.3582 O   0  0  0  0  0  0  0  0  0  0  0  0
    5.8528  -16.0058   -6.2392 C   0  0  1  0  0  0  0  0  0  0  0  0
    5.5116  -17.0413   -5.3401 O   0  0  0  0  0  0  0  0  0  0  0  0
    5.1376  -16.2451   -7.5642 C   0  0  2  0  0  0  0  0  0  0  0  0
    5.9669  -16.0155   -8.7791 N   0  0  0  0  0  0  0  0  0  0  0  0
    7.0027  -16.8138   -9.1949 C   0  0  0  0  0  0  0  0  0  0  0  0
    7.5261  -16.3049  -10.3326 N   0  0  0  0  0  0  0  0  0  0  0  0
    6.8415  -15.1978  -10.6635 C   0  0  0  0  0  0  0  0  0  0  0  0
    6.9583  -14.3141  -11.7256 C   0  0  0  0  0  0  0  0  0  0  0  0
    7.8878  -14.5008  -12.6534 N   0  0  0  0  0  0  0  0  0  0  0  0
    6.0919  -13.2421  -11.8082 N   0  0  0  0  0  0  0  0  0  0  0  0
    5.1077  -13.0398  -10.8490 C   0  0  0  0  0  0  0  0  0  0  0  0
    5.0028  -13.9331   -9.8023 N   0  0  0  0  0  0  0  0  0  0  0  0
    5.8563  -14.9935   -9.7005 C   0  0  0  0  0  0  0  0  0  0  0  0
  2  3  1  1  0  0  0
  2  6  1  0  0  0  0
  2  1  1  0  0  0  0
  4  3  2  0  0  0  0
  5  3  1  0  0  0  0
  6  7  2  0  0  0  0
  8  7  1  6  0  0  0
  8  9  1  0  0  0  0
  8 10  1  0  0  0  0
 11 10  1  6  0  0  0
 11 13  1  0  0  0  0
 12 11  1  0  0  0  0
 12 17  1  0  0  0  0
 13 14  1  1  0  0  0
 13 15  1  0  0  0  0
 15 16  1  1  0  0  0
 17 18  1  6  0  0  0
 17 15  1  0  0  0  0
 18 19  1  0  0  0  0
 20 19  2  0  0  0  0
 21 27  2  0  0  0  0
 21 20  1  0  0  0  0
 22 21  1  0  0  0  0
 23 22  1  0  0  0  0
 24 22  2  0  0  0  0
 24 25  1  0  0  0  0
 25 26  2  0  0  0  0
 26 27  1  0  0  0  0
 27 18  1  0  0  0  0
M  END
>  <CHROM.1>
137.74806875,114.09960543,-55.89170751,-25.15221084,73.64130967,-169.84024897
3.95307408,-15.36590423,-8.34413725,2.67746049,0.25911709,1.41109785

>  <Name>
lig.pdb

>  <RI>
0

>  <Rbt.Current_Directory>
/home/itssahil/PROJECTS/Mol_Feturizer/New_Systems/rnas/4b5r

>  <Rbt.Executable>
rbdock ($Id: //depot/dev/client3/rdock/2013.1/src/exe/rbdock.cxx#4 $)

>  <Rbt.Library>
libRbt.so (2013.1, Build901 2013/11/27)

>  <Rbt.Parameter_File>
/export/apps/rDock/src/rDock_2013.1_src/data/scripts/dock_solv.prm

>  <Rbt.Receptor>
prm/pocket_docking_2.prm

>  <SCORE>
-11.9415

>  <SCORE.INTER>
-14.3455

>  <SCORE.INTER.CONST>
1

>  <SCORE.INTER.POLAR>
0

>  <SCORE.INTER.ROT>
6

>  <SCORE.INTER.SOLV>
17.669

>  <SCORE.INTER.VDW>
-23.0534

>  <SCORE.INTER.norm>
-0.531315

>  <SCORE.INTRA>
1.55496

>  <SCORE.INTRA.DIHEDRAL>
0.893532

>  <SCORE.INTRA.DIHEDRAL.0>
10.2917

>  <SCORE.INTRA.POLAR>
0

>  <SCORE.INTRA.POLAR.0>
0

>  <SCORE.INTRA.REPUL>
0

>  <SCORE.INTRA.REPUL.0>
0

>  <SCORE.INTRA.SOLV>
-2.31103

>  <SCORE.INTRA.SOLV.lig_0>
-39.6315

>  <SCORE.INTRA.VDW>
2.26371

>  <SCORE.INTRA.VDW.0>
-4.02152

>  <SCORE.INTRA.norm>
0.0575912

>  <SCORE.RESTR>
0.849059

>  <SCORE.RESTR.CAVITY>
0.849059

>  <SCORE.RESTR.norm>
0.0314466

>  <SCORE.SYSTEM>
0

>  <SCORE.SYSTEM.CONST>
0

>  <SCORE.SYSTEM.DIHEDRAL>
0

>  <SCORE.SYSTEM.SOLV>
0

>  <SCORE.SYSTEM.norm>
0

>  <SCORE.heavy>
27

>  <SCORE.norm>
-0.442278

>  <RMSD>
5.579

$$$$
lig.pdb
 OpenBabel11021811493D
libRbt.so/2013.1/901 2013/11/27
 27 29  0  0  0  0  0  0  0  0999 V2000
    5.0296  -23.3692   -7.0565 N   0  0  0  0  0  0  0  0  0  0  0  0
    5.0440  -21.8747   -7.0681 C   0  0  2  0  0  0  0  0  0  0  0  0
    4.9703  -21.3857   -8.5116 C   0  0  0  0  0  0  0  0  0  0  0  0
    5.7648  -21.8190   -9.3379 O   0  0  0  0  0  0  0  0  0  0  0  0
    4.1374  -20.5550   -8.8963 O   0  0  0  0  0  0  0  0  0  0  0  0
    6.2430  -21.2609   -6.3173 C   0  0  0  0  0  0  0  0  0  0  0  0
    5.9265  -20.1339   -5.2994 C   0  0  0  0  0  0  0  0  0  0  0  0
    7.3162  -19.3519   -4.3717 S   0  0  2  0  0  0  0  0  0  0  0  0
    7.2631  -20.2613   -2.8130 C   0  0  0  0  0  0  0  0  0  0  0  0
    6.6282  -17.7734   -3.8272 C   0  0  0  0  0  0  0  0  0  0  0  0
    6.5182  -16.8248   -5.0136 C   0  0  1  0  0  0  0  0  0  0  0  0
    5.8283  -17.4015   -6.1121 O   0  0  0  0  0  0  0  0  0  0  0  0
    5.7290  -15.5808   -4.7052 C   0  0  1  0  0  0  0  0  0  0  0  0
    6.5195  -14.6727   -3.9936 O   0  0  0  0  0  0  0  0  0  0  0  0
    5.3953  -15.1091   -6.1032 C   0  0  1  0  0  0  0  0  0  0  0  0
    6.4834  -14.3902   -6.6474 O   0  0  0  0  0  0  0  0  0  0  0  0
    5.2074  -16.3979   -6.8957 C   0  0  2  0  0  0  0  0  0  0  0  0
    3.7945  -16.7432   -7.2130 N   0  0  0  0  0  0  0  0  0  0  0  0
    3.2727  -18.0122   -7.2297 C   0  0  0  0  0  0  0  0  0  0  0  0
    1.9626  -17.9491   -7.5570 N   0  0  0  0  0  0  0  0  0  0  0  0
    1.6273  -16.6619   -7.7432 C   0  0  0  0  0  0  0  0  0  0  0  0
    0.4279  -16.0518   -8.0775 C   0  0  0  0  0  0  0  0  0  0  0  0
   -0.6632  -16.7807   -8.2723 N   0  0  0  0  0  0  0  0  0  0  0  0
    0.3823  -14.6770   -8.1986 N   0  0  0  0  0  0  0  0  0  0  0  0
    1.5148  -13.9006   -7.9879 C   0  0  0  0  0  0  0  0  0  0  0  0
    2.6983  -14.5251   -7.6502 N   0  0  0  0  0  0  0  0  0  0  0  0
    2.7632  -15.8836   -7.5345 C   0  0  0  0  0  0  0  0  0  0  0  0
  2  3  1  6  0  0  0
  2  6  1  0  0  0  0
  2  1  1  0  0  0  0
  4  3  2  0  0  0  0
  5  3  1  0  0  0  0
  6  7  2  0  0  0  0
  8  7  1  6  0  0  0
  8  9  1  0  0  0  0
  8 10  1  0  0  0  0
 11 10  1  1  0  0  0
 11 13  1  0  0  0  0
 12 11  1  0  0  0  0
 12 17  1  0  0  0  0
 13 14  1  6  0  0  0
 13 15  1  0  0  0  0
 15 16  1  6  0  0  0
 17 18  1  1  0  0  0
 17 15  1  0  0  0  0
 18 19  1  0  0  0  0
 20 19  2  0  0  0  0
 21 27  2  0  0  0  0
 21 20  1  0  0  0  0
 22 21  1  0  0  0  0
 23 22  1  0  0  0  0
 24 22  2  0  0  0  0
 24 25  1  0  0  0  0
 25 26  2  0  0  0  0
 26 27  1  0  0  0  0
 27 18  1  0  0  0  0
M  END
>  <CHROM.1>
-52.22715645,-131.19426354,-97.40202904,-73.40426685,52.16878302,-23.49730859
4.56710040,-17.84150043,-6.55621890,0.67282960,0.63779561,-2.85705680

>  <Name>
lig.pdb

>  <RI>
0

>  <Rbt.Current_Directory>
/home/itssahil/PROJECTS/Mol_Feturizer/New_Systems/rnas/4b5r

>  <Rbt.Executable>
rbdock ($Id: //depot/dev/client3/rdock/2013.1/src/exe/rbdock.cxx#4 $)

>  <Rbt.Library>
libRbt.so (2013.1, Build901 2013/11/27)

>  <Rbt.Parameter_File>
/export/apps/rDock/src/rDock_2013.1_src/data/scripts/dock_solv.prm

>  <Rbt.Receptor>
prm/pocket_docking_8.prm

>  <SCORE>
-19.0714

>  <SCORE.INTER>
-17.6414

>  <SCORE.INTER.CONST>
1

>  <SCORE.INTER.POLAR>
0

>  <SCORE.INTER.ROT>
6

>  <SCORE.INTER.SOLV>
11.7975

>  <SCORE.INTER.VDW>
-23.2934

>  <SCORE.INTER.norm>
-0.653385

>  <SCORE.INTRA>
-1.4372

>  <SCORE.INTRA.DIHEDRAL>
-1.70975

>  <SCORE.INTRA.DIHEDRAL.0>
10.2917

>  <SCORE.INTRA.POLAR>
0

>  <SCORE.INTRA.POLAR.0>
0

>  <SCORE.INTRA.REPUL>
0

>  <SCORE.INTRA.REPUL.0>
0

>  <SCORE.INTRA.SOLV>
-2.97411

>  <SCORE.INTRA.SOLV.lig_0>
-39.6315

>  <SCORE.INTRA.VDW>
0.904734

>  <SCORE.INTRA.VDW.0>
-4.02152

>  <SCORE.INTRA.norm>
-0.0532295

>  <SCORE.RESTR>
0.00722342

>  <SCORE.RESTR.CAVITY>
0.00722342

>  <SCORE.RESTR.norm>
0.000267534

>  <SCORE.SYSTEM>
0

>  <SCORE.SYSTEM.CONST>
0

>  <SCORE.SYSTEM.DIHEDRAL>
0

>  <SCORE.SYSTEM.SOLV>
0

>  <SCORE.SYSTEM.norm>
0

>  <SCORE.heavy>
27

>  <SCORE.norm>
-0.706347

>  <RMSD>
5.580

$$$$
lig.pdb
 OpenBabel11021811493D
libRbt.so/2013.1/901 2013/11/27
 27 29  0  0  0  0  0  0  0  0999 V2000
    5.0138  -16.5326  -12.2069 N   0  0  0  0  0  0  0  0  0  0  0  0
    3.5304  -16.3508  -12.1910 C   0  0  2  0  0  0  0  0  0  0  0  0
    3.1798  -15.0435  -12.8955 C   0  0  0  0  0  0  0  0  0  0  0  0
    3.5249  -14.8724  -14.0588 O   0  0  0  0  0  0  0  0  0  0  0  0
    2.5582  -14.1285  -12.3404 O   0  0  0  0  0  0  0  0  0  0  0  0
    2.9125  -16.4232  -10.7800 C   0  0  0  0  0  0  0  0  0  0  0  0
    1.5307  -17.1177  -10.6578 C   0  0  0  0  0  0  0  0  0  0  0  0
    0.7323  -17.2326   -8.9987 S   0  0  2  0  0  0  0  0  0  0  0  0
    1.3605  -15.7431   -8.1948 C   0  0  0  0  0  0  0  0  0  0  0  0
    1.7158  -18.4803   -8.1397 C   0  0  0  0  0  0  0  0  0  0  0  0
    3.1815  -18.3343   -8.5267 C   0  0  1  0  0  0  0  0  0  0  0  0
    3.8030  -17.2205   -7.9033 O   0  0  0  0  0  0  0  0  0  0  0  0
    4.0259  -19.5044   -8.0985 C   0  0  1  0  0  0  0  0  0  0  0  0
    3.8513  -20.5738   -8.9827 O   0  0  0  0  0  0  0  0  0  0  0  0
    5.4074  -18.8927   -8.1721 C   0  0  1  0  0  0  0  0  0  0  0  0
    5.8833  -18.9231   -9.5023 O   0  0  0  0  0  0  0  0  0  0  0  0
    5.1943  -17.4417   -7.7556 C   0  0  2  0  0  0  0  0  0  0  0  0
    5.6624  -17.1039   -6.3834 N   0  0  0  0  0  0  0  0  0  0  0  0
    6.5211  -17.8632   -5.6290 C   0  0  0  0  0  0  0  0  0  0  0  0
    6.7254  -17.2531   -4.4401 N   0  0  0  0  0  0  0  0  0  0  0  0
    6.0213  -16.1095   -4.4169 C   0  0  0  0  0  0  0  0  0  0  0  0
    5.8872  -15.1187   -3.4562 C   0  0  0  0  0  0  0  0  0  0  0  0
    6.5336  -15.2129   -2.3017 N   0  0  0  0  0  0  0  0  0  0  0  0
    5.0781  -14.0310   -3.7190 N   0  0  0  0  0  0  0  0  0  0  0  0
    4.4029  -13.9146   -4.9274 C   0  0  0  0  0  0  0  0  0  0  0  0
    4.5533  -14.9078   -5.8737 N   0  0  0  0  0  0  0  0  0  0  0  0
    5.3424  -15.9940   -5.6274 C   0  0  0  0  0  0  0  0  0  0  0  0
  2  3  1  1  0  0  0
  2  6  1  0  0  0  0
  2  1  1  0  0  0  0
  4  3  2  0  0  0  0
  5  3  1  0  0  0  0
  6  7  2  0  0  0  0
  8  7  1  6  0  0  0
  8  9  1  0  0  0  0
  8 10  1  0  0  0  0
 11 10  1  1  0  0  0
 11 13  1  0  0  0  0
 12 11  1  0  0  0  0
 12 17  1  0  0  0  0
 13 14  1  6  0  0  0
 13 15  1  0  0  0  0
 15 16  1  6  0  0  0
 17 18  1  1  0  0  0
 17 15  1  0  0  0  0
 18 19  1  0  0  0  0
 20 19  2  0  0  0  0
 21 27  2  0  0  0  0
 21 20  1  0  0  0  0
 22 21  1  0  0  0  0
 23 22  1  0  0  0  0
 24 22  2  0  0  0  0
 24 25  1  0  0  0  0
 25 26  2  0  0  0  0
 26 27  1  0  0  0  0
 27 18  1  0  0  0  0
M  END
>  <CHROM.1>
58.12730801,-142.59851929,30.31057082,37.06463788,75.02381094,135.92383735
4.03550070,-16.72202071,-8.13509931,2.77739261,1.15654409,-2.80853427

>  <Name>
lig.pdb

>  <RI>
0

>  <Rbt.Current_Directory>
/home/itssahil/PROJECTS/Mol_Feturizer/New_Systems/rnas/4b5r

>  <Rbt.Executable>
rbdock ($Id: //depot/dev/client3/rdock/2013.1/src/exe/rbdock.cxx#4 $)

>  <Rbt.Library>
libRbt.so (2013.1, Build901 2013/11/27)

>  <Rbt.Parameter_File>
/export/apps/rDock/src/rDock_2013.1_src/data/scripts/dock_solv.prm

>  <Rbt.Receptor>
prm/pocket_docking_4.prm

>  <SCORE>
-11.9975

>  <SCORE.INTER>
-14.7128

>  <SCORE.INTER.CONST>
1

>  <SCORE.INTER.POLAR>
0

>  <SCORE.INTER.ROT>
6

>  <SCORE.INTER.SOLV>
11.4085

>  <SCORE.INTER.VDW>
-21.2114

>  <SCORE.INTER.norm>
-0.544919

>  <SCORE.INTRA>
2.70037

>  <SCORE.INTRA.DIHEDRAL>
0.305064

>  <SCORE.INTRA.DIHEDRAL.0>
10.2917

>  <SCORE.INTRA.POLAR>
0

>  <SCORE.INTRA.POLAR.0>
0

>  <SCORE.INTRA.REPUL>
0.124276

>  <SCORE.INTRA.REPUL.0>
0

>  <SCORE.INTRA.SOLV>
-2.44221

>  <SCORE.INTRA.SOLV.lig_0>
-39.6315

>  <SCORE.INTRA.VDW>
3.14756

>  <SCORE.INTRA.VDW.0>
-4.02152

>  <SCORE.INTRA.norm>
0.100014

>  <SCORE.RESTR>
0.014931

>  <SCORE.RESTR.CAVITY>
0.014931

>  <SCORE.RESTR.norm>
0.000552998

>  <SCORE.SYSTEM>
0

>  <SCORE.SYSTEM.CONST>
0

>  <SCORE.SYSTEM.DIHEDRAL>
0

>  <SCORE.SYSTEM.SOLV>
0

>  <SCORE.SYSTEM.norm>
0

>  <SCORE.heavy>
27

>  <SCORE.norm>
-0.444352

>  <RMSD>
5.588

$$$$
lig.pdb
 OpenBabel11021811493D
libRbt.so/2013.1/901 2013/11/27
 27 29  0  0  0  0  0  0  0  0999 V2000
    3.9404  -14.8425   -6.3997 N   0  0  0  0  0  0  0  0  0  0  0  0
    5.3782  -15.1266   -6.1067 C   0  0  2  0  0  0  0  0  0  0  0  0
    5.8668  -14.1670   -5.0257 C   0  0  0  0  0  0  0  0  0  0  0  0
    6.1991  -14.6076   -3.9316 O   0  0  0  0  0  0  0  0  0  0  0  0
    5.9408  -12.9437   -5.1988 O   0  0  0  0  0  0  0  0  0  0  0  0
    6.2835  -15.0907   -7.3545 C   0  0  0  0  0  0  0  0  0  0  0  0
    5.5894  -14.8074   -8.7126 C   0  0  0  0  0  0  0  0  0  0  0  0
    6.6139  -14.7571  -10.2460 S   0  0  2  0  0  0  0  0  0  0  0  0
    7.6750  -13.3330   -9.9215 C   0  0  0  0  0  0  0  0  0  0  0  0
    5.5038  -14.0363  -11.4748 C   0  0  0  0  0  0  0  0  0  0  0  0
    4.8419  -15.1453  -12.2818 C   0  0  1  0  0  0  0  0  0  0  0  0
    4.2380  -16.1331  -11.4603 O   0  0  0  0  0  0  0  0  0  0  0  0
    3.7112  -14.6544  -13.1455 C   0  0  1  0  0  0  0  0  0  0  0  0
    4.2152  -14.0508  -14.3020 O   0  0  0  0  0  0  0  0  0  0  0  0
    2.9871  -15.9536  -13.4214 C   0  0  1  0  0  0  0  0  0  0  0  0
    3.6142  -16.6450  -14.4823 O   0  0  0  0  0  0  0  0  0  0  0  0
    3.1604  -16.7559  -12.1366 C   0  0  2  0  0  0  0  0  0  0  0  0
    1.9475  -16.8413  -11.2776 N   0  0  0  0  0  0  0  0  0  0  0  0
    1.0358  -17.8668  -11.2924 C   0  0  0  0  0  0  0  0  0  0  0  0
    0.0673  -17.6127  -10.3841 N   0  0  0  0  0  0  0  0  0  0  0  0
    0.3419  -16.4464   -9.7773 C   0  0  0  0  0  0  0  0  0  0  0  0
   -0.3112  -15.7408   -8.7782 C   0  0  0  0  0  0  0  0  0  0  0  0
   -1.4294  -16.2147   -8.2446 N   0  0  0  0  0  0  0  0  0  0  0  0
    0.2201  -14.5432   -8.3420 N   0  0  0  0  0  0  0  0  0  0  0  0
    1.3955  -14.0399   -8.8849 C   0  0  0  0  0  0  0  0  0  0  0  0
    2.0346  -14.7590   -9.8744 N   0  0  0  0  0  0  0  0  0  0  0  0
    1.5190  -15.9404  -10.3234 C   0  0  0  0  0  0  0  0  0  0  0  0
  2  3  1  1  0  0  0
  2  6  1  0  0  0  0
  2  1  1  0  0  0  0
  4  3  2  0  0  0  0
  5  3  1  0  0  0  0
  6  7  2  0  0  0  0
  8  7  1  1  0  0  0
  8  9  1  0  0  0  0
  8 10  1  0  0  0  0
 11 10  1  1  0  0  0
 11 13  1  0  0  0  0
 12 11  1  0  0  0  0
 12 17  1  0  0  0  0
 13 14  1  6  0  0  0
 13 15  1  0  0  0  0
 15 16  1  6  0  0  0
 17 18  1  1  0  0  0
 17 15  1  0  0  0  0
 18 19  1  0  0  0  0
 20 19  2  0  0  0  0
 21 27  2  0  0  0  0
 21 20  1  0  0  0  0
 22 21  1  0  0  0  0
 23 22  1  0  0  0  0
 24 22  2  0  0  0  0
 24 25  1  0  0  0  0
 25 26  2  0  0  0  0
 26 27  1  0  0  0  0
 27 18  1  0  0  0  0
M  END
>  <CHROM.1>
114.65221708,-1.46941873,-64.25972577,-96.27464311,51.60066174,-145.58588425
3.64680688,-15.24722413,-9.77174287,0.99544418,0.29859104,1.44424669

>  <Name>
lig.pdb

>  <RI>
0

>  <Rbt.Current_Directory>
/home/itssahil/PROJECTS/Mol_Feturizer/New_Systems/rnas/4b5r

>  <Rbt.Executable>
rbdock ($Id: //depot/dev/client3/rdock/2013.1/src/exe/rbdock.cxx#4 $)

>  <Rbt.Library>
libRbt.so (2013.1, Build901 2013/11/27)

>  <Rbt.Parameter_File>
/export/apps/rDock/src/rDock_2013.1_src/data/scripts/dock_solv.prm

>  <Rbt.Receptor>
prm/pocket_docking_2.prm

>  <SCORE>
-4.53721

>  <SCORE.INTER>
-7.89427

>  <SCORE.INTER.CONST>
1

>  <SCORE.INTER.POLAR>
0

>  <SCORE.INTER.ROT>
6

>  <SCORE.INTER.SOLV>
17.5927

>  <SCORE.INTER.VDW>
-18.7271

>  <SCORE.INTER.norm>
-0.29238

>  <SCORE.INTRA>
-0.40254

>  <SCORE.INTRA.DIHEDRAL>
-0.934589

>  <SCORE.INTRA.DIHEDRAL.0>
10.2917

>  <SCORE.INTRA.POLAR>
0

>  <SCORE.INTRA.POLAR.0>
0

>  <SCORE.INTRA.REPUL>
0

>  <SCORE.INTRA.REPUL.0>
0

>  <SCORE.INTRA.SOLV>
-1.07419

>  <SCORE.INTRA.SOLV.lig_0>
-39.6315

>  <SCORE.INTRA.VDW>
0.60185

>  <SCORE.INTRA.VDW.0>
-4.02152

>  <SCORE.INTRA.norm>
-0.0149089

>  <SCORE.RESTR>
3.7596

>  <SCORE.RESTR.CAVITY>
3.7596

>  <SCORE.RESTR.norm>
0.139245

>  <SCORE.SYSTEM>
0

>  <SCORE.SYSTEM.CONST>
0

>  <SCORE.SYSTEM.DIHEDRAL>
0

>  <SCORE.SYSTEM.SOLV>
0

>  <SCORE.SYSTEM.norm>
0

>  <SCORE.heavy>
27

>  <SCORE.norm>
-0.168045

>  <RMSD>
5.599

$$$$
lig.pdb
 OpenBabel11021811493D
libRbt.so/2013.1/901 2013/11/27
 27 29  0  0  0  0  0  0  0  0999 V2000
    7.5946  -13.4304  -13.7673 N   0  0  0  0  0  0  0  0  0  0  0  0
    6.2778  -13.5394  -13.0686 C   0  0  2  0  0  0  0  0  0  0  0  0
    5.9131  -12.1816  -12.4757 C   0  0  0  0  0  0  0  0  0  0  0  0
    6.7926  -11.3502  -12.2833 O   0  0  0  0  0  0  0  0  0  0  0  0
    4.7544  -11.8735  -12.1687 O   0  0  0  0  0  0  0  0  0  0  0  0
    6.2300  -14.6577  -12.0079 C   0  0  0  0  0  0  0  0  0  0  0  0
    7.4435  -15.6227  -11.9559 C   0  0  0  0  0  0  0  0  0  0  0  0
    7.4470  -16.9872  -10.7143 S   0  0  2  0  0  0  0  0  0  0  0  0
    7.2433  -18.4355  -11.7728 C   0  0  0  0  0  0  0  0  0  0  0  0
    5.7952  -16.9053   -9.9887 C   0  0  0  0  0  0  0  0  0  0  0  0
    5.5882  -18.0859   -9.0491 C   0  0  1  0  0  0  0  0  0  0  0  0
    6.5125  -18.0952   -7.9716 O   0  0  0  0  0  0  0  0  0  0  0  0
    4.2445  -18.0739   -8.3711 C   0  0  1  0  0  0  0  0  0  0  0  0
    3.2587  -18.5393   -9.2472 O   0  0  0  0  0  0  0  0  0  0  0  0
    4.5062  -19.0165   -7.2173 C   0  0  1  0  0  0  0  0  0  0  0  0
    4.3771  -20.3572   -7.6447 O   0  0  0  0  0  0  0  0  0  0  0  0
    5.9611  -18.7535   -6.8450 C   0  0  2  0  0  0  0  0  0  0  0  0
    6.1606  -17.9678   -5.5964 N   0  0  0  0  0  0  0  0  0  0  0  0
    6.8572  -18.3943   -4.4937 C   0  0  0  0  0  0  0  0  0  0  0  0
    6.8337  -17.4250   -3.5517 N   0  0  0  0  0  0  0  0  0  0  0  0
    6.1423  -16.3773   -4.0296 C   0  0  0  0  0  0  0  0  0  0  0  0
    5.8314  -15.1409   -3.4845 C   0  0  0  0  0  0  0  0  0  0  0  0
    6.2459  -14.8228   -2.2652 N   0  0  0  0  0  0  0  0  0  0  0  0
    5.0912  -14.2436   -4.2287 N   0  0  0  0  0  0  0  0  0  0  0  0
    4.6589  -14.5597   -5.5105 C   0  0  0  0  0  0  0  0  0  0  0  0
    4.9830  -15.7928   -6.0385 N   0  0  0  0  0  0  0  0  0  0  0  0
    5.7067  -16.6950   -5.3137 C   0  0  0  0  0  0  0  0  0  0  0  0
  2  3  1  1  0  0  0
  2  6  1  0  0  0  0
  2  1  1  0  0  0  0
  4  3  2  0  0  0  0
  5  3  1  0  0  0  0
  6  7  2  0  0  0  0
  8  7  1  6  0  0  0
  8  9  1  0  0  0  0
  8 10  1  0  0  0  0
 11 10  1  1  0  0  0
 11 13  1  0  0  0  0
 12 11  1  0  0  0  0
 12 17  1  0  0  0  0
 13 14  1  6  0  0  0
 13 15  1  0  0  0  0
 15 16  1  6  0  0  0
 17 18  1  1  0  0  0
 17 15  1  0  0  0  0
 18 19  1  0  0  0  0
 20 19  2  0  0  0  0
 21 27  2  0  0  0  0
 21 20  1  0  0  0  0
 22 21  1  0  0  0  0
 23 22  1  0  0  0  0
 24 22  2  0  0  0  0
 24 25  1  0  0  0  0
 25 26  2  0  0  0  0
 26 27  1  0  0  0  0
 27 18  1  0  0  0  0
M  END
>  <CHROM.1>
-20.52422274,-8.48589263,110.11881812,173.41468466,61.05252872,-119.40982047
5.92857970,-16.24571962,-8.38247877,-0.25939311,1.47239672,0.64736069

>  <Name>
lig.pdb

>  <RI>
0

>  <Rbt.Current_Directory>
/home/itssahil/PROJECTS/Mol_Feturizer/New_Systems/rnas/4b5r

>  <Rbt.Executable>
rbdock ($Id: //depot/dev/client3/rdock/2013.1/src/exe/rbdock.cxx#4 $)

>  <Rbt.Library>
libRbt.so (2013.1, Build901 2013/11/27)

>  <Rbt.Parameter_File>
/export/apps/rDock/src/rDock_2013.1_src/data/scripts/dock_solv.prm

>  <Rbt.Receptor>
prm/pocket_docking_6.prm

>  <SCORE>
-14.499

>  <SCORE.INTER>
-13.905

>  <SCORE.INTER.CONST>
1

>  <SCORE.INTER.POLAR>
0

>  <SCORE.INTER.ROT>
6

>  <SCORE.INTER.SOLV>
11.1348

>  <SCORE.INTER.VDW>
-20.5816

>  <SCORE.INTER.norm>
-0.514999

>  <SCORE.INTRA>
-0.599555

>  <SCORE.INTRA.DIHEDRAL>
-2.90801

>  <SCORE.INTRA.DIHEDRAL.0>
10.2917

>  <SCORE.INTRA.POLAR>
0

>  <SCORE.INTRA.POLAR.0>
0

>  <SCORE.INTRA.REPUL>
0

>  <SCORE.INTRA.REPUL.0>
0

>  <SCORE.INTRA.SOLV>
-2.03974

>  <SCORE.INTRA.SOLV.lig_0>
-39.6315

>  <SCORE.INTRA.VDW>
1.87432

>  <SCORE.INTRA.VDW.0>
-4.02152

>  <SCORE.INTRA.norm>
-0.0222058

>  <SCORE.RESTR>
0.00557258

>  <SCORE.RESTR.CAVITY>
0.00557258

>  <SCORE.RESTR.norm>
0.000206392

>  <SCORE.SYSTEM>
0

>  <SCORE.SYSTEM.CONST>
0

>  <SCORE.SYSTEM.DIHEDRAL>
0

>  <SCORE.SYSTEM.SOLV>
0

>  <SCORE.SYSTEM.norm>
0

>  <SCORE.heavy>
27

>  <SCORE.norm>
-0.536998

>  <RMSD>
5.605

$$$$
lig.pdb
 OpenBabel11021811493D
libRbt.so/2013.1/901 2013/11/27
 27 29  0  0  0  0  0  0  0  0999 V2000
    6.2132  -15.1597   -7.8856 N   0  0  0  0  0  0  0  0  0  0  0  0
    5.1971  -15.1393   -6.7897 C   0  0  2  0  0  0  0  0  0  0  0  0
    5.8933  -14.8252   -5.4688 C   0  0  0  0  0  0  0  0  0  0  0  0
    6.7827  -15.5644   -5.0636 O   0  0  0  0  0  0  0  0  0  0  0  0
    5.5968  -13.8472   -4.7706 O   0  0  0  0  0  0  0  0  0  0  0  0
    4.3565  -16.4290   -6.7002 C   0  0  0  0  0  0  0  0  0  0  0  0
    4.4095  -17.3830   -7.9224 C   0  0  0  0  0  0  0  0  0  0  0  0
    3.4219  -18.9407   -7.8831 S   0  0  2  0  0  0  0  0  0  0  0  0
    4.3258  -19.9072   -6.6549 C   0  0  0  0  0  0  0  0  0  0  0  0
    3.9311  -19.8043   -9.3853 C   0  0  0  0  0  0  0  0  0  0  0  0
    3.7403  -18.8933  -10.5908 C   0  0  1  0  0  0  0  0  0  0  0  0
    2.6747  -17.9717  -10.4159 O   0  0  0  0  0  0  0  0  0  0  0  0
    4.9331  -18.0173  -10.8651 C   0  0  1  0  0  0  0  0  0  0  0  0
    5.9289  -18.7502  -11.5188 O   0  0  0  0  0  0  0  0  0  0  0  0
    4.3043  -16.9570  -11.7419 C   0  0  1  0  0  0  0  0  0  0  0  0
    4.2222  -17.4143  -13.0764 O   0  0  0  0  0  0  0  0  0  0  0  0
    2.8938  -16.8018  -11.1841 C   0  0  2  0  0  0  0  0  0  0  0  0
    2.6640  -15.5674  -10.3844 N   0  0  0  0  0  0  0  0  0  0  0  0
    3.4207  -14.4249  -10.4540 C   0  0  0  0  0  0  0  0  0  0  0  0
    2.9247  -13.5107   -9.5906 N   0  0  0  0  0  0  0  0  0  0  0  0
    1.8564  -14.0391   -8.9713 C   0  0  0  0  0  0  0  0  0  0  0  0
    0.9888  -13.5312   -8.0164 C   0  0  0  0  0  0  0  0  0  0  0  0
    1.1480  -12.2978   -7.5549 N   0  0  0  0  0  0  0  0  0  0  0  0
   -0.0453  -14.3226   -7.5571 N   0  0  0  0  0  0  0  0  0  0  0  0
   -0.2297  -15.6125   -8.0386 C   0  0  0  0  0  0  0  0  0  0  0  0
    0.6404  -16.0988   -8.9932 N   0  0  0  0  0  0  0  0  0  0  0  0
    1.6730  -15.3332   -9.4522 C   0  0  0  0  0  0  0  0  0  0  0  0
  2  3  1  1  0  0  0
  2  6  1  0  0  0  0
  2  1  1  0  0  0  0
  4  3  2  0  0  0  0
  5  3  1  0  0  0  0
  6  7  2  0  0  0  0
  8  7  1  6  0  0  0
  8  9  1  0  0  0  0
  8 10  1  0  0  0  0
 11 10  1  1  0  0  0
 11 13  1  0  0  0  0
 12 11  1  0  0  0  0
 12 17  1  0  0  0  0
 13 14  1  6  0  0  0
 13 15  1  0  0  0  0
 15 16  1  6  0  0  0
 17 18  1  1  0  0  0
 17 15  1  0  0  0  0
 18 19  1  0  0  0  0
 20 19  2  0  0  0  0
 21 27  2  0  0  0  0
 21 20  1  0  0  0  0
 22 21  1  0  0  0  0
 23 22  1  0  0  0  0
 24 22  2  0  0  0  0
 24 25  1  0  0  0  0
 25 26  2  0  0  0  0
 26 27  1  0  0  0  0
 27 18  1  0  0  0  0
M  END
>  <CHROM.1>
-59.21788208,-14.97860579,-70.53719947,-54.29538157,-29.77776482,140.70644958
3.52967259,-16.34537108,-8.73619755,-1.76909612,0.69472321,-2.27472263

>  <Name>
lig.pdb

>  <RI>
0

>  <Rbt.Current_Directory>
/home/itssahil/PROJECTS/Mol_Feturizer/New_Systems/rnas/4b5r

>  <Rbt.Executable>
rbdock ($Id: //depot/dev/client3/rdock/2013.1/src/exe/rbdock.cxx#4 $)

>  <Rbt.Library>
libRbt.so (2013.1, Build901 2013/11/27)

>  <Rbt.Parameter_File>
/export/apps/rDock/src/rDock_2013.1_src/data/scripts/dock_solv.prm

>  <Rbt.Receptor>
prm/pocket_docking_6.prm

>  <SCORE>
-11.1938

>  <SCORE.INTER>
-12.1895

>  <SCORE.INTER.CONST>
1

>  <SCORE.INTER.POLAR>
0

>  <SCORE.INTER.ROT>
6

>  <SCORE.INTER.SOLV>
14.2233

>  <SCORE.INTER.VDW>
-20.4674

>  <SCORE.INTER.norm>
-0.451462

>  <SCORE.INTRA>
0.995721

>  <SCORE.INTRA.DIHEDRAL>
0.576235

>  <SCORE.INTRA.DIHEDRAL.0>
10.2917

>  <SCORE.INTRA.POLAR>
0

>  <SCORE.INTRA.POLAR.0>
0

>  <SCORE.INTRA.REPUL>
0.158886

>  <SCORE.INTRA.REPUL.0>
0

>  <SCORE.INTRA.SOLV>
-0.930772

>  <SCORE.INTRA.SOLV.lig_0>
-39.6315

>  <SCORE.INTRA.VDW>
0.378557

>  <SCORE.INTRA.VDW.0>
-4.02152

>  <SCORE.INTRA.norm>
0.0368785

>  <SCORE.RESTR>
0

>  <SCORE.RESTR.CAVITY>
0

>  <SCORE.RESTR.norm>
0

>  <SCORE.SYSTEM>
0

>  <SCORE.SYSTEM.CONST>
0

>  <SCORE.SYSTEM.DIHEDRAL>
0

>  <SCORE.SYSTEM.SOLV>
0

>  <SCORE.SYSTEM.norm>
0

>  <SCORE.heavy>
27

>  <SCORE.norm>
-0.414583

>  <RMSD>
5.613

$$$$
lig.pdb
 OpenBabel11021811493D
libRbt.so/2013.1/901 2013/11/27
 27 29  0  0  0  0  0  0  0  0999 V2000
    6.1062  -19.0010   -8.5947 N   0  0  0  0  0  0  0  0  0  0  0  0
    5.6827  -17.8188   -9.4054 C   0  0  2  0  0  0  0  0  0  0  0  0
    6.7808  -17.4830  -10.4101 C   0  0  0  0  0  0  0  0  0  0  0  0
    6.7416  -17.9703  -11.5338 O   0  0  0  0  0  0  0  0  0  0  0  0
    7.7291  -16.7342  -10.1417 O   0  0  0  0  0  0  0  0  0  0  0  0
    5.2913  -16.5931   -8.5555 C   0  0  0  0  0  0  0  0  0  0  0  0
    4.1823  -15.6719   -9.1282 C   0  0  0  0  0  0  0  0  0  0  0  0
    3.6709  -14.1842   -8.1646 S   0  0  2  0  0  0  0  0  0  0  0  0
    4.8185  -14.2471   -6.7723 C   0  0  0  0  0  0  0  0  0  0  0  0
    2.1567  -14.7150   -7.3357 C   0  0  0  0  0  0  0  0  0  0  0  0
    1.2413  -15.4103   -8.3347 C   0  0  1  0  0  0  0  0  0  0  0  0
    1.2001  -14.7489   -9.5902 O   0  0  0  0  0  0  0  0  0  0  0  0
    1.6903  -16.8055   -8.6769 C   0  0  1  0  0  0  0  0  0  0  0  0
    1.3276  -17.6920   -7.6578 O   0  0  0  0  0  0  0  0  0  0  0  0
    0.9280  -17.0358   -9.9631 C   0  0  1  0  0  0  0  0  0  0  0  0
   -0.3968  -17.4370   -9.6790 O   0  0  0  0  0  0  0  0  0  0  0  0
    0.8981  -15.6642  -10.6283 C   0  0  2  0  0  0  0  0  0  0  0  0
    1.8188  -15.5049  -11.7873 N   0  0  0  0  0  0  0  0  0  0  0  0
    1.7023  -16.1582  -12.9883 C   0  0  0  0  0  0  0  0  0  0  0  0
    2.7086  -15.7710  -13.8036 N   0  0  0  0  0  0  0  0  0  0  0  0
    3.4674  -14.8731  -13.1539 C   0  0  0  0  0  0  0  0  0  0  0  0
    4.5990  -14.1655  -13.5297 C   0  0  0  0  0  0  0  0  0  0  0  0
    5.1179  -14.3251  -14.7400 N   0  0  0  0  0  0  0  0  0  0  0  0
    5.1745  -13.2890  -12.6312 N   0  0  0  0  0  0  0  0  0  0  0  0
    4.6361  -13.1047  -11.3639 C   0  0  0  0  0  0  0  0  0  0  0  0
    3.5061  -13.8134  -11.0098 N   0  0  0  0  0  0  0  0  0  0  0  0
    2.9292  -14.6902  -11.8825 C   0  0  0  0  0  0  0  0  0  0  0  0
  2  3  1  6  0  0  0
  2  6  1  0  0  0  0
  2  1  1  0  0  0  0
  4  3  2  0  0  0  0
  5  3  1  0  0  0  0
  6  7  2  0  0  0  0
  8  7  1  6  0  0  0
  8  9  1  0  0  0  0
  8 10  1  0  0  0  0
 11 10  1  1  0  0  0
 11 13  1  0  0  0  0
 12 11  1  0  0  0  0
 12 17  1  0  0  0  0
 13 14  1  1  0  0  0
 13 15  1  0  0  0  0
 15 16  1  1  0  0  0
 17 18  1  6  0  0  0
 17 15  1  0  0  0  0
 18 19  1  0  0  0  0
 20 19  2  0  0  0  0
 21 27  2  0  0  0  0
 21 20  1  0  0  0  0
 22 21  1  0  0  0  0
 23 22  1  0  0  0  0
 24 22  2  0  0  0  0
 24 25  1  0  0  0  0
 25 26  2  0  0  0  0
 26 27  1  0  0  0  0
 27 18  1  0  0  0  0
M  END
>  <CHROM.1>
92.12118207,-147.75477917,3.48485065,-47.05723158,-41.75794620,-173.61145124
3.54405450,-15.69384834,-10.26714291,-2.26838068,0.17173657,-1.23035961

>  <Name>
lig.pdb

>  <RI>
0

>  <Rbt.Current_Directory>
/home/itssahil/PROJECTS/Mol_Feturizer/New_Systems/rnas/4b5r

>  <Rbt.Executable>
rbdock ($Id: //depot/dev/client3/rdock/2013.1/src/exe/rbdock.cxx#4 $)

>  <Rbt.Library>
libRbt.so (2013.1, Build901 2013/11/27)

>  <Rbt.Parameter_File>
/export/apps/rDock/src/rDock_2013.1_src/data/scripts/dock_solv.prm

>  <Rbt.Receptor>
prm/pocket_docking_4.prm

>  <SCORE>
-9.59549

>  <SCORE.INTER>
-11.6921

>  <SCORE.INTER.CONST>
1

>  <SCORE.INTER.POLAR>
0

>  <SCORE.INTER.ROT>
6

>  <SCORE.INTER.SOLV>
11.7678

>  <SCORE.INTER.VDW>
-19.3174

>  <SCORE.INTER.norm>
-0.433042

>  <SCORE.INTRA>
2.09664

>  <SCORE.INTRA.DIHEDRAL>
0.713046

>  <SCORE.INTRA.DIHEDRAL.0>
10.2917

>  <SCORE.INTRA.POLAR>
0

>  <SCORE.INTRA.POLAR.0>
0

>  <SCORE.INTRA.REPUL>
0.0206708

>  <SCORE.INTRA.REPUL.0>
0

>  <SCORE.INTRA.SOLV>
-1.73879

>  <SCORE.INTRA.SOLV.lig_0>
-39.6315

>  <SCORE.INTRA.VDW>
2.50616

>  <SCORE.INTRA.VDW.0>
-4.02152

>  <SCORE.INTRA.norm>
0.0776535

>  <SCORE.RESTR>
0

>  <SCORE.RESTR.CAVITY>
0

>  <SCORE.RESTR.norm>
0

>  <SCORE.SYSTEM>
0

>  <SCORE.SYSTEM.CONST>
0

>  <SCORE.SYSTEM.DIHEDRAL>
0

>  <SCORE.SYSTEM.SOLV>
0

>  <SCORE.SYSTEM.norm>
0

>  <SCORE.heavy>
27

>  <SCORE.norm>
-0.355389

>  <RMSD>
5.615

$$$$
lig.pdb
 OpenBabel11021811493D
libRbt.so/2013.1/901 2013/11/27
 27 29  0  0  0  0  0  0  0  0999 V2000
    2.6619  -15.8819  -12.8930 N   0  0  0  0  0  0  0  0  0  0  0  0
    2.5426  -14.6232  -12.0958 C   0  0  2  0  0  0  0  0  0  0  0  0
    3.9392  -14.1300  -11.7292 C   0  0  0  0  0  0  0  0  0  0  0  0
    4.3498  -13.0745  -12.1973 O   0  0  0  0  0  0  0  0  0  0  0  0
    4.6942  -14.7553  -10.9737 O   0  0  0  0  0  0  0  0  0  0  0  0
    1.6403  -14.7602  -10.8529 C   0  0  0  0  0  0  0  0  0  0  0  0
    2.0798  -13.9861   -9.5824 C   0  0  0  0  0  0  0  0  0  0  0  0
    1.0483  -14.1121   -8.0581 S   0  0  2  0  0  0  0  0  0  0  0  0
    2.1338  -13.3591   -6.8276 C   0  0  0  0  0  0  0  0  0  0  0  0
    1.2049  -15.8471   -7.5817 C   0  0  0  0  0  0  0  0  0  0  0  0
    2.4811  -16.4291   -8.1751 C   0  0  1  0  0  0  0  0  0  0  0  0
    3.6537  -15.8413   -7.6322 O   0  0  0  0  0  0  0  0  0  0  0  0
    2.6495  -17.8976   -7.8911 C   0  0  1  0  0  0  0  0  0  0  0  0
    1.8491  -18.6505   -8.7563 O   0  0  0  0  0  0  0  0  0  0  0  0
    4.1295  -18.0645   -8.1554 C   0  0  1  0  0  0  0  0  0  0  0  0
    4.3629  -18.2156   -9.5410 O   0  0  0  0  0  0  0  0  0  0  0  0
    4.7410  -16.7473   -7.6912 C   0  0  2  0  0  0  0  0  0  0  0  0
    5.4731  -16.8132   -6.3965 N   0  0  0  0  0  0  0  0  0  0  0  0
    6.3599  -17.7963   -6.0361 C   0  0  0  0  0  0  0  0  0  0  0  0
    6.8322  -17.5353   -4.7966 N   0  0  0  0  0  0  0  0  0  0  0  0
    6.2731  -16.3971   -4.3541 C   0  0  0  0  0  0  0  0  0  0  0  0
    6.4166  -15.6884   -3.1710 C   0  0  0  0  0  0  0  0  0  0  0  0
    7.2380  -16.1238   -2.2247 N   0  0  0  0  0  0  0  0  0  0  0  0
    5.6993  -14.5220   -2.9932 N   0  0  0  0  0  0  0  0  0  0  0  0
    4.8429  -14.0494   -3.9796 C   0  0  0  0  0  0  0  0  0  0  0  0
    4.7174  -14.7651   -5.1529 N   0  0  0  0  0  0  0  0  0  0  0  0
    5.4125  -15.9245   -5.3419 C   0  0  0  0  0  0  0  0  0  0  0  0
  2  3  1  1  0  0  0
  2  6  1  0  0  0  0
  2  1  1  0  0  0  0
  4  3  2  0  0  0  0
  5  3  1  0  0  0  0
  6  7  2  0  0  0  0
  8  7  1  6  0  0  0
  8  9  1  0  0  0  0
  8 10  1  0  0  0  0
 11 10  1  1  0  0  0
 11 13  1  0  0  0  0
 12 11  1  0  0  0  0
 12 17  1  0  0  0  0
 13 14  1  6  0  0  0
 13 15  1  0  0  0  0
 15 16  1  6  0  0  0
 17 18  1  1  0  0  0
 17 15  1  0  0  0  0
 18 19  1  0  0  0  0
 20 19  2  0  0  0  0
 21 27  2  0  0  0  0
 21 20  1  0  0  0  0
 22 21  1  0  0  0  0
 23 22  1  0  0  0  0
 24 22  2  0  0  0  0
 24 25  1  0  0  0  0
 25 26  2  0  0  0  0
 26 27  1  0  0  0  0
 27 18  1  0  0  0  0
M  END
>  <CHROM.1>
113.93198968,143.05991776,168.57055673,22.80440168,65.88677790,164.24397852
3.88465454,-15.70145755,-7.68587701,-2.42375428,-0.95146514,0.97385144

>  <Name>
lig.pdb

>  <RI>
0

>  <Rbt.Current_Directory>
/home/itssahil/PROJECTS/Mol_Feturizer/New_Systems/rnas/4b5r

>  <Rbt.Executable>
rbdock ($Id: //depot/dev/client3/rdock/2013.1/src/exe/rbdock.cxx#4 $)

>  <Rbt.Library>
libRbt.so (2013.1, Build901 2013/11/27)

>  <Rbt.Parameter_File>
/export/apps/rDock/src/rDock_2013.1_src/data/scripts/dock_solv.prm

>  <Rbt.Receptor>
prm/pocket_docking_6.prm

>  <SCORE>
-17.2121

>  <SCORE.INTER>
-18.5899

>  <SCORE.INTER.CONST>
1

>  <SCORE.INTER.POLAR>
0

>  <SCORE.INTER.ROT>
6

>  <SCORE.INTER.SOLV>
14.7837

>  <SCORE.INTER.VDW>
-24.9211

>  <SCORE.INTER.norm>
-0.688513

>  <SCORE.INTRA>
1.37772

>  <SCORE.INTRA.DIHEDRAL>
0.014542

>  <SCORE.INTRA.DIHEDRAL.0>
10.2917

>  <SCORE.INTRA.POLAR>
0

>  <SCORE.INTRA.POLAR.0>
0

>  <SCORE.INTRA.REPUL>
0.230524

>  <SCORE.INTRA.REPUL.0>
0

>  <SCORE.INTRA.SOLV>
-2.81817

>  <SCORE.INTRA.SOLV.lig_0>
-39.6315

>  <SCORE.INTRA.VDW>
1.62692

>  <SCORE.INTRA.VDW.0>
-4.02152

>  <SCORE.INTRA.norm>
0.0510268

>  <SCORE.RESTR>
0

>  <SCORE.RESTR.CAVITY>
0

>  <SCORE.RESTR.norm>
0

>  <SCORE.SYSTEM>
0

>  <SCORE.SYSTEM.CONST>
0

>  <SCORE.SYSTEM.DIHEDRAL>
0

>  <SCORE.SYSTEM.SOLV>
0

>  <SCORE.SYSTEM.norm>
0

>  <SCORE.heavy>
27

>  <SCORE.norm>
-0.637486

>  <RMSD>
5.615

$$$$
lig.pdb
 OpenBabel11021811493D
libRbt.so/2013.1/901 2013/11/27
 27 29  0  0  0  0  0  0  0  0999 V2000
    4.5950  -20.3775   -8.2804 N   0  0  0  0  0  0  0  0  0  0  0  0
    3.5417  -19.7664   -9.1472 C   0  0  2  0  0  0  0  0  0  0  0  0
    3.5743  -20.4341  -10.5188 C   0  0  0  0  0  0  0  0  0  0  0  0
    2.8197  -20.0407  -11.4006 O   0  0  0  0  0  0  0  0  0  0  0  0
    4.3338  -21.3731  -10.7895 O   0  0  0  0  0  0  0  0  0  0  0  0
    3.6429  -18.2316   -9.2561 C   0  0  0  0  0  0  0  0  0  0  0  0
    4.5171  -17.5126   -8.1953 C   0  0  0  0  0  0  0  0  0  0  0  0
    4.6754  -15.6758   -8.2644 S   0  0  2  0  0  0  0  0  0  0  0  0
    6.0466  -15.3912   -7.1250 C   0  0  0  0  0  0  0  0  0  0  0  0
    3.3046  -15.0928   -7.2433 C   0  0  0  0  0  0  0  0  0  0  0  0
    2.0655  -14.9018   -8.1079 C   0  0  1  0  0  0  0  0  0  0  0  0
    2.3265  -14.1376   -9.2755 O   0  0  0  0  0  0  0  0  0  0  0  0
    1.5105  -16.1955   -8.6405 C   0  0  1  0  0  0  0  0  0  0  0  0
    0.7733  -16.8485   -7.6475 O   0  0  0  0  0  0  0  0  0  0  0  0
    0.6530  -15.6839   -9.7768 C   0  0  1  0  0  0  0  0  0  0  0  0
   -0.5978  -15.2476   -9.2849 O   0  0  0  0  0  0  0  0  0  0  0  0
    1.4222  -14.4806  -10.3105 C   0  0  2  0  0  0  0  0  0  0  0  0
    2.1251  -14.7041  -11.6036 N   0  0  0  0  0  0  0  0  0  0  0  0
    1.6722  -15.5005  -12.6252 C   0  0  0  0  0  0  0  0  0  0  0  0
    2.5627  -15.4676  -13.6417 N   0  0  0  0  0  0  0  0  0  0  0  0
    3.5777  -14.6577  -13.2985 C   0  0  0  0  0  0  0  0  0  0  0  0
    4.7284  -14.2723  -13.9692 C   0  0  0  0  0  0  0  0  0  0  0  0
    4.9764  -14.7272  -15.1903 N   0  0  0  0  0  0  0  0  0  0  0  0
    5.6087  -13.4050  -13.3530 N   0  0  0  0  0  0  0  0  0  0  0  0
    5.3569  -12.9131  -12.0785 C   0  0  0  0  0  0  0  0  0  0  0  0
    4.2036  -13.3034  -11.4288 N   0  0  0  0  0  0  0  0  0  0  0  0
    3.3267  -14.1665  -12.0197 C   0  0  0  0  0  0  0  0  0  0  0  0
  2  3  1  6  0  0  0
  2  6  1  0  0  0  0
  2  1  1  0  0  0  0
  4  3  2  0  0  0  0
  5  3  1  0  0  0  0
  6  7  2  0  0  0  0
  8  7  1  1  0  0  0
  8  9  1  0  0  0  0
  8 10  1  0  0  0  0
 11 10  1  6  0  0  0
 11 13  1  0  0  0  0
 12 11  1  0  0  0  0
 12 17  1  0  0  0  0
 13 14  1  1  0  0  0
 13 15  1  0  0  0  0
 15 16  1  1  0  0  0
 17 18  1  6  0  0  0
 17 15  1  0  0  0  0
 18 19  1  0  0  0  0
 20 19  2  0  0  0  0
 21 27  2  0  0  0  0
 21 20  1  0  0  0  0
 22 21  1  0  0  0  0
 23 22  1  0  0  0  0
 24 22  2  0  0  0  0
 24 25  1  0  0  0  0
 25 26  2  0  0  0  0
 26 27  1  0  0  0  0
 27 18  1  0  0  0  0
M  END
>  <CHROM.1>
-177.18266506,-16.31145433,-167.29035336,-89.81811152,-49.83329220,154.00585671
3.27605113,-16.11180361,-10.30594291,-1.78088849,1.18496077,-0.51085648

>  <Name>
lig.pdb

>  <RI>
0

>  <Rbt.Current_Directory>
/home/itssahil/PROJECTS/Mol_Feturizer/New_Systems/rnas/4b5r

>  <Rbt.Executable>
rbdock ($Id: //depot/dev/client3/rdock/2013.1/src/exe/rbdock.cxx#4 $)

>  <Rbt.Library>
libRbt.so (2013.1, Build901 2013/11/27)

>  <Rbt.Parameter_File>
/export/apps/rDock/src/rDock_2013.1_src/data/scripts/dock_solv.prm

>  <Rbt.Receptor>
prm/blind_docking_60.prm

>  <SCORE>
-11.4505

>  <SCORE.INTER>
-12.6288

>  <SCORE.INTER.CONST>
1

>  <SCORE.INTER.POLAR>
0

>  <SCORE.INTER.ROT>
6

>  <SCORE.INTER.SOLV>
12.8178

>  <SCORE.INTER.VDW>
-20.2918

>  <SCORE.INTER.norm>
-0.467734

>  <SCORE.INTRA>
1.17831

>  <SCORE.INTRA.DIHEDRAL>
-0.286628

>  <SCORE.INTRA.DIHEDRAL.0>
10.2917

>  <SCORE.INTRA.POLAR>
0

>  <SCORE.INTRA.POLAR.0>
0

>  <SCORE.INTRA.REPUL>
0.231463

>  <SCORE.INTRA.REPUL.0>
0

>  <SCORE.INTRA.SOLV>
-1.86054

>  <SCORE.INTRA.SOLV.lig_0>
-39.6315

>  <SCORE.INTRA.VDW>
1.09458

>  <SCORE.INTRA.VDW.0>
-4.02152

>  <SCORE.INTRA.norm>
0.0436412

>  <SCORE.RESTR>
0

>  <SCORE.RESTR.CAVITY>
0

>  <SCORE.RESTR.norm>
0

>  <SCORE.SYSTEM>
0

>  <SCORE.SYSTEM.CONST>
0

>  <SCORE.SYSTEM.DIHEDRAL>
0

>  <SCORE.SYSTEM.SOLV>
0

>  <SCORE.SYSTEM.norm>
0

>  <SCORE.heavy>
27

>  <SCORE.norm>
-0.424093

>  <RMSD>
5.619

$$$$
lig.pdb
 OpenBabel11021811493D
libRbt.so/2013.1/901 2013/11/27
 27 29  0  0  0  0  0  0  0  0999 V2000
    1.1459  -18.1018   -8.2860 N   0  0  0  0  0  0  0  0  0  0  0  0
    0.3025  -17.0257   -8.8899 C   0  0  2  0  0  0  0  0  0  0  0  0
    0.6881  -16.8525  -10.3560 C   0  0  0  0  0  0  0  0  0  0  0  0
    0.6464  -17.8177  -11.1100 O   0  0  0  0  0  0  0  0  0  0  0  0
    1.0525  -15.7688  -10.8300 O   0  0  0  0  0  0  0  0  0  0  0  0
    0.3599  -15.6896   -8.1222 C   0  0  0  0  0  0  0  0  0  0  0  0
    1.7205  -15.3110   -7.4805 C   0  0  0  0  0  0  0  0  0  0  0  0
    1.8561  -13.7285   -6.5420 S   0  0  2  0  0  0  0  0  0  0  0  0
    1.1959  -12.5461   -7.7360 C   0  0  0  0  0  0  0  0  0  0  0  0
    3.6122  -13.3207   -6.6486 C   0  0  0  0  0  0  0  0  0  0  0  0
    4.4459  -14.5496   -6.3105 C   0  0  1  0  0  0  0  0  0  0  0  0
    4.4535  -15.5095   -7.3564 O   0  0  0  0  0  0  0  0  0  0  0  0
    5.9027  -14.2362   -6.0984 C   0  0  1  0  0  0  0  0  0  0  0  0
    6.0986  -13.6957   -4.8235 O   0  0  0  0  0  0  0  0  0  0  0  0
    6.5100  -15.6122   -6.2596 C   0  0  1  0  0  0  0  0  0  0  0  0
    6.3995  -16.3379   -5.0520 O   0  0  0  0  0  0  0  0  0  0  0  0
    5.6414  -16.2802   -7.3197 C   0  0  2  0  0  0  0  0  0  0  0  0
    6.2653  -16.3938   -8.6666 N   0  0  0  0  0  0  0  0  0  0  0  0
    6.4433  -17.5632   -9.3622 C   0  0  0  0  0  0  0  0  0  0  0  0
    7.0387  -17.2900  -10.5446 N   0  0  0  0  0  0  0  0  0  0  0  0
    7.2404  -15.9647  -10.6288 C   0  0  0  0  0  0  0  0  0  0  0  0
    7.7972  -15.1692  -11.6185 C   0  0  0  0  0  0  0  0  0  0  0  0
    8.2485  -15.7135  -12.7408 N   0  0  0  0  0  0  0  0  0  0  0  0
    7.8702  -13.8041  -11.4237 N   0  0  0  0  0  0  0  0  0  0  0  0
    7.3927  -13.2195  -10.2575 C   0  0  0  0  0  0  0  0  0  0  0  0
    6.8365  -14.0268   -9.2861 N   0  0  0  0  0  0  0  0  0  0  0  0
    6.7640  -15.3789   -9.4585 C   0  0  0  0  0  0  0  0  0  0  0  0
  2  3  1  6  0  0  0
  2  6  1  0  0  0  0
  2  1  1  0  0  0  0
  4  3  2  0  0  0  0
  5  3  1  0  0  0  0
  6  7  2  0  0  0  0
  8  7  1  6  0  0  0
  8  9  1  0  0  0  0
  8 10  1  0  0  0  0
 11 10  1  6  0  0  0
 11 13  1  0  0  0  0
 12 11  1  0  0  0  0
 12 17  1  0  0  0  0
 13 14  1  1  0  0  0
 13 15  1  0  0  0  0
 15 16  1  1  0  0  0
 17 18  1  6  0  0  0
 17 15  1  0  0  0  0
 18 19  1  0  0  0  0
 20 19  2  0  0  0  0
 21 27  2  0  0  0  0
 21 20  1  0  0  0  0
 22 21  1  0  0  0  0
 23 22  1  0  0  0  0
 24 22  2  0  0  0  0
 24 25  1  0  0  0  0
 25 26  2  0  0  0  0
 26 27  1  0  0  0  0
 27 18  1  0  0  0  0
M  END
>  <CHROM.1>
55.91467668,35.33579057,-51.77204289,-47.49964115,74.39638004,-117.12165971
4.41802265,-15.35442035,-8.49841200,2.92091307,0.14511114,1.16865272

>  <Name>
lig.pdb

>  <RI>
0

>  <Rbt.Current_Directory>
/home/itssahil/PROJECTS/Mol_Feturizer/New_Systems/rnas/4b5r

>  <Rbt.Executable>
rbdock ($Id: //depot/dev/client3/rdock/2013.1/src/exe/rbdock.cxx#4 $)

>  <Rbt.Library>
libRbt.so (2013.1, Build901 2013/11/27)

>  <Rbt.Parameter_File>
/export/apps/rDock/src/rDock_2013.1_src/data/scripts/dock_solv.prm

>  <Rbt.Receptor>
prm/pocket_docking_3.prm

>  <SCORE>
-17.6165

>  <SCORE.INTER>
-18.2411

>  <SCORE.INTER.CONST>
1

>  <SCORE.INTER.POLAR>
0

>  <SCORE.INTER.ROT>
6

>  <SCORE.INTER.SOLV>
18.1594

>  <SCORE.INTER.VDW>
-25.8139

>  <SCORE.INTER.norm>
-0.675596

>  <SCORE.INTRA>
0.624637

>  <SCORE.INTRA.DIHEDRAL>
0.154764

>  <SCORE.INTRA.DIHEDRAL.0>
10.2917

>  <SCORE.INTRA.POLAR>
0

>  <SCORE.INTRA.POLAR.0>
0

>  <SCORE.INTRA.REPUL>
0

>  <SCORE.INTRA.REPUL.0>
0

>  <SCORE.INTRA.SOLV>
-2.27462

>  <SCORE.INTRA.SOLV.lig_0>
-39.6315

>  <SCORE.INTRA.VDW>
1.68456

>  <SCORE.INTRA.VDW.0>
-4.02152

>  <SCORE.INTRA.norm>
0.0231347

>  <SCORE.RESTR>
0

>  <SCORE.RESTR.CAVITY>
0

>  <SCORE.RESTR.norm>
0

>  <SCORE.SYSTEM>
0

>  <SCORE.SYSTEM.CONST>
0

>  <SCORE.SYSTEM.DIHEDRAL>
0

>  <SCORE.SYSTEM.SOLV>
0

>  <SCORE.SYSTEM.norm>
0

>  <SCORE.heavy>
27

>  <SCORE.norm>
-0.652462

>  <RMSD>
5.622

$$$$
lig.pdb
 OpenBabel11021811493D
libRbt.so/2013.1/901 2013/11/27
 27 29  0  0  0  0  0  0  0  0999 V2000
    5.3609  -13.7730  -10.8980 N   0  0  0  0  0  0  0  0  0  0  0  0
    5.1962  -13.9154   -9.4193 C   0  0  2  0  0  0  0  0  0  0  0  0
    5.6848  -15.2967   -8.9931 C   0  0  0  0  0  0  0  0  0  0  0  0
    6.6554  -15.7937   -9.5523 O   0  0  0  0  0  0  0  0  0  0  0  0
    5.1379  -15.9549   -8.0990 O   0  0  0  0  0  0  0  0  0  0  0  0
    3.7614  -13.6395   -8.9264 C   0  0  0  0  0  0  0  0  0  0  0  0
    2.6481  -14.5810   -9.4563 C   0  0  0  0  0  0  0  0  0  0  0  0
    0.9079  -14.3020   -8.9109 S   0  0  2  0  0  0  0  0  0  0  0  0
    1.1211  -12.9891   -7.6901 C   0  0  0  0  0  0  0  0  0  0  0  0
    0.5804  -15.6938   -7.8076 C   0  0  0  0  0  0  0  0  0  0  0  0
    1.0881  -16.9820   -8.4418 C   0  0  1  0  0  0  0  0  0  0  0  0
    0.8418  -17.0373   -9.8388 O   0  0  0  0  0  0  0  0  0  0  0  0
    2.5800  -17.1477   -8.3319 C   0  0  1  0  0  0  0  0  0  0  0  0
    2.9226  -17.5896   -7.0500 O   0  0  0  0  0  0  0  0  0  0  0  0
    2.8245  -18.1872   -9.4033 C   0  0  1  0  0  0  0  0  0  0  0  0
    2.5552  -19.4794   -8.8986 O   0  0  0  0  0  0  0  0  0  0  0  0
    1.8019  -17.8549  -10.4842 C   0  0  2  0  0  0  0  0  0  0  0  0
    2.3582  -17.1967  -11.6980 N   0  0  0  0  0  0  0  0  0  0  0  0
    1.6217  -16.5439  -12.6543 C   0  0  0  0  0  0  0  0  0  0  0  0
    2.4538  -16.0706  -13.6088 N   0  0  0  0  0  0  0  0  0  0  0  0
    3.7145  -16.3985  -13.2817 C   0  0  0  0  0  0  0  0  0  0  0  0
    4.9305  -16.1527  -13.9010 C   0  0  0  0  0  0  0  0  0  0  0  0
    4.9776  -15.4712  -15.0381 N   0  0  0  0  0  0  0  0  0  0  0  0
    6.0908  -16.6204  -13.3164 N   0  0  0  0  0  0  0  0  0  0  0  0
    6.0571  -17.3271  -12.1209 C   0  0  0  0  0  0  0  0  0  0  0  0
    4.8381  -17.5570  -11.5162 N   0  0  0  0  0  0  0  0  0  0  0  0
    3.6807  -17.1091  -12.0844 C   0  0  0  0  0  0  0  0  0  0  0  0
  2  3  1  6  0  0  0
  2  6  1  0  0  0  0
  2  1  1  0  0  0  0
  4  3  2  0  0  0  0
  5  3  1  0  0  0  0
  6  7  2  0  0  0  0
  8  7  1  1  0  0  0
  8  9  1  0  0  0  0
  8 10  1  0  0  0  0
 11 10  1  6  0  0  0
 11 13  1  0  0  0  0
 12 11  1  0  0  0  0
 12 17  1  0  0  0  0
 13 14  1  1  0  0  0
 13 15  1  0  0  0  0
 15 16  1  1  0  0  0
 17 18  1  6  0  0  0
 17 15  1  0  0  0  0
 18 19  1  0  0  0  0
 20 19  2  0  0  0  0
 21 27  2  0  0  0  0
 21 20  1  0  0  0  0
 22 21  1  0  0  0  0
 23 22  1  0  0  0  0
 24 22  2  0  0  0  0
 24 25  1  0  0  0  0
 25 26  2  0  0  0  0
 26 27  1  0  0  0  0
 27 18  1  0  0  0  0
M  END
>  <CHROM.1>
36.40767308,62.17262689,-5.82527351,-45.21463717,-39.60780153,-45.18371666
3.29059600,-16.10037664,-10.27945042,-0.86003922,0.53222163,1.02494151

>  <Name>
lig.pdb

>  <RI>
0

>  <Rbt.Current_Directory>
/home/itssahil/PROJECTS/Mol_Feturizer/New_Systems/rnas/4b5r

>  <Rbt.Executable>
rbdock ($Id: //depot/dev/client3/rdock/2013.1/src/exe/rbdock.cxx#4 $)

>  <Rbt.Library>
libRbt.so (2013.1, Build901 2013/11/27)

>  <Rbt.Parameter_File>
/export/apps/rDock/src/rDock_2013.1_src/data/scripts/dock_solv.prm

>  <Rbt.Receptor>
prm/pocket_docking_3.prm

>  <SCORE>
-8.89254

>  <SCORE.INTER>
-11.816

>  <SCORE.INTER.CONST>
1

>  <SCORE.INTER.POLAR>
0

>  <SCORE.INTER.ROT>
6

>  <SCORE.INTER.SOLV>
11.3173

>  <SCORE.INTER.VDW>
-19.2497

>  <SCORE.INTER.norm>
-0.437628

>  <SCORE.INTRA>
2.9036

>  <SCORE.INTRA.DIHEDRAL>
2.37303

>  <SCORE.INTRA.DIHEDRAL.0>
10.2917

>  <SCORE.INTRA.POLAR>
0

>  <SCORE.INTRA.POLAR.0>
0

>  <SCORE.INTRA.REPUL>
0

>  <SCORE.INTRA.REPUL.0>
0

>  <SCORE.INTRA.SOLV>
1.47339

>  <SCORE.INTRA.SOLV.lig_0>
-39.6315

>  <SCORE.INTRA.VDW>
0.980389

>  <SCORE.INTRA.VDW.0>
-4.02152

>  <SCORE.INTRA.norm>
0.107541

>  <SCORE.RESTR>
0.0198173

>  <SCORE.RESTR.CAVITY>
0.0198173

>  <SCORE.RESTR.norm>
0.000733974

>  <SCORE.SYSTEM>
0

>  <SCORE.SYSTEM.CONST>
0

>  <SCORE.SYSTEM.DIHEDRAL>
0

>  <SCORE.SYSTEM.SOLV>
0

>  <SCORE.SYSTEM.norm>
0

>  <SCORE.heavy>
27

>  <SCORE.norm>
-0.329353

>  <RMSD>
5.626

$$$$
lig.pdb
 OpenBabel11021811493D
libRbt.so/2013.1/901 2013/11/27
 27 29  0  0  0  0  0  0  0  0999 V2000
    4.5947  -18.7079   -7.8351 N   0  0  0  0  0  0  0  0  0  0  0  0
    3.4511  -19.3957   -8.5081 C   0  0  2  0  0  0  0  0  0  0  0  0
    3.9751  -20.1759   -9.7102 C   0  0  0  0  0  0  0  0  0  0  0  0
    5.1422  -20.5491   -9.7265 O   0  0  0  0  0  0  0  0  0  0  0  0
    3.2703  -20.4515  -10.6896 O   0  0  0  0  0  0  0  0  0  0  0  0
    2.3011  -18.4461   -8.9002 C   0  0  0  0  0  0  0  0  0  0  0  0
    2.0135  -17.2637   -7.9381 C   0  0  0  0  0  0  0  0  0  0  0  0
    0.6465  -16.0934   -8.3448 S   0  0  2  0  0  0  0  0  0  0  0  0
   -0.7081  -17.2335   -8.6979 C   0  0  0  0  0  0  0  0  0  0  0  0
    1.0355  -15.5531  -10.0236 C   0  0  0  0  0  0  0  0  0  0  0  0
    2.3009  -14.7057  -10.0099 C   0  0  1  0  0  0  0  0  0  0  0  0
    2.4211  -13.9223   -8.8321 O   0  0  0  0  0  0  0  0  0  0  0  0
    3.5626  -15.5262  -10.0274 C   0  0  1  0  0  0  0  0  0  0  0  0
    3.8249  -15.9792  -11.3243 O   0  0  0  0  0  0  0  0  0  0  0  0
    4.5662  -14.5041   -9.5412 C   0  0  1  0  0  0  0  0  0  0  0  0
    4.9815  -13.6815  -10.6125 O   0  0  0  0  0  0  0  0  0  0  0  0
    3.7827  -13.6591   -8.5431 C   0  0  2  0  0  0  0  0  0  0  0  0
    4.1009  -13.9164   -7.1117 N   0  0  0  0  0  0  0  0  0  0  0  0
    3.2706  -13.6453   -6.0534 C   0  0  0  0  0  0  0  0  0  0  0  0
    3.8836  -14.0074   -4.9043 N   0  0  0  0  0  0  0  0  0  0  0  0
    5.0908  -14.5153   -5.2022 C   0  0  0  0  0  0  0  0  0  0  0  0
    6.1029  -15.0352   -4.4098 C   0  0  0  0  0  0  0  0  0  0  0  0
    5.9596  -15.0932   -3.0923 N   0  0  0  0  0  0  0  0  0  0  0  0
    7.2579  -15.4968   -5.0095 N   0  0  0  0  0  0  0  0  0  0  0  0
    7.4175  -15.4511   -6.3887 C   0  0  0  0  0  0  0  0  0  0  0  0
    6.3969  -14.9356   -7.1615 N   0  0  0  0  0  0  0  0  0  0  0  0
    5.2519  -14.4672   -6.5847 C   0  0  0  0  0  0  0  0  0  0  0  0
  2  3  1  6  0  0  0
  2  6  1  0  0  0  0
  2  1  1  0  0  0  0
  4  3  2  0  0  0  0
  5  3  1  0  0  0  0
  6  7  2  0  0  0  0
  8  7  1  6  0  0  0
  8  9  1  0  0  0  0
  8 10  1  0  0  0  0
 11 10  1  1  0  0  0
 11 13  1  0  0  0  0
 12 11  1  0  0  0  0
 12 17  1  0  0  0  0
 13 14  1  6  0  0  0
 13 15  1  0  0  0  0
 15 16  1  6  0  0  0
 17 18  1  1  0  0  0
 17 15  1  0  0  0  0
 18 19  1  0  0  0  0
 20 19  2  0  0  0  0
 21 27  2  0  0  0  0
 21 20  1  0  0  0  0
 22 21  1  0  0  0  0
 23 22  1  0  0  0  0
 24 22  2  0  0  0  0
 24 25  1  0  0  0  0
 25 26  2  0  0  0  0
 26 27  1  0  0  0  0
 27 18  1  0  0  0  0
M  END
>  <CHROM.1>
25.15185370,-35.11922199,49.26154781,-67.92384035,-34.32995637,-37.55396577
3.74081056,-16.04828301,-8.06691839,-2.25987004,-0.66050743,0.40315911

>  <Name>
lig.pdb

>  <RI>
0

>  <Rbt.Current_Directory>
/home/itssahil/PROJECTS/Mol_Feturizer/New_Systems/rnas/4b5r

>  <Rbt.Executable>
rbdock ($Id: //depot/dev/client3/rdock/2013.1/src/exe/rbdock.cxx#4 $)

>  <Rbt.Library>
libRbt.so (2013.1, Build901 2013/11/27)

>  <Rbt.Parameter_File>
/export/apps/rDock/src/rDock_2013.1_src/data/scripts/dock_solv.prm

>  <Rbt.Receptor>
prm/pocket_docking_5.prm

>  <SCORE>
-15.5994

>  <SCORE.INTER>
-17.1115

>  <SCORE.INTER.CONST>
1

>  <SCORE.INTER.POLAR>
0

>  <SCORE.INTER.ROT>
6

>  <SCORE.INTER.SOLV>
11.5988

>  <SCORE.INTER.VDW>
-22.8739

>  <SCORE.INTER.norm>
-0.633758

>  <SCORE.INTRA>
1.48033

>  <SCORE.INTRA.DIHEDRAL>
1.96175

>  <SCORE.INTRA.DIHEDRAL.0>
10.2917

>  <SCORE.INTRA.POLAR>
0

>  <SCORE.INTRA.POLAR.0>
0

>  <SCORE.INTRA.REPUL>
0

>  <SCORE.INTRA.REPUL.0>
0

>  <SCORE.INTRA.SOLV>
-1.36228

>  <SCORE.INTRA.SOLV.lig_0>
-39.6315

>  <SCORE.INTRA.VDW>
1.18059

>  <SCORE.INTRA.VDW.0>
-4.02152

>  <SCORE.INTRA.norm>
0.0548269

>  <SCORE.RESTR>
0.0317183

>  <SCORE.RESTR.CAVITY>
0.0317183

>  <SCORE.RESTR.norm>
0.00117475

>  <SCORE.SYSTEM>
0

>  <SCORE.SYSTEM.CONST>
0

>  <SCORE.SYSTEM.DIHEDRAL>
0

>  <SCORE.SYSTEM.SOLV>
0

>  <SCORE.SYSTEM.norm>
0

>  <SCORE.heavy>
27

>  <SCORE.norm>
-0.577757

>  <RMSD>
5.634

$$$$
lig.pdb
 OpenBabel11021811493D
libRbt.so/2013.1/901 2013/11/27
 27 29  0  0  0  0  0  0  0  0999 V2000
    4.6536  -19.4653   -9.0730 N   0  0  0  0  0  0  0  0  0  0  0  0
    3.2293  -19.3674   -9.5157 C   0  0  2  0  0  0  0  0  0  0  0  0
    3.1887  -18.9077  -10.9700 C   0  0  0  0  0  0  0  0  0  0  0  0
    3.8769  -17.9571  -11.3229 O   0  0  0  0  0  0  0  0  0  0  0  0
    2.4796  -19.4524  -11.8258 O   0  0  0  0  0  0  0  0  0  0  0  0
    2.3590  -18.4736   -8.6092 C   0  0  0  0  0  0  0  0  0  0  0  0
    1.8393  -17.1489   -9.2269 C   0  0  0  0  0  0  0  0  0  0  0  0
    0.7978  -16.0299   -8.1942 S   0  0  2  0  0  0  0  0  0  0  0  0
   -0.8651  -16.5439   -8.6741 C   0  0  0  0  0  0  0  0  0  0  0  0
    0.8889  -14.4470   -9.0589 C   0  0  0  0  0  0  0  0  0  0  0  0
    2.3232  -13.9352   -9.0428 C   0  0  1  0  0  0  0  0  0  0  0  0
    2.9398  -14.0771   -7.7720 O   0  0  0  0  0  0  0  0  0  0  0  0
    3.2326  -14.6941   -9.9714 C   0  0  1  0  0  0  0  0  0  0  0  0
    3.0449  -14.2629  -11.2886 O   0  0  0  0  0  0  0  0  0  0  0  0
    4.5847  -14.3140   -9.4094 C   0  0  1  0  0  0  0  0  0  0  0  0
    4.9824  -13.0529   -9.9080 O   0  0  0  0  0  0  0  0  0  0  0  0
    4.3444  -14.1994   -7.9082 C   0  0  2  0  0  0  0  0  0  0  0  0
    4.8799  -15.3261   -7.0958 N   0  0  0  0  0  0  0  0  0  0  0  0
    4.9637  -16.6320   -7.5088 C   0  0  0  0  0  0  0  0  0  0  0  0
    5.4990  -17.3779   -6.5166 N   0  0  0  0  0  0  0  0  0  0  0  0
    5.7704  -16.5757   -5.4740 C   0  0  0  0  0  0  0  0  0  0  0  0
    6.3267  -16.8246   -4.2285 C   0  0  0  0  0  0  0  0  0  0  0  0
    6.7015  -18.0527   -3.8954 N   0  0  0  0  0  0  0  0  0  0  0  0
    6.4911  -15.7779   -3.3430 N   0  0  0  0  0  0  0  0  0  0  0  0
    6.1120  -14.4853   -3.6822 C   0  0  0  0  0  0  0  0  0  0  0  0
    5.5655  -14.2558   -4.9285 N   0  0  0  0  0  0  0  0  0  0  0  0
    5.3881  -15.2802   -5.8130 C   0  0  0  0  0  0  0  0  0  0  0  0
  2  3  1  6  0  0  0
  2  6  1  0  0  0  0
  2  1  1  0  0  0  0
  4  3  2  0  0  0  0
  5  3  1  0  0  0  0
  6  7  2  0  0  0  0
  8  7  1  6  0  0  0
  8  9  1  0  0  0  0
  8 10  1  0  0  0  0
 11 10  1  1  0  0  0
 11 13  1  0  0  0  0
 12 11  1  0  0  0  0
 12 17  1  0  0  0  0
 13 14  1  6  0  0  0
 13 15  1  0  0  0  0
 15 16  1  6  0  0  0
 17 18  1  1  0  0  0
 17 15  1  0  0  0  0
 18 19  1  0  0  0  0
 20 19  2  0  0  0  0
 21 27  2  0  0  0  0
 21 20  1  0  0  0  0
 22 21  1  0  0  0  0
 23 22  1  0  0  0  0
 24 22  2  0  0  0  0
 24 25  1  0  0  0  0
 25 26  2  0  0  0  0
 26 27  1  0  0  0  0
 27 18  1  0  0  0  0
M  END
>  <CHROM.1>
-47.01109970,112.44906232,-95.03006679,-64.00084001,-44.09782819,86.82871930
3.72281189,-16.15659927,-8.03104187,-2.75708467,-0.90051356,0.27491014

>  <Name>
lig.pdb

>  <RI>
0

>  <Rbt.Current_Directory>
/home/itssahil/PROJECTS/Mol_Feturizer/New_Systems/rnas/4b5r

>  <Rbt.Executable>
rbdock ($Id: //depot/dev/client3/rdock/2013.1/src/exe/rbdock.cxx#4 $)

>  <Rbt.Library>
libRbt.so (2013.1, Build901 2013/11/27)

>  <Rbt.Parameter_File>
/export/apps/rDock/src/rDock_2013.1_src/data/scripts/dock_solv.prm

>  <Rbt.Receptor>
prm/pocket_docking_5.prm

>  <SCORE>
-17.134

>  <SCORE.INTER>
-17.2007

>  <SCORE.INTER.CONST>
1

>  <SCORE.INTER.POLAR>
0

>  <SCORE.INTER.ROT>
6

>  <SCORE.INTER.SOLV>
11.7937

>  <SCORE.INTER.VDW>
-22.9984

>  <SCORE.INTER.norm>
-0.637065

>  <SCORE.INTRA>
0.0667093

>  <SCORE.INTRA.DIHEDRAL>
-1.28467

>  <SCORE.INTRA.DIHEDRAL.0>
10.2917

>  <SCORE.INTRA.POLAR>
0

>  <SCORE.INTRA.POLAR.0>
0

>  <SCORE.INTRA.REPUL>
0

>  <SCORE.INTRA.REPUL.0>
0

>  <SCORE.INTRA.SOLV>
-0.618884

>  <SCORE.INTRA.SOLV.lig_0>
-39.6315

>  <SCORE.INTRA.VDW>
1.01849

>  <SCORE.INTRA.VDW.0>
-4.02152

>  <SCORE.INTRA.norm>
0.00247071

>  <SCORE.RESTR>
0

>  <SCORE.RESTR.CAVITY>
0

>  <SCORE.RESTR.norm>
0

>  <SCORE.SYSTEM>
0

>  <SCORE.SYSTEM.CONST>
0

>  <SCORE.SYSTEM.DIHEDRAL>
0

>  <SCORE.SYSTEM.SOLV>
0

>  <SCORE.SYSTEM.norm>
0

>  <SCORE.heavy>
27

>  <SCORE.norm>
-0.634594

>  <RMSD>
5.641

$$$$
lig.pdb
 OpenBabel11021811493D
libRbt.so/2013.1/901 2013/11/27
 27 29  0  0  0  0  0  0  0  0999 V2000
    9.0528  -14.6106  -14.6780 N   0  0  0  0  0  0  0  0  0  0  0  0
    8.2115  -15.6333  -13.9849 C   0  0  2  0  0  0  0  0  0  0  0  0
    7.8677  -16.7474  -14.9691 C   0  0  0  0  0  0  0  0  0  0  0  0
    7.7395  -17.8959  -14.5613 O   0  0  0  0  0  0  0  0  0  0  0  0
    7.7142  -16.5478  -16.1809 O   0  0  0  0  0  0  0  0  0  0  0  0
    6.9491  -15.0491  -13.3193 C   0  0  0  0  0  0  0  0  0  0  0  0
    6.8226  -15.2296  -11.7837 C   0  0  0  0  0  0  0  0  0  0  0  0
    5.3333  -14.5598  -10.9253 S   0  0  2  0  0  0  0  0  0  0  0  0
    5.1049  -12.9858  -11.7795 C   0  0  0  0  0  0  0  0  0  0  0  0
    5.9843  -13.9605   -9.3509 C   0  0  0  0  0  0  0  0  0  0  0  0
    6.3594  -15.1428   -8.4672 C   0  0  1  0  0  0  0  0  0  0  0  0
    6.8544  -14.7414   -7.1986 O   0  0  0  0  0  0  0  0  0  0  0  0
    5.1881  -16.0271   -8.1336 C   0  0  1  0  0  0  0  0  0  0  0  0
    4.8960  -16.8674   -9.2127 O   0  0  0  0  0  0  0  0  0  0  0  0
    5.7326  -16.7697   -6.9334 C   0  0  1  0  0  0  0  0  0  0  0  0
    6.5409  -17.8496   -7.3544 O   0  0  0  0  0  0  0  0  0  0  0  0
    6.6088  -15.7417   -6.2262 C   0  0  2  0  0  0  0  0  0  0  0  0
    6.0284  -15.1679   -4.9811 N   0  0  0  0  0  0  0  0  0  0  0  0
    5.2163  -14.0635   -4.9203 C   0  0  0  0  0  0  0  0  0  0  0  0
    4.8784  -13.8316   -3.6321 N   0  0  0  0  0  0  0  0  0  0  0  0
    5.4504  -14.7712   -2.8614 C   0  0  0  0  0  0  0  0  0  0  0  0
    5.4197  -14.9984   -1.4939 C   0  0  0  0  0  0  0  0  0  0  0  0
    4.7223  -14.1992   -0.6974 N   0  0  0  0  0  0  0  0  0  0  0  0
    6.1184  -16.0696   -0.9734 N   0  0  0  0  0  0  0  0  0  0  0  0
    6.8450  -16.9204   -1.7968 C   0  0  0  0  0  0  0  0  0  0  0  0
    6.8590  -16.6818   -3.1560 N   0  0  0  0  0  0  0  0  0  0  0  0
    6.1809  -15.6227   -3.6866 C   0  0  0  0  0  0  0  0  0  0  0  0
  2  3  1  6  0  0  0
  2  6  1  0  0  0  0
  2  1  1  0  0  0  0
  4  3  2  0  0  0  0
  5  3  1  0  0  0  0
  6  7  2  0  0  0  0
  8  7  1  6  0  0  0
  8  9  1  0  0  0  0
  8 10  1  0  0  0  0
 11 10  1  6  0  0  0
 11 13  1  0  0  0  0
 12 11  1  0  0  0  0
 12 17  1  0  0  0  0
 13 14  1  6  0  0  0
 13 15  1  0  0  0  0
 15 16  1  6  0  0  0
 17 18  1  1  0  0  0
 17 15  1  0  0  0  0
 18 19  1  0  0  0  0
 20 19  2  0  0  0  0
 21 27  2  0  0  0  0
 21 20  1  0  0  0  0
 22 21  1  0  0  0  0
 23 22  1  0  0  0  0
 24 22  2  0  0  0  0
 24 25  1  0  0  0  0
 25 26  2  0  0  0  0
 26 27  1  0  0  0  0
 27 18  1  0  0  0  0
M  END
>  <CHROM.1>
147.46955435,-119.58722494,-40.13969380,-71.53408681,-178.78693733,31.15953575
6.28268758,-15.48572450,-8.15792330,1.26950742,1.09345263,-1.33495395

>  <Name>
lig.pdb

>  <RI>
0

>  <Rbt.Current_Directory>
/home/itssahil/PROJECTS/Mol_Feturizer/New_Systems/rnas/4b5r

>  <Rbt.Executable>
rbdock ($Id: //depot/dev/client3/rdock/2013.1/src/exe/rbdock.cxx#4 $)

>  <Rbt.Library>
libRbt.so (2013.1, Build901 2013/11/27)

>  <Rbt.Parameter_File>
/export/apps/rDock/src/rDock_2013.1_src/data/scripts/dock_solv.prm

>  <Rbt.Receptor>
prm/pocket_docking_8.prm

>  <SCORE>
-16.0493

>  <SCORE.INTER>
-14.8717

>  <SCORE.INTER.CONST>
1

>  <SCORE.INTER.POLAR>
0

>  <SCORE.INTER.ROT>
6

>  <SCORE.INTER.SOLV>
17.5787

>  <SCORE.INTER.VDW>
-23.374

>  <SCORE.INTER.norm>
-0.550803

>  <SCORE.INTRA>
-1.17761

>  <SCORE.INTRA.DIHEDRAL>
-3.44049

>  <SCORE.INTRA.DIHEDRAL.0>
10.2917

>  <SCORE.INTRA.POLAR>
0

>  <SCORE.INTRA.POLAR.0>
0

>  <SCORE.INTRA.REPUL>
0

>  <SCORE.INTRA.REPUL.0>
0

>  <SCORE.INTRA.SOLV>
-3.09573

>  <SCORE.INTRA.SOLV.lig_0>
-39.6315

>  <SCORE.INTRA.VDW>
2.0905

>  <SCORE.INTRA.VDW.0>
-4.02152

>  <SCORE.INTRA.norm>
-0.0436152

>  <SCORE.RESTR>
0

>  <SCORE.RESTR.CAVITY>
0

>  <SCORE.RESTR.norm>
0

>  <SCORE.SYSTEM>
0

>  <SCORE.SYSTEM.CONST>
0

>  <SCORE.SYSTEM.DIHEDRAL>
0

>  <SCORE.SYSTEM.SOLV>
0

>  <SCORE.SYSTEM.norm>
0

>  <SCORE.heavy>
27

>  <SCORE.norm>
-0.594419

>  <RMSD>
5.645

$$$$
lig.pdb
 OpenBabel11021811493D
libRbt.so/2013.1/901 2013/11/27
 27 29  0  0  0  0  0  0  0  0999 V2000
    7.1125  -15.5797  -16.0580 N   0  0  0  0  0  0  0  0  0  0  0  0
    7.6415  -15.7482  -14.6703 C   0  0  2  0  0  0  0  0  0  0  0  0
    7.3045  -17.1513  -14.1743 C   0  0  0  0  0  0  0  0  0  0  0  0
    6.1962  -17.6226  -14.4011 O   0  0  0  0  0  0  0  0  0  0  0  0
    8.1058  -17.8481  -13.5386 O   0  0  0  0  0  0  0  0  0  0  0  0
    7.1584  -14.6630  -13.6871 C   0  0  0  0  0  0  0  0  0  0  0  0
    6.6103  -15.1528  -12.3210 C   0  0  0  0  0  0  0  0  0  0  0  0
    6.0097  -13.9063  -11.1007 S   0  0  2  0  0  0  0  0  0  0  0  0
    7.1507  -12.5383  -11.3947 C   0  0  0  0  0  0  0  0  0  0  0  0
    6.6557  -14.5087   -9.5255 C   0  0  0  0  0  0  0  0  0  0  0  0
    6.0896  -15.8922   -9.2340 C   0  0  1  0  0  0  0  0  0  0  0  0
    6.8750  -16.6185   -8.3006 O   0  0  0  0  0  0  0  0  0  0  0  0
    4.7243  -15.8516   -8.6018 C   0  0  1  0  0  0  0  0  0  0  0  0
    3.7498  -15.6075   -9.5748 O   0  0  0  0  0  0  0  0  0  0  0  0
    4.6455  -17.2455   -8.0194 C   0  0  1  0  0  0  0  0  0  0  0  0
    4.2537  -18.1682   -9.0155 O   0  0  0  0  0  0  0  0  0  0  0  0
    6.0774  -17.5529   -7.5955 C   0  0  2  0  0  0  0  0  0  0  0  0
    6.3276  -17.4941   -6.1292 N   0  0  0  0  0  0  0  0  0  0  0  0
    6.6767  -18.5616   -5.3408 C   0  0  0  0  0  0  0  0  0  0  0  0
    6.8233  -18.1414   -4.0643 N   0  0  0  0  0  0  0  0  0  0  0  0
    6.5838  -16.8206   -4.0160 C   0  0  0  0  0  0  0  0  0  0  0  0
    6.6068  -15.9083   -2.9721 C   0  0  0  0  0  0  0  0  0  0  0  0
    6.9128  -16.3036   -1.7434 N   0  0  0  0  0  0  0  0  0  0  0  0
    6.3136  -14.5836   -3.2289 N   0  0  0  0  0  0  0  0  0  0  0  0
    6.0010  -14.1539   -4.5124 C   0  0  0  0  0  0  0  0  0  0  0  0
    5.9888  -15.0754   -5.5397 N   0  0  0  0  0  0  0  0  0  0  0  0
    6.2679  -16.3903   -5.3023 C   0  0  0  0  0  0  0  0  0  0  0  0
  2  3  1  1  0  0  0
  2  6  1  0  0  0  0
  2  1  1  0  0  0  0
  4  3  2  0  0  0  0
  5  3  1  0  0  0  0
  6  7  2  0  0  0  0
  8  7  1  6  0  0  0
  8  9  1  0  0  0  0
  8 10  1  0  0  0  0
 11 10  1  1  0  0  0
 11 13  1  0  0  0  0
 12 11  1  0  0  0  0
 12 17  1  0  0  0  0
 13 14  1  6  0  0  0
 13 15  1  0  0  0  0
 15 16  1  6  0  0  0
 17 18  1  1  0  0  0
 17 15  1  0  0  0  0
 18 19  1  0  0  0  0
 20 19  2  0  0  0  0
 21 27  2  0  0  0  0
 21 20  1  0  0  0  0
 22 21  1  0  0  0  0
 23 22  1  0  0  0  0
 24 22  2  0  0  0  0
 24 25  1  0  0  0  0
 25 26  2  0  0  0  0
 26 27  1  0  0  0  0
 27 18  1  0  0  0  0
M  END
>  <CHROM.1>
-42.08525673,132.01564701,-35.05879990,-60.87567589,159.18824914,-125.68949938
6.29909429,-16.02104309,-8.87416984,-0.27176576,1.51264835,0.33273434

>  <Name>
lig.pdb

>  <RI>
0

>  <Rbt.Current_Directory>
/home/itssahil/PROJECTS/Mol_Feturizer/New_Systems/rnas/4b5r

>  <Rbt.Executable>
rbdock ($Id: //depot/dev/client3/rdock/2013.1/src/exe/rbdock.cxx#4 $)

>  <Rbt.Library>
libRbt.so (2013.1, Build901 2013/11/27)

>  <Rbt.Parameter_File>
/export/apps/rDock/src/rDock_2013.1_src/data/scripts/dock_solv.prm

>  <Rbt.Receptor>
prm/blind_docking_40.prm

>  <SCORE>
-12.7701

>  <SCORE.INTER>
-12.4671

>  <SCORE.INTER.CONST>
1

>  <SCORE.INTER.POLAR>
0

>  <SCORE.INTER.ROT>
6

>  <SCORE.INTER.SOLV>
10.8959

>  <SCORE.INTER.VDW>
-19.5433

>  <SCORE.INTER.norm>
-0.461743

>  <SCORE.INTRA>
-0.303001

>  <SCORE.INTRA.DIHEDRAL>
-1.7145

>  <SCORE.INTRA.DIHEDRAL.0>
10.2917

>  <SCORE.INTRA.POLAR>
0

>  <SCORE.INTRA.POLAR.0>
0

>  <SCORE.INTRA.REPUL>
0

>  <SCORE.INTRA.REPUL.0>
0

>  <SCORE.INTRA.SOLV>
-2.36965

>  <SCORE.INTRA.SOLV.lig_0>
-39.6315

>  <SCORE.INTRA.VDW>
1.73907

>  <SCORE.INTRA.VDW.0>
-4.02152

>  <SCORE.INTRA.norm>
-0.0112223

>  <SCORE.RESTR>
0

>  <SCORE.RESTR.CAVITY>
0

>  <SCORE.RESTR.norm>
0

>  <SCORE.SYSTEM>
0

>  <SCORE.SYSTEM.CONST>
0

>  <SCORE.SYSTEM.DIHEDRAL>
0

>  <SCORE.SYSTEM.SOLV>
0

>  <SCORE.SYSTEM.norm>
0

>  <SCORE.heavy>
27

>  <SCORE.norm>
-0.472965

>  <RMSD>
5.648

$$$$
lig.pdb
 OpenBabel11021811493D
libRbt.so/2013.1/901 2013/11/27
 27 29  0  0  0  0  0  0  0  0999 V2000
    4.3493  -13.2574  -12.8287 N   0  0  0  0  0  0  0  0  0  0  0  0
    5.0281  -12.5949  -11.6736 C   0  0  2  0  0  0  0  0  0  0  0  0
    6.3715  -12.0383  -12.1359 C   0  0  0  0  0  0  0  0  0  0  0  0
    6.5039  -11.6639  -13.2952 O   0  0  0  0  0  0  0  0  0  0  0  0
    7.3535  -11.9491  -11.3879 O   0  0  0  0  0  0  0  0  0  0  0  0
    5.1813  -13.5064  -10.4393 C   0  0  0  0  0  0  0  0  0  0  0  0
    4.6780  -14.9667  -10.5832 C   0  0  0  0  0  0  0  0  0  0  0  0
    4.8257  -16.1086   -9.1418 S   0  0  2  0  0  0  0  0  0  0  0  0
    6.5458  -15.8527   -8.6567 C   0  0  0  0  0  0  0  0  0  0  0  0
    4.9637  -17.7398   -9.9047 C   0  0  0  0  0  0  0  0  0  0  0  0
    4.9814  -18.8123   -8.8235 C   0  0  1  0  0  0  0  0  0  0  0  0
    6.0646  -18.6585   -7.9190 O   0  0  0  0  0  0  0  0  0  0  0  0
    3.7648  -18.7796   -7.9379 C   0  0  1  0  0  0  0  0  0  0  0  0
    2.6819  -19.3840   -8.5843 O   0  0  0  0  0  0  0  0  0  0  0  0
    4.2640  -19.5714   -6.7496 C   0  0  1  0  0  0  0  0  0  0  0  0
    4.1499  -20.9567   -7.0047 O   0  0  0  0  0  0  0  0  0  0  0  0
    5.7410  -19.2059   -6.6531 C   0  0  2  0  0  0  0  0  0  0  0  0
    6.0893  -18.2742   -5.5455 N   0  0  0  0  0  0  0  0  0  0  0  0
    6.9414  -18.5586   -4.5082 C   0  0  0  0  0  0  0  0  0  0  0  0
    7.0220  -17.4836   -3.6926 N   0  0  0  0  0  0  0  0  0  0  0  0
    6.2444  -16.5075   -4.1892 C   0  0  0  0  0  0  0  0  0  0  0  0
    5.9790  -15.2176   -3.7552 C   0  0  0  0  0  0  0  0  0  0  0  0
    6.5482  -14.7516   -2.6514 N   0  0  0  0  0  0  0  0  0  0  0  0
    5.1205  -14.4233   -4.4892 N   0  0  0  0  0  0  0  0  0  0  0  0
    4.5249  -14.8950   -5.6522 C   0  0  0  0  0  0  0  0  0  0  0  0
    4.8056  -16.1794   -6.0717 N   0  0  0  0  0  0  0  0  0  0  0  0
    5.6453  -16.9811   -5.3538 C   0  0  0  0  0  0  0  0  0  0  0  0
  2  3  1  6  0  0  0
  2  6  1  0  0  0  0
  2  1  1  0  0  0  0
  4  3  2  0  0  0  0
  5  3  1  0  0  0  0
  6  7  2  0  0  0  0
  8  7  1  6  0  0  0
  8  9  1  0  0  0  0
  8 10  1  0  0  0  0
 11 10  1  6  0  0  0
 11 13  1  0  0  0  0
 12 11  1  0  0  0  0
 12 17  1  0  0  0  0
 13 14  1  6  0  0  0
 13 15  1  0  0  0  0
 15 16  1  6  0  0  0
 17 18  1  1  0  0  0
 17 15  1  0  0  0  0
 18 19  1  0  0  0  0
 20 19  2  0  0  0  0
 21 27  2  0  0  0  0
 21 20  1  0  0  0  0
 22 21  1  0  0  0  0
 23 22  1  0  0  0  0
 24 22  2  0  0  0  0
 24 25  1  0  0  0  0
 25 26  2  0  0  0  0
 26 27  1  0  0  0  0
 27 18  1  0  0  0  0
M  END
>  <CHROM.1>
30.52492025,2.48769576,-48.91263401,-175.45921265,-59.70095574,-121.85144009
5.39094787,-16.24395899,-7.89881341,1.49451553,-1.21421619,-0.98165774

>  <Name>
lig.pdb

>  <RI>
0

>  <Rbt.Current_Directory>
/home/itssahil/PROJECTS/Mol_Feturizer/New_Systems/rnas/4b5r

>  <Rbt.Executable>
rbdock ($Id: //depot/dev/client3/rdock/2013.1/src/exe/rbdock.cxx#4 $)

>  <Rbt.Library>
libRbt.so (2013.1, Build901 2013/11/27)

>  <Rbt.Parameter_File>
/export/apps/rDock/src/rDock_2013.1_src/data/scripts/dock_solv.prm

>  <Rbt.Receptor>
prm/pocket_docking_8.prm

>  <SCORE>
-12.9239

>  <SCORE.INTER>
-11.8381

>  <SCORE.INTER.CONST>
1

>  <SCORE.INTER.POLAR>
0

>  <SCORE.INTER.ROT>
6

>  <SCORE.INTER.SOLV>
15.3205

>  <SCORE.INTER.VDW>
-20.5989

>  <SCORE.INTER.norm>
-0.438447

>  <SCORE.INTRA>
-1.0858

>  <SCORE.INTRA.DIHEDRAL>
-3.00005

>  <SCORE.INTRA.DIHEDRAL.0>
10.2917

>  <SCORE.INTRA.POLAR>
0

>  <SCORE.INTRA.POLAR.0>
0

>  <SCORE.INTRA.REPUL>
0

>  <SCORE.INTRA.REPUL.0>
0

>  <SCORE.INTRA.SOLV>
-1.28073

>  <SCORE.INTRA.SOLV.lig_0>
-39.6315

>  <SCORE.INTRA.VDW>
1.05459

>  <SCORE.INTRA.VDW.0>
-4.02152

>  <SCORE.INTRA.norm>
-0.0402147

>  <SCORE.RESTR>
0

>  <SCORE.RESTR.CAVITY>
0

>  <SCORE.RESTR.norm>
0

>  <SCORE.SYSTEM>
0

>  <SCORE.SYSTEM.CONST>
0

>  <SCORE.SYSTEM.DIHEDRAL>
0

>  <SCORE.SYSTEM.SOLV>
0

>  <SCORE.SYSTEM.norm>
0

>  <SCORE.heavy>
27

>  <SCORE.norm>
-0.478662

>  <RMSD>
5.674

$$$$
lig.pdb
 OpenBabel11021811493D
libRbt.so/2013.1/901 2013/11/27
 27 29  0  0  0  0  0  0  0  0999 V2000
    6.2333  -10.2686  -18.7223 N   0  0  0  0  0  0  0  0  0  0  0  0
    5.7720  -10.7439  -17.3824 C   0  0  2  0  0  0  0  0  0  0  0  0
    6.1143   -9.6899  -16.3336 C   0  0  0  0  0  0  0  0  0  0  0  0
    7.2346   -9.1936  -16.3186 O   0  0  0  0  0  0  0  0  0  0  0  0
    5.3052   -9.3074  -15.4786 O   0  0  0  0  0  0  0  0  0  0  0  0
    6.3185  -12.1331  -16.9961 C   0  0  0  0  0  0  0  0  0  0  0  0
    5.2841  -13.1763  -16.4977 C   0  0  0  0  0  0  0  0  0  0  0  0
    5.8723  -14.8564  -16.0131 S   0  0  2  0  0  0  0  0  0  0  0  0
    5.7156  -15.7543  -17.5714 C   0  0  0  0  0  0  0  0  0  0  0  0
    4.4690  -15.5552  -15.1163 C   0  0  0  0  0  0  0  0  0  0  0  0
    4.1722  -14.7074  -13.8864 C   0  0  1  0  0  0  0  0  0  0  0  0
    2.8212  -14.8129  -13.4631 O   0  0  0  0  0  0  0  0  0  0  0  0
    4.9629  -15.1245  -12.6756 C   0  0  1  0  0  0  0  0  0  0  0  0
    6.2683  -14.6294  -12.7586 O   0  0  0  0  0  0  0  0  0  0  0  0
    4.1511  -14.4764  -11.5759 C   0  0  1  0  0  0  0  0  0  0  0  0
    4.5050  -13.1144  -11.4472 O   0  0  0  0  0  0  0  0  0  0  0  0
    2.7124  -14.5693  -12.0719 C   0  0  2  0  0  0  0  0  0  0  0  0
    1.8776  -15.6004  -11.3965 N   0  0  0  0  0  0  0  0  0  0  0  0
    1.7480  -16.9054  -11.8006 C   0  0  0  0  0  0  0  0  0  0  0  0
    0.9146  -17.5513  -10.9546 N   0  0  0  0  0  0  0  0  0  0  0  0
    0.5108  -16.6894  -10.0069 C   0  0  0  0  0  0  0  0  0  0  0  0
   -0.3259  -16.8363   -8.9110 C   0  0  0  0  0  0  0  0  0  0  0  0
   -0.8895  -18.0086   -8.6507 N   0  0  0  0  0  0  0  0  0  0  0  0
   -0.5596  -15.7497   -8.0917 N   0  0  0  0  0  0  0  0  0  0  0  0
    0.0316  -14.5188   -8.3469 C   0  0  0  0  0  0  0  0  0  0  0  0
    0.8660  -14.3932   -9.4389 N   0  0  0  0  0  0  0  0  0  0  0  0
    1.1015  -15.4547  -10.2640 C   0  0  0  0  0  0  0  0  0  0  0  0
  2  3  1  1  0  0  0
  2  6  1  0  0  0  0
  2  1  1  0  0  0  0
  4  3  2  0  0  0  0
  5  3  1  0  0  0  0
  6  7  2  0  0  0  0
  8  7  1  6  0  0  0
  8  9  1  0  0  0  0
  8 10  1  0  0  0  0
 11 10  1  6  0  0  0
 11 13  1  0  0  0  0
 12 11  1  0  0  0  0
 12 17  1  0  0  0  0
 13 14  1  6  0  0  0
 13 15  1  0  0  0  0
 15 16  1  6  0  0  0
 17 18  1  1  0  0  0
 17 15  1  0  0  0  0
 18 19  1  0  0  0  0
 20 19  2  0  0  0  0
 21 27  2  0  0  0  0
 21 20  1  0  0  0  0
 22 21  1  0  0  0  0
 23 22  1  0  0  0  0
 24 22  2  0  0  0  0
 24 25  1  0  0  0  0
 25 26  2  0  0  0  0
 26 27  1  0  0  0  0
 27 18  1  0  0  0  0
M  END
>  <CHROM.1>
-46.92500443,-130.10782777,-91.26266822,-61.54059963,154.83937885,29.62796563
3.63705975,-14.19295384,-13.23872805,0.28602345,0.95656599,0.22819977

>  <Name>
lig.pdb

>  <RI>
0

>  <Rbt.Current_Directory>
/home/itssahil/PROJECTS/Mol_Feturizer/New_Systems/rnas/4b5r

>  <Rbt.Executable>
rbdock ($Id: //depot/dev/client3/rdock/2013.1/src/exe/rbdock.cxx#4 $)

>  <Rbt.Library>
libRbt.so (2013.1, Build901 2013/11/27)

>  <Rbt.Parameter_File>
/export/apps/rDock/src/rDock_2013.1_src/data/scripts/dock_solv.prm

>  <Rbt.Receptor>
prm/blind_docking_40.prm

>  <SCORE>
-15.8588

>  <SCORE.INTER>
-15.4682

>  <SCORE.INTER.CONST>
1

>  <SCORE.INTER.POLAR>
0

>  <SCORE.INTER.ROT>
6

>  <SCORE.INTER.SOLV>
15.575

>  <SCORE.INTER.VDW>
-23.1038

>  <SCORE.INTER.norm>
-0.572898

>  <SCORE.INTRA>
-0.390548

>  <SCORE.INTRA.DIHEDRAL>
-0.116359

>  <SCORE.INTRA.DIHEDRAL.0>
10.2917

>  <SCORE.INTRA.POLAR>
0

>  <SCORE.INTRA.POLAR.0>
0

>  <SCORE.INTRA.REPUL>
0

>  <SCORE.INTRA.REPUL.0>
0

>  <SCORE.INTRA.SOLV>
-3.21659

>  <SCORE.INTRA.SOLV.lig_0>
-39.6315

>  <SCORE.INTRA.VDW>
1.27593

>  <SCORE.INTRA.VDW.0>
-4.02152

>  <SCORE.INTRA.norm>
-0.0144647

>  <SCORE.RESTR>
0

>  <SCORE.RESTR.CAVITY>
0

>  <SCORE.RESTR.norm>
0

>  <SCORE.SYSTEM>
0

>  <SCORE.SYSTEM.CONST>
0

>  <SCORE.SYSTEM.DIHEDRAL>
0

>  <SCORE.SYSTEM.SOLV>
0

>  <SCORE.SYSTEM.norm>
0

>  <SCORE.heavy>
27

>  <SCORE.norm>
-0.587363

>  <RMSD>
5.675

$$$$
lig.pdb
 OpenBabel11021811493D
libRbt.so/2013.1/901 2013/11/27
 27 29  0  0  0  0  0  0  0  0999 V2000
    1.8999  -16.4859  -12.9073 N   0  0  0  0  0  0  0  0  0  0  0  0
    2.4649  -15.2849  -12.2201 C   0  0  2  0  0  0  0  0  0  0  0  0
    3.8228  -14.9523  -12.8315 C   0  0  0  0  0  0  0  0  0  0  0  0
    4.5661  -15.8608  -13.1833 O   0  0  0  0  0  0  0  0  0  0  0  0
    4.2212  -13.7910  -12.9882 O   0  0  0  0  0  0  0  0  0  0  0  0
    2.5484  -15.4303  -10.6873 C   0  0  0  0  0  0  0  0  0  0  0  0
    1.9496  -14.2750   -9.8428 C   0  0  0  0  0  0  0  0  0  0  0  0
    2.0225  -14.3829   -8.0025 S   0  0  2  0  0  0  0  0  0  0  0  0
    1.1833  -12.8588   -7.5206 C   0  0  0  0  0  0  0  0  0  0  0  0
    3.7271  -13.9268   -7.6177 C   0  0  0  0  0  0  0  0  0  0  0  0
    4.5890  -15.1801   -7.5412 C   0  0  1  0  0  0  0  0  0  0  0  0
    4.7767  -15.7924   -8.8081 O   0  0  0  0  0  0  0  0  0  0  0  0
    5.9894  -14.9068   -7.0620 C   0  0  1  0  0  0  0  0  0  0  0  0
    6.0023  -14.7573   -5.6715 O   0  0  0  0  0  0  0  0  0  0  0  0
    6.6939  -16.1607   -7.5308 C   0  0  1  0  0  0  0  0  0  0  0  0
    6.4879  -17.2096   -6.6066 O   0  0  0  0  0  0  0  0  0  0  0  0
    5.9969  -16.5111   -8.8408 C   0  0  2  0  0  0  0  0  0  0  0  0
    6.7792  -16.2114  -10.0714 N   0  0  0  0  0  0  0  0  0  0  0  0
    7.3607  -17.1474  -10.8892 C   0  0  0  0  0  0  0  0  0  0  0  0
    7.9871  -16.5182  -11.9086 N   0  0  0  0  0  0  0  0  0  0  0  0
    7.8132  -15.1938  -11.7685 C   0  0  0  0  0  0  0  0  0  0  0  0
    8.2325  -14.1144  -12.5311 C   0  0  0  0  0  0  0  0  0  0  0  0
    8.9465  -14.3089  -13.6321 N   0  0  0  0  0  0  0  0  0  0  0  0
    7.8925  -12.8364  -12.1338 N   0  0  0  0  0  0  0  0  0  0  0  0
    7.1372  -12.6185  -10.9885 C   0  0  0  0  0  0  0  0  0  0  0  0
    6.7239  -13.7055  -10.2454 N   0  0  0  0  0  0  0  0  0  0  0  0
    7.0581  -14.9751  -10.6189 C   0  0  0  0  0  0  0  0  0  0  0  0
  2  3  1  6  0  0  0
  2  6  1  0  0  0  0
  2  1  1  0  0  0  0
  4  3  2  0  0  0  0
  5  3  1  0  0  0  0
  6  7  2  0  0  0  0
  8  7  1  6  0  0  0
  8  9  1  0  0  0  0
  8 10  1  0  0  0  0
 11 10  1  6  0  0  0
 11 13  1  0  0  0  0
 12 11  1  0  0  0  0
 12 17  1  0  0  0  0
 13 14  1  1  0  0  0
 13 15  1  0  0  0  0
 15 16  1  1  0  0  0
 17 18  1  6  0  0  0
 17 15  1  0  0  0  0
 18 19  1  0  0  0  0
 20 19  2  0  0  0  0
 21 27  2  0  0  0  0
 21 20  1  0  0  0  0
 22 21  1  0  0  0  0
 23 22  1  0  0  0  0
 24 22  2  0  0  0  0
 24 25  1  0  0  0  0
 25 26  2  0  0  0  0
 26 27  1  0  0  0  0
 27 18  1  0  0  0  0
M  END
>  <CHROM.1>
-36.59665063,-129.67140002,-178.74604676,-92.59339945,69.51900661,-132.38821655
5.17708223,-14.98983482,-10.02532043,2.30932744,-0.12300922,1.64201146

>  <Name>
lig.pdb

>  <RI>
0

>  <Rbt.Current_Directory>
/home/itssahil/PROJECTS/Mol_Feturizer/New_Systems/rnas/4b5r

>  <Rbt.Executable>
rbdock ($Id: //depot/dev/client3/rdock/2013.1/src/exe/rbdock.cxx#4 $)

>  <Rbt.Library>
libRbt.so (2013.1, Build901 2013/11/27)

>  <Rbt.Parameter_File>
/export/apps/rDock/src/rDock_2013.1_src/data/scripts/dock_solv.prm

>  <Rbt.Receptor>
prm/pocket_docking_4.prm

>  <SCORE>
-15.9196

>  <SCORE.INTER>
-13.4571

>  <SCORE.INTER.CONST>
1

>  <SCORE.INTER.POLAR>
0

>  <SCORE.INTER.ROT>
6

>  <SCORE.INTER.SOLV>
12.8854

>  <SCORE.INTER.VDW>
-20.8665

>  <SCORE.INTER.norm>
-0.498409

>  <SCORE.INTRA>
-2.46257

>  <SCORE.INTRA.DIHEDRAL>
-0.714035

>  <SCORE.INTRA.DIHEDRAL.0>
10.2917

>  <SCORE.INTRA.POLAR>
0

>  <SCORE.INTRA.POLAR.0>
0

>  <SCORE.INTRA.REPUL>
0

>  <SCORE.INTRA.REPUL.0>
0

>  <SCORE.INTRA.SOLV>
-1.99143

>  <SCORE.INTRA.SOLV.lig_0>
-39.6315

>  <SCORE.INTRA.VDW>
-1.10984

>  <SCORE.INTRA.VDW.0>
-4.02152

>  <SCORE.INTRA.norm>
-0.0912062

>  <SCORE.RESTR>
0

>  <SCORE.RESTR.CAVITY>
0

>  <SCORE.RESTR.norm>
0

>  <SCORE.SYSTEM>
0

>  <SCORE.SYSTEM.CONST>
0

>  <SCORE.SYSTEM.DIHEDRAL>
0

>  <SCORE.SYSTEM.SOLV>
0

>  <SCORE.SYSTEM.norm>
0

>  <SCORE.heavy>
27

>  <SCORE.norm>
-0.589616

>  <RMSD>
5.676

$$$$
lig.pdb
 OpenBabel11021811493D
libRbt.so/2013.1/901 2013/11/27
 27 29  0  0  0  0  0  0  0  0999 V2000
    7.1756  -11.0878  -16.5353 N   0  0  0  0  0  0  0  0  0  0  0  0
    8.3783  -11.5245  -15.7627 C   0  0  2  0  0  0  0  0  0  0  0  0
    9.6338  -11.1949  -16.5646 C   0  0  0  0  0  0  0  0  0  0  0  0
    9.5570  -11.0621  -17.7804 O   0  0  0  0  0  0  0  0  0  0  0  0
   10.7469  -11.0575  -16.0411 O   0  0  0  0  0  0  0  0  0  0  0  0
    8.3405  -13.0082  -15.3442 C   0  0  0  0  0  0  0  0  0  0  0  0
    6.9713  -13.7294  -15.4525 C   0  0  0  0  0  0  0  0  0  0  0  0
    6.8551  -15.5039  -14.9613 S   0  0  2  0  0  0  0  0  0  0  0  0
    7.1076  -16.3316  -16.5459 C   0  0  0  0  0  0  0  0  0  0  0  0
    5.0809  -15.7724  -14.7566 C   0  0  0  0  0  0  0  0  0  0  0  0
    4.5352  -14.8165  -13.7040 C   0  0  1  0  0  0  0  0  0  0  0  0
    3.1466  -14.9962  -13.4702 O   0  0  0  0  0  0  0  0  0  0  0  0
    5.1574  -15.0123  -12.3476 C   0  0  1  0  0  0  0  0  0  0  0  0
    6.4196  -14.4115  -12.3052 O   0  0  0  0  0  0  0  0  0  0  0  0
    4.1392  -14.3170  -11.4711 C   0  0  1  0  0  0  0  0  0  0  0  0
    4.3672  -12.9224  -11.4719 O   0  0  0  0  0  0  0  0  0  0  0  0
    2.8056  -14.6010  -12.1533 C   0  0  2  0  0  0  0  0  0  0  0  0
    1.9548  -15.6180  -11.4766 N   0  0  0  0  0  0  0  0  0  0  0  0
    1.8127  -16.9240  -11.8732 C   0  0  0  0  0  0  0  0  0  0  0  0
    0.9666  -17.5548  -11.0284 N   0  0  0  0  0  0  0  0  0  0  0  0
    0.5670  -16.6822  -10.0887 C   0  0  0  0  0  0  0  0  0  0  0  0
   -0.2782  -16.8124   -8.9972 C   0  0  0  0  0  0  0  0  0  0  0  0
   -0.8569  -17.9763   -8.7329 N   0  0  0  0  0  0  0  0  0  0  0  0
   -0.5044  -15.7178   -8.1863 N   0  0  0  0  0  0  0  0  0  0  0  0
    0.1025  -14.4955   -8.4456 C   0  0  0  0  0  0  0  0  0  0  0  0
    0.9451  -14.3866   -9.5332 N   0  0  0  0  0  0  0  0  0  0  0  0
    1.1734  -15.4561  -10.3500 C   0  0  0  0  0  0  0  0  0  0  0  0
  2  3  1  6  0  0  0
  2  6  1  0  0  0  0
  2  1  1  0  0  0  0
  4  3  2  0  0  0  0
  5  3  1  0  0  0  0
  6  7  2  0  0  0  0
  8  7  1  6  0  0  0
  8  9  1  0  0  0  0
  8 10  1  0  0  0  0
 11 10  1  6  0  0  0
 11 13  1  0  0  0  0
 12 11  1  0  0  0  0
 12 17  1  0  0  0  0
 13 14  1  6  0  0  0
 13 15  1  0  0  0  0
 15 16  1  6  0  0  0
 17 18  1  1  0  0  0
 17 15  1  0  0  0  0
 18 19  1  0  0  0  0
 20 19  2  0  0  0  0
 21 27  2  0  0  0  0
 21 20  1  0  0  0  0
 22 21  1  0  0  0  0
 23 22  1  0  0  0  0
 24 22  2  0  0  0  0
 24 25  1  0  0  0  0
 25 26  2  0  0  0  0
 26 27  1  0  0  0  0
 27 18  1  0  0  0  0
M  END
>  <CHROM.1>
-23.03942987,-14.66485913,-93.66833854,-58.62849236,-178.61714981,17.57931808
4.52006485,-14.55732913,-12.96126916,0.03732519,0.74317520,0.46451161

>  <Name>
lig.pdb

>  <RI>
0

>  <Rbt.Current_Directory>
/home/itssahil/PROJECTS/Mol_Feturizer/New_Systems/rnas/4b5r

>  <Rbt.Executable>
rbdock ($Id: //depot/dev/client3/rdock/2013.1/src/exe/rbdock.cxx#4 $)

>  <Rbt.Library>
libRbt.so (2013.1, Build901 2013/11/27)

>  <Rbt.Parameter_File>
/export/apps/rDock/src/rDock_2013.1_src/data/scripts/dock_solv.prm

>  <Rbt.Receptor>
prm/blind_docking_100.prm

>  <SCORE>
-14.6276

>  <SCORE.INTER>
-14.7179

>  <SCORE.INTER.CONST>
1

>  <SCORE.INTER.POLAR>
0

>  <SCORE.INTER.ROT>
6

>  <SCORE.INTER.SOLV>
15.448

>  <SCORE.INTER.VDW>
-22.5613

>  <SCORE.INTER.norm>
-0.545108

>  <SCORE.INTRA>
0.0903147

>  <SCORE.INTRA.DIHEDRAL>
-1.67708

>  <SCORE.INTRA.DIHEDRAL.0>
10.2917

>  <SCORE.INTRA.POLAR>
0

>  <SCORE.INTRA.POLAR.0>
0

>  <SCORE.INTRA.REPUL>
0

>  <SCORE.INTRA.REPUL.0>
0

>  <SCORE.INTRA.SOLV>
-2.18549

>  <SCORE.INTRA.SOLV.lig_0>
-39.6315

>  <SCORE.INTRA.VDW>
2.0216

>  <SCORE.INTRA.VDW.0>
-4.02152

>  <SCORE.INTRA.norm>
0.00334499

>  <SCORE.RESTR>
0

>  <SCORE.RESTR.CAVITY>
0

>  <SCORE.RESTR.norm>
0

>  <SCORE.SYSTEM>
0

>  <SCORE.SYSTEM.CONST>
0

>  <SCORE.SYSTEM.DIHEDRAL>
0

>  <SCORE.SYSTEM.SOLV>
0

>  <SCORE.SYSTEM.norm>
0

>  <SCORE.heavy>
27

>  <SCORE.norm>
-0.541763

>  <RMSD>
5.682

$$$$
lig.pdb
 OpenBabel11021811493D
libRbt.so/2013.1/901 2013/11/27
 27 29  0  0  0  0  0  0  0  0999 V2000
    2.8768  -18.7269  -11.9414 N   0  0  0  0  0  0  0  0  0  0  0  0
    3.4851  -18.9795  -10.5996 C   0  0  2  0  0  0  0  0  0  0  0  0
    3.5116  -20.4826  -10.3383 C   0  0  0  0  0  0  0  0  0  0  0  0
    4.3422  -20.9473   -9.5664 O   0  0  0  0  0  0  0  0  0  0  0  0
    2.7262  -21.2712  -10.8797 O   0  0  0  0  0  0  0  0  0  0  0  0
    2.7966  -18.2120   -9.4530 C   0  0  0  0  0  0  0  0  0  0  0  0
    1.7051  -17.1861   -9.8563 C   0  0  0  0  0  0  0  0  0  0  0  0
    0.8465  -16.2289   -8.5334 S   0  0  2  0  0  0  0  0  0  0  0  0
   -0.8487  -16.8269   -8.7013 C   0  0  0  0  0  0  0  0  0  0  0  0
    0.6614  -14.5826   -9.2526 C   0  0  0  0  0  0  0  0  0  0  0  0
    2.0287  -13.9262   -9.3908 C   0  0  1  0  0  0  0  0  0  0  0  0
    2.7718  -13.9516   -8.1814 O   0  0  0  0  0  0  0  0  0  0  0  0
    2.9237  -14.6254  -10.3784 C   0  0  1  0  0  0  0  0  0  0  0  0
    2.5703  -14.2705  -11.6842 O   0  0  0  0  0  0  0  0  0  0  0  0
    4.2739  -14.0859   -9.9613 C   0  0  1  0  0  0  0  0  0  0  0  0
    4.4880  -12.8124  -10.5352 O   0  0  0  0  0  0  0  0  0  0  0  0
    4.1628  -13.9348   -8.4483 C   0  0  2  0  0  0  0  0  0  0  0  0
    4.8875  -14.9662   -7.6564 N   0  0  0  0  0  0  0  0  0  0  0  0
    5.4341  -16.1175   -8.1651 C   0  0  0  0  0  0  0  0  0  0  0  0
    6.0129  -16.8148   -7.1620 N   0  0  0  0  0  0  0  0  0  0  0  0
    5.8576  -16.1305   -6.0168 C   0  0  0  0  0  0  0  0  0  0  0  0
    6.2631  -16.3886   -4.7162 C   0  0  0  0  0  0  0  0  0  0  0  0
    6.9427  -17.4919   -4.4328 N   0  0  0  0  0  0  0  0  0  0  0  0
    5.9561  -15.4805   -3.7223 N   0  0  0  0  0  0  0  0  0  0  0  0
    5.2534  -14.3164   -4.0065 C   0  0  0  0  0  0  0  0  0  0  0  0
    4.8632  -14.0738   -5.3078 N   0  0  0  0  0  0  0  0  0  0  0  0
    5.1509  -14.9646   -6.3012 C   0  0  0  0  0  0  0  0  0  0  0  0
  2  3  1  1  0  0  0
  2  6  1  0  0  0  0
  2  1  1  0  0  0  0
  4  3  2  0  0  0  0
  5  3  1  0  0  0  0
  6  7  2  0  0  0  0
  8  7  1  6  0  0  0
  8  9  1  0  0  0  0
  8 10  1  0  0  0  0
 11 10  1  1  0  0  0
 11 13  1  0  0  0  0
 12 11  1  0  0  0  0
 12 17  1  0  0  0  0
 13 14  1  6  0  0  0
 13 15  1  0  0  0  0
 15 16  1  6  0  0  0
 17 18  1  1  0  0  0
 17 15  1  0  0  0  0
 18 19  1  0  0  0  0
 20 19  2  0  0  0  0
 21 27  2  0  0  0  0
 21 20  1  0  0  0  0
 22 21  1  0  0  0  0
 23 22  1  0  0  0  0
 24 22  2  0  0  0  0
 24 25  1  0  0  0  0
 25 26  2  0  0  0  0
 26 27  1  0  0  0  0
 27 18  1  0  0  0  0
M  END
>  <CHROM.1>
154.82490114,-6.70481720,-115.53123151,-68.29134500,-51.66946386,108.24751929
3.59359346,-16.22358169,-8.41440555,-2.47005107,-0.86875376,0.27520780

>  <Name>
lig.pdb

>  <RI>
0

>  <Rbt.Current_Directory>
/home/itssahil/PROJECTS/Mol_Feturizer/New_Systems/rnas/4b5r

>  <Rbt.Executable>
rbdock ($Id: //depot/dev/client3/rdock/2013.1/src/exe/rbdock.cxx#4 $)

>  <Rbt.Library>
libRbt.so (2013.1, Build901 2013/11/27)

>  <Rbt.Parameter_File>
/export/apps/rDock/src/rDock_2013.1_src/data/scripts/dock_solv.prm

>  <Rbt.Receptor>
prm/pocket_docking_6.prm

>  <SCORE>
-16.8605

>  <SCORE.INTER>
-16.6323

>  <SCORE.INTER.CONST>
1

>  <SCORE.INTER.POLAR>
0

>  <SCORE.INTER.ROT>
6

>  <SCORE.INTER.SOLV>
17.4047

>  <SCORE.INTER.VDW>
-24.4898

>  <SCORE.INTER.norm>
-0.616011

>  <SCORE.INTRA>
-0.228204

>  <SCORE.INTRA.DIHEDRAL>
-1.49044

>  <SCORE.INTRA.DIHEDRAL.0>
10.2917

>  <SCORE.INTRA.POLAR>
0

>  <SCORE.INTRA.POLAR.0>
0

>  <SCORE.INTRA.REPUL>
0.000127907

>  <SCORE.INTRA.REPUL.0>
0

>  <SCORE.INTRA.SOLV>
-2.10282

>  <SCORE.INTRA.SOLV.lig_0>
-39.6315

>  <SCORE.INTRA.VDW>
1.56779

>  <SCORE.INTRA.VDW.0>
-4.02152

>  <SCORE.INTRA.norm>
-0.008452

>  <SCORE.RESTR>
0

>  <SCORE.RESTR.CAVITY>
0

>  <SCORE.RESTR.norm>
0

>  <SCORE.SYSTEM>
0

>  <SCORE.SYSTEM.CONST>
0

>  <SCORE.SYSTEM.DIHEDRAL>
0

>  <SCORE.SYSTEM.SOLV>
0

>  <SCORE.SYSTEM.norm>
0

>  <SCORE.heavy>
27

>  <SCORE.norm>
-0.624463

>  <RMSD>
5.714

$$$$
lig.pdb
 OpenBabel11021811493D
libRbt.so/2013.1/901 2013/11/27
 27 29  0  0  0  0  0  0  0  0999 V2000
    8.5105   -9.2852  -16.8107 N   0  0  0  0  0  0  0  0  0  0  0  0
    9.8648   -9.8134  -16.4630 C   0  0  2  0  0  0  0  0  0  0  0  0
   10.5159  -10.3844  -17.7192 C   0  0  0  0  0  0  0  0  0  0  0  0
   11.7295  -10.2961  -17.8645 O   0  0  0  0  0  0  0  0  0  0  0  0
    9.8687  -10.9374  -18.6177 O   0  0  0  0  0  0  0  0  0  0  0  0
    9.8531  -10.8370  -15.3097 C   0  0  0  0  0  0  0  0  0  0  0  0
    8.4628  -11.3168  -14.8163 C   0  0  0  0  0  0  0  0  0  0  0  0
    8.3773  -12.5363  -13.4346 S   0  0  2  0  0  0  0  0  0  0  0  0
    8.4057  -14.1008  -14.3353 C   0  0  0  0  0  0  0  0  0  0  0  0
    6.6400  -12.4995  -12.9427 C   0  0  0  0  0  0  0  0  0  0  0  0
    6.5147  -12.8775  -11.4727 C   0  0  1  0  0  0  0  0  0  0  0  0
    5.2347  -12.5754  -10.9380 O   0  0  0  0  0  0  0  0  0  0  0  0
    6.6688  -14.3543  -11.2263 C   0  0  1  0  0  0  0  0  0  0  0  0
    8.0216  -14.7080  -11.2494 O   0  0  0  0  0  0  0  0  0  0  0  0
    6.0473  -14.4738   -9.8524 C   0  0  1  0  0  0  0  0  0  0  0  0
    6.9887  -14.1204   -8.8595 O   0  0  0  0  0  0  0  0  0  0  0  0
    4.9254  -13.4415   -9.8606 C   0  0  2  0  0  0  0  0  0  0  0  0
    3.5521  -14.0032   -9.9831 N   0  0  0  0  0  0  0  0  0  0  0  0
    3.0438  -14.6192  -11.0989 C   0  0  0  0  0  0  0  0  0  0  0  0
    1.7713  -15.0034  -10.8529 N   0  0  0  0  0  0  0  0  0  0  0  0
    1.4520  -14.6545   -9.5957 C   0  0  0  0  0  0  0  0  0  0  0  0
    0.2952  -14.8199   -8.8494 C   0  0  0  0  0  0  0  0  0  0  0  0
   -0.7605  -15.4268   -9.3755 N   0  0  0  0  0  0  0  0  0  0  0  0
    0.2585  -14.3510   -7.5512 N   0  0  0  0  0  0  0  0  0  0  0  0
    1.3599  -13.7222   -6.9843 C   0  0  0  0  0  0  0  0  0  0  0  0
    2.5044  -13.5718   -7.7406 N   0  0  0  0  0  0  0  0  0  0  0  0
    2.5553  -14.0218   -9.0282 C   0  0  0  0  0  0  0  0  0  0  0  0
  2  3  1  6  0  0  0
  2  6  1  0  0  0  0
  2  1  1  0  0  0  0
  4  3  2  0  0  0  0
  5  3  1  0  0  0  0
  6  7  2  0  0  0  0
  8  7  1  6  0  0  0
  8  9  1  0  0  0  0
  8 10  1  0  0  0  0
 11 10  1  6  0  0  0
 11 13  1  0  0  0  0
 12 11  1  0  0  0  0
 12 17  1  0  0  0  0
 13 14  1  1  0  0  0
 13 15  1  0  0  0  0
 15 16  1  1  0  0  0
 17 18  1  6  0  0  0
 17 15  1  0  0  0  0
 18 19  1  0  0  0  0
 20 19  2  0  0  0  0
 21 27  2  0  0  0  0
 21 20  1  0  0  0  0
 22 21  1  0  0  0  0
 23 22  1  0  0  0  0
 24 22  2  0  0  0  0
 24 25  1  0  0  0  0
 25 26  2  0  0  0  0
 26 27  1  0  0  0  0
 27 18  1  0  0  0  0
M  END
>  <CHROM.1>
146.17483163,8.18737617,-89.94185007,-152.47106363,166.37715864,51.04807337
5.88171640,-13.02649434,-12.08575566,0.80980518,0.01384102,-1.12371794

>  <Name>
lig.pdb

>  <RI>
0

>  <Rbt.Current_Directory>
/home/itssahil/PROJECTS/Mol_Feturizer/New_Systems/rnas/4b5r

>  <Rbt.Executable>
rbdock ($Id: //depot/dev/client3/rdock/2013.1/src/exe/rbdock.cxx#4 $)

>  <Rbt.Library>
libRbt.so (2013.1, Build901 2013/11/27)

>  <Rbt.Parameter_File>
/export/apps/rDock/src/rDock_2013.1_src/data/scripts/dock_solv.prm

>  <Rbt.Receptor>
prm/blind_docking_100.prm

>  <SCORE>
-16.8001

>  <SCORE.INTER>
-17.715

>  <SCORE.INTER.CONST>
1

>  <SCORE.INTER.POLAR>
0

>  <SCORE.INTER.ROT>
6

>  <SCORE.INTER.SOLV>
18.0556

>  <SCORE.INTER.VDW>
-25.4285

>  <SCORE.INTER.norm>
-0.65611

>  <SCORE.INTRA>
0.914876

>  <SCORE.INTRA.DIHEDRAL>
1.17299

>  <SCORE.INTRA.DIHEDRAL.0>
10.2917

>  <SCORE.INTRA.POLAR>
0

>  <SCORE.INTRA.POLAR.0>
0

>  <SCORE.INTRA.REPUL>
0

>  <SCORE.INTRA.REPUL.0>
0

>  <SCORE.INTRA.SOLV>
-2.62805

>  <SCORE.INTRA.SOLV.lig_0>
-39.6315

>  <SCORE.INTRA.VDW>
1.6424

>  <SCORE.INTRA.VDW.0>
-4.02152

>  <SCORE.INTRA.norm>
0.0338843

>  <SCORE.RESTR>
0

>  <SCORE.RESTR.CAVITY>
0

>  <SCORE.RESTR.norm>
0

>  <SCORE.SYSTEM>
0

>  <SCORE.SYSTEM.CONST>
0

>  <SCORE.SYSTEM.DIHEDRAL>
0

>  <SCORE.SYSTEM.SOLV>
0

>  <SCORE.SYSTEM.norm>
0

>  <SCORE.heavy>
27

>  <SCORE.norm>
-0.622226

>  <RMSD>
5.729

$$$$
lig.pdb
 OpenBabel11021811493D
libRbt.so/2013.1/901 2013/11/27
 27 29  0  0  0  0  0  0  0  0999 V2000
    6.6959  -14.7358  -14.7893 N   0  0  0  0  0  0  0  0  0  0  0  0
    5.4579  -15.4456  -15.2336 C   0  0  2  0  0  0  0  0  0  0  0  0
    4.9363  -14.7895  -16.5086 C   0  0  0  0  0  0  0  0  0  0  0  0
    4.9022  -13.5672  -16.5890 O   0  0  0  0  0  0  0  0  0  0  0  0
    4.5339  -15.4405  -17.4813 O   0  0  0  0  0  0  0  0  0  0  0  0
    4.3675  -15.5288  -14.1463 C   0  0  0  0  0  0  0  0  0  0  0  0
    3.9959  -16.9463  -13.6373 C   0  0  0  0  0  0  0  0  0  0  0  0
    2.6941  -17.1172  -12.3414 S   0  0  2  0  0  0  0  0  0  0  0  0
    1.6070  -15.7322  -12.7406 C   0  0  0  0  0  0  0  0  0  0  0  0
    3.4861  -16.4643  -10.8553 C   0  0  0  0  0  0  0  0  0  0  0  0
    4.5854  -17.4147  -10.3998 C   0  0  1  0  0  0  0  0  0  0  0  0
    5.6301  -16.7495   -9.7059 O   0  0  0  0  0  0  0  0  0  0  0  0
    4.1037  -18.4501   -9.4194 C   0  0  1  0  0  0  0  0  0  0  0  0
    3.4324  -19.4758  -10.0926 O   0  0  0  0  0  0  0  0  0  0  0  0
    5.4177  -18.8960   -8.8171 C   0  0  1  0  0  0  0  0  0  0  0  0
    6.0385  -19.8502   -9.6544 O   0  0  0  0  0  0  0  0  0  0  0  0
    6.2660  -17.6294   -8.7960 C   0  0  2  0  0  0  0  0  0  0  0  0
    6.4354  -17.0058   -7.4548 N   0  0  0  0  0  0  0  0  0  0  0  0
    6.4824  -15.6568   -7.2076 C   0  0  0  0  0  0  0  0  0  0  0  0
    6.6439  -15.4541   -5.8809 N   0  0  0  0  0  0  0  0  0  0  0  0
    6.6932  -16.6474   -5.2663 C   0  0  0  0  0  0  0  0  0  0  0  0
    6.8348  -17.0024   -3.9334 C   0  0  0  0  0  0  0  0  0  0  0  0
    6.9499  -16.0675   -2.9995 N   0  0  0  0  0  0  0  0  0  0  0  0
    6.8481  -18.3400   -3.5905 N   0  0  0  0  0  0  0  0  0  0  0  0
    6.7188  -19.3294   -4.5569 C   0  0  0  0  0  0  0  0  0  0  0  0
    6.5730  -18.9568   -5.8777 N   0  0  0  0  0  0  0  0  0  0  0  0
    6.5662  -17.6395   -6.2354 C   0  0  0  0  0  0  0  0  0  0  0  0
  2  3  1  6  0  0  0
  2  6  1  0  0  0  0
  2  1  1  0  0  0  0
  4  3  2  0  0  0  0
  5  3  1  0  0  0  0
  6  7  2  0  0  0  0
  8  7  1  6  0  0  0
  8  9  1  0  0  0  0
  8 10  1  0  0  0  0
 11 10  1  1  0  0  0
 11 13  1  0  0  0  0
 12 11  1  0  0  0  0
 12 17  1  0  0  0  0
 13 14  1  6  0  0  0
 13 15  1  0  0  0  0
 15 16  1  6  0  0  0
 17 18  1  1  0  0  0
 17 15  1  0  0  0  0
 18 19  1  0  0  0  0
 20 19  2  0  0  0  0
 21 27  2  0  0  0  0
 21 20  1  0  0  0  0
 22 21  1  0  0  0  0
 23 22  1  0  0  0  0
 24 22  2  0  0  0  0
 24 25  1  0  0  0  0
 25 26  2  0  0  0  0
 26 27  1  0  0  0  0
 27 18  1  0  0  0  0
M  END
>  <CHROM.1>
-43.87192016,-115.65447742,32.23237212,-69.48547809,151.62509248,-23.92523573
5.20529152,-16.91078452,-10.01245106,-1.90863895,0.85929131,2.04240430

>  <Name>
lig.pdb

>  <RI>
0

>  <Rbt.Current_Directory>
/home/itssahil/PROJECTS/Mol_Feturizer/New_Systems/rnas/4b5r

>  <Rbt.Executable>
rbdock ($Id: //depot/dev/client3/rdock/2013.1/src/exe/rbdock.cxx#4 $)

>  <Rbt.Library>
libRbt.so (2013.1, Build901 2013/11/27)

>  <Rbt.Parameter_File>
/export/apps/rDock/src/rDock_2013.1_src/data/scripts/dock_solv.prm

>  <Rbt.Receptor>
prm/pocket_docking_5.prm

>  <SCORE>
-11.0489

>  <SCORE.INTER>
-11.6896

>  <SCORE.INTER.CONST>
1

>  <SCORE.INTER.POLAR>
0

>  <SCORE.INTER.ROT>
6

>  <SCORE.INTER.SOLV>
11.0719

>  <SCORE.INTER.VDW>
-19.0837

>  <SCORE.INTER.norm>
-0.432947

>  <SCORE.INTRA>
0.640706

>  <SCORE.INTRA.DIHEDRAL>
0.497339

>  <SCORE.INTRA.DIHEDRAL.0>
10.2917

>  <SCORE.INTRA.POLAR>
0

>  <SCORE.INTRA.POLAR.0>
0

>  <SCORE.INTRA.REPUL>
0

>  <SCORE.INTRA.REPUL.0>
0

>  <SCORE.INTRA.SOLV>
-2.90031

>  <SCORE.INTRA.SOLV.lig_0>
-39.6315

>  <SCORE.INTRA.VDW>
1.84219

>  <SCORE.INTRA.VDW.0>
-4.02152

>  <SCORE.INTRA.norm>
0.0237298

>  <SCORE.RESTR>
0

>  <SCORE.RESTR.CAVITY>
0

>  <SCORE.RESTR.norm>
0

>  <SCORE.SYSTEM>
0

>  <SCORE.SYSTEM.CONST>
0

>  <SCORE.SYSTEM.DIHEDRAL>
0

>  <SCORE.SYSTEM.SOLV>
0

>  <SCORE.SYSTEM.norm>
0

>  <SCORE.heavy>
27

>  <SCORE.norm>
-0.409217

>  <RMSD>
5.733

$$$$
lig.pdb
 OpenBabel11021811493D
libRbt.so/2013.1/901 2013/11/27
 27 29  0  0  0  0  0  0  0  0999 V2000
    0.0797  -17.1476   -9.9922 N   0  0  0  0  0  0  0  0  0  0  0  0
    1.4651  -16.8812   -9.4986 C   0  0  2  0  0  0  0  0  0  0  0  0
    1.8654  -17.9788   -8.5172 C   0  0  0  0  0  0  0  0  0  0  0  0
    1.0313  -18.4287   -7.7403 O   0  0  0  0  0  0  0  0  0  0  0  0
    3.0115  -18.4428   -8.4612 O   0  0  0  0  0  0  0  0  0  0  0  0
    1.6461  -15.4761   -8.8895 C   0  0  0  0  0  0  0  0  0  0  0  0
    1.7518  -15.3936   -7.3440 C   0  0  0  0  0  0  0  0  0  0  0  0
    1.9629  -13.7418   -6.5500 S   0  0  2  0  0  0  0  0  0  0  0  0
    1.1624  -12.6605   -7.7540 C   0  0  0  0  0  0  0  0  0  0  0  0
    3.6916  -13.3324   -6.8749 C   0  0  0  0  0  0  0  0  0  0  0  0
    4.5448  -14.5898   -6.7729 C   0  0  1  0  0  0  0  0  0  0  0  0
    4.6265  -15.2959   -8.0018 O   0  0  0  0  0  0  0  0  0  0  0  0
    5.9811  -14.3036   -6.4255 C   0  0  1  0  0  0  0  0  0  0  0  0
    6.1046  -14.0531   -5.0551 O   0  0  0  0  0  0  0  0  0  0  0  0
    6.6346  -15.5990   -6.8534 C   0  0  1  0  0  0  0  0  0  0  0  0
    6.4919  -16.5743   -5.8408 O   0  0  0  0  0  0  0  0  0  0  0  0
    5.8336  -16.0336   -8.0757 C   0  0  2  0  0  0  0  0  0  0  0  0
    6.5196  -15.8366   -9.3822 N   0  0  0  0  0  0  0  0  0  0  0  0
    7.4557  -16.6825   -9.9219 C   0  0  0  0  0  0  0  0  0  0  0  0
    7.8620  -16.1919  -11.1143 N   0  0  0  0  0  0  0  0  0  0  0  0
    7.1988  -15.0496  -11.3580 C   0  0  0  0  0  0  0  0  0  0  0  0
    7.2302  -14.1650  -12.4253 C   0  0  0  0  0  0  0  0  0  0  0  0
    8.0295  -14.3910  -13.4596 N   0  0  0  0  0  0  0  0  0  0  0  0
    6.4153  -13.0506  -12.4005 N   0  0  0  0  0  0  0  0  0  0  0  0
    5.5663  -12.8066  -11.3284 C   0  0  0  0  0  0  0  0  0  0  0  0
    5.5445  -13.7013  -10.2779 N   0  0  0  0  0  0  0  0  0  0  0  0
    6.3496  -14.8036  -10.2820 C   0  0  0  0  0  0  0  0  0  0  0  0
  2  3  1  1  0  0  0
  2  6  1  0  0  0  0
  2  1  1  0  0  0  0
  4  3  2  0  0  0  0
  5  3  1  0  0  0  0
  6  7  2  0  0  0  0
  8  7  1  6  0  0  0
  8  9  1  0  0  0  0
  8 10  1  0  0  0  0
 11 10  1  6  0  0  0
 11 13  1  0  0  0  0
 12 11  1  0  0  0  0
 12 17  1  0  0  0  0
 13 14  1  1  0  0  0
 13 15  1  0  0  0  0
 15 16  1  1  0  0  0
 17 18  1  6  0  0  0
 17 15  1  0  0  0  0
 18 19  1  0  0  0  0
 20 19  2  0  0  0  0
 21 27  2  0  0  0  0
 21 20  1  0  0  0  0
 22 21  1  0  0  0  0
 23 22  1  0  0  0  0
 24 22  2  0  0  0  0
 24 25  1  0  0  0  0
 25 26  2  0  0  0  0
 26 27  1  0  0  0  0
 27 18  1  0  0  0  0
M  END
>  <CHROM.1>
-37.92001375,105.67145926,27.76260858,-37.54706089,87.91136440,-159.27537305
4.50631524,-15.23125328,-8.72779484,2.60158243,0.35372617,1.33750392

>  <Name>
lig.pdb

>  <RI>
0

>  <Rbt.Current_Directory>
/home/itssahil/PROJECTS/Mol_Feturizer/New_Systems/rnas/4b5r

>  <Rbt.Executable>
rbdock ($Id: //depot/dev/client3/rdock/2013.1/src/exe/rbdock.cxx#4 $)

>  <Rbt.Library>
libRbt.so (2013.1, Build901 2013/11/27)

>  <Rbt.Parameter_File>
/export/apps/rDock/src/rDock_2013.1_src/data/scripts/dock_solv.prm

>  <Rbt.Receptor>
prm/pocket_docking_3.prm

>  <SCORE>
-11.9906

>  <SCORE.INTER>
-13.9171

>  <SCORE.INTER.CONST>
1

>  <SCORE.INTER.POLAR>
0

>  <SCORE.INTER.ROT>
6

>  <SCORE.INTER.SOLV>
13.9363

>  <SCORE.INTER.VDW>
-21.5235

>  <SCORE.INTER.norm>
-0.515448

>  <SCORE.INTRA>
1.92573

>  <SCORE.INTRA.DIHEDRAL>
2.8881

>  <SCORE.INTRA.DIHEDRAL.0>
10.2917

>  <SCORE.INTRA.POLAR>
0

>  <SCORE.INTRA.POLAR.0>
0

>  <SCORE.INTRA.REPUL>
0

>  <SCORE.INTRA.REPUL.0>
0

>  <SCORE.INTRA.SOLV>
-2.16737

>  <SCORE.INTRA.SOLV.lig_0>
-39.6315

>  <SCORE.INTRA.VDW>
1.56536

>  <SCORE.INTRA.VDW.0>
-4.02152

>  <SCORE.INTRA.norm>
0.0713233

>  <SCORE.RESTR>
0.000729059

>  <SCORE.RESTR.CAVITY>
0.000729059

>  <SCORE.RESTR.norm>
2.70022e-05

>  <SCORE.SYSTEM>
0

>  <SCORE.SYSTEM.CONST>
0

>  <SCORE.SYSTEM.DIHEDRAL>
0

>  <SCORE.SYSTEM.SOLV>
0

>  <SCORE.SYSTEM.norm>
0

>  <SCORE.heavy>
27

>  <SCORE.norm>
-0.444097

>  <RMSD>
5.739

$$$$
lig.pdb
 OpenBabel11021811493D
libRbt.so/2013.1/901 2013/11/27
 27 29  0  0  0  0  0  0  0  0999 V2000
    8.5128  -13.2045  -13.7880 N   0  0  0  0  0  0  0  0  0  0  0  0
    8.4574  -14.5629  -14.4088 C   0  0  2  0  0  0  0  0  0  0  0  0
    7.3580  -14.5841  -15.4667 C   0  0  0  0  0  0  0  0  0  0  0  0
    7.4479  -15.3531  -16.4166 O   0  0  0  0  0  0  0  0  0  0  0  0
    6.3648  -13.8474  -15.4163 O   0  0  0  0  0  0  0  0  0  0  0  0
    8.2887  -15.7049  -13.3863 C   0  0  0  0  0  0  0  0  0  0  0  0
    8.0039  -15.2912  -11.9186 C   0  0  0  0  0  0  0  0  0  0  0  0
    7.7980  -16.6083  -10.6433 S   0  0  2  0  0  0  0  0  0  0  0  0
    7.2777  -18.0095  -11.6559 C   0  0  0  0  0  0  0  0  0  0  0  0
    6.2237  -16.1978   -9.8592 C   0  0  0  0  0  0  0  0  0  0  0  0
    5.7062  -17.4029   -9.0850 C   0  0  1  0  0  0  0  0  0  0  0  0
    6.5501  -17.7590   -8.0004 O   0  0  0  0  0  0  0  0  0  0  0  0
    4.3695  -17.1603   -8.4371 C   0  0  1  0  0  0  0  0  0  0  0  0
    3.3472  -17.2723   -9.3849 O   0  0  0  0  0  0  0  0  0  0  0  0
    4.3518  -18.2714   -7.4107 C   0  0  1  0  0  0  0  0  0  0  0  0
    3.9400  -19.4826   -8.0110 O   0  0  0  0  0  0  0  0  0  0  0  0
    5.8083  -18.4027   -6.9797 C   0  0  2  0  0  0  0  0  0  0  0  0
    6.1215  -17.8435   -5.6360 N   0  0  0  0  0  0  0  0  0  0  0  0
    6.8142  -18.4958   -4.6472 C   0  0  0  0  0  0  0  0  0  0  0  0
    6.9114  -17.6889   -3.5671 N   0  0  0  0  0  0  0  0  0  0  0  0
    6.3017  -16.5245   -3.8437 C   0  0  0  0  0  0  0  0  0  0  0  0
    6.1234  -15.3679   -3.1001 C   0  0  0  0  0  0  0  0  0  0  0  0
    6.6069  -15.2823   -1.8678 N   0  0  0  0  0  0  0  0  0  0  0  0
    5.4423  -14.3053   -3.6603 N   0  0  0  0  0  0  0  0  0  0  0  0
    4.9389  -14.3776   -4.9530 C   0  0  0  0  0  0  0  0  0  0  0  0
    5.1313  -15.5348   -5.6800 N   0  0  0  0  0  0  0  0  0  0  0  0
    5.7949  -16.5977   -5.1388 C   0  0  0  0  0  0  0  0  0  0  0  0
  2  3  1  6  0  0  0
  2  6  1  0  0  0  0
  2  1  1  0  0  0  0
  4  3  2  0  0  0  0
  5  3  1  0  0  0  0
  6  7  2  0  0  0  0
  8  7  1  6  0  0  0
  8  9  1  0  0  0  0
  8 10  1  0  0  0  0
 11 10  1  1  0  0  0
 11 13  1  0  0  0  0
 12 11  1  0  0  0  0
 12 17  1  0  0  0  0
 13 14  1  6  0  0  0
 13 15  1  0  0  0  0
 15 16  1  6  0  0  0
 17 18  1  1  0  0  0
 17 15  1  0  0  0  0
 18 19  1  0  0  0  0
 20 19  2  0  0  0  0
 21 27  2  0  0  0  0
 21 20  1  0  0  0  0
 22 21  1  0  0  0  0
 23 22  1  0  0  0  0
 24 22  2  0  0  0  0
 24 25  1  0  0  0  0
 25 26  2  0  0  0  0
 26 27  1  0  0  0  0
 27 18  1  0  0  0  0
M  END
>  <CHROM.1>
152.35807933,8.28006866,-24.42403752,162.97532290,64.56108445,-109.83245816
6.34631049,-16.37048031,-8.80641230,-1.18953073,1.09384958,1.38161611

>  <Name>
lig.pdb

>  <RI>
0

>  <Rbt.Current_Directory>
/home/itssahil/PROJECTS/Mol_Feturizer/New_Systems/rnas/4b5r

>  <Rbt.Executable>
rbdock ($Id: //depot/dev/client3/rdock/2013.1/src/exe/rbdock.cxx#4 $)

>  <Rbt.Library>
libRbt.so (2013.1, Build901 2013/11/27)

>  <Rbt.Parameter_File>
/export/apps/rDock/src/rDock_2013.1_src/data/scripts/dock_solv.prm

>  <Rbt.Receptor>
prm/pocket_docking_8.prm

>  <SCORE>
-14.413

>  <SCORE.INTER>
-14.2302

>  <SCORE.INTER.CONST>
1

>  <SCORE.INTER.POLAR>
0

>  <SCORE.INTER.ROT>
6

>  <SCORE.INTER.SOLV>
12.0059

>  <SCORE.INTER.VDW>
-21.0887

>  <SCORE.INTER.norm>
-0.527043

>  <SCORE.INTRA>
-0.189782

>  <SCORE.INTRA.DIHEDRAL>
-2.93168

>  <SCORE.INTRA.DIHEDRAL.0>
10.2917

>  <SCORE.INTRA.POLAR>
0

>  <SCORE.INTRA.POLAR.0>
0

>  <SCORE.INTRA.REPUL>
0

>  <SCORE.INTRA.REPUL.0>
0

>  <SCORE.INTRA.SOLV>
-2.26457

>  <SCORE.INTRA.SOLV.lig_0>
-39.6315

>  <SCORE.INTRA.VDW>
2.40835

>  <SCORE.INTRA.VDW.0>
-4.02152

>  <SCORE.INTRA.norm>
-0.00702895

>  <SCORE.RESTR>
0.00694434

>  <SCORE.RESTR.CAVITY>
0.00694434

>  <SCORE.RESTR.norm>
0.000257198

>  <SCORE.SYSTEM>
0

>  <SCORE.SYSTEM.CONST>
0

>  <SCORE.SYSTEM.DIHEDRAL>
0

>  <SCORE.SYSTEM.SOLV>
0

>  <SCORE.SYSTEM.norm>
0

>  <SCORE.heavy>
27

>  <SCORE.norm>
-0.533814

>  <RMSD>
5.743

$$$$
lig.pdb
 OpenBabel11021811493D
libRbt.so/2013.1/901 2013/11/27
 27 29  0  0  0  0  0  0  0  0999 V2000
    6.6939  -16.8202  -13.3733 N   0  0  0  0  0  0  0  0  0  0  0  0
    6.7227  -15.7594  -12.3208 C   0  0  2  0  0  0  0  0  0  0  0  0
    7.9535  -15.9611  -11.4419 C   0  0  0  0  0  0  0  0  0  0  0  0
    8.0745  -16.9979  -10.7998 O   0  0  0  0  0  0  0  0  0  0  0  0
    8.8496  -15.1137  -11.3384 O   0  0  0  0  0  0  0  0  0  0  0  0
    5.4296  -15.6817  -11.4842 C   0  0  0  0  0  0  0  0  0  0  0  0
    4.1974  -16.4497  -12.0307 C   0  0  0  0  0  0  0  0  0  0  0  0
    2.6164  -16.3927  -11.0816 S   0  0  2  0  0  0  0  0  0  0  0  0
    2.0258  -14.7311  -11.4687 C   0  0  0  0  0  0  0  0  0  0  0  0
    3.1537  -16.1355   -9.3767 C   0  0  0  0  0  0  0  0  0  0  0  0
    3.7289  -17.4307   -8.8188 C   0  0  1  0  0  0  0  0  0  0  0  0
    4.9877  -17.2434   -8.1900 O   0  0  0  0  0  0  0  0  0  0  0  0
    2.8746  -18.0413   -7.7405 C   0  0  1  0  0  0  0  0  0  0  0  0
    1.7888  -18.7146   -8.3094 O   0  0  0  0  0  0  0  0  0  0  0  0
    3.8732  -18.9709   -7.0870 C   0  0  1  0  0  0  0  0  0  0  0  0
    3.9671  -20.1766   -7.8180 O   0  0  0  0  0  0  0  0  0  0  0  0
    5.1987  -18.2247   -7.1904 C   0  0  2  0  0  0  0  0  0  0  0  0
    5.6831  -17.6200   -5.9193 N   0  0  0  0  0  0  0  0  0  0  0  0
    6.5509  -18.2147   -5.0382 C   0  0  0  0  0  0  0  0  0  0  0  0
    6.7693  -17.3792   -3.9982 N   0  0  0  0  0  0  0  0  0  0  0  0
    6.0653  -16.2526   -4.1962 C   0  0  0  0  0  0  0  0  0  0  0  0
    5.9424  -15.0891   -3.4520 C   0  0  0  0  0  0  0  0  0  0  0  0
    6.6026  -14.9516   -2.3097 N   0  0  0  0  0  0  0  0  0  0  0  0
    5.1300  -14.0744   -3.9178 N   0  0  0  0  0  0  0  0  0  0  0  0
    4.4404  -14.2010   -5.1170 C   0  0  0  0  0  0  0  0  0  0  0  0
    4.5796  -15.3639   -5.8469 N   0  0  0  0  0  0  0  0  0  0  0  0
    5.3719  -16.3804   -5.3972 C   0  0  0  0  0  0  0  0  0  0  0  0
  2  3  1  1  0  0  0
  2  6  1  0  0  0  0
  2  1  1  0  0  0  0
  4  3  2  0  0  0  0
  5  3  1  0  0  0  0
  6  7  2  0  0  0  0
  8  7  1  6  0  0  0
  8  9  1  0  0  0  0
  8 10  1  0  0  0  0
 11 10  1  1  0  0  0
 11 13  1  0  0  0  0
 12 11  1  0  0  0  0
 12 17  1  0  0  0  0
 13 14  1  6  0  0  0
 13 15  1  0  0  0  0
 15 16  1  6  0  0  0
 17 18  1  1  0  0  0
 17 15  1  0  0  0  0
 18 19  1  0  0  0  0
 20 19  2  0  0  0  0
 21 27  2  0  0  0  0
 21 20  1  0  0  0  0
 22 21  1  0  0  0  0
 23 22  1  0  0  0  0
 24 22  2  0  0  0  0
 24 25  1  0  0  0  0
 25 26  2  0  0  0  0
 26 27  1  0  0  0  0
 27 18  1  0  0  0  0
M  END
>  <CHROM.1>
-61.59411506,-13.43729452,75.38762465,-74.75075617,131.08560113,-146.71208492
5.02648300,-16.62327600,-8.17723888,-1.64454775,0.36558546,1.57915522

>  <Name>
lig.pdb

>  <RI>
0

>  <Rbt.Current_Directory>
/home/itssahil/PROJECTS/Mol_Feturizer/New_Systems/rnas/4b5r

>  <Rbt.Executable>
rbdock ($Id: //depot/dev/client3/rdock/2013.1/src/exe/rbdock.cxx#4 $)

>  <Rbt.Library>
libRbt.so (2013.1, Build901 2013/11/27)

>  <Rbt.Parameter_File>
/export/apps/rDock/src/rDock_2013.1_src/data/scripts/dock_solv.prm

>  <Rbt.Receptor>
prm/pocket_docking_6.prm

>  <SCORE>
-11.6466

>  <SCORE.INTER>
-13.1809

>  <SCORE.INTER.CONST>
1

>  <SCORE.INTER.POLAR>
0

>  <SCORE.INTER.ROT>
6

>  <SCORE.INTER.SOLV>
12.4236

>  <SCORE.INTER.VDW>
-20.5285

>  <SCORE.INTER.norm>
-0.488181

>  <SCORE.INTRA>
1.53429

>  <SCORE.INTRA.DIHEDRAL>
3.21518

>  <SCORE.INTRA.DIHEDRAL.0>
10.2917

>  <SCORE.INTRA.POLAR>
0

>  <SCORE.INTRA.POLAR.0>
0

>  <SCORE.INTRA.REPUL>
0

>  <SCORE.INTRA.REPUL.0>
0

>  <SCORE.INTRA.SOLV>
-1.85189

>  <SCORE.INTRA.SOLV.lig_0>
-39.6315

>  <SCORE.INTRA.VDW>
0.852647

>  <SCORE.INTRA.VDW.0>
-4.02152

>  <SCORE.INTRA.norm>
0.0568256

>  <SCORE.RESTR>
0

>  <SCORE.RESTR.CAVITY>
0

>  <SCORE.RESTR.norm>
0

>  <SCORE.SYSTEM>
0

>  <SCORE.SYSTEM.CONST>
0

>  <SCORE.SYSTEM.DIHEDRAL>
0

>  <SCORE.SYSTEM.SOLV>
0

>  <SCORE.SYSTEM.norm>
0

>  <SCORE.heavy>
27

>  <SCORE.norm>
-0.431356

>  <RMSD>
5.761

$$$$
lig.pdb
 OpenBabel11021811493D
libRbt.so/2013.1/901 2013/11/27
 27 29  0  0  0  0  0  0  0  0999 V2000
    6.2158  -14.2294   -9.6236 N   0  0  0  0  0  0  0  0  0  0  0  0
    4.9425  -14.3200  -10.4012 C   0  0  2  0  0  0  0  0  0  0  0  0
    4.9189  -13.2134  -11.4515 C   0  0  0  0  0  0  0  0  0  0  0  0
    4.0311  -13.2006  -12.2961 O   0  0  0  0  0  0  0  0  0  0  0  0
    5.7688  -12.3149  -11.4980 O   0  0  0  0  0  0  0  0  0  0  0  0
    3.6765  -14.2998   -9.5211 C   0  0  0  0  0  0  0  0  0  0  0  0
    2.3348  -14.6429  -10.2202 C   0  0  0  0  0  0  0  0  0  0  0  0
    0.7808  -14.6305   -9.2260 S   0  0  2  0  0  0  0  0  0  0  0  0
    1.1200  -13.3057   -8.0472 C   0  0  0  0  0  0  0  0  0  0  0  0
    0.9617  -16.0604   -8.1376 C   0  0  0  0  0  0  0  0  0  0  0  0
    1.4235  -17.2656   -8.9460 C   0  0  1  0  0  0  0  0  0  0  0  0
    1.0299  -17.1933  -10.3081 O   0  0  0  0  0  0  0  0  0  0  0  0
    2.9216  -17.3960   -9.0102 C   0  0  1  0  0  0  0  0  0  0  0  0
    3.4086  -17.9489   -7.8215 O   0  0  0  0  0  0  0  0  0  0  0  0
    3.0701  -18.3197  -10.1990 C   0  0  1  0  0  0  0  0  0  0  0  0
    2.8821  -19.6620   -9.7993 O   0  0  0  0  0  0  0  0  0  0  0  0
    1.9310  -17.9156  -11.1283 C   0  0  2  0  0  0  0  0  0  0  0  0
    2.3407  -17.1271  -12.3227 N   0  0  0  0  0  0  0  0  0  0  0  0
    1.4973  -16.3851  -13.1108 C   0  0  0  0  0  0  0  0  0  0  0  0
    2.2111  -15.8048  -14.1012 N   0  0  0  0  0  0  0  0  0  0  0  0
    3.5012  -16.1515  -13.9617 C   0  0  0  0  0  0  0  0  0  0  0  0
    4.6357  -15.8285  -14.6906 C   0  0  0  0  0  0  0  0  0  0  0  0
    4.5489  -15.0304  -15.7466 N   0  0  0  0  0  0  0  0  0  0  0  0
    5.8562  -16.3426  -14.2999 N   0  0  0  0  0  0  0  0  0  0  0  0
    5.9633  -17.1717  -13.1904 C   0  0  0  0  0  0  0  0  0  0  0  0
    4.8241  -17.4774  -12.4739 N   0  0  0  0  0  0  0  0  0  0  0  0
    3.6082  -16.9848  -12.8509 C   0  0  0  0  0  0  0  0  0  0  0  0
  2  3  1  6  0  0  0
  2  6  1  0  0  0  0
  2  1  1  0  0  0  0
  4  3  2  0  0  0  0
  5  3  1  0  0  0  0
  6  7  2  0  0  0  0
  8  7  1  6  0  0  0
  8  9  1  0  0  0  0
  8 10  1  0  0  0  0
 11 10  1  1  0  0  0
 11 13  1  0  0  0  0
 12 11  1  0  0  0  0
 12 17  1  0  0  0  0
 13 14  1  1  0  0  0
 13 15  1  0  0  0  0
 15 16  1  1  0  0  0
 17 18  1  6  0  0  0
 17 15  1  0  0  0  0
 18 19  1  0  0  0  0
 20 19  2  0  0  0  0
 21 27  2  0  0  0  0
 21 20  1  0  0  0  0
 22 21  1  0  0  0  0
 23 22  1  0  0  0  0
 24 22  2  0  0  0  0
 24 25  1  0  0  0  0
 25 26  2  0  0  0  0
 26 27  1  0  0  0  0
 27 18  1  0  0  0  0
M  END
>  <CHROM.1>
171.82459013,-169.39503295,33.49896221,-46.83275796,-26.74785614,-43.74747500
3.21479986,-15.86734151,-11.12072804,-0.32344076,0.97763902,0.56043675

>  <Name>
lig.pdb

>  <RI>
0

>  <Rbt.Current_Directory>
/home/itssahil/PROJECTS/Mol_Feturizer/New_Systems/rnas/4b5r

>  <Rbt.Executable>
rbdock ($Id: //depot/dev/client3/rdock/2013.1/src/exe/rbdock.cxx#4 $)

>  <Rbt.Library>
libRbt.so (2013.1, Build901 2013/11/27)

>  <Rbt.Parameter_File>
/export/apps/rDock/src/rDock_2013.1_src/data/scripts/dock_solv.prm

>  <Rbt.Receptor>
prm/pocket_docking_8.prm

>  <SCORE>
-13.5261

>  <SCORE.INTER>
-15.1973

>  <SCORE.INTER.CONST>
1

>  <SCORE.INTER.POLAR>
0

>  <SCORE.INTER.ROT>
6

>  <SCORE.INTER.SOLV>
13.6016

>  <SCORE.INTER.VDW>
-22.2654

>  <SCORE.INTER.norm>
-0.562864

>  <SCORE.INTRA>
1.67128

>  <SCORE.INTRA.DIHEDRAL>
4.81733

>  <SCORE.INTRA.DIHEDRAL.0>
10.2917

>  <SCORE.INTRA.POLAR>
0

>  <SCORE.INTRA.POLAR.0>
0

>  <SCORE.INTRA.REPUL>
0

>  <SCORE.INTRA.REPUL.0>
0

>  <SCORE.INTRA.SOLV>
-1.43425

>  <SCORE.INTRA.SOLV.lig_0>
-39.6315

>  <SCORE.INTRA.VDW>
-0.0202607

>  <SCORE.INTRA.VDW.0>
-4.02152

>  <SCORE.INTRA.norm>
0.0618991

>  <SCORE.RESTR>
0

>  <SCORE.RESTR.CAVITY>
0

>  <SCORE.RESTR.norm>
0

>  <SCORE.SYSTEM>
0

>  <SCORE.SYSTEM.CONST>
0

>  <SCORE.SYSTEM.DIHEDRAL>
0

>  <SCORE.SYSTEM.SOLV>
0

>  <SCORE.SYSTEM.norm>
0

>  <SCORE.heavy>
27

>  <SCORE.norm>
-0.500965

>  <RMSD>
5.761

$$$$
lig.pdb
 OpenBabel11021811493D
libRbt.so/2013.1/901 2013/11/27
 27 29  0  0  0  0  0  0  0  0999 V2000
    5.9672  -14.4921  -13.6448 N   0  0  0  0  0  0  0  0  0  0  0  0
    5.4555  -15.8464  -14.0162 C   0  0  2  0  0  0  0  0  0  0  0  0
    4.1253  -15.6944  -14.7480 C   0  0  0  0  0  0  0  0  0  0  0  0
    3.0951  -15.5376  -14.1030 O   0  0  0  0  0  0  0  0  0  0  0  0
    4.0311  -15.7271  -15.9816 O   0  0  0  0  0  0  0  0  0  0  0  0
    5.3433  -16.8152  -12.8218 C   0  0  0  0  0  0  0  0  0  0  0  0
    5.7988  -16.2759  -11.4404 C   0  0  0  0  0  0  0  0  0  0  0  0
    5.6968  -17.3859   -9.9703 S   0  0  2  0  0  0  0  0  0  0  0  0
    3.9166  -17.6621   -9.8526 C   0  0  0  0  0  0  0  0  0  0  0  0
    5.9240  -16.2632   -8.5740 C   0  0  0  0  0  0  0  0  0  0  0  0
    6.4621  -17.0355   -7.3767 C   0  0  1  0  0  0  0  0  0  0  0  0
    6.9356  -16.1833   -6.3448 O   0  0  0  0  0  0  0  0  0  0  0  0
    5.4159  -17.8775   -6.6971 C   0  0  1  0  0  0  0  0  0  0  0  0
    5.2019  -19.0559   -7.4193 O   0  0  0  0  0  0  0  0  0  0  0  0
    6.0763  -18.1142   -5.3569 C   0  0  1  0  0  0  0  0  0  0  0  0
    6.9997  -19.1799   -5.4504 O   0  0  0  0  0  0  0  0  0  0  0  0
    6.8378  -16.8219   -5.0842 C   0  0  2  0  0  0  0  0  0  0  0  0
    6.2228  -15.9309   -4.0624 N   0  0  0  0  0  0  0  0  0  0  0  0
    5.4913  -14.8016   -4.3318 C   0  0  0  0  0  0  0  0  0  0  0  0
    5.0898  -14.2445   -3.1674 N   0  0  0  0  0  0  0  0  0  0  0  0
    5.5412  -14.9985   -2.1516 C   0  0  0  0  0  0  0  0  0  0  0  0
    5.4069  -14.8838   -0.7764 C   0  0  0  0  0  0  0  0  0  0  0  0
    4.7204  -13.8772   -0.2518 N   0  0  0  0  0  0  0  0  0  0  0  0
    5.9907  -15.8331    0.0389 N   0  0  0  0  0  0  0  0  0  0  0  0
    6.7042  -16.8978   -0.4971 C   0  0  0  0  0  0  0  0  0  0  0  0
    6.8223  -16.9985   -1.8684 N   0  0  0  0  0  0  0  0  0  0  0  0
    6.2587  -16.0645   -2.6888 C   0  0  0  0  0  0  0  0  0  0  0  0
  2  3  1  1  0  0  0
  2  6  1  0  0  0  0
  2  1  1  0  0  0  0
  4  3  2  0  0  0  0
  5  3  1  0  0  0  0
  6  7  2  0  0  0  0
  8  7  1  6  0  0  0
  8  9  1  0  0  0  0
  8 10  1  0  0  0  0
 11 10  1  6  0  0  0
 11 13  1  0  0  0  0
 12 11  1  0  0  0  0
 12 17  1  0  0  0  0
 13 14  1  6  0  0  0
 13 15  1  0  0  0  0
 15 16  1  6  0  0  0
 17 18  1  1  0  0  0
 17 15  1  0  0  0  0
 18 19  1  0  0  0  0
 20 19  2  0  0  0  0
 21 27  2  0  0  0  0
 21 20  1  0  0  0  0
 22 21  1  0  0  0  0
 23 22  1  0  0  0  0
 24 22  2  0  0  0  0
 24 25  1  0  0  0  0
 25 26  2  0  0  0  0
 26 27  1  0  0  0  0
 27 18  1  0  0  0  0
M  END
>  <CHROM.1>
-81.57989684,-1.44560914,-63.64431117,-155.50920401,167.20816054,17.65280814
5.60048223,-16.39807746,-7.23235325,1.88382293,1.22153421,-1.88739238

>  <Name>
lig.pdb

>  <RI>
0

>  <Rbt.Current_Directory>
/home/itssahil/PROJECTS/Mol_Feturizer/New_Systems/rnas/4b5r

>  <Rbt.Executable>
rbdock ($Id: //depot/dev/client3/rdock/2013.1/src/exe/rbdock.cxx#4 $)

>  <Rbt.Library>
libRbt.so (2013.1, Build901 2013/11/27)

>  <Rbt.Parameter_File>
/export/apps/rDock/src/rDock_2013.1_src/data/scripts/dock_solv.prm

>  <Rbt.Receptor>
prm/blind_docking_80.prm

>  <SCORE>
-13.5447

>  <SCORE.INTER>
-14.387

>  <SCORE.INTER.CONST>
1

>  <SCORE.INTER.POLAR>
0

>  <SCORE.INTER.ROT>
6

>  <SCORE.INTER.SOLV>
13.1231

>  <SCORE.INTER.VDW>
-21.5657

>  <SCORE.INTER.norm>
-0.532852

>  <SCORE.INTRA>
0.842336

>  <SCORE.INTRA.DIHEDRAL>
-0.144611

>  <SCORE.INTRA.DIHEDRAL.0>
10.2917

>  <SCORE.INTRA.POLAR>
0

>  <SCORE.INTRA.POLAR.0>
0

>  <SCORE.INTRA.REPUL>
0

>  <SCORE.INTRA.REPUL.0>
0

>  <SCORE.INTRA.SOLV>
-2.22129

>  <SCORE.INTRA.SOLV.lig_0>
-39.6315

>  <SCORE.INTRA.VDW>
2.02528

>  <SCORE.INTRA.VDW.0>
-4.02152

>  <SCORE.INTRA.norm>
0.0311976

>  <SCORE.RESTR>
0

>  <SCORE.RESTR.CAVITY>
0

>  <SCORE.RESTR.norm>
0

>  <SCORE.SYSTEM>
0

>  <SCORE.SYSTEM.CONST>
0

>  <SCORE.SYSTEM.DIHEDRAL>
0

>  <SCORE.SYSTEM.SOLV>
0

>  <SCORE.SYSTEM.norm>
0

>  <SCORE.heavy>
27

>  <SCORE.norm>
-0.501654

>  <RMSD>
5.771

$$$$
lig.pdb
 OpenBabel11021811493D
libRbt.so/2013.1/901 2013/11/27
 27 29  0  0  0  0  0  0  0  0999 V2000
   -0.2580  -17.9667   -8.6162 N   0  0  0  0  0  0  0  0  0  0  0  0
   -0.0914  -16.6509   -9.3052 C   0  0  2  0  0  0  0  0  0  0  0  0
    1.0068  -16.7737  -10.3574 C   0  0  0  0  0  0  0  0  0  0  0  0
    1.3066  -15.7975  -11.0349 O   0  0  0  0  0  0  0  0  0  0  0  0
    1.6176  -17.8291  -10.5690 O   0  0  0  0  0  0  0  0  0  0  0  0
    0.1692  -15.4756   -8.3416 C   0  0  0  0  0  0  0  0  0  0  0  0
    1.6195  -15.3127   -7.8154 C   0  0  0  0  0  0  0  0  0  0  0  0
    1.9982  -13.9306   -6.6536 S   0  0  2  0  0  0  0  0  0  0  0  0
    1.2331  -12.5313   -7.4998 C   0  0  0  0  0  0  0  0  0  0  0  0
    3.7377  -13.5684   -6.9773 C   0  0  0  0  0  0  0  0  0  0  0  0
    4.5687  -14.8305   -6.7873 C   0  0  1  0  0  0  0  0  0  0  0  0
    4.6323  -15.6249   -7.9621 O   0  0  0  0  0  0  0  0  0  0  0  0
    6.0113  -14.5461   -6.4659 C   0  0  1  0  0  0  0  0  0  0  0  0
    6.1454  -14.1995   -5.1176 O   0  0  0  0  0  0  0  0  0  0  0  0
    6.6397  -15.8807   -6.8011 C   0  0  1  0  0  0  0  0  0  0  0  0
    6.4840  -16.7775   -5.7202 O   0  0  0  0  0  0  0  0  0  0  0  0
    5.8256  -16.3878   -7.9863 C   0  0  2  0  0  0  0  0  0  0  0  0
    6.5093  -16.2982   -9.3057 N   0  0  0  0  0  0  0  0  0  0  0  0
    6.8653  -17.3674  -10.0886 C   0  0  0  0  0  0  0  0  0  0  0  0
    7.4637  -16.9144  -11.2130 N   0  0  0  0  0  0  0  0  0  0  0  0
    7.4925  -15.5721  -11.1741 C   0  0  0  0  0  0  0  0  0  0  0  0
    7.9769  -14.6256  -12.0640 C   0  0  0  0  0  0  0  0  0  0  0  0
    8.5376  -15.0039  -13.2051 N   0  0  0  0  0  0  0  0  0  0  0  0
    7.8625  -13.2857  -11.7505 N   0  0  0  0  0  0  0  0  0  0  0  0
    7.2689  -12.8750  -10.5636 C   0  0  0  0  0  0  0  0  0  0  0  0
    6.7874  -13.8314   -9.6928 N   0  0  0  0  0  0  0  0  0  0  0  0
    6.8997  -15.1604   -9.9830 C   0  0  0  0  0  0  0  0  0  0  0  0
  2  3  1  6  0  0  0
  2  6  1  0  0  0  0
  2  1  1  0  0  0  0
  4  3  2  0  0  0  0
  5  3  1  0  0  0  0
  6  7  2  0  0  0  0
  8  7  1  6  0  0  0
  8  9  1  0  0  0  0
  8 10  1  0  0  0  0
 11 10  1  6  0  0  0
 11 13  1  0  0  0  0
 12 11  1  0  0  0  0
 12 17  1  0  0  0  0
 13 14  1  1  0  0  0
 13 15  1  0  0  0  0
 15 16  1  1  0  0  0
 17 18  1  6  0  0  0
 17 15  1  0  0  0  0
 18 19  1  0  0  0  0
 20 19  2  0  0  0  0
 21 27  2  0  0  0  0
 21 20  1  0  0  0  0
 22 21  1  0  0  0  0
 23 22  1  0  0  0  0
 24 22  2  0  0  0  0
 24 25  1  0  0  0  0
 25 26  2  0  0  0  0
 26 27  1  0  0  0  0
 27 18  1  0  0  0  0
M  END
>  <CHROM.1>
-179.62381766,80.11104310,-48.35705714,-56.17187266,86.67272542,-124.94616242
4.51305668,-15.30824587,-8.84439474,2.83367252,0.18842262,1.25573881

>  <Name>
lig.pdb

>  <RI>
0

>  <Rbt.Current_Directory>
/home/itssahil/PROJECTS/Mol_Feturizer/New_Systems/rnas/4b5r

>  <Rbt.Executable>
rbdock ($Id: //depot/dev/client3/rdock/2013.1/src/exe/rbdock.cxx#4 $)

>  <Rbt.Library>
libRbt.so (2013.1, Build901 2013/11/27)

>  <Rbt.Parameter_File>
/export/apps/rDock/src/rDock_2013.1_src/data/scripts/dock_solv.prm

>  <Rbt.Receptor>
prm/pocket_docking_3.prm

>  <SCORE>
-16.6183

>  <SCORE.INTER>
-17.1705

>  <SCORE.INTER.CONST>
1

>  <SCORE.INTER.POLAR>
0

>  <SCORE.INTER.ROT>
6

>  <SCORE.INTER.SOLV>
18.3566

>  <SCORE.INTER.VDW>
-25.1659

>  <SCORE.INTER.norm>
-0.635945

>  <SCORE.INTRA>
0.552241

>  <SCORE.INTRA.DIHEDRAL>
1.06222

>  <SCORE.INTRA.DIHEDRAL.0>
10.2917

>  <SCORE.INTRA.POLAR>
0

>  <SCORE.INTRA.POLAR.0>
0

>  <SCORE.INTRA.REPUL>
0

>  <SCORE.INTRA.REPUL.0>
0

>  <SCORE.INTRA.SOLV>
-2.31371

>  <SCORE.INTRA.SOLV.lig_0>
-39.6315

>  <SCORE.INTRA.VDW>
1.17799

>  <SCORE.INTRA.VDW.0>
-4.02152

>  <SCORE.INTRA.norm>
0.0204534

>  <SCORE.RESTR>
0

>  <SCORE.RESTR.CAVITY>
0

>  <SCORE.RESTR.norm>
0

>  <SCORE.SYSTEM>
0

>  <SCORE.SYSTEM.CONST>
0

>  <SCORE.SYSTEM.DIHEDRAL>
0

>  <SCORE.SYSTEM.SOLV>
0

>  <SCORE.SYSTEM.norm>
0

>  <SCORE.heavy>
27

>  <SCORE.norm>
-0.615491

>  <RMSD>
5.773

$$$$
lig.pdb
 OpenBabel11021811493D
libRbt.so/2013.1/901 2013/11/27
 27 29  0  0  0  0  0  0  0  0999 V2000
    4.0367  -15.0559  -13.4281 N   0  0  0  0  0  0  0  0  0  0  0  0
    3.3700  -14.0777  -12.5155 C   0  0  2  0  0  0  0  0  0  0  0  0
    4.4276  -13.4063  -11.6445 C   0  0  0  0  0  0  0  0  0  0  0  0
    5.1179  -14.0896  -10.8973 O   0  0  0  0  0  0  0  0  0  0  0  0
    4.6238  -12.1843  -11.6502 O   0  0  0  0  0  0  0  0  0  0  0  0
    2.2382  -14.6932  -11.6681 C   0  0  0  0  0  0  0  0  0  0  0  0
    2.1586  -14.2513  -10.1832 C   0  0  0  0  0  0  0  0  0  0  0  0
    0.8318  -14.9550   -9.1118 S   0  0  2  0  0  0  0  0  0  0  0  0
    1.4697  -14.5873   -7.4633 C   0  0  0  0  0  0  0  0  0  0  0  0
    1.1396  -16.7337   -9.1678 C   0  0  0  0  0  0  0  0  0  0  0  0
    2.5833  -16.9921   -9.5784 C   0  0  1  0  0  0  0  0  0  0  0  0
    3.5118  -16.6334   -8.5663 O   0  0  0  0  0  0  0  0  0  0  0  0
    2.8741  -18.4464   -9.8352 C   0  0  1  0  0  0  0  0  0  0  0  0
    2.4003  -18.8168  -11.0979 O   0  0  0  0  0  0  0  0  0  0  0  0
    4.3840  -18.4489   -9.7436 C   0  0  1  0  0  0  0  0  0  0  0  0
    4.9471  -18.0288  -10.9697 O   0  0  0  0  0  0  0  0  0  0  0  0
    4.6933  -17.4074   -8.6740 C   0  0  2  0  0  0  0  0  0  0  0  0
    5.1106  -17.9607   -7.3565 N   0  0  0  0  0  0  0  0  0  0  0  0
    4.7569  -19.1924   -6.8656 C   0  0  0  0  0  0  0  0  0  0  0  0
    5.3148  -19.3609   -5.6459 N   0  0  0  0  0  0  0  0  0  0  0  0
    6.0292  -18.2642   -5.3443 C   0  0  0  0  0  0  0  0  0  0  0  0
    6.7948  -17.9274   -4.2385 C   0  0  0  0  0  0  0  0  0  0  0  0
    6.9176  -18.7747   -3.2253 N   0  0  0  0  0  0  0  0  0  0  0  0
    7.4321  -16.7027   -4.2082 N   0  0  0  0  0  0  0  0  0  0  0  0
    7.3201  -15.8097   -5.2664 C   0  0  0  0  0  0  0  0  0  0  0  0
    6.5585  -16.1648   -6.3611 N   0  0  0  0  0  0  0  0  0  0  0  0
    5.9150  -17.3678   -6.4040 C   0  0  0  0  0  0  0  0  0  0  0  0
  2  3  1  1  0  0  0
  2  6  1  0  0  0  0
  2  1  1  0  0  0  0
  4  3  2  0  0  0  0
  5  3  1  0  0  0  0
  6  7  2  0  0  0  0
  8  7  1  6  0  0  0
  8  9  1  0  0  0  0
  8 10  1  0  0  0  0
 11 10  1  1  0  0  0
 11 13  1  0  0  0  0
 12 11  1  0  0  0  0
 12 17  1  0  0  0  0
 13 14  1  6  0  0  0
 13 15  1  0  0  0  0
 15 16  1  6  0  0  0
 17 18  1  1  0  0  0
 17 15  1  0  0  0  0
 18 19  1  0  0  0  0
 20 19  2  0  0  0  0
 21 27  2  0  0  0  0
 21 20  1  0  0  0  0
 22 21  1  0  0  0  0
 23 22  1  0  0  0  0
 24 22  2  0  0  0  0
 24 25  1  0  0  0  0
 25 26  2  0  0  0  0
 26 27  1  0  0  0  0
 27 18  1  0  0  0  0
M  END
>  <CHROM.1>
-60.45399275,138.54830059,162.47409716,21.26620366,70.55766262,92.61566285
4.13860943,-16.43239750,-8.65065662,-2.20707959,0.71318793,2.49848834

>  <Name>
lig.pdb

>  <RI>
0

>  <Rbt.Current_Directory>
/home/itssahil/PROJECTS/Mol_Feturizer/New_Systems/rnas/4b5r

>  <Rbt.Executable>
rbdock ($Id: //depot/dev/client3/rdock/2013.1/src/exe/rbdock.cxx#4 $)

>  <Rbt.Library>
libRbt.so (2013.1, Build901 2013/11/27)

>  <Rbt.Parameter_File>
/export/apps/rDock/src/rDock_2013.1_src/data/scripts/dock_solv.prm

>  <Rbt.Receptor>
prm/blind_docking_60.prm

>  <SCORE>
-13.3578

>  <SCORE.INTER>
-14.4095

>  <SCORE.INTER.CONST>
1

>  <SCORE.INTER.POLAR>
0

>  <SCORE.INTER.ROT>
6

>  <SCORE.INTER.SOLV>
11.3106

>  <SCORE.INTER.VDW>
-20.9766

>  <SCORE.INTER.norm>
-0.533686

>  <SCORE.INTRA>
1.05171

>  <SCORE.INTRA.DIHEDRAL>
-0.00226213

>  <SCORE.INTRA.DIHEDRAL.0>
10.2917

>  <SCORE.INTRA.POLAR>
0

>  <SCORE.INTRA.POLAR.0>
0

>  <SCORE.INTRA.REPUL>
0

>  <SCORE.INTRA.REPUL.0>
0

>  <SCORE.INTRA.SOLV>
-2.37072

>  <SCORE.INTRA.SOLV.lig_0>
-39.6315

>  <SCORE.INTRA.VDW>
2.2382

>  <SCORE.INTRA.VDW.0>
-4.02152

>  <SCORE.INTRA.norm>
0.0389521

>  <SCORE.RESTR>
0

>  <SCORE.RESTR.CAVITY>
0

>  <SCORE.RESTR.norm>
0

>  <SCORE.SYSTEM>
0

>  <SCORE.SYSTEM.CONST>
0

>  <SCORE.SYSTEM.DIHEDRAL>
0

>  <SCORE.SYSTEM.SOLV>
0

>  <SCORE.SYSTEM.norm>
0

>  <SCORE.heavy>
27

>  <SCORE.norm>
-0.494734

>  <RMSD>
5.777

$$$$
lig.pdb
 OpenBabel11021811493D
libRbt.so/2013.1/901 2013/11/27
 27 29  0  0  0  0  0  0  0  0999 V2000
    2.5879  -16.0169  -11.9645 N   0  0  0  0  0  0  0  0  0  0  0  0
    2.5541  -14.5930  -11.5113 C   0  0  2  0  0  0  0  0  0  0  0  0
    3.7773  -13.8649  -12.0606 C   0  0  0  0  0  0  0  0  0  0  0  0
    4.1404  -14.0765  -13.2117 O   0  0  0  0  0  0  0  0  0  0  0  0
    4.4365  -13.0608  -11.3891 O   0  0  0  0  0  0  0  0  0  0  0  0
    2.4319  -14.4323   -9.9826 C   0  0  0  0  0  0  0  0  0  0  0  0
    2.6557  -15.7066   -9.1266 C   0  0  0  0  0  0  0  0  0  0  0  0
    2.5175  -15.5852   -7.2909 S   0  0  2  0  0  0  0  0  0  0  0  0
    2.3608  -13.8014   -7.0605 C   0  0  0  0  0  0  0  0  0  0  0  0
    4.2154  -15.8180   -6.7211 C   0  0  0  0  0  0  0  0  0  0  0  0
    4.5868  -17.2927   -6.8033 C   0  0  1  0  0  0  0  0  0  0  0  0
    4.4389  -17.8212   -8.1125 O   0  0  0  0  0  0  0  0  0  0  0  0
    6.0297  -17.5590   -6.4679 C   0  0  1  0  0  0  0  0  0  0  0  0
    6.2131  -17.5428   -5.0815 O   0  0  0  0  0  0  0  0  0  0  0  0
    6.2074  -18.9335   -7.0742 C   0  0  1  0  0  0  0  0  0  0  0  0
    5.7269  -19.9230   -6.1871 O   0  0  0  0  0  0  0  0  0  0  0  0
    5.3225  -18.9096   -8.3155 C   0  0  2  0  0  0  0  0  0  0  0  0
    6.0518  -18.7925   -9.6080 N   0  0  0  0  0  0  0  0  0  0  0  0
    6.5370  -17.6253  -10.1420 C   0  0  0  0  0  0  0  0  0  0  0  0
    7.1413  -17.8941  -11.3210 N   0  0  0  0  0  0  0  0  0  0  0  0
    7.0628  -19.2146  -11.5534 C   0  0  0  0  0  0  0  0  0  0  0  0
    7.5220  -20.0049  -12.5961 C   0  0  0  0  0  0  0  0  0  0  0  0
    8.1797  -19.4595  -13.6108 N   0  0  0  0  0  0  0  0  0  0  0  0
    7.2918  -21.3660  -12.5615 N   0  0  0  0  0  0  0  0  0  0  0  0
    6.6130  -21.9518  -11.5005 C   0  0  0  0  0  0  0  0  0  0  0  0
    6.1685  -21.1500  -10.4690 N   0  0  0  0  0  0  0  0  0  0  0  0
    6.3800  -19.8017  -10.4910 C   0  0  0  0  0  0  0  0  0  0  0  0
  2  3  1  1  0  0  0
  2  6  1  0  0  0  0
  2  1  1  0  0  0  0
  4  3  2  0  0  0  0
  5  3  1  0  0  0  0
  6  7  2  0  0  0  0
  8  7  1  6  0  0  0
  8  9  1  0  0  0  0
  8 10  1  0  0  0  0
 11 10  1  6  0  0  0
 11 13  1  0  0  0  0
 12 11  1  0  0  0  0
 12 17  1  0  0  0  0
 13 14  1  1  0  0  0
 13 15  1  0  0  0  0
 15 16  1  1  0  0  0
 17 18  1  6  0  0  0
 17 15  1  0  0  0  0
 18 19  1  0  0  0  0
 20 19  2  0  0  0  0
 21 27  2  0  0  0  0
 21 20  1  0  0  0  0
 22 21  1  0  0  0  0
 23 22  1  0  0  0  0
 24 22  2  0  0  0  0
 24 25  1  0  0  0  0
 25 26  2  0  0  0  0
 26 27  1  0  0  0  0
 27 18  1  0  0  0  0
M  END
>  <CHROM.1>
41.29975501,12.23428409,-7.71636016,-76.41735550,57.20547442,38.81148673
5.00789048,-17.35136620,-9.54543064,2.99451499,-0.98211661,1.81028547

>  <Name>
lig.pdb

>  <RI>
0

>  <Rbt.Current_Directory>
/home/itssahil/PROJECTS/Mol_Feturizer/New_Systems/rnas/4b5r

>  <Rbt.Executable>
rbdock ($Id: //depot/dev/client3/rdock/2013.1/src/exe/rbdock.cxx#4 $)

>  <Rbt.Library>
libRbt.so (2013.1, Build901 2013/11/27)

>  <Rbt.Parameter_File>
/export/apps/rDock/src/rDock_2013.1_src/data/scripts/dock_solv.prm

>  <Rbt.Receptor>
prm/pocket_docking_8.prm

>  <SCORE>
-12.3017

>  <SCORE.INTER>
-12.4264

>  <SCORE.INTER.CONST>
1

>  <SCORE.INTER.POLAR>
0

>  <SCORE.INTER.ROT>
6

>  <SCORE.INTER.SOLV>
11.097

>  <SCORE.INTER.VDW>
-19.5833

>  <SCORE.INTER.norm>
-0.460237

>  <SCORE.INTRA>
0.124752

>  <SCORE.INTRA.DIHEDRAL>
-2.49379

>  <SCORE.INTRA.DIHEDRAL.0>
10.2917

>  <SCORE.INTRA.POLAR>
0

>  <SCORE.INTRA.POLAR.0>
0

>  <SCORE.INTRA.REPUL>
0

>  <SCORE.INTRA.REPUL.0>
0

>  <SCORE.INTRA.SOLV>
-2.78583

>  <SCORE.INTRA.SOLV.lig_0>
-39.6315

>  <SCORE.INTRA.VDW>
2.76457

>  <SCORE.INTRA.VDW.0>
-4.02152

>  <SCORE.INTRA.norm>
0.00462044

>  <SCORE.RESTR>
0

>  <SCORE.RESTR.CAVITY>
0

>  <SCORE.RESTR.norm>
0

>  <SCORE.SYSTEM>
0

>  <SCORE.SYSTEM.CONST>
0

>  <SCORE.SYSTEM.DIHEDRAL>
0

>  <SCORE.SYSTEM.SOLV>
0

>  <SCORE.SYSTEM.norm>
0

>  <SCORE.heavy>
27

>  <SCORE.norm>
-0.455617

>  <RMSD>
5.794

$$$$
lig.pdb
 OpenBabel11021811493D
libRbt.so/2013.1/901 2013/11/27
 27 29  0  0  0  0  0  0  0  0999 V2000
    7.3564  -12.5282  -13.2329 N   0  0  0  0  0  0  0  0  0  0  0  0
    8.4882  -13.4700  -12.9758 C   0  0  2  0  0  0  0  0  0  0  0  0
    8.8161  -14.2200  -14.2634 C   0  0  0  0  0  0  0  0  0  0  0  0
    7.9083  -14.5590  -15.0135 O   0  0  0  0  0  0  0  0  0  0  0  0
    9.9727  -14.5134  -14.5924 O   0  0  0  0  0  0  0  0  0  0  0  0
    8.2356  -14.4357  -11.8004 C   0  0  0  0  0  0  0  0  0  0  0  0
    7.8847  -15.9022  -12.1649 C   0  0  0  0  0  0  0  0  0  0  0  0
    7.5642  -17.1081  -10.8060 S   0  0  2  0  0  0  0  0  0  0  0  0
    7.1119  -18.5866  -11.7382 C   0  0  0  0  0  0  0  0  0  0  0  0
    5.9366  -16.6281  -10.1875 C   0  0  0  0  0  0  0  0  0  0  0  0
    5.3873  -17.7239   -9.2838 C   0  0  1  0  0  0  0  0  0  0  0  0
    6.2522  -18.0216   -8.1981 O   0  0  0  0  0  0  0  0  0  0  0  0
    4.0905  -17.3477   -8.6188 C   0  0  1  0  0  0  0  0  0  0  0  0
    3.0285  -17.4926   -9.5172 O   0  0  0  0  0  0  0  0  0  0  0  0
    4.0543  -18.3538   -7.4897 C   0  0  1  0  0  0  0  0  0  0  0  0
    3.5579  -19.5918   -7.9562 O   0  0  0  0  0  0  0  0  0  0  0  0
    5.5174  -18.5237   -7.0960 C   0  0  2  0  0  0  0  0  0  0  0  0
    5.9099  -17.8577   -5.8238 N   0  0  0  0  0  0  0  0  0  0  0  0
    6.7157  -18.4054   -4.8576 C   0  0  0  0  0  0  0  0  0  0  0  0
    6.8583  -17.5213   -3.8449 N   0  0  0  0  0  0  0  0  0  0  0  0
    6.1664  -16.4095   -4.1439 C   0  0  0  0  0  0  0  0  0  0  0  0
    5.9883  -15.2137   -3.4652 C   0  0  0  0  0  0  0  0  0  0  0  0
    6.5665  -15.0192   -2.2873 N   0  0  0  0  0  0  0  0  0  0  0  0
    5.2074  -14.2267   -4.0333 N   0  0  0  0  0  0  0  0  0  0  0  0
    4.6038  -14.4130   -5.2706 C   0  0  0  0  0  0  0  0  0  0  0  0
    4.7973  -15.6076   -5.9339 N   0  0  0  0  0  0  0  0  0  0  0  0
    5.5592  -16.5972   -5.3831 C   0  0  0  0  0  0  0  0  0  0  0  0
  2  3  1  6  0  0  0
  2  6  1  0  0  0  0
  2  1  1  0  0  0  0
  4  3  2  0  0  0  0
  5  3  1  0  0  0  0
  6  7  2  0  0  0  0
  8  7  1  6  0  0  0
  8  9  1  0  0  0  0
  8 10  1  0  0  0  0
 11 10  1  1  0  0  0
 11 13  1  0  0  0  0
 12 11  1  0  0  0  0
 12 17  1  0  0  0  0
 13 14  1  6  0  0  0
 13 15  1  0  0  0  0
 15 16  1  6  0  0  0
 17 18  1  1  0  0  0
 17 15  1  0  0  0  0
 18 19  1  0  0  0  0
 20 19  2  0  0  0  0
 21 27  2  0  0  0  0
 21 20  1  0  0  0  0
 22 21  1  0  0  0  0
 23 22  1  0  0  0  0
 24 22  2  0  0  0  0
 24 25  1  0  0  0  0
 25 26  2  0  0  0  0
 26 27  1  0  0  0  0
 27 18  1  0  0  0  0
M  END
>  <CHROM.1>
-37.35189679,104.39088242,176.55460816,166.78522600,57.05139854,-103.04070929
6.33390513,-16.37280640,-8.72439888,-0.96637661,1.02891517,1.23900559

>  <Name>
lig.pdb

>  <RI>
0

>  <Rbt.Current_Directory>
/home/itssahil/PROJECTS/Mol_Feturizer/New_Systems/rnas/4b5r

>  <Rbt.Executable>
rbdock ($Id: //depot/dev/client3/rdock/2013.1/src/exe/rbdock.cxx#4 $)

>  <Rbt.Library>
libRbt.so (2013.1, Build901 2013/11/27)

>  <Rbt.Parameter_File>
/export/apps/rDock/src/rDock_2013.1_src/data/scripts/dock_solv.prm

>  <Rbt.Receptor>
prm/pocket_docking_5.prm

>  <SCORE>
-16.3209

>  <SCORE.INTER>
-15.7535

>  <SCORE.INTER.CONST>
1

>  <SCORE.INTER.POLAR>
0

>  <SCORE.INTER.ROT>
6

>  <SCORE.INTER.SOLV>
12.0207

>  <SCORE.INTER.VDW>
-22.1092

>  <SCORE.INTER.norm>
-0.583463

>  <SCORE.INTRA>
-0.567378

>  <SCORE.INTRA.DIHEDRAL>
-2.39608

>  <SCORE.INTRA.DIHEDRAL.0>
10.2917

>  <SCORE.INTRA.POLAR>
0

>  <SCORE.INTRA.POLAR.0>
0

>  <SCORE.INTRA.REPUL>
0

>  <SCORE.INTRA.REPUL.0>
0

>  <SCORE.INTRA.SOLV>
-2.47487

>  <SCORE.INTRA.SOLV.lig_0>
-39.6315

>  <SCORE.INTRA.VDW>
1.8681

>  <SCORE.INTRA.VDW.0>
-4.02152

>  <SCORE.INTRA.norm>
-0.021014

>  <SCORE.RESTR>
0

>  <SCORE.RESTR.CAVITY>
0

>  <SCORE.RESTR.norm>
0

>  <SCORE.SYSTEM>
0

>  <SCORE.SYSTEM.CONST>
0

>  <SCORE.SYSTEM.DIHEDRAL>
0

>  <SCORE.SYSTEM.SOLV>
0

>  <SCORE.SYSTEM.norm>
0

>  <SCORE.heavy>
27

>  <SCORE.norm>
-0.604477

>  <RMSD>
5.797

$$$$
lig.pdb
 OpenBabel11021811493D
libRbt.so/2013.1/901 2013/11/27
 27 29  0  0  0  0  0  0  0  0999 V2000
    5.3235  -20.5220   -7.9277 N   0  0  0  0  0  0  0  0  0  0  0  0
    4.3422  -20.4881   -9.0546 C   0  0  2  0  0  0  0  0  0  0  0  0
    5.1012  -20.4999  -10.3782 C   0  0  0  0  0  0  0  0  0  0  0  0
    5.2010  -21.5462  -11.0084 O   0  0  0  0  0  0  0  0  0  0  0  0
    5.6352  -19.4898  -10.8540 O   0  0  0  0  0  0  0  0  0  0  0  0
    3.3490  -19.3112   -8.9758 C   0  0  0  0  0  0  0  0  0  0  0  0
    3.6022  -18.2572   -7.8660 C   0  0  0  0  0  0  0  0  0  0  0  0
    2.4472  -16.8268   -7.7123 S   0  0  2  0  0  0  0  0  0  0  0  0
    0.8823  -17.5743   -8.2141 C   0  0  0  0  0  0  0  0  0  0  0  0
    2.7979  -15.8381   -9.1824 C   0  0  0  0  0  0  0  0  0  0  0  0
    4.1129  -15.0925   -8.9979 C   0  0  1  0  0  0  0  0  0  0  0  0
    4.1574  -14.3550   -7.7857 O   0  0  0  0  0  0  0  0  0  0  0  0
    5.3043  -16.0077   -8.9068 C   0  0  1  0  0  0  0  0  0  0  0  0
    5.6767  -16.4422  -10.1829 O   0  0  0  0  0  0  0  0  0  0  0  0
    6.3197  -15.0812   -8.2754 C   0  0  1  0  0  0  0  0  0  0  0  0
    6.9129  -14.2629   -9.2630 O   0  0  0  0  0  0  0  0  0  0  0  0
    5.4935  -14.2068   -7.3388 C   0  0  2  0  0  0  0  0  0  0  0  0
    5.6285  -14.5292   -5.8917 N   0  0  0  0  0  0  0  0  0  0  0  0
    5.3247  -13.6793   -4.8581 C   0  0  0  0  0  0  0  0  0  0  0  0
    5.5680  -14.3036   -3.6840 N   0  0  0  0  0  0  0  0  0  0  0  0
    6.0149  -15.5439   -3.9409 C   0  0  0  0  0  0  0  0  0  0  0  0
    6.3952  -16.5866   -3.1098 C   0  0  0  0  0  0  0  0  0  0  0  0
    6.3471  -16.4447   -1.7918 N   0  0  0  0  0  0  0  0  0  0  0  0
    6.8182  -17.7752   -3.6711 N   0  0  0  0  0  0  0  0  0  0  0  0
    6.8644  -17.9411   -5.0495 C   0  0  0  0  0  0  0  0  0  0  0  0
    6.4765  -16.8940   -5.8606 N   0  0  0  0  0  0  0  0  0  0  0  0
    6.0637  -15.7093   -5.3228 C   0  0  0  0  0  0  0  0  0  0  0  0
  2  3  1  6  0  0  0
  2  6  1  0  0  0  0
  2  1  1  0  0  0  0
  4  3  2  0  0  0  0
  5  3  1  0  0  0  0
  6  7  2  0  0  0  0
  8  7  1  6  0  0  0
  8  9  1  0  0  0  0
  8 10  1  0  0  0  0
 11 10  1  1  0  0  0
 11 13  1  0  0  0  0
 12 11  1  0  0  0  0
 12 17  1  0  0  0  0
 13 14  1  6  0  0  0
 13 15  1  0  0  0  0
 15 16  1  6  0  0  0
 17 18  1  1  0  0  0
 17 15  1  0  0  0  0
 18 19  1  0  0  0  0
 20 19  2  0  0  0  0
 21 27  2  0  0  0  0
 21 20  1  0  0  0  0
 22 21  1  0  0  0  0
 23 22  1  0  0  0  0
 24 22  2  0  0  0  0
 24 25  1  0  0  0  0
 25 26  2  0  0  0  0
 26 27  1  0  0  0  0
 27 18  1  0  0  0  0
M  END
>  <CHROM.1>
100.75144055,6.94353091,33.18380088,-75.43612963,-52.05613413,-80.89016158
4.98002867,-16.86870192,-7.33806399,-2.22738278,-1.16724706,0.33269031

>  <Name>
lig.pdb

>  <RI>
0

>  <Rbt.Current_Directory>
/home/itssahil/PROJECTS/Mol_Feturizer/New_Systems/rnas/4b5r

>  <Rbt.Executable>
rbdock ($Id: //depot/dev/client3/rdock/2013.1/src/exe/rbdock.cxx#4 $)

>  <Rbt.Library>
libRbt.so (2013.1, Build901 2013/11/27)

>  <Rbt.Parameter_File>
/export/apps/rDock/src/rDock_2013.1_src/data/scripts/dock_solv.prm

>  <Rbt.Receptor>
prm/pocket_docking_8.prm

>  <SCORE>
-13.7073

>  <SCORE.INTER>
-13.25

>  <SCORE.INTER.CONST>
1

>  <SCORE.INTER.POLAR>
0

>  <SCORE.INTER.ROT>
6

>  <SCORE.INTER.SOLV>
10.1757

>  <SCORE.INTER.VDW>
-19.8252

>  <SCORE.INTER.norm>
-0.490741

>  <SCORE.INTRA>
-0.457298

>  <SCORE.INTRA.DIHEDRAL>
-1.37076

>  <SCORE.INTRA.DIHEDRAL.0>
10.2917

>  <SCORE.INTRA.POLAR>
0

>  <SCORE.INTRA.POLAR.0>
0

>  <SCORE.INTRA.REPUL>
0.000836731

>  <SCORE.INTRA.REPUL.0>
0

>  <SCORE.INTRA.SOLV>
-1.48868

>  <SCORE.INTRA.SOLV.lig_0>
-39.6315

>  <SCORE.INTRA.VDW>
0.968237

>  <SCORE.INTRA.VDW.0>
-4.02152

>  <SCORE.INTRA.norm>
-0.016937

>  <SCORE.RESTR>
0

>  <SCORE.RESTR.CAVITY>
0

>  <SCORE.RESTR.norm>
0

>  <SCORE.SYSTEM>
0

>  <SCORE.SYSTEM.CONST>
0

>  <SCORE.SYSTEM.DIHEDRAL>
0

>  <SCORE.SYSTEM.SOLV>
0

>  <SCORE.SYSTEM.norm>
0

>  <SCORE.heavy>
27

>  <SCORE.norm>
-0.507678

>  <RMSD>
5.800

$$$$
lig.pdb
 OpenBabel11021811493D
libRbt.so/2013.1/901 2013/11/27
 27 29  0  0  0  0  0  0  0  0999 V2000
    6.5591  -12.6107  -11.8216 N   0  0  0  0  0  0  0  0  0  0  0  0
    6.6512  -14.0090  -11.3018 C   0  0  2  0  0  0  0  0  0  0  0  0
    7.9555  -14.6365  -11.7848 C   0  0  0  0  0  0  0  0  0  0  0  0
    8.4214  -15.5988  -11.1860 O   0  0  0  0  0  0  0  0  0  0  0  0
    8.5809  -14.2123  -12.7650 O   0  0  0  0  0  0  0  0  0  0  0  0
    5.4311  -14.8830  -11.6555 C   0  0  0  0  0  0  0  0  0  0  0  0
    5.6075  -15.8879  -12.8241 C   0  0  0  0  0  0  0  0  0  0  0  0
    4.1843  -16.9596  -13.3032 S   0  0  2  0  0  0  0  0  0  0  0  0
    2.9571  -15.7286  -13.7911 C   0  0  0  0  0  0  0  0  0  0  0  0
    3.4873  -17.4733  -11.7183 C   0  0  0  0  0  0  0  0  0  0  0  0
    4.4893  -18.3476  -10.9761 C   0  0  1  0  0  0  0  0  0  0  0  0
    5.5668  -17.6014  -10.4306 O   0  0  0  0  0  0  0  0  0  0  0  0
    3.8948  -19.0468   -9.7832 C   0  0  1  0  0  0  0  0  0  0  0  0
    3.1582  -20.1617  -10.1959 O   0  0  0  0  0  0  0  0  0  0  0  0
    5.1493  -19.4131   -9.0213 C   0  0  1  0  0  0  0  0  0  0  0  0
    5.7102  -20.5986   -9.5475 O   0  0  0  0  0  0  0  0  0  0  0  0
    6.1007  -18.2528   -9.2917 C   0  0  2  0  0  0  0  0  0  0  0  0
    6.2850  -17.3099   -8.1545 N   0  0  0  0  0  0  0  0  0  0  0  0
    6.2805  -15.9410   -8.2505 C   0  0  0  0  0  0  0  0  0  0  0  0
    6.4751  -15.4094   -7.0229 N   0  0  0  0  0  0  0  0  0  0  0  0
    6.5962  -16.4100   -6.1351 C   0  0  0  0  0  0  0  0  0  0  0  0
    6.7954  -16.4175   -4.7629 C   0  0  0  0  0  0  0  0  0  0  0  0
    6.8989  -15.2763   -4.0947 N   0  0  0  0  0  0  0  0  0  0  0  0
    6.8784  -17.6265   -4.1010 N   0  0  0  0  0  0  0  0  0  0  0  0
    6.7620  -18.8290   -4.7866 C   0  0  0  0  0  0  0  0  0  0  0  0
    6.5582  -18.8016   -6.1513 N   0  0  0  0  0  0  0  0  0  0  0  0
    6.4821  -17.6157   -6.8228 C   0  0  0  0  0  0  0  0  0  0  0  0
  2  3  1  6  0  0  0
  2  6  1  0  0  0  0
  2  1  1  0  0  0  0
  4  3  2  0  0  0  0
  5  3  1  0  0  0  0
  6  7  2  0  0  0  0
  8  7  1  1  0  0  0
  8  9  1  0  0  0  0
  8 10  1  0  0  0  0
 11 10  1  1  0  0  0
 11 13  1  0  0  0  0
 12 11  1  0  0  0  0
 12 17  1  0  0  0  0
 13 14  1  6  0  0  0
 13 15  1  0  0  0  0
 15 16  1  6  0  0  0
 17 18  1  1  0  0  0
 17 15  1  0  0  0  0
 18 19  1  0  0  0  0
 20 19  2  0  0  0  0
 21 27  2  0  0  0  0
 21 20  1  0  0  0  0
 22 21  1  0  0  0  0
 23 22  1  0  0  0  0
 24 22  2  0  0  0  0
 24 25  1  0  0  0  0
 25 26  2  0  0  0  0
 26 27  1  0  0  0  0
 27 18  1  0  0  0  0
M  END
>  <CHROM.1>
158.85052217,102.01608233,61.32160481,-65.47103625,74.30848203,-15.74585042
5.83009638,-16.88042039,-9.58555097,-1.88542852,0.95349823,2.05521134

>  <Name>
lig.pdb

>  <RI>
0

>  <Rbt.Current_Directory>
/home/itssahil/PROJECTS/Mol_Feturizer/New_Systems/rnas/4b5r

>  <Rbt.Executable>
rbdock ($Id: //depot/dev/client3/rdock/2013.1/src/exe/rbdock.cxx#4 $)

>  <Rbt.Library>
libRbt.so (2013.1, Build901 2013/11/27)

>  <Rbt.Parameter_File>
/export/apps/rDock/src/rDock_2013.1_src/data/scripts/dock_solv.prm

>  <Rbt.Receptor>
prm/pocket_docking_5.prm

>  <SCORE>
-9.78936

>  <SCORE.INTER>
-9.32367

>  <SCORE.INTER.CONST>
1

>  <SCORE.INTER.POLAR>
0

>  <SCORE.INTER.ROT>
6

>  <SCORE.INTER.SOLV>
12.7374

>  <SCORE.INTER.VDW>
-18.0616

>  <SCORE.INTER.norm>
-0.345321

>  <SCORE.INTRA>
-0.465698

>  <SCORE.INTRA.DIHEDRAL>
-0.529154

>  <SCORE.INTRA.DIHEDRAL.0>
10.2917

>  <SCORE.INTRA.POLAR>
0

>  <SCORE.INTRA.POLAR.0>
0

>  <SCORE.INTRA.REPUL>
0

>  <SCORE.INTRA.REPUL.0>
0

>  <SCORE.INTRA.SOLV>
-2.23047

>  <SCORE.INTRA.SOLV.lig_0>
-39.6315

>  <SCORE.INTRA.VDW>
0.914111

>  <SCORE.INTRA.VDW.0>
-4.02152

>  <SCORE.INTRA.norm>
-0.0172481

>  <SCORE.RESTR>
0

>  <SCORE.RESTR.CAVITY>
0

>  <SCORE.RESTR.norm>
0

>  <SCORE.SYSTEM>
0

>  <SCORE.SYSTEM.CONST>
0

>  <SCORE.SYSTEM.DIHEDRAL>
0

>  <SCORE.SYSTEM.SOLV>
0

>  <SCORE.SYSTEM.norm>
0

>  <SCORE.heavy>
27

>  <SCORE.norm>
-0.362569

>  <RMSD>
5.804

$$$$
lig.pdb
 OpenBabel11021811493D
libRbt.so/2013.1/901 2013/11/27
 27 29  0  0  0  0  0  0  0  0999 V2000
    5.5213  -19.4586   -6.3645 N   0  0  0  0  0  0  0  0  0  0  0  0
    4.2946  -18.8496   -6.9633 C   0  0  2  0  0  0  0  0  0  0  0  0
    4.2219  -19.2231   -8.4409 C   0  0  0  0  0  0  0  0  0  0  0  0
    3.1519  -19.5754   -8.9233 O   0  0  0  0  0  0  0  0  0  0  0  0
    5.2071  -19.1930   -9.1893 O   0  0  0  0  0  0  0  0  0  0  0  0
    4.1942  -17.3252   -6.7535 C   0  0  0  0  0  0  0  0  0  0  0  0
    4.4262  -16.4322   -8.0006 C   0  0  0  0  0  0  0  0  0  0  0  0
    4.3269  -14.5991   -7.8176 S   0  0  2  0  0  0  0  0  0  0  0  0
    5.4013  -14.3225   -6.3933 C   0  0  0  0  0  0  0  0  0  0  0  0
    2.7177  -14.3365   -7.0409 C   0  0  0  0  0  0  0  0  0  0  0  0
    1.6101  -14.6119   -8.0492 C   0  0  1  0  0  0  0  0  0  0  0  0
    1.7852  -13.8958   -9.2624 O   0  0  0  0  0  0  0  0  0  0  0  0
    1.5515  -16.0512   -8.4855 C   0  0  1  0  0  0  0  0  0  0  0  0
    0.9176  -16.8254   -7.5084 O   0  0  0  0  0  0  0  0  0  0  0  0
    0.7440  -15.9239   -9.7582 C   0  0  1  0  0  0  0  0  0  0  0  0
   -0.6353  -15.8674   -9.4563 O   0  0  0  0  0  0  0  0  0  0  0  0
    1.1784  -14.5839  -10.3417 C   0  0  2  0  0  0  0  0  0  0  0  0
    2.0866  -14.6727  -11.5179 N   0  0  0  0  0  0  0  0  0  0  0  0
    1.8011  -15.3207  -12.6933 C   0  0  0  0  0  0  0  0  0  0  0  0
    2.8513  -15.1959  -13.5353 N   0  0  0  0  0  0  0  0  0  0  0  0
    3.8058  -14.4718  -12.9281 C   0  0  0  0  0  0  0  0  0  0  0  0
    5.0593  -14.0493  -13.3440 C   0  0  0  0  0  0  0  0  0  0  0  0
    5.5034  -14.3598  -14.5547 N   0  0  0  0  0  0  0  0  0  0  0  0
    5.8356  -13.2969  -12.4850 N   0  0  0  0  0  0  0  0  0  0  0  0
    5.3793  -12.9562  -11.2180 C   0  0  0  0  0  0  0  0  0  0  0  0
    4.1267  -13.3808  -10.8238 N   0  0  0  0  0  0  0  0  0  0  0  0
    3.3494  -14.1324  -11.6569 C   0  0  0  0  0  0  0  0  0  0  0  0
  2  3  1  6  0  0  0
  2  6  1  0  0  0  0
  2  1  1  0  0  0  0
  4  3  2  0  0  0  0
  5  3  1  0  0  0  0
  6  7  2  0  0  0  0
  8  7  1  1  0  0  0
  8  9  1  0  0  0  0
  8 10  1  0  0  0  0
 11 10  1  1  0  0  0
 11 13  1  0  0  0  0
 12 11  1  0  0  0  0
 12 17  1  0  0  0  0
 13 14  1  1  0  0  0
 13 15  1  0  0  0  0
 15 16  1  1  0  0  0
 17 18  1  6  0  0  0
 17 15  1  0  0  0  0
 18 19  1  0  0  0  0
 20 19  2  0  0  0  0
 21 27  2  0  0  0  0
 21 20  1  0  0  0  0
 22 21  1  0  0  0  0
 23 22  1  0  0  0  0
 24 22  2  0  0  0  0
 24 25  1  0  0  0  0
 25 26  2  0  0  0  0
 26 27  1  0  0  0  0
 27 18  1  0  0  0  0
M  END
>  <CHROM.1>
136.44684462,108.02828904,49.83619290,-71.82666257,-52.09844343,177.49349464
3.36400010,-15.64773263,-9.61451956,-1.59440645,0.28143619,-0.95459251

>  <Name>
lig.pdb

>  <RI>
0

>  <Rbt.Current_Directory>
/home/itssahil/PROJECTS/Mol_Feturizer/New_Systems/rnas/4b5r

>  <Rbt.Executable>
rbdock ($Id: //depot/dev/client3/rdock/2013.1/src/exe/rbdock.cxx#4 $)

>  <Rbt.Library>
libRbt.so (2013.1, Build901 2013/11/27)

>  <Rbt.Parameter_File>
/export/apps/rDock/src/rDock_2013.1_src/data/scripts/dock_solv.prm

>  <Rbt.Receptor>
prm/pocket_docking_6.prm

>  <SCORE>
-12.7825

>  <SCORE.INTER>
-12.8304

>  <SCORE.INTER.CONST>
1

>  <SCORE.INTER.POLAR>
0

>  <SCORE.INTER.ROT>
6

>  <SCORE.INTER.SOLV>
10.9159

>  <SCORE.INTER.VDW>
-19.7922

>  <SCORE.INTER.norm>
-0.4752

>  <SCORE.INTRA>
0.0478897

>  <SCORE.INTRA.DIHEDRAL>
-1.19714

>  <SCORE.INTRA.DIHEDRAL.0>
10.2917

>  <SCORE.INTRA.POLAR>
0

>  <SCORE.INTRA.POLAR.0>
0

>  <SCORE.INTRA.REPUL>
0.131952

>  <SCORE.INTRA.REPUL.0>
0

>  <SCORE.INTRA.SOLV>
-1.53827

>  <SCORE.INTRA.SOLV.lig_0>
-39.6315

>  <SCORE.INTRA.VDW>
0.755836

>  <SCORE.INTRA.VDW.0>
-4.02152

>  <SCORE.INTRA.norm>
0.00177369

>  <SCORE.RESTR>
0

>  <SCORE.RESTR.CAVITY>
0

>  <SCORE.RESTR.norm>
0

>  <SCORE.SYSTEM>
0

>  <SCORE.SYSTEM.CONST>
0

>  <SCORE.SYSTEM.DIHEDRAL>
0

>  <SCORE.SYSTEM.SOLV>
0

>  <SCORE.SYSTEM.norm>
0

>  <SCORE.heavy>
27

>  <SCORE.norm>
-0.473426

>  <RMSD>
5.805

$$$$
lig.pdb
 OpenBabel11021811493D
libRbt.so/2013.1/901 2013/11/27
 27 29  0  0  0  0  0  0  0  0999 V2000
    8.5283  -13.2379  -13.7844 N   0  0  0  0  0  0  0  0  0  0  0  0
    8.6092  -14.5976  -14.3996 C   0  0  2  0  0  0  0  0  0  0  0  0
    7.6561  -14.6651  -15.5893 C   0  0  0  0  0  0  0  0  0  0  0  0
    7.5168  -15.7224  -16.1929 O   0  0  0  0  0  0  0  0  0  0  0  0
    7.0088  -13.6876  -15.9861 O   0  0  0  0  0  0  0  0  0  0  0  0
    8.3587  -15.7454  -13.4008 C   0  0  0  0  0  0  0  0  0  0  0  0
    8.0315  -15.3401  -11.9395 C   0  0  0  0  0  0  0  0  0  0  0  0
    7.7274  -16.6647  -10.6919 S   0  0  2  0  0  0  0  0  0  0  0  0
    7.0960  -17.9985  -11.7320 C   0  0  0  0  0  0  0  0  0  0  0  0
    6.1925  -16.1498   -9.8915 C   0  0  0  0  0  0  0  0  0  0  0  0
    5.6018  -17.3187   -9.1142 C   0  0  1  0  0  0  0  0  0  0  0  0
    6.4440  -17.7535   -8.0573 O   0  0  0  0  0  0  0  0  0  0  0  0
    4.3071  -16.9779   -8.4265 C   0  0  1  0  0  0  0  0  0  0  0  0
    3.2535  -16.9971   -9.3460 O   0  0  0  0  0  0  0  0  0  0  0  0
    4.2288  -18.0959   -7.4104 C   0  0  1  0  0  0  0  0  0  0  0  0
    3.7050  -19.2633   -8.0102 O   0  0  0  0  0  0  0  0  0  0  0  0
    5.6814  -18.3478   -7.0220 C   0  0  2  0  0  0  0  0  0  0  0  0
    6.0751  -17.8309   -5.6826 N   0  0  0  0  0  0  0  0  0  0  0  0
    6.7735  -18.5354   -4.7345 C   0  0  0  0  0  0  0  0  0  0  0  0
    6.9534  -17.7554   -3.6452 N   0  0  0  0  0  0  0  0  0  0  0  0
    6.3915  -16.5575   -3.8762 C   0  0  0  0  0  0  0  0  0  0  0  0
    6.3003  -15.4084   -3.1057 C   0  0  0  0  0  0  0  0  0  0  0  0
    6.8362  -15.3705   -1.8929 N   0  0  0  0  0  0  0  0  0  0  0  0
    5.6508  -14.3032   -3.6190 N   0  0  0  0  0  0  0  0  0  0  0  0
    5.0934  -14.3255   -4.8912 C   0  0  0  0  0  0  0  0  0  0  0  0
    5.1992  -15.4763   -5.6456 N   0  0  0  0  0  0  0  0  0  0  0  0
    5.8305  -16.5807   -5.1507 C   0  0  0  0  0  0  0  0  0  0  0  0
  2  3  1  6  0  0  0
  2  6  1  0  0  0  0
  2  1  1  0  0  0  0
  4  3  2  0  0  0  0
  5  3  1  0  0  0  0
  6  7  2  0  0  0  0
  8  7  1  6  0  0  0
  8  9  1  0  0  0  0
  8 10  1  0  0  0  0
 11 10  1  1  0  0  0
 11 13  1  0  0  0  0
 12 11  1  0  0  0  0
 12 17  1  0  0  0  0
 13 14  1  6  0  0  0
 13 15  1  0  0  0  0
 15 16  1  6  0  0  0
 17 18  1  1  0  0  0
 17 15  1  0  0  0  0
 18 19  1  0  0  0  0
 20 19  2  0  0  0  0
 21 27  2  0  0  0  0
 21 20  1  0  0  0  0
 22 21  1  0  0  0  0
 23 22  1  0  0  0  0
 24 22  2  0  0  0  0
 24 25  1  0  0  0  0
 25 26  2  0  0  0  0
 26 27  1  0  0  0  0
 27 18  1  0  0  0  0
M  END
>  <CHROM.1>
-176.11340695,1.40159745,-27.88049386,164.28667258,63.23720670,-107.87278866
6.37902330,-16.35655713,-8.84098161,-1.22953785,1.00532029,1.42641637

>  <Name>
lig.pdb

>  <RI>
0

>  <Rbt.Current_Directory>
/home/itssahil/PROJECTS/Mol_Feturizer/New_Systems/rnas/4b5r

>  <Rbt.Executable>
rbdock ($Id: //depot/dev/client3/rdock/2013.1/src/exe/rbdock.cxx#4 $)

>  <Rbt.Library>
libRbt.so (2013.1, Build901 2013/11/27)

>  <Rbt.Parameter_File>
/export/apps/rDock/src/rDock_2013.1_src/data/scripts/dock_solv.prm

>  <Rbt.Receptor>
prm/pocket_docking_6.prm

>  <SCORE>
-14.6247

>  <SCORE.INTER>
-14.4708

>  <SCORE.INTER.CONST>
1

>  <SCORE.INTER.POLAR>
0

>  <SCORE.INTER.ROT>
6

>  <SCORE.INTER.SOLV>
12.435

>  <SCORE.INTER.VDW>
-21.3922

>  <SCORE.INTER.norm>
-0.535956

>  <SCORE.INTRA>
-0.153923

>  <SCORE.INTRA.DIHEDRAL>
-3.21237

>  <SCORE.INTRA.DIHEDRAL.0>
10.2917

>  <SCORE.INTRA.POLAR>
0

>  <SCORE.INTRA.POLAR.0>
0

>  <SCORE.INTRA.REPUL>
0

>  <SCORE.INTRA.REPUL.0>
0

>  <SCORE.INTRA.SOLV>
-2.17064

>  <SCORE.INTRA.SOLV.lig_0>
-39.6315

>  <SCORE.INTRA.VDW>
2.53759

>  <SCORE.INTRA.VDW.0>
-4.02152

>  <SCORE.INTRA.norm>
-0.00570087

>  <SCORE.RESTR>
0

>  <SCORE.RESTR.CAVITY>
0

>  <SCORE.RESTR.norm>
0

>  <SCORE.SYSTEM>
0

>  <SCORE.SYSTEM.CONST>
0

>  <SCORE.SYSTEM.DIHEDRAL>
0

>  <SCORE.SYSTEM.SOLV>
0

>  <SCORE.SYSTEM.norm>
0

>  <SCORE.heavy>
27

>  <SCORE.norm>
-0.541656

>  <RMSD>
5.808

$$$$
lig.pdb
 OpenBabel11021811493D
libRbt.so/2013.1/901 2013/11/27
 27 29  0  0  0  0  0  0  0  0999 V2000
    6.5753  -12.5071  -19.3693 N   0  0  0  0  0  0  0  0  0  0  0  0
    6.7161  -11.0611  -19.0181 C   0  0  2  0  0  0  0  0  0  0  0  0
    7.9322  -10.4880  -19.7397 C   0  0  0  0  0  0  0  0  0  0  0  0
    8.5583   -9.5660  -19.2303 O   0  0  0  0  0  0  0  0  0  0  0  0
    8.3224  -10.9109  -20.8355 O   0  0  0  0  0  0  0  0  0  0  0  0
    6.7743  -10.7952  -17.5003 C   0  0  0  0  0  0  0  0  0  0  0  0
    6.1238  -11.8607  -16.5794 C   0  0  0  0  0  0  0  0  0  0  0  0
    6.1528  -11.6006  -14.7532 S   0  0  2  0  0  0  0  0  0  0  0  0
    7.9277  -11.5654  -14.4244 C   0  0  0  0  0  0  0  0  0  0  0  0
    5.7516  -13.2301  -14.0858 C   0  0  0  0  0  0  0  0  0  0  0  0
    5.7446  -13.1740  -12.5639 C   0  0  1  0  0  0  0  0  0  0  0  0
    4.4668  -12.8534  -12.0348 O   0  0  0  0  0  0  0  0  0  0  0  0
    6.0800  -14.4932  -11.9216 C   0  0  1  0  0  0  0  0  0  0  0  0
    7.4617  -14.7070  -11.9532 O   0  0  0  0  0  0  0  0  0  0  0  0
    5.5462  -14.2665  -10.5245 C   0  0  1  0  0  0  0  0  0  0  0  0
    6.4892  -13.5509   -9.7529 O   0  0  0  0  0  0  0  0  0  0  0  0
    4.3138  -13.3938  -10.7344 C   0  0  2  0  0  0  0  0  0  0  0  0
    3.0100  -14.0957  -10.5802 N   0  0  0  0  0  0  0  0  0  0  0  0
    2.4492  -14.9395  -11.5057 C   0  0  0  0  0  0  0  0  0  0  0  0
    1.2674  -15.3946  -11.0327 N   0  0  0  0  0  0  0  0  0  0  0  0
    1.0594  -14.8669   -9.8152 C   0  0  0  0  0  0  0  0  0  0  0  0
    0.0251  -15.0106   -8.9030 C   0  0  0  0  0  0  0  0  0  0  0  0
   -1.0076  -15.7960   -9.1793 N   0  0  0  0  0  0  0  0  0  0  0  0
    0.0867  -14.3315   -7.7023 N   0  0  0  0  0  0  0  0  0  0  0  0
    1.1666  -13.5132   -7.3958 C   0  0  0  0  0  0  0  0  0  0  0  0
    2.1895  -13.3871   -8.3136 N   0  0  0  0  0  0  0  0  0  0  0  0
    2.1409  -14.0446   -9.5088 C   0  0  0  0  0  0  0  0  0  0  0  0
  2  3  1  6  0  0  0
  2  6  1  0  0  0  0
  2  1  1  0  0  0  0
  4  3  2  0  0  0  0
  5  3  1  0  0  0  0
  6  7  2  0  0  0  0
  8  7  1  6  0  0  0
  8  9  1  0  0  0  0
  8 10  1  0  0  0  0
 11 10  1  6  0  0  0
 11 13  1  0  0  0  0
 12 11  1  0  0  0  0
 12 17  1  0  0  0  0
 13 14  1  1  0  0  0
 13 15  1  0  0  0  0
 15 16  1  1  0  0  0
 17 18  1  6  0  0  0
 17 15  1  0  0  0  0
 18 19  1  0  0  0  0
 20 19  2  0  0  0  0
 21 27  2  0  0  0  0
 21 20  1  0  0  0  0
 22 21  1  0  0  0  0
 23 22  1  0  0  0  0
 24 22  2  0  0  0  0
 24 25  1  0  0  0  0
 25 26  2  0  0  0  0
 26 27  1  0  0  0  0
 27 18  1  0  0  0  0
M  END
>  <CHROM.1>
-150.05803387,-24.31787455,-61.15992651,179.72228876,90.27747017,43.05659455
4.74011994,-13.05852892,-13.07531805,1.02087985,-0.17077596,-1.31884448

>  <Name>
lig.pdb

>  <RI>
0

>  <Rbt.Current_Directory>
/home/itssahil/PROJECTS/Mol_Feturizer/New_Systems/rnas/4b5r

>  <Rbt.Executable>
rbdock ($Id: //depot/dev/client3/rdock/2013.1/src/exe/rbdock.cxx#4 $)

>  <Rbt.Library>
libRbt.so (2013.1, Build901 2013/11/27)

>  <Rbt.Parameter_File>
/export/apps/rDock/src/rDock_2013.1_src/data/scripts/dock_solv.prm

>  <Rbt.Receptor>
prm/blind_docking_60.prm

>  <SCORE>
-12.7463

>  <SCORE.INTER>
-13.826

>  <SCORE.INTER.CONST>
1

>  <SCORE.INTER.POLAR>
0

>  <SCORE.INTER.ROT>
6

>  <SCORE.INTER.SOLV>
14.3622

>  <SCORE.INTER.VDW>
-21.6047

>  <SCORE.INTER.norm>
-0.512074

>  <SCORE.INTRA>
1.0797

>  <SCORE.INTRA.DIHEDRAL>
0.518732

>  <SCORE.INTRA.DIHEDRAL.0>
10.2917

>  <SCORE.INTRA.POLAR>
0

>  <SCORE.INTRA.POLAR.0>
0

>  <SCORE.INTRA.REPUL>
0

>  <SCORE.INTRA.REPUL.0>
0

>  <SCORE.INTRA.SOLV>
-2.79476

>  <SCORE.INTRA.SOLV.lig_0>
-39.6315

>  <SCORE.INTRA.VDW>
2.21771

>  <SCORE.INTRA.VDW.0>
-4.02152

>  <SCORE.INTRA.norm>
0.0399888

>  <SCORE.RESTR>
0

>  <SCORE.RESTR.CAVITY>
0

>  <SCORE.RESTR.norm>
0

>  <SCORE.SYSTEM>
0

>  <SCORE.SYSTEM.CONST>
0

>  <SCORE.SYSTEM.DIHEDRAL>
0

>  <SCORE.SYSTEM.SOLV>
0

>  <SCORE.SYSTEM.norm>
0

>  <SCORE.heavy>
27

>  <SCORE.norm>
-0.472085

>  <RMSD>
5.810

$$$$
lig.pdb
 OpenBabel11021811493D
libRbt.so/2013.1/901 2013/11/27
 27 29  0  0  0  0  0  0  0  0999 V2000
    3.1276  -14.1296  -12.1367 N   0  0  0  0  0  0  0  0  0  0  0  0
    3.7253  -15.4979  -12.2042 C   0  0  2  0  0  0  0  0  0  0  0  0
    3.5866  -16.0339  -13.6260 C   0  0  0  0  0  0  0  0  0  0  0  0
    4.3484  -16.9099  -14.0187 O   0  0  0  0  0  0  0  0  0  0  0  0
    2.7321  -15.6181  -14.4189 O   0  0  0  0  0  0  0  0  0  0  0  0
    3.1464  -16.4787  -11.1646 C   0  0  0  0  0  0  0  0  0  0  0  0
    1.6792  -16.2398  -10.7209 C   0  0  0  0  0  0  0  0  0  0  0  0
    0.9271  -17.3733   -9.4746 S   0  0  2  0  0  0  0  0  0  0  0  0
   -0.5431  -16.4456   -8.9876 C   0  0  0  0  0  0  0  0  0  0  0  0
    1.9458  -17.1236   -8.0043 C   0  0  0  0  0  0  0  0  0  0  0  0
    3.3747  -17.5674   -8.2885 C   0  0  1  0  0  0  0  0  0  0  0  0
    4.3347  -16.8207   -7.5562 O   0  0  0  0  0  0  0  0  0  0  0  0
    3.6428  -18.9926   -7.8854 C   0  0  1  0  0  0  0  0  0  0  0  0
    3.1304  -19.8697   -8.8467 O   0  0  0  0  0  0  0  0  0  0  0  0
    5.1546  -18.9874   -7.8324 C   0  0  1  0  0  0  0  0  0  0  0  0
    5.6880  -19.1610   -9.1294 O   0  0  0  0  0  0  0  0  0  0  0  0
    5.5044  -17.5888   -7.3364 C   0  0  2  0  0  0  0  0  0  0  0  0
    5.9521  -17.5159   -5.9185 N   0  0  0  0  0  0  0  0  0  0  0  0
    6.4892  -18.5557   -5.2019 C   0  0  0  0  0  0  0  0  0  0  0  0
    6.7801  -18.1299   -3.9523 N   0  0  0  0  0  0  0  0  0  0  0  0
    6.4487  -16.8321   -3.8519 C   0  0  0  0  0  0  0  0  0  0  0  0
    6.5472  -15.9246   -2.8083 C   0  0  0  0  0  0  0  0  0  0  0  0
    7.0515  -16.2992   -1.6400 N   0  0  0  0  0  0  0  0  0  0  0  0
    6.1198  -14.6260   -3.0024 N   0  0  0  0  0  0  0  0  0  0  0  0
    5.5986  -14.2175   -4.2235 C   0  0  0  0  0  0  0  0  0  0  0  0
    5.5138  -15.1333   -5.2524 N   0  0  0  0  0  0  0  0  0  0  0  0
    5.9238  -16.4231   -5.0754 C   0  0  0  0  0  0  0  0  0  0  0  0
  2  3  1  6  0  0  0
  2  6  1  0  0  0  0
  2  1  1  0  0  0  0
  4  3  2  0  0  0  0
  5  3  1  0  0  0  0
  6  7  2  0  0  0  0
  8  7  1  6  0  0  0
  8  9  1  0  0  0  0
  8 10  1  0  0  0  0
 11 10  1  1  0  0  0
 11 13  1  0  0  0  0
 12 11  1  0  0  0  0
 12 17  1  0  0  0  0
 13 14  1  6  0  0  0
 13 15  1  0  0  0  0
 15 16  1  6  0  0  0
 17 18  1  1  0  0  0
 17 15  1  0  0  0  0
 18 19  1  0  0  0  0
 20 19  2  0  0  0  0
 21 27  2  0  0  0  0
 21 20  1  0  0  0  0
 22 21  1  0  0  0  0
 23 22  1  0  0  0  0
 24 22  2  0  0  0  0
 24 25  1  0  0  0  0
 25 26  2  0  0  0  0
 26 27  1  0  0  0  0
 27 18  1  0  0  0  0
M  END
>  <CHROM.1>
156.87682020,29.35386307,165.53191661,-63.47343788,148.93462675,142.48565154
4.16417903,-16.88283280,-8.04532256,-2.61005479,1.07550615,2.56114251

>  <Name>
lig.pdb

>  <RI>
0

>  <Rbt.Current_Directory>
/home/itssahil/PROJECTS/Mol_Feturizer/New_Systems/rnas/4b5r

>  <Rbt.Executable>
rbdock ($Id: //depot/dev/client3/rdock/2013.1/src/exe/rbdock.cxx#4 $)

>  <Rbt.Library>
libRbt.so (2013.1, Build901 2013/11/27)

>  <Rbt.Parameter_File>
/export/apps/rDock/src/rDock_2013.1_src/data/scripts/dock_solv.prm

>  <Rbt.Receptor>
prm/pocket_docking_7.prm

>  <SCORE>
-14.5597

>  <SCORE.INTER>
-16.1656

>  <SCORE.INTER.CONST>
1

>  <SCORE.INTER.POLAR>
0

>  <SCORE.INTER.ROT>
6

>  <SCORE.INTER.SOLV>
14.973

>  <SCORE.INTER.VDW>
-23.3681

>  <SCORE.INTER.norm>
-0.598727

>  <SCORE.INTRA>
1.60395

>  <SCORE.INTRA.DIHEDRAL>
0.92794

>  <SCORE.INTRA.DIHEDRAL.0>
10.2917

>  <SCORE.INTRA.POLAR>
0

>  <SCORE.INTRA.POLAR.0>
0

>  <SCORE.INTRA.REPUL>
0.171318

>  <SCORE.INTRA.REPUL.0>
0

>  <SCORE.INTRA.SOLV>
-2.38258

>  <SCORE.INTRA.SOLV.lig_0>
-39.6315

>  <SCORE.INTRA.VDW>
1.47468

>  <SCORE.INTRA.VDW.0>
-4.02152

>  <SCORE.INTRA.norm>
0.0594055

>  <SCORE.RESTR>
0.00194865

>  <SCORE.RESTR.CAVITY>
0.00194865

>  <SCORE.RESTR.norm>
7.21723e-05

>  <SCORE.SYSTEM>
0

>  <SCORE.SYSTEM.CONST>
0

>  <SCORE.SYSTEM.DIHEDRAL>
0

>  <SCORE.SYSTEM.SOLV>
0

>  <SCORE.SYSTEM.norm>
0

>  <SCORE.heavy>
27

>  <SCORE.norm>
-0.539249

>  <RMSD>
5.839

$$$$
lig.pdb
 OpenBabel11021811493D
libRbt.so/2013.1/901 2013/11/27
 27 29  0  0  0  0  0  0  0  0999 V2000
    6.5635  -16.3599  -15.3247 N   0  0  0  0  0  0  0  0  0  0  0  0
    7.1946  -17.3650  -14.4161 C   0  0  2  0  0  0  0  0  0  0  0  0
    7.4773  -18.6414  -15.2028 C   0  0  0  0  0  0  0  0  0  0  0  0
    7.1304  -18.7179  -16.3757 O   0  0  0  0  0  0  0  0  0  0  0  0
    8.0444  -19.6232  -14.7065 O   0  0  0  0  0  0  0  0  0  0  0  0
    6.3745  -17.6489  -13.1415 C   0  0  0  0  0  0  0  0  0  0  0  0
    7.1526  -18.2056  -11.9204 C   0  0  0  0  0  0  0  0  0  0  0  0
    6.2303  -18.5733  -10.3655 S   0  0  2  0  0  0  0  0  0  0  0  0
    6.6658  -20.3038  -10.0911 C   0  0  0  0  0  0  0  0  0  0  0  0
    4.5236  -18.7731  -10.9214 C   0  0  0  0  0  0  0  0  0  0  0  0
    3.5921  -18.8071   -9.7170 C   0  0  1  0  0  0  0  0  0  0  0  0
    4.2035  -19.3766   -8.5693 O   0  0  0  0  0  0  0  0  0  0  0  0
    3.1687  -17.4377   -9.2578 C   0  0  1  0  0  0  0  0  0  0  0  0
    2.1553  -16.9439  -10.0855 O   0  0  0  0  0  0  0  0  0  0  0  0
    2.6915  -17.7491   -7.8564 C   0  0  1  0  0  0  0  0  0  0  0  0
    1.3681  -18.2433   -7.8910 O   0  0  0  0  0  0  0  0  0  0  0  0
    3.6228  -18.8603   -7.3849 C   0  0  2  0  0  0  0  0  0  0  0  0
    4.6590  -18.4404   -6.4019 N   0  0  0  0  0  0  0  0  0  0  0  0
    5.5413  -19.2813   -5.7715 C   0  0  0  0  0  0  0  0  0  0  0  0
    6.3347  -18.5576   -4.9505 N   0  0  0  0  0  0  0  0  0  0  0  0
    5.9865  -17.2639   -5.0461 C   0  0  0  0  0  0  0  0  0  0  0  0
    6.4786  -16.1203   -4.4357 C   0  0  0  0  0  0  0  0  0  0  0  0
    7.4860  -16.2000   -3.5765 N   0  0  0  0  0  0  0  0  0  0  0  0
    5.9112  -14.8982   -4.7381 N   0  0  0  0  0  0  0  0  0  0  0  0
    4.8622  -14.7988   -5.6433 C   0  0  0  0  0  0  0  0  0  0  0  0
    4.3896  -15.9473   -6.2453 N   0  0  0  0  0  0  0  0  0  0  0  0
    4.9331  -17.1645   -5.9517 C   0  0  0  0  0  0  0  0  0  0  0  0
  2  3  1  6  0  0  0
  2  6  1  0  0  0  0
  2  1  1  0  0  0  0
  4  3  2  0  0  0  0
  5  3  1  0  0  0  0
  6  7  2  0  0  0  0
  8  7  1  6  0  0  0
  8  9  1  0  0  0  0
  8 10  1  0  0  0  0
 11 10  1  6  0  0  0
 11 13  1  0  0  0  0
 12 11  1  0  0  0  0
 12 17  1  0  0  0  0
 13 14  1  6  0  0  0
 13 15  1  0  0  0  0
 15 16  1  6  0  0  0
 17 18  1  1  0  0  0
 17 15  1  0  0  0  0
 18 19  1  0  0  0  0
 20 19  2  0  0  0  0
 21 27  2  0  0  0  0
 21 20  1  0  0  0  0
 22 21  1  0  0  0  0
 23 22  1  0  0  0  0
 24 22  2  0  0  0  0
 24 25  1  0  0  0  0
 25 26  2  0  0  0  0
 26 27  1  0  0  0  0
 27 18  1  0  0  0  0
M  END
>  <CHROM.1>
-3.05250380,-156.65438064,124.72450195,-168.74875416,-31.46969807,-65.33941223
5.37716278,-17.86204466,-9.25483984,-1.37918445,0.13937432,1.38799551

>  <Name>
lig.pdb

>  <RI>
0

>  <Rbt.Current_Directory>
/home/itssahil/PROJECTS/Mol_Feturizer/New_Systems/rnas/4b5r

>  <Rbt.Executable>
rbdock ($Id: //depot/dev/client3/rdock/2013.1/src/exe/rbdock.cxx#4 $)

>  <Rbt.Library>
libRbt.so (2013.1, Build901 2013/11/27)

>  <Rbt.Parameter_File>
/export/apps/rDock/src/rDock_2013.1_src/data/scripts/dock_solv.prm

>  <Rbt.Receptor>
prm/pocket_docking_6.prm

>  <SCORE>
-11.4078

>  <SCORE.INTER>
-12.7917

>  <SCORE.INTER.CONST>
1

>  <SCORE.INTER.POLAR>
0

>  <SCORE.INTER.ROT>
6

>  <SCORE.INTER.SOLV>
13.28

>  <SCORE.INTER.VDW>
-20.5544

>  <SCORE.INTER.norm>
-0.473765

>  <SCORE.INTRA>
1.38381

>  <SCORE.INTRA.DIHEDRAL>
1.83199

>  <SCORE.INTRA.DIHEDRAL.0>
10.2917

>  <SCORE.INTRA.POLAR>
0

>  <SCORE.INTRA.POLAR.0>
0

>  <SCORE.INTRA.REPUL>
0

>  <SCORE.INTRA.REPUL.0>
0

>  <SCORE.INTRA.SOLV>
-2.91631

>  <SCORE.INTRA.SOLV.lig_0>
-39.6315

>  <SCORE.INTRA.VDW>
1.92597

>  <SCORE.INTRA.VDW.0>
-4.02152

>  <SCORE.INTRA.norm>
0.0512521

>  <SCORE.RESTR>
0

>  <SCORE.RESTR.CAVITY>
0

>  <SCORE.RESTR.norm>
0

>  <SCORE.SYSTEM>
0

>  <SCORE.SYSTEM.CONST>
0

>  <SCORE.SYSTEM.DIHEDRAL>
0

>  <SCORE.SYSTEM.SOLV>
0

>  <SCORE.SYSTEM.norm>
0

>  <SCORE.heavy>
27

>  <SCORE.norm>
-0.422513

>  <RMSD>
5.861

$$$$
lig.pdb
 OpenBabel11021811493D
libRbt.so/2013.1/901 2013/11/27
 27 29  0  0  0  0  0  0  0  0999 V2000
    8.2434  -12.9531  -13.3679 N   0  0  0  0  0  0  0  0  0  0  0  0
    8.6879  -14.2212  -14.0222 C   0  0  2  0  0  0  0  0  0  0  0  0
    7.9813  -14.3636  -15.3671 C   0  0  0  0  0  0  0  0  0  0  0  0
    7.5957  -13.3607  -15.9564 O   0  0  0  0  0  0  0  0  0  0  0  0
    7.7692  -15.4602  -15.9003 O   0  0  0  0  0  0  0  0  0  0  0  0
    8.4976  -15.4725  -13.1414 C   0  0  0  0  0  0  0  0  0  0  0  0
    7.9795  -15.2379  -11.6981 C   0  0  0  0  0  0  0  0  0  0  0  0
    7.7360  -16.6920  -10.5891 S   0  0  2  0  0  0  0  0  0  0  0  0
    7.1045  -17.9244  -11.7474 C   0  0  0  0  0  0  0  0  0  0  0  0
    6.2128  -16.2990   -9.7019 C   0  0  0  0  0  0  0  0  0  0  0  0
    5.7466  -17.5182   -8.9173 C   0  0  1  0  0  0  0  0  0  0  0  0
    6.6008  -17.8248   -7.8256 O   0  0  0  0  0  0  0  0  0  0  0  0
    4.3974  -17.3295   -8.2774 C   0  0  1  0  0  0  0  0  0  0  0  0
    3.3856  -17.4972   -9.2281 O   0  0  0  0  0  0  0  0  0  0  0  0
    4.4251  -18.4297   -7.2395 C   0  0  1  0  0  0  0  0  0  0  0  0
    4.0710  -19.6643   -7.8289 O   0  0  0  0  0  0  0  0  0  0  0  0
    5.8841  -18.4908   -6.8012 C   0  0  2  0  0  0  0  0  0  0  0  0
    6.1656  -17.9044   -5.4622 N   0  0  0  0  0  0  0  0  0  0  0  0
    6.8361  -18.5357   -4.4449 C   0  0  0  0  0  0  0  0  0  0  0  0
    6.9075  -17.7071   -3.3791 N   0  0  0  0  0  0  0  0  0  0  0  0
    6.3031  -16.5494   -3.6930 C   0  0  0  0  0  0  0  0  0  0  0  0
    6.1065  -15.3784   -2.9770 C   0  0  0  0  0  0  0  0  0  0  0  0
    6.5614  -15.2674   -1.7360 N   0  0  0  0  0  0  0  0  0  0  0  0
    5.4373  -14.3284   -3.5740 N   0  0  0  0  0  0  0  0  0  0  0  0
    4.9640  -14.4272   -4.8763 C   0  0  0  0  0  0  0  0  0  0  0  0
    5.1743  -15.5985   -5.5752 N   0  0  0  0  0  0  0  0  0  0  0  0
    5.8264  -16.6494   -4.9977 C   0  0  0  0  0  0  0  0  0  0  0  0
  2  3  1  6  0  0  0
  2  6  1  0  0  0  0
  2  1  1  0  0  0  0
  4  3  2  0  0  0  0
  5  3  1  0  0  0  0
  6  7  2  0  0  0  0
  8  7  1  6  0  0  0
  8  9  1  0  0  0  0
  8 10  1  0  0  0  0
 11 10  1  1  0  0  0
 11 13  1  0  0  0  0
 12 11  1  0  0  0  0
 12 17  1  0  0  0  0
 13 14  1  6  0  0  0
 13 15  1  0  0  0  0
 15 16  1  6  0  0  0
 17 18  1  1  0  0  0
 17 15  1  0  0  0  0
 18 19  1  0  0  0  0
 20 19  2  0  0  0  0
 21 27  2  0  0  0  0
 21 20  1  0  0  0  0
 22 21  1  0  0  0  0
 23 22  1  0  0  0  0
 24 22  2  0  0  0  0
 24 25  1  0  0  0  0
 25 26  2  0  0  0  0
 26 27  1  0  0  0  0
 27 18  1  0  0  0  0
M  END
>  <CHROM.1>
25.99411570,-4.12984549,-37.59925223,170.23179183,69.35168276,-112.61807869
6.44062106,-16.37357957,-8.66398543,-1.08870706,1.11984137,1.31360225

>  <Name>
lig.pdb

>  <RI>
0

>  <Rbt.Current_Directory>
/home/itssahil/PROJECTS/Mol_Feturizer/New_Systems/rnas/4b5r

>  <Rbt.Executable>
rbdock ($Id: //depot/dev/client3/rdock/2013.1/src/exe/rbdock.cxx#4 $)

>  <Rbt.Library>
libRbt.so (2013.1, Build901 2013/11/27)

>  <Rbt.Parameter_File>
/export/apps/rDock/src/rDock_2013.1_src/data/scripts/dock_solv.prm

>  <Rbt.Receptor>
prm/pocket_docking_7.prm

>  <SCORE>
-14.8679

>  <SCORE.INTER>
-14.3944

>  <SCORE.INTER.CONST>
1

>  <SCORE.INTER.POLAR>
0

>  <SCORE.INTER.ROT>
6

>  <SCORE.INTER.SOLV>
12.5169

>  <SCORE.INTER.VDW>
-21.3686

>  <SCORE.INTER.norm>
-0.533127

>  <SCORE.INTRA>
-0.473416

>  <SCORE.INTRA.DIHEDRAL>
-3.15539

>  <SCORE.INTRA.DIHEDRAL.0>
10.2917

>  <SCORE.INTRA.POLAR>
0

>  <SCORE.INTRA.POLAR.0>
0

>  <SCORE.INTRA.REPUL>
0

>  <SCORE.INTRA.REPUL.0>
0

>  <SCORE.INTRA.SOLV>
-2.17886

>  <SCORE.INTRA.SOLV.lig_0>
-39.6315

>  <SCORE.INTRA.VDW>
2.19371

>  <SCORE.INTRA.VDW.0>
-4.02152

>  <SCORE.INTRA.norm>
-0.0175339

>  <SCORE.RESTR>
0

>  <SCORE.RESTR.CAVITY>
0

>  <SCORE.RESTR.norm>
0

>  <SCORE.SYSTEM>
0

>  <SCORE.SYSTEM.CONST>
0

>  <SCORE.SYSTEM.DIHEDRAL>
0

>  <SCORE.SYSTEM.SOLV>
0

>  <SCORE.SYSTEM.norm>
0

>  <SCORE.heavy>
27

>  <SCORE.norm>
-0.550661

>  <RMSD>
5.865

$$$$
lig.pdb
 OpenBabel11021811493D
libRbt.so/2013.1/901 2013/11/27
 27 29  0  0  0  0  0  0  0  0999 V2000
    1.2885  -15.4738  -12.9038 N   0  0  0  0  0  0  0  0  0  0  0  0
    1.9413  -14.6375  -11.8510 C   0  0  2  0  0  0  0  0  0  0  0  0
    3.4204  -14.4748  -12.1883 C   0  0  0  0  0  0  0  0  0  0  0  0
    3.8187  -14.7571  -13.3123 O   0  0  0  0  0  0  0  0  0  0  0  0
    4.2545  -14.0698  -11.3684 O   0  0  0  0  0  0  0  0  0  0  0  0
    1.7371  -15.1733  -10.4195 C   0  0  0  0  0  0  0  0  0  0  0  0
    1.1424  -14.1847   -9.3823 C   0  0  0  0  0  0  0  0  0  0  0  0
    0.8786  -14.7598   -7.6494 S   0  0  2  0  0  0  0  0  0  0  0  0
    1.5898  -13.3943   -6.7064 C   0  0  0  0  0  0  0  0  0  0  0  0
    2.1704  -15.9994   -7.4121 C   0  0  0  0  0  0  0  0  0  0  0  0
    3.5383  -15.3319   -7.4655 C   0  0  1  0  0  0  0  0  0  0  0  0
    4.0508  -15.0324   -6.1759 O   0  0  0  0  0  0  0  0  0  0  0  0
    4.5988  -16.2046   -8.0811 C   0  0  1  0  0  0  0  0  0  0  0  0
    4.4860  -16.1895   -9.4750 O   0  0  0  0  0  0  0  0  0  0  0  0
    5.8501  -15.5184   -7.5793 C   0  0  1  0  0  0  0  0  0  0  0  0
    6.1605  -14.4107   -8.4000 O   0  0  0  0  0  0  0  0  0  0  0  0
    5.4672  -15.0149   -6.1921 C   0  0  2  0  0  0  0  0  0  0  0  0
    6.0399  -15.7918   -5.0586 N   0  0  0  0  0  0  0  0  0  0  0  0
    6.8401  -16.8998   -5.1808 C   0  0  0  0  0  0  0  0  0  0  0  0
    7.1741  -17.3440   -3.9485 N   0  0  0  0  0  0  0  0  0  0  0  0
    6.6113  -16.5378   -3.0334 C   0  0  0  0  0  0  0  0  0  0  0  0
    6.6429  -16.5389   -1.6472 C   0  0  0  0  0  0  0  0  0  0  0  0
    7.3308  -17.4657   -0.9934 N   0  0  0  0  0  0  0  0  0  0  0  0
    5.9551  -15.5604   -0.9571 N   0  0  0  0  0  0  0  0  0  0  0  0
    5.2386  -14.5781   -1.6290 C   0  0  0  0  0  0  0  0  0  0  0  0
    5.2235  -14.5898   -3.0089 N   0  0  0  0  0  0  0  0  0  0  0  0
    5.8909  -15.5545   -3.7069 C   0  0  0  0  0  0  0  0  0  0  0  0
  2  3  1  6  0  0  0
  2  6  1  0  0  0  0
  2  1  1  0  0  0  0
  4  3  2  0  0  0  0
  5  3  1  0  0  0  0
  6  7  2  0  0  0  0
  8  7  1  6  0  0  0
  8  9  1  0  0  0  0
  8 10  1  0  0  0  0
 11 10  1  1  0  0  0
 11 13  1  0  0  0  0
 12 11  1  0  0  0  0
 12 17  1  0  0  0  0
 13 14  1  6  0  0  0
 13 15  1  0  0  0  0
 15 16  1  6  0  0  0
 17 18  1  1  0  0  0
 17 15  1  0  0  0  0
 18 19  1  0  0  0  0
 20 19  2  0  0  0  0
 21 27  2  0  0  0  0
 21 20  1  0  0  0  0
 22 21  1  0  0  0  0
 23 22  1  0  0  0  0
 24 22  2  0  0  0  0
 24 25  1  0  0  0  0
 25 26  2  0  0  0  0
 26 27  1  0  0  0  0
 27 18  1  0  0  0  0
M  END
>  <CHROM.1>
14.84227686,-125.87959842,132.92412767,65.65461423,96.81194883,118.38966506
4.23578107,-15.33593960,-7.00777235,2.00743390,0.29976048,-1.55680621

>  <Name>
lig.pdb

>  <RI>
0

>  <Rbt.Current_Directory>
/home/itssahil/PROJECTS/Mol_Feturizer/New_Systems/rnas/4b5r

>  <Rbt.Executable>
rbdock ($Id: //depot/dev/client3/rdock/2013.1/src/exe/rbdock.cxx#4 $)

>  <Rbt.Library>
libRbt.so (2013.1, Build901 2013/11/27)

>  <Rbt.Parameter_File>
/export/apps/rDock/src/rDock_2013.1_src/data/scripts/dock_solv.prm

>  <Rbt.Receptor>
prm/pocket_docking_6.prm

>  <SCORE>
-15.8164

>  <SCORE.INTER>
-18.3759

>  <SCORE.INTER.CONST>
1

>  <SCORE.INTER.POLAR>
0

>  <SCORE.INTER.ROT>
6

>  <SCORE.INTER.SOLV>
18.927

>  <SCORE.INTER.VDW>
-26.1596

>  <SCORE.INTER.norm>
-0.68059

>  <SCORE.INTRA>
2.55957

>  <SCORE.INTRA.DIHEDRAL>
0.651798

>  <SCORE.INTRA.DIHEDRAL.0>
10.2917

>  <SCORE.INTRA.POLAR>
0

>  <SCORE.INTRA.POLAR.0>
0

>  <SCORE.INTRA.REPUL>
0.0208664

>  <SCORE.INTRA.REPUL.0>
0

>  <SCORE.INTRA.SOLV>
-2.66997

>  <SCORE.INTRA.SOLV.lig_0>
-39.6315

>  <SCORE.INTRA.VDW>
3.46432

>  <SCORE.INTRA.VDW.0>
-4.02152

>  <SCORE.INTRA.norm>
0.094799

>  <SCORE.RESTR>
0

>  <SCORE.RESTR.CAVITY>
0

>  <SCORE.RESTR.norm>
0

>  <SCORE.SYSTEM>
0

>  <SCORE.SYSTEM.CONST>
0

>  <SCORE.SYSTEM.DIHEDRAL>
0

>  <SCORE.SYSTEM.SOLV>
0

>  <SCORE.SYSTEM.norm>
0

>  <SCORE.heavy>
27

>  <SCORE.norm>
-0.585791

>  <RMSD>
5.867

$$$$
lig.pdb
 OpenBabel11021811493D
libRbt.so/2013.1/901 2013/11/27
 27 29  0  0  0  0  0  0  0  0999 V2000
    3.4488  -13.9532  -12.5910 N   0  0  0  0  0  0  0  0  0  0  0  0
    2.9521  -15.3407  -12.3416 C   0  0  2  0  0  0  0  0  0  0  0  0
    2.2671  -15.8601  -13.6022 C   0  0  0  0  0  0  0  0  0  0  0  0
    1.0719  -16.1293  -13.5734 O   0  0  0  0  0  0  0  0  0  0  0  0
    2.8688  -16.0315  -14.6701 O   0  0  0  0  0  0  0  0  0  0  0  0
    2.0387  -15.4586  -11.1048 C   0  0  0  0  0  0  0  0  0  0  0  0
    2.4420  -16.5090  -10.0368 C   0  0  0  0  0  0  0  0  0  0  0  0
    1.3885  -16.7059   -8.5352 S   0  0  2  0  0  0  0  0  0  0  0  0
    2.0229  -15.3879   -7.4770 C   0  0  0  0  0  0  0  0  0  0  0  0
    2.1038  -18.1384   -7.6996 C   0  0  0  0  0  0  0  0  0  0  0  0
    3.5953  -18.2147   -7.9978 C   0  0  1  0  0  0  0  0  0  0  0  0
    4.3522  -17.2815   -7.2416 O   0  0  0  0  0  0  0  0  0  0  0  0
    4.2027  -19.5448   -7.6409 C   0  0  1  0  0  0  0  0  0  0  0  0
    3.9099  -20.4891   -8.6301 O   0  0  0  0  0  0  0  0  0  0  0  0
    5.6689  -19.1761   -7.5876 C   0  0  1  0  0  0  0  0  0  0  0  0
    6.2185  -19.1750   -8.8895 O   0  0  0  0  0  0  0  0  0  0  0  0
    5.6745  -17.7507   -7.0467 C   0  0  2  0  0  0  0  0  0  0  0  0
    6.1022  -17.6164   -5.6271 N   0  0  0  0  0  0  0  0  0  0  0  0
    6.7371  -18.5878   -4.8947 C   0  0  0  0  0  0  0  0  0  0  0  0
    6.9742  -18.1203   -3.6487 N   0  0  0  0  0  0  0  0  0  0  0  0
    6.5118  -16.8619   -3.5660 C   0  0  0  0  0  0  0  0  0  0  0  0
    6.5099  -15.9372   -2.5329 C   0  0  0  0  0  0  0  0  0  0  0  0
    7.0414  -16.2451   -1.3572 N   0  0  0  0  0  0  0  0  0  0  0  0
    5.9541  -14.6912   -2.7453 N   0  0  0  0  0  0  0  0  0  0  0  0
    5.4027  -14.3519   -3.9744 C   0  0  0  0  0  0  0  0  0  0  0  0
    5.4190  -15.2833   -4.9926 N   0  0  0  0  0  0  0  0  0  0  0  0
    5.9568  -16.5226   -4.7975 C   0  0  0  0  0  0  0  0  0  0  0  0
  2  3  1  6  0  0  0
  2  6  1  0  0  0  0
  2  1  1  0  0  0  0
  4  3  2  0  0  0  0
  5  3  1  0  0  0  0
  6  7  2  0  0  0  0
  8  7  1  6  0  0  0
  8  9  1  0  0  0  0
  8 10  1  0  0  0  0
 11 10  1  1  0  0  0
 11 13  1  0  0  0  0
 12 11  1  0  0  0  0
 12 17  1  0  0  0  0
 13 14  1  6  0  0  0
 13 15  1  0  0  0  0
 15 16  1  6  0  0  0
 17 18  1  1  0  0  0
 17 15  1  0  0  0  0
 18 19  1  0  0  0  0
 20 19  2  0  0  0  0
 21 27  2  0  0  0  0
 21 20  1  0  0  0  0
 22 21  1  0  0  0  0
 23 22  1  0  0  0  0
 24 22  2  0  0  0  0
 24 25  1  0  0  0  0
 25 26  2  0  0  0  0
 26 27  1  0  0  0  0
 27 18  1  0  0  0  0
M  END
>  <CHROM.1>
-116.79100545,-125.61833600,-83.60251156,29.99947577,77.13279542,133.94606583
4.22096469,-16.88224059,-7.72472824,2.64317353,1.06893217,-2.51677891

>  <Name>
lig.pdb

>  <RI>
0

>  <Rbt.Current_Directory>
/home/itssahil/PROJECTS/Mol_Feturizer/New_Systems/rnas/4b5r

>  <Rbt.Executable>
rbdock ($Id: //depot/dev/client3/rdock/2013.1/src/exe/rbdock.cxx#4 $)

>  <Rbt.Library>
libRbt.so (2013.1, Build901 2013/11/27)

>  <Rbt.Parameter_File>
/export/apps/rDock/src/rDock_2013.1_src/data/scripts/dock_solv.prm

>  <Rbt.Receptor>
prm/pocket_docking_6.prm

>  <SCORE>
-15.6843

>  <SCORE.INTER>
-17.5199

>  <SCORE.INTER.CONST>
1

>  <SCORE.INTER.POLAR>
0

>  <SCORE.INTER.ROT>
6

>  <SCORE.INTER.SOLV>
16.473

>  <SCORE.INTER.VDW>
-24.7709

>  <SCORE.INTER.norm>
-0.648884

>  <SCORE.INTRA>
1.83558

>  <SCORE.INTRA.DIHEDRAL>
-0.220465

>  <SCORE.INTRA.DIHEDRAL.0>
10.2917

>  <SCORE.INTRA.POLAR>
0

>  <SCORE.INTRA.POLAR.0>
0

>  <SCORE.INTRA.REPUL>
0.110002

>  <SCORE.INTRA.REPUL.0>
0

>  <SCORE.INTRA.SOLV>
-2.93933

>  <SCORE.INTRA.SOLV.lig_0>
-39.6315

>  <SCORE.INTRA.VDW>
2.86547

>  <SCORE.INTRA.VDW.0>
-4.02152

>  <SCORE.INTRA.norm>
0.0679845

>  <SCORE.RESTR>
0

>  <SCORE.RESTR.CAVITY>
0

>  <SCORE.RESTR.norm>
0

>  <SCORE.SYSTEM>
0

>  <SCORE.SYSTEM.CONST>
0

>  <SCORE.SYSTEM.DIHEDRAL>
0

>  <SCORE.SYSTEM.SOLV>
0

>  <SCORE.SYSTEM.norm>
0

>  <SCORE.heavy>
27

>  <SCORE.norm>
-0.5809

>  <RMSD>
5.877

$$$$
lig.pdb
 OpenBabel11021811493D
libRbt.so/2013.1/901 2013/11/27
 27 29  0  0  0  0  0  0  0  0999 V2000
    6.1594  -13.6631  -11.3968 N   0  0  0  0  0  0  0  0  0  0  0  0
    6.0725  -13.7483  -12.8865 C   0  0  2  0  0  0  0  0  0  0  0  0
    5.7666  -12.3632  -13.4490 C   0  0  0  0  0  0  0  0  0  0  0  0
    5.4318  -11.4625  -12.6885 O   0  0  0  0  0  0  0  0  0  0  0  0
    5.8356  -12.0996  -14.6563 O   0  0  0  0  0  0  0  0  0  0  0  0
    5.0671  -14.8040  -13.3890 C   0  0  0  0  0  0  0  0  0  0  0  0
    4.5174  -15.8014  -12.3357 C   0  0  0  0  0  0  0  0  0  0  0  0
    3.3156  -17.0944  -12.8717 S   0  0  2  0  0  0  0  0  0  0  0  0
    1.8234  -16.1115  -13.1304 C   0  0  0  0  0  0  0  0  0  0  0  0
    2.8701  -17.9248  -11.3310 C   0  0  0  0  0  0  0  0  0  0  0  0
    4.0508  -18.7465  -10.8308 C   0  0  1  0  0  0  0  0  0  0  0  0
    5.1313  -17.9383  -10.3898 O   0  0  0  0  0  0  0  0  0  0  0  0
    3.7180  -19.5901   -9.6296 C   0  0  1  0  0  0  0  0  0  0  0  0
    3.0262  -20.7396  -10.0248 O   0  0  0  0  0  0  0  0  0  0  0  0
    5.1051  -19.8838   -9.1025 C   0  0  1  0  0  0  0  0  0  0  0  0
    5.6774  -20.9635   -9.8123 O   0  0  0  0  0  0  0  0  0  0  0  0
    5.8952  -18.6162   -9.4082 C   0  0  2  0  0  0  0  0  0  0  0  0
    6.1743  -17.7477   -8.2317 N   0  0  0  0  0  0  0  0  0  0  0  0
    6.2323  -16.3769   -8.2538 C   0  0  0  0  0  0  0  0  0  0  0  0
    6.5056  -15.9242   -7.0097 N   0  0  0  0  0  0  0  0  0  0  0  0
    6.6164  -16.9773   -6.1834 C   0  0  0  0  0  0  0  0  0  0  0  0
    6.8744  -17.0705   -4.8242 C   0  0  0  0  0  0  0  0  0  0  0  0
    7.0622  -15.9743   -4.1012 N   0  0  0  0  0  0  0  0  0  0  0  0
    6.9270  -18.3171   -4.2326 N   0  0  0  0  0  0  0  0  0  0  0  0
    6.7227  -19.4728   -4.9758 C   0  0  0  0  0  0  0  0  0  0  0  0
    6.4613  -19.3599   -6.3262 N   0  0  0  0  0  0  0  0  0  0  0  0
    6.4140  -18.1361   -6.9288 C   0  0  0  0  0  0  0  0  0  0  0  0
  2  3  1  1  0  0  0
  2  6  1  0  0  0  0
  2  1  1  0  0  0  0
  4  3  2  0  0  0  0
  5  3  1  0  0  0  0
  6  7  2  0  0  0  0
  8  7  1  1  0  0  0
  8  9  1  0  0  0  0
  8 10  1  0  0  0  0
 11 10  1  1  0  0  0
 11 13  1  0  0  0  0
 12 11  1  0  0  0  0
 12 17  1  0  0  0  0
 13 14  1  6  0  0  0
 13 15  1  0  0  0  0
 15 16  1  6  0  0  0
 17 18  1  1  0  0  0
 17 15  1  0  0  0  0
 18 19  1  0  0  0  0
 20 19  2  0  0  0  0
 21 27  2  0  0  0  0
 21 20  1  0  0  0  0
 22 21  1  0  0  0  0
 23 22  1  0  0  0  0
 24 22  2  0  0  0  0
 24 25  1  0  0  0  0
 25 26  2  0  0  0  0
 26 27  1  0  0  0  0
 27 18  1  0  0  0  0
M  END
>  <CHROM.1>
-11.34719450,-11.90108485,-73.00632116,-70.75966623,68.80064597,-26.25711965
5.25421790,-16.92525865,-9.80555307,-1.93375049,1.01433074,2.43632716

>  <Name>
lig.pdb

>  <RI>
0

>  <Rbt.Current_Directory>
/home/itssahil/PROJECTS/Mol_Feturizer/New_Systems/rnas/4b5r

>  <Rbt.Executable>
rbdock ($Id: //depot/dev/client3/rdock/2013.1/src/exe/rbdock.cxx#4 $)

>  <Rbt.Library>
libRbt.so (2013.1, Build901 2013/11/27)

>  <Rbt.Parameter_File>
/export/apps/rDock/src/rDock_2013.1_src/data/scripts/dock_solv.prm

>  <Rbt.Receptor>
prm/pocket_docking_6.prm

>  <SCORE>
-11.9537

>  <SCORE.INTER>
-11.5028

>  <SCORE.INTER.CONST>
1

>  <SCORE.INTER.POLAR>
0

>  <SCORE.INTER.ROT>
6

>  <SCORE.INTER.SOLV>
11.7639

>  <SCORE.INTER.VDW>
-19.1898

>  <SCORE.INTER.norm>
-0.42603

>  <SCORE.INTRA>
-0.450919

>  <SCORE.INTRA.DIHEDRAL>
-2.42924

>  <SCORE.INTRA.DIHEDRAL.0>
10.2917

>  <SCORE.INTRA.POLAR>
0

>  <SCORE.INTRA.POLAR.0>
0

>  <SCORE.INTRA.REPUL>
0

>  <SCORE.INTRA.REPUL.0>
0

>  <SCORE.INTRA.SOLV>
-2.02855

>  <SCORE.INTRA.SOLV.lig_0>
-39.6315

>  <SCORE.INTRA.VDW>
1.77797

>  <SCORE.INTRA.VDW.0>
-4.02152

>  <SCORE.INTRA.norm>
-0.0167007

>  <SCORE.RESTR>
0

>  <SCORE.RESTR.CAVITY>
0

>  <SCORE.RESTR.norm>
0

>  <SCORE.SYSTEM>
0

>  <SCORE.SYSTEM.CONST>
0

>  <SCORE.SYSTEM.DIHEDRAL>
0

>  <SCORE.SYSTEM.SOLV>
0

>  <SCORE.SYSTEM.norm>
0

>  <SCORE.heavy>
27

>  <SCORE.norm>
-0.44273

>  <RMSD>
5.887

$$$$
lig.pdb
 OpenBabel11021811493D
libRbt.so/2013.1/901 2013/11/27
 27 29  0  0  0  0  0  0  0  0999 V2000
    5.9578  -13.9383  -11.2850 N   0  0  0  0  0  0  0  0  0  0  0  0
    6.9303  -14.5931  -10.3580 C   0  0  2  0  0  0  0  0  0  0  0  0
    7.7644  -15.6028  -11.1409 C   0  0  0  0  0  0  0  0  0  0  0  0
    8.0820  -15.3563  -12.2985 O   0  0  0  0  0  0  0  0  0  0  0  0
    8.1389  -16.6798  -10.6596 O   0  0  0  0  0  0  0  0  0  0  0  0
    6.2709  -15.2339   -9.1201 C   0  0  0  0  0  0  0  0  0  0  0  0
    4.9504  -16.0129   -9.3573 C   0  0  0  0  0  0  0  0  0  0  0  0
    4.1060  -16.7987   -7.9175 S   0  0  2  0  0  0  0  0  0  0  0  0
    2.3713  -16.6525   -8.3960 C   0  0  0  0  0  0  0  0  0  0  0  0
    4.1772  -15.5266   -6.6375 C   0  0  0  0  0  0  0  0  0  0  0  0
    5.1951  -15.9229   -5.5762 C   0  0  1  0  0  0  0  0  0  0  0  0
    5.1166  -17.2974   -5.2300 O   0  0  0  0  0  0  0  0  0  0  0  0
    6.6199  -15.7456   -6.0276 C   0  0  1  0  0  0  0  0  0  0  0  0
    6.9880  -14.3989   -5.9436 O   0  0  0  0  0  0  0  0  0  0  0  0
    7.3402  -16.6214   -5.0264 C   0  0  1  0  0  0  0  0  0  0  0  0
    7.5423  -15.9160   -3.8187 O   0  0  0  0  0  0  0  0  0  0  0  0
    6.3710  -17.7705   -4.7724 C   0  0  2  0  0  0  0  0  0  0  0  0
    6.7402  -19.0612   -5.4158 N   0  0  0  0  0  0  0  0  0  0  0  0
    7.2698  -20.1480   -4.7667 C   0  0  0  0  0  0  0  0  0  0  0  0
    7.4794  -21.1401   -5.6607 N   0  0  0  0  0  0  0  0  0  0  0  0
    7.0867  -20.7166   -6.8733 C   0  0  0  0  0  0  0  0  0  0  0  0
    7.0757  -21.3325   -8.1155 C   0  0  0  0  0  0  0  0  0  0  0  0
    7.5114  -22.5782   -8.2497 N   0  0  0  0  0  0  0  0  0  0  0  0
    6.6001  -20.6355   -9.2086 N   0  0  0  0  0  0  0  0  0  0  0  0
    6.1317  -19.3340   -9.0809 C   0  0  0  0  0  0  0  0  0  0  0  0
    6.1450  -18.7395   -7.8355 N   0  0  0  0  0  0  0  0  0  0  0  0
    6.6194  -19.4109   -6.7458 C   0  0  0  0  0  0  0  0  0  0  0  0
  2  3  1  6  0  0  0
  2  6  1  0  0  0  0
  2  1  1  0  0  0  0
  4  3  2  0  0  0  0
  5  3  1  0  0  0  0
  6  7  2  0  0  0  0
  8  7  1  6  0  0  0
  8  9  1  0  0  0  0
  8 10  1  0  0  0  0
 11 10  1  6  0  0  0
 11 13  1  0  0  0  0
 12 11  1  0  0  0  0
 12 17  1  0  0  0  0
 13 14  1  1  0  0  0
 13 15  1  0  0  0  0
 15 16  1  1  0  0  0
 17 18  1  6  0  0  0
 17 15  1  0  0  0  0
 18 19  1  0  0  0  0
 20 19  2  0  0  0  0
 21 27  2  0  0  0  0
 21 20  1  0  0  0  0
 22 21  1  0  0  0  0
 23 22  1  0  0  0  0
 24 22  2  0  0  0  0
 24 25  1  0  0  0  0
 25 26  2  0  0  0  0
 26 27  1  0  0  0  0
 27 18  1  0  0  0  0
M  END
>  <CHROM.1>
35.77618442,41.82651075,147.29212920,-107.12709745,-42.46362280,-136.00328764
6.28134648,-17.42835635,-7.62612789,-1.88469834,-1.29037778,2.12735849

>  <Name>
lig.pdb

>  <RI>
0

>  <Rbt.Current_Directory>
/home/itssahil/PROJECTS/Mol_Feturizer/New_Systems/rnas/4b5r

>  <Rbt.Executable>
rbdock ($Id: //depot/dev/client3/rdock/2013.1/src/exe/rbdock.cxx#4 $)

>  <Rbt.Library>
libRbt.so (2013.1, Build901 2013/11/27)

>  <Rbt.Parameter_File>
/export/apps/rDock/src/rDock_2013.1_src/data/scripts/dock_solv.prm

>  <Rbt.Receptor>
prm/pocket_docking_7.prm

>  <SCORE>
-9.44425

>  <SCORE.INTER>
-10.1886

>  <SCORE.INTER.CONST>
1

>  <SCORE.INTER.POLAR>
0

>  <SCORE.INTER.ROT>
6

>  <SCORE.INTER.SOLV>
8.28636

>  <SCORE.INTER.VDW>
-17.1545

>  <SCORE.INTER.norm>
-0.377355

>  <SCORE.INTRA>
0.743282

>  <SCORE.INTRA.DIHEDRAL>
2.88144

>  <SCORE.INTRA.DIHEDRAL.0>
10.2917

>  <SCORE.INTRA.POLAR>
0

>  <SCORE.INTRA.POLAR.0>
0

>  <SCORE.INTRA.REPUL>
0

>  <SCORE.INTRA.REPUL.0>
0

>  <SCORE.INTRA.SOLV>
-1.14232

>  <SCORE.INTRA.SOLV.lig_0>
-39.6315

>  <SCORE.INTRA.VDW>
-0.126279

>  <SCORE.INTRA.VDW.0>
-4.02152

>  <SCORE.INTRA.norm>
0.027529

>  <SCORE.RESTR>
0.00105195

>  <SCORE.RESTR.CAVITY>
0.00105195

>  <SCORE.RESTR.norm>
3.89611e-05

>  <SCORE.SYSTEM>
0

>  <SCORE.SYSTEM.CONST>
0

>  <SCORE.SYSTEM.DIHEDRAL>
0

>  <SCORE.SYSTEM.SOLV>
0

>  <SCORE.SYSTEM.norm>
0

>  <SCORE.heavy>
27

>  <SCORE.norm>
-0.349787

>  <RMSD>
5.894

$$$$
lig.pdb
 OpenBabel11021811493D
libRbt.so/2013.1/901 2013/11/27
 27 29  0  0  0  0  0  0  0  0999 V2000
    2.4934  -17.6183  -11.1874 N   0  0  0  0  0  0  0  0  0  0  0  0
    1.4235  -16.5967  -10.9737 C   0  0  2  0  0  0  0  0  0  0  0  0
    1.5047  -15.5495  -12.0806 C   0  0  0  0  0  0  0  0  0  0  0  0
    1.3980  -15.8974  -13.2508 O   0  0  0  0  0  0  0  0  0  0  0  0
    1.6811  -14.3458  -11.8531 O   0  0  0  0  0  0  0  0  0  0  0  0
    1.4537  -15.9517   -9.5734 C   0  0  0  0  0  0  0  0  0  0  0  0
    2.7143  -16.2179   -8.7093 C   0  0  0  0  0  0  0  0  0  0  0  0
    2.8117  -15.4809   -7.0208 S   0  0  2  0  0  0  0  0  0  0  0  0
    2.6477  -13.7209   -7.3880 C   0  0  0  0  0  0  0  0  0  0  0  0
    4.5736  -15.5476   -6.6295 C   0  0  0  0  0  0  0  0  0  0  0  0
    4.9446  -16.9515   -6.1703 C   0  0  1  0  0  0  0  0  0  0  0  0
    4.5579  -17.9510   -7.1013 O   0  0  0  0  0  0  0  0  0  0  0  0
    6.4288  -17.1524   -6.0214 C   0  0  1  0  0  0  0  0  0  0  0  0
    6.8727  -16.5922   -4.8193 O   0  0  0  0  0  0  0  0  0  0  0  0
    6.5084  -18.6630   -6.0374 C   0  0  1  0  0  0  0  0  0  0  0  0
    6.2206  -19.1795   -4.7540 O   0  0  0  0  0  0  0  0  0  0  0  0
    5.4030  -19.0834   -6.9996 C   0  0  2  0  0  0  0  0  0  0  0  0
    5.8708  -19.5426   -8.3362 N   0  0  0  0  0  0  0  0  0  0  0  0
    5.4538  -19.0337   -9.5404 C   0  0  0  0  0  0  0  0  0  0  0  0
    6.0861  -19.6866  -10.5410 N   0  0  0  0  0  0  0  0  0  0  0  0
    6.9101  -20.6016  -10.0045 C   0  0  0  0  0  0  0  0  0  0  0  0
    7.7823  -21.5164  -10.5745 C   0  0  0  0  0  0  0  0  0  0  0  0
    7.9101  -21.5886  -11.8929 N   0  0  0  0  0  0  0  0  0  0  0  0
    8.5197  -22.3459   -9.7531 N   0  0  0  0  0  0  0  0  0  0  0  0
    8.4031  -22.2746   -8.3707 C   0  0  0  0  0  0  0  0  0  0  0  0
    7.5342  -21.3539   -7.8213 N   0  0  0  0  0  0  0  0  0  0  0  0
    6.7913  -20.5319   -8.6186 C   0  0  0  0  0  0  0  0  0  0  0  0
  2  3  1  6  0  0  0
  2  6  1  0  0  0  0
  2  1  1  0  0  0  0
  4  3  2  0  0  0  0
  5  3  1  0  0  0  0
  6  7  2  0  0  0  0
  8  7  1  6  0  0  0
  8  9  1  0  0  0  0
  8 10  1  0  0  0  0
 11 10  1  6  0  0  0
 11 13  1  0  0  0  0
 12 11  1  0  0  0  0
 12 17  1  0  0  0  0
 13 14  1  1  0  0  0
 13 15  1  0  0  0  0
 15 16  1  1  0  0  0
 17 18  1  6  0  0  0
 17 15  1  0  0  0  0
 18 19  1  0  0  0  0
 20 19  2  0  0  0  0
 21 27  2  0  0  0  0
 21 20  1  0  0  0  0
 22 21  1  0  0  0  0
 23 22  1  0  0  0  0
 24 22  2  0  0  0  0
 24 25  1  0  0  0  0
 25 26  2  0  0  0  0
 26 27  1  0  0  0  0
 27 18  1  0  0  0  0
M  END
>  <CHROM.1>
58.48199842,11.96616219,-58.31026179,-80.01917597,53.93860779,-5.81752995
4.85762610,-17.98831989,-8.63210461,3.00553549,-0.79737383,1.14249379

>  <Name>
lig.pdb

>  <RI>
0

>  <Rbt.Current_Directory>
/home/itssahil/PROJECTS/Mol_Feturizer/New_Systems/rnas/4b5r

>  <Rbt.Executable>
rbdock ($Id: //depot/dev/client3/rdock/2013.1/src/exe/rbdock.cxx#4 $)

>  <Rbt.Library>
libRbt.so (2013.1, Build901 2013/11/27)

>  <Rbt.Parameter_File>
/export/apps/rDock/src/rDock_2013.1_src/data/scripts/dock_solv.prm

>  <Rbt.Receptor>
prm/pocket_docking_8.prm

>  <SCORE>
-12.9585

>  <SCORE.INTER>
-12.5547

>  <SCORE.INTER.CONST>
1

>  <SCORE.INTER.POLAR>
0

>  <SCORE.INTER.ROT>
6

>  <SCORE.INTER.SOLV>
11.7335

>  <SCORE.INTER.VDW>
-19.8809

>  <SCORE.INTER.norm>
-0.464987

>  <SCORE.INTRA>
-0.403868

>  <SCORE.INTRA.DIHEDRAL>
-2.48797

>  <SCORE.INTRA.DIHEDRAL.0>
10.2917

>  <SCORE.INTRA.POLAR>
0

>  <SCORE.INTRA.POLAR.0>
0

>  <SCORE.INTRA.REPUL>
0

>  <SCORE.INTRA.REPUL.0>
0

>  <SCORE.INTRA.SOLV>
-1.89523

>  <SCORE.INTRA.SOLV.lig_0>
-39.6315

>  <SCORE.INTRA.VDW>
1.78773

>  <SCORE.INTRA.VDW.0>
-4.02152

>  <SCORE.INTRA.norm>
-0.0149581

>  <SCORE.RESTR>
0

>  <SCORE.RESTR.CAVITY>
0

>  <SCORE.RESTR.norm>
0

>  <SCORE.SYSTEM>
0

>  <SCORE.SYSTEM.CONST>
0

>  <SCORE.SYSTEM.DIHEDRAL>
0

>  <SCORE.SYSTEM.SOLV>
0

>  <SCORE.SYSTEM.norm>
0

>  <SCORE.heavy>
27

>  <SCORE.norm>
-0.479945

>  <RMSD>
5.908

$$$$
lig.pdb
 OpenBabel11021811493D
libRbt.so/2013.1/901 2013/11/27
 27 29  0  0  0  0  0  0  0  0999 V2000
    3.6138  -15.6934  -13.6128 N   0  0  0  0  0  0  0  0  0  0  0  0
    3.0487  -14.9432  -12.4501 C   0  0  2  0  0  0  0  0  0  0  0  0
    3.9838  -13.7901  -12.0977 C   0  0  0  0  0  0  0  0  0  0  0  0
    4.6372  -13.2498  -12.9824 O   0  0  0  0  0  0  0  0  0  0  0  0
    4.1224  -13.3684  -10.9424 O   0  0  0  0  0  0  0  0  0  0  0  0
    2.7503  -15.8317  -11.2256 C   0  0  0  0  0  0  0  0  0  0  0  0
    1.3020  -15.7923  -10.6710 C   0  0  0  0  0  0  0  0  0  0  0  0
    0.8793  -16.8268   -9.2031 S   0  0  2  0  0  0  0  0  0  0  0  0
   -0.5591  -15.9521   -8.5506 C   0  0  0  0  0  0  0  0  0  0  0  0
    2.1122  -16.3446   -7.9746 C   0  0  0  0  0  0  0  0  0  0  0  0
    3.4018  -17.1199   -8.2100 C   0  0  1  0  0  0  0  0  0  0  0  0
    4.5168  -16.5386   -7.5512 O   0  0  0  0  0  0  0  0  0  0  0  0
    3.3552  -18.5237   -7.6691 C   0  0  1  0  0  0  0  0  0  0  0  0
    2.6433  -19.3529   -8.5418 O   0  0  0  0  0  0  0  0  0  0  0  0
    4.8313  -18.8495   -7.6125 C   0  0  1  0  0  0  0  0  0  0  0  0
    5.2886  -19.2606   -8.8848 O   0  0  0  0  0  0  0  0  0  0  0  0
    5.4914  -17.5227   -7.2542 C   0  0  2  0  0  0  0  0  0  0  0  0
    5.9708  -17.4158   -5.8488 N   0  0  0  0  0  0  0  0  0  0  0  0
    6.7062  -18.3667   -5.1871 C   0  0  0  0  0  0  0  0  0  0  0  0
    6.9637  -17.9348   -3.9323 N   0  0  0  0  0  0  0  0  0  0  0  0
    6.4155  -16.7188   -3.7748 C   0  0  0  0  0  0  0  0  0  0  0  0
    6.3923  -15.8403   -2.7024 C   0  0  0  0  0  0  0  0  0  0  0  0
    6.9962  -16.1562   -1.5643 N   0  0  0  0  0  0  0  0  0  0  0  0
    5.7387  -14.6313   -2.8361 N   0  0  0  0  0  0  0  0  0  0  0  0
    5.1103  -14.2834   -4.0251 C   0  0  0  0  0  0  0  0  0  0  0  0
    5.1489  -15.1682   -5.0836 N   0  0  0  0  0  0  0  0  0  0  0  0
    5.7833  -16.3710   -4.9661 C   0  0  0  0  0  0  0  0  0  0  0  0
  2  3  1  1  0  0  0
  2  6  1  0  0  0  0
  2  1  1  0  0  0  0
  4  3  2  0  0  0  0
  5  3  1  0  0  0  0
  6  7  2  0  0  0  0
  8  7  1  6  0  0  0
  8  9  1  0  0  0  0
  8 10  1  0  0  0  0
 11 10  1  1  0  0  0
 11 13  1  0  0  0  0
 12 11  1  0  0  0  0
 12 17  1  0  0  0  0
 13 14  1  6  0  0  0
 13 15  1  0  0  0  0
 15 16  1  6  0  0  0
 17 18  1  1  0  0  0
 17 15  1  0  0  0  0
 18 19  1  0  0  0  0
 20 19  2  0  0  0  0
 21 27  2  0  0  0  0
 21 20  1  0  0  0  0
 22 21  1  0  0  0  0
 23 22  1  0  0  0  0
 24 22  2  0  0  0  0
 24 25  1  0  0  0  0
 25 26  2  0  0  0  0
 26 27  1  0  0  0  0
 27 18  1  0  0  0  0
M  END
>  <CHROM.1>
31.16186229,-124.48232356,156.95698449,-83.04575727,163.10979724,166.62350140
4.12632662,-16.38871386,-7.75798662,-2.25856551,0.85565790,2.27352824

>  <Name>
lig.pdb

>  <RI>
0

>  <Rbt.Current_Directory>
/home/itssahil/PROJECTS/Mol_Feturizer/New_Systems/rnas/4b5r

>  <Rbt.Executable>
rbdock ($Id: //depot/dev/client3/rdock/2013.1/src/exe/rbdock.cxx#4 $)

>  <Rbt.Library>
libRbt.so (2013.1, Build901 2013/11/27)

>  <Rbt.Parameter_File>
/export/apps/rDock/src/rDock_2013.1_src/data/scripts/dock_solv.prm

>  <Rbt.Receptor>
prm/pocket_docking_7.prm

>  <SCORE>
-17.5663

>  <SCORE.INTER>
-17.6765

>  <SCORE.INTER.CONST>
1

>  <SCORE.INTER.POLAR>
0

>  <SCORE.INTER.ROT>
6

>  <SCORE.INTER.SOLV>
14.1691

>  <SCORE.INTER.VDW>
-24.1073

>  <SCORE.INTER.norm>
-0.654684

>  <SCORE.INTRA>
0.110146

>  <SCORE.INTRA.DIHEDRAL>
-1.72957

>  <SCORE.INTRA.DIHEDRAL.0>
10.2917

>  <SCORE.INTRA.POLAR>
0

>  <SCORE.INTRA.POLAR.0>
0

>  <SCORE.INTRA.REPUL>
0.220745

>  <SCORE.INTRA.REPUL.0>
0

>  <SCORE.INTRA.SOLV>
-2.9082

>  <SCORE.INTRA.SOLV.lig_0>
-39.6315

>  <SCORE.INTRA.VDW>
1.32531

>  <SCORE.INTRA.VDW.0>
-4.02152

>  <SCORE.INTRA.norm>
0.00407947

>  <SCORE.RESTR>
0

>  <SCORE.RESTR.CAVITY>
0

>  <SCORE.RESTR.norm>
0

>  <SCORE.SYSTEM>
0

>  <SCORE.SYSTEM.CONST>
0

>  <SCORE.SYSTEM.DIHEDRAL>
0

>  <SCORE.SYSTEM.SOLV>
0

>  <SCORE.SYSTEM.norm>
0

>  <SCORE.heavy>
27

>  <SCORE.norm>
-0.650605

>  <RMSD>
5.910

$$$$
lig.pdb
 OpenBabel11021811493D
libRbt.so/2013.1/901 2013/11/27
 27 29  0  0  0  0  0  0  0  0999 V2000
    8.5315  -13.0074  -13.8897 N   0  0  0  0  0  0  0  0  0  0  0  0
    7.4387  -13.3618  -12.9335 C   0  0  2  0  0  0  0  0  0  0  0  0
    6.9786  -12.0992  -12.2107 C   0  0  0  0  0  0  0  0  0  0  0  0
    7.3607  -11.8847  -11.0663 O   0  0  0  0  0  0  0  0  0  0  0  0
    6.2214  -11.2684  -12.7286 O   0  0  0  0  0  0  0  0  0  0  0  0
    7.8208  -14.4803  -11.9432 C   0  0  0  0  0  0  0  0  0  0  0  0
    6.7290  -15.5363  -11.6277 C   0  0  0  0  0  0  0  0  0  0  0  0
    7.1184  -16.8980  -10.4456 S   0  0  2  0  0  0  0  0  0  0  0  0
    7.1917  -18.3229  -11.5519 C   0  0  0  0  0  0  0  0  0  0  0  0
    5.5371  -17.2223   -9.6356 C   0  0  0  0  0  0  0  0  0  0  0  0
    5.6807  -18.4018   -8.6829 C   0  0  1  0  0  0  0  0  0  0  0  0
    6.6305  -18.1618   -7.6555 O   0  0  0  0  0  0  0  0  0  0  0  0
    4.4128  -18.7163   -7.9354 C   0  0  1  0  0  0  0  0  0  0  0  0
    3.5329  -19.4280   -8.7571 O   0  0  0  0  0  0  0  0  0  0  0  0
    4.9605  -19.5446   -6.7942 C   0  0  1  0  0  0  0  0  0  0  0  0
    5.1511  -20.8815   -7.2103 O   0  0  0  0  0  0  0  0  0  0  0  0
    6.3194  -18.9192   -6.4996 C   0  0  2  0  0  0  0  0  0  0  0  0
    6.3774  -18.0887   -5.2655 N   0  0  0  0  0  0  0  0  0  0  0  0
    6.9056  -18.4892   -4.0640 C   0  0  0  0  0  0  0  0  0  0  0  0
    6.7900  -17.4816   -3.1703 N   0  0  0  0  0  0  0  0  0  0  0  0
    6.2048  -16.4349   -3.7755 C   0  0  0  0  0  0  0  0  0  0  0  0
    5.8666  -15.1685   -3.3234 C   0  0  0  0  0  0  0  0  0  0  0  0
    6.1254  -14.8125   -2.0721 N   0  0  0  0  0  0  0  0  0  0  0  0
    5.2635  -14.2817   -4.1932 N   0  0  0  0  0  0  0  0  0  0  0  0
    4.9955  -14.6378   -5.5090 C   0  0  0  0  0  0  0  0  0  0  0  0
    5.3446  -15.9006   -5.9425 N   0  0  0  0  0  0  0  0  0  0  0  0
    5.9338  -16.7927   -5.0938 C   0  0  0  0  0  0  0  0  0  0  0  0
  2  3  1  1  0  0  0
  2  6  1  0  0  0  0
  2  1  1  0  0  0  0
  4  3  2  0  0  0  0
  5  3  1  0  0  0  0
  6  7  2  0  0  0  0
  8  7  1  6  0  0  0
  8  9  1  0  0  0  0
  8 10  1  0  0  0  0
 11 10  1  6  0  0  0
 11 13  1  0  0  0  0
 12 11  1  0  0  0  0
 12 17  1  0  0  0  0
 13 14  1  6  0  0  0
 13 15  1  0  0  0  0
 15 16  1  6  0  0  0
 17 18  1  1  0  0  0
 17 15  1  0  0  0  0
 18 19  1  0  0  0  0
 20 19  2  0  0  0  0
 21 27  2  0  0  0  0
 21 20  1  0  0  0  0
 22 21  1  0  0  0  0
 23 22  1  0  0  0  0
 24 22  2  0  0  0  0
 24 25  1  0  0  0  0
 25 26  2  0  0  0  0
 26 27  1  0  0  0  0
 27 18  1  0  0  0  0
M  END
>  <CHROM.1>
-101.68667086,-139.86939625,-109.61703338,176.27437443,61.00203985,-139.01637343
6.23555325,-16.34848640,-8.11656256,-0.54172761,1.37462606,1.01893863

>  <Name>
lig.pdb

>  <RI>
0

>  <Rbt.Current_Directory>
/home/itssahil/PROJECTS/Mol_Feturizer/New_Systems/rnas/4b5r

>  <Rbt.Executable>
rbdock ($Id: //depot/dev/client3/rdock/2013.1/src/exe/rbdock.cxx#4 $)

>  <Rbt.Library>
libRbt.so (2013.1, Build901 2013/11/27)

>  <Rbt.Parameter_File>
/export/apps/rDock/src/rDock_2013.1_src/data/scripts/dock_solv.prm

>  <Rbt.Receptor>
prm/blind_docking_40.prm

>  <SCORE>
-14.0385

>  <SCORE.INTER>
-13.4285

>  <SCORE.INTER.CONST>
1

>  <SCORE.INTER.POLAR>
0

>  <SCORE.INTER.ROT>
6

>  <SCORE.INTER.SOLV>
13.4425

>  <SCORE.INTER.VDW>
-21.0331

>  <SCORE.INTER.norm>
-0.497351

>  <SCORE.INTRA>
-0.609993

>  <SCORE.INTRA.DIHEDRAL>
-1.23706

>  <SCORE.INTRA.DIHEDRAL.0>
10.2917

>  <SCORE.INTRA.POLAR>
0

>  <SCORE.INTRA.POLAR.0>
0

>  <SCORE.INTRA.REPUL>
0

>  <SCORE.INTRA.REPUL.0>
0

>  <SCORE.INTRA.SOLV>
-2.68445

>  <SCORE.INTRA.SOLV.lig_0>
-39.6315

>  <SCORE.INTRA.VDW>
1.35076

>  <SCORE.INTRA.VDW.0>
-4.02152

>  <SCORE.INTRA.norm>
-0.0225923

>  <SCORE.RESTR>
0

>  <SCORE.RESTR.CAVITY>
0

>  <SCORE.RESTR.norm>
0

>  <SCORE.SYSTEM>
0

>  <SCORE.SYSTEM.CONST>
0

>  <SCORE.SYSTEM.DIHEDRAL>
0

>  <SCORE.SYSTEM.SOLV>
0

>  <SCORE.SYSTEM.norm>
0

>  <SCORE.heavy>
27

>  <SCORE.norm>
-0.519944

>  <RMSD>
5.927

$$$$
lig.pdb
 OpenBabel11021811493D
libRbt.so/2013.1/901 2013/11/27
 27 29  0  0  0  0  0  0  0  0999 V2000
    4.6308  -19.7847   -7.3353 N   0  0  0  0  0  0  0  0  0  0  0  0
    6.0836  -19.5225   -7.1018 C   0  0  2  0  0  0  0  0  0  0  0  0
    6.5039  -20.1746   -5.7878 C   0  0  0  0  0  0  0  0  0  0  0  0
    7.3039  -21.1028   -5.8024 O   0  0  0  0  0  0  0  0  0  0  0  0
    6.0663  -19.8108   -4.6888 O   0  0  0  0  0  0  0  0  0  0  0  0
    6.4577  -18.0272   -7.1431 C   0  0  0  0  0  0  0  0  0  0  0  0
    5.2831  -17.0145   -7.1799 C   0  0  0  0  0  0  0  0  0  0  0  0
    5.6612  -15.2097   -7.2368 S   0  0  2  0  0  0  0  0  0  0  0  0
    6.9538  -15.0746   -5.9837 C   0  0  0  0  0  0  0  0  0  0  0  0
    4.2860  -14.4593   -6.3381 C   0  0  0  0  0  0  0  0  0  0  0  0
    3.0764  -14.3414   -7.2559 C   0  0  1  0  0  0  0  0  0  0  0  0
    3.3141  -13.4897   -8.3665 O   0  0  0  0  0  0  0  0  0  0  0  0
    2.6805  -15.6507   -7.8840 C   0  0  1  0  0  0  0  0  0  0  0  0
    1.9666  -16.4287   -6.9670 O   0  0  0  0  0  0  0  0  0  0  0  0
    1.8307  -15.1614   -9.0358 C   0  0  1  0  0  0  0  0  0  0  0  0
    0.5203  -14.8787   -8.5886 O   0  0  0  0  0  0  0  0  0  0  0  0
    2.4991  -13.8598   -9.4644 C   0  0  2  0  0  0  0  0  0  0  0  0
    3.2815  -13.9389  -10.7285 N   0  0  0  0  0  0  0  0  0  0  0  0
    4.4735  -13.3014  -10.9646 C   0  0  0  0  0  0  0  0  0  0  0  0
    4.8961  -13.5990  -12.2137 N   0  0  0  0  0  0  0  0  0  0  0  0
    4.0032  -14.4240  -12.7848 C   0  0  0  0  0  0  0  0  0  0  0  0
    3.9597  -15.0285  -14.0319 C   0  0  0  0  0  0  0  0  0  0  0  0
    4.9339  -14.8260  -14.9091 N   0  0  0  0  0  0  0  0  0  0  0  0
    2.8937  -15.8480  -14.3462 N   0  0  0  0  0  0  0  0  0  0  0  0
    1.8714  -16.0767  -13.4339 C   0  0  0  0  0  0  0  0  0  0  0  0
    1.9349  -15.4710  -12.1954 N   0  0  0  0  0  0  0  0  0  0  0  0
    2.9771  -14.6513  -11.8711 C   0  0  0  0  0  0  0  0  0  0  0  0
  2  3  1  1  0  0  0
  2  6  1  0  0  0  0
  2  1  1  0  0  0  0
  4  3  2  0  0  0  0
  5  3  1  0  0  0  0
  6  7  2  0  0  0  0
  8  7  1  1  0  0  0
  8  9  1  0  0  0  0
  8 10  1  0  0  0  0
 11 10  1  6  0  0  0
 11 13  1  0  0  0  0
 12 11  1  0  0  0  0
 12 17  1  0  0  0  0
 13 14  1  1  0  0  0
 13 15  1  0  0  0  0
 15 16  1  1  0  0  0
 17 18  1  6  0  0  0
 17 15  1  0  0  0  0
 18 19  1  0  0  0  0
 20 19  2  0  0  0  0
 21 27  2  0  0  0  0
 21 20  1  0  0  0  0
 22 21  1  0  0  0  0
 23 22  1  0  0  0  0
 24 22  2  0  0  0  0
 24 25  1  0  0  0  0
 25 26  2  0  0  0  0
 26 27  1  0  0  0  0
 27 18  1  0  0  0  0
M  END
>  <CHROM.1>
114.31033836,9.75948072,-45.04603487,-80.71243369,-62.79775238,-22.33504435
4.16149141,-15.96102466,-9.05510720,-0.87929923,0.99952172,-1.62281119

>  <Name>
lig.pdb

>  <RI>
0

>  <Rbt.Current_Directory>
/home/itssahil/PROJECTS/Mol_Feturizer/New_Systems/rnas/4b5r

>  <Rbt.Executable>
rbdock ($Id: //depot/dev/client3/rdock/2013.1/src/exe/rbdock.cxx#4 $)

>  <Rbt.Library>
libRbt.so (2013.1, Build901 2013/11/27)

>  <Rbt.Parameter_File>
/export/apps/rDock/src/rDock_2013.1_src/data/scripts/dock_solv.prm

>  <Rbt.Receptor>
prm/blind_docking_60.prm

>  <SCORE>
-14.7176

>  <SCORE.INTER>
-14.1112

>  <SCORE.INTER.CONST>
1

>  <SCORE.INTER.POLAR>
0

>  <SCORE.INTER.ROT>
6

>  <SCORE.INTER.SOLV>
12.4458

>  <SCORE.INTER.VDW>
-21.1561

>  <SCORE.INTER.norm>
-0.522638

>  <SCORE.INTRA>
-0.606426

>  <SCORE.INTRA.DIHEDRAL>
-2.82822

>  <SCORE.INTRA.DIHEDRAL.0>
10.2917

>  <SCORE.INTRA.POLAR>
0

>  <SCORE.INTRA.POLAR.0>
0

>  <SCORE.INTRA.REPUL>
0

>  <SCORE.INTRA.REPUL.0>
0

>  <SCORE.INTRA.SOLV>
-2.22395

>  <SCORE.INTRA.SOLV.lig_0>
-39.6315

>  <SCORE.INTRA.VDW>
1.91966

>  <SCORE.INTRA.VDW.0>
-4.02152

>  <SCORE.INTRA.norm>
-0.0224602

>  <SCORE.RESTR>
0

>  <SCORE.RESTR.CAVITY>
0

>  <SCORE.RESTR.norm>
0

>  <SCORE.SYSTEM>
0

>  <SCORE.SYSTEM.CONST>
0

>  <SCORE.SYSTEM.DIHEDRAL>
0

>  <SCORE.SYSTEM.SOLV>
0

>  <SCORE.SYSTEM.norm>
0

>  <SCORE.heavy>
27

>  <SCORE.norm>
-0.545098

>  <RMSD>
5.935

$$$$
lig.pdb
 OpenBabel11021811493D
libRbt.so/2013.1/901 2013/11/27
 27 29  0  0  0  0  0  0  0  0999 V2000
   -0.0732  -17.6630   -8.7138 N   0  0  0  0  0  0  0  0  0  0  0  0
    0.4143  -16.6904   -9.7386 C   0  0  2  0  0  0  0  0  0  0  0  0
    1.3594  -17.4076  -10.6981 C   0  0  0  0  0  0  0  0  0  0  0  0
    1.2436  -17.2313  -11.9052 O   0  0  0  0  0  0  0  0  0  0  0  0
    2.2497  -18.1763  -10.3128 O   0  0  0  0  0  0  0  0  0  0  0  0
    1.0622  -15.4277   -9.1355 C   0  0  0  0  0  0  0  0  0  0  0  0
    1.4300  -15.4833   -7.6294 C   0  0  0  0  0  0  0  0  0  0  0  0
    2.2024  -14.0038   -6.8433 S   0  0  2  0  0  0  0  0  0  0  0  0
    1.2161  -12.6667   -7.5498 C   0  0  0  0  0  0  0  0  0  0  0  0
    3.7330  -13.7784   -7.7751 C   0  0  0  0  0  0  0  0  0  0  0  0
    4.6148  -15.0103   -7.6193 C   0  0  1  0  0  0  0  0  0  0  0  0
    4.8186  -15.6951   -8.8460 O   0  0  0  0  0  0  0  0  0  0  0  0
    6.0082  -14.6852   -7.1522 C   0  0  1  0  0  0  0  0  0  0  0  0
    6.0120  -14.4515   -5.7733 O   0  0  0  0  0  0  0  0  0  0  0  0
    6.7354  -15.9533   -7.5414 C   0  0  1  0  0  0  0  0  0  0  0  0
    6.5421  -16.9475   -6.5560 O   0  0  0  0  0  0  0  0  0  0  0  0
    6.0506  -16.3940   -8.8303 C   0  0  2  0  0  0  0  0  0  0  0  0
    6.8338  -16.1565  -10.0738 N   0  0  0  0  0  0  0  0  0  0  0  0
    7.5027  -17.1200  -10.7860 C   0  0  0  0  0  0  0  0  0  0  0  0
    8.1008  -16.5471  -11.8544 N   0  0  0  0  0  0  0  0  0  0  0  0
    7.8230  -15.2330  -11.8496 C   0  0  0  0  0  0  0  0  0  0  0  0
    8.1747  -14.2044  -12.7104 C   0  0  0  0  0  0  0  0  0  0  0  0
    8.9249  -14.4498  -13.7765 N   0  0  0  0  0  0  0  0  0  0  0  0
    7.7293  -12.9241  -12.4473 N   0  0  0  0  0  0  0  0  0  0  0  0
    6.9350  -12.6544  -11.3399 C   0  0  0  0  0  0  0  0  0  0  0  0
    6.5904  -13.6920  -10.4978 N   0  0  0  0  0  0  0  0  0  0  0  0
    7.0288  -14.9621  -10.7381 C   0  0  0  0  0  0  0  0  0  0  0  0
  2  3  1  6  0  0  0
  2  6  1  0  0  0  0
  2  1  1  0  0  0  0
  4  3  2  0  0  0  0
  5  3  1  0  0  0  0
  6  7  2  0  0  0  0
  8  7  1  6  0  0  0
  8  9  1  0  0  0  0
  8 10  1  0  0  0  0
 11 10  1  6  0  0  0
 11 13  1  0  0  0  0
 12 11  1  0  0  0  0
 12 17  1  0  0  0  0
 13 14  1  1  0  0  0
 13 15  1  0  0  0  0
 15 16  1  1  0  0  0
 17 18  1  6  0  0  0
 17 15  1  0  0  0  0
 18 19  1  0  0  0  0
 20 19  2  0  0  0  0
 21 27  2  0  0  0  0
 21 20  1  0  0  0  0
 22 21  1  0  0  0  0
 23 22  1  0  0  0  0
 24 22  2  0  0  0  0
 24 25  1  0  0  0  0
 25 26  2  0  0  0  0
 26 27  1  0  0  0  0
 27 18  1  0  0  0  0
M  END
>  <CHROM.1>
134.56052564,14.32123374,42.52034464,-61.12380911,115.75080441,-136.60723716
4.69371584,-15.34623830,-9.40328389,2.76056739,0.30030084,1.20308189

>  <Name>
lig.pdb

>  <RI>
0

>  <Rbt.Current_Directory>
/home/itssahil/PROJECTS/Mol_Feturizer/New_Systems/rnas/4b5r

>  <Rbt.Executable>
rbdock ($Id: //depot/dev/client3/rdock/2013.1/src/exe/rbdock.cxx#4 $)

>  <Rbt.Library>
libRbt.so (2013.1, Build901 2013/11/27)

>  <Rbt.Parameter_File>
/export/apps/rDock/src/rDock_2013.1_src/data/scripts/dock_solv.prm

>  <Rbt.Receptor>
prm/pocket_docking_5.prm

>  <SCORE>
-13.5154

>  <SCORE.INTER>
-15.2146

>  <SCORE.INTER.CONST>
1

>  <SCORE.INTER.POLAR>
0

>  <SCORE.INTER.ROT>
6

>  <SCORE.INTER.SOLV>
16.2611

>  <SCORE.INTER.VDW>
-23.1634

>  <SCORE.INTER.norm>
-0.563504

>  <SCORE.INTRA>
1.68853

>  <SCORE.INTRA.DIHEDRAL>
3.92179

>  <SCORE.INTRA.DIHEDRAL.0>
10.2917

>  <SCORE.INTRA.POLAR>
0

>  <SCORE.INTRA.POLAR.0>
0

>  <SCORE.INTRA.REPUL>
0

>  <SCORE.INTRA.REPUL.0>
0

>  <SCORE.INTRA.SOLV>
-2.15177

>  <SCORE.INTRA.SOLV.lig_0>
-39.6315

>  <SCORE.INTRA.VDW>
0.803516

>  <SCORE.INTRA.VDW.0>
-4.02152

>  <SCORE.INTRA.norm>
0.0625381

>  <SCORE.RESTR>
0.0106343

>  <SCORE.RESTR.CAVITY>
0.0106343

>  <SCORE.RESTR.norm>
0.000393862

>  <SCORE.SYSTEM>
0

>  <SCORE.SYSTEM.CONST>
0

>  <SCORE.SYSTEM.DIHEDRAL>
0

>  <SCORE.SYSTEM.SOLV>
0

>  <SCORE.SYSTEM.norm>
0

>  <SCORE.heavy>
27

>  <SCORE.norm>
-0.500572

>  <RMSD>
5.944

$$$$
lig.pdb
 OpenBabel11021811493D
libRbt.so/2013.1/901 2013/11/27
 27 29  0  0  0  0  0  0  0  0999 V2000
    6.0406  -12.3755  -12.3800 N   0  0  0  0  0  0  0  0  0  0  0  0
    4.9053  -12.9825  -11.6206 C   0  0  2  0  0  0  0  0  0  0  0  0
    5.4137  -13.4696  -10.2669 C   0  0  0  0  0  0  0  0  0  0  0  0
    6.5740  -13.8484  -10.1577 O   0  0  0  0  0  0  0  0  0  0  0  0
    4.6998  -13.5073   -9.2566 O   0  0  0  0  0  0  0  0  0  0  0  0
    4.1713  -14.0987  -12.3908 C   0  0  0  0  0  0  0  0  0  0  0  0
    4.1865  -15.5129  -11.7533 C   0  0  0  0  0  0  0  0  0  0  0  0
    3.3325  -16.8955  -12.6266 S   0  0  2  0  0  0  0  0  0  0  0  0
    1.7432  -16.1387  -13.0277 C   0  0  0  0  0  0  0  0  0  0  0  0
    2.8185  -17.9912  -11.2860 C   0  0  0  0  0  0  0  0  0  0  0  0
    3.9603  -18.9325  -10.9261 C   0  0  1  0  0  0  0  0  0  0  0  0
    4.9608  -18.3026  -10.1402 O   0  0  0  0  0  0  0  0  0  0  0  0
    3.5215  -20.0996  -10.0830 C   0  0  1  0  0  0  0  0  0  0  0  0
    2.9123  -21.0707  -10.8842 O   0  0  0  0  0  0  0  0  0  0  0  0
    4.8498  -20.5473   -9.5141 C   0  0  1  0  0  0  0  0  0  0  0  0
    5.5290  -21.3631  -10.4468 O   0  0  0  0  0  0  0  0  0  0  0  0
    5.6308  -19.2511   -9.3290 C   0  0  2  0  0  0  0  0  0  0  0  0
    5.7519  -18.7830   -7.9210 N   0  0  0  0  0  0  0  0  0  0  0  0
    5.5366  -19.5552   -6.8073 C   0  0  0  0  0  0  0  0  0  0  0  0
    5.7368  -18.8042   -5.7012 N   0  0  0  0  0  0  0  0  0  0  0  0
    6.0858  -17.5640   -6.0806 C   0  0  0  0  0  0  0  0  0  0  0  0
    6.4073  -16.4255   -5.3574 C   0  0  0  0  0  0  0  0  0  0  0  0
    6.4038  -16.4509   -4.0311 N   0  0  0  0  0  0  0  0  0  0  0  0
    6.7366  -15.2680   -6.0346 N   0  0  0  0  0  0  0  0  0  0  0  0
    6.7537  -15.2297   -7.4231 C   0  0  0  0  0  0  0  0  0  0  0  0
    6.4366  -16.3743   -8.1259 N   0  0  0  0  0  0  0  0  0  0  0  0
    6.1005  -17.5247   -7.4727 C   0  0  0  0  0  0  0  0  0  0  0  0
  2  3  1  1  0  0  0
  2  6  1  0  0  0  0
  2  1  1  0  0  0  0
  4  3  2  0  0  0  0
  5  3  1  0  0  0  0
  6  7  2  0  0  0  0
  8  7  1  1  0  0  0
  8  9  1  0  0  0  0
  8 10  1  0  0  0  0
 11 10  1  1  0  0  0
 11 13  1  0  0  0  0
 12 11  1  0  0  0  0
 12 17  1  0  0  0  0
 13 14  1  6  0  0  0
 13 15  1  0  0  0  0
 15 16  1  6  0  0  0
 17 18  1  1  0  0  0
 17 15  1  0  0  0  0
 18 19  1  0  0  0  0
 20 19  2  0  0  0  0
 21 27  2  0  0  0  0
 21 20  1  0  0  0  0
 22 21  1  0  0  0  0
 23 22  1  0  0  0  0
 24 22  2  0  0  0  0
 24 25  1  0  0  0  0
 25 26  2  0  0  0  0
 26 27  1  0  0  0  0
 27 18  1  0  0  0  0
M  END
>  <CHROM.1>
-30.28149323,118.54437879,-47.60624539,-85.30363683,77.46427537,136.90720416
4.97473886,-16.99331260,-9.50961711,-2.28545772,1.09722679,2.72380228

>  <Name>
lig.pdb

>  <RI>
0

>  <Rbt.Current_Directory>
/home/itssahil/PROJECTS/Mol_Feturizer/New_Systems/rnas/4b5r

>  <Rbt.Executable>
rbdock ($Id: //depot/dev/client3/rdock/2013.1/src/exe/rbdock.cxx#4 $)

>  <Rbt.Library>
libRbt.so (2013.1, Build901 2013/11/27)

>  <Rbt.Parameter_File>
/export/apps/rDock/src/rDock_2013.1_src/data/scripts/dock_solv.prm

>  <Rbt.Receptor>
prm/blind_docking_80.prm

>  <SCORE>
-11.7381

>  <SCORE.INTER>
-12.2485

>  <SCORE.INTER.CONST>
1

>  <SCORE.INTER.POLAR>
0

>  <SCORE.INTER.ROT>
6

>  <SCORE.INTER.SOLV>
13.7905

>  <SCORE.INTER.VDW>
-20.3625

>  <SCORE.INTER.norm>
-0.453649

>  <SCORE.INTRA>
0.510457

>  <SCORE.INTRA.DIHEDRAL>
-1.56077

>  <SCORE.INTRA.DIHEDRAL.0>
10.2917

>  <SCORE.INTRA.POLAR>
0

>  <SCORE.INTRA.POLAR.0>
0

>  <SCORE.INTRA.REPUL>
0.131432

>  <SCORE.INTRA.REPUL.0>
0

>  <SCORE.INTRA.SOLV>
-2.27646

>  <SCORE.INTRA.SOLV.lig_0>
-39.6315

>  <SCORE.INTRA.VDW>
1.77191

>  <SCORE.INTRA.VDW.0>
-4.02152

>  <SCORE.INTRA.norm>
0.0189058

>  <SCORE.RESTR>
0

>  <SCORE.RESTR.CAVITY>
0

>  <SCORE.RESTR.norm>
0

>  <SCORE.SYSTEM>
0

>  <SCORE.SYSTEM.CONST>
0

>  <SCORE.SYSTEM.DIHEDRAL>
0

>  <SCORE.SYSTEM.SOLV>
0

>  <SCORE.SYSTEM.norm>
0

>  <SCORE.heavy>
27

>  <SCORE.norm>
-0.434744

>  <RMSD>
5.952

$$$$
lig.pdb
 OpenBabel11021811493D
libRbt.so/2013.1/901 2013/11/27
 27 29  0  0  0  0  0  0  0  0999 V2000
    4.9916  -14.9503  -12.4065 N   0  0  0  0  0  0  0  0  0  0  0  0
    5.4891  -13.8202  -11.5644 C   0  0  2  0  0  0  0  0  0  0  0  0
    6.8131  -14.2218  -10.9211 C   0  0  0  0  0  0  0  0  0  0  0  0
    7.4778  -13.3793  -10.3293 O   0  0  0  0  0  0  0  0  0  0  0  0
    7.2608  -15.3745  -10.9719 O   0  0  0  0  0  0  0  0  0  0  0  0
    4.4687  -13.3332  -10.5157 C   0  0  0  0  0  0  0  0  0  0  0  0
    4.1245  -14.3174   -9.3671 C   0  0  0  0  0  0  0  0  0  0  0  0
    2.9059  -13.7997   -8.0824 S   0  0  2  0  0  0  0  0  0  0  0  0
    3.9960  -13.3430   -6.7177 C   0  0  0  0  0  0  0  0  0  0  0  0
    2.2652  -15.3653   -7.4497 C   0  0  0  0  0  0  0  0  0  0  0  0
    3.2434  -16.4875   -7.7709 C   0  0  1  0  0  0  0  0  0  0  0  0
    4.5379  -16.2535   -7.2373 O   0  0  0  0  0  0  0  0  0  0  0  0
    2.8420  -17.8105   -7.1759 C   0  0  1  0  0  0  0  0  0  0  0  0
    1.8381  -18.4020   -7.9493 O   0  0  0  0  0  0  0  0  0  0  0  0
    4.1572  -18.5552   -7.2401 C   0  0  1  0  0  0  0  0  0  0  0  0
    4.3490  -19.0945   -8.5321 O   0  0  0  0  0  0  0  0  0  0  0  0
    5.2071  -17.4778   -6.9925 C   0  0  2  0  0  0  0  0  0  0  0  0
    5.8306  -17.5033   -5.6409 N   0  0  0  0  0  0  0  0  0  0  0  0
    6.5510  -18.5483   -5.1194 C   0  0  0  0  0  0  0  0  0  0  0  0
    6.9652  -18.2241   -3.8741 N   0  0  0  0  0  0  0  0  0  0  0  0
    6.5328  -16.9856   -3.5857 C   0  0  0  0  0  0  0  0  0  0  0  0
    6.6856  -16.1841   -2.4647 C   0  0  0  0  0  0  0  0  0  0  0  0
    7.3729  -16.6208   -1.4175 N   0  0  0  0  0  0  0  0  0  0  0  0
    6.1192  -14.9248   -2.4548 N   0  0  0  0  0  0  0  0  0  0  0  0
    5.4052  -14.4510   -3.5481 C   0  0  0  0  0  0  0  0  0  0  0  0
    5.2686  -15.2607   -4.6572 N   0  0  0  0  0  0  0  0  0  0  0  0
    5.8147  -16.5115   -4.6808 C   0  0  0  0  0  0  0  0  0  0  0  0
  2  3  1  1  0  0  0
  2  6  1  0  0  0  0
  2  1  1  0  0  0  0
  4  3  2  0  0  0  0
  5  3  1  0  0  0  0
  6  7  2  0  0  0  0
  8  7  1  6  0  0  0
  8  9  1  0  0  0  0
  8 10  1  0  0  0  0
 11 10  1  1  0  0  0
 11 13  1  0  0  0  0
 12 11  1  0  0  0  0
 12 17  1  0  0  0  0
 13 14  1  6  0  0  0
 13 15  1  0  0  0  0
 15 16  1  6  0  0  0
 17 18  1  1  0  0  0
 17 15  1  0  0  0  0
 18 19  1  0  0  0  0
 20 19  2  0  0  0  0
 21 27  2  0  0  0  0
 21 20  1  0  0  0  0
 22 21  1  0  0  0  0
 23 22  1  0  0  0  0
 24 22  2  0  0  0  0
 24 25  1  0  0  0  0
 25 26  2  0  0  0  0
 26 27  1  0  0  0  0
 27 18  1  0  0  0  0
M  END
>  <CHROM.1>
170.63088059,67.18334453,-101.37330582,20.50607701,57.69194483,-179.66950483
5.00778225,-15.87377090,-7.10506668,1.83303752,-0.89306823,-1.05822267

>  <Name>
lig.pdb

>  <RI>
0

>  <Rbt.Current_Directory>
/home/itssahil/PROJECTS/Mol_Feturizer/New_Systems/rnas/4b5r

>  <Rbt.Executable>
rbdock ($Id: //depot/dev/client3/rdock/2013.1/src/exe/rbdock.cxx#4 $)

>  <Rbt.Library>
libRbt.so (2013.1, Build901 2013/11/27)

>  <Rbt.Parameter_File>
/export/apps/rDock/src/rDock_2013.1_src/data/scripts/dock_solv.prm

>  <Rbt.Receptor>
prm/pocket_docking_6.prm

>  <SCORE>
-13.7378

>  <SCORE.INTER>
-16.732

>  <SCORE.INTER.CONST>
1

>  <SCORE.INTER.POLAR>
0

>  <SCORE.INTER.ROT>
6

>  <SCORE.INTER.SOLV>
11.433

>  <SCORE.INTER.VDW>
-22.5657

>  <SCORE.INTER.norm>
-0.619705

>  <SCORE.INTRA>
2.99419

>  <SCORE.INTRA.DIHEDRAL>
2.87698

>  <SCORE.INTRA.DIHEDRAL.0>
10.2917

>  <SCORE.INTRA.POLAR>
0

>  <SCORE.INTRA.POLAR.0>
0

>  <SCORE.INTRA.REPUL>
0.0989964

>  <SCORE.INTRA.REPUL.0>
0

>  <SCORE.INTRA.SOLV>
-2.01306

>  <SCORE.INTRA.SOLV.lig_0>
-39.6315

>  <SCORE.INTRA.VDW>
2.06725

>  <SCORE.INTRA.VDW.0>
-4.02152

>  <SCORE.INTRA.norm>
0.110896

>  <SCORE.RESTR>
0

>  <SCORE.RESTR.CAVITY>
0

>  <SCORE.RESTR.norm>
0

>  <SCORE.SYSTEM>
0

>  <SCORE.SYSTEM.CONST>
0

>  <SCORE.SYSTEM.DIHEDRAL>
0

>  <SCORE.SYSTEM.SOLV>
0

>  <SCORE.SYSTEM.norm>
0

>  <SCORE.heavy>
27

>  <SCORE.norm>
-0.508809

>  <RMSD>
5.959

$$$$
lig.pdb
 OpenBabel11021811493D
libRbt.so/2013.1/901 2013/11/27
 27 29  0  0  0  0  0  0  0  0999 V2000
    7.1273  -12.7762  -13.4376 N   0  0  0  0  0  0  0  0  0  0  0  0
    8.4887  -13.1979  -12.9874 C   0  0  2  0  0  0  0  0  0  0  0  0
    9.2681  -13.7311  -14.1859 C   0  0  0  0  0  0  0  0  0  0  0  0
    9.8918  -12.9516  -14.8966 O   0  0  0  0  0  0  0  0  0  0  0  0
    9.2991  -14.9316  -14.4852 O   0  0  0  0  0  0  0  0  0  0  0  0
    8.4706  -14.2078  -11.8222 C   0  0  0  0  0  0  0  0  0  0  0  0
    7.6211  -15.4902  -12.0231 C   0  0  0  0  0  0  0  0  0  0  0  0
    7.5509  -16.7369  -10.6650 S   0  0  2  0  0  0  0  0  0  0  0  0
    7.1569  -18.2423  -11.5805 C   0  0  0  0  0  0  0  0  0  0  0  0
    5.9514  -16.4266   -9.8860 C   0  0  0  0  0  0  0  0  0  0  0  0
    5.5381  -17.6387   -9.0618 C   0  0  1  0  0  0  0  0  0  0  0  0
    6.4413  -17.9121   -8.0013 O   0  0  0  0  0  0  0  0  0  0  0  0
    4.2134  -17.4599   -8.3699 C   0  0  1  0  0  0  0  0  0  0  0  0
    3.1662  -17.6606   -9.2748 O   0  0  0  0  0  0  0  0  0  0  0  0
    4.3019  -18.5407   -7.3152 C   0  0  1  0  0  0  0  0  0  0  0  0
    3.9443  -19.7911   -7.8679 O   0  0  0  0  0  0  0  0  0  0  0  0
    5.7785  -18.5709   -6.9367 C   0  0  2  0  0  0  0  0  0  0  0  0
    6.1052  -17.9561   -5.6208 N   0  0  0  0  0  0  0  0  0  0  0  0
    6.8071  -18.5670   -4.6124 C   0  0  0  0  0  0  0  0  0  0  0  0
    6.9154  -17.7155   -3.5680 N   0  0  0  0  0  0  0  0  0  0  0  0
    6.3039  -16.5631   -3.8874 C   0  0  0  0  0  0  0  0  0  0  0  0
    6.1337  -15.3760   -3.1914 C   0  0  0  0  0  0  0  0  0  0  0  0
    6.6293  -15.2393   -1.9686 N   0  0  0  0  0  0  0  0  0  0  0  0
    5.4479  -14.3372   -3.7891 N   0  0  0  0  0  0  0  0  0  0  0  0
    4.9319  -14.4631   -5.0727 C   0  0  0  0  0  0  0  0  0  0  0  0
    5.1163  -15.6501   -5.7522 N   0  0  0  0  0  0  0  0  0  0  0  0
    5.7844  -16.6901   -5.1733 C   0  0  0  0  0  0  0  0  0  0  0  0
  2  3  1  6  0  0  0
  2  6  1  0  0  0  0
  2  1  1  0  0  0  0
  4  3  2  0  0  0  0
  5  3  1  0  0  0  0
  6  7  2  0  0  0  0
  8  7  1  6  0  0  0
  8  9  1  0  0  0  0
  8 10  1  0  0  0  0
 11 10  1  1  0  0  0
 11 13  1  0  0  0  0
 12 11  1  0  0  0  0
 12 17  1  0  0  0  0
 13 14  1  6  0  0  0
 13 15  1  0  0  0  0
 15 16  1  6  0  0  0
 17 18  1  1  0  0  0
 17 15  1  0  0  0  0
 18 19  1  0  0  0  0
 20 19  2  0  0  0  0
 21 27  2  0  0  0  0
 21 20  1  0  0  0  0
 22 21  1  0  0  0  0
 23 22  1  0  0  0  0
 24 22  2  0  0  0  0
 24 25  1  0  0  0  0
 25 26  2  0  0  0  0
 26 27  1  0  0  0  0
 27 18  1  0  0  0  0
M  END
>  <CHROM.1>
86.36432743,53.60383127,-155.18037483,161.40564914,62.28334326,-113.83567669
6.50984543,-16.29932815,-8.55813937,-0.95627746,1.03451314,1.29669589

>  <Name>
lig.pdb

>  <RI>
0

>  <Rbt.Current_Directory>
/home/itssahil/PROJECTS/Mol_Feturizer/New_Systems/rnas/4b5r

>  <Rbt.Executable>
rbdock ($Id: //depot/dev/client3/rdock/2013.1/src/exe/rbdock.cxx#4 $)

>  <Rbt.Library>
libRbt.so (2013.1, Build901 2013/11/27)

>  <Rbt.Parameter_File>
/export/apps/rDock/src/rDock_2013.1_src/data/scripts/dock_solv.prm

>  <Rbt.Receptor>
prm/pocket_docking_5.prm

>  <SCORE>
-15.5795

>  <SCORE.INTER>
-16.306

>  <SCORE.INTER.CONST>
1

>  <SCORE.INTER.POLAR>
0

>  <SCORE.INTER.ROT>
6

>  <SCORE.INTER.SOLV>
12.2464

>  <SCORE.INTER.VDW>
-22.5528

>  <SCORE.INTER.norm>
-0.603928

>  <SCORE.INTRA>
0.726568

>  <SCORE.INTRA.DIHEDRAL>
0.877557

>  <SCORE.INTRA.DIHEDRAL.0>
10.2917

>  <SCORE.INTRA.POLAR>
0

>  <SCORE.INTRA.POLAR.0>
0

>  <SCORE.INTRA.REPUL>
0

>  <SCORE.INTRA.REPUL.0>
0

>  <SCORE.INTRA.SOLV>
-2.51674

>  <SCORE.INTRA.SOLV.lig_0>
-39.6315

>  <SCORE.INTRA.VDW>
1.54616

>  <SCORE.INTRA.VDW.0>
-4.02152

>  <SCORE.INTRA.norm>
0.0269099

>  <SCORE.RESTR>
0

>  <SCORE.RESTR.CAVITY>
0

>  <SCORE.RESTR.norm>
0

>  <SCORE.SYSTEM>
0

>  <SCORE.SYSTEM.CONST>
0

>  <SCORE.SYSTEM.DIHEDRAL>
0

>  <SCORE.SYSTEM.SOLV>
0

>  <SCORE.SYSTEM.norm>
0

>  <SCORE.heavy>
27

>  <SCORE.norm>
-0.577018

>  <RMSD>
5.962

$$$$
lig.pdb
 OpenBabel11021811493D
libRbt.so/2013.1/901 2013/11/27
 27 29  0  0  0  0  0  0  0  0999 V2000
    7.6271  -15.7359  -11.4184 N   0  0  0  0  0  0  0  0  0  0  0  0
    6.5308  -14.9530  -10.7710 C   0  0  2  0  0  0  0  0  0  0  0  0
    6.9823  -13.5051  -10.6043 C   0  0  0  0  0  0  0  0  0  0  0  0
    6.6085  -12.6590  -11.4081 O   0  0  0  0  0  0  0  0  0  0  0  0
    7.7243  -13.1358   -9.6851 O   0  0  0  0  0  0  0  0  0  0  0  0
    6.0421  -15.5563   -9.4387 C   0  0  0  0  0  0  0  0  0  0  0  0
    4.5942  -16.1128   -9.4139 C   0  0  0  0  0  0  0  0  0  0  0  0
    3.9446  -16.8427   -7.8491 S   0  0  2  0  0  0  0  0  0  0  0  0
    2.1626  -16.7545   -8.1252 C   0  0  0  0  0  0  0  0  0  0  0  0
    4.1331  -15.5077   -6.6474 C   0  0  0  0  0  0  0  0  0  0  0  0
    5.1721  -15.8986   -5.6048 C   0  0  1  0  0  0  0  0  0  0  0  0
    5.1040  -17.2725   -5.2538 O   0  0  0  0  0  0  0  0  0  0  0  0
    6.5876  -15.7187   -6.0837 C   0  0  1  0  0  0  0  0  0  0  0  0
    6.9536  -14.3709   -6.0100 O   0  0  0  0  0  0  0  0  0  0  0  0
    7.3293  -16.5901   -5.0943 C   0  0  1  0  0  0  0  0  0  0  0  0
    7.5524  -15.8812   -3.8924 O   0  0  0  0  0  0  0  0  0  0  0  0
    6.3681  -17.7411   -4.8190 C   0  0  2  0  0  0  0  0  0  0  0  0
    6.7284  -19.0325   -5.4662 N   0  0  0  0  0  0  0  0  0  0  0  0
    7.2428  -20.1276   -4.8189 C   0  0  0  0  0  0  0  0  0  0  0  0
    7.4483  -21.1176   -5.7162 N   0  0  0  0  0  0  0  0  0  0  0  0
    7.0676  -20.6844   -6.9293 C   0  0  0  0  0  0  0  0  0  0  0  0
    7.0584  -21.2943   -8.1745 C   0  0  0  0  0  0  0  0  0  0  0  0
    7.4825  -22.5437   -8.3118 N   0  0  0  0  0  0  0  0  0  0  0  0
    6.5969  -20.5875   -9.2672 N   0  0  0  0  0  0  0  0  0  0  0  0
    6.1409  -19.2818   -9.1364 C   0  0  0  0  0  0  0  0  0  0  0  0
    6.1521  -18.6934   -7.8881 N   0  0  0  0  0  0  0  0  0  0  0  0
    6.6128  -19.3746   -6.7986 C   0  0  0  0  0  0  0  0  0  0  0  0
  2  3  1  1  0  0  0
  2  6  1  0  0  0  0
  2  1  1  0  0  0  0
  4  3  2  0  0  0  0
  5  3  1  0  0  0  0
  6  7  2  0  0  0  0
  8  7  1  6  0  0  0
  8  9  1  0  0  0  0
  8 10  1  0  0  0  0
 11 10  1  6  0  0  0
 11 13  1  0  0  0  0
 12 11  1  0  0  0  0
 12 17  1  0  0  0  0
 13 14  1  1  0  0  0
 13 15  1  0  0  0  0
 15 16  1  1  0  0  0
 17 18  1  6  0  0  0
 17 15  1  0  0  0  0
 18 19  1  0  0  0  0
 20 19  2  0  0  0  0
 21 27  2  0  0  0  0
 21 20  1  0  0  0  0
 22 21  1  0  0  0  0
 23 22  1  0  0  0  0
 24 22  2  0  0  0  0
 24 25  1  0  0  0  0
 25 26  2  0  0  0  0
 26 27  1  0  0  0  0
 27 18  1  0  0  0  0
M  END
>  <CHROM.1>
99.79308017,-113.25805253,159.86001775,-113.35634857,-37.90738709,-134.31892249
6.17592378,-17.18597313,-7.58071586,-2.22075288,-1.44050898,1.99205980

>  <Name>
lig.pdb

>  <RI>
0

>  <Rbt.Current_Directory>
/home/itssahil/PROJECTS/Mol_Feturizer/New_Systems/rnas/4b5r

>  <Rbt.Executable>
rbdock ($Id: //depot/dev/client3/rdock/2013.1/src/exe/rbdock.cxx#4 $)

>  <Rbt.Library>
libRbt.so (2013.1, Build901 2013/11/27)

>  <Rbt.Parameter_File>
/export/apps/rDock/src/rDock_2013.1_src/data/scripts/dock_solv.prm

>  <Rbt.Receptor>
prm/pocket_docking_7.prm

>  <SCORE>
-10.0852

>  <SCORE.INTER>
-9.77044

>  <SCORE.INTER.CONST>
1

>  <SCORE.INTER.POLAR>
0

>  <SCORE.INTER.ROT>
6

>  <SCORE.INTER.SOLV>
10.0112

>  <SCORE.INTER.VDW>
-17.4507

>  <SCORE.INTER.norm>
-0.361868

>  <SCORE.INTRA>
-0.34382

>  <SCORE.INTRA.DIHEDRAL>
2.11612

>  <SCORE.INTRA.DIHEDRAL.0>
10.2917

>  <SCORE.INTRA.POLAR>
0

>  <SCORE.INTRA.POLAR.0>
0

>  <SCORE.INTRA.REPUL>
0

>  <SCORE.INTRA.REPUL.0>
0

>  <SCORE.INTRA.SOLV>
-1.68106

>  <SCORE.INTRA.SOLV.lig_0>
-39.6315

>  <SCORE.INTRA.VDW>
-0.561348

>  <SCORE.INTRA.VDW.0>
-4.02152

>  <SCORE.INTRA.norm>
-0.0127341

>  <SCORE.RESTR>
0.0290912

>  <SCORE.RESTR.CAVITY>
0.0290912

>  <SCORE.RESTR.norm>
0.00107745

>  <SCORE.SYSTEM>
0

>  <SCORE.SYSTEM.CONST>
0

>  <SCORE.SYSTEM.DIHEDRAL>
0

>  <SCORE.SYSTEM.SOLV>
0

>  <SCORE.SYSTEM.norm>
0

>  <SCORE.heavy>
27

>  <SCORE.norm>
-0.373525

>  <RMSD>
5.985

$$$$
lig.pdb
 OpenBabel11021811493D
libRbt.so/2013.1/901 2013/11/27
 27 29  0  0  0  0  0  0  0  0999 V2000
    7.2325  -10.9010  -18.8382 N   0  0  0  0  0  0  0  0  0  0  0  0
    7.5916  -11.4184  -17.4828 C   0  0  2  0  0  0  0  0  0  0  0  0
    9.0111  -10.9765  -17.1395 C   0  0  0  0  0  0  0  0  0  0  0  0
    9.2882  -10.6773  -15.9839 O   0  0  0  0  0  0  0  0  0  0  0  0
    9.9119  -10.8985  -17.9847 O   0  0  0  0  0  0  0  0  0  0  0  0
    7.4163  -12.9433  -17.3354 C   0  0  0  0  0  0  0  0  0  0  0  0
    6.3307  -13.4281  -16.3388 C   0  0  0  0  0  0  0  0  0  0  0  0
    6.0737  -15.2405  -16.1099 S   0  0  2  0  0  0  0  0  0  0  0  0
    5.6667  -15.7599  -17.7904 C   0  0  0  0  0  0  0  0  0  0  0  0
    4.4369  -15.3451  -15.3538 C   0  0  0  0  0  0  0  0  0  0  0  0
    4.4597  -14.6760  -13.9858 C   0  0  1  0  0  0  0  0  0  0  0  0
    3.1657  -14.5568  -13.4142 O   0  0  0  0  0  0  0  0  0  0  0  0
    5.2369  -15.4551  -12.9590 C   0  0  1  0  0  0  0  0  0  0  0  0
    6.6090  -15.2480  -13.1342 O   0  0  0  0  0  0  0  0  0  0  0  0
    4.7026  -14.8439  -11.6826 C   0  0  1  0  0  0  0  0  0  0  0  0
    5.3761  -13.6335  -11.4029 O   0  0  0  0  0  0  0  0  0  0  0  0
    3.2434  -14.5366  -12.0000 C   0  0  2  0  0  0  0  0  0  0  0  0
    2.2548  -15.4619  -11.3814 N   0  0  0  0  0  0  0  0  0  0  0  0
    1.9997  -16.7441  -11.7985 C   0  0  0  0  0  0  0  0  0  0  0  0
    1.0467  -17.2866  -11.0079 N   0  0  0  0  0  0  0  0  0  0  0  0
    0.6884  -16.3811  -10.0829 C   0  0  0  0  0  0  0  0  0  0  0  0
   -0.2253  -16.4269   -9.0410 C   0  0  0  0  0  0  0  0  0  0  0  0
   -0.9360  -17.5250   -8.8207 N   0  0  0  0  0  0  0  0  0  0  0  0
   -0.3812  -15.3182   -8.2327 N   0  0  0  0  0  0  0  0  0  0  0  0
    0.3633  -14.1649   -8.4458 C   0  0  0  0  0  0  0  0  0  0  0  0
    1.2721  -14.1401   -9.4842 N   0  0  0  0  0  0  0  0  0  0  0  0
    1.4329  -15.2240  -10.2980 C   0  0  0  0  0  0  0  0  0  0  0  0
  2  3  1  6  0  0  0
  2  6  1  0  0  0  0
  2  1  1  0  0  0  0
  4  3  2  0  0  0  0
  5  3  1  0  0  0  0
  6  7  2  0  0  0  0
  8  7  1  6  0  0  0
  8  9  1  0  0  0  0
  8 10  1  0  0  0  0
 11 10  1  6  0  0  0
 11 13  1  0  0  0  0
 12 11  1  0  0  0  0
 12 17  1  0  0  0  0
 13 14  1  6  0  0  0
 13 15  1  0  0  0  0
 15 16  1  6  0  0  0
 17 18  1  1  0  0  0
 17 15  1  0  0  0  0
 18 19  1  0  0  0  0
 20 19  2  0  0  0  0
 21 27  2  0  0  0  0
 21 20  1  0  0  0  0
 22 21  1  0  0  0  0
 23 22  1  0  0  0  0
 24 22  2  0  0  0  0
 24 25  1  0  0  0  0
 25 26  2  0  0  0  0
 26 27  1  0  0  0  0
 27 18  1  0  0  0  0
M  END
>  <CHROM.1>
143.82762329,-114.71119057,-58.62776319,-63.97686075,171.79703727,44.53272702
4.37512202,-14.41790357,-13.44122686,-0.29713319,0.81695642,0.84605840

>  <Name>
lig.pdb

>  <RI>
0

>  <Rbt.Current_Directory>
/home/itssahil/PROJECTS/Mol_Feturizer/New_Systems/rnas/4b5r

>  <Rbt.Executable>
rbdock ($Id: //depot/dev/client3/rdock/2013.1/src/exe/rbdock.cxx#4 $)

>  <Rbt.Library>
libRbt.so (2013.1, Build901 2013/11/27)

>  <Rbt.Parameter_File>
/export/apps/rDock/src/rDock_2013.1_src/data/scripts/dock_solv.prm

>  <Rbt.Receptor>
prm/blind_docking_100.prm

>  <SCORE>
-15.2947

>  <SCORE.INTER>
-13.7903

>  <SCORE.INTER.CONST>
1

>  <SCORE.INTER.POLAR>
0

>  <SCORE.INTER.ROT>
6

>  <SCORE.INTER.SOLV>
12.6473

>  <SCORE.INTER.VDW>
-21.0093

>  <SCORE.INTER.norm>
-0.510753

>  <SCORE.INTRA>
-1.50441

>  <SCORE.INTRA.DIHEDRAL>
-2.94901

>  <SCORE.INTRA.DIHEDRAL.0>
10.2917

>  <SCORE.INTRA.POLAR>
0

>  <SCORE.INTRA.POLAR.0>
0

>  <SCORE.INTRA.REPUL>
0

>  <SCORE.INTRA.REPUL.0>
0

>  <SCORE.INTRA.SOLV>
-3.17946

>  <SCORE.INTRA.SOLV.lig_0>
-39.6315

>  <SCORE.INTRA.VDW>
1.55982

>  <SCORE.INTRA.VDW.0>
-4.02152

>  <SCORE.INTRA.norm>
-0.0557189

>  <SCORE.RESTR>
0

>  <SCORE.RESTR.CAVITY>
0

>  <SCORE.RESTR.norm>
0

>  <SCORE.SYSTEM>
0

>  <SCORE.SYSTEM.CONST>
0

>  <SCORE.SYSTEM.DIHEDRAL>
0

>  <SCORE.SYSTEM.SOLV>
0

>  <SCORE.SYSTEM.norm>
0

>  <SCORE.heavy>
27

>  <SCORE.norm>
-0.566472

>  <RMSD>
5.988

$$$$
lig.pdb
 OpenBabel11021811493D
libRbt.so/2013.1/901 2013/11/27
 27 29  0  0  0  0  0  0  0  0999 V2000
    4.7615  -15.6610  -12.4013 N   0  0  0  0  0  0  0  0  0  0  0  0
    3.8238  -16.8034  -12.6248 C   0  0  2  0  0  0  0  0  0  0  0  0
    2.5784  -16.2938  -13.3441 C   0  0  0  0  0  0  0  0  0  0  0  0
    2.6914  -15.7485  -14.4357 O   0  0  0  0  0  0  0  0  0  0  0  0
    1.4399  -16.4004  -12.8705 O   0  0  0  0  0  0  0  0  0  0  0  0
    3.4658  -17.5719  -11.3368 C   0  0  0  0  0  0  0  0  0  0  0  0
    2.5869  -16.8247  -10.2995 C   0  0  0  0  0  0  0  0  0  0  0  0
    2.1274  -17.6848   -8.7335 S   0  0  2  0  0  0  0  0  0  0  0  0
    0.3719  -17.2828   -8.6056 C   0  0  0  0  0  0  0  0  0  0  0  0
    2.7827  -16.6011   -7.4459 C   0  0  0  0  0  0  0  0  0  0  0  0
    4.2350  -16.9613   -7.1619 C   0  0  1  0  0  0  0  0  0  0  0  0
    4.9263  -15.9354   -6.4656 O   0  0  0  0  0  0  0  0  0  0  0  0
    4.3826  -18.1648   -6.2702 C   0  0  1  0  0  0  0  0  0  0  0  0
    4.1878  -19.3373   -7.0072 O   0  0  0  0  0  0  0  0  0  0  0  0
    5.8096  -17.9895   -5.7997 C   0  0  1  0  0  0  0  0  0  0  0  0
    6.7072  -18.4886   -6.7703 O   0  0  0  0  0  0  0  0  0  0  0  0
    5.9836  -16.4784   -5.6950 C   0  0  2  0  0  0  0  0  0  0  0  0
    5.9870  -15.9384   -4.3077 N   0  0  0  0  0  0  0  0  0  0  0  0
    5.6701  -14.6501   -3.9574 C   0  0  0  0  0  0  0  0  0  0  0  0
    5.7794  -14.5151   -2.6167 N   0  0  0  0  0  0  0  0  0  0  0  0
    6.1526  -15.6950   -2.0946 C   0  0  0  0  0  0  0  0  0  0  0  0
    6.3932  -16.1012   -0.7909 C   0  0  0  0  0  0  0  0  0  0  0  0
    6.2578  -15.2453    0.2134 N   0  0  0  0  0  0  0  0  0  0  0  0
    6.7689  -17.4081   -0.5512 N   0  0  0  0  0  0  0  0  0  0  0  0
    6.9051  -18.3177   -1.5923 C   0  0  0  0  0  0  0  0  0  0  0  0
    6.6558  -17.8966   -2.8827 N   0  0  0  0  0  0  0  0  0  0  0  0
    6.2917  -16.6062   -3.1385 C   0  0  0  0  0  0  0  0  0  0  0  0
  2  3  1  1  0  0  0
  2  6  1  0  0  0  0
  2  1  1  0  0  0  0
  4  3  2  0  0  0  0
  5  3  1  0  0  0  0
  6  7  2  0  0  0  0
  8  7  1  6  0  0  0
  8  9  1  0  0  0  0
  8 10  1  0  0  0  0
 11 10  1  1  0  0  0
 11 13  1  0  0  0  0
 12 11  1  0  0  0  0
 12 17  1  0  0  0  0
 13 14  1  6  0  0  0
 13 15  1  0  0  0  0
 15 16  1  6  0  0  0
 17 18  1  1  0  0  0
 17 15  1  0  0  0  0
 18 19  1  0  0  0  0
 20 19  2  0  0  0  0
 21 27  2  0  0  0  0
 21 20  1  0  0  0  0
 22 21  1  0  0  0  0
 23 22  1  0  0  0  0
 24 22  2  0  0  0  0
 24 25  1  0  0  0  0
 25 26  2  0  0  0  0
 26 27  1  0  0  0  0
 27 18  1  0  0  0  0
M  END
>  <CHROM.1>
58.76803257,68.97030756,-135.27709548,-86.97653762,162.84969008,-36.81489199
4.49440352,-16.82242292,-6.82892353,-2.18124850,0.91382510,2.05735938

>  <Name>
lig.pdb

>  <RI>
0

>  <Rbt.Current_Directory>
/home/itssahil/PROJECTS/Mol_Feturizer/New_Systems/rnas/4b5r

>  <Rbt.Executable>
rbdock ($Id: //depot/dev/client3/rdock/2013.1/src/exe/rbdock.cxx#4 $)

>  <Rbt.Library>
libRbt.so (2013.1, Build901 2013/11/27)

>  <Rbt.Parameter_File>
/export/apps/rDock/src/rDock_2013.1_src/data/scripts/dock_solv.prm

>  <Rbt.Receptor>
prm/pocket_docking_8.prm

>  <SCORE>
-15.2453

>  <SCORE.INTER>
-17.0277

>  <SCORE.INTER.CONST>
1

>  <SCORE.INTER.POLAR>
0

>  <SCORE.INTER.ROT>
6

>  <SCORE.INTER.SOLV>
12.4906

>  <SCORE.INTER.VDW>
-23.1153

>  <SCORE.INTER.norm>
-0.630655

>  <SCORE.INTRA>
1.78237

>  <SCORE.INTRA.DIHEDRAL>
2.72909

>  <SCORE.INTRA.DIHEDRAL.0>
10.2917

>  <SCORE.INTRA.POLAR>
0

>  <SCORE.INTRA.POLAR.0>
0

>  <SCORE.INTRA.REPUL>
0

>  <SCORE.INTRA.REPUL.0>
0

>  <SCORE.INTRA.SOLV>
-2.70361

>  <SCORE.INTRA.SOLV.lig_0>
-39.6315

>  <SCORE.INTRA.VDW>
1.76963

>  <SCORE.INTRA.VDW.0>
-4.02152

>  <SCORE.INTRA.norm>
0.0660137

>  <SCORE.RESTR>
0

>  <SCORE.RESTR.CAVITY>
0

>  <SCORE.RESTR.norm>
0

>  <SCORE.SYSTEM>
0

>  <SCORE.SYSTEM.CONST>
0

>  <SCORE.SYSTEM.DIHEDRAL>
0

>  <SCORE.SYSTEM.SOLV>
0

>  <SCORE.SYSTEM.norm>
0

>  <SCORE.heavy>
27

>  <SCORE.norm>
-0.564641

>  <RMSD>
6.004

$$$$
lig.pdb
 OpenBabel11021811493D
libRbt.so/2013.1/901 2013/11/27
 27 29  0  0  0  0  0  0  0  0999 V2000
    7.4550  -12.1118  -13.6129 N   0  0  0  0  0  0  0  0  0  0  0  0
    8.4806  -13.1276  -13.2253 C   0  0  2  0  0  0  0  0  0  0  0  0
    9.3936  -13.3959  -14.4181 C   0  0  0  0  0  0  0  0  0  0  0  0
    9.5906  -12.5086  -15.2401 O   0  0  0  0  0  0  0  0  0  0  0  0
    9.9512  -14.4851  -14.6041 O   0  0  0  0  0  0  0  0  0  0  0  0
    7.8794  -14.4308  -12.6613 C   0  0  0  0  0  0  0  0  0  0  0  0
    8.5172  -14.9886  -11.3618 C   0  0  0  0  0  0  0  0  0  0  0  0
    7.8496  -16.5483  -10.6373 S   0  0  2  0  0  0  0  0  0  0  0  0
    7.1307  -17.3402  -12.0918 C   0  0  0  0  0  0  0  0  0  0  0  0
    6.3392  -16.0162   -9.8023 C   0  0  0  0  0  0  0  0  0  0  0  0
    5.7071  -17.1995   -9.0814 C   0  0  1  0  0  0  0  0  0  0  0  0
    6.5214  -17.6977   -8.0307 O   0  0  0  0  0  0  0  0  0  0  0  0
    4.4108  -16.8531   -8.3995 C   0  0  1  0  0  0  0  0  0  0  0  0
    3.3715  -16.8084   -9.3343 O   0  0  0  0  0  0  0  0  0  0  0  0
    4.2884  -18.0082   -7.4305 C   0  0  1  0  0  0  0  0  0  0  0  0
    3.7449  -19.1369   -8.0843 O   0  0  0  0  0  0  0  0  0  0  0  0
    5.7280  -18.3129   -7.0314 C   0  0  2  0  0  0  0  0  0  0  0  0
    6.1136  -17.8601   -5.6666 N   0  0  0  0  0  0  0  0  0  0  0  0
    6.8035  -18.6100   -4.7476 C   0  0  0  0  0  0  0  0  0  0  0  0
    6.9778  -17.8822   -3.6219 N   0  0  0  0  0  0  0  0  0  0  0  0
    6.4207  -16.6732   -3.8007 C   0  0  0  0  0  0  0  0  0  0  0  0
    6.3271  -15.5609   -2.9781 C   0  0  0  0  0  0  0  0  0  0  0  0
    6.8545  -15.5812   -1.7612 N   0  0  0  0  0  0  0  0  0  0  0  0
    5.6841  -14.4311   -3.4438 N   0  0  0  0  0  0  0  0  0  0  0  0
    5.1356  -14.3925   -4.7195 C   0  0  0  0  0  0  0  0  0  0  0  0
    5.2437  -15.5072   -5.5260 N   0  0  0  0  0  0  0  0  0  0  0  0
    5.8686  -16.6353   -5.0787 C   0  0  0  0  0  0  0  0  0  0  0  0
  2  3  1  6  0  0  0
  2  6  1  0  0  0  0
  2  1  1  0  0  0  0
  4  3  2  0  0  0  0
  5  3  1  0  0  0  0
  6  7  2  0  0  0  0
  8  7  1  6  0  0  0
  8  9  1  0  0  0  0
  8 10  1  0  0  0  0
 11 10  1  1  0  0  0
 11 13  1  0  0  0  0
 12 11  1  0  0  0  0
 12 17  1  0  0  0  0
 13 14  1  6  0  0  0
 13 15  1  0  0  0  0
 15 16  1  6  0  0  0
 17 18  1  1  0  0  0
 17 15  1  0  0  0  0
 18 19  1  0  0  0  0
 20 19  2  0  0  0  0
 21 27  2  0  0  0  0
 21 20  1  0  0  0  0
 22 21  1  0  0  0  0
 23 22  1  0  0  0  0
 24 22  2  0  0  0  0
 24 25  1  0  0  0  0
 25 26  2  0  0  0  0
 26 27  1  0  0  0  0
 27 18  1  0  0  0  0
M  END
>  <CHROM.1>
29.24736170,-133.49599645,25.02962437,-176.88496945,64.75003482,-106.43904380
6.64329747,-16.03985192,-8.59615153,-1.03729214,0.98222503,1.40356938

>  <Name>
lig.pdb

>  <RI>
0

>  <Rbt.Current_Directory>
/home/itssahil/PROJECTS/Mol_Feturizer/New_Systems/rnas/4b5r

>  <Rbt.Executable>
rbdock ($Id: //depot/dev/client3/rdock/2013.1/src/exe/rbdock.cxx#4 $)

>  <Rbt.Library>
libRbt.so (2013.1, Build901 2013/11/27)

>  <Rbt.Parameter_File>
/export/apps/rDock/src/rDock_2013.1_src/data/scripts/dock_solv.prm

>  <Rbt.Receptor>
prm/pocket_docking_6.prm

>  <SCORE>
-16.6996

>  <SCORE.INTER>
-16.4738

>  <SCORE.INTER.CONST>
1

>  <SCORE.INTER.POLAR>
0

>  <SCORE.INTER.ROT>
6

>  <SCORE.INTER.SOLV>
13.4348

>  <SCORE.INTER.VDW>
-23.0608

>  <SCORE.INTER.norm>
-0.610139

>  <SCORE.INTRA>
-0.225822

>  <SCORE.INTRA.DIHEDRAL>
-1.31955

>  <SCORE.INTRA.DIHEDRAL.0>
10.2917

>  <SCORE.INTRA.POLAR>
0

>  <SCORE.INTRA.POLAR.0>
0

>  <SCORE.INTRA.REPUL>
0

>  <SCORE.INTRA.REPUL.0>
0

>  <SCORE.INTRA.SOLV>
-2.98829

>  <SCORE.INTRA.SOLV.lig_0>
-39.6315

>  <SCORE.INTRA.VDW>
1.9281

>  <SCORE.INTRA.VDW.0>
-4.02152

>  <SCORE.INTRA.norm>
-0.00836377

>  <SCORE.RESTR>
0

>  <SCORE.RESTR.CAVITY>
0

>  <SCORE.RESTR.norm>
0

>  <SCORE.SYSTEM>
0

>  <SCORE.SYSTEM.CONST>
0

>  <SCORE.SYSTEM.DIHEDRAL>
0

>  <SCORE.SYSTEM.SOLV>
0

>  <SCORE.SYSTEM.norm>
0

>  <SCORE.heavy>
27

>  <SCORE.norm>
-0.618503

>  <RMSD>
6.031

$$$$
lig.pdb
 OpenBabel11021811493D
libRbt.so/2013.1/901 2013/11/27
 27 29  0  0  0  0  0  0  0  0999 V2000
    4.2679  -14.5958  -13.5154 N   0  0  0  0  0  0  0  0  0  0  0  0
    3.6152  -15.9137  -13.7820 C   0  0  2  0  0  0  0  0  0  0  0  0
    2.1437  -15.8314  -13.3870 C   0  0  0  0  0  0  0  0  0  0  0  0
    1.8186  -15.1848  -12.3981 O   0  0  0  0  0  0  0  0  0  0  0  0
    1.2461  -16.3987  -14.0228 O   0  0  0  0  0  0  0  0  0  0  0  0
    4.3232  -17.1040  -13.1040 C   0  0  0  0  0  0  0  0  0  0  0  0
    3.9629  -17.3773  -11.6200 C   0  0  0  0  0  0  0  0  0  0  0  0
    4.7792  -18.7826  -10.7469 S   0  0  2  0  0  0  0  0  0  0  0  0
    3.4155  -19.9573  -10.6055 C   0  0  0  0  0  0  0  0  0  0  0  0
    4.8752  -18.2197   -9.0335 C   0  0  0  0  0  0  0  0  0  0  0  0
    5.7224  -19.1901   -8.2211 C   0  0  1  0  0  0  0  0  0  0  0  0
    6.6319  -18.5284   -7.3549 O   0  0  0  0  0  0  0  0  0  0  0  0
    4.9086  -20.0551   -7.2966 C   0  0  1  0  0  0  0  0  0  0  0  0
    4.3154  -21.1002   -8.0122 O   0  0  0  0  0  0  0  0  0  0  0  0
    5.9811  -20.5252   -6.3389 C   0  0  1  0  0  0  0  0  0  0  0  0
    6.6811  -21.6214   -6.8915 O   0  0  0  0  0  0  0  0  0  0  0  0
    6.9294  -19.3364   -6.2300 C   0  0  2  0  0  0  0  0  0  0  0  0
    6.8332  -18.5670   -4.9591 N   0  0  0  0  0  0  0  0  0  0  0  0
    6.9445  -19.0994   -3.6993 C   0  0  0  0  0  0  0  0  0  0  0  0
    6.8067  -18.1120   -2.7864 N   0  0  0  0  0  0  0  0  0  0  0  0
    6.6173  -16.9507   -3.4341 C   0  0  0  0  0  0  0  0  0  0  0  0
    6.4339  -15.6526   -2.9827 C   0  0  0  0  0  0  0  0  0  0  0  0
    6.4285  -15.3899   -1.6825 N   0  0  0  0  0  0  0  0  0  0  0  0
    6.2634  -14.6373   -3.9029 N   0  0  0  0  0  0  0  0  0  0  0  0
    6.2765  -14.8965   -5.2676 C   0  0  0  0  0  0  0  0  0  0  0  0
    6.4662  -16.1939   -5.6982 N   0  0  0  0  0  0  0  0  0  0  0  0
    6.6279  -17.2109   -4.8023 C   0  0  0  0  0  0  0  0  0  0  0  0
  2  3  1  1  0  0  0
  2  6  1  0  0  0  0
  2  1  1  0  0  0  0
  4  3  2  0  0  0  0
  5  3  1  0  0  0  0
  6  7  2  0  0  0  0
  8  7  1  6  0  0  0
  8  9  1  0  0  0  0
  8 10  1  0  0  0  0
 11 10  1  1  0  0  0
 11 13  1  0  0  0  0
 12 11  1  0  0  0  0
 12 17  1  0  0  0  0
 13 14  1  6  0  0  0
 13 15  1  0  0  0  0
 15 16  1  6  0  0  0
 17 18  1  1  0  0  0
 17 15  1  0  0  0  0
 18 19  1  0  0  0  0
 20 19  2  0  0  0  0
 21 27  2  0  0  0  0
 21 20  1  0  0  0  0
 22 21  1  0  0  0  0
 23 22  1  0  0  0  0
 24 22  2  0  0  0  0
 24 25  1  0  0  0  0
 25 26  2  0  0  0  0
 26 27  1  0  0  0  0
 27 18  1  0  0  0  0
M  END
>  <CHROM.1>
-37.19055003,83.35559711,-108.27096569,-171.35812535,136.32801525,173.75865889
5.17162713,-17.74122443,-8.05547699,2.92322349,1.18327875,-2.82115535

>  <Name>
lig.pdb

>  <RI>
0

>  <Rbt.Current_Directory>
/home/itssahil/PROJECTS/Mol_Feturizer/New_Systems/rnas/4b5r

>  <Rbt.Executable>
rbdock ($Id: //depot/dev/client3/rdock/2013.1/src/exe/rbdock.cxx#4 $)

>  <Rbt.Library>
libRbt.so (2013.1, Build901 2013/11/27)

>  <Rbt.Parameter_File>
/export/apps/rDock/src/rDock_2013.1_src/data/scripts/dock_solv.prm

>  <Rbt.Receptor>
prm/pocket_docking_8.prm

>  <SCORE>
-10.803

>  <SCORE.INTER>
-14.6983

>  <SCORE.INTER.CONST>
1

>  <SCORE.INTER.POLAR>
0

>  <SCORE.INTER.ROT>
6

>  <SCORE.INTER.SOLV>
14.6755

>  <SCORE.INTER.VDW>
-22.2907

>  <SCORE.INTER.norm>
-0.544382

>  <SCORE.INTRA>
3.89528

>  <SCORE.INTRA.DIHEDRAL>
4.92639

>  <SCORE.INTRA.DIHEDRAL.0>
10.2917

>  <SCORE.INTRA.POLAR>
0

>  <SCORE.INTRA.POLAR.0>
0

>  <SCORE.INTRA.REPUL>
0.169924

>  <SCORE.INTRA.REPUL.0>
0

>  <SCORE.INTRA.SOLV>
-2.20192

>  <SCORE.INTRA.SOLV.lig_0>
-39.6315

>  <SCORE.INTRA.VDW>
1.68342

>  <SCORE.INTRA.VDW.0>
-4.02152

>  <SCORE.INTRA.norm>
0.144269

>  <SCORE.RESTR>
0

>  <SCORE.RESTR.CAVITY>
0

>  <SCORE.RESTR.norm>
0

>  <SCORE.SYSTEM>
0

>  <SCORE.SYSTEM.CONST>
0

>  <SCORE.SYSTEM.DIHEDRAL>
0

>  <SCORE.SYSTEM.SOLV>
0

>  <SCORE.SYSTEM.norm>
0

>  <SCORE.heavy>
27

>  <SCORE.norm>
-0.400113

>  <RMSD>
6.042

$$$$
lig.pdb
 OpenBabel11021811493D
libRbt.so/2013.1/901 2013/11/27
 27 29  0  0  0  0  0  0  0  0999 V2000
    5.4691  -16.0109  -12.1343 N   0  0  0  0  0  0  0  0  0  0  0  0
    4.1509  -15.4906  -11.6593 C   0  0  2  0  0  0  0  0  0  0  0  0
    4.1994  -13.9659  -11.6234 C   0  0  0  0  0  0  0  0  0  0  0  0
    4.5186  -13.3956  -10.5868 O   0  0  0  0  0  0  0  0  0  0  0  0
    3.9227  -13.2631  -12.6039 O   0  0  0  0  0  0  0  0  0  0  0  0
    3.7033  -16.0802  -10.3066 C   0  0  0  0  0  0  0  0  0  0  0  0
    2.2866  -16.7102  -10.2543 C   0  0  0  0  0  0  0  0  0  0  0  0
    1.6864  -17.4279   -8.6643 S   0  0  2  0  0  0  0  0  0  0  0  0
   -0.0104  -16.8134   -8.6115 C   0  0  0  0  0  0  0  0  0  0  0  0
    2.4343  -16.3656   -7.4098 C   0  0  0  0  0  0  0  0  0  0  0  0
    3.9135  -16.7002   -7.2693 C   0  0  1  0  0  0  0  0  0  0  0  0
    4.6334  -15.7058   -6.5565 O   0  0  0  0  0  0  0  0  0  0  0  0
    4.1632  -17.9592   -6.4831 C   0  0  1  0  0  0  0  0  0  0  0  0
    3.9383  -19.0816   -7.2866 O   0  0  0  0  0  0  0  0  0  0  0  0
    5.6189  -17.7740   -6.1158 C   0  0  1  0  0  0  0  0  0  0  0  0
    6.4467  -18.1748   -7.1887 O   0  0  0  0  0  0  0  0  0  0  0  0
    5.7632  -16.2697   -5.9144 C   0  0  2  0  0  0  0  0  0  0  0  0
    5.8661  -15.8301   -4.4958 N   0  0  0  0  0  0  0  0  0  0  0  0
    5.6150  -14.5609   -4.0385 C   0  0  0  0  0  0  0  0  0  0  0  0
    5.8068  -14.5251   -2.7009 N   0  0  0  0  0  0  0  0  0  0  0  0
    6.1686  -15.7500   -2.2852 C   0  0  0  0  0  0  0  0  0  0  0  0
    6.4704  -16.2551   -1.0297 C   0  0  0  0  0  0  0  0  0  0  0  0
    6.4235  -15.4691    0.0378 N   0  0  0  0  0  0  0  0  0  0  0  0
    6.8139  -17.5867   -0.9042 N   0  0  0  0  0  0  0  0  0  0  0  0
    6.8576  -18.4235   -2.0121 C   0  0  0  0  0  0  0  0  0  0  0  0
    6.5484  -17.9043   -3.2528 N   0  0  0  0  0  0  0  0  0  0  0  0
    6.2149  -16.5884   -3.3962 C   0  0  0  0  0  0  0  0  0  0  0  0
  2  3  1  1  0  0  0
  2  6  1  0  0  0  0
  2  1  1  0  0  0  0
  4  3  2  0  0  0  0
  5  3  1  0  0  0  0
  6  7  2  0  0  0  0
  8  7  1  6  0  0  0
  8  9  1  0  0  0  0
  8 10  1  0  0  0  0
 11 10  1  1  0  0  0
 11 13  1  0  0  0  0
 12 11  1  0  0  0  0
 12 17  1  0  0  0  0
 13 14  1  6  0  0  0
 13 15  1  0  0  0  0
 15 16  1  6  0  0  0
 17 18  1  1  0  0  0
 17 15  1  0  0  0  0
 18 19  1  0  0  0  0
 20 19  2  0  0  0  0
 21 27  2  0  0  0  0
 21 20  1  0  0  0  0
 22 21  1  0  0  0  0
 23 22  1  0  0  0  0
 24 22  2  0  0  0  0
 24 25  1  0  0  0  0
 25 26  2  0  0  0  0
 26 27  1  0  0  0  0
 27 18  1  0  0  0  0
M  END
>  <CHROM.1>
-92.76651777,-127.15795790,136.77511834,-75.42719645,165.45905844,-40.49229949
4.62444860,-16.34849888,-6.66362481,-2.06850085,0.80989787,2.06723535

>  <Name>
lig.pdb

>  <RI>
0

>  <Rbt.Current_Directory>
/home/itssahil/PROJECTS/Mol_Feturizer/New_Systems/rnas/4b5r

>  <Rbt.Executable>
rbdock ($Id: //depot/dev/client3/rdock/2013.1/src/exe/rbdock.cxx#4 $)

>  <Rbt.Library>
libRbt.so (2013.1, Build901 2013/11/27)

>  <Rbt.Parameter_File>
/export/apps/rDock/src/rDock_2013.1_src/data/scripts/dock_solv.prm

>  <Rbt.Receptor>
prm/pocket_docking_8.prm

>  <SCORE>
-16.3952

>  <SCORE.INTER>
-15.3928

>  <SCORE.INTER.CONST>
1

>  <SCORE.INTER.POLAR>
0

>  <SCORE.INTER.ROT>
6

>  <SCORE.INTER.SOLV>
9.74675

>  <SCORE.INTER.VDW>
-21.1108

>  <SCORE.INTER.norm>
-0.570102

>  <SCORE.INTRA>
-1.00244

>  <SCORE.INTRA.DIHEDRAL>
-2.55921

>  <SCORE.INTRA.DIHEDRAL.0>
10.2917

>  <SCORE.INTRA.POLAR>
0

>  <SCORE.INTRA.POLAR.0>
0

>  <SCORE.INTRA.REPUL>
0

>  <SCORE.INTRA.REPUL.0>
0

>  <SCORE.INTRA.SOLV>
-2.65384

>  <SCORE.INTRA.SOLV.lig_0>
-39.6315

>  <SCORE.INTRA.VDW>
1.60408

>  <SCORE.INTRA.VDW.0>
-4.02152

>  <SCORE.INTRA.norm>
-0.0371274

>  <SCORE.RESTR>
0

>  <SCORE.RESTR.CAVITY>
0

>  <SCORE.RESTR.norm>
0

>  <SCORE.SYSTEM>
0

>  <SCORE.SYSTEM.CONST>
0

>  <SCORE.SYSTEM.DIHEDRAL>
0

>  <SCORE.SYSTEM.SOLV>
0

>  <SCORE.SYSTEM.norm>
0

>  <SCORE.heavy>
27

>  <SCORE.norm>
-0.607229

>  <RMSD>
6.047

$$$$
lig.pdb
 OpenBabel11021811493D
libRbt.so/2013.1/901 2013/11/27
 27 29  0  0  0  0  0  0  0  0999 V2000
    7.2449  -13.1355  -13.3579 N   0  0  0  0  0  0  0  0  0  0  0  0
    8.4265  -13.9749  -12.9930 C   0  0  2  0  0  0  0  0  0  0  0  0
    8.9404  -14.6841  -14.2424 C   0  0  0  0  0  0  0  0  0  0  0  0
    8.1983  -15.4428  -14.8551 O   0  0  0  0  0  0  0  0  0  0  0  0
   10.0908  -14.5335  -14.6735 O   0  0  0  0  0  0  0  0  0  0  0  0
    8.1507  -14.9671  -11.8452 C   0  0  0  0  0  0  0  0  0  0  0  0
    6.6820  -15.4316  -11.6619 C   0  0  0  0  0  0  0  0  0  0  0  0
    6.2820  -16.6136  -10.3030 S   0  0  2  0  0  0  0  0  0  0  0  0
    4.4834  -16.7083  -10.4283 C   0  0  0  0  0  0  0  0  0  0  0  0
    6.4309  -15.6093   -8.8093 C   0  0  0  0  0  0  0  0  0  0  0  0
    6.7682  -16.5019   -7.6223 C   0  0  1  0  0  0  0  0  0  0  0  0
    7.1464  -15.7612   -6.4718 O   0  0  0  0  0  0  0  0  0  0  0  0
    5.6007  -17.3272   -7.1520 C   0  0  1  0  0  0  0  0  0  0  0  0
    5.4226  -18.4320   -7.9908 O   0  0  0  0  0  0  0  0  0  0  0  0
    6.0681  -17.7051   -5.7638 C   0  0  1  0  0  0  0  0  0  0  0  0
    6.9399  -18.8153   -5.8288 O   0  0  0  0  0  0  0  0  0  0  0  0
    6.8527  -16.4864   -5.2909 C   0  0  2  0  0  0  0  0  0  0  0  0
    6.1563  -15.6395   -4.2840 N   0  0  0  0  0  0  0  0  0  0  0  0
    5.3478  -14.5686   -4.5713 C   0  0  0  0  0  0  0  0  0  0  0  0
    4.8867  -14.0383   -3.4165 N   0  0  0  0  0  0  0  0  0  0  0  0
    5.3756  -14.7527   -2.3896 C   0  0  0  0  0  0  0  0  0  0  0  0
    5.2101  -14.6428   -1.0173 C   0  0  0  0  0  0  0  0  0  0  0  0
    4.4422  -13.6879   -0.5094 N   0  0  0  0  0  0  0  0  0  0  0  0
    5.8489  -15.5430   -0.1877 N   0  0  0  0  0  0  0  0  0  0  0  0
    6.6482  -16.5539   -0.7063 C   0  0  0  0  0  0  0  0  0  0  0  0
    6.7964  -16.6510   -2.0750 N   0  0  0  0  0  0  0  0  0  0  0  0
    6.1790  -15.7646   -2.9093 C   0  0  0  0  0  0  0  0  0  0  0  0
  2  3  1  6  0  0  0
  2  6  1  0  0  0  0
  2  1  1  0  0  0  0
  4  3  2  0  0  0  0
  5  3  1  0  0  0  0
  6  7  2  0  0  0  0
  8  7  1  6  0  0  0
  8  9  1  0  0  0  0
  8 10  1  0  0  0  0
 11 10  1  6  0  0  0
 11 13  1  0  0  0  0
 12 11  1  0  0  0  0
 12 17  1  0  0  0  0
 13 14  1  6  0  0  0
 13 15  1  0  0  0  0
 15 16  1  6  0  0  0
 17 18  1  1  0  0  0
 17 15  1  0  0  0  0
 18 19  1  0  0  0  0
 20 19  2  0  0  0  0
 21 27  2  0  0  0  0
 21 20  1  0  0  0  0
 22 21  1  0  0  0  0
 23 22  1  0  0  0  0
 24 22  2  0  0  0  0
 24 25  1  0  0  0  0
 25 26  2  0  0  0  0
 26 27  1  0  0  0  0
 27 18  1  0  0  0  0
M  END
>  <CHROM.1>
-59.71202346,26.44953395,175.21868726,-153.97128525,168.87678676,28.63484543
6.54815608,-15.77988668,-7.34846727,-0.69668982,1.31311093,0.75543797

>  <Name>
lig.pdb

>  <RI>
0

>  <Rbt.Current_Directory>
/home/itssahil/PROJECTS/Mol_Feturizer/New_Systems/rnas/4b5r

>  <Rbt.Executable>
rbdock ($Id: //depot/dev/client3/rdock/2013.1/src/exe/rbdock.cxx#4 $)

>  <Rbt.Library>
libRbt.so (2013.1, Build901 2013/11/27)

>  <Rbt.Parameter_File>
/export/apps/rDock/src/rDock_2013.1_src/data/scripts/dock_solv.prm

>  <Rbt.Receptor>
prm/blind_docking_60.prm

>  <SCORE>
-16.5717

>  <SCORE.INTER>
-17.6333

>  <SCORE.INTER.CONST>
1

>  <SCORE.INTER.POLAR>
0

>  <SCORE.INTER.ROT>
6

>  <SCORE.INTER.SOLV>
13.6834

>  <SCORE.INTER.VDW>
-23.9167

>  <SCORE.INTER.norm>
-0.653086

>  <SCORE.INTRA>
1.06047

>  <SCORE.INTRA.DIHEDRAL>
1.23805

>  <SCORE.INTRA.DIHEDRAL.0>
10.2917

>  <SCORE.INTRA.POLAR>
0

>  <SCORE.INTRA.POLAR.0>
0

>  <SCORE.INTRA.REPUL>
0

>  <SCORE.INTRA.REPUL.0>
0

>  <SCORE.INTRA.SOLV>
-2.24334

>  <SCORE.INTRA.SOLV.lig_0>
-39.6315

>  <SCORE.INTRA.VDW>
1.56312

>  <SCORE.INTRA.VDW.0>
-4.02152

>  <SCORE.INTRA.norm>
0.0392766

>  <SCORE.RESTR>
0.00114901

>  <SCORE.RESTR.CAVITY>
0.00114901

>  <SCORE.RESTR.norm>
4.2556e-05

>  <SCORE.SYSTEM>
0

>  <SCORE.SYSTEM.CONST>
0

>  <SCORE.SYSTEM.DIHEDRAL>
0

>  <SCORE.SYSTEM.SOLV>
0

>  <SCORE.SYSTEM.norm>
0

>  <SCORE.heavy>
27

>  <SCORE.norm>
-0.613767

>  <RMSD>
6.048

$$$$
lig.pdb
 OpenBabel11021811493D
libRbt.so/2013.1/901 2013/11/27
 27 29  0  0  0  0  0  0  0  0999 V2000
    5.9253  -22.8594   -8.8816 N   0  0  0  0  0  0  0  0  0  0  0  0
    4.8112  -22.7593   -9.8729 C   0  0  2  0  0  0  0  0  0  0  0  0
    5.2898  -23.2975  -11.2181 C   0  0  0  0  0  0  0  0  0  0  0  0
    4.9647  -24.4261  -11.5678 O   0  0  0  0  0  0  0  0  0  0  0  0
    6.0068  -22.6426  -11.9855 O   0  0  0  0  0  0  0  0  0  0  0  0
    4.2224  -21.3400  -10.0019 C   0  0  0  0  0  0  0  0  0  0  0  0
    4.4267  -20.3871   -8.7949 C   0  0  0  0  0  0  0  0  0  0  0  0
    3.7415  -18.6764   -8.8813 S   0  0  2  0  0  0  0  0  0  0  0  0
    5.1026  -17.7100   -8.1937 C   0  0  0  0  0  0  0  0  0  0  0  0
    2.5888  -18.6102   -7.4926 C   0  0  0  0  0  0  0  0  0  0  0  0
    1.9114  -17.2467   -7.4525 C   0  0  1  0  0  0  0  0  0  0  0  0
    2.8325  -16.1845   -7.2564 O   0  0  0  0  0  0  0  0  0  0  0  0
    1.2203  -16.8912   -8.7414 C   0  0  1  0  0  0  0  0  0  0  0  0
   -0.0098  -17.5511   -8.8266 O   0  0  0  0  0  0  0  0  0  0  0  0
    1.0807  -15.3938   -8.5789 C   0  0  1  0  0  0  0  0  0  0  0  0
   -0.0504  -15.0932   -7.7869 O   0  0  0  0  0  0  0  0  0  0  0  0
    2.3386  -14.9831   -7.8215 C   0  0  2  0  0  0  0  0  0  0  0  0
    3.3728  -14.2952   -8.6422 N   0  0  0  0  0  0  0  0  0  0  0  0
    4.4751  -13.6452   -8.1469 C   0  0  0  0  0  0  0  0  0  0  0  0
    5.1925  -13.1409   -9.1757 N   0  0  0  0  0  0  0  0  0  0  0  0
    4.5780  -13.4611  -10.3263 C   0  0  0  0  0  0  0  0  0  0  0  0
    4.8922  -13.2035  -11.6520 C   0  0  0  0  0  0  0  0  0  0  0  0
    5.9866  -12.5204  -11.9607 N   0  0  0  0  0  0  0  0  0  0  0  0
    4.0557  -13.6720  -12.6457 N   0  0  0  0  0  0  0  0  0  0  0  0
    2.9115  -14.3970  -12.3374 C   0  0  0  0  0  0  0  0  0  0  0  0
    2.6183  -14.6486  -11.0125 N   0  0  0  0  0  0  0  0  0  0  0  0
    3.4296  -14.1858  -10.0172 C   0  0  0  0  0  0  0  0  0  0  0  0
  2  3  1  6  0  0  0
  2  6  1  0  0  0  0
  2  1  1  0  0  0  0
  4  3  2  0  0  0  0
  5  3  1  0  0  0  0
  6  7  2  0  0  0  0
  8  7  1  1  0  0  0
  8  9  1  0  0  0  0
  8 10  1  0  0  0  0
 11 10  1  6  0  0  0
 11 13  1  0  0  0  0
 12 11  1  0  0  0  0
 12 17  1  0  0  0  0
 13 14  1  1  0  0  0
 13 15  1  0  0  0  0
 15 16  1  1  0  0  0
 17 18  1  6  0  0  0
 17 15  1  0  0  0  0
 18 19  1  0  0  0  0
 20 19  2  0  0  0  0
 21 27  2  0  0  0  0
 21 20  1  0  0  0  0
 22 21  1  0  0  0  0
 23 22  1  0  0  0  0
 24 22  2  0  0  0  0
 24 25  1  0  0  0  0
 25 26  2  0  0  0  0
 26 27  1  0  0  0  0
 27 18  1  0  0  0  0
M  END
>  <CHROM.1>
101.50382771,-22.81002881,-137.11046205,-178.73460641,-61.83041753,-71.87063134
3.60767366,-17.29605853,-9.54971816,-1.30889477,0.77662797,-0.13126326

>  <Name>
lig.pdb

>  <RI>
0

>  <Rbt.Current_Directory>
/home/itssahil/PROJECTS/Mol_Feturizer/New_Systems/rnas/4b5r

>  <Rbt.Executable>
rbdock ($Id: //depot/dev/client3/rdock/2013.1/src/exe/rbdock.cxx#4 $)

>  <Rbt.Library>
libRbt.so (2013.1, Build901 2013/11/27)

>  <Rbt.Parameter_File>
/export/apps/rDock/src/rDock_2013.1_src/data/scripts/dock_solv.prm

>  <Rbt.Receptor>
prm/pocket_docking_8.prm

>  <SCORE>
-13.599

>  <SCORE.INTER>
-13.8282

>  <SCORE.INTER.CONST>
1

>  <SCORE.INTER.POLAR>
0

>  <SCORE.INTER.ROT>
6

>  <SCORE.INTER.SOLV>
11.8531

>  <SCORE.INTER.VDW>
-20.7699

>  <SCORE.INTER.norm>
-0.512157

>  <SCORE.INTRA>
0.229248

>  <SCORE.INTRA.DIHEDRAL>
-0.677793

>  <SCORE.INTRA.DIHEDRAL.0>
10.2917

>  <SCORE.INTRA.POLAR>
0

>  <SCORE.INTRA.POLAR.0>
0

>  <SCORE.INTRA.REPUL>
0

>  <SCORE.INTRA.REPUL.0>
0

>  <SCORE.INTRA.SOLV>
-2.20401

>  <SCORE.INTRA.SOLV.lig_0>
-39.6315

>  <SCORE.INTRA.VDW>
1.67015

>  <SCORE.INTRA.VDW.0>
-4.02152

>  <SCORE.INTRA.norm>
0.00849066

>  <SCORE.RESTR>
0

>  <SCORE.RESTR.CAVITY>
0

>  <SCORE.RESTR.norm>
0

>  <SCORE.SYSTEM>
0

>  <SCORE.SYSTEM.CONST>
0

>  <SCORE.SYSTEM.DIHEDRAL>
0

>  <SCORE.SYSTEM.SOLV>
0

>  <SCORE.SYSTEM.norm>
0

>  <SCORE.heavy>
27

>  <SCORE.norm>
-0.503666

>  <RMSD>
6.049

$$$$
lig.pdb
 OpenBabel11021811493D
libRbt.so/2013.1/901 2013/11/27
 27 29  0  0  0  0  0  0  0  0999 V2000
    5.9482  -22.8500   -8.2440 N   0  0  0  0  0  0  0  0  0  0  0  0
    5.0085  -22.0806   -9.1152 C   0  0  2  0  0  0  0  0  0  0  0  0
    5.1899  -22.5277  -10.5627 C   0  0  0  0  0  0  0  0  0  0  0  0
    4.3923  -23.3164  -11.0562 O   0  0  0  0  0  0  0  0  0  0  0  0
    6.1213  -22.1315  -11.2750 O   0  0  0  0  0  0  0  0  0  0  0  0
    5.1396  -20.5512   -8.9686 C   0  0  0  0  0  0  0  0  0  0  0  0
    3.8792  -19.7854   -8.4877 C   0  0  0  0  0  0  0  0  0  0  0  0
    3.9661  -17.9524   -8.2974 S   0  0  2  0  0  0  0  0  0  0  0  0
    5.3625  -17.7753   -7.1668 C   0  0  0  0  0  0  0  0  0  0  0  0
    2.6089  -17.5782   -7.1662 C   0  0  0  0  0  0  0  0  0  0  0  0
    1.7848  -16.4223   -7.7179 C   0  0  1  0  0  0  0  0  0  0  0  0
    2.5899  -15.3437   -8.1692 O   0  0  0  0  0  0  0  0  0  0  0  0
    0.9744  -16.7986   -8.9292 C   0  0  1  0  0  0  0  0  0  0  0  0
   -0.1755  -17.4943   -8.5424 O   0  0  0  0  0  0  0  0  0  0  0  0
    0.6763  -15.4303   -9.5009 C   0  0  1  0  0  0  0  0  0  0  0  0
   -0.4272  -14.8531   -8.8329 O   0  0  0  0  0  0  0  0  0  0  0  0
    1.9263  -14.6157   -9.1872 C   0  0  2  0  0  0  0  0  0  0  0  0
    2.8192  -14.3573  -10.3500 N   0  0  0  0  0  0  0  0  0  0  0  0
    3.9197  -13.5376  -10.3382 C   0  0  0  0  0  0  0  0  0  0  0  0
    4.4892  -13.5416  -11.5642 N   0  0  0  0  0  0  0  0  0  0  0  0
    3.7816  -14.3557  -12.3646 C   0  0  0  0  0  0  0  0  0  0  0  0
    3.9372  -14.7196  -13.6935 C   0  0  0  0  0  0  0  0  0  0  0  0
    4.9435  -14.2335  -14.4079 N   0  0  0  0  0  0  0  0  0  0  0  0
    3.0358  -15.5984  -14.2610 N   0  0  0  0  0  0  0  0  0  0  0  0
    1.9830  -16.1228  -13.5220 C   0  0  0  0  0  0  0  0  0  0  0  0
    1.8476  -15.7535  -12.1991 N   0  0  0  0  0  0  0  0  0  0  0  0
    2.7246  -14.8795  -11.6244 C   0  0  0  0  0  0  0  0  0  0  0  0
  2  3  1  6  0  0  0
  2  6  1  0  0  0  0
  2  1  1  0  0  0  0
  4  3  2  0  0  0  0
  5  3  1  0  0  0  0
  6  7  2  0  0  0  0
  8  7  1  1  0  0  0
  8  9  1  0  0  0  0
  8 10  1  0  0  0  0
 11 10  1  6  0  0  0
 11 13  1  0  0  0  0
 12 11  1  0  0  0  0
 12 17  1  0  0  0  0
 13 14  1  1  0  0  0
 13 15  1  0  0  0  0
 15 16  1  1  0  0  0
 17 18  1  6  0  0  0
 17 15  1  0  0  0  0
 18 19  1  0  0  0  0
 20 19  2  0  0  0  0
 21 27  2  0  0  0  0
 21 20  1  0  0  0  0
 22 21  1  0  0  0  0
 23 22  1  0  0  0  0
 24 22  2  0  0  0  0
 24 25  1  0  0  0  0
 25 26  2  0  0  0  0
 26 27  1  0  0  0  0
 27 18  1  0  0  0  0
M  END
>  <CHROM.1>
100.60213323,-119.56356516,-55.80472159,-131.96908255,-46.55011119,-67.63786620
3.29106230,-17.29064527,-10.07030692,0.95005372,-0.97759201,2.34824093

>  <Name>
lig.pdb

>  <RI>
0

>  <Rbt.Current_Directory>
/home/itssahil/PROJECTS/Mol_Feturizer/New_Systems/rnas/4b5r

>  <Rbt.Executable>
rbdock ($Id: //depot/dev/client3/rdock/2013.1/src/exe/rbdock.cxx#4 $)

>  <Rbt.Library>
libRbt.so (2013.1, Build901 2013/11/27)

>  <Rbt.Parameter_File>
/export/apps/rDock/src/rDock_2013.1_src/data/scripts/dock_solv.prm

>  <Rbt.Receptor>
prm/blind_docking_60.prm

>  <SCORE>
-13.6901

>  <SCORE.INTER>
-14.3588

>  <SCORE.INTER.CONST>
1

>  <SCORE.INTER.POLAR>
0

>  <SCORE.INTER.ROT>
6

>  <SCORE.INTER.SOLV>
12.2584

>  <SCORE.INTER.VDW>
-21.2587

>  <SCORE.INTER.norm>
-0.531807

>  <SCORE.INTRA>
0.668704

>  <SCORE.INTRA.DIHEDRAL>
1.63471

>  <SCORE.INTRA.DIHEDRAL.0>
10.2917

>  <SCORE.INTRA.POLAR>
0

>  <SCORE.INTRA.POLAR.0>
0

>  <SCORE.INTRA.REPUL>
0

>  <SCORE.INTRA.REPUL.0>
0

>  <SCORE.INTRA.SOLV>
-2.91587

>  <SCORE.INTRA.SOLV.lig_0>
-39.6315

>  <SCORE.INTRA.VDW>
1.30928

>  <SCORE.INTRA.VDW.0>
-4.02152

>  <SCORE.INTRA.norm>
0.0247668

>  <SCORE.RESTR>
0

>  <SCORE.RESTR.CAVITY>
0

>  <SCORE.RESTR.norm>
0

>  <SCORE.SYSTEM>
0

>  <SCORE.SYSTEM.CONST>
0

>  <SCORE.SYSTEM.DIHEDRAL>
0

>  <SCORE.SYSTEM.SOLV>
0

>  <SCORE.SYSTEM.norm>
0

>  <SCORE.heavy>
27

>  <SCORE.norm>
-0.50704

>  <RMSD>
6.050

$$$$
lig.pdb
 OpenBabel11021811493D
libRbt.so/2013.1/901 2013/11/27
 27 29  0  0  0  0  0  0  0  0999 V2000
    2.4832  -14.0160   -9.0098 N   0  0  0  0  0  0  0  0  0  0  0  0
    2.2008  -14.5174   -7.6304 C   0  0  2  0  0  0  0  0  0  0  0  0
    1.6731  -13.3665   -6.7788 C   0  0  0  0  0  0  0  0  0  0  0  0
    0.9155  -12.5429   -7.2783 O   0  0  0  0  0  0  0  0  0  0  0  0
    1.9808  -13.2166   -5.5894 O   0  0  0  0  0  0  0  0  0  0  0  0
    3.4052  -15.2145   -6.9660 C   0  0  0  0  0  0  0  0  0  0  0  0
    3.3925  -16.7657   -6.9504 C   0  0  0  0  0  0  0  0  0  0  0  0
    4.8005  -17.6626   -6.1651 S   0  0  2  0  0  0  0  0  0  0  0  0
    5.8659  -16.2923   -5.6683 C   0  0  0  0  0  0  0  0  0  0  0  0
    5.7440  -18.2872   -7.5727 C   0  0  0  0  0  0  0  0  0  0  0  0
    4.8913  -19.2668   -8.3681 C   0  0  1  0  0  0  0  0  0  0  0  0
    3.7476  -18.6535   -8.9436 O   0  0  0  0  0  0  0  0  0  0  0  0
    5.6149  -19.8586   -9.5478 C   0  0  1  0  0  0  0  0  0  0  0  0
    6.4733  -20.8784   -9.1244 O   0  0  0  0  0  0  0  0  0  0  0  0
    4.4473  -20.3664  -10.3646 C   0  0  1  0  0  0  0  0  0  0  0  0
    4.0248  -21.6249   -9.8803 O   0  0  0  0  0  0  0  0  0  0  0  0
    3.3449  -19.3437  -10.1133 C   0  0  2  0  0  0  0  0  0  0  0  0
    3.0830  -18.4083  -11.2414 N   0  0  0  0  0  0  0  0  0  0  0  0
    1.8415  -18.0118  -11.6711 C   0  0  0  0  0  0  0  0  0  0  0  0
    1.9830  -17.1612  -12.7121 N   0  0  0  0  0  0  0  0  0  0  0  0
    3.2931  -16.9945  -12.9566 C   0  0  0  0  0  0  0  0  0  0  0  0
    3.9755  -16.2319  -13.8922 C   0  0  0  0  0  0  0  0  0  0  0  0
    3.3091  -15.4833  -14.7611 N   0  0  0  0  0  0  0  0  0  0  0  0
    5.3561  -16.2570  -13.9038 N   0  0  0  0  0  0  0  0  0  0  0  0
    6.0671  -17.0289  -12.9936 C   0  0  0  0  0  0  0  0  0  0  0  0
    5.3708  -17.7767  -12.0660 N   0  0  0  0  0  0  0  0  0  0  0  0
    4.0060  -17.7703  -12.0457 C   0  0  0  0  0  0  0  0  0  0  0  0
  2  3  1  1  0  0  0
  2  6  1  0  0  0  0
  2  1  1  0  0  0  0
  4  3  2  0  0  0  0
  5  3  1  0  0  0  0
  6  7  2  0  0  0  0
  8  7  1  6  0  0  0
  8  9  1  0  0  0  0
  8 10  1  0  0  0  0
 11 10  1  6  0  0  0
 11 13  1  0  0  0  0
 12 11  1  0  0  0  0
 12 17  1  0  0  0  0
 13 14  1  1  0  0  0
 13 15  1  0  0  0  0
 15 16  1  1  0  0  0
 17 18  1  6  0  0  0
 17 15  1  0  0  0  0
 18 19  1  0  0  0  0
 20 19  2  0  0  0  0
 21 27  2  0  0  0  0
 21 20  1  0  0  0  0
 22 21  1  0  0  0  0
 23 22  1  0  0  0  0
 24 22  2  0  0  0  0
 24 25  1  0  0  0  0
 25 26  2  0  0  0  0
 26 27  1  0  0  0  0
 27 18  1  0  0  0  0
M  END
>  <CHROM.1>
38.16158545,-101.67655822,-1.92282440,-62.94922755,63.76772822,-102.28989497
3.87607007,-17.18201052,-9.54059531,2.06073624,-1.08928148,1.44387201

>  <Name>
lig.pdb

>  <RI>
0

>  <Rbt.Current_Directory>
/home/itssahil/PROJECTS/Mol_Feturizer/New_Systems/rnas/4b5r

>  <Rbt.Executable>
rbdock ($Id: //depot/dev/client3/rdock/2013.1/src/exe/rbdock.cxx#4 $)

>  <Rbt.Library>
libRbt.so (2013.1, Build901 2013/11/27)

>  <Rbt.Parameter_File>
/export/apps/rDock/src/rDock_2013.1_src/data/scripts/dock_solv.prm

>  <Rbt.Receptor>
prm/blind_docking_100.prm

>  <SCORE>
-12.4409

>  <SCORE.INTER>
-12.5229

>  <SCORE.INTER.CONST>
1

>  <SCORE.INTER.POLAR>
0

>  <SCORE.INTER.ROT>
6

>  <SCORE.INTER.SOLV>
14.6043

>  <SCORE.INTER.VDW>
-20.8167

>  <SCORE.INTER.norm>
-0.463811

>  <SCORE.INTRA>
0.0820176

>  <SCORE.INTRA.DIHEDRAL>
-2.14027

>  <SCORE.INTRA.DIHEDRAL.0>
10.2917

>  <SCORE.INTRA.POLAR>
0

>  <SCORE.INTRA.POLAR.0>
0

>  <SCORE.INTRA.REPUL>
0

>  <SCORE.INTRA.REPUL.0>
0

>  <SCORE.INTRA.SOLV>
-2.70522

>  <SCORE.INTRA.SOLV.lig_0>
-39.6315

>  <SCORE.INTRA.VDW>
2.50476

>  <SCORE.INTRA.VDW.0>
-4.02152

>  <SCORE.INTRA.norm>
0.00303769

>  <SCORE.RESTR>
0

>  <SCORE.RESTR.CAVITY>
0

>  <SCORE.RESTR.norm>
0

>  <SCORE.SYSTEM>
0

>  <SCORE.SYSTEM.CONST>
0

>  <SCORE.SYSTEM.DIHEDRAL>
0

>  <SCORE.SYSTEM.SOLV>
0

>  <SCORE.SYSTEM.norm>
0

>  <SCORE.heavy>
27

>  <SCORE.norm>
-0.460773

>  <RMSD>
6.055

$$$$
lig.pdb
 OpenBabel11021811493D
libRbt.so/2013.1/901 2013/11/27
 27 29  0  0  0  0  0  0  0  0999 V2000
    5.5247  -14.7495  -17.6248 N   0  0  0  0  0  0  0  0  0  0  0  0
    5.1364  -14.3005  -16.2531 C   0  0  2  0  0  0  0  0  0  0  0  0
    6.2295  -13.3931  -15.6965 C   0  0  0  0  0  0  0  0  0  0  0  0
    7.4049  -13.7177  -15.8186 O   0  0  0  0  0  0  0  0  0  0  0  0
    5.9852  -12.3294  -15.1127 O   0  0  0  0  0  0  0  0  0  0  0  0
    4.8113  -15.4605  -15.2905 C   0  0  0  0  0  0  0  0  0  0  0  0
    3.5165  -15.3254  -14.4468 C   0  0  0  0  0  0  0  0  0  0  0  0
    3.0722  -16.6751  -13.2702 S   0  0  2  0  0  0  0  0  0  0  0  0
    1.7976  -15.8756  -12.2723 C   0  0  0  0  0  0  0  0  0  0  0  0
    4.4347  -16.6706  -12.0848 C   0  0  0  0  0  0  0  0  0  0  0  0
    4.5301  -18.0313  -11.4073 C   0  0  1  0  0  0  0  0  0  0  0  0
    5.6756  -18.1492  -10.5771 O   0  0  0  0  0  0  0  0  0  0  0  0
    3.3804  -18.3109  -10.4769 C   0  0  1  0  0  0  0  0  0  0  0  0
    2.2538  -18.7022  -11.2073 O   0  0  0  0  0  0  0  0  0  0  0  0
    3.9639  -19.4287   -9.6413 C   0  0  1  0  0  0  0  0  0  0  0  0
    3.8317  -20.6624  -10.3175 O   0  0  0  0  0  0  0  0  0  0  0  0
    5.4440  -19.0791   -9.5339 C   0  0  2  0  0  0  0  0  0  0  0  0
    5.8711  -18.5416   -8.2129 N   0  0  0  0  0  0  0  0  0  0  0  0
    6.0290  -19.2825   -7.0687 C   0  0  0  0  0  0  0  0  0  0  0  0
    6.4256  -18.4690   -6.0645 N   0  0  0  0  0  0  0  0  0  0  0  0
    6.5349  -17.2182   -6.5418 C   0  0  0  0  0  0  0  0  0  0  0  0
    6.9098  -16.0241   -5.9451 C   0  0  0  0  0  0  0  0  0  0  0  0
    7.2479  -15.9929   -4.6628 N   0  0  0  0  0  0  0  0  0  0  0  0
    6.9328  -14.8704   -6.7036 N   0  0  0  0  0  0  0  0  0  0  0  0
    6.5907  -14.8901   -8.0498 C   0  0  0  0  0  0  0  0  0  0  0  0
    6.2258  -16.0891   -8.6277 N   0  0  0  0  0  0  0  0  0  0  0  0
    6.1895  -17.2375   -7.8908 C   0  0  0  0  0  0  0  0  0  0  0  0
  2  3  1  1  0  0  0
  2  6  1  0  0  0  0
  2  1  1  0  0  0  0
  4  3  2  0  0  0  0
  5  3  1  0  0  0  0
  6  7  2  0  0  0  0
  8  7  1  6  0  0  0
  8  9  1  0  0  0  0
  8 10  1  0  0  0  0
 11 10  1  1  0  0  0
 11 13  1  0  0  0  0
 12 11  1  0  0  0  0
 12 17  1  0  0  0  0
 13 14  1  6  0  0  0
 13 15  1  0  0  0  0
 15 16  1  6  0  0  0
 17 18  1  1  0  0  0
 17 15  1  0  0  0  0
 18 19  1  0  0  0  0
 20 19  2  0  0  0  0
 21 27  2  0  0  0  0
 21 20  1  0  0  0  0
 22 21  1  0  0  0  0
 23 22  1  0  0  0  0
 24 22  2  0  0  0  0
 24 25  1  0  0  0  0
 25 26  2  0  0  0  0
 26 27  1  0  0  0  0
 27 18  1  0  0  0  0
M  END
>  <CHROM.1>
-44.95322445,-133.34594821,166.04776066,-157.10611008,173.10537840,-166.09286770
5.12657207,-16.65124603,-10.95942358,-1.75892426,0.86042301,2.05421544

>  <Name>
lig.pdb

>  <RI>
0

>  <Rbt.Current_Directory>
/home/itssahil/PROJECTS/Mol_Feturizer/New_Systems/rnas/4b5r

>  <Rbt.Executable>
rbdock ($Id: //depot/dev/client3/rdock/2013.1/src/exe/rbdock.cxx#4 $)

>  <Rbt.Library>
libRbt.so (2013.1, Build901 2013/11/27)

>  <Rbt.Parameter_File>
/export/apps/rDock/src/rDock_2013.1_src/data/scripts/dock_solv.prm

>  <Rbt.Receptor>
prm/pocket_docking_7.prm

>  <SCORE>
-11.5364

>  <SCORE.INTER>
-11.3711

>  <SCORE.INTER.CONST>
1

>  <SCORE.INTER.POLAR>
0

>  <SCORE.INTER.ROT>
6

>  <SCORE.INTER.SOLV>
11.671

>  <SCORE.INTER.VDW>
-19.0711

>  <SCORE.INTER.norm>
-0.421153

>  <SCORE.INTRA>
-0.16526

>  <SCORE.INTRA.DIHEDRAL>
-0.491599

>  <SCORE.INTRA.DIHEDRAL.0>
10.2917

>  <SCORE.INTRA.POLAR>
0

>  <SCORE.INTRA.POLAR.0>
0

>  <SCORE.INTRA.REPUL>
0

>  <SCORE.INTRA.REPUL.0>
0

>  <SCORE.INTRA.SOLV>
-2.4408

>  <SCORE.INTRA.SOLV.lig_0>
-39.6315

>  <SCORE.INTRA.VDW>
1.30094

>  <SCORE.INTRA.VDW.0>
-4.02152

>  <SCORE.INTRA.norm>
-0.00612073

>  <SCORE.RESTR>
0

>  <SCORE.RESTR.CAVITY>
0

>  <SCORE.RESTR.norm>
0

>  <SCORE.SYSTEM>
0

>  <SCORE.SYSTEM.CONST>
0

>  <SCORE.SYSTEM.DIHEDRAL>
0

>  <SCORE.SYSTEM.SOLV>
0

>  <SCORE.SYSTEM.norm>
0

>  <SCORE.heavy>
27

>  <SCORE.norm>
-0.427274

>  <RMSD>
6.056

$$$$
lig.pdb
 OpenBabel11021811493D
libRbt.so/2013.1/901 2013/11/27
 27 29  0  0  0  0  0  0  0  0999 V2000
    3.1858  -16.2171  -10.3740 N   0  0  0  0  0  0  0  0  0  0  0  0
    3.6417  -16.3210  -11.7936 C   0  0  2  0  0  0  0  0  0  0  0  0
    2.6629  -17.1974  -12.5696 C   0  0  0  0  0  0  0  0  0  0  0  0
    2.5514  -18.3827  -12.2789 O   0  0  0  0  0  0  0  0  0  0  0  0
    1.9671  -16.7659  -13.4977 O   0  0  0  0  0  0  0  0  0  0  0  0
    5.0944  -16.8161  -11.9430 C   0  0  0  0  0  0  0  0  0  0  0  0
    5.4188  -18.2153  -11.3570 C   0  0  0  0  0  0  0  0  0  0  0  0
    7.1400  -18.8648  -11.4962 S   0  0  2  0  0  0  0  0  0  0  0  0
    7.5147  -18.5186  -13.2280 C   0  0  0  0  0  0  0  0  0  0  0  0
    6.9125  -20.6542  -11.5855 C   0  0  0  0  0  0  0  0  0  0  0  0
    6.3976  -21.1736  -10.2496 C   0  0  1  0  0  0  0  0  0  0  0  0
    7.0842  -20.6092   -9.1427 O   0  0  0  0  0  0  0  0  0  0  0  0
    4.9557  -20.8249   -9.9953 C   0  0  1  0  0  0  0  0  0  0  0  0
    4.1181  -21.6899  -10.7067 O   0  0  0  0  0  0  0  0  0  0  0  0
    4.8809  -21.0243   -8.4977 C   0  0  1  0  0  0  0  0  0  0  0  0
    4.6947  -22.3925   -8.1971 O   0  0  0  0  0  0  0  0  0  0  0  0
    6.2532  -20.5894   -7.9956 C   0  0  2  0  0  0  0  0  0  0  0  0
    6.2858  -19.2655   -7.3155 N   0  0  0  0  0  0  0  0  0  0  0  0
    6.0801  -18.0544   -7.9269 C   0  0  0  0  0  0  0  0  0  0  0  0
    6.1826  -17.0695   -7.0066 N   0  0  0  0  0  0  0  0  0  0  0  0
    6.4420  -17.6234   -5.8108 C   0  0  0  0  0  0  0  0  0  0  0  0
    6.6276  -17.0740   -4.5514 C   0  0  0  0  0  0  0  0  0  0  0  0
    6.5552  -15.7611   -4.3758 N   0  0  0  0  0  0  0  0  0  0  0  0
    6.8820  -17.9103   -3.4825 N   0  0  0  0  0  0  0  0  0  0  0  0
    6.9510  -19.2876   -3.6501 C   0  0  0  0  0  0  0  0  0  0  0  0
    6.7579  -19.8167   -4.9100 N   0  0  0  0  0  0  0  0  0  0  0  0
    6.5136  -19.0040   -5.9792 C   0  0  0  0  0  0  0  0  0  0  0  0
  2  3  1  6  0  0  0
  2  6  1  0  0  0  0
  2  1  1  0  0  0  0
  4  3  2  0  0  0  0
  5  3  1  0  0  0  0
  6  7  2  0  0  0  0
  8  7  1  6  0  0  0
  8  9  1  0  0  0  0
  8 10  1  0  0  0  0
 11 10  1  6  0  0  0
 11 13  1  0  0  0  0
 12 11  1  0  0  0  0
 12 17  1  0  0  0  0
 13 14  1  6  0  0  0
 13 15  1  0  0  0  0
 15 16  1  6  0  0  0
 17 18  1  6  0  0  0
 17 15  1  0  0  0  0
 18 19  1  0  0  0  0
 20 19  2  0  0  0  0
 21 27  2  0  0  0  0
 21 20  1  0  0  0  0
 22 21  1  0  0  0  0
 23 22  1  0  0  0  0
 24 22  2  0  0  0  0
 24 25  1  0  0  0  0
 25 26  2  0  0  0  0
 26 27  1  0  0  0  0
 27 18  1  0  0  0  0
M  END
>  <CHROM.1>
-65.01061697,59.66022999,-46.70429896,-68.13897791,-44.18255129,51.29593773
5.58826147,-18.82919923,-9.09128044,2.35325863,1.12384711,-2.27109576

>  <Name>
lig.pdb

>  <RI>
0

>  <Rbt.Current_Directory>
/home/itssahil/PROJECTS/Mol_Feturizer/New_Systems/rnas/4b5r

>  <Rbt.Executable>
rbdock ($Id: //depot/dev/client3/rdock/2013.1/src/exe/rbdock.cxx#4 $)

>  <Rbt.Library>
libRbt.so (2013.1, Build901 2013/11/27)

>  <Rbt.Parameter_File>
/export/apps/rDock/src/rDock_2013.1_src/data/scripts/dock_solv.prm

>  <Rbt.Receptor>
prm/blind_docking_80.prm

>  <SCORE>
-11.4046

>  <SCORE.INTER>
-11.5054

>  <SCORE.INTER.CONST>
1

>  <SCORE.INTER.POLAR>
0

>  <SCORE.INTER.ROT>
6

>  <SCORE.INTER.SOLV>
11.2712

>  <SCORE.INTER.VDW>
-19.0273

>  <SCORE.INTER.norm>
-0.426127

>  <SCORE.INTRA>
0.100845

>  <SCORE.INTRA.DIHEDRAL>
0.0433835

>  <SCORE.INTRA.DIHEDRAL.0>
10.2917

>  <SCORE.INTRA.POLAR>
0

>  <SCORE.INTRA.POLAR.0>
0

>  <SCORE.INTRA.REPUL>
0

>  <SCORE.INTRA.REPUL.0>
0

>  <SCORE.INTRA.SOLV>
-1.93606

>  <SCORE.INTRA.SOLV.lig_0>
-39.6315

>  <SCORE.INTRA.VDW>
1.04719

>  <SCORE.INTRA.VDW.0>
-4.02152

>  <SCORE.INTRA.norm>
0.00373499

>  <SCORE.RESTR>
0

>  <SCORE.RESTR.CAVITY>
0

>  <SCORE.RESTR.norm>
0

>  <SCORE.SYSTEM>
0

>  <SCORE.SYSTEM.CONST>
0

>  <SCORE.SYSTEM.DIHEDRAL>
0

>  <SCORE.SYSTEM.SOLV>
0

>  <SCORE.SYSTEM.norm>
0

>  <SCORE.heavy>
27

>  <SCORE.norm>
-0.422392

>  <RMSD>
6.061

$$$$
lig.pdb
 OpenBabel11021811493D
libRbt.so/2013.1/901 2013/11/27
 27 29  0  0  0  0  0  0  0  0999 V2000
    6.9576  -12.9364  -15.0773 N   0  0  0  0  0  0  0  0  0  0  0  0
    5.7417  -12.9528  -14.2082 C   0  0  2  0  0  0  0  0  0  0  0  0
    5.9068  -11.9185  -13.0987 C   0  0  0  0  0  0  0  0  0  0  0  0
    7.0307  -11.5496  -12.7786 O   0  0  0  0  0  0  0  0  0  0  0  0
    4.9466  -11.4282  -12.4909 O   0  0  0  0  0  0  0  0  0  0  0  0
    5.4024  -14.3472  -13.6439 C   0  0  0  0  0  0  0  0  0  0  0  0
    3.9987  -14.9145  -13.9822 C   0  0  0  0  0  0  0  0  0  0  0  0
    3.5262  -16.5754  -13.3328 S   0  0  2  0  0  0  0  0  0  0  0  0
    1.8562  -16.2601  -12.7235 C   0  0  0  0  0  0  0  0  0  0  0  0
    4.4088  -16.6833  -11.7608 C   0  0  0  0  0  0  0  0  0  0  0  0
    4.5186  -18.1408  -11.3328 C   0  0  1  0  0  0  0  0  0  0  0  0
    5.6057  -18.3704  -10.4492 O   0  0  0  0  0  0  0  0  0  0  0  0
    3.3193  -18.6231  -10.5618 C   0  0  1  0  0  0  0  0  0  0  0  0
    2.2677  -18.9115  -11.4375 O   0  0  0  0  0  0  0  0  0  0  0  0
    3.8927  -19.8547   -9.8966 C   0  0  1  0  0  0  0  0  0  0  0  0
    3.8673  -20.9481  -10.7915 O   0  0  0  0  0  0  0  0  0  0  0  0
    5.3433  -19.4820   -9.6113 C   0  0  2  0  0  0  0  0  0  0  0  0
    5.6486  -19.1807   -8.1857 N   0  0  0  0  0  0  0  0  0  0  0  0
    5.6521  -20.0972   -7.1645 C   0  0  0  0  0  0  0  0  0  0  0  0
    5.9724  -19.4730   -6.0090 N   0  0  0  0  0  0  0  0  0  0  0  0
    6.1843  -18.1721   -6.2673 C   0  0  0  0  0  0  0  0  0  0  0  0
    6.5427  -17.1082   -5.4535 C   0  0  0  0  0  0  0  0  0  0  0  0
    6.7425  -17.2951   -4.1555 N   0  0  0  0  0  0  0  0  0  0  0  0
    6.6949  -15.8545   -6.0120 N   0  0  0  0  0  0  0  0  0  0  0  0
    6.4983  -15.6462   -7.3713 C   0  0  0  0  0  0  0  0  0  0  0  0
    6.1476  -16.7183   -8.1664 N   0  0  0  0  0  0  0  0  0  0  0  0
    5.9848  -17.9627   -7.6296 C   0  0  0  0  0  0  0  0  0  0  0  0
  2  3  1  1  0  0  0
  2  6  1  0  0  0  0
  2  1  1  0  0  0  0
  4  3  2  0  0  0  0
  5  3  1  0  0  0  0
  6  7  2  0  0  0  0
  8  7  1  6  0  0  0
  8  9  1  0  0  0  0
  8 10  1  0  0  0  0
 11 10  1  1  0  0  0
 11 13  1  0  0  0  0
 12 11  1  0  0  0  0
 12 17  1  0  0  0  0
 13 14  1  6  0  0  0
 13 15  1  0  0  0  0
 15 16  1  6  0  0  0
 17 18  1  1  0  0  0
 17 15  1  0  0  0  0
 18 19  1  0  0  0  0
 20 19  2  0  0  0  0
 21 27  2  0  0  0  0
 21 20  1  0  0  0  0
 22 21  1  0  0  0  0
 23 22  1  0  0  0  0
 24 22  2  0  0  0  0
 24 25  1  0  0  0  0
 25 26  2  0  0  0  0
 26 27  1  0  0  0  0
 27 18  1  0  0  0  0
M  END
>  <CHROM.1>
-22.57037706,-121.93458338,134.71890848,-160.52691239,156.34749142,-171.66807048
5.09800561,-16.69835058,-10.34979793,-1.70501028,0.99653829,2.33611473

>  <Name>
lig.pdb

>  <RI>
0

>  <Rbt.Current_Directory>
/home/itssahil/PROJECTS/Mol_Feturizer/New_Systems/rnas/4b5r

>  <Rbt.Executable>
rbdock ($Id: //depot/dev/client3/rdock/2013.1/src/exe/rbdock.cxx#4 $)

>  <Rbt.Library>
libRbt.so (2013.1, Build901 2013/11/27)

>  <Rbt.Parameter_File>
/export/apps/rDock/src/rDock_2013.1_src/data/scripts/dock_solv.prm

>  <Rbt.Receptor>
prm/pocket_docking_7.prm

>  <SCORE>
-11.7942

>  <SCORE.INTER>
-12.2239

>  <SCORE.INTER.CONST>
1

>  <SCORE.INTER.POLAR>
0

>  <SCORE.INTER.ROT>
6

>  <SCORE.INTER.SOLV>
10.6812

>  <SCORE.INTER.VDW>
-19.3097

>  <SCORE.INTER.norm>
-0.452737

>  <SCORE.INTRA>
0.429669

>  <SCORE.INTRA.DIHEDRAL>
0.135405

>  <SCORE.INTRA.DIHEDRAL.0>
10.2917

>  <SCORE.INTRA.POLAR>
0

>  <SCORE.INTRA.POLAR.0>
0

>  <SCORE.INTRA.REPUL>
0

>  <SCORE.INTRA.REPUL.0>
0

>  <SCORE.INTRA.SOLV>
-2.48612

>  <SCORE.INTRA.SOLV.lig_0>
-39.6315

>  <SCORE.INTRA.VDW>
1.60503

>  <SCORE.INTRA.VDW.0>
-4.02152

>  <SCORE.INTRA.norm>
0.0159137

>  <SCORE.RESTR>
0

>  <SCORE.RESTR.CAVITY>
0

>  <SCORE.RESTR.norm>
0

>  <SCORE.SYSTEM>
0

>  <SCORE.SYSTEM.CONST>
0

>  <SCORE.SYSTEM.DIHEDRAL>
0

>  <SCORE.SYSTEM.SOLV>
0

>  <SCORE.SYSTEM.norm>
0

>  <SCORE.heavy>
27

>  <SCORE.norm>
-0.436823

>  <RMSD>
6.067

$$$$
lig.pdb
 OpenBabel11021811493D
libRbt.so/2013.1/901 2013/11/27
 27 29  0  0  0  0  0  0  0  0999 V2000
    6.0971  -13.3721  -11.2404 N   0  0  0  0  0  0  0  0  0  0  0  0
    6.9259  -14.1785  -10.2934 C   0  0  2  0  0  0  0  0  0  0  0  0
    7.7567  -15.1825  -11.0871 C   0  0  0  0  0  0  0  0  0  0  0  0
    7.2033  -16.1358  -11.6226 O   0  0  0  0  0  0  0  0  0  0  0  0
    8.9838  -15.0844  -11.2158 O   0  0  0  0  0  0  0  0  0  0  0  0
    6.1057  -14.8662   -9.1834 C   0  0  0  0  0  0  0  0  0  0  0  0
    6.6701  -14.7768   -7.7412 C   0  0  0  0  0  0  0  0  0  0  0  0
    5.7411  -15.5839   -6.3667 S   0  0  2  0  0  0  0  0  0  0  0  0
    7.0460  -15.8185   -5.1414 C   0  0  0  0  0  0  0  0  0  0  0  0
    5.5433  -17.2880   -6.9312 C   0  0  0  0  0  0  0  0  0  0  0  0
    4.4833  -17.3472   -8.0232 C   0  0  1  0  0  0  0  0  0  0  0  0
    4.8593  -18.1862   -9.1049 O   0  0  0  0  0  0  0  0  0  0  0  0
    3.1791  -17.9313   -7.5506 C   0  0  1  0  0  0  0  0  0  0  0  0
    2.4537  -16.9737   -6.8344 O   0  0  0  0  0  0  0  0  0  0  0  0
    2.5403  -18.2929   -8.8733 C   0  0  1  0  0  0  0  0  0  0  0  0
    1.9256  -17.1559   -9.4444 O   0  0  0  0  0  0  0  0  0  0  0  0
    3.7142  -18.7141   -9.7503 C   0  0  2  0  0  0  0  0  0  0  0  0
    3.8377  -20.1801   -9.9778 N   0  0  0  0  0  0  0  0  0  0  0  0
    3.0139  -20.9306  -10.7785 C   0  0  0  0  0  0  0  0  0  0  0  0
    3.4206  -22.2194  -10.7494 N   0  0  0  0  0  0  0  0  0  0  0  0
    4.4970  -22.3130   -9.9516 C   0  0  0  0  0  0  0  0  0  0  0  0
    5.2964  -23.3865   -9.5895 C   0  0  0  0  0  0  0  0  0  0  0  0
    5.0440  -24.5996  -10.0630 N   0  0  0  0  0  0  0  0  0  0  0  0
    6.3610  -23.1756   -8.7357 N   0  0  0  0  0  0  0  0  0  0  0  0
    6.6427  -21.9089   -8.2398 C   0  0  0  0  0  0  0  0  0  0  0  0
    5.8395  -20.8516   -8.6160 N   0  0  0  0  0  0  0  0  0  0  0  0
    4.7780  -21.0435   -9.4525 C   0  0  0  0  0  0  0  0  0  0  0  0
  2  3  1  6  0  0  0
  2  6  1  0  0  0  0
  2  1  1  0  0  0  0
  4  3  2  0  0  0  0
  5  3  1  0  0  0  0
  6  7  2  0  0  0  0
  8  7  1  6  0  0  0
  8  9  1  0  0  0  0
  8 10  1  0  0  0  0
 11 10  1  1  0  0  0
 11 13  1  0  0  0  0
 12 11  1  0  0  0  0
 12 17  1  0  0  0  0
 13 14  1  6  0  0  0
 13 15  1  0  0  0  0
 15 16  1  6  0  0  0
 17 18  1  1  0  0  0
 17 15  1  0  0  0  0
 18 19  1  0  0  0  0
 20 19  2  0  0  0  0
 21 27  2  0  0  0  0
 21 20  1  0  0  0  0
 22 21  1  0  0  0  0
 23 22  1  0  0  0  0
 24 22  2  0  0  0  0
 24 25  1  0  0  0  0
 25 26  2  0  0  0  0
 26 27  1  0  0  0  0
 27 18  1  0  0  0  0
M  END
>  <CHROM.1>
-70.89517273,-135.06573204,157.17190600,-74.41494328,137.14602860,-167.88441008
5.21226079,-18.21897331,-8.99263475,-1.19495063,-0.84571446,-2.75473228

>  <Name>
lig.pdb

>  <RI>
0

>  <Rbt.Current_Directory>
/home/itssahil/PROJECTS/Mol_Feturizer/New_Systems/rnas/4b5r

>  <Rbt.Executable>
rbdock ($Id: //depot/dev/client3/rdock/2013.1/src/exe/rbdock.cxx#4 $)

>  <Rbt.Library>
libRbt.so (2013.1, Build901 2013/11/27)

>  <Rbt.Parameter_File>
/export/apps/rDock/src/rDock_2013.1_src/data/scripts/dock_solv.prm

>  <Rbt.Receptor>
prm/pocket_docking_8.prm

>  <SCORE>
-11.5406

>  <SCORE.INTER>
-11.4872

>  <SCORE.INTER.CONST>
1

>  <SCORE.INTER.POLAR>
0

>  <SCORE.INTER.ROT>
6

>  <SCORE.INTER.SOLV>
9.37131

>  <SCORE.INTER.VDW>
-18.3819

>  <SCORE.INTER.norm>
-0.425451

>  <SCORE.INTRA>
-0.053455

>  <SCORE.INTRA.DIHEDRAL>
1.345

>  <SCORE.INTRA.DIHEDRAL.0>
10.2917

>  <SCORE.INTRA.POLAR>
0

>  <SCORE.INTRA.POLAR.0>
0

>  <SCORE.INTRA.REPUL>
0

>  <SCORE.INTRA.REPUL.0>
0

>  <SCORE.INTRA.SOLV>
-2.59183

>  <SCORE.INTRA.SOLV.lig_0>
-39.6315

>  <SCORE.INTRA.VDW>
0.569958

>  <SCORE.INTRA.VDW.0>
-4.02152

>  <SCORE.INTRA.norm>
-0.00197981

>  <SCORE.RESTR>
0

>  <SCORE.RESTR.CAVITY>
0

>  <SCORE.RESTR.norm>
0

>  <SCORE.SYSTEM>
0

>  <SCORE.SYSTEM.CONST>
0

>  <SCORE.SYSTEM.DIHEDRAL>
0

>  <SCORE.SYSTEM.SOLV>
0

>  <SCORE.SYSTEM.norm>
0

>  <SCORE.heavy>
27

>  <SCORE.norm>
-0.42743

>  <RMSD>
6.068

$$$$
lig.pdb
 OpenBabel11021811493D
libRbt.so/2013.1/901 2013/11/27
 27 29  0  0  0  0  0  0  0  0999 V2000
    6.4057  -17.6634   -6.0917 N   0  0  0  0  0  0  0  0  0  0  0  0
    5.2973  -18.6604   -5.9850 C   0  0  2  0  0  0  0  0  0  0  0  0
    5.8938  -20.0601   -5.8705 C   0  0  0  0  0  0  0  0  0  0  0  0
    5.1601  -21.0383   -5.9512 O   0  0  0  0  0  0  0  0  0  0  0  0
    7.1019  -20.2615   -5.6918 O   0  0  0  0  0  0  0  0  0  0  0  0
    4.2695  -18.5691   -7.1309 C   0  0  0  0  0  0  0  0  0  0  0  0
    2.7984  -18.2857   -6.7283 C   0  0  0  0  0  0  0  0  0  0  0  0
    1.5168  -18.1706   -8.0503 S   0  0  2  0  0  0  0  0  0  0  0  0
    2.5386  -18.1425   -9.5385 C   0  0  0  0  0  0  0  0  0  0  0  0
    1.0072  -16.4387   -7.9979 C   0  0  0  0  0  0  0  0  0  0  0  0
    2.1608  -15.5791   -7.4981 C   0  0  1  0  0  0  0  0  0  0  0  0
    3.3471  -15.7623   -8.2559 O   0  0  0  0  0  0  0  0  0  0  0  0
    1.8885  -14.1028   -7.6060 C   0  0  1  0  0  0  0  0  0  0  0  0
    1.0633  -13.6870   -6.5562 O   0  0  0  0  0  0  0  0  0  0  0  0
    3.2943  -13.5525   -7.5097 C   0  0  1  0  0  0  0  0  0  0  0  0
    3.6933  -13.4696   -6.1566 O   0  0  0  0  0  0  0  0  0  0  0  0
    4.1517  -14.5971   -8.2155 C   0  0  2  0  0  0  0  0  0  0  0  0
    4.6283  -14.2103   -9.5718 N   0  0  0  0  0  0  0  0  0  0  0  0
    5.7837  -13.5201   -9.8394 C   0  0  0  0  0  0  0  0  0  0  0  0
    5.8972  -13.3458  -11.1751 N   0  0  0  0  0  0  0  0  0  0  0  0
    4.8408  -13.9186  -11.7751 C   0  0  0  0  0  0  0  0  0  0  0  0
    4.4782  -14.0356  -13.1082 C   0  0  0  0  0  0  0  0  0  0  0  0
    5.2478  -13.5231  -14.0594 N   0  0  0  0  0  0  0  0  0  0  0  0
    3.3104  -14.6970  -13.4331 N   0  0  0  0  0  0  0  0  0  0  0  0
    2.4998  -15.2469  -12.4480 C   0  0  0  0  0  0  0  0  0  0  0  0
    2.8800  -15.1256  -11.1269 N   0  0  0  0  0  0  0  0  0  0  0  0
    4.0268  -14.4678  -10.7874 C   0  0  0  0  0  0  0  0  0  0  0  0
  2  3  1  6  0  0  0
  2  6  1  0  0  0  0
  2  1  1  0  0  0  0
  4  3  2  0  0  0  0
  5  3  1  0  0  0  0
  6  7  2  0  0  0  0
  8  7  1  1  0  0  0
  8  9  1  0  0  0  0
  8 10  1  0  0  0  0
 11 10  1  6  0  0  0
 11 13  1  0  0  0  0
 12 11  1  0  0  0  0
 12 17  1  0  0  0  0
 13 14  1  1  0  0  0
 13 15  1  0  0  0  0
 15 16  1  1  0  0  0
 17 18  1  6  0  0  0
 17 15  1  0  0  0  0
 18 19  1  0  0  0  0
 20 19  2  0  0  0  0
 21 27  2  0  0  0  0
 21 20  1  0  0  0  0
 22 21  1  0  0  0  0
 23 22  1  0  0  0  0
 24 22  2  0  0  0  0
 24 25  1  0  0  0  0
 25 26  2  0  0  0  0
 26 27  1  0  0  0  0
 27 18  1  0  0  0  0
M  END
>  <CHROM.1>
-170.33985726,-120.83548018,-10.23957467,28.34781375,54.48576511,-152.53478512
3.77507962,-16.07306435,-8.71250521,-1.46859835,0.65402441,-0.87632907

>  <Name>
lig.pdb

>  <RI>
0

>  <Rbt.Current_Directory>
/home/itssahil/PROJECTS/Mol_Feturizer/New_Systems/rnas/4b5r

>  <Rbt.Executable>
rbdock ($Id: //depot/dev/client3/rdock/2013.1/src/exe/rbdock.cxx#4 $)

>  <Rbt.Library>
libRbt.so (2013.1, Build901 2013/11/27)

>  <Rbt.Parameter_File>
/export/apps/rDock/src/rDock_2013.1_src/data/scripts/dock_solv.prm

>  <Rbt.Receptor>
prm/pocket_docking_8.prm

>  <SCORE>
-14.2382

>  <SCORE.INTER>
-15.2139

>  <SCORE.INTER.CONST>
1

>  <SCORE.INTER.POLAR>
0

>  <SCORE.INTER.ROT>
6

>  <SCORE.INTER.SOLV>
13.2707

>  <SCORE.INTER.VDW>
-22.1662

>  <SCORE.INTER.norm>
-0.563479

>  <SCORE.INTRA>
0.973925

>  <SCORE.INTRA.DIHEDRAL>
-1.5337

>  <SCORE.INTRA.DIHEDRAL.0>
10.2917

>  <SCORE.INTRA.POLAR>
0

>  <SCORE.INTRA.POLAR.0>
0

>  <SCORE.INTRA.REPUL>
0

>  <SCORE.INTRA.REPUL.0>
0

>  <SCORE.INTRA.SOLV>
-1.90769

>  <SCORE.INTRA.SOLV.lig_0>
-39.6315

>  <SCORE.INTRA.VDW>
2.69462

>  <SCORE.INTRA.VDW.0>
-4.02152

>  <SCORE.INTRA.norm>
0.0360713

>  <SCORE.RESTR>
0.00185662

>  <SCORE.RESTR.CAVITY>
0.00185662

>  <SCORE.RESTR.norm>
6.87637e-05

>  <SCORE.SYSTEM>
0

>  <SCORE.SYSTEM.CONST>
0

>  <SCORE.SYSTEM.DIHEDRAL>
0

>  <SCORE.SYSTEM.SOLV>
0

>  <SCORE.SYSTEM.norm>
0

>  <SCORE.heavy>
27

>  <SCORE.norm>
-0.527339

>  <RMSD>
6.079

$$$$
lig.pdb
 OpenBabel11021811493D
libRbt.so/2013.1/901 2013/11/27
 27 29  0  0  0  0  0  0  0  0999 V2000
    6.2272  -14.1190  -10.3761 N   0  0  0  0  0  0  0  0  0  0  0  0
    5.1301  -14.6592  -11.2354 C   0  0  2  0  0  0  0  0  0  0  0  0
    4.4061  -13.4977  -11.9098 C   0  0  0  0  0  0  0  0  0  0  0  0
    3.5072  -13.7287  -12.7101 O   0  0  0  0  0  0  0  0  0  0  0  0
    4.6888  -12.3130  -11.6899 O   0  0  0  0  0  0  0  0  0  0  0  0
    4.1514  -15.5829  -10.4825 C   0  0  0  0  0  0  0  0  0  0  0  0
    3.8487  -16.9581  -11.1336 C   0  0  0  0  0  0  0  0  0  0  0  0
    2.6809  -18.1090  -10.2880 S   0  0  2  0  0  0  0  0  0  0  0  0
    1.1719  -17.1189  -10.2424 C   0  0  0  0  0  0  0  0  0  0  0  0
    3.1658  -18.0056   -8.5513 C   0  0  0  0  0  0  0  0  0  0  0  0
    4.5657  -18.5784   -8.3743 C   0  0  1  0  0  0  0  0  0  0  0  0
    5.4193  -17.7170   -7.6362 O   0  0  0  0  0  0  0  0  0  0  0  0
    4.5846  -19.8630   -7.5902 C   0  0  1  0  0  0  0  0  0  0  0  0
    4.2007  -20.9316   -8.4067 O   0  0  0  0  0  0  0  0  0  0  0  0
    6.0405  -19.9198   -7.1835 C   0  0  1  0  0  0  0  0  0  0  0  0
    6.8202  -20.4484   -8.2369 O   0  0  0  0  0  0  0  0  0  0  0  0
    6.4237  -18.4599   -6.9684 C   0  0  2  0  0  0  0  0  0  0  0  0
    6.5589  -18.0463   -5.5447 N   0  0  0  0  0  0  0  0  0  0  0  0
    6.8279  -18.8894   -4.4960 C   0  0  0  0  0  0  0  0  0  0  0  0
    6.8803  -18.1717   -3.3517 N   0  0  0  0  0  0  0  0  0  0  0  0
    6.6589  -16.8795   -3.6438 C   0  0  0  0  0  0  0  0  0  0  0  0
    6.6143  -15.7412   -2.8533 C   0  0  0  0  0  0  0  0  0  0  0  0
    6.8164  -15.8256   -1.5451 N   0  0  0  0  0  0  0  0  0  0  0  0
    6.3633  -14.5194   -3.4457 N   0  0  0  0  0  0  0  0  0  0  0  0
    6.1593  -14.4149   -4.8158 C   0  0  0  0  0  0  0  0  0  0  0  0
    6.2133  -15.5580   -5.5871 N   0  0  0  0  0  0  0  0  0  0  0  0
    6.4519  -16.7751   -5.0170 C   0  0  0  0  0  0  0  0  0  0  0  0
  2  3  1  1  0  0  0
  2  6  1  0  0  0  0
  2  1  1  0  0  0  0
  4  3  2  0  0  0  0
  5  3  1  0  0  0  0
  6  7  2  0  0  0  0
  8  7  1  6  0  0  0
  8  9  1  0  0  0  0
  8 10  1  0  0  0  0
 11 10  1  1  0  0  0
 11 13  1  0  0  0  0
 12 11  1  0  0  0  0
 12 17  1  0  0  0  0
 13 14  1  6  0  0  0
 13 15  1  0  0  0  0
 15 16  1  6  0  0  0
 17 18  1  1  0  0  0
 17 15  1  0  0  0  0
 18 19  1  0  0  0  0
 20 19  2  0  0  0  0
 21 27  2  0  0  0  0
 21 20  1  0  0  0  0
 22 21  1  0  0  0  0
 23 22  1  0  0  0  0
 24 22  2  0  0  0  0
 24 25  1  0  0  0  0
 25 26  2  0  0  0  0
 26 27  1  0  0  0  0
 27 18  1  0  0  0  0
M  END
>  <CHROM.1>
176.61968422,-129.86031261,59.92439284,-65.93349202,130.67944331,143.28916485
5.12455640,-16.91793937,-7.74406192,-2.62607857,1.14398492,2.81168451

>  <Name>
lig.pdb

>  <RI>
0

>  <Rbt.Current_Directory>
/home/itssahil/PROJECTS/Mol_Feturizer/New_Systems/rnas/4b5r

>  <Rbt.Executable>
rbdock ($Id: //depot/dev/client3/rdock/2013.1/src/exe/rbdock.cxx#4 $)

>  <Rbt.Library>
libRbt.so (2013.1, Build901 2013/11/27)

>  <Rbt.Parameter_File>
/export/apps/rDock/src/rDock_2013.1_src/data/scripts/dock_solv.prm

>  <Rbt.Receptor>
prm/blind_docking_60.prm

>  <SCORE>
-10.0098

>  <SCORE.INTER>
-12.63

>  <SCORE.INTER.CONST>
1

>  <SCORE.INTER.POLAR>
0

>  <SCORE.INTER.ROT>
6

>  <SCORE.INTER.SOLV>
11.4733

>  <SCORE.INTER.VDW>
-19.8445

>  <SCORE.INTER.norm>
-0.467779

>  <SCORE.INTRA>
2.62025

>  <SCORE.INTRA.DIHEDRAL>
3.2818

>  <SCORE.INTRA.DIHEDRAL.0>
10.2917

>  <SCORE.INTRA.POLAR>
0

>  <SCORE.INTRA.POLAR.0>
0

>  <SCORE.INTRA.REPUL>
0.176775

>  <SCORE.INTRA.REPUL.0>
0

>  <SCORE.INTRA.SOLV>
-3.0479

>  <SCORE.INTRA.SOLV.lig_0>
-39.6315

>  <SCORE.INTRA.VDW>
1.61943

>  <SCORE.INTRA.VDW.0>
-4.02152

>  <SCORE.INTRA.norm>
0.0970465

>  <SCORE.RESTR>
0

>  <SCORE.RESTR.CAVITY>
0

>  <SCORE.RESTR.norm>
0

>  <SCORE.SYSTEM>
0

>  <SCORE.SYSTEM.CONST>
0

>  <SCORE.SYSTEM.DIHEDRAL>
0

>  <SCORE.SYSTEM.SOLV>
0

>  <SCORE.SYSTEM.norm>
0

>  <SCORE.heavy>
27

>  <SCORE.norm>
-0.370732

>  <RMSD>
6.099

$$$$
lig.pdb
 OpenBabel11021811493D
libRbt.so/2013.1/901 2013/11/27
 27 29  0  0  0  0  0  0  0  0999 V2000
    5.8859  -13.9798   -5.9867 N   0  0  0  0  0  0  0  0  0  0  0  0
    5.2505  -14.7242   -7.1164 C   0  0  2  0  0  0  0  0  0  0  0  0
    4.6433  -13.7234   -8.0951 C   0  0  0  0  0  0  0  0  0  0  0  0
    3.4997  -13.3210   -7.9166 O   0  0  0  0  0  0  0  0  0  0  0  0
    5.2561  -13.2934   -9.0808 O   0  0  0  0  0  0  0  0  0  0  0  0
    4.2193  -15.7769   -6.6622 C   0  0  0  0  0  0  0  0  0  0  0  0
    4.4247  -17.2244   -7.1812 C   0  0  0  0  0  0  0  0  0  0  0  0
    3.2229  -18.5316   -6.6808 S   0  0  2  0  0  0  0  0  0  0  0  0
    4.2105  -20.0276   -6.8957 C   0  0  0  0  0  0  0  0  0  0  0  0
    2.1333  -18.6775   -8.1137 C   0  0  0  0  0  0  0  0  0  0  0  0
    1.5596  -17.3107   -8.4635 C   0  0  1  0  0  0  0  0  0  0  0  0
    2.4409  -16.5366   -9.2631 O   0  0  0  0  0  0  0  0  0  0  0  0
    0.3019  -17.3899   -9.2865 C   0  0  1  0  0  0  0  0  0  0  0  0
   -0.7915  -17.6904   -8.4679 O   0  0  0  0  0  0  0  0  0  0  0  0
    0.2515  -15.9885   -9.8537 C   0  0  1  0  0  0  0  0  0  0  0  0
   -0.3160  -15.1017   -8.9111 O   0  0  0  0  0  0  0  0  0  0  0  0
    1.7158  -15.6187  -10.0621 C   0  0  2  0  0  0  0  0  0  0  0  0
    2.1761  -15.6383  -11.4777 N   0  0  0  0  0  0  0  0  0  0  0  0
    1.6601  -16.4351  -12.4686 C   0  0  0  0  0  0  0  0  0  0  0  0
    2.3167  -16.1877  -13.6241 N   0  0  0  0  0  0  0  0  0  0  0  0
    3.2410  -15.2396  -13.3991 C   0  0  0  0  0  0  0  0  0  0  0  0
    4.1628  -14.6227  -14.2312 C   0  0  0  0  0  0  0  0  0  0  0  0
    4.2329  -14.9519  -15.5142 N   0  0  0  0  0  0  0  0  0  0  0  0
    5.0016  -13.6581  -13.7090 N   0  0  0  0  0  0  0  0  0  0  0  0
    4.9327  -13.2966  -12.3695 C   0  0  0  0  0  0  0  0  0  0  0  0
    4.0049  -13.9173  -11.5580 N   0  0  0  0  0  0  0  0  0  0  0  0
    3.1737  -14.8789  -12.0557 C   0  0  0  0  0  0  0  0  0  0  0  0
  2  3  1  6  0  0  0
  2  6  1  0  0  0  0
  2  1  1  0  0  0  0
  4  3  2  0  0  0  0
  5  3  1  0  0  0  0
  6  7  2  0  0  0  0
  8  7  1  6  0  0  0
  8  9  1  0  0  0  0
  8 10  1  0  0  0  0
 11 10  1  6  0  0  0
 11 13  1  0  0  0  0
 12 11  1  0  0  0  0
 12 17  1  0  0  0  0
 13 14  1  1  0  0  0
 13 15  1  0  0  0  0
 15 16  1  1  0  0  0
 17 18  1  6  0  0  0
 17 15  1  0  0  0  0
 18 19  1  0  0  0  0
 20 19  2  0  0  0  0
 21 27  2  0  0  0  0
 21 20  1  0  0  0  0
 22 21  1  0  0  0  0
 23 22  1  0  0  0  0
 24 22  2  0  0  0  0
 24 25  1  0  0  0  0
 25 26  2  0  0  0  0
 26 27  1  0  0  0  0
 27 18  1  0  0  0  0
M  END
>  <CHROM.1>
-87.32956906,-125.97869209,-156.97824224,-54.45006821,83.29638164,90.75085230
3.04368543,-15.83972025,-9.72669707,-1.71652831,-0.68739495,-1.22748745

>  <Name>
lig.pdb

>  <RI>
0

>  <Rbt.Current_Directory>
/home/itssahil/PROJECTS/Mol_Feturizer/New_Systems/rnas/4b5r

>  <Rbt.Executable>
rbdock ($Id: //depot/dev/client3/rdock/2013.1/src/exe/rbdock.cxx#4 $)

>  <Rbt.Library>
libRbt.so (2013.1, Build901 2013/11/27)

>  <Rbt.Parameter_File>
/export/apps/rDock/src/rDock_2013.1_src/data/scripts/dock_solv.prm

>  <Rbt.Receptor>
prm/pocket_docking_5.prm

>  <SCORE>
-16.1283

>  <SCORE.INTER>
-15.4597

>  <SCORE.INTER.CONST>
1

>  <SCORE.INTER.POLAR>
0

>  <SCORE.INTER.ROT>
6

>  <SCORE.INTER.SOLV>
16.7206

>  <SCORE.INTER.VDW>
-23.48

>  <SCORE.INTER.norm>
-0.572583

>  <SCORE.INTRA>
-0.668611

>  <SCORE.INTRA.DIHEDRAL>
0.162355

>  <SCORE.INTRA.DIHEDRAL.0>
10.2917

>  <SCORE.INTRA.POLAR>
0

>  <SCORE.INTRA.POLAR.0>
0

>  <SCORE.INTRA.REPUL>
0

>  <SCORE.INTRA.REPUL.0>
0

>  <SCORE.INTRA.SOLV>
-2.32253

>  <SCORE.INTRA.SOLV.lig_0>
-39.6315

>  <SCORE.INTRA.VDW>
0.411477

>  <SCORE.INTRA.VDW.0>
-4.02152

>  <SCORE.INTRA.norm>
-0.0247634

>  <SCORE.RESTR>
0

>  <SCORE.RESTR.CAVITY>
0

>  <SCORE.RESTR.norm>
0

>  <SCORE.SYSTEM>
0

>  <SCORE.SYSTEM.CONST>
0

>  <SCORE.SYSTEM.DIHEDRAL>
0

>  <SCORE.SYSTEM.SOLV>
0

>  <SCORE.SYSTEM.norm>
0

>  <SCORE.heavy>
27

>  <SCORE.norm>
-0.597346

>  <RMSD>
6.132

$$$$
lig.pdb
 OpenBabel11021811493D
libRbt.so/2013.1/901 2013/11/27
 27 29  0  0  0  0  0  0  0  0999 V2000
    6.4816  -14.2980   -5.9624 N   0  0  0  0  0  0  0  0  0  0  0  0
    6.4983  -15.4188   -6.9511 C   0  0  2  0  0  0  0  0  0  0  0  0
    6.0429  -14.8934   -8.3094 C   0  0  0  0  0  0  0  0  0  0  0  0
    6.6241  -15.2586   -9.3245 O   0  0  0  0  0  0  0  0  0  0  0  0
    5.1030  -14.0988   -8.4401 O   0  0  0  0  0  0  0  0  0  0  0  0
    5.6775  -16.6471   -6.5090 C   0  0  0  0  0  0  0  0  0  0  0  0
    4.2589  -16.7951   -7.1192 C   0  0  0  0  0  0  0  0  0  0  0  0
    3.2213  -18.2391   -6.6274 S   0  0  2  0  0  0  0  0  0  0  0  0
    4.3657  -19.6099   -6.8932 C   0  0  0  0  0  0  0  0  0  0  0  0
    2.1264  -18.4771   -8.0439 C   0  0  0  0  0  0  0  0  0  0  0  0
    1.5155  -17.1426   -8.4504 C   0  0  1  0  0  0  0  0  0  0  0  0
    2.3871  -16.3661   -9.2582 O   0  0  0  0  0  0  0  0  0  0  0  0
    0.2783  -17.2910   -9.2945 C   0  0  1  0  0  0  0  0  0  0  0  0
   -0.8213  -17.6009   -8.4877 O   0  0  0  0  0  0  0  0  0  0  0  0
    0.1934  -15.9115   -9.9093 C   0  0  1  0  0  0  0  0  0  0  0  0
   -0.4222  -15.0137   -9.0082 O   0  0  0  0  0  0  0  0  0  0  0  0
    1.6488  -15.4999  -10.1015 C   0  0  2  0  0  0  0  0  0  0  0  0
    2.1385  -15.5505  -11.5064 N   0  0  0  0  0  0  0  0  0  0  0  0
    1.6444  -16.3706  -12.4895 C   0  0  0  0  0  0  0  0  0  0  0  0
    2.3245  -16.1481  -13.6364 N   0  0  0  0  0  0  0  0  0  0  0  0
    3.2424  -15.1932  -13.4139 C   0  0  0  0  0  0  0  0  0  0  0  0
    4.1804  -14.5933  -14.2404 C   0  0  0  0  0  0  0  0  0  0  0  0
    4.2776  -14.9514  -15.5139 N   0  0  0  0  0  0  0  0  0  0  0  0
    5.0065  -13.6154  -13.7229 N   0  0  0  0  0  0  0  0  0  0  0  0
    4.9092  -13.2238  -12.3937 C   0  0  0  0  0  0  0  0  0  0  0  0
    3.9658  -13.8280  -11.5878 N   0  0  0  0  0  0  0  0  0  0  0  0
    3.1466  -14.8023  -12.0806 C   0  0  0  0  0  0  0  0  0  0  0  0
  2  3  1  6  0  0  0
  2  6  1  0  0  0  0
  2  1  1  0  0  0  0
  4  3  2  0  0  0  0
  5  3  1  0  0  0  0
  6  7  2  0  0  0  0
  8  7  1  6  0  0  0
  8  9  1  0  0  0  0
  8 10  1  0  0  0  0
 11 10  1  6  0  0  0
 11 13  1  0  0  0  0
 12 11  1  0  0  0  0
 12 17  1  0  0  0  0
 13 14  1  1  0  0  0
 13 15  1  0  0  0  0
 15 16  1  1  0  0  0
 17 18  1  6  0  0  0
 17 15  1  0  0  0  0
 18 19  1  0  0  0  0
 20 19  2  0  0  0  0
 21 27  2  0  0  0  0
 21 20  1  0  0  0  0
 22 21  1  0  0  0  0
 23 22  1  0  0  0  0
 24 22  2  0  0  0  0
 24 25  1  0  0  0  0
 25 26  2  0  0  0  0
 26 27  1  0  0  0  0
 27 18  1  0  0  0  0
M  END
>  <CHROM.1>
138.46935262,99.90976865,-50.50500729,-48.14676270,81.54726961,92.64751656
3.30375865,-15.94181382,-9.75780726,-1.54870871,-0.38305294,-1.17791583

>  <Name>
lig.pdb

>  <RI>
0

>  <Rbt.Current_Directory>
/home/itssahil/PROJECTS/Mol_Feturizer/New_Systems/rnas/4b5r

>  <Rbt.Executable>
rbdock ($Id: //depot/dev/client3/rdock/2013.1/src/exe/rbdock.cxx#4 $)

>  <Rbt.Library>
libRbt.so (2013.1, Build901 2013/11/27)

>  <Rbt.Parameter_File>
/export/apps/rDock/src/rDock_2013.1_src/data/scripts/dock_solv.prm

>  <Rbt.Receptor>
prm/pocket_docking_4.prm

>  <SCORE>
-16.3012

>  <SCORE.INTER>
-16.5085

>  <SCORE.INTER.CONST>
1

>  <SCORE.INTER.POLAR>
0

>  <SCORE.INTER.ROT>
6

>  <SCORE.INTER.SOLV>
16.6238

>  <SCORE.INTER.VDW>
-24.147

>  <SCORE.INTER.norm>
-0.611428

>  <SCORE.INTRA>
0.197512

>  <SCORE.INTRA.DIHEDRAL>
-0.24166

>  <SCORE.INTRA.DIHEDRAL.0>
10.2917

>  <SCORE.INTRA.POLAR>
0

>  <SCORE.INTRA.POLAR.0>
0

>  <SCORE.INTRA.REPUL>
0

>  <SCORE.INTRA.REPUL.0>
0

>  <SCORE.INTRA.SOLV>
-2.85337

>  <SCORE.INTRA.SOLV.lig_0>
-39.6315

>  <SCORE.INTRA.VDW>
1.74502

>  <SCORE.INTRA.VDW.0>
-4.02152

>  <SCORE.INTRA.norm>
0.00731525

>  <SCORE.RESTR>
0.0098625

>  <SCORE.RESTR.CAVITY>
0.0098625

>  <SCORE.RESTR.norm>
0.000365278

>  <SCORE.SYSTEM>
0

>  <SCORE.SYSTEM.CONST>
0

>  <SCORE.SYSTEM.DIHEDRAL>
0

>  <SCORE.SYSTEM.SOLV>
0

>  <SCORE.SYSTEM.norm>
0

>  <SCORE.heavy>
27

>  <SCORE.norm>
-0.603747

>  <RMSD>
6.137

$$$$
lig.pdb
 OpenBabel11021811493D
libRbt.so/2013.1/901 2013/11/27
 27 29  0  0  0  0  0  0  0  0999 V2000
    4.2742  -13.6273  -11.5375 N   0  0  0  0  0  0  0  0  0  0  0  0
    5.1617  -13.4364  -10.3500 C   0  0  2  0  0  0  0  0  0  0  0  0
    6.6117  -13.3559  -10.8180 C   0  0  0  0  0  0  0  0  0  0  0  0
    7.4926  -13.0803  -10.0118 O   0  0  0  0  0  0  0  0  0  0  0  0
    6.9492  -13.5532  -11.9923 O   0  0  0  0  0  0  0  0  0  0  0  0
    4.9725  -14.5073   -9.2567 C   0  0  0  0  0  0  0  0  0  0  0  0
    4.6464  -13.9968   -7.8286 C   0  0  0  0  0  0  0  0  0  0  0  0
    4.4142  -15.2255   -6.4721 S   0  0  2  0  0  0  0  0  0  0  0  0
    4.7717  -14.2219   -5.0145 C   0  0  0  0  0  0  0  0  0  0  0  0
    5.9217  -16.2180   -6.5358 C   0  0  0  0  0  0  0  0  0  0  0  0
    5.5713  -17.6933   -6.3940 C   0  0  1  0  0  0  0  0  0  0  0  0
    5.0744  -18.2552   -7.5993 O   0  0  0  0  0  0  0  0  0  0  0  0
    6.7594  -18.5540   -6.0580 C   0  0  1  0  0  0  0  0  0  0  0  0
    7.0619  -18.4478   -4.6967 O   0  0  0  0  0  0  0  0  0  0  0  0
    6.2330  -19.9186   -6.4444 C   0  0  1  0  0  0  0  0  0  0  0  0
    5.4422  -20.4491   -5.4004 O   0  0  0  0  0  0  0  0  0  0  0  0
    5.3417  -19.6454   -7.6508 C   0  0  2  0  0  0  0  0  0  0  0  0
    5.9169  -20.0467   -8.9639 N   0  0  0  0  0  0  0  0  0  0  0  0
    6.0523  -21.3376   -9.4092 C   0  0  0  0  0  0  0  0  0  0  0  0
    6.6108  -21.3261  -10.6402 N   0  0  0  0  0  0  0  0  0  0  0  0
    6.8301  -20.0512  -11.0013 C   0  0  0  0  0  0  0  0  0  0  0  0
    7.3649  -19.4882  -12.1500 C   0  0  0  0  0  0  0  0  0  0  0  0
    7.7685  -20.2611  -13.1497 N   0  0  0  0  0  0  0  0  0  0  0  0
    7.4659  -18.1142  -12.2425 N   0  0  0  0  0  0  0  0  0  0  0  0
    7.0382  -17.2923  -11.2074 C   0  0  0  0  0  0  0  0  0  0  0  0
    6.5033  -17.8705  -10.0742 N   0  0  0  0  0  0  0  0  0  0  0  0
    6.4037  -19.2272   -9.9626 C   0  0  0  0  0  0  0  0  0  0  0  0
  2  3  1  6  0  0  0
  2  6  1  0  0  0  0
  2  1  1  0  0  0  0
  4  3  2  0  0  0  0
  5  3  1  0  0  0  0
  6  7  2  0  0  0  0
  8  7  1  6  0  0  0
  8  9  1  0  0  0  0
  8 10  1  0  0  0  0
 11 10  1  6  0  0  0
 11 13  1  0  0  0  0
 12 11  1  0  0  0  0
 12 17  1  0  0  0  0
 13 14  1  1  0  0  0
 13 15  1  0  0  0  0
 15 16  1  1  0  0  0
 17 18  1  6  0  0  0
 17 15  1  0  0  0  0
 18 19  1  0  0  0  0
 20 19  2  0  0  0  0
 21 27  2  0  0  0  0
 21 20  1  0  0  0  0
 22 21  1  0  0  0  0
 23 22  1  0  0  0  0
 24 22  2  0  0  0  0
 24 25  1  0  0  0  0
 25 26  2  0  0  0  0
 26 27  1  0  0  0  0
 27 18  1  0  0  0  0
M  END
>  <CHROM.1>
173.48817031,-124.89745441,156.84203644,-136.45811559,78.42094462,-167.40067872
6.01818961,-17.24076936,-8.81610587,-2.15400747,-1.29485488,2.57534526

>  <Name>
lig.pdb

>  <RI>
0

>  <Rbt.Current_Directory>
/home/itssahil/PROJECTS/Mol_Feturizer/New_Systems/rnas/4b5r

>  <Rbt.Executable>
rbdock ($Id: //depot/dev/client3/rdock/2013.1/src/exe/rbdock.cxx#4 $)

>  <Rbt.Library>
libRbt.so (2013.1, Build901 2013/11/27)

>  <Rbt.Parameter_File>
/export/apps/rDock/src/rDock_2013.1_src/data/scripts/dock_solv.prm

>  <Rbt.Receptor>
prm/blind_docking_80.prm

>  <SCORE>
-10.7726

>  <SCORE.INTER>
-10.9475

>  <SCORE.INTER.CONST>
1

>  <SCORE.INTER.POLAR>
0

>  <SCORE.INTER.ROT>
6

>  <SCORE.INTER.SOLV>
13.5425

>  <SCORE.INTER.VDW>
-19.4125

>  <SCORE.INTER.norm>
-0.405462

>  <SCORE.INTRA>
0.17483

>  <SCORE.INTRA.DIHEDRAL>
1.95181

>  <SCORE.INTRA.DIHEDRAL.0>
10.2917

>  <SCORE.INTRA.POLAR>
0

>  <SCORE.INTRA.POLAR.0>
0

>  <SCORE.INTRA.REPUL>
0

>  <SCORE.INTRA.REPUL.0>
0

>  <SCORE.INTRA.SOLV>
-2.6306

>  <SCORE.INTRA.SOLV.lig_0>
-39.6315

>  <SCORE.INTRA.VDW>
0.514226

>  <SCORE.INTRA.VDW.0>
-4.02152

>  <SCORE.INTRA.norm>
0.0064752

>  <SCORE.RESTR>
0

>  <SCORE.RESTR.CAVITY>
0

>  <SCORE.RESTR.norm>
0

>  <SCORE.SYSTEM>
0

>  <SCORE.SYSTEM.CONST>
0

>  <SCORE.SYSTEM.DIHEDRAL>
0

>  <SCORE.SYSTEM.SOLV>
0

>  <SCORE.SYSTEM.norm>
0

>  <SCORE.heavy>
27

>  <SCORE.norm>
-0.398986

>  <RMSD>
6.145

$$$$
lig.pdb
 OpenBabel11021811493D
libRbt.so/2013.1/901 2013/11/27
 27 29  0  0  0  0  0  0  0  0999 V2000
    4.9954  -13.7328  -21.4053 N   0  0  0  0  0  0  0  0  0  0  0  0
    5.5475  -14.4861  -20.2384 C   0  0  2  0  0  0  0  0  0  0  0  0
    5.1873  -15.9620  -20.3811 C   0  0  0  0  0  0  0  0  0  0  0  0
    5.7931  -16.7985  -19.7216 O   0  0  0  0  0  0  0  0  0  0  0  0
    4.3022  -16.3651  -21.1465 O   0  0  0  0  0  0  0  0  0  0  0  0
    5.1094  -13.9204  -18.8724 C   0  0  0  0  0  0  0  0  0  0  0  0
    6.1753  -13.1283  -18.0706 C   0  0  0  0  0  0  0  0  0  0  0  0
    5.7186  -12.4299  -16.4252 S   0  0  2  0  0  0  0  0  0  0  0  0
    6.6907  -10.9088  -16.3992 C   0  0  0  0  0  0  0  0  0  0  0  0
    6.6770  -13.4240  -15.2612 C   0  0  0  0  0  0  0  0  0  0  0  0
    6.6003  -12.8040  -13.8722 C   0  0  1  0  0  0  0  0  0  0  0  0
    5.2666  -12.6814  -13.4015 O   0  0  0  0  0  0  0  0  0  0  0  0
    7.2806  -13.6329  -12.8160 C   0  0  1  0  0  0  0  0  0  0  0  0
    8.6652  -13.4449  -12.8736 O   0  0  0  0  0  0  0  0  0  0  0  0
    6.6550  -13.0575  -11.5647 C   0  0  1  0  0  0  0  0  0  0  0  0
    7.3225  -11.8702  -11.1881 O   0  0  0  0  0  0  0  0  0  0  0  0
    5.2309  -12.7125  -11.9857 C   0  0  2  0  0  0  0  0  0  0  0  0
    4.1817  -13.6409  -11.4822 N   0  0  0  0  0  0  0  0  0  0  0  0
    3.7486  -13.7183  -10.1824 C   0  0  0  0  0  0  0  0  0  0  0  0
    2.7908  -14.6676  -10.0895 N   0  0  0  0  0  0  0  0  0  0  0  0
    2.5915  -15.1982  -11.3072 C   0  0  0  0  0  0  0  0  0  0  0  0
    1.7294  -16.1840  -11.7629 C   0  0  0  0  0  0  0  0  0  0  0  0
    0.8959  -16.7853  -10.9243 N   0  0  0  0  0  0  0  0  0  0  0  0
    1.7453  -16.5268  -13.1005 N   0  0  0  0  0  0  0  0  0  0  0  0
    2.6060  -15.8986  -13.9917 C   0  0  0  0  0  0  0  0  0  0  0  0
    3.4527  -14.9158  -13.5208 N   0  0  0  0  0  0  0  0  0  0  0  0
    3.4561  -14.5703  -12.2003 C   0  0  0  0  0  0  0  0  0  0  0  0
  2  3  1  6  0  0  0
  2  6  1  0  0  0  0
  2  1  1  0  0  0  0
  4  3  2  0  0  0  0
  5  3  1  0  0  0  0
  6  7  2  0  0  0  0
  8  7  1  6  0  0  0
  8  9  1  0  0  0  0
  8 10  1  0  0  0  0
 11 10  1  6  0  0  0
 11 13  1  0  0  0  0
 12 11  1  0  0  0  0
 12 17  1  0  0  0  0
 13 14  1  1  0  0  0
 13 15  1  0  0  0  0
 15 16  1  6  0  0  0
 17 18  1  6  0  0  0
 17 15  1  0  0  0  0
 18 19  1  0  0  0  0
 20 19  2  0  0  0  0
 21 27  2  0  0  0  0
 21 20  1  0  0  0  0
 22 21  1  0  0  0  0
 23 22  1  0  0  0  0
 24 22  2  0  0  0  0
 24 25  1  0  0  0  0
 25 26  2  0  0  0  0
 26 27  1  0  0  0  0
 27 18  1  0  0  0  0
M  END
>  <CHROM.1>
162.83812877,-105.54704859,-146.06811217,169.82617983,57.87280793,-168.21535909
4.93167083,-14.09766989,-14.72941497,1.34547346,-0.68448974,-1.74940063

>  <Name>
lig.pdb

>  <RI>
0

>  <Rbt.Current_Directory>
/home/itssahil/PROJECTS/Mol_Feturizer/New_Systems/rnas/4b5r

>  <Rbt.Executable>
rbdock ($Id: //depot/dev/client3/rdock/2013.1/src/exe/rbdock.cxx#4 $)

>  <Rbt.Library>
libRbt.so (2013.1, Build901 2013/11/27)

>  <Rbt.Parameter_File>
/export/apps/rDock/src/rDock_2013.1_src/data/scripts/dock_solv.prm

>  <Rbt.Receptor>
prm/blind_docking_80.prm

>  <SCORE>
-12.4843

>  <SCORE.INTER>
-11.8693

>  <SCORE.INTER.CONST>
1

>  <SCORE.INTER.POLAR>
0

>  <SCORE.INTER.ROT>
6

>  <SCORE.INTER.SOLV>
16.8814

>  <SCORE.INTER.VDW>
-21.14

>  <SCORE.INTER.norm>
-0.439605

>  <SCORE.INTRA>
-0.615969

>  <SCORE.INTRA.DIHEDRAL>
-1.47417

>  <SCORE.INTRA.DIHEDRAL.0>
10.2917

>  <SCORE.INTRA.POLAR>
0

>  <SCORE.INTRA.POLAR.0>
0

>  <SCORE.INTRA.REPUL>
0

>  <SCORE.INTRA.REPUL.0>
0

>  <SCORE.INTRA.SOLV>
-2.71311

>  <SCORE.INTRA.SOLV.lig_0>
-39.6315

>  <SCORE.INTRA.VDW>
1.47767

>  <SCORE.INTRA.VDW.0>
-4.02152

>  <SCORE.INTRA.norm>
-0.0228137

>  <SCORE.RESTR>
0.00103716

>  <SCORE.RESTR.CAVITY>
0.00103716

>  <SCORE.RESTR.norm>
3.84134e-05

>  <SCORE.SYSTEM>
0

>  <SCORE.SYSTEM.CONST>
0

>  <SCORE.SYSTEM.DIHEDRAL>
0

>  <SCORE.SYSTEM.SOLV>
0

>  <SCORE.SYSTEM.norm>
0

>  <SCORE.heavy>
27

>  <SCORE.norm>
-0.462381

>  <RMSD>
6.153

$$$$
lig.pdb
 OpenBabel11021811493D
libRbt.so/2013.1/901 2013/11/27
 27 29  0  0  0  0  0  0  0  0999 V2000
    0.7569  -14.4947   -8.4854 N   0  0  0  0  0  0  0  0  0  0  0  0
    2.0438  -13.7449   -8.3600 C   0  0  2  0  0  0  0  0  0  0  0  0
    2.9341  -14.0778   -9.5536 C   0  0  0  0  0  0  0  0  0  0  0  0
    2.6087  -14.9788  -10.3178 O   0  0  0  0  0  0  0  0  0  0  0  0
    3.9897  -13.4768   -9.7908 O   0  0  0  0  0  0  0  0  0  0  0  0
    2.7709  -13.9820   -7.0210 C   0  0  0  0  0  0  0  0  0  0  0  0
    3.9755  -14.9591   -7.0442 C   0  0  0  0  0  0  0  0  0  0  0  0
    4.8858  -15.2923   -5.4745 S   0  0  2  0  0  0  0  0  0  0  0  0
    5.7703  -13.7366   -5.2360 C   0  0  0  0  0  0  0  0  0  0  0  0
    6.2574  -16.3459   -5.9946 C   0  0  0  0  0  0  0  0  0  0  0  0
    5.7156  -17.6535   -6.5570 C   0  0  1  0  0  0  0  0  0  0  0  0
    5.3433  -17.5482   -7.9229 O   0  0  0  0  0  0  0  0  0  0  0  0
    6.7276  -18.7675   -6.5441 C   0  0  1  0  0  0  0  0  0  0  0  0
    6.8309  -19.3097   -5.2591 O   0  0  0  0  0  0  0  0  0  0  0  0
    6.1063  -19.7197   -7.5419 C   0  0  1  0  0  0  0  0  0  0  0  0
    5.1088  -20.4999   -6.9149 O   0  0  0  0  0  0  0  0  0  0  0  0
    5.4471  -18.8049   -8.5681 C   0  0  2  0  0  0  0  0  0  0  0  0
    6.1623  -18.6979   -9.8694 N   0  0  0  0  0  0  0  0  0  0  0  0
    6.5990  -17.5291  -10.4406 C   0  0  0  0  0  0  0  0  0  0  0  0
    7.2047  -17.8090  -11.6163 N   0  0  0  0  0  0  0  0  0  0  0  0
    7.1746  -19.1377  -11.8101 C   0  0  0  0  0  0  0  0  0  0  0  0
    7.6562  -19.9399  -12.8334 C   0  0  0  0  0  0  0  0  0  0  0  0
    8.2854  -19.3997  -13.8687 N   0  0  0  0  0  0  0  0  0  0  0  0
    7.4780  -21.3071  -12.7580 N   0  0  0  0  0  0  0  0  0  0  0  0
    6.8295  -21.8872  -11.6751 C   0  0  0  0  0  0  0  0  0  0  0  0
    6.3622  -21.0732  -10.6634 N   0  0  0  0  0  0  0  0  0  0  0  0
    6.5223  -19.7191  -10.7258 C   0  0  0  0  0  0  0  0  0  0  0  0
  2  3  1  6  0  0  0
  2  6  1  0  0  0  0
  2  1  1  0  0  0  0
  4  3  2  0  0  0  0
  5  3  1  0  0  0  0
  6  7  2  0  0  0  0
  8  7  1  6  0  0  0
  8  9  1  0  0  0  0
  8 10  1  0  0  0  0
 11 10  1  6  0  0  0
 11 13  1  0  0  0  0
 12 11  1  0  0  0  0
 12 17  1  0  0  0  0
 13 14  1  1  0  0  0
 13 15  1  0  0  0  0
 15 16  1  1  0  0  0
 17 18  1  6  0  0  0
 17 15  1  0  0  0  0
 18 19  1  0  0  0  0
 20 19  2  0  0  0  0
 21 27  2  0  0  0  0
 21 20  1  0  0  0  0
 22 21  1  0  0  0  0
 23 22  1  0  0  0  0
 24 22  2  0  0  0  0
 24 25  1  0  0  0  0
 25 26  2  0  0  0  0
 26 27  1  0  0  0  0
 27 18  1  0  0  0  0
M  END
>  <CHROM.1>
-9.26078345,102.04123083,-72.32180321,-63.10927305,83.71778521,-4.09697744
5.41629147,-17.41572608,-8.76964754,2.47750168,-0.99025289,1.48637700

>  <Name>
lig.pdb

>  <RI>
0

>  <Rbt.Current_Directory>
/home/itssahil/PROJECTS/Mol_Feturizer/New_Systems/rnas/4b5r

>  <Rbt.Executable>
rbdock ($Id: //depot/dev/client3/rdock/2013.1/src/exe/rbdock.cxx#4 $)

>  <Rbt.Library>
libRbt.so (2013.1, Build901 2013/11/27)

>  <Rbt.Parameter_File>
/export/apps/rDock/src/rDock_2013.1_src/data/scripts/dock_solv.prm

>  <Rbt.Receptor>
prm/pocket_docking_7.prm

>  <SCORE>
-14.5977

>  <SCORE.INTER>
-14.791

>  <SCORE.INTER.CONST>
1

>  <SCORE.INTER.POLAR>
0

>  <SCORE.INTER.ROT>
6

>  <SCORE.INTER.SOLV>
13.5738

>  <SCORE.INTER.VDW>
-21.9853

>  <SCORE.INTER.norm>
-0.547816

>  <SCORE.INTRA>
0.19328

>  <SCORE.INTRA.DIHEDRAL>
-0.590999

>  <SCORE.INTRA.DIHEDRAL.0>
10.2917

>  <SCORE.INTRA.POLAR>
0

>  <SCORE.INTRA.POLAR.0>
0

>  <SCORE.INTRA.REPUL>
0

>  <SCORE.INTRA.REPUL.0>
0

>  <SCORE.INTRA.SOLV>
-2.90277

>  <SCORE.INTRA.SOLV.lig_0>
-39.6315

>  <SCORE.INTRA.VDW>
1.94016

>  <SCORE.INTRA.VDW.0>
-4.02152

>  <SCORE.INTRA.norm>
0.00715851

>  <SCORE.RESTR>
0

>  <SCORE.RESTR.CAVITY>
0

>  <SCORE.RESTR.norm>
0

>  <SCORE.SYSTEM>
0

>  <SCORE.SYSTEM.CONST>
0

>  <SCORE.SYSTEM.DIHEDRAL>
0

>  <SCORE.SYSTEM.SOLV>
0

>  <SCORE.SYSTEM.norm>
0

>  <SCORE.heavy>
27

>  <SCORE.norm>
-0.540657

>  <RMSD>
6.158

$$$$
lig.pdb
 OpenBabel11021811493D
libRbt.so/2013.1/901 2013/11/27
 27 29  0  0  0  0  0  0  0  0999 V2000
    6.1812  -18.8235   -6.6354 N   0  0  0  0  0  0  0  0  0  0  0  0
    4.9491  -18.0336   -6.3324 C   0  0  2  0  0  0  0  0  0  0  0  0
    3.7348  -18.7674   -6.8938 C   0  0  0  0  0  0  0  0  0  0  0  0
    3.8858  -19.5864   -7.7928 O   0  0  0  0  0  0  0  0  0  0  0  0
    2.5837  -18.5703   -6.4839 O   0  0  0  0  0  0  0  0  0  0  0  0
    5.0126  -16.5736   -6.8246 C   0  0  0  0  0  0  0  0  0  0  0  0
    3.7145  -15.9870   -7.4389 C   0  0  0  0  0  0  0  0  0  0  0  0
    3.7240  -14.2475   -8.0535 S   0  0  2  0  0  0  0  0  0  0  0  0
    4.4768  -13.3795   -6.6609 C   0  0  0  0  0  0  0  0  0  0  0  0
    2.0095  -13.7168   -7.8524 C   0  0  0  0  0  0  0  0  0  0  0  0
    1.1150  -14.4988   -8.8052 C   0  0  1  0  0  0  0  0  0  0  0  0
    1.4797  -14.3224  -10.1658 O   0  0  0  0  0  0  0  0  0  0  0  0
    1.1927  -15.9881   -8.6015 C   0  0  1  0  0  0  0  0  0  0  0  0
    0.4223  -16.3641   -7.4964 O   0  0  0  0  0  0  0  0  0  0  0  0
    0.6255  -16.4789   -9.9151 C   0  0  1  0  0  0  0  0  0  0  0  0
   -0.7869  -16.4581   -9.8740 O   0  0  0  0  0  0  0  0  0  0  0  0
    1.1062  -15.4521  -10.9345 C   0  0  2  0  0  0  0  0  0  0  0  0
    2.2158  -15.9094  -11.8154 N   0  0  0  0  0  0  0  0  0  0  0  0
    2.3823  -17.1891  -12.2817 C   0  0  0  0  0  0  0  0  0  0  0  0
    3.4923  -17.2400  -13.0516 N   0  0  0  0  0  0  0  0  0  0  0  0
    4.0404  -16.0147  -13.0978 C   0  0  0  0  0  0  0  0  0  0  0  0
    5.1640  -15.5216  -13.7436 C   0  0  0  0  0  0  0  0  0  0  0  0
    5.9152  -16.3231  -14.4871 N   0  0  0  0  0  0  0  0  0  0  0  0
    5.4869  -14.1859  -13.6080 N   0  0  0  0  0  0  0  0  0  0  0  0
    4.7038  -13.3331  -12.8404 C   0  0  0  0  0  0  0  0  0  0  0  0
    3.5860  -13.8406  -12.2099 N   0  0  0  0  0  0  0  0  0  0  0  0
    3.2568  -15.1602  -12.3263 C   0  0  0  0  0  0  0  0  0  0  0  0
  2  3  1  6  0  0  0
  2  6  1  0  0  0  0
  2  1  1  0  0  0  0
  4  3  2  0  0  0  0
  5  3  1  0  0  0  0
  6  7  2  0  0  0  0
  8  7  1  1  0  0  0
  8  9  1  0  0  0  0
  8 10  1  0  0  0  0
 11 10  1  1  0  0  0
 11 13  1  0  0  0  0
 12 11  1  0  0  0  0
 12 17  1  0  0  0  0
 13 14  1  1  0  0  0
 13 15  1  0  0  0  0
 15 16  1  1  0  0  0
 17 18  1  1  0  0  0
 17 15  1  0  0  0  0
 18 19  1  0  0  0  0
 20 19  2  0  0  0  0
 21 27  2  0  0  0  0
 21 20  1  0  0  0  0
 22 21  1  0  0  0  0
 23 22  1  0  0  0  0
 24 22  2  0  0  0  0
 24 25  1  0  0  0  0
 25 26  2  0  0  0  0
 26 27  1  0  0  0  0
 27 18  1  0  0  0  0
M  END
>  <CHROM.1>
-21.46579497,140.23649307,-48.46291211,-66.97065380,-59.28971807,154.18818844
3.15113464,-15.93147285,-9.70801674,-1.69244200,0.46509421,-1.21269369

>  <Name>
lig.pdb

>  <RI>
0

>  <Rbt.Current_Directory>
/home/itssahil/PROJECTS/Mol_Feturizer/New_Systems/rnas/4b5r

>  <Rbt.Executable>
rbdock ($Id: //depot/dev/client3/rdock/2013.1/src/exe/rbdock.cxx#4 $)

>  <Rbt.Library>
libRbt.so (2013.1, Build901 2013/11/27)

>  <Rbt.Parameter_File>
/export/apps/rDock/src/rDock_2013.1_src/data/scripts/dock_solv.prm

>  <Rbt.Receptor>
prm/pocket_docking_4.prm

>  <SCORE>
-10.9113

>  <SCORE.INTER>
-12.3415

>  <SCORE.INTER.CONST>
1

>  <SCORE.INTER.POLAR>
0

>  <SCORE.INTER.ROT>
6

>  <SCORE.INTER.SOLV>
13.8139

>  <SCORE.INTER.VDW>
-20.4323

>  <SCORE.INTER.norm>
-0.457094

>  <SCORE.INTRA>
1.4302

>  <SCORE.INTRA.DIHEDRAL>
-2.73639

>  <SCORE.INTRA.DIHEDRAL.0>
10.2917

>  <SCORE.INTRA.POLAR>
0

>  <SCORE.INTRA.POLAR.0>
0

>  <SCORE.INTRA.REPUL>
0.231982

>  <SCORE.INTRA.REPUL.0>
0

>  <SCORE.INTRA.SOLV>
-2.47233

>  <SCORE.INTRA.SOLV.lig_0>
-39.6315

>  <SCORE.INTRA.VDW>
2.87465

>  <SCORE.INTRA.VDW.0>
-4.02152

>  <SCORE.INTRA.norm>
0.0529703

>  <SCORE.RESTR>
0

>  <SCORE.RESTR.CAVITY>
0

>  <SCORE.RESTR.norm>
0

>  <SCORE.SYSTEM>
0

>  <SCORE.SYSTEM.CONST>
0

>  <SCORE.SYSTEM.DIHEDRAL>
0

>  <SCORE.SYSTEM.SOLV>
0

>  <SCORE.SYSTEM.norm>
0

>  <SCORE.heavy>
27

>  <SCORE.norm>
-0.404124

>  <RMSD>
6.166

$$$$
lig.pdb
 OpenBabel11021811493D
libRbt.so/2013.1/901 2013/11/27
 27 29  0  0  0  0  0  0  0  0999 V2000
    3.9358  -20.1092   -8.0333 N   0  0  0  0  0  0  0  0  0  0  0  0
    4.3105  -18.8285   -7.3601 C   0  0  2  0  0  0  0  0  0  0  0  0
    5.0346  -19.1437   -6.0545 C   0  0  0  0  0  0  0  0  0  0  0  0
    4.9972  -20.2820   -5.6022 O   0  0  0  0  0  0  0  0  0  0  0  0
    5.6647  -18.2919   -5.4147 O   0  0  0  0  0  0  0  0  0  0  0  0
    3.1199  -17.8742   -7.1374 C   0  0  0  0  0  0  0  0  0  0  0  0
    2.0366  -17.8389   -8.2472 C   0  0  0  0  0  0  0  0  0  0  0  0
    0.5884  -16.7137   -8.0463 S   0  0  2  0  0  0  0  0  0  0  0  0
   -0.3731  -17.0996   -9.5249 C   0  0  0  0  0  0  0  0  0  0  0  0
    1.2384  -15.0964   -8.5191 C   0  0  0  0  0  0  0  0  0  0  0  0
    2.7601  -15.1172   -8.4586 C   0  0  1  0  0  0  0  0  0  0  0  0
    3.3396  -15.8458   -9.5303 O   0  0  0  0  0  0  0  0  0  0  0  0
    3.3756  -13.7490   -8.5785 C   0  0  1  0  0  0  0  0  0  0  0  0
    3.2904  -13.0735   -7.3569 O   0  0  0  0  0  0  0  0  0  0  0  0
    4.7939  -14.1139   -8.9574 C   0  0  1  0  0  0  0  0  0  0  0  0
    5.5373  -14.4437   -7.8018 O   0  0  0  0  0  0  0  0  0  0  0  0
    4.6392  -15.3619   -9.8194 C   0  0  2  0  0  0  0  0  0  0  0  0
    4.8345  -15.1482  -11.2797 N   0  0  0  0  0  0  0  0  0  0  0  0
    5.9502  -14.5975  -11.8585 C   0  0  0  0  0  0  0  0  0  0  0  0
    5.7812  -14.5584  -13.1991 N   0  0  0  0  0  0  0  0  0  0  0  0
    4.5806  -15.0817  -13.4969 C   0  0  0  0  0  0  0  0  0  0  0  0
    3.9278  -15.2861  -14.7030 C   0  0  0  0  0  0  0  0  0  0  0  0
    4.5059  -14.9382  -15.8451 N   0  0  0  0  0  0  0  0  0  0  0  0
    2.6725  -15.8615  -14.7003 N   0  0  0  0  0  0  0  0  0  0  0  0
    2.0594  -16.2395  -13.5126 C   0  0  0  0  0  0  0  0  0  0  0  0
    2.7269  -16.0335  -12.3224 N   0  0  0  0  0  0  0  0  0  0  0  0
    3.9647  -15.4584  -12.3060 C   0  0  0  0  0  0  0  0  0  0  0  0
  2  3  1  1  0  0  0
  2  6  1  0  0  0  0
  2  1  1  0  0  0  0
  4  3  2  0  0  0  0
  5  3  1  0  0  0  0
  6  7  2  0  0  0  0
  8  7  1  6  0  0  0
  8  9  1  0  0  0  0
  8 10  1  0  0  0  0
 11 10  1  6  0  0  0
 11 13  1  0  0  0  0
 12 11  1  0  0  0  0
 12 17  1  0  0  0  0
 13 14  1  1  0  0  0
 13 15  1  0  0  0  0
 15 16  1  1  0  0  0
 17 18  1  6  0  0  0
 17 15  1  0  0  0  0
 18 19  1  0  0  0  0
 20 19  2  0  0  0  0
 21 27  2  0  0  0  0
 21 20  1  0  0  0  0
 22 21  1  0  0  0  0
 23 22  1  0  0  0  0
 24 22  2  0  0  0  0
 24 25  1  0  0  0  0
 25 26  2  0  0  0  0
 26 27  1  0  0  0  0
 27 18  1  0  0  0  0
M  END
>  <CHROM.1>
-13.62577704,-36.36798247,-177.60351452,-18.56245237,73.64057210,175.07812137
3.53236815,-16.19170249,-9.73343623,1.60765568,0.18824171,1.96934946

>  <Name>
lig.pdb

>  <RI>
0

>  <Rbt.Current_Directory>
/home/itssahil/PROJECTS/Mol_Feturizer/New_Systems/rnas/4b5r

>  <Rbt.Executable>
rbdock ($Id: //depot/dev/client3/rdock/2013.1/src/exe/rbdock.cxx#4 $)

>  <Rbt.Library>
libRbt.so (2013.1, Build901 2013/11/27)

>  <Rbt.Parameter_File>
/export/apps/rDock/src/rDock_2013.1_src/data/scripts/dock_solv.prm

>  <Rbt.Receptor>
prm/pocket_docking_6.prm

>  <SCORE>
-8.44072

>  <SCORE.INTER>
-12.4685

>  <SCORE.INTER.CONST>
1

>  <SCORE.INTER.POLAR>
0

>  <SCORE.INTER.ROT>
6

>  <SCORE.INTER.SOLV>
13.6048

>  <SCORE.INTER.VDW>
-20.4473

>  <SCORE.INTER.norm>
-0.461796

>  <SCORE.INTRA>
4.02778

>  <SCORE.INTRA.DIHEDRAL>
3.70388

>  <SCORE.INTRA.DIHEDRAL.0>
10.2917

>  <SCORE.INTRA.POLAR>
0

>  <SCORE.INTRA.POLAR.0>
0

>  <SCORE.INTRA.REPUL>
0.157297

>  <SCORE.INTRA.REPUL.0>
0

>  <SCORE.INTRA.SOLV>
-1.92517

>  <SCORE.INTRA.SOLV.lig_0>
-39.6315

>  <SCORE.INTRA.VDW>
2.35194

>  <SCORE.INTRA.VDW.0>
-4.02152

>  <SCORE.INTRA.norm>
0.149177

>  <SCORE.RESTR>
0

>  <SCORE.RESTR.CAVITY>
0

>  <SCORE.RESTR.norm>
0

>  <SCORE.SYSTEM>
0

>  <SCORE.SYSTEM.CONST>
0

>  <SCORE.SYSTEM.DIHEDRAL>
0

>  <SCORE.SYSTEM.SOLV>
0

>  <SCORE.SYSTEM.norm>
0

>  <SCORE.heavy>
27

>  <SCORE.norm>
-0.312619

>  <RMSD>
6.179

$$$$
lig.pdb
 OpenBabel11021811493D
libRbt.so/2013.1/901 2013/11/27
 27 29  0  0  0  0  0  0  0  0999 V2000
    6.3513  -13.3818   -5.3945 N   0  0  0  0  0  0  0  0  0  0  0  0
    5.5236  -14.4562   -6.0227 C   0  0  2  0  0  0  0  0  0  0  0  0
    6.4349  -15.3919   -6.8115 C   0  0  0  0  0  0  0  0  0  0  0  0
    6.9524  -14.9980   -7.8501 O   0  0  0  0  0  0  0  0  0  0  0  0
    6.6784  -16.5510   -6.4521 O   0  0  0  0  0  0  0  0  0  0  0  0
    4.3669  -13.9197   -6.8900 C   0  0  0  0  0  0  0  0  0  0  0  0
    3.0406  -14.7239   -6.8597 C   0  0  0  0  0  0  0  0  0  0  0  0
    1.6186  -14.1402   -7.8798 S   0  0  2  0  0  0  0  0  0  0  0  0
    0.8176  -12.9829   -6.7490 C   0  0  0  0  0  0  0  0  0  0  0  0
    0.4449  -15.5103   -7.7955 C   0  0  0  0  0  0  0  0  0  0  0  0
    0.9530  -16.6739   -8.6365 C   0  0  1  0  0  0  0  0  0  0  0  0
    0.8042  -16.4468  -10.0300 O   0  0  0  0  0  0  0  0  0  0  0  0
    2.4271  -16.9265   -8.4678 C   0  0  1  0  0  0  0  0  0  0  0  0
    2.6636  -17.6230   -7.2784 O   0  0  0  0  0  0  0  0  0  0  0  0
    2.7119  -17.7498   -9.7045 C   0  0  1  0  0  0  0  0  0  0  0  0
    2.3650  -19.1012   -9.4806 O   0  0  0  0  0  0  0  0  0  0  0  0
    1.7797  -17.1679  -10.7614 C   0  0  2  0  0  0  0  0  0  0  0  0
    2.4419  -16.3142  -11.7855 N   0  0  0  0  0  0  0  0  0  0  0  0
    2.1683  -16.3319  -13.1301 C   0  0  0  0  0  0  0  0  0  0  0  0
    2.9556  -15.4281  -13.7551 N   0  0  0  0  0  0  0  0  0  0  0  0
    3.7261  -14.8212  -12.8375 C   0  0  0  0  0  0  0  0  0  0  0  0
    4.6858  -13.8257  -12.9397 C   0  0  0  0  0  0  0  0  0  0  0  0
    4.9793  -13.2965  -14.1202 N   0  0  0  0  0  0  0  0  0  0  0  0
    5.3269  -13.3884  -11.7975 N   0  0  0  0  0  0  0  0  0  0  0  0
    5.0227  -13.9268  -10.5536 C   0  0  0  0  0  0  0  0  0  0  0  0
    4.0605  -14.9127  -10.4708 N   0  0  0  0  0  0  0  0  0  0  0  0
    3.4230  -15.3627  -11.5907 C   0  0  0  0  0  0  0  0  0  0  0  0
  2  3  1  6  0  0  0
  2  6  1  0  0  0  0
  2  1  1  0  0  0  0
  4  3  2  0  0  0  0
  5  3  1  0  0  0  0
  6  7  2  0  0  0  0
  8  7  1  1  0  0  0
  8  9  1  0  0  0  0
  8 10  1  0  0  0  0
 11 10  1  1  0  0  0
 11 13  1  0  0  0  0
 12 11  1  0  0  0  0
 12 17  1  0  0  0  0
 13 14  1  1  0  0  0
 13 15  1  0  0  0  0
 15 16  1  1  0  0  0
 17 18  1  6  0  0  0
 17 15  1  0  0  0  0
 18 19  1  0  0  0  0
 20 19  2  0  0  0  0
 21 27  2  0  0  0  0
 21 20  1  0  0  0  0
 22 21  1  0  0  0  0
 23 22  1  0  0  0  0
 24 22  2  0  0  0  0
 24 25  1  0  0  0  0
 25 26  2  0  0  0  0
 26 27  1  0  0  0  0
 27 18  1  0  0  0  0
M  END
>  <CHROM.1>
-70.81649852,-143.46057538,-87.53727623,-72.65854044,-74.73387900,-102.30176232
3.41086901,-15.36170680,-9.34841304,-1.32040903,-0.49429005,-1.52613016

>  <Name>
lig.pdb

>  <RI>
0

>  <Rbt.Current_Directory>
/home/itssahil/PROJECTS/Mol_Feturizer/New_Systems/rnas/4b5r

>  <Rbt.Executable>
rbdock ($Id: //depot/dev/client3/rdock/2013.1/src/exe/rbdock.cxx#4 $)

>  <Rbt.Library>
libRbt.so (2013.1, Build901 2013/11/27)

>  <Rbt.Parameter_File>
/export/apps/rDock/src/rDock_2013.1_src/data/scripts/dock_solv.prm

>  <Rbt.Receptor>
prm/pocket_docking_2.prm

>  <SCORE>
-7.14528

>  <SCORE.INTER>
-9.1639

>  <SCORE.INTER.CONST>
1

>  <SCORE.INTER.POLAR>
0

>  <SCORE.INTER.ROT>
6

>  <SCORE.INTER.SOLV>
16.2424

>  <SCORE.INTER.VDW>
-19.1234

>  <SCORE.INTER.norm>
-0.339404

>  <SCORE.INTRA>
0.101307

>  <SCORE.INTRA.DIHEDRAL>
-0.811461

>  <SCORE.INTRA.DIHEDRAL.0>
10.2917

>  <SCORE.INTRA.POLAR>
0

>  <SCORE.INTRA.POLAR.0>
0

>  <SCORE.INTRA.REPUL>
0

>  <SCORE.INTRA.REPUL.0>
0

>  <SCORE.INTRA.SOLV>
-1.57605

>  <SCORE.INTRA.SOLV.lig_0>
-39.6315

>  <SCORE.INTRA.VDW>
1.29506

>  <SCORE.INTRA.VDW.0>
-4.02152

>  <SCORE.INTRA.norm>
0.00375212

>  <SCORE.RESTR>
1.9173

>  <SCORE.RESTR.CAVITY>
1.9173

>  <SCORE.RESTR.norm>
0.0710112

>  <SCORE.SYSTEM>
0

>  <SCORE.SYSTEM.CONST>
0

>  <SCORE.SYSTEM.DIHEDRAL>
0

>  <SCORE.SYSTEM.SOLV>
0

>  <SCORE.SYSTEM.norm>
0

>  <SCORE.heavy>
27

>  <SCORE.norm>
-0.26464

>  <RMSD>
6.184

$$$$
lig.pdb
 OpenBabel11021811493D
libRbt.so/2013.1/901 2013/11/27
 27 29  0  0  0  0  0  0  0  0999 V2000
    6.2101  -17.8285   -9.5195 N   0  0  0  0  0  0  0  0  0  0  0  0
    5.3985  -17.6594  -10.7632 C   0  0  2  0  0  0  0  0  0  0  0  0
    4.0428  -18.3324  -10.5703 C   0  0  0  0  0  0  0  0  0  0  0  0
    3.0482  -17.6435  -10.3759 O   0  0  0  0  0  0  0  0  0  0  0  0
    3.8945  -19.5609  -10.5954 O   0  0  0  0  0  0  0  0  0  0  0  0
    6.1079  -18.1580  -12.0384 C   0  0  0  0  0  0  0  0  0  0  0  0
    6.1116  -17.1971  -13.2562 C   0  0  0  0  0  0  0  0  0  0  0  0
    6.9376  -17.7348  -14.8157 S   0  0  2  0  0  0  0  0  0  0  0  0
    8.0781  -18.9927  -14.2020 C   0  0  0  0  0  0  0  0  0  0  0  0
    8.1084  -16.4027  -15.1571 C   0  0  0  0  0  0  0  0  0  0  0  0
    7.3496  -15.1321  -15.5167 C   0  0  1  0  0  0  0  0  0  0  0  0
    5.9811  -15.1888  -15.1435 O   0  0  0  0  0  0  0  0  0  0  0  0
    7.8674  -13.9119  -14.8036 C   0  0  1  0  0  0  0  0  0  0  0  0
    9.0310  -13.4479  -15.4254 O   0  0  0  0  0  0  0  0  0  0  0  0
    6.6921  -12.9738  -14.9676 C   0  0  1  0  0  0  0  0  0  0  0  0
    6.7345  -12.3574  -16.2385 O   0  0  0  0  0  0  0  0  0  0  0  0
    5.4741  -13.8884  -14.9014 C   0  0  2  0  0  0  0  0  0  0  0  0
    4.7064  -13.8255  -13.6274 N   0  0  0  0  0  0  0  0  0  0  0  0
    4.9838  -12.9902  -12.5747 C   0  0  0  0  0  0  0  0  0  0  0  0
    4.0834  -13.2040  -11.5893 N   0  0  0  0  0  0  0  0  0  0  0  0
    3.2247  -14.1558  -11.9903 C   0  0  0  0  0  0  0  0  0  0  0  0
    2.1235  -14.7338  -11.3772 C   0  0  0  0  0  0  0  0  0  0  0  0
    1.7542  -14.3491  -10.1626 N   0  0  0  0  0  0  0  0  0  0  0  0
    1.4135  -15.7092  -12.0489 N   0  0  0  0  0  0  0  0  0  0  0  0
    1.7832  -16.1148  -13.3250 C   0  0  0  0  0  0  0  0  0  0  0  0
    2.8785  -15.5240  -13.9215 N   0  0  0  0  0  0  0  0  0  0  0  0
    3.5967  -14.5643  -13.2687 C   0  0  0  0  0  0  0  0  0  0  0  0
  2  3  1  1  0  0  0
  2  6  1  0  0  0  0
  2  1  1  0  0  0  0
  4  3  2  0  0  0  0
  5  3  1  0  0  0  0
  6  7  2  0  0  0  0
  8  7  1  1  0  0  0
  8  9  1  0  0  0  0
  8 10  1  0  0  0  0
 11 10  1  1  0  0  0
 11 13  1  0  0  0  0
 12 11  1  0  0  0  0
 12 17  1  0  0  0  0
 13 14  1  6  0  0  0
 13 15  1  0  0  0  0
 15 16  1  6  0  0  0
 17 18  1  1  0  0  0
 17 15  1  0  0  0  0
 18 19  1  0  0  0  0
 20 19  2  0  0  0  0
 21 27  2  0  0  0  0
 21 20  1  0  0  0  0
 22 21  1  0  0  0  0
 23 22  1  0  0  0  0
 24 22  2  0  0  0  0
 24 25  1  0  0  0  0
 25 26  2  0  0  0  0
 26 27  1  0  0  0  0
 27 18  1  0  0  0  0
M  END
>  <CHROM.1>
104.86282704,-131.44237656,-22.36320840,-67.79046247,16.35786455,122.19206482
5.22927569,-15.73153390,-13.15510728,-2.48253985,0.59618692,-0.46187425

>  <Name>
lig.pdb

>  <RI>
0

>  <Rbt.Current_Directory>
/home/itssahil/PROJECTS/Mol_Feturizer/New_Systems/rnas/4b5r

>  <Rbt.Executable>
rbdock ($Id: //depot/dev/client3/rdock/2013.1/src/exe/rbdock.cxx#4 $)

>  <Rbt.Library>
libRbt.so (2013.1, Build901 2013/11/27)

>  <Rbt.Parameter_File>
/export/apps/rDock/src/rDock_2013.1_src/data/scripts/dock_solv.prm

>  <Rbt.Receptor>
prm/pocket_docking_6.prm

>  <SCORE>
-8.02986

>  <SCORE.INTER>
-9.48248

>  <SCORE.INTER.CONST>
1

>  <SCORE.INTER.POLAR>
0

>  <SCORE.INTER.ROT>
6

>  <SCORE.INTER.SOLV>
12.5303

>  <SCORE.INTER.VDW>
-18.0984

>  <SCORE.INTER.norm>
-0.351203

>  <SCORE.INTRA>
1.45261

>  <SCORE.INTRA.DIHEDRAL>
1.16113

>  <SCORE.INTRA.DIHEDRAL.0>
10.2917

>  <SCORE.INTRA.POLAR>
0

>  <SCORE.INTRA.POLAR.0>
0

>  <SCORE.INTRA.REPUL>
0.0371744

>  <SCORE.INTRA.REPUL.0>
0

>  <SCORE.INTRA.SOLV>
-1.88992

>  <SCORE.INTRA.SOLV.lig_0>
-39.6315

>  <SCORE.INTRA.VDW>
1.63113

>  <SCORE.INTRA.VDW.0>
-4.02152

>  <SCORE.INTRA.norm>
0.0538005

>  <SCORE.RESTR>
0

>  <SCORE.RESTR.CAVITY>
0

>  <SCORE.RESTR.norm>
0

>  <SCORE.SYSTEM>
0

>  <SCORE.SYSTEM.CONST>
0

>  <SCORE.SYSTEM.DIHEDRAL>
0

>  <SCORE.SYSTEM.SOLV>
0

>  <SCORE.SYSTEM.norm>
0

>  <SCORE.heavy>
27

>  <SCORE.norm>
-0.297402

>  <RMSD>
6.206

$$$$
lig.pdb
 OpenBabel11021811493D
libRbt.so/2013.1/901 2013/11/27
 27 29  0  0  0  0  0  0  0  0999 V2000
    5.9361  -23.5031   -8.5750 N   0  0  0  0  0  0  0  0  0  0  0  0
    4.8339  -22.5168   -8.7911 C   0  0  2  0  0  0  0  0  0  0  0  0
    4.4067  -22.5581  -10.2553 C   0  0  0  0  0  0  0  0  0  0  0  0
    3.4480  -21.8900  -10.6242 O   0  0  0  0  0  0  0  0  0  0  0  0
    4.9862  -23.2483  -11.1036 O   0  0  0  0  0  0  0  0  0  0  0  0
    5.1861  -21.0854   -8.3385 C   0  0  0  0  0  0  0  0  0  0  0  0
    4.0650  -20.0199   -8.4579 C   0  0  0  0  0  0  0  0  0  0  0  0
    4.4221  -18.2857   -7.9397 S   0  0  2  0  0  0  0  0  0  0  0  0
    2.9120  -17.8604   -7.0463 C   0  0  0  0  0  0  0  0  0  0  0  0
    4.1623  -17.3293   -9.4496 C   0  0  0  0  0  0  0  0  0  0  0  0
    4.7627  -15.9392   -9.2864 C   0  0  1  0  0  0  0  0  0  0  0  0
    4.3341  -15.2952   -8.0960 O   0  0  0  0  0  0  0  0  0  0  0  0
    6.2631  -15.9529   -9.1686 C   0  0  1  0  0  0  0  0  0  0  0  0
    6.8442  -16.1058  -10.4316 O   0  0  0  0  0  0  0  0  0  0  0  0
    6.5075  -14.5880   -8.5641 C   0  0  1  0  0  0  0  0  0  0  0  0
    6.5077  -13.6005   -9.5749 O   0  0  0  0  0  0  0  0  0  0  0  0
    5.3055  -14.3640   -7.6534 C   0  0  2  0  0  0  0  0  0  0  0  0
    5.5816  -14.5072   -6.1975 N   0  0  0  0  0  0  0  0  0  0  0  0
    5.4893  -13.5001   -5.2700 C   0  0  0  0  0  0  0  0  0  0  0  0
    5.8098  -13.9887   -4.0510 N   0  0  0  0  0  0  0  0  0  0  0  0
    6.0988  -15.2947   -4.1734 C   0  0  0  0  0  0  0  0  0  0  0  0
    6.4723  -16.2560   -3.2466 C   0  0  0  0  0  0  0  0  0  0  0  0
    6.5974  -15.9380   -1.9648 N   0  0  0  0  0  0  0  0  0  0  0  0
    6.7060  -17.5482   -3.6734 N   0  0  0  0  0  0  0  0  0  0  0  0
    6.5694  -17.8975   -5.0110 C   0  0  0  0  0  0  0  0  0  0  0  0
    6.1911  -16.9285   -5.9180 N   0  0  0  0  0  0  0  0  0  0  0  0
    5.9643  -15.6444   -5.5148 C   0  0  0  0  0  0  0  0  0  0  0  0
  2  3  1  6  0  0  0
  2  6  1  0  0  0  0
  2  1  1  0  0  0  0
  4  3  2  0  0  0  0
  5  3  1  0  0  0  0
  6  7  2  0  0  0  0
  8  7  1  6  0  0  0
  8  9  1  0  0  0  0
  8 10  1  0  0  0  0
 11 10  1  1  0  0  0
 11 13  1  0  0  0  0
 12 11  1  0  0  0  0
 12 17  1  0  0  0  0
 13 14  1  6  0  0  0
 13 15  1  0  0  0  0
 15 16  1  6  0  0  0
 17 18  1  1  0  0  0
 17 15  1  0  0  0  0
 18 19  1  0  0  0  0
 20 19  2  0  0  0  0
 21 27  2  0  0  0  0
 21 20  1  0  0  0  0
 22 21  1  0  0  0  0
 23 22  1  0  0  0  0
 24 22  2  0  0  0  0
 24 25  1  0  0  0  0
 25 26  2  0  0  0  0
 26 27  1  0  0  0  0
 27 18  1  0  0  0  0
M  END
>  <CHROM.1>
174.89740335,-176.72803955,-137.48235445,-165.30440218,-50.97953023,-124.90911270
5.35604237,-17.52550877,-7.46136384,-2.71616132,-1.38796099,-0.57945547

>  <Name>
lig.pdb

>  <RI>
0

>  <Rbt.Current_Directory>
/home/itssahil/PROJECTS/Mol_Feturizer/New_Systems/rnas/4b5r

>  <Rbt.Executable>
rbdock ($Id: //depot/dev/client3/rdock/2013.1/src/exe/rbdock.cxx#4 $)

>  <Rbt.Library>
libRbt.so (2013.1, Build901 2013/11/27)

>  <Rbt.Parameter_File>
/export/apps/rDock/src/rDock_2013.1_src/data/scripts/dock_solv.prm

>  <Rbt.Receptor>
prm/pocket_docking_7.prm

>  <SCORE>
-13.6076

>  <SCORE.INTER>
-13.9883

>  <SCORE.INTER.CONST>
1

>  <SCORE.INTER.POLAR>
0

>  <SCORE.INTER.ROT>
6

>  <SCORE.INTER.SOLV>
11.8367

>  <SCORE.INTER.VDW>
-20.8711

>  <SCORE.INTER.norm>
-0.518086

>  <SCORE.INTRA>
0.377151

>  <SCORE.INTRA.DIHEDRAL>
2.51933

>  <SCORE.INTRA.DIHEDRAL.0>
10.2917

>  <SCORE.INTRA.POLAR>
0

>  <SCORE.INTRA.POLAR.0>
0

>  <SCORE.INTRA.REPUL>
0

>  <SCORE.INTRA.REPUL.0>
0

>  <SCORE.INTRA.SOLV>
-1.96389

>  <SCORE.INTRA.SOLV.lig_0>
-39.6315

>  <SCORE.INTRA.VDW>
0.0994356

>  <SCORE.INTRA.VDW.0>
-4.02152

>  <SCORE.INTRA.norm>
0.0139686

>  <SCORE.RESTR>
0.00358625

>  <SCORE.RESTR.CAVITY>
0.00358625

>  <SCORE.RESTR.norm>
0.000132824

>  <SCORE.SYSTEM>
0

>  <SCORE.SYSTEM.CONST>
0

>  <SCORE.SYSTEM.DIHEDRAL>
0

>  <SCORE.SYSTEM.SOLV>
0

>  <SCORE.SYSTEM.norm>
0

>  <SCORE.heavy>
27

>  <SCORE.norm>
-0.503984

>  <RMSD>
6.236

$$$$
lig.pdb
 OpenBabel11021811493D
libRbt.so/2013.1/901 2013/11/27
 27 29  0  0  0  0  0  0  0  0999 V2000
    6.9767  -20.1145   -4.7052 N   0  0  0  0  0  0  0  0  0  0  0  0
    5.6747  -20.2785   -5.4206 C   0  0  2  0  0  0  0  0  0  0  0  0
    5.7800  -21.4556   -6.3859 C   0  0  0  0  0  0  0  0  0  0  0  0
    6.8745  -21.7697   -6.8389 O   0  0  0  0  0  0  0  0  0  0  0  0
    4.7982  -22.1179   -6.7452 O   0  0  0  0  0  0  0  0  0  0  0  0
    5.1928  -18.9978   -6.1315 C   0  0  0  0  0  0  0  0  0  0  0  0
    5.9419  -17.6839   -5.7863 C   0  0  0  0  0  0  0  0  0  0  0  0
    5.4115  -16.1139   -6.5969 S   0  0  2  0  0  0  0  0  0  0  0  0
    5.0839  -15.0641   -5.1650 C   0  0  0  0  0  0  0  0  0  0  0  0
    3.7164  -16.4565   -7.1176 C   0  0  0  0  0  0  0  0  0  0  0  0
    3.0681  -15.1769   -7.6293 C   0  0  1  0  0  0  0  0  0  0  0  0
    3.8989  -14.4683   -8.5364 O   0  0  0  0  0  0  0  0  0  0  0  0
    1.8076  -15.4250   -8.4135 C   0  0  1  0  0  0  0  0  0  0  0  0
    0.7403  -15.6728   -7.5444 O   0  0  0  0  0  0  0  0  0  0  0  0
    1.6776  -14.1125   -9.1543 C   0  0  1  0  0  0  0  0  0  0  0  0
    1.0743  -13.1418   -8.3232 O   0  0  0  0  0  0  0  0  0  0  0  0
    3.1182  -13.6988   -9.4335 C   0  0  2  0  0  0  0  0  0  0  0  0
    3.5638  -13.8769  -10.8428 N   0  0  0  0  0  0  0  0  0  0  0  0
    4.6560  -13.2716  -11.4117 C   0  0  0  0  0  0  0  0  0  0  0  0
    4.7582  -13.6624  -12.7018 N   0  0  0  0  0  0  0  0  0  0  0  0
    3.7570  -14.5156  -12.9734 C   0  0  0  0  0  0  0  0  0  0  0  0
    3.4100  -15.2070  -14.1241 C   0  0  0  0  0  0  0  0  0  0  0  0
    4.1354  -15.0788  -15.2272 N   0  0  0  0  0  0  0  0  0  0  0  0
    2.3048  -16.0345  -14.1051 N   0  0  0  0  0  0  0  0  0  0  0  0
    1.5417  -16.1857  -12.9542 C   0  0  0  0  0  0  0  0  0  0  0  0
    1.9059  -15.4940  -11.8169 N   0  0  0  0  0  0  0  0  0  0  0  0
    2.9905  -14.6654  -11.8203 C   0  0  0  0  0  0  0  0  0  0  0  0
  2  3  1  6  0  0  0
  2  6  1  0  0  0  0
  2  1  1  0  0  0  0
  4  3  2  0  0  0  0
  5  3  1  0  0  0  0
  6  7  2  0  0  0  0
  8  7  1  1  0  0  0
  8  9  1  0  0  0  0
  8 10  1  0  0  0  0
 11 10  1  6  0  0  0
 11 13  1  0  0  0  0
 12 11  1  0  0  0  0
 12 17  1  0  0  0  0
 13 14  1  1  0  0  0
 13 15  1  0  0  0  0
 15 16  1  1  0  0  0
 17 18  1  6  0  0  0
 17 15  1  0  0  0  0
 18 19  1  0  0  0  0
 20 19  2  0  0  0  0
 21 27  2  0  0  0  0
 21 20  1  0  0  0  0
 22 21  1  0  0  0  0
 23 22  1  0  0  0  0
 24 22  2  0  0  0  0
 24 25  1  0  0  0  0
 25 26  2  0  0  0  0
 26 27  1  0  0  0  0
 27 18  1  0  0  0  0
M  END
>  <CHROM.1>
-26.69563631,-11.68806521,124.46024849,171.82930607,47.28059040,-78.58023407
3.91491020,-16.30563730,-8.98310460,-0.70327238,1.13515093,-1.70983329

>  <Name>
lig.pdb

>  <RI>
0

>  <Rbt.Current_Directory>
/home/itssahil/PROJECTS/Mol_Feturizer/New_Systems/rnas/4b5r

>  <Rbt.Executable>
rbdock ($Id: //depot/dev/client3/rdock/2013.1/src/exe/rbdock.cxx#4 $)

>  <Rbt.Library>
libRbt.so (2013.1, Build901 2013/11/27)

>  <Rbt.Parameter_File>
/export/apps/rDock/src/rDock_2013.1_src/data/scripts/dock_solv.prm

>  <Rbt.Receptor>
prm/pocket_docking_8.prm

>  <SCORE>
-14.7174

>  <SCORE.INTER>
-14.6479

>  <SCORE.INTER.CONST>
1

>  <SCORE.INTER.POLAR>
0

>  <SCORE.INTER.ROT>
6

>  <SCORE.INTER.SOLV>
15.0161

>  <SCORE.INTER.VDW>
-22.3706

>  <SCORE.INTER.norm>
-0.542515

>  <SCORE.INTRA>
-0.0695168

>  <SCORE.INTRA.DIHEDRAL>
-2.57364

>  <SCORE.INTRA.DIHEDRAL.0>
10.2917

>  <SCORE.INTRA.POLAR>
0

>  <SCORE.INTRA.POLAR.0>
0

>  <SCORE.INTRA.REPUL>
0

>  <SCORE.INTRA.REPUL.0>
0

>  <SCORE.INTRA.SOLV>
-2.19327

>  <SCORE.INTRA.SOLV.lig_0>
-39.6315

>  <SCORE.INTRA.VDW>
2.31394

>  <SCORE.INTRA.VDW.0>
-4.02152

>  <SCORE.INTRA.norm>
-0.00257469

>  <SCORE.RESTR>
0

>  <SCORE.RESTR.CAVITY>
0

>  <SCORE.RESTR.norm>
0

>  <SCORE.SYSTEM>
0

>  <SCORE.SYSTEM.CONST>
0

>  <SCORE.SYSTEM.DIHEDRAL>
0

>  <SCORE.SYSTEM.SOLV>
0

>  <SCORE.SYSTEM.norm>
0

>  <SCORE.heavy>
27

>  <SCORE.norm>
-0.545089

>  <RMSD>
6.237

$$$$
lig.pdb
 OpenBabel11021811493D
libRbt.so/2013.1/901 2013/11/27
 27 29  0  0  0  0  0  0  0  0999 V2000
    5.1857  -18.8457   -6.9012 N   0  0  0  0  0  0  0  0  0  0  0  0
    6.4081  -18.1587   -6.3836 C   0  0  2  0  0  0  0  0  0  0  0  0
    6.7380  -18.7036   -4.9971 C   0  0  0  0  0  0  0  0  0  0  0  0
    6.9127  -19.9072   -4.8465 O   0  0  0  0  0  0  0  0  0  0  0  0
    6.8347  -17.9798   -3.9978 O   0  0  0  0  0  0  0  0  0  0  0  0
    6.3005  -16.6204   -6.3825 C   0  0  0  0  0  0  0  0  0  0  0  0
    4.9476  -16.0150   -6.8404 C   0  0  0  0  0  0  0  0  0  0  0  0
    4.7540  -14.1805   -6.8688 S   0  0  2  0  0  0  0  0  0  0  0  0
    5.5920  -13.7080   -5.3411 C   0  0  0  0  0  0  0  0  0  0  0  0
    3.0380  -13.9269   -6.3661 C   0  0  0  0  0  0  0  0  0  0  0  0
    2.1085  -14.2649   -7.5242 C   0  0  1  0  0  0  0  0  0  0  0  0
    2.3551  -13.4684   -8.6732 O   0  0  0  0  0  0  0  0  0  0  0  0
    2.2724  -15.6759   -8.0219 C   0  0  1  0  0  0  0  0  0  0  0  0
    1.6110  -16.5669   -7.1708 O   0  0  0  0  0  0  0  0  0  0  0  0
    1.6264  -15.5671   -9.3854 C   0  0  1  0  0  0  0  0  0  0  0  0
    0.2224  -15.6773   -9.2694 O   0  0  0  0  0  0  0  0  0  0  0  0
    1.9755  -14.1578   -9.8509 C   0  0  2  0  0  0  0  0  0  0  0  0
    3.0319  -14.0826  -10.8972 N   0  0  0  0  0  0  0  0  0  0  0  0
    4.2082  -13.3846  -10.7878 C   0  0  0  0  0  0  0  0  0  0  0  0
    4.9240  -13.5404  -11.9239 N   0  0  0  0  0  0  0  0  0  0  0  0
    4.2352  -14.3333  -12.7610 C   0  0  0  0  0  0  0  0  0  0  0  0
    4.5151  -14.8102  -14.0326 C   0  0  0  0  0  0  0  0  0  0  0  0
    5.6525  -14.4874  -14.6339 N   0  0  0  0  0  0  0  0  0  0  0  0
    3.5985  -15.6294  -14.6614 N   0  0  0  0  0  0  0  0  0  0  0  0
    2.4077  -15.9833  -14.0397 C   0  0  0  0  0  0  0  0  0  0  0  0
    2.1492  -15.5037  -12.7717 N   0  0  0  0  0  0  0  0  0  0  0  0
    3.0403  -14.6861  -12.1388 C   0  0  0  0  0  0  0  0  0  0  0  0
  2  3  1  1  0  0  0
  2  6  1  0  0  0  0
  2  1  1  0  0  0  0
  4  3  2  0  0  0  0
  5  3  1  0  0  0  0
  6  7  2  0  0  0  0
  8  7  1  1  0  0  0
  8  9  1  0  0  0  0
  8 10  1  0  0  0  0
 11 10  1  1  0  0  0
 11 13  1  0  0  0  0
 12 11  1  0  0  0  0
 12 17  1  0  0  0  0
 13 14  1  1  0  0  0
 13 15  1  0  0  0  0
 15 16  1  1  0  0  0
 17 18  1  6  0  0  0
 17 15  1  0  0  0  0
 18 19  1  0  0  0  0
 20 19  2  0  0  0  0
 21 27  2  0  0  0  0
 21 20  1  0  0  0  0
 22 21  1  0  0  0  0
 23 22  1  0  0  0  0
 24 22  2  0  0  0  0
 24 25  1  0  0  0  0
 25 26  2  0  0  0  0
 26 27  1  0  0  0  0
 27 18  1  0  0  0  0
M  END
>  <CHROM.1>
56.49875499,2.87083654,-40.86518775,-75.82137410,-59.48370063,-3.03947102
3.97641866,-15.51074998,-8.95961584,-1.18289953,0.66625495,-1.48008052

>  <Name>
lig.pdb

>  <RI>
0

>  <Rbt.Current_Directory>
/home/itssahil/PROJECTS/Mol_Feturizer/New_Systems/rnas/4b5r

>  <Rbt.Executable>
rbdock ($Id: //depot/dev/client3/rdock/2013.1/src/exe/rbdock.cxx#4 $)

>  <Rbt.Library>
libRbt.so (2013.1, Build901 2013/11/27)

>  <Rbt.Parameter_File>
/export/apps/rDock/src/rDock_2013.1_src/data/scripts/dock_solv.prm

>  <Rbt.Receptor>
prm/pocket_docking_7.prm

>  <SCORE>
-17.4007

>  <SCORE.INTER>
-17.147

>  <SCORE.INTER.CONST>
1

>  <SCORE.INTER.POLAR>
0

>  <SCORE.INTER.ROT>
6

>  <SCORE.INTER.SOLV>
11.8143

>  <SCORE.INTER.VDW>
-22.9694

>  <SCORE.INTER.norm>
-0.635074

>  <SCORE.INTRA>
-0.253735

>  <SCORE.INTRA.DIHEDRAL>
-3.30825

>  <SCORE.INTRA.DIHEDRAL.0>
10.2917

>  <SCORE.INTRA.POLAR>
0

>  <SCORE.INTRA.POLAR.0>
0

>  <SCORE.INTRA.REPUL>
0

>  <SCORE.INTRA.REPUL.0>
0

>  <SCORE.INTRA.SOLV>
-2.09942

>  <SCORE.INTRA.SOLV.lig_0>
-39.6315

>  <SCORE.INTRA.VDW>
2.4501

>  <SCORE.INTRA.VDW.0>
-4.02152

>  <SCORE.INTRA.norm>
-0.00939761

>  <SCORE.RESTR>
0

>  <SCORE.RESTR.CAVITY>
0

>  <SCORE.RESTR.norm>
0

>  <SCORE.SYSTEM>
0

>  <SCORE.SYSTEM.CONST>
0

>  <SCORE.SYSTEM.DIHEDRAL>
0

>  <SCORE.SYSTEM.SOLV>
0

>  <SCORE.SYSTEM.norm>
0

>  <SCORE.heavy>
27

>  <SCORE.norm>
-0.644472

>  <RMSD>
6.254

$$$$
lig.pdb
 OpenBabel11021811493D
libRbt.so/2013.1/901 2013/11/27
 27 29  0  0  0  0  0  0  0  0999 V2000
    1.7961  -14.2973   -9.3123 N   0  0  0  0  0  0  0  0  0  0  0  0
    1.7856  -14.6805   -7.8676 C   0  0  2  0  0  0  0  0  0  0  0  0
    1.6065  -13.4251   -7.0191 C   0  0  0  0  0  0  0  0  0  0  0  0
    1.0494  -12.4451   -7.4998 O   0  0  0  0  0  0  0  0  0  0  0  0
    2.0070  -13.3426   -5.8510 O   0  0  0  0  0  0  0  0  0  0  0  0
    3.0226  -15.4924   -7.4332 C   0  0  0  0  0  0  0  0  0  0  0  0
    2.7884  -16.9836   -7.0755 C   0  0  0  0  0  0  0  0  0  0  0  0
    4.2252  -18.0103   -6.5415 S   0  0  2  0  0  0  0  0  0  0  0  0
    5.3760  -16.7442   -5.9652 C   0  0  0  0  0  0  0  0  0  0  0  0
    5.0244  -18.4635   -8.0964 C   0  0  0  0  0  0  0  0  0  0  0  0
    4.0104  -19.1235   -9.0215 C   0  0  1  0  0  0  0  0  0  0  0  0
    3.1659  -18.1824   -9.6668 O   0  0  0  0  0  0  0  0  0  0  0  0
    4.6485  -19.8746  -10.1590 C   0  0  1  0  0  0  0  0  0  0  0  0
    5.1185  -21.1144   -9.7143 O   0  0  0  0  0  0  0  0  0  0  0  0
    3.4766  -19.9899  -11.1087 C   0  0  1  0  0  0  0  0  0  0  0  0
    2.6533  -21.0765  -10.7367 O   0  0  0  0  0  0  0  0  0  0  0  0
    2.7042  -18.6913  -10.9055 C   0  0  2  0  0  0  0  0  0  0  0  0
    2.8505  -17.6923  -11.9996 N   0  0  0  0  0  0  0  0  0  0  0  0
    1.8229  -16.9833  -12.5689 C   0  0  0  0  0  0  0  0  0  0  0  0
    2.3218  -16.1709  -13.5272 N   0  0  0  0  0  0  0  0  0  0  0  0
    3.6536  -16.3362  -13.5809 C   0  0  0  0  0  0  0  0  0  0  0  0
    4.6332  -15.7488  -14.3669 C   0  0  0  0  0  0  0  0  0  0  0  0
    4.3079  -14.8342  -15.2710 N   0  0  0  0  0  0  0  0  0  0  0  0
    5.9509  -16.1232  -14.1925 N   0  0  0  0  0  0  0  0  0  0  0  0
    6.3070  -17.0726  -13.2430 C   0  0  0  0  0  0  0  0  0  0  0  0
    5.3189  -17.6419  -12.4659 N   0  0  0  0  0  0  0  0  0  0  0  0
    4.0105  -17.2898  -12.6307 C   0  0  0  0  0  0  0  0  0  0  0  0
  2  3  1  1  0  0  0
  2  6  1  0  0  0  0
  2  1  1  0  0  0  0
  4  3  2  0  0  0  0
  5  3  1  0  0  0  0
  6  7  2  0  0  0  0
  8  7  1  6  0  0  0
  8  9  1  0  0  0  0
  8 10  1  0  0  0  0
 11 10  1  6  0  0  0
 11 13  1  0  0  0  0
 12 11  1  0  0  0  0
 12 17  1  0  0  0  0
 13 14  1  1  0  0  0
 13 15  1  0  0  0  0
 15 16  1  1  0  0  0
 17 18  1  6  0  0  0
 17 15  1  0  0  0  0
 18 19  1  0  0  0  0
 20 19  2  0  0  0  0
 21 27  2  0  0  0  0
 21 20  1  0  0  0  0
 22 21  1  0  0  0  0
 23 22  1  0  0  0  0
 24 22  2  0  0  0  0
 24 25  1  0  0  0  0
 25 26  2  0  0  0  0
 26 27  1  0  0  0  0
 27 18  1  0  0  0  0
M  END
>  <CHROM.1>
25.41827567,-110.74047928,22.39720632,-54.42601070,78.85389228,-105.89340089
3.56426279,-17.02176072,-10.03931766,2.26834861,-1.20924109,1.90611330

>  <Name>
lig.pdb

>  <RI>
0

>  <Rbt.Current_Directory>
/home/itssahil/PROJECTS/Mol_Feturizer/New_Systems/rnas/4b5r

>  <Rbt.Executable>
rbdock ($Id: //depot/dev/client3/rdock/2013.1/src/exe/rbdock.cxx#4 $)

>  <Rbt.Library>
libRbt.so (2013.1, Build901 2013/11/27)

>  <Rbt.Parameter_File>
/export/apps/rDock/src/rDock_2013.1_src/data/scripts/dock_solv.prm

>  <Rbt.Receptor>
prm/pocket_docking_7.prm

>  <SCORE>
-13.1648

>  <SCORE.INTER>
-13.6189

>  <SCORE.INTER.CONST>
1

>  <SCORE.INTER.POLAR>
0

>  <SCORE.INTER.ROT>
6

>  <SCORE.INTER.SOLV>
15.7188

>  <SCORE.INTER.VDW>
-21.9189

>  <SCORE.INTER.norm>
-0.504403

>  <SCORE.INTRA>
0.454132

>  <SCORE.INTRA.DIHEDRAL>
-0.243016

>  <SCORE.INTRA.DIHEDRAL.0>
10.2917

>  <SCORE.INTRA.POLAR>
0

>  <SCORE.INTRA.POLAR.0>
0

>  <SCORE.INTRA.REPUL>
0

>  <SCORE.INTRA.REPUL.0>
0

>  <SCORE.INTRA.SOLV>
-2.30019

>  <SCORE.INTRA.SOLV.lig_0>
-39.6315

>  <SCORE.INTRA.VDW>
1.72574

>  <SCORE.INTRA.VDW.0>
-4.02152

>  <SCORE.INTRA.norm>
0.0168197

>  <SCORE.RESTR>
0

>  <SCORE.RESTR.CAVITY>
0

>  <SCORE.RESTR.norm>
0

>  <SCORE.SYSTEM>
0

>  <SCORE.SYSTEM.CONST>
0

>  <SCORE.SYSTEM.DIHEDRAL>
0

>  <SCORE.SYSTEM.SOLV>
0

>  <SCORE.SYSTEM.norm>
0

>  <SCORE.heavy>
27

>  <SCORE.norm>
-0.487584

>  <RMSD>
6.278

$$$$
lig.pdb
 OpenBabel11021811493D
libRbt.so/2013.1/901 2013/11/27
 27 29  0  0  0  0  0  0  0  0999 V2000
    6.6508  -14.2852  -14.7691 N   0  0  0  0  0  0  0  0  0  0  0  0
    6.5205  -15.6297  -14.1294 C   0  0  2  0  0  0  0  0  0  0  0  0
    7.4852  -16.5998  -14.8050 C   0  0  0  0  0  0  0  0  0  0  0  0
    7.8722  -17.5901  -14.1956 O   0  0  0  0  0  0  0  0  0  0  0  0
    7.9085  -16.4319  -15.9559 O   0  0  0  0  0  0  0  0  0  0  0  0
    5.0775  -16.1733  -14.1185 C   0  0  0  0  0  0  0  0  0  0  0  0
    4.5232  -16.6548  -12.7519 C   0  0  0  0  0  0  0  0  0  0  0  0
    2.8055  -17.3228  -12.6700 S   0  0  2  0  0  0  0  0  0  0  0  0
    1.8487  -15.8177  -12.3899 C   0  0  0  0  0  0  0  0  0  0  0  0
    2.7126  -18.0541  -11.0213 C   0  0  0  0  0  0  0  0  0  0  0  0
    3.8438  -19.0576  -10.8404 C   0  0  1  0  0  0  0  0  0  0  0  0
    4.9227  -18.5338  -10.0809 O   0  0  0  0  0  0  0  0  0  0  0  0
    3.4284  -20.2862  -10.0765 C   0  0  1  0  0  0  0  0  0  0  0  0
    2.7260  -21.1593  -10.9134 O   0  0  0  0  0  0  0  0  0  0  0  0
    4.7789  -20.8235   -9.6574 C   0  0  1  0  0  0  0  0  0  0  0  0
    5.3561  -21.5666  -10.7117 O   0  0  0  0  0  0  0  0  0  0  0  0
    5.6177  -19.5735   -9.4156 C   0  0  2  0  0  0  0  0  0  0  0  0
    5.8614  -19.2444   -7.9843 N   0  0  0  0  0  0  0  0  0  0  0  0
    5.8047  -20.1378   -6.9443 C   0  0  0  0  0  0  0  0  0  0  0  0
    6.0806  -19.4921   -5.7891 N   0  0  0  0  0  0  0  0  0  0  0  0
    6.3230  -18.2003   -6.0656 C   0  0  0  0  0  0  0  0  0  0  0  0
    6.6590  -17.1234   -5.2595 C   0  0  0  0  0  0  0  0  0  0  0  0
    6.7962  -17.2837   -3.9499 N   0  0  0  0  0  0  0  0  0  0  0  0
    6.8549  -15.8847   -5.8375 N   0  0  0  0  0  0  0  0  0  0  0  0
    6.7241  -15.7044   -7.2087 C   0  0  0  0  0  0  0  0  0  0  0  0
    6.3948  -16.7892   -7.9957 N   0  0  0  0  0  0  0  0  0  0  0  0
    6.1894  -18.0189   -7.4399 C   0  0  0  0  0  0  0  0  0  0  0  0
  2  3  1  6  0  0  0
  2  6  1  0  0  0  0
  2  1  1  0  0  0  0
  4  3  2  0  0  0  0
  5  3  1  0  0  0  0
  6  7  2  0  0  0  0
  8  7  1  1  0  0  0
  8  9  1  0  0  0  0
  8 10  1  0  0  0  0
 11 10  1  1  0  0  0
 11 13  1  0  0  0  0
 12 11  1  0  0  0  0
 12 17  1  0  0  0  0
 13 14  1  6  0  0  0
 13 15  1  0  0  0  0
 15 16  1  6  0  0  0
 17 18  1  1  0  0  0
 17 15  1  0  0  0  0
 18 19  1  0  0  0  0
 20 19  2  0  0  0  0
 21 27  2  0  0  0  0
 21 20  1  0  0  0  0
 22 21  1  0  0  0  0
 23 22  1  0  0  0  0
 24 22  2  0  0  0  0
 24 25  1  0  0  0  0
 25 26  2  0  0  0  0
 26 27  1  0  0  0  0
 27 18  1  0  0  0  0
M  END
>  <CHROM.1>
155.97432811,-128.27960741,-88.06916290,-54.84054610,101.29258520,142.29204869
5.33011496,-17.90335850,-10.31703918,-1.67118831,0.81404876,1.86211072

>  <Name>
lig.pdb

>  <RI>
0

>  <Rbt.Current_Directory>
/home/itssahil/PROJECTS/Mol_Feturizer/New_Systems/rnas/4b5r

>  <Rbt.Executable>
rbdock ($Id: //depot/dev/client3/rdock/2013.1/src/exe/rbdock.cxx#4 $)

>  <Rbt.Library>
libRbt.so (2013.1, Build901 2013/11/27)

>  <Rbt.Parameter_File>
/export/apps/rDock/src/rDock_2013.1_src/data/scripts/dock_solv.prm

>  <Rbt.Receptor>
prm/pocket_docking_7.prm

>  <SCORE>
-10.574

>  <SCORE.INTER>
-12.6834

>  <SCORE.INTER.CONST>
1

>  <SCORE.INTER.POLAR>
0

>  <SCORE.INTER.ROT>
6

>  <SCORE.INTER.SOLV>
12.9352

>  <SCORE.INTER.VDW>
-20.3674

>  <SCORE.INTER.norm>
-0.469756

>  <SCORE.INTRA>
2.10946

>  <SCORE.INTRA.DIHEDRAL>
2.25291

>  <SCORE.INTRA.DIHEDRAL.0>
10.2917

>  <SCORE.INTRA.POLAR>
0

>  <SCORE.INTRA.POLAR.0>
0

>  <SCORE.INTRA.REPUL>
0.169987

>  <SCORE.INTRA.REPUL.0>
0

>  <SCORE.INTRA.SOLV>
-3.18551

>  <SCORE.INTRA.SOLV.lig_0>
-39.6315

>  <SCORE.INTRA.VDW>
1.72582

>  <SCORE.INTRA.VDW.0>
-4.02152

>  <SCORE.INTRA.norm>
0.0781281

>  <SCORE.RESTR>
0

>  <SCORE.RESTR.CAVITY>
0

>  <SCORE.RESTR.norm>
0

>  <SCORE.SYSTEM>
0

>  <SCORE.SYSTEM.CONST>
0

>  <SCORE.SYSTEM.DIHEDRAL>
0

>  <SCORE.SYSTEM.SOLV>
0

>  <SCORE.SYSTEM.norm>
0

>  <SCORE.heavy>
27

>  <SCORE.norm>
-0.391628

>  <RMSD>
6.282

$$$$
lig.pdb
 OpenBabel11021811493D
libRbt.so/2013.1/901 2013/11/27
 27 29  0  0  0  0  0  0  0  0999 V2000
    5.8818  -14.9023  -11.5182 N   0  0  0  0  0  0  0  0  0  0  0  0
    5.1625  -13.5929  -11.5607 C   0  0  2  0  0  0  0  0  0  0  0  0
    6.1839  -12.4654  -11.6774 C   0  0  0  0  0  0  0  0  0  0  0  0
    6.0452  -11.6115  -12.5454 O   0  0  0  0  0  0  0  0  0  0  0  0
    7.1660  -12.3705  -10.9302 O   0  0  0  0  0  0  0  0  0  0  0  0
    4.2031  -13.3743  -10.3734 C   0  0  0  0  0  0  0  0  0  0  0  0
    4.5656  -14.0851   -9.0431 C   0  0  0  0  0  0  0  0  0  0  0  0
    3.4562  -13.8708   -7.5847 S   0  0  2  0  0  0  0  0  0  0  0  0
    4.6541  -13.6330   -6.2550 C   0  0  0  0  0  0  0  0  0  0  0  0
    2.9162  -15.5532   -7.2111 C   0  0  0  0  0  0  0  0  0  0  0  0
    3.9532  -16.5487   -7.7142 C   0  0  1  0  0  0  0  0  0  0  0  0
    5.1794  -16.4665   -7.0037 O   0  0  0  0  0  0  0  0  0  0  0  0
    3.5305  -17.9826   -7.5391 C   0  0  1  0  0  0  0  0  0  0  0  0
    2.6277  -18.3450   -8.5439 O   0  0  0  0  0  0  0  0  0  0  0  0
    4.8657  -18.6833   -7.6598 C   0  0  1  0  0  0  0  0  0  0  0  0
    5.2034  -18.8569   -9.0209 O   0  0  0  0  0  0  0  0  0  0  0  0
    5.8542  -17.7119   -7.0244 C   0  0  2  0  0  0  0  0  0  0  0  0
    6.3370  -18.0986   -5.6703 N   0  0  0  0  0  0  0  0  0  0  0  0
    6.3577  -17.2775   -4.5712 C   0  0  0  0  0  0  0  0  0  0  0  0
    6.8576  -17.9598   -3.5167 N   0  0  0  0  0  0  0  0  0  0  0  0
    7.1518  -19.2090   -3.9131 C   0  0  0  0  0  0  0  0  0  0  0  0
    7.6719  -20.3017   -3.2364 C   0  0  0  0  0  0  0  0  0  0  0  0
    7.9715  -20.2111   -1.9473 N   0  0  0  0  0  0  0  0  0  0  0  0
    7.8679  -21.4859   -3.9192 N   0  0  0  0  0  0  0  0  0  0  0  0
    7.5496  -21.5979   -5.2667 C   0  0  0  0  0  0  0  0  0  0  0  0
    7.0274  -20.5013   -5.9220 N   0  0  0  0  0  0  0  0  0  0  0  0
    6.8350  -19.3206   -5.2646 C   0  0  0  0  0  0  0  0  0  0  0  0
  2  3  1  1  0  0  0
  2  6  1  0  0  0  0
  2  1  1  0  0  0  0
  4  3  2  0  0  0  0
  5  3  1  0  0  0  0
  6  7  2  0  0  0  0
  8  7  1  6  0  0  0
  8  9  1  0  0  0  0
  8 10  1  0  0  0  0
 11 10  1  1  0  0  0
 11 13  1  0  0  0  0
 12 11  1  0  0  0  0
 12 17  1  0  0  0  0
 13 14  1  6  0  0  0
 13 15  1  0  0  0  0
 15 16  1  6  0  0  0
 17 18  1  1  0  0  0
 17 15  1  0  0  0  0
 18 19  1  0  0  0  0
 20 19  2  0  0  0  0
 21 27  2  0  0  0  0
 21 20  1  0  0  0  0
 22 21  1  0  0  0  0
 23 22  1  0  0  0  0
 24 22  2  0  0  0  0
 24 25  1  0  0  0  0
 25 26  2  0  0  0  0
 26 27  1  0  0  0  0
 27 18  1  0  0  0  0
M  END
>  <CHROM.1>
129.57386353,28.44865321,-137.29546386,25.52940085,67.08458960,-11.02131036
5.53966621,-16.69037868,-7.35873652,-1.91381488,-0.90487574,2.11877517

>  <Name>
lig.pdb

>  <RI>
0

>  <Rbt.Current_Directory>
/home/itssahil/PROJECTS/Mol_Feturizer/New_Systems/rnas/4b5r

>  <Rbt.Executable>
rbdock ($Id: //depot/dev/client3/rdock/2013.1/src/exe/rbdock.cxx#4 $)

>  <Rbt.Library>
libRbt.so (2013.1, Build901 2013/11/27)

>  <Rbt.Parameter_File>
/export/apps/rDock/src/rDock_2013.1_src/data/scripts/dock_solv.prm

>  <Rbt.Receptor>
prm/pocket_docking_8.prm

>  <SCORE>
-12.2833

>  <SCORE.INTER>
-14.0387

>  <SCORE.INTER.CONST>
1

>  <SCORE.INTER.POLAR>
0

>  <SCORE.INTER.ROT>
6

>  <SCORE.INTER.SOLV>
7.30582

>  <SCORE.INTER.VDW>
-19.3944

>  <SCORE.INTER.norm>
-0.519952

>  <SCORE.INTRA>
1.7554

>  <SCORE.INTRA.DIHEDRAL>
1.48568

>  <SCORE.INTRA.DIHEDRAL.0>
10.2917

>  <SCORE.INTRA.POLAR>
0

>  <SCORE.INTRA.POLAR.0>
0

>  <SCORE.INTRA.REPUL>
0

>  <SCORE.INTRA.REPUL.0>
0

>  <SCORE.INTRA.SOLV>
-2.56825

>  <SCORE.INTRA.SOLV.lig_0>
-39.6315

>  <SCORE.INTRA.VDW>
2.29669

>  <SCORE.INTRA.VDW.0>
-4.02152

>  <SCORE.INTRA.norm>
0.0650149

>  <SCORE.RESTR>
0

>  <SCORE.RESTR.CAVITY>
0

>  <SCORE.RESTR.norm>
0

>  <SCORE.SYSTEM>
0

>  <SCORE.SYSTEM.CONST>
0

>  <SCORE.SYSTEM.DIHEDRAL>
0

>  <SCORE.SYSTEM.SOLV>
0

>  <SCORE.SYSTEM.norm>
0

>  <SCORE.heavy>
27

>  <SCORE.norm>
-0.454937

>  <RMSD>
6.286

$$$$
lig.pdb
 OpenBabel11021811493D
libRbt.so/2013.1/901 2013/11/27
 27 29  0  0  0  0  0  0  0  0999 V2000
    6.5716  -19.3429   -5.1636 N   0  0  0  0  0  0  0  0  0  0  0  0
    5.4907  -20.2555   -5.6460 C   0  0  2  0  0  0  0  0  0  0  0  0
    6.1229  -21.5265   -6.2055 C   0  0  0  0  0  0  0  0  0  0  0  0
    5.5449  -22.5987   -6.0712 O   0  0  0  0  0  0  0  0  0  0  0  0
    7.2117  -21.5308   -6.7939 O   0  0  0  0  0  0  0  0  0  0  0  0
    4.5329  -19.5991   -6.6608 C   0  0  0  0  0  0  0  0  0  0  0  0
    4.3582  -20.3202   -8.0231 C   0  0  0  0  0  0  0  0  0  0  0  0
    3.2316  -19.5845   -9.2852 S   0  0  2  0  0  0  0  0  0  0  0  0
    3.3321  -20.8060  -10.6108 C   0  0  0  0  0  0  0  0  0  0  0  0
    4.2191  -18.2604  -10.0155 C   0  0  0  0  0  0  0  0  0  0  0  0
    3.4035  -16.9749  -10.0568 C   0  0  1  0  0  0  0  0  0  0  0  0
    2.7826  -16.6815   -8.8144 O   0  0  0  0  0  0  0  0  0  0  0  0
    4.2372  -15.7542  -10.3402 C   0  0  1  0  0  0  0  0  0  0  0  0
    4.5219  -15.6718  -11.7070 O   0  0  0  0  0  0  0  0  0  0  0  0
    3.3053  -14.6631   -9.8612 C   0  0  1  0  0  0  0  0  0  0  0  0
    2.3576  -14.3570  -10.8637 O   0  0  0  0  0  0  0  0  0  0  0  0
    2.5837  -15.2863   -8.6715 C   0  0  2  0  0  0  0  0  0  0  0  0
    3.0310  -14.8006   -7.3372 N   0  0  0  0  0  0  0  0  0  0  0  0
    2.4343  -13.7957   -6.6181 C   0  0  0  0  0  0  0  0  0  0  0  0
    3.1043  -13.6230   -5.4568 N   0  0  0  0  0  0  0  0  0  0  0  0
    4.1172  -14.5038   -5.4093 C   0  0  0  0  0  0  0  0  0  0  0  0
    5.0889  -14.7539   -4.4523 C   0  0  0  0  0  0  0  0  0  0  0  0
    5.1187  -14.0505   -3.3281 N   0  0  0  0  0  0  0  0  0  0  0  0
    6.0200  -15.7474   -4.6816 N   0  0  0  0  0  0  0  0  0  0  0  0
    5.9947  -16.4983   -5.8501 C   0  0  0  0  0  0  0  0  0  0  0  0
    5.0166  -16.2389   -6.7884 N   0  0  0  0  0  0  0  0  0  0  0  0
    4.0934  -15.2549   -6.5819 C   0  0  0  0  0  0  0  0  0  0  0  0
  2  3  1  6  0  0  0
  2  6  1  0  0  0  0
  2  1  1  0  0  0  0
  4  3  2  0  0  0  0
  5  3  1  0  0  0  0
  6  7  2  0  0  0  0
  8  7  1  1  0  0  0
  8  9  1  0  0  0  0
  8 10  1  0  0  0  0
 11 10  1  1  0  0  0
 11 13  1  0  0  0  0
 12 11  1  0  0  0  0
 12 17  1  0  0  0  0
 13 14  1  6  0  0  0
 13 15  1  0  0  0  0
 15 16  1  6  0  0  0
 17 18  1  1  0  0  0
 17 15  1  0  0  0  0
 18 19  1  0  0  0  0
 20 19  2  0  0  0  0
 21 27  2  0  0  0  0
 21 20  1  0  0  0  0
 22 21  1  0  0  0  0
 23 22  1  0  0  0  0
 24 22  2  0  0  0  0
 24 25  1  0  0  0  0
 25 26  2  0  0  0  0
 26 27  1  0  0  0  0
 27 18  1  0  0  0  0
M  END
>  <CHROM.1>
145.63472558,124.90524437,-177.85266386,-131.21934507,48.89557367,-145.05738548
4.30928419,-17.29395354,-7.60896576,-0.87365419,-1.12578605,0.57990703

>  <Name>
lig.pdb

>  <RI>
0

>  <Rbt.Current_Directory>
/home/itssahil/PROJECTS/Mol_Feturizer/New_Systems/rnas/4b5r

>  <Rbt.Executable>
rbdock ($Id: //depot/dev/client3/rdock/2013.1/src/exe/rbdock.cxx#4 $)

>  <Rbt.Library>
libRbt.so (2013.1, Build901 2013/11/27)

>  <Rbt.Parameter_File>
/export/apps/rDock/src/rDock_2013.1_src/data/scripts/dock_solv.prm

>  <Rbt.Receptor>
prm/pocket_docking_7.prm

>  <SCORE>
-9.86856

>  <SCORE.INTER>
-11.4007

>  <SCORE.INTER.CONST>
1

>  <SCORE.INTER.POLAR>
0

>  <SCORE.INTER.ROT>
6

>  <SCORE.INTER.SOLV>
12.4308

>  <SCORE.INTER.VDW>
-19.3441

>  <SCORE.INTER.norm>
-0.422249

>  <SCORE.INTRA>
1.53217

>  <SCORE.INTRA.DIHEDRAL>
2.06772

>  <SCORE.INTRA.DIHEDRAL.0>
10.2917

>  <SCORE.INTRA.POLAR>
0

>  <SCORE.INTRA.POLAR.0>
0

>  <SCORE.INTRA.REPUL>
0

>  <SCORE.INTRA.REPUL.0>
0

>  <SCORE.INTRA.SOLV>
-0.287502

>  <SCORE.INTRA.SOLV.lig_0>
-39.6315

>  <SCORE.INTRA.VDW>
0.642057

>  <SCORE.INTRA.VDW.0>
-4.02152

>  <SCORE.INTRA.norm>
0.056747

>  <SCORE.RESTR>
0

>  <SCORE.RESTR.CAVITY>
0

>  <SCORE.RESTR.norm>
0

>  <SCORE.SYSTEM>
0

>  <SCORE.SYSTEM.CONST>
0

>  <SCORE.SYSTEM.DIHEDRAL>
0

>  <SCORE.SYSTEM.SOLV>
0

>  <SCORE.SYSTEM.norm>
0

>  <SCORE.heavy>
27

>  <SCORE.norm>
-0.365502

>  <RMSD>
6.290

$$$$
lig.pdb
 OpenBabel11021811493D
libRbt.so/2013.1/901 2013/11/27
 27 29  0  0  0  0  0  0  0  0999 V2000
    7.0567  -15.9131   -8.4518 N   0  0  0  0  0  0  0  0  0  0  0  0
    6.2654  -15.0901   -7.4871 C   0  0  2  0  0  0  0  0  0  0  0  0
    6.6013  -15.5276   -6.0645 C   0  0  0  0  0  0  0  0  0  0  0  0
    6.5642  -14.7071   -5.1551 O   0  0  0  0  0  0  0  0  0  0  0  0
    6.9201  -16.6887   -5.7778 O   0  0  0  0  0  0  0  0  0  0  0  0
    4.7462  -15.1176   -7.7499 C   0  0  0  0  0  0  0  0  0  0  0  0
    3.9483  -13.8436   -7.3666 C   0  0  0  0  0  0  0  0  0  0  0  0
    2.1254  -13.8127   -7.6489 S   0  0  2  0  0  0  0  0  0  0  0  0
    1.5475  -12.9607   -6.1658 C   0  0  0  0  0  0  0  0  0  0  0  0
    1.6061  -15.4969   -7.2546 C   0  0  0  0  0  0  0  0  0  0  0  0
    0.7854  -16.0637   -8.4055 C   0  0  1  0  0  0  0  0  0  0  0  0
    0.8252  -15.2413   -9.5620 O   0  0  0  0  0  0  0  0  0  0  0  0
    1.2902  -17.3953   -8.8926 C   0  0  1  0  0  0  0  0  0  0  0  0
    0.8708  -18.4141   -8.0311 O   0  0  0  0  0  0  0  0  0  0  0  0
    0.6336  -17.4611  -10.2538 C   0  0  1  0  0  0  0  0  0  0  0  0
   -0.6997  -17.9125  -10.1301 O   0  0  0  0  0  0  0  0  0  0  0  0
    0.6238  -16.0135  -10.7323 C   0  0  2  0  0  0  0  0  0  0  0  0
    1.6264  -15.6900  -11.7842 N   0  0  0  0  0  0  0  0  0  0  0  0
    1.5905  -16.1411  -13.0796 C   0  0  0  0  0  0  0  0  0  0  0  0
    2.6559  -15.6491  -13.7506 N   0  0  0  0  0  0  0  0  0  0  0  0
    3.3740  -14.8815  -12.9143 C   0  0  0  0  0  0  0  0  0  0  0  0
    4.5357  -14.1458  -13.0924 C   0  0  0  0  0  0  0  0  0  0  0  0
    5.1384  -14.1208  -14.2738 N   0  0  0  0  0  0  0  0  0  0  0  0
    5.0529  -13.4354  -12.0273 N   0  0  0  0  0  0  0  0  0  0  0  0
    4.4269  -13.4447  -10.7873 C   0  0  0  0  0  0  0  0  0  0  0  0
    3.2683  -14.1781  -10.6305 N   0  0  0  0  0  0  0  0  0  0  0  0
    2.7478  -14.8929  -11.6704 C   0  0  0  0  0  0  0  0  0  0  0  0
  2  3  1  1  0  0  0
  2  6  1  0  0  0  0
  2  1  1  0  0  0  0
  4  3  2  0  0  0  0
  5  3  1  0  0  0  0
  6  7  2  0  0  0  0
  8  7  1  1  0  0  0
  8  9  1  0  0  0  0
  8 10  1  0  0  0  0
 11 10  1  1  0  0  0
 11 13  1  0  0  0  0
 12 11  1  0  0  0  0
 12 17  1  0  0  0  0
 13 14  1  1  0  0  0
 13 15  1  0  0  0  0
 15 16  1  1  0  0  0
 17 18  1  6  0  0  0
 17 15  1  0  0  0  0
 18 19  1  0  0  0  0
 20 19  2  0  0  0  0
 21 27  2  0  0  0  0
 21 20  1  0  0  0  0
 22 21  1  0  0  0  0
 23 22  1  0  0  0  0
 24 22  2  0  0  0  0
 24 25  1  0  0  0  0
 25 26  2  0  0  0  0
 26 27  1  0  0  0  0
 27 18  1  0  0  0  0
M  END
>  <CHROM.1>
148.68815065,-149.29995188,140.22307781,-127.94041518,9.95468947,-171.18001120
3.11690008,-15.30062756,-9.42760049,-0.99681018,-0.35067541,-1.45281581

>  <Name>
lig.pdb

>  <RI>
0

>  <Rbt.Current_Directory>
/home/itssahil/PROJECTS/Mol_Feturizer/New_Systems/rnas/4b5r

>  <Rbt.Executable>
rbdock ($Id: //depot/dev/client3/rdock/2013.1/src/exe/rbdock.cxx#4 $)

>  <Rbt.Library>
libRbt.so (2013.1, Build901 2013/11/27)

>  <Rbt.Parameter_File>
/export/apps/rDock/src/rDock_2013.1_src/data/scripts/dock_solv.prm

>  <Rbt.Receptor>
prm/pocket_docking_2.prm

>  <SCORE>
-0.810699

>  <SCORE.INTER>
-6.76159

>  <SCORE.INTER.CONST>
1

>  <SCORE.INTER.POLAR>
0

>  <SCORE.INTER.ROT>
6

>  <SCORE.INTER.SOLV>
17.0021

>  <SCORE.INTER.VDW>
-17.7751

>  <SCORE.INTER.norm>
-0.250429

>  <SCORE.INTRA>
3.26106

>  <SCORE.INTRA.DIHEDRAL>
7.01473

>  <SCORE.INTRA.DIHEDRAL.0>
10.2917

>  <SCORE.INTRA.POLAR>
0

>  <SCORE.INTRA.POLAR.0>
0

>  <SCORE.INTRA.REPUL>
0

>  <SCORE.INTRA.REPUL.0>
0

>  <SCORE.INTRA.SOLV>
-1.88011

>  <SCORE.INTRA.SOLV.lig_0>
-39.6315

>  <SCORE.INTRA.VDW>
0.69375

>  <SCORE.INTRA.VDW.0>
-4.02152

>  <SCORE.INTRA.norm>
0.12078

>  <SCORE.RESTR>
2.68983

>  <SCORE.RESTR.CAVITY>
2.68983

>  <SCORE.RESTR.norm>
0.0996235

>  <SCORE.SYSTEM>
0

>  <SCORE.SYSTEM.CONST>
0

>  <SCORE.SYSTEM.DIHEDRAL>
0

>  <SCORE.SYSTEM.SOLV>
0

>  <SCORE.SYSTEM.norm>
0

>  <SCORE.heavy>
27

>  <SCORE.norm>
-0.0300259

>  <RMSD>
6.331

$$$$
lig.pdb
 OpenBabel11021811493D
libRbt.so/2013.1/901 2013/11/27
 27 29  0  0  0  0  0  0  0  0999 V2000
    5.8159  -16.2307   -6.5428 N   0  0  0  0  0  0  0  0  0  0  0  0
    5.3860  -14.8001   -6.4925 C   0  0  2  0  0  0  0  0  0  0  0  0
    5.9814  -14.1430   -5.2508 C   0  0  0  0  0  0  0  0  0  0  0  0
    6.5011  -14.8409   -4.3880 O   0  0  0  0  0  0  0  0  0  0  0  0
    5.9612  -12.9196   -5.0647 O   0  0  0  0  0  0  0  0  0  0  0  0
    3.8573  -14.6099   -6.5625 C   0  0  0  0  0  0  0  0  0  0  0  0
    3.2677  -14.1941   -7.9358 C   0  0  0  0  0  0  0  0  0  0  0  0
    1.4463  -13.9434   -8.0870 S   0  0  2  0  0  0  0  0  0  0  0  0
    1.0982  -12.9507   -6.6197 C   0  0  0  0  0  0  0  0  0  0  0  0
    0.7545  -15.5249   -7.5560 C   0  0  0  0  0  0  0  0  0  0  0  0
    1.3108  -16.6458   -8.4241 C   0  0  1  0  0  0  0  0  0  0  0  0
    1.3865  -16.2882   -9.7959 O   0  0  0  0  0  0  0  0  0  0  0  0
    2.7248  -17.0214   -8.0709 C   0  0  1  0  0  0  0  0  0  0  0  0
    2.7375  -17.8343   -6.9329 O   0  0  0  0  0  0  0  0  0  0  0  0
    3.1408  -17.7533   -9.3278 C   0  0  1  0  0  0  0  0  0  0  0  0
    2.6823  -19.0894   -9.2878 O   0  0  0  0  0  0  0  0  0  0  0  0
    2.4147  -17.0140  -10.4461 C   0  0  2  0  0  0  0  0  0  0  0  0
    3.2736  -16.1264  -11.2772 N   0  0  0  0  0  0  0  0  0  0  0  0
    3.0229  -15.7726  -12.5790 C   0  0  0  0  0  0  0  0  0  0  0  0
    4.0095  -14.9579  -13.0153 N   0  0  0  0  0  0  0  0  0  0  0  0
    4.8878  -14.7725  -12.0161 C   0  0  0  0  0  0  0  0  0  0  0  0
    6.0559  -14.0304  -11.9297 C   0  0  0  0  0  0  0  0  0  0  0  0
    6.4824  -13.3285  -12.9713 N   0  0  0  0  0  0  0  0  0  0  0  0
    6.7651  -14.0266  -10.7449 N   0  0  0  0  0  0  0  0  0  0  0  0
    6.3250  -14.7492   -9.6431 C   0  0  0  0  0  0  0  0  0  0  0  0
    5.1571  -15.4771   -9.7462 N   0  0  0  0  0  0  0  0  0  0  0  0
    4.4479  -15.4989  -10.9123 C   0  0  0  0  0  0  0  0  0  0  0  0
  2  3  1  1  0  0  0
  2  6  1  0  0  0  0
  2  1  1  0  0  0  0
  4  3  2  0  0  0  0
  5  3  1  0  0  0  0
  6  7  2  0  0  0  0
  8  7  1  1  0  0  0
  8  9  1  0  0  0  0
  8 10  1  0  0  0  0
 11 10  1  1  0  0  0
 11 13  1  0  0  0  0
 12 11  1  0  0  0  0
 12 17  1  0  0  0  0
 13 14  1  1  0  0  0
 13 15  1  0  0  0  0
 15 16  1  1  0  0  0
 17 18  1  1  0  0  0
 17 15  1  0  0  0  0
 18 19  1  0  0  0  0
 20 19  2  0  0  0  0
 21 27  2  0  0  0  0
 21 20  1  0  0  0  0
 22 21  1  0  0  0  0
 23 22  1  0  0  0  0
 24 22  2  0  0  0  0
 24 25  1  0  0  0  0
 25 26  2  0  0  0  0
 26 27  1  0  0  0  0
 27 18  1  0  0  0  0
M  END
>  <CHROM.1>
-11.70894034,-100.95082636,46.07347068,-57.39002426,-41.09861094,-86.76295600
3.81472720,-15.30750593,-8.83610925,-1.54753341,-0.48538325,-1.68461852

>  <Name>
lig.pdb

>  <RI>
0

>  <Rbt.Current_Directory>
/home/itssahil/PROJECTS/Mol_Feturizer/New_Systems/rnas/4b5r

>  <Rbt.Executable>
rbdock ($Id: //depot/dev/client3/rdock/2013.1/src/exe/rbdock.cxx#4 $)

>  <Rbt.Library>
libRbt.so (2013.1, Build901 2013/11/27)

>  <Rbt.Parameter_File>
/export/apps/rDock/src/rDock_2013.1_src/data/scripts/dock_solv.prm

>  <Rbt.Receptor>
prm/pocket_docking_2.prm

>  <SCORE>
-9.11513

>  <SCORE.INTER>
-11.5966

>  <SCORE.INTER.CONST>
1

>  <SCORE.INTER.POLAR>
0

>  <SCORE.INTER.ROT>
6

>  <SCORE.INTER.SOLV>
7.39452

>  <SCORE.INTER.VDW>
-17.7959

>  <SCORE.INTER.norm>
-0.429503

>  <SCORE.INTRA>
1.30204

>  <SCORE.INTRA.DIHEDRAL>
0.442669

>  <SCORE.INTRA.DIHEDRAL.0>
10.2917

>  <SCORE.INTRA.POLAR>
0

>  <SCORE.INTRA.POLAR.0>
0

>  <SCORE.INTRA.REPUL>
0

>  <SCORE.INTRA.REPUL.0>
0

>  <SCORE.INTRA.SOLV>
1.63612

>  <SCORE.INTRA.SOLV.lig_0>
-39.6315

>  <SCORE.INTRA.VDW>
0.262649

>  <SCORE.INTRA.VDW.0>
-4.02152

>  <SCORE.INTRA.norm>
0.0482238

>  <SCORE.RESTR>
1.1794

>  <SCORE.RESTR.CAVITY>
1.1794

>  <SCORE.RESTR.norm>
0.0436816

>  <SCORE.SYSTEM>
0

>  <SCORE.SYSTEM.CONST>
0

>  <SCORE.SYSTEM.DIHEDRAL>
0

>  <SCORE.SYSTEM.SOLV>
0

>  <SCORE.SYSTEM.norm>
0

>  <SCORE.heavy>
27

>  <SCORE.norm>
-0.337597

>  <RMSD>
6.342

$$$$
lig.pdb
 OpenBabel11021811493D
libRbt.so/2013.1/901 2013/11/27
 27 29  0  0  0  0  0  0  0  0999 V2000
    6.6226  -14.7082   -7.2799 N   0  0  0  0  0  0  0  0  0  0  0  0
    5.2207  -14.7700   -6.7652 C   0  0  2  0  0  0  0  0  0  0  0  0
    5.2058  -15.5399   -5.4480 C   0  0  0  0  0  0  0  0  0  0  0  0
    5.4259  -16.7455   -5.4500 O   0  0  0  0  0  0  0  0  0  0  0  0
    4.9735  -15.0004   -4.3586 O   0  0  0  0  0  0  0  0  0  0  0  0
    4.2139  -15.3511   -7.7784 C   0  0  0  0  0  0  0  0  0  0  0  0
    2.7510  -14.8448   -7.6774 C   0  0  0  0  0  0  0  0  0  0  0  0
    1.4941  -15.5047   -8.8556 S   0  0  2  0  0  0  0  0  0  0  0  0
    0.0424  -14.5252   -8.4167 C   0  0  0  0  0  0  0  0  0  0  0  0
    1.0229  -17.0899   -8.1298 C   0  0  0  0  0  0  0  0  0  0  0  0
    1.9288  -18.1900   -8.6671 C   0  0  1  0  0  0  0  0  0  0  0  0
    2.1812  -18.0593  -10.0580 O   0  0  0  0  0  0  0  0  0  0  0  0
    3.3012  -18.1807   -8.0493 C   0  0  1  0  0  0  0  0  0  0  0  0
    3.2626  -18.7686   -6.7809 O   0  0  0  0  0  0  0  0  0  0  0  0
    4.0679  -19.0028   -9.0616 C   0  0  1  0  0  0  0  0  0  0  0  0
    3.8716  -20.3810   -8.8188 O   0  0  0  0  0  0  0  0  0  0  0  0
    3.4283  -18.6393  -10.3969 C   0  0  2  0  0  0  0  0  0  0  0  0
    4.2387  -17.7364  -11.2596 N   0  0  0  0  0  0  0  0  0  0  0  0
    5.5009  -18.0065  -11.7252 C   0  0  0  0  0  0  0  0  0  0  0  0
    5.9288  -16.9671  -12.4762 N   0  0  0  0  0  0  0  0  0  0  0  0
    4.9623  -16.0350  -12.5112 C   0  0  0  0  0  0  0  0  0  0  0  0
    4.8826  -14.8003  -13.1370 C   0  0  0  0  0  0  0  0  0  0  0  0
    5.8946  -14.3535  -13.8690 N   0  0  0  0  0  0  0  0  0  0  0  0
    3.7352  -14.0456  -12.9938 N   0  0  0  0  0  0  0  0  0  0  0  0
    2.6639  -14.5053  -12.2382 C   0  0  0  0  0  0  0  0  0  0  0  0
    2.7593  -15.7392  -11.6276 N   0  0  0  0  0  0  0  0  0  0  0  0
    3.8893  -16.4947  -11.7516 C   0  0  0  0  0  0  0  0  0  0  0  0
  2  3  1  1  0  0  0
  2  6  1  0  0  0  0
  2  1  1  0  0  0  0
  4  3  2  0  0  0  0
  5  3  1  0  0  0  0
  6  7  2  0  0  0  0
  8  7  1  1  0  0  0
  8  9  1  0  0  0  0
  8 10  1  0  0  0  0
 11 10  1  1  0  0  0
 11 13  1  0  0  0  0
 12 11  1  0  0  0  0
 12 17  1  0  0  0  0
 13 14  1  1  0  0  0
 13 15  1  0  0  0  0
 15 16  1  1  0  0  0
 17 18  1  1  0  0  0
 17 15  1  0  0  0  0
 18 19  1  0  0  0  0
 20 19  2  0  0  0  0
 21 27  2  0  0  0  0
 21 20  1  0  0  0  0
 22 21  1  0  0  0  0
 23 22  1  0  0  0  0
 24 22  2  0  0  0  0
 24 25  1  0  0  0  0
 25 26  2  0  0  0  0
 26 27  1  0  0  0  0
 27 18  1  0  0  0  0
M  END
>  <CHROM.1>
-69.35632576,-150.61858494,-175.59636167,-89.95279046,-41.51304469,178.47211490
3.70191024,-16.43583557,-9.35606727,-1.71889291,-1.11774775,-1.60370657

>  <Name>
lig.pdb

>  <RI>
0

>  <Rbt.Current_Directory>
/home/itssahil/PROJECTS/Mol_Feturizer/New_Systems/rnas/4b5r

>  <Rbt.Executable>
rbdock ($Id: //depot/dev/client3/rdock/2013.1/src/exe/rbdock.cxx#4 $)

>  <Rbt.Library>
libRbt.so (2013.1, Build901 2013/11/27)

>  <Rbt.Parameter_File>
/export/apps/rDock/src/rDock_2013.1_src/data/scripts/dock_solv.prm

>  <Rbt.Receptor>
prm/pocket_docking_4.prm

>  <SCORE>
-8.33394

>  <SCORE.INTER>
-8.3059

>  <SCORE.INTER.CONST>
1

>  <SCORE.INTER.POLAR>
0

>  <SCORE.INTER.ROT>
6

>  <SCORE.INTER.SOLV>
10.6153

>  <SCORE.INTER.VDW>
-16.6757

>  <SCORE.INTER.norm>
-0.307626

>  <SCORE.INTRA>
-0.0306579

>  <SCORE.INTRA.DIHEDRAL>
1.13092

>  <SCORE.INTRA.DIHEDRAL.0>
10.2917

>  <SCORE.INTRA.POLAR>
0

>  <SCORE.INTRA.POLAR.0>
0

>  <SCORE.INTRA.REPUL>
0.120939

>  <SCORE.INTRA.REPUL.0>
0

>  <SCORE.INTRA.SOLV>
-1.38276

>  <SCORE.INTRA.SOLV.lig_0>
-39.6315

>  <SCORE.INTRA.VDW>
-0.509435

>  <SCORE.INTRA.VDW.0>
-4.02152

>  <SCORE.INTRA.norm>
-0.00113548

>  <SCORE.RESTR>
0.00261027

>  <SCORE.RESTR.CAVITY>
0.00261027

>  <SCORE.RESTR.norm>
9.66767e-05

>  <SCORE.SYSTEM>
0

>  <SCORE.SYSTEM.CONST>
0

>  <SCORE.SYSTEM.DIHEDRAL>
0

>  <SCORE.SYSTEM.SOLV>
0

>  <SCORE.SYSTEM.norm>
0

>  <SCORE.heavy>
27

>  <SCORE.norm>
-0.308665

>  <RMSD>
6.346

$$$$
lig.pdb
 OpenBabel11021811493D
libRbt.so/2013.1/901 2013/11/27
 27 29  0  0  0  0  0  0  0  0999 V2000
    7.0244  -14.8839   -6.5125 N   0  0  0  0  0  0  0  0  0  0  0  0
    5.8206  -14.3020   -5.8445 C   0  0  2  0  0  0  0  0  0  0  0  0
    5.8242  -14.7021   -4.3720 C   0  0  0  0  0  0  0  0  0  0  0  0
    5.0032  -14.2065   -3.6090 O   0  0  0  0  0  0  0  0  0  0  0  0
    6.6318  -15.5121   -3.8994 O   0  0  0  0  0  0  0  0  0  0  0  0
    4.4911  -14.6702   -6.5336 C   0  0  0  0  0  0  0  0  0  0  0  0
    3.8420  -13.5798   -7.4259 C   0  0  0  0  0  0  0  0  0  0  0  0
    2.2468  -13.9529   -8.2743 S   0  0  2  0  0  0  0  0  0  0  0  0
    1.2362  -12.5432   -7.7735 C   0  0  0  0  0  0  0  0  0  0  0  0
    1.5083  -15.2388   -7.2434 C   0  0  0  0  0  0  0  0  0  0  0  0
    1.6242  -16.5868   -7.9427 C   0  0  1  0  0  0  0  0  0  0  0  0
    1.1958  -16.5394   -9.2953 O   0  0  0  0  0  0  0  0  0  0  0  0
    3.0407  -17.0879   -8.0306 C   0  0  1  0  0  0  0  0  0  0  0  0
    3.4342  -17.6374   -6.8062 O   0  0  0  0  0  0  0  0  0  0  0  0
    2.9034  -18.1202   -9.1278 C   0  0  1  0  0  0  0  0  0  0  0  0
    2.4136  -19.3343   -8.5959 O   0  0  0  0  0  0  0  0  0  0  0  0
    1.8542  -17.5307  -10.0637 C   0  0  2  0  0  0  0  0  0  0  0  0
    2.3864  -16.9754  -11.3384 N   0  0  0  0  0  0  0  0  0  0  0  0
    1.6343  -16.6638  -12.4430 C   0  0  0  0  0  0  0  0  0  0  0  0
    2.4460  -16.1841  -13.4117 N   0  0  0  0  0  0  0  0  0  0  0  0
    3.7071  -16.1721  -12.9494 C   0  0  0  0  0  0  0  0  0  0  0  0
    4.9047  -15.7730  -13.5229 C   0  0  0  0  0  0  0  0  0  0  0  0
    4.9284  -15.2933  -14.7594 N   0  0  0  0  0  0  0  0  0  0  0  0
    6.0699  -15.8753  -12.7891 N   0  0  0  0  0  0  0  0  0  0  0  0
    6.0585  -16.3667  -11.4898 C   0  0  0  0  0  0  0  0  0  0  0  0
    4.8562  -16.7536  -10.9337 N   0  0  0  0  0  0  0  0  0  0  0  0
    3.6960  -16.6671  -11.6477 C   0  0  0  0  0  0  0  0  0  0  0  0
  2  3  1  1  0  0  0
  2  6  1  0  0  0  0
  2  1  1  0  0  0  0
  4  3  2  0  0  0  0
  5  3  1  0  0  0  0
  6  7  2  0  0  0  0
  8  7  1  1  0  0  0
  8  9  1  0  0  0  0
  8 10  1  0  0  0  0
 11 10  1  6  0  0  0
 11 13  1  0  0  0  0
 12 11  1  0  0  0  0
 12 17  1  0  0  0  0
 13 14  1  1  0  0  0
 13 15  1  0  0  0  0
 15 16  1  1  0  0  0
 17 18  1  6  0  0  0
 17 15  1  0  0  0  0
 18 19  1  0  0  0  0
 20 19  2  0  0  0  0
 21 27  2  0  0  0  0
 21 20  1  0  0  0  0
 22 21  1  0  0  0  0
 23 22  1  0  0  0  0
 24 22  2  0  0  0  0
 24 25  1  0  0  0  0
 25 26  2  0  0  0  0
 26 27  1  0  0  0  0
 27 18  1  0  0  0  0
M  END
>  <CHROM.1>
171.92806014,-102.20072766,127.95207406,-105.53915646,-48.65700242,-75.44719148
3.64686023,-15.81172012,-9.00035085,-1.40544589,-0.25046383,-1.74767645

>  <Name>
lig.pdb

>  <RI>
0

>  <Rbt.Current_Directory>
/home/itssahil/PROJECTS/Mol_Feturizer/New_Systems/rnas/4b5r

>  <Rbt.Executable>
rbdock ($Id: //depot/dev/client3/rdock/2013.1/src/exe/rbdock.cxx#4 $)

>  <Rbt.Library>
libRbt.so (2013.1, Build901 2013/11/27)

>  <Rbt.Parameter_File>
/export/apps/rDock/src/rDock_2013.1_src/data/scripts/dock_solv.prm

>  <Rbt.Receptor>
prm/pocket_docking_3.prm

>  <SCORE>
-12.0682

>  <SCORE.INTER>
-12.1472

>  <SCORE.INTER.CONST>
1

>  <SCORE.INTER.POLAR>
0

>  <SCORE.INTER.ROT>
6

>  <SCORE.INTER.SOLV>
14.2516

>  <SCORE.INTER.VDW>
-20.4487

>  <SCORE.INTER.norm>
-0.449897

>  <SCORE.INTRA>
0.0492917

>  <SCORE.INTRA.DIHEDRAL>
0.688931

>  <SCORE.INTRA.DIHEDRAL.0>
10.2917

>  <SCORE.INTRA.POLAR>
0

>  <SCORE.INTRA.POLAR.0>
0

>  <SCORE.INTRA.REPUL>
0

>  <SCORE.INTRA.REPUL.0>
0

>  <SCORE.INTRA.SOLV>
-2.33033

>  <SCORE.INTRA.SOLV.lig_0>
-39.6315

>  <SCORE.INTRA.VDW>
0.869992

>  <SCORE.INTRA.VDW.0>
-4.02152

>  <SCORE.INTRA.norm>
0.00182562

>  <SCORE.RESTR>
0.0296861

>  <SCORE.RESTR.CAVITY>
0.0296861

>  <SCORE.RESTR.norm>
0.00109948

>  <SCORE.SYSTEM>
0

>  <SCORE.SYSTEM.CONST>
0

>  <SCORE.SYSTEM.DIHEDRAL>
0

>  <SCORE.SYSTEM.SOLV>
0

>  <SCORE.SYSTEM.norm>
0

>  <SCORE.heavy>
27

>  <SCORE.norm>
-0.446972

>  <RMSD>
6.351

$$$$
lig.pdb
 OpenBabel11021811493D
libRbt.so/2013.1/901 2013/11/27
 27 29  0  0  0  0  0  0  0  0999 V2000
    1.1436  -13.2126   -8.0426 N   0  0  0  0  0  0  0  0  0  0  0  0
    1.7198  -14.2060   -7.0860 C   0  0  2  0  0  0  0  0  0  0  0  0
    3.1807  -13.8546   -6.8207 C   0  0  0  0  0  0  0  0  0  0  0  0
    3.6207  -13.9215   -5.6789 O   0  0  0  0  0  0  0  0  0  0  0  0
    3.9566  -13.4940   -7.7149 O   0  0  0  0  0  0  0  0  0  0  0  0
    1.5577  -15.6704   -7.5412 C   0  0  0  0  0  0  0  0  0  0  0  0
    2.7176  -16.6411   -7.1962 C   0  0  0  0  0  0  0  0  0  0  0  0
    2.5902  -18.4061   -7.7178 S   0  0  2  0  0  0  0  0  0  0  0  0
    3.8462  -19.1790   -6.6764 C   0  0  0  0  0  0  0  0  0  0  0  0
    3.4477  -18.4421   -9.3069 C   0  0  0  0  0  0  0  0  0  0  0  0
    2.6582  -17.6419  -10.3344 C   0  0  1  0  0  0  0  0  0  0  0  0
    2.8086  -16.2401  -10.1681 O   0  0  0  0  0  0  0  0  0  0  0  0
    3.1093  -17.8875  -11.7492 C   0  0  1  0  0  0  0  0  0  0  0  0
    2.5848  -19.0958  -12.2192 O   0  0  0  0  0  0  0  0  0  0  0  0
    2.5243  -16.6768  -12.4422 C   0  0  1  0  0  0  0  0  0  0  0  0
    1.1619  -16.8996  -12.7444 O   0  0  0  0  0  0  0  0  0  0  0  0
    2.6255  -15.5675  -11.4013 C   0  0  2  0  0  0  0  0  0  0  0  0
    3.7005  -14.5675  -11.6475 N   0  0  0  0  0  0  0  0  0  0  0  0
    3.7111  -13.6491  -12.6670 C   0  0  0  0  0  0  0  0  0  0  0  0
    4.8372  -12.9059  -12.5831 N   0  0  0  0  0  0  0  0  0  0  0  0
    5.5493  -13.3220  -11.5230 C   0  0  0  0  0  0  0  0  0  0  0  0
    6.7577  -12.8997  -10.9900 C   0  0  0  0  0  0  0  0  0  0  0  0
    7.4248  -11.9001  -11.5515 N   0  0  0  0  0  0  0  0  0  0  0  0
    7.2539  -13.5282   -9.8651 N   0  0  0  0  0  0  0  0  0  0  0  0
    6.5611  -14.5698   -9.2611 C   0  0  0  0  0  0  0  0  0  0  0  0
    5.3572  -14.9725   -9.8024 N   0  0  0  0  0  0  0  0  0  0  0  0
    4.8561  -14.3680  -10.9189 C   0  0  0  0  0  0  0  0  0  0  0  0
  2  3  1  6  0  0  0
  2  6  1  0  0  0  0
  2  1  1  0  0  0  0
  4  3  2  0  0  0  0
  5  3  1  0  0  0  0
  6  7  2  0  0  0  0
  8  7  1  1  0  0  0
  8  9  1  0  0  0  0
  8 10  1  0  0  0  0
 11 10  1  1  0  0  0
 11 13  1  0  0  0  0
 12 11  1  0  0  0  0
 12 17  1  0  0  0  0
 13 14  1  6  0  0  0
 13 15  1  0  0  0  0
 15 16  1  1  0  0  0
 17 18  1  6  0  0  0
 17 15  1  0  0  0  0
 18 19  1  0  0  0  0
 20 19  2  0  0  0  0
 21 27  2  0  0  0  0
 21 20  1  0  0  0  0
 22 21  1  0  0  0  0
 23 22  1  0  0  0  0
 24 22  2  0  0  0  0
 24 25  1  0  0  0  0
 25 26  2  0  0  0  0
 26 27  1  0  0  0  0
 27 18  1  0  0  0  0
M  END
>  <CHROM.1>
137.86783498,144.48576840,-163.02488052,-67.14716951,76.54509891,-171.51682120
3.66276729,-15.51469020,-9.72158634,-2.90691826,-1.00099199,-1.82008133

>  <Name>
lig.pdb

>  <RI>
0

>  <Rbt.Current_Directory>
/home/itssahil/PROJECTS/Mol_Feturizer/New_Systems/rnas/4b5r

>  <Rbt.Executable>
rbdock ($Id: //depot/dev/client3/rdock/2013.1/src/exe/rbdock.cxx#4 $)

>  <Rbt.Library>
libRbt.so (2013.1, Build901 2013/11/27)

>  <Rbt.Parameter_File>
/export/apps/rDock/src/rDock_2013.1_src/data/scripts/dock_solv.prm

>  <Rbt.Receptor>
prm/pocket_docking_4.prm

>  <SCORE>
-13.9263

>  <SCORE.INTER>
-12.557

>  <SCORE.INTER.CONST>
1

>  <SCORE.INTER.POLAR>
0

>  <SCORE.INTER.ROT>
6

>  <SCORE.INTER.SOLV>
19.0217

>  <SCORE.INTER.VDW>
-22.3119

>  <SCORE.INTER.norm>
-0.465074

>  <SCORE.INTRA>
-1.36929

>  <SCORE.INTRA.DIHEDRAL>
-0.386182

>  <SCORE.INTRA.DIHEDRAL.0>
10.2917

>  <SCORE.INTRA.POLAR>
0

>  <SCORE.INTRA.POLAR.0>
0

>  <SCORE.INTRA.REPUL>
0

>  <SCORE.INTRA.REPUL.0>
0

>  <SCORE.INTRA.SOLV>
-2.11416

>  <SCORE.INTRA.SOLV.lig_0>
-39.6315

>  <SCORE.INTRA.VDW>
-0.119121

>  <SCORE.INTRA.VDW.0>
-4.02152

>  <SCORE.INTRA.norm>
-0.0507144

>  <SCORE.RESTR>
0

>  <SCORE.RESTR.CAVITY>
0

>  <SCORE.RESTR.norm>
0

>  <SCORE.SYSTEM>
0

>  <SCORE.SYSTEM.CONST>
0

>  <SCORE.SYSTEM.DIHEDRAL>
0

>  <SCORE.SYSTEM.SOLV>
0

>  <SCORE.SYSTEM.norm>
0

>  <SCORE.heavy>
27

>  <SCORE.norm>
-0.515789

>  <RMSD>
6.377

$$$$
lig.pdb
 OpenBabel11021811493D
libRbt.so/2013.1/901 2013/11/27
 27 29  0  0  0  0  0  0  0  0999 V2000
    0.9900  -17.1266   -8.3546 N   0  0  0  0  0  0  0  0  0  0  0  0
    0.9817  -15.7076   -7.8852 C   0  0  2  0  0  0  0  0  0  0  0  0
    0.6053  -14.7981   -9.0510 C   0  0  0  0  0  0  0  0  0  0  0  0
    1.2497  -14.8516  -10.0920 O   0  0  0  0  0  0  0  0  0  0  0  0
   -0.3312  -13.9907   -8.9962 O   0  0  0  0  0  0  0  0  0  0  0  0
    2.3014  -15.2675   -7.2199 C   0  0  0  0  0  0  0  0  0  0  0  0
    3.3915  -16.3571   -7.0435 C   0  0  0  0  0  0  0  0  0  0  0  0
    4.9921  -15.8989   -6.2487 S   0  0  2  0  0  0  0  0  0  0  0  0
    4.9889  -14.1042   -6.4452 C   0  0  0  0  0  0  0  0  0  0  0  0
    6.2252  -16.3395   -7.4925 C   0  0  0  0  0  0  0  0  0  0  0  0
    5.5659  -16.4196   -8.8630 C   0  0  1  0  0  0  0  0  0  0  0  0
    5.3153  -15.1400   -9.4245 O   0  0  0  0  0  0  0  0  0  0  0  0
    6.4240  -17.1034   -9.8933 C   0  0  1  0  0  0  0  0  0  0  0  0
    6.3592  -18.4909   -9.7301 O   0  0  0  0  0  0  0  0  0  0  0  0
    5.7646  -16.6242  -11.1675 C   0  0  1  0  0  0  0  0  0  0  0  0
    4.6310  -17.4166  -11.4572 O   0  0  0  0  0  0  0  0  0  0  0  0
    5.3073  -15.2072  -10.8394 C   0  0  2  0  0  0  0  0  0  0  0  0
    6.1274  -14.1232  -11.4464 N   0  0  0  0  0  0  0  0  0  0  0  0
    6.9077  -13.2346  -10.7503 C   0  0  0  0  0  0  0  0  0  0  0  0
    7.5083  -12.3938  -11.6220 N   0  0  0  0  0  0  0  0  0  0  0  0
    7.1369  -12.7291  -12.8685 C   0  0  0  0  0  0  0  0  0  0  0  0
    7.4653  -12.2058  -14.1098 C   0  0  0  0  0  0  0  0  0  0  0  0
    8.2983  -11.1778  -14.2045 N   0  0  0  0  0  0  0  0  0  0  0  0
    6.9196  -12.7717  -15.2450 N   0  0  0  0  0  0  0  0  0  0  0  0
    6.0535  -13.8546  -15.1612 C   0  0  0  0  0  0  0  0  0  0  0  0
    5.7429  -14.3655  -13.9174 N   0  0  0  0  0  0  0  0  0  0  0  0
    6.2666  -13.8131  -12.7844 C   0  0  0  0  0  0  0  0  0  0  0  0
  2  3  1  6  0  0  0
  2  6  1  0  0  0  0
  2  1  1  0  0  0  0
  4  3  2  0  0  0  0
  5  3  1  0  0  0  0
  6  7  2  0  0  0  0
  8  7  1  6  0  0  0
  8  9  1  0  0  0  0
  8 10  1  0  0  0  0
 11 10  1  1  0  0  0
 11 13  1  0  0  0  0
 12 11  1  0  0  0  0
 12 17  1  0  0  0  0
 13 14  1  1  0  0  0
 13 15  1  0  0  0  0
 15 16  1  1  0  0  0
 17 18  1  6  0  0  0
 17 15  1  0  0  0  0
 18 19  1  0  0  0  0
 20 19  2  0  0  0  0
 21 27  2  0  0  0  0
 21 20  1  0  0  0  0
 22 21  1  0  0  0  0
 23 22  1  0  0  0  0
 24 22  2  0  0  0  0
 24 25  1  0  0  0  0
 25 26  2  0  0  0  0
 26 27  1  0  0  0  0
 27 18  1  0  0  0  0
M  END
>  <CHROM.1>
-54.89772476,-4.08527926,-19.59458089,20.78496876,76.84693947,5.89942842
4.89326515,-14.96004566,-10.21521617,2.14796918,-0.11635450,2.08433759

>  <Name>
lig.pdb

>  <RI>
0

>  <Rbt.Current_Directory>
/home/itssahil/PROJECTS/Mol_Feturizer/New_Systems/rnas/4b5r

>  <Rbt.Executable>
rbdock ($Id: //depot/dev/client3/rdock/2013.1/src/exe/rbdock.cxx#4 $)

>  <Rbt.Library>
libRbt.so (2013.1, Build901 2013/11/27)

>  <Rbt.Parameter_File>
/export/apps/rDock/src/rDock_2013.1_src/data/scripts/dock_solv.prm

>  <Rbt.Receptor>
prm/pocket_docking_6.prm

>  <SCORE>
-7.46031

>  <SCORE.INTER>
-9.18425

>  <SCORE.INTER.CONST>
1

>  <SCORE.INTER.POLAR>
0

>  <SCORE.INTER.ROT>
6

>  <SCORE.INTER.SOLV>
9.62122

>  <SCORE.INTER.VDW>
-16.9299

>  <SCORE.INTER.norm>
-0.340157

>  <SCORE.INTRA>
1.72394

>  <SCORE.INTRA.DIHEDRAL>
0.0331938

>  <SCORE.INTRA.DIHEDRAL.0>
10.2917

>  <SCORE.INTRA.POLAR>
0

>  <SCORE.INTRA.POLAR.0>
0

>  <SCORE.INTRA.REPUL>
0

>  <SCORE.INTRA.REPUL.0>
0

>  <SCORE.INTRA.SOLV>
-2.25418

>  <SCORE.INTRA.SOLV.lig_0>
-39.6315

>  <SCORE.INTRA.VDW>
2.83443

>  <SCORE.INTRA.VDW.0>
-4.02152

>  <SCORE.INTRA.norm>
0.0638497

>  <SCORE.RESTR>
0

>  <SCORE.RESTR.CAVITY>
0

>  <SCORE.RESTR.norm>
0

>  <SCORE.SYSTEM>
0

>  <SCORE.SYSTEM.CONST>
0

>  <SCORE.SYSTEM.DIHEDRAL>
0

>  <SCORE.SYSTEM.SOLV>
0

>  <SCORE.SYSTEM.norm>
0

>  <SCORE.heavy>
27

>  <SCORE.norm>
-0.276308

>  <RMSD>
6.406

$$$$
lig.pdb
 OpenBabel11021811493D
libRbt.so/2013.1/901 2013/11/27
 27 29  0  0  0  0  0  0  0  0999 V2000
    6.7960  -15.3050   -4.7917 N   0  0  0  0  0  0  0  0  0  0  0  0
    5.8550  -15.2320   -5.9507 C   0  0  2  0  0  0  0  0  0  0  0  0
    4.7215  -14.2678   -5.6138 C   0  0  0  0  0  0  0  0  0  0  0  0
    4.4172  -14.0785   -4.4419 O   0  0  0  0  0  0  0  0  0  0  0  0
    4.0787  -13.6600   -6.4794 O   0  0  0  0  0  0  0  0  0  0  0  0
    5.3210  -16.6062   -6.4026 C   0  0  0  0  0  0  0  0  0  0  0  0
    3.8030  -16.6991   -6.7086 C   0  0  0  0  0  0  0  0  0  0  0  0
    3.0978  -18.3163   -7.2478 S   0  0  2  0  0  0  0  0  0  0  0  0
    4.0328  -18.6286   -8.7602 C   0  0  0  0  0  0  0  0  0  0  0  0
    1.5020  -17.8660   -7.9636 C   0  0  0  0  0  0  0  0  0  0  0  0
    1.5029  -16.3880   -8.3309 C   0  0  1  0  0  0  0  0  0  0  0  0
    2.5362  -16.0527   -9.2448 O   0  0  0  0  0  0  0  0  0  0  0  0
    0.2451  -15.9521   -9.0333 C   0  0  1  0  0  0  0  0  0  0  0  0
   -0.7856  -15.7683   -8.1061 O   0  0  0  0  0  0  0  0  0  0  0  0
    0.7126  -14.6597   -9.6653 C   0  0  1  0  0  0  0  0  0  0  0  0
    0.6558  -13.6082   -8.7229 O   0  0  0  0  0  0  0  0  0  0  0  0
    2.1707  -14.9264  -10.0222 C   0  0  2  0  0  0  0  0  0  0  0  0
    2.4353  -15.1481  -11.4703 N   0  0  0  0  0  0  0  0  0  0  0  0
    1.6087  -15.8224  -12.3335 C   0  0  0  0  0  0  0  0  0  0  0  0
    2.1640  -15.8285  -13.5660 N   0  0  0  0  0  0  0  0  0  0  0  0
    3.3296  -15.1630  -13.5160 C   0  0  0  0  0  0  0  0  0  0  0  0
    4.2766  -14.8709  -14.4857 C   0  0  0  0  0  0  0  0  0  0  0  0
    4.1009  -15.2745  -15.7370 N   0  0  0  0  0  0  0  0  0  0  0  0
    5.4005  -14.1500  -14.1339 N   0  0  0  0  0  0  0  0  0  0  0  0
    5.5928  -13.7127  -12.8294 C   0  0  0  0  0  0  0  0  0  0  0  0
    4.6366  -14.0080  -11.8792 N   0  0  0  0  0  0  0  0  0  0  0  0
    3.5236  -14.7267  -12.2078 C   0  0  0  0  0  0  0  0  0  0  0  0
  2  3  1  1  0  0  0
  2  6  1  0  0  0  0
  2  1  1  0  0  0  0
  4  3  2  0  0  0  0
  5  3  1  0  0  0  0
  6  7  2  0  0  0  0
  8  7  1  6  0  0  0
  8  9  1  0  0  0  0
  8 10  1  0  0  0  0
 11 10  1  6  0  0  0
 11 13  1  0  0  0  0
 12 11  1  0  0  0  0
 12 17  1  0  0  0  0
 13 14  1  1  0  0  0
 13 15  1  0  0  0  0
 15 16  1  1  0  0  0
 17 18  1  6  0  0  0
 17 15  1  0  0  0  0
 18 19  1  0  0  0  0
 20 19  2  0  0  0  0
 21 27  2  0  0  0  0
 21 20  1  0  0  0  0
 22 21  1  0  0  0  0
 23 22  1  0  0  0  0
 24 22  2  0  0  0  0
 24 25  1  0  0  0  0
 25 26  2  0  0  0  0
 26 27  1  0  0  0  0
 27 18  1  0  0  0  0
M  END
>  <CHROM.1>
-25.95030671,135.69783928,-60.11131698,20.04011837,58.12804951,82.14552696
3.20855761,-15.56653261,-9.42371389,-1.50727410,-0.32216784,-1.42476693

>  <Name>
lig.pdb

>  <RI>
0

>  <Rbt.Current_Directory>
/home/itssahil/PROJECTS/Mol_Feturizer/New_Systems/rnas/4b5r

>  <Rbt.Executable>
rbdock ($Id: //depot/dev/client3/rdock/2013.1/src/exe/rbdock.cxx#4 $)

>  <Rbt.Library>
libRbt.so (2013.1, Build901 2013/11/27)

>  <Rbt.Parameter_File>
/export/apps/rDock/src/rDock_2013.1_src/data/scripts/dock_solv.prm

>  <Rbt.Receptor>
prm/pocket_docking_4.prm

>  <SCORE>
-15.4039

>  <SCORE.INTER>
-16.6821

>  <SCORE.INTER.CONST>
1

>  <SCORE.INTER.POLAR>
0

>  <SCORE.INTER.ROT>
6

>  <SCORE.INTER.SOLV>
15.5677

>  <SCORE.INTER.VDW>
-23.9106

>  <SCORE.INTER.norm>
-0.617855

>  <SCORE.INTRA>
1.2782

>  <SCORE.INTRA.DIHEDRAL>
-0.394742

>  <SCORE.INTRA.DIHEDRAL.0>
10.2917

>  <SCORE.INTRA.POLAR>
0

>  <SCORE.INTRA.POLAR.0>
0

>  <SCORE.INTRA.REPUL>
0

>  <SCORE.INTRA.REPUL.0>
0

>  <SCORE.INTRA.SOLV>
-3.17897

>  <SCORE.INTRA.SOLV.lig_0>
-39.6315

>  <SCORE.INTRA.VDW>
3.06505

>  <SCORE.INTRA.VDW.0>
-4.02152

>  <SCORE.INTRA.norm>
0.0473406

>  <SCORE.RESTR>
0

>  <SCORE.RESTR.CAVITY>
0

>  <SCORE.RESTR.norm>
0

>  <SCORE.SYSTEM>
0

>  <SCORE.SYSTEM.CONST>
0

>  <SCORE.SYSTEM.DIHEDRAL>
0

>  <SCORE.SYSTEM.SOLV>
0

>  <SCORE.SYSTEM.norm>
0

>  <SCORE.heavy>
27

>  <SCORE.norm>
-0.570514

>  <RMSD>
6.409

$$$$
lig.pdb
 OpenBabel11021811493D
libRbt.so/2013.1/901 2013/11/27
 27 29  0  0  0  0  0  0  0  0999 V2000
    6.1194  -14.8438   -5.4819 N   0  0  0  0  0  0  0  0  0  0  0  0
    4.7588  -15.4293   -5.6816 C   0  0  2  0  0  0  0  0  0  0  0  0
    4.8795  -16.6987   -6.5196 C   0  0  0  0  0  0  0  0  0  0  0  0
    5.9875  -17.0917   -6.8653 O   0  0  0  0  0  0  0  0  0  0  0  0
    3.8974  -17.3607   -6.8790 O   0  0  0  0  0  0  0  0  0  0  0  0
    3.7414  -14.4404   -6.2854 C   0  0  0  0  0  0  0  0  0  0  0  0
    3.1866  -14.7823   -7.6932 C   0  0  0  0  0  0  0  0  0  0  0  0
    1.9703  -13.6373   -8.4763 S   0  0  2  0  0  0  0  0  0  0  0  0
    1.5801  -12.5341   -7.1015 C   0  0  0  0  0  0  0  0  0  0  0  0
    0.4478  -14.6073   -8.5301 C   0  0  0  0  0  0  0  0  0  0  0  0
    0.5072  -15.5918   -9.6907 C   0  0  1  0  0  0  0  0  0  0  0  0
    1.2429  -15.0896  -10.7961 O   0  0  0  0  0  0  0  0  0  0  0  0
    1.2114  -16.8755   -9.3422 C   0  0  1  0  0  0  0  0  0  0  0  0
    0.3574  -17.7119   -8.6162 O   0  0  0  0  0  0  0  0  0  0  0  0
    1.5268  -17.4042  -10.7239 C   0  0  1  0  0  0  0  0  0  0  0  0
    0.3995  -18.0655  -11.2614 O   0  0  0  0  0  0  0  0  0  0  0  0
    1.8048  -16.1513  -11.5470 C   0  0  2  0  0  0  0  0  0  0  0  0
    3.2399  -15.9061  -11.8577 N   0  0  0  0  0  0  0  0  0  0  0  0
    3.9651  -16.5583  -12.8229 C   0  0  0  0  0  0  0  0  0  0  0  0
    5.2299  -16.0812  -12.8260 N   0  0  0  0  0  0  0  0  0  0  0  0
    5.3320  -15.1269  -11.8864 C   0  0  0  0  0  0  0  0  0  0  0  0
    6.3890  -14.3231  -11.4874 C   0  0  0  0  0  0  0  0  0  0  0  0
    7.5718  -14.4294  -12.0784 N   0  0  0  0  0  0  0  0  0  0  0  0
    6.1931  -13.4074  -10.4726 N   0  0  0  0  0  0  0  0  0  0  0  0
    4.9572  -13.2786   -9.8515 C   0  0  0  0  0  0  0  0  0  0  0  0
    3.9154  -14.0832  -10.2660 N   0  0  0  0  0  0  0  0  0  0  0  0
    4.0937  -14.9995  -11.2619 C   0  0  0  0  0  0  0  0  0  0  0  0
  2  3  1  6  0  0  0
  2  6  1  0  0  0  0
  2  1  1  0  0  0  0
  4  3  2  0  0  0  0
  5  3  1  0  0  0  0
  6  7  2  0  0  0  0
  8  7  1  1  0  0  0
  8  9  1  0  0  0  0
  8 10  1  0  0  0  0
 11 10  1  1  0  0  0
 11 13  1  0  0  0  0
 12 11  1  0  0  0  0
 12 17  1  0  0  0  0
 13 14  1  6  0  0  0
 13 15  1  0  0  0  0
 15 16  1  6  0  0  0
 17 18  1  1  0  0  0
 17 15  1  0  0  0  0
 18 19  1  0  0  0  0
 20 19  2  0  0  0  0
 21 27  2  0  0  0  0
 21 20  1  0  0  0  0
 22 21  1  0  0  0  0
 23 22  1  0  0  0  0
 24 22  2  0  0  0  0
 24 25  1  0  0  0  0
 25 26  2  0  0  0  0
 26 27  1  0  0  0  0
 27 18  1  0  0  0  0
M  END
>  <CHROM.1>
2.46966990,115.52323486,-9.98995665,-78.48862258,-32.43523255,-162.99144947
3.37614427,-15.37628845,-9.41204324,-1.49637974,-0.28549747,-1.67960727

>  <Name>
lig.pdb

>  <RI>
0

>  <Rbt.Current_Directory>
/home/itssahil/PROJECTS/Mol_Feturizer/New_Systems/rnas/4b5r

>  <Rbt.Executable>
rbdock ($Id: //depot/dev/client3/rdock/2013.1/src/exe/rbdock.cxx#4 $)

>  <Rbt.Library>
libRbt.so (2013.1, Build901 2013/11/27)

>  <Rbt.Parameter_File>
/export/apps/rDock/src/rDock_2013.1_src/data/scripts/dock_solv.prm

>  <Rbt.Receptor>
prm/pocket_docking_2.prm

>  <SCORE>
-4.30921

>  <SCORE.INTER>
-8.68088

>  <SCORE.INTER.CONST>
1

>  <SCORE.INTER.POLAR>
0

>  <SCORE.INTER.ROT>
6

>  <SCORE.INTER.SOLV>
12.4765

>  <SCORE.INTER.VDW>
-17.5461

>  <SCORE.INTER.norm>
-0.321514

>  <SCORE.INTRA>
2.4108

>  <SCORE.INTRA.DIHEDRAL>
-0.45878

>  <SCORE.INTRA.DIHEDRAL.0>
10.2917

>  <SCORE.INTRA.POLAR>
0

>  <SCORE.INTRA.POLAR.0>
0

>  <SCORE.INTRA.REPUL>
0

>  <SCORE.INTRA.REPUL.0>
0

>  <SCORE.INTRA.SOLV>
-1.53788

>  <SCORE.INTRA.SOLV.lig_0>
-39.6315

>  <SCORE.INTRA.VDW>
3.40913

>  <SCORE.INTRA.VDW.0>
-4.02152

>  <SCORE.INTRA.norm>
0.0892887

>  <SCORE.RESTR>
1.96088

>  <SCORE.RESTR.CAVITY>
1.96088

>  <SCORE.RESTR.norm>
0.0726253

>  <SCORE.SYSTEM>
0

>  <SCORE.SYSTEM.CONST>
0

>  <SCORE.SYSTEM.DIHEDRAL>
0

>  <SCORE.SYSTEM.SOLV>
0

>  <SCORE.SYSTEM.norm>
0

>  <SCORE.heavy>
27

>  <SCORE.norm>
-0.1596

>  <RMSD>
6.412

$$$$
lig.pdb
 OpenBabel11021811493D
libRbt.so/2013.1/901 2013/11/27
 27 29  0  0  0  0  0  0  0  0999 V2000
    6.0715  -13.3946   -5.2775 N   0  0  0  0  0  0  0  0  0  0  0  0
    5.0901  -14.4849   -4.9908 C   0  0  2  0  0  0  0  0  0  0  0  0
    5.7573  -15.8349   -5.2368 C   0  0  0  0  0  0  0  0  0  0  0  0
    6.2105  -16.0920   -6.3459 O   0  0  0  0  0  0  0  0  0  0  0  0
    5.8613  -16.7011   -4.3589 O   0  0  0  0  0  0  0  0  0  0  0  0
    3.7681  -14.3497   -5.7732 C   0  0  0  0  0  0  0  0  0  0  0  0
    3.8031  -14.7366   -7.2750 C   0  0  0  0  0  0  0  0  0  0  0  0
    2.2569  -14.5919   -8.2710 S   0  0  2  0  0  0  0  0  0  0  0  0
    1.4085  -13.2435   -7.4217 C   0  0  0  0  0  0  0  0  0  0  0  0
    1.2562  -15.9852   -7.7062 C   0  0  0  0  0  0  0  0  0  0  0  0
    1.7785  -17.2759   -8.3233 C   0  0  1  0  0  0  0  0  0  0  0  0
    1.8915  -17.1993   -9.7364 O   0  0  0  0  0  0  0  0  0  0  0  0
    3.1695  -17.6283   -7.8691 C   0  0  1  0  0  0  0  0  0  0  0  0
    3.1294  -18.2003   -6.5935 O   0  0  0  0  0  0  0  0  0  0  0  0
    3.5744  -18.6092   -8.9471 C   0  0  1  0  0  0  0  0  0  0  0  0
    3.0592  -19.8925   -8.6564 O   0  0  0  0  0  0  0  0  0  0  0  0
    2.8984  -18.0779  -10.2062 C   0  0  2  0  0  0  0  0  0  0  0  0
    3.8074  -17.4054  -11.1745 N   0  0  0  0  0  0  0  0  0  0  0  0
    5.1606  -17.2451  -11.0122 C   0  0  0  0  0  0  0  0  0  0  0  0
    5.6620  -16.5927  -12.0847 N   0  0  0  0  0  0  0  0  0  0  0  0
    4.6587  -16.3367  -12.9403 C   0  0  0  0  0  0  0  0  0  0  0  0
    4.6273  -15.7103  -14.1768 C   0  0  0  0  0  0  0  0  0  0  0  0
    5.7425  -15.2359  -14.7161 N   0  0  0  0  0  0  0  0  0  0  0  0
    3.4228  -15.5925  -14.8417 N   0  0  0  0  0  0  0  0  0  0  0  0
    2.2489  -16.0933  -14.2933 C   0  0  0  0  0  0  0  0  0  0  0  0
    2.3007  -16.7188  -13.0642 N   0  0  0  0  0  0  0  0  0  0  0  0
    3.4813  -16.8365  -12.3893 C   0  0  0  0  0  0  0  0  0  0  0  0
  2  3  1  6  0  0  0
  2  6  1  0  0  0  0
  2  1  1  0  0  0  0
  4  3  2  0  0  0  0
  5  3  1  0  0  0  0
  6  7  2  0  0  0  0
  8  7  1  1  0  0  0
  8  9  1  0  0  0  0
  8 10  1  0  0  0  0
 11 10  1  1  0  0  0
 11 13  1  0  0  0  0
 12 11  1  0  0  0  0
 12 17  1  0  0  0  0
 13 14  1  1  0  0  0
 13 15  1  0  0  0  0
 15 16  1  1  0  0  0
 17 18  1  6  0  0  0
 17 15  1  0  0  0  0
 18 19  1  0  0  0  0
 20 19  2  0  0  0  0
 21 27  2  0  0  0  0
 21 20  1  0  0  0  0
 22 21  1  0  0  0  0
 23 22  1  0  0  0  0
 24 22  2  0  0  0  0
 24 25  1  0  0  0  0
 25 26  2  0  0  0  0
 26 27  1  0  0  0  0
 27 18  1  0  0  0  0
M  END
>  <CHROM.1>
-58.87699782,75.89510971,29.22396593,-76.45178291,-52.68771883,119.69456104
3.69987669,-16.24322489,-9.25895691,-1.43075852,-0.95953102,-1.57013652

>  <Name>
lig.pdb

>  <RI>
0

>  <Rbt.Current_Directory>
/home/itssahil/PROJECTS/Mol_Feturizer/New_Systems/rnas/4b5r

>  <Rbt.Executable>
rbdock ($Id: //depot/dev/client3/rdock/2013.1/src/exe/rbdock.cxx#4 $)

>  <Rbt.Library>
libRbt.so (2013.1, Build901 2013/11/27)

>  <Rbt.Parameter_File>
/export/apps/rDock/src/rDock_2013.1_src/data/scripts/dock_solv.prm

>  <Rbt.Receptor>
prm/pocket_docking_5.prm

>  <SCORE>
-9.41754

>  <SCORE.INTER>
-10.6873

>  <SCORE.INTER.CONST>
1

>  <SCORE.INTER.POLAR>
0

>  <SCORE.INTER.ROT>
6

>  <SCORE.INTER.SOLV>
16.6961

>  <SCORE.INTER.VDW>
-20.2903

>  <SCORE.INTER.norm>
-0.395827

>  <SCORE.INTRA>
1.26979

>  <SCORE.INTRA.DIHEDRAL>
0.640481

>  <SCORE.INTRA.DIHEDRAL.0>
10.2917

>  <SCORE.INTRA.POLAR>
0

>  <SCORE.INTRA.POLAR.0>
0

>  <SCORE.INTRA.REPUL>
0.0259723

>  <SCORE.INTRA.REPUL.0>
0

>  <SCORE.INTRA.SOLV>
-1.81134

>  <SCORE.INTRA.SOLV.lig_0>
-39.6315

>  <SCORE.INTRA.VDW>
1.72536

>  <SCORE.INTRA.VDW.0>
-4.02152

>  <SCORE.INTRA.norm>
0.0470293

>  <SCORE.RESTR>
0

>  <SCORE.RESTR.CAVITY>
0

>  <SCORE.RESTR.norm>
0

>  <SCORE.SYSTEM>
0

>  <SCORE.SYSTEM.CONST>
0

>  <SCORE.SYSTEM.DIHEDRAL>
0

>  <SCORE.SYSTEM.SOLV>
0

>  <SCORE.SYSTEM.norm>
0

>  <SCORE.heavy>
27

>  <SCORE.norm>
-0.348798

>  <RMSD>
6.425

$$$$
lig.pdb
 OpenBabel11021811493D
libRbt.so/2013.1/901 2013/11/27
 27 29  0  0  0  0  0  0  0  0999 V2000
    5.8452  -14.5304  -11.2289 N   0  0  0  0  0  0  0  0  0  0  0  0
    6.6019  -15.7863  -10.9389 C   0  0  2  0  0  0  0  0  0  0  0  0
    7.9411  -15.7423  -11.6688 C   0  0  0  0  0  0  0  0  0  0  0  0
    8.0938  -16.3994  -12.6919 O   0  0  0  0  0  0  0  0  0  0  0  0
    8.9001  -15.0689  -11.2704 O   0  0  0  0  0  0  0  0  0  0  0  0
    5.8157  -17.0723  -11.2642 C   0  0  0  0  0  0  0  0  0  0  0  0
    5.5531  -18.0468  -10.0861 C   0  0  0  0  0  0  0  0  0  0  0  0
    4.6236  -19.6076  -10.4080 S   0  0  2  0  0  0  0  0  0  0  0  0
    3.0618  -18.9686  -11.0498 C   0  0  0  0  0  0  0  0  0  0  0  0
    4.0871  -20.1289   -8.7642 C   0  0  0  0  0  0  0  0  0  0  0  0
    5.2899  -20.5989   -7.9567 C   0  0  1  0  0  0  0  0  0  0  0  0
    6.1396  -19.5296   -7.5696 O   0  0  0  0  0  0  0  0  0  0  0  0
    4.9101  -21.2477   -6.6528 C   0  0  1  0  0  0  0  0  0  0  0  0
    4.4870  -22.5622   -6.8739 O   0  0  0  0  0  0  0  0  0  0  0  0
    6.2237  -21.1644   -5.9073 C   0  0  1  0  0  0  0  0  0  0  0  0
    7.0703  -22.2286   -6.2917 O   0  0  0  0  0  0  0  0  0  0  0  0
    6.8359  -19.8499   -6.3783 C   0  0  2  0  0  0  0  0  0  0  0  0
    6.7776  -18.7372   -5.3909 N   0  0  0  0  0  0  0  0  0  0  0  0
    6.8891  -18.8775   -4.0304 C   0  0  0  0  0  0  0  0  0  0  0  0
    6.7911  -17.6609   -3.4494 N   0  0  0  0  0  0  0  0  0  0  0  0
    6.6274  -16.7370   -4.4104 C   0  0  0  0  0  0  0  0  0  0  0  0
    6.4872  -15.3584   -4.3618 C   0  0  0  0  0  0  0  0  0  0  0  0
    6.5054  -14.7238   -3.1971 N   0  0  0  0  0  0  0  0  0  0  0  0
    6.3349  -14.6550   -5.5402 N   0  0  0  0  0  0  0  0  0  0  0  0
    6.3237  -15.3055   -6.7675 C   0  0  0  0  0  0  0  0  0  0  0  0
    6.4704  -16.6775   -6.7965 N   0  0  0  0  0  0  0  0  0  0  0  0
    6.6136  -17.3894   -5.6408 C   0  0  0  0  0  0  0  0  0  0  0  0
  2  3  1  6  0  0  0
  2  6  1  0  0  0  0
  2  1  1  0  0  0  0
  4  3  2  0  0  0  0
  5  3  1  0  0  0  0
  6  7  2  0  0  0  0
  8  7  1  1  0  0  0
  8  9  1  0  0  0  0
  8 10  1  0  0  0  0
 11 10  1  1  0  0  0
 11 13  1  0  0  0  0
 12 11  1  0  0  0  0
 12 17  1  0  0  0  0
 13 14  1  6  0  0  0
 13 15  1  0  0  0  0
 15 16  1  6  0  0  0
 17 18  1  1  0  0  0
 17 15  1  0  0  0  0
 18 19  1  0  0  0  0
 20 19  2  0  0  0  0
 21 27  2  0  0  0  0
 21 20  1  0  0  0  0
 22 21  1  0  0  0  0
 23 22  1  0  0  0  0
 24 22  2  0  0  0  0
 24 25  1  0  0  0  0
 25 26  2  0  0  0  0
 26 27  1  0  0  0  0
 27 18  1  0  0  0  0
M  END
>  <CHROM.1>
-103.38103938,-119.98520394,-58.97638222,-70.29069213,71.42547234,154.29238787
6.12276627,-18.07787347,-7.84101047,-1.47226721,1.24267359,1.82106943

>  <Name>
lig.pdb

>  <RI>
0

>  <Rbt.Current_Directory>
/home/itssahil/PROJECTS/Mol_Feturizer/New_Systems/rnas/4b5r

>  <Rbt.Executable>
rbdock ($Id: //depot/dev/client3/rdock/2013.1/src/exe/rbdock.cxx#4 $)

>  <Rbt.Library>
libRbt.so (2013.1, Build901 2013/11/27)

>  <Rbt.Parameter_File>
/export/apps/rDock/src/rDock_2013.1_src/data/scripts/dock_solv.prm

>  <Rbt.Receptor>
prm/pocket_docking_8.prm

>  <SCORE>
-13.4018

>  <SCORE.INTER>
-13.3716

>  <SCORE.INTER.CONST>
1

>  <SCORE.INTER.POLAR>
0

>  <SCORE.INTER.ROT>
6

>  <SCORE.INTER.SOLV>
10.401

>  <SCORE.INTER.VDW>
-19.9814

>  <SCORE.INTER.norm>
-0.495246

>  <SCORE.INTRA>
-0.0301782

>  <SCORE.INTRA.DIHEDRAL>
-2.78763

>  <SCORE.INTRA.DIHEDRAL.0>
10.2917

>  <SCORE.INTRA.POLAR>
0

>  <SCORE.INTRA.POLAR.0>
0

>  <SCORE.INTRA.REPUL>
0.232271

>  <SCORE.INTRA.REPUL.0>
0

>  <SCORE.INTRA.SOLV>
-2.72953

>  <SCORE.INTRA.SOLV.lig_0>
-39.6315

>  <SCORE.INTRA.VDW>
1.56704

>  <SCORE.INTRA.VDW.0>
-4.02152

>  <SCORE.INTRA.norm>
-0.00111771

>  <SCORE.RESTR>
0

>  <SCORE.RESTR.CAVITY>
0

>  <SCORE.RESTR.norm>
0

>  <SCORE.SYSTEM>
0

>  <SCORE.SYSTEM.CONST>
0

>  <SCORE.SYSTEM.DIHEDRAL>
0

>  <SCORE.SYSTEM.SOLV>
0

>  <SCORE.SYSTEM.norm>
0

>  <SCORE.heavy>
27

>  <SCORE.norm>
-0.496363

>  <RMSD>
6.428

$$$$
lig.pdb
 OpenBabel11021811493D
libRbt.so/2013.1/901 2013/11/27
 27 29  0  0  0  0  0  0  0  0999 V2000
    5.6519  -15.4545   -6.7735 N   0  0  0  0  0  0  0  0  0  0  0  0
    4.4114  -16.2405   -6.4955 C   0  0  2  0  0  0  0  0  0  0  0  0
    4.6071  -17.6723   -6.9851 C   0  0  0  0  0  0  0  0  0  0  0  0
    4.1850  -18.6047   -6.3111 O   0  0  0  0  0  0  0  0  0  0  0  0
    5.1853  -17.9454   -8.0448 O   0  0  0  0  0  0  0  0  0  0  0  0
    3.1326  -15.6066   -7.0792 C   0  0  0  0  0  0  0  0  0  0  0  0
    3.3092  -14.6993   -8.3251 C   0  0  0  0  0  0  0  0  0  0  0  0
    1.8202  -13.9043   -9.0695 S   0  0  2  0  0  0  0  0  0  0  0  0
    1.2130  -12.9151   -7.6867 C   0  0  0  0  0  0  0  0  0  0  0  0
    0.5872  -15.2240   -9.0646 C   0  0  0  0  0  0  0  0  0  0  0  0
    0.9094  -16.2316  -10.1601 C   0  0  1  0  0  0  0  0  0  0  0  0
    1.0319  -15.6278  -11.4391 O   0  0  0  0  0  0  0  0  0  0  0  0
    2.2320  -16.9214   -9.9591 C   0  0  1  0  0  0  0  0  0  0  0  0
    2.1071  -17.9331   -9.0016 O   0  0  0  0  0  0  0  0  0  0  0  0
    2.4844  -17.4515  -11.3532 C   0  0  1  0  0  0  0  0  0  0  0  0
    1.7825  -18.6623  -11.5485 O   0  0  0  0  0  0  0  0  0  0  0  0
    1.8952  -16.3844  -12.2690 C   0  0  2  0  0  0  0  0  0  0  0  0
    2.8944  -15.5208  -12.9560 N   0  0  0  0  0  0  0  0  0  0  0  0
    3.1710  -15.5426  -14.2999 C   0  0  0  0  0  0  0  0  0  0  0  0
    4.1279  -14.6271  -14.5710 N   0  0  0  0  0  0  0  0  0  0  0  0
    4.4678  -14.0088  -13.4281 C   0  0  0  0  0  0  0  0  0  0  0  0
    5.3767  -12.9989  -13.1512 C   0  0  0  0  0  0  0  0  0  0  0  0
    6.1027  -12.4654  -14.1248 N   0  0  0  0  0  0  0  0  0  0  0  0
    5.5117  -12.5520  -11.8516 N   0  0  0  0  0  0  0  0  0  0  0  0
    4.7510  -13.0949  -10.8239 C   0  0  0  0  0  0  0  0  0  0  0  0
    3.8473  -14.0952  -11.1196 N   0  0  0  0  0  0  0  0  0  0  0  0
    3.7070  -14.5547  -12.3972 C   0  0  0  0  0  0  0  0  0  0  0  0
  2  3  1  6  0  0  0
  2  6  1  0  0  0  0
  2  1  1  0  0  0  0
  4  3  2  0  0  0  0
  5  3  1  0  0  0  0
  6  7  2  0  0  0  0
  8  7  1  1  0  0  0
  8  9  1  0  0  0  0
  8 10  1  0  0  0  0
 11 10  1  1  0  0  0
 11 13  1  0  0  0  0
 12 11  1  0  0  0  0
 12 17  1  0  0  0  0
 13 14  1  1  0  0  0
 13 15  1  0  0  0  0
 15 16  1  1  0  0  0
 17 18  1  1  0  0  0
 17 15  1  0  0  0  0
 18 19  1  0  0  0  0
 20 19  2  0  0  0  0
 21 27  2  0  0  0  0
 21 20  1  0  0  0  0
 22 21  1  0  0  0  0
 23 22  1  0  0  0  0
 24 22  2  0  0  0  0
 24 25  1  0  0  0  0
 25 26  2  0  0  0  0
 26 27  1  0  0  0  0
 27 18  1  0  0  0  0
M  END
>  <CHROM.1>
139.69239609,26.44928967,59.97664260,-74.47973907,-54.72169981,-130.40465108
3.24825354,-15.42832093,-10.26891474,-1.77195343,-0.89272686,-1.28125755

>  <Name>
lig.pdb

>  <RI>
0

>  <Rbt.Current_Directory>
/home/itssahil/PROJECTS/Mol_Feturizer/New_Systems/rnas/4b5r

>  <Rbt.Executable>
rbdock ($Id: //depot/dev/client3/rdock/2013.1/src/exe/rbdock.cxx#4 $)

>  <Rbt.Library>
libRbt.so (2013.1, Build901 2013/11/27)

>  <Rbt.Parameter_File>
/export/apps/rDock/src/rDock_2013.1_src/data/scripts/dock_solv.prm

>  <Rbt.Receptor>
prm/pocket_docking_8.prm

>  <SCORE>
-15.7198

>  <SCORE.INTER>
-14.9189

>  <SCORE.INTER.CONST>
1

>  <SCORE.INTER.POLAR>
0

>  <SCORE.INTER.ROT>
6

>  <SCORE.INTER.SOLV>
11.8671

>  <SCORE.INTER.VDW>
-21.5016

>  <SCORE.INTER.norm>
-0.552553

>  <SCORE.INTRA>
-0.800896

>  <SCORE.INTRA.DIHEDRAL>
-0.413404

>  <SCORE.INTRA.DIHEDRAL.0>
10.2917

>  <SCORE.INTRA.POLAR>
0

>  <SCORE.INTRA.POLAR.0>
0

>  <SCORE.INTRA.REPUL>
0

>  <SCORE.INTRA.REPUL.0>
0

>  <SCORE.INTRA.SOLV>
-0.465015

>  <SCORE.INTRA.SOLV.lig_0>
-39.6315

>  <SCORE.INTRA.VDW>
-0.361687

>  <SCORE.INTRA.VDW.0>
-4.02152

>  <SCORE.INTRA.norm>
-0.0296628

>  <SCORE.RESTR>
0

>  <SCORE.RESTR.CAVITY>
0

>  <SCORE.RESTR.norm>
0

>  <SCORE.SYSTEM>
0

>  <SCORE.SYSTEM.CONST>
0

>  <SCORE.SYSTEM.DIHEDRAL>
0

>  <SCORE.SYSTEM.SOLV>
0

>  <SCORE.SYSTEM.norm>
0

>  <SCORE.heavy>
27

>  <SCORE.norm>
-0.582215

>  <RMSD>
6.458

$$$$
lig.pdb
 OpenBabel11021811493D
libRbt.so/2013.1/901 2013/11/27
 27 29  0  0  0  0  0  0  0  0999 V2000
    6.9088  -14.9976   -6.9393 N   0  0  0  0  0  0  0  0  0  0  0  0
    5.7833  -14.1992   -6.3650 C   0  0  2  0  0  0  0  0  0  0  0  0
    5.2715  -14.8917   -5.1054 C   0  0  0  0  0  0  0  0  0  0  0  0
    5.4433  -16.0970   -4.9660 O   0  0  0  0  0  0  0  0  0  0  0  0
    4.6763  -14.2883   -4.2034 O   0  0  0  0  0  0  0  0  0  0  0  0
    4.6450  -13.9228   -7.3679 C   0  0  0  0  0  0  0  0  0  0  0  0
    3.3238  -14.7083   -7.1581 C   0  0  0  0  0  0  0  0  0  0  0  0
    1.9238  -14.4296   -8.3268 S   0  0  2  0  0  0  0  0  0  0  0  0
    1.0133  -13.1153   -7.4883 C   0  0  0  0  0  0  0  0  0  0  0  0
    0.8178  -15.8203   -8.0037 C   0  0  0  0  0  0  0  0  0  0  0  0
    1.2931  -17.0442   -8.7756 C   0  0  1  0  0  0  0  0  0  0  0  0
    0.9865  -16.9703  -10.1597 O   0  0  0  0  0  0  0  0  0  0  0  0
    2.7878  -17.2183   -8.7464 C   0  0  1  0  0  0  0  0  0  0  0  0
    3.1842  -17.7765   -7.5268 O   0  0  0  0  0  0  0  0  0  0  0  0
    2.9822  -18.1544   -9.9187 C   0  0  1  0  0  0  0  0  0  0  0  0
    2.7306  -19.4878   -9.5242 O   0  0  0  0  0  0  0  0  0  0  0  0
    1.9149  -17.7242  -10.9188 C   0  0  2  0  0  0  0  0  0  0  0  0
    2.4204  -16.9564  -12.0898 N   0  0  0  0  0  0  0  0  0  0  0  0
    1.6636  -16.1331  -12.8850 C   0  0  0  0  0  0  0  0  0  0  0  0
    2.4491  -15.6019  -13.8484 N   0  0  0  0  0  0  0  0  0  0  0  0
    3.7008  -16.0603  -13.6843 C   0  0  0  0  0  0  0  0  0  0  0  0
    4.8766  -15.8255  -14.3806 C   0  0  0  0  0  0  0  0  0  0  0  0
    4.8850  -15.0075  -15.4248 N   0  0  0  0  0  0  0  0  0  0  0  0
    6.0385  -16.4484  -13.9698 N   0  0  0  0  0  0  0  0  0  0  0  0
    6.0463  -17.2999  -12.8722 C   0  0  0  0  0  0  0  0  0  0  0  0
    4.8676  -17.5169  -12.1881 N   0  0  0  0  0  0  0  0  0  0  0  0
    3.7082  -16.9160  -12.5854 C   0  0  0  0  0  0  0  0  0  0  0  0
  2  3  1  1  0  0  0
  2  6  1  0  0  0  0
  2  1  1  0  0  0  0
  4  3  2  0  0  0  0
  5  3  1  0  0  0  0
  6  7  2  0  0  0  0
  8  7  1  1  0  0  0
  8  9  1  0  0  0  0
  8 10  1  0  0  0  0
 11 10  1  1  0  0  0
 11 13  1  0  0  0  0
 12 11  1  0  0  0  0
 12 17  1  0  0  0  0
 13 14  1  1  0  0  0
 13 15  1  0  0  0  0
 15 16  1  1  0  0  0
 17 18  1  6  0  0  0
 17 15  1  0  0  0  0
 18 19  1  0  0  0  0
 20 19  2  0  0  0  0
 21 27  2  0  0  0  0
 21 20  1  0  0  0  0
 22 21  1  0  0  0  0
 23 22  1  0  0  0  0
 24 22  2  0  0  0  0
 24 25  1  0  0  0  0
 25 26  2  0  0  0  0
 26 27  1  0  0  0  0
 27 18  1  0  0  0  0
M  END
>  <CHROM.1>
-24.36449286,107.21577328,-91.84522886,-82.69137818,-75.88389707,-39.64977332
3.46857542,-16.03255223,-9.66534372,-1.54209664,-0.21822798,-1.77413228

>  <Name>
lig.pdb

>  <RI>
0

>  <Rbt.Current_Directory>
/home/itssahil/PROJECTS/Mol_Feturizer/New_Systems/rnas/4b5r

>  <Rbt.Executable>
rbdock ($Id: //depot/dev/client3/rdock/2013.1/src/exe/rbdock.cxx#4 $)

>  <Rbt.Library>
libRbt.so (2013.1, Build901 2013/11/27)

>  <Rbt.Parameter_File>
/export/apps/rDock/src/rDock_2013.1_src/data/scripts/dock_solv.prm

>  <Rbt.Receptor>
prm/pocket_docking_4.prm

>  <SCORE>
-14.0699

>  <SCORE.INTER>
-15.0043

>  <SCORE.INTER.CONST>
1

>  <SCORE.INTER.POLAR>
0

>  <SCORE.INTER.ROT>
6

>  <SCORE.INTER.SOLV>
14.0261

>  <SCORE.INTER.VDW>
-22.2782

>  <SCORE.INTER.norm>
-0.555714

>  <SCORE.INTRA>
0.934342

>  <SCORE.INTRA.DIHEDRAL>
-0.635008

>  <SCORE.INTRA.DIHEDRAL.0>
10.2917

>  <SCORE.INTRA.POLAR>
0

>  <SCORE.INTRA.POLAR.0>
0

>  <SCORE.INTRA.REPUL>
0

>  <SCORE.INTRA.REPUL.0>
0

>  <SCORE.INTRA.SOLV>
-2.15314

>  <SCORE.INTRA.SOLV.lig_0>
-39.6315

>  <SCORE.INTRA.VDW>
2.32842

>  <SCORE.INTRA.VDW.0>
-4.02152

>  <SCORE.INTRA.norm>
0.0346052

>  <SCORE.RESTR>
0

>  <SCORE.RESTR.CAVITY>
0

>  <SCORE.RESTR.norm>
0

>  <SCORE.SYSTEM>
0

>  <SCORE.SYSTEM.CONST>
0

>  <SCORE.SYSTEM.DIHEDRAL>
0

>  <SCORE.SYSTEM.SOLV>
0

>  <SCORE.SYSTEM.norm>
0

>  <SCORE.heavy>
27

>  <SCORE.norm>
-0.521109

>  <RMSD>
6.466

$$$$
lig.pdb
 OpenBabel11021811493D
libRbt.so/2013.1/901 2013/11/27
 27 29  0  0  0  0  0  0  0  0999 V2000
    6.1635  -14.5936   -6.8468 N   0  0  0  0  0  0  0  0  0  0  0  0
    5.1848  -14.1042   -5.8286 C   0  0  2  0  0  0  0  0  0  0  0  0
    5.3023  -14.9602   -4.5710 C   0  0  0  0  0  0  0  0  0  0  0  0
    5.0928  -14.4552   -3.4743 O   0  0  0  0  0  0  0  0  0  0  0  0
    5.6090  -16.1589   -4.6021 O   0  0  0  0  0  0  0  0  0  0  0  0
    3.7329  -14.0426   -6.3444 C   0  0  0  0  0  0  0  0  0  0  0  0
    3.5246  -14.2425   -7.8687 C   0  0  0  0  0  0  0  0  0  0  0  0
    1.8126  -14.1741   -8.5528 S   0  0  2  0  0  0  0  0  0  0  0  0
    1.0912  -12.8352   -7.5800 C   0  0  0  0  0  0  0  0  0  0  0  0
    0.9912  -15.5865   -7.7834 C   0  0  0  0  0  0  0  0  0  0  0  0
    1.5178  -16.8800   -8.3909 C   0  0  1  0  0  0  0  0  0  0  0  0
    1.7409  -16.7759   -9.7890 O   0  0  0  0  0  0  0  0  0  0  0  0
    2.8581  -17.2890   -7.8416 C   0  0  1  0  0  0  0  0  0  0  0  0
    2.7024  -17.8876   -6.5872 O   0  0  0  0  0  0  0  0  0  0  0  0
    3.3128  -18.2588   -8.9098 C   0  0  1  0  0  0  0  0  0  0  0  0
    2.7363  -19.5302   -8.6907 O   0  0  0  0  0  0  0  0  0  0  0  0
    2.7523  -17.6772  -10.2029 C   0  0  2  0  0  0  0  0  0  0  0  0
    3.7536  -17.0143  -11.0827 N   0  0  0  0  0  0  0  0  0  0  0  0
    5.0628  -16.7710  -10.7513 C   0  0  0  0  0  0  0  0  0  0  0  0
    5.6760  -16.1565  -11.7875 N   0  0  0  0  0  0  0  0  0  0  0  0
    4.7890  -16.0068  -12.7849 C   0  0  0  0  0  0  0  0  0  0  0  0
    4.8988  -15.4571  -14.0531 C   0  0  0  0  0  0  0  0  0  0  0  0
    6.0544  -14.9550  -14.4680 N   0  0  0  0  0  0  0  0  0  0  0  0
    3.7929  -15.4448  -14.8799 N   0  0  0  0  0  0  0  0  0  0  0  0
    2.5791  -15.9759  -14.4620 C   0  0  0  0  0  0  0  0  0  0  0  0
    2.4905  -16.5239  -13.1985 N   0  0  0  0  0  0  0  0  0  0  0  0
    3.5715  -16.5369  -12.3652 C   0  0  0  0  0  0  0  0  0  0  0  0
  2  3  1  1  0  0  0
  2  6  1  0  0  0  0
  2  1  1  0  0  0  0
  4  3  2  0  0  0  0
  5  3  1  0  0  0  0
  6  7  2  0  0  0  0
  8  7  1  1  0  0  0
  8  9  1  0  0  0  0
  8 10  1  0  0  0  0
 11 10  1  1  0  0  0
 11 13  1  0  0  0  0
 12 11  1  0  0  0  0
 12 17  1  0  0  0  0
 13 14  1  1  0  0  0
 13 15  1  0  0  0  0
 15 16  1  1  0  0  0
 17 18  1  1  0  0  0
 17 15  1  0  0  0  0
 18 19  1  0  0  0  0
 20 19  2  0  0  0  0
 21 27  2  0  0  0  0
 21 20  1  0  0  0  0
 22 21  1  0  0  0  0
 23 22  1  0  0  0  0
 24 22  2  0  0  0  0
 24 25  1  0  0  0  0
 25 26  2  0  0  0  0
 26 27  1  0  0  0  0
 27 18  1  0  0  0  0
M  END
>  <CHROM.1>
147.73818883,-10.42698364,38.89752035,-71.94335130,-38.70545917,112.00622305
3.55066448,-15.87270323,-9.26006739,-1.55151185,-0.61481474,-1.68322348

>  <Name>
lig.pdb

>  <RI>
0

>  <Rbt.Current_Directory>
/home/itssahil/PROJECTS/Mol_Feturizer/New_Systems/rnas/4b5r

>  <Rbt.Executable>
rbdock ($Id: //depot/dev/client3/rdock/2013.1/src/exe/rbdock.cxx#4 $)

>  <Rbt.Library>
libRbt.so (2013.1, Build901 2013/11/27)

>  <Rbt.Parameter_File>
/export/apps/rDock/src/rDock_2013.1_src/data/scripts/dock_solv.prm

>  <Rbt.Receptor>
prm/pocket_docking_3.prm

>  <SCORE>
-12.5217

>  <SCORE.INTER>
-12.9947

>  <SCORE.INTER.CONST>
1

>  <SCORE.INTER.POLAR>
0

>  <SCORE.INTER.ROT>
6

>  <SCORE.INTER.SOLV>
13.7172

>  <SCORE.INTER.VDW>
-20.8356

>  <SCORE.INTER.norm>
-0.481287

>  <SCORE.INTRA>
0.473043

>  <SCORE.INTRA.DIHEDRAL>
-0.0941496

>  <SCORE.INTRA.DIHEDRAL.0>
10.2917

>  <SCORE.INTRA.POLAR>
0

>  <SCORE.INTRA.POLAR.0>
0

>  <SCORE.INTRA.REPUL>
0.00379463

>  <SCORE.INTRA.REPUL.0>
0

>  <SCORE.INTRA.SOLV>
-2.17832

>  <SCORE.INTRA.SOLV.lig_0>
-39.6315

>  <SCORE.INTRA.VDW>
1.59031

>  <SCORE.INTRA.VDW.0>
-4.02152

>  <SCORE.INTRA.norm>
0.0175201

>  <SCORE.RESTR>
0

>  <SCORE.RESTR.CAVITY>
0

>  <SCORE.RESTR.norm>
0

>  <SCORE.SYSTEM>
0

>  <SCORE.SYSTEM.CONST>
0

>  <SCORE.SYSTEM.DIHEDRAL>
0

>  <SCORE.SYSTEM.SOLV>
0

>  <SCORE.SYSTEM.norm>
0

>  <SCORE.heavy>
27

>  <SCORE.norm>
-0.463767

>  <RMSD>
6.473

$$$$
lig.pdb
 OpenBabel11021811493D
libRbt.so/2013.1/901 2013/11/27
 27 29  0  0  0  0  0  0  0  0999 V2000
    6.1248  -15.0928   -6.7294 N   0  0  0  0  0  0  0  0  0  0  0  0
    5.5808  -13.8598   -6.0831 C   0  0  2  0  0  0  0  0  0  0  0  0
    5.5338  -14.0672   -4.5721 C   0  0  0  0  0  0  0  0  0  0  0  0
    4.5052  -13.8086   -3.9583 O   0  0  0  0  0  0  0  0  0  0  0  0
    6.5005  -14.4859   -3.9225 O   0  0  0  0  0  0  0  0  0  0  0  0
    4.2130  -13.4192   -6.6424 C   0  0  0  0  0  0  0  0  0  0  0  0
    3.2974  -14.5366   -7.2079 C   0  0  0  0  0  0  0  0  0  0  0  0
    1.6496  -14.0769   -7.8986 S   0  0  2  0  0  0  0  0  0  0  0  0
    0.9911  -13.0268   -6.5859 C   0  0  0  0  0  0  0  0  0  0  0  0
    0.6503  -15.5579   -7.6342 C   0  0  0  0  0  0  0  0  0  0  0  0
    1.1262  -16.6701   -8.5594 C   0  0  1  0  0  0  0  0  0  0  0  0
    0.9994  -16.3308   -9.9320 O   0  0  0  0  0  0  0  0  0  0  0  0
    2.5890  -16.9868   -8.4001 C   0  0  1  0  0  0  0  0  0  0  0  0
    2.7893  -17.7812   -7.2666 O   0  0  0  0  0  0  0  0  0  0  0  0
    2.8575  -17.7214   -9.6949 C   0  0  1  0  0  0  0  0  0  0  0  0
    2.4618  -19.0731   -9.5791 O   0  0  0  0  0  0  0  0  0  0  0  0
    1.9566  -17.0271  -10.7101 C   0  0  2  0  0  0  0  0  0  0  0  0
    2.6581  -16.1205  -11.6600 N   0  0  0  0  0  0  0  0  0  0  0  0
    2.5949  -16.2029  -13.0283 C   0  0  0  0  0  0  0  0  0  0  0  0
    3.3529  -15.2220  -13.5674 N   0  0  0  0  0  0  0  0  0  0  0  0
    3.8971  -14.5027  -12.5722 C   0  0  0  0  0  0  0  0  0  0  0  0
    4.7342  -13.3973  -12.5730 C   0  0  0  0  0  0  0  0  0  0  0  0
    5.1366  -12.8624  -13.7183 N   0  0  0  0  0  0  0  0  0  0  0  0
    5.1378  -12.8572  -11.3680 N   0  0  0  0  0  0  0  0  0  0  0  0
    4.7163  -13.4011  -10.1612 C   0  0  0  0  0  0  0  0  0  0  0  0
    3.8787  -14.4977  -10.1803 N   0  0  0  0  0  0  0  0  0  0  0  0
    3.4766  -15.0494  -11.3623 C   0  0  0  0  0  0  0  0  0  0  0  0
  2  3  1  1  0  0  0
  2  6  1  0  0  0  0
  2  1  1  0  0  0  0
  4  3  2  0  0  0  0
  5  3  1  0  0  0  0
  6  7  2  0  0  0  0
  8  7  1  1  0  0  0
  8  9  1  0  0  0  0
  8 10  1  0  0  0  0
 11 10  1  1  0  0  0
 11 13  1  0  0  0  0
 12 11  1  0  0  0  0
 12 17  1  0  0  0  0
 13 14  1  1  0  0  0
 13 15  1  0  0  0  0
 15 16  1  1  0  0  0
 17 18  1  1  0  0  0
 17 15  1  0  0  0  0
 18 19  1  0  0  0  0
 20 19  2  0  0  0  0
 21 27  2  0  0  0  0
 21 20  1  0  0  0  0
 22 21  1  0  0  0  0
 23 22  1  0  0  0  0
 24 22  2  0  0  0  0
 24 25  1  0  0  0  0
 25 26  2  0  0  0  0
 26 27  1  0  0  0  0
 27 18  1  0  0  0  0
M  END
>  <CHROM.1>
-130.58866724,28.64292625,-48.80397549,-70.00716602,-61.26197903,-116.00602631
3.35518988,-15.08282229,-8.95729024,-1.33137368,-0.79775458,-1.53084482

>  <Name>
lig.pdb

>  <RI>
0

>  <Rbt.Current_Directory>
/home/itssahil/PROJECTS/Mol_Feturizer/New_Systems/rnas/4b5r

>  <Rbt.Executable>
rbdock ($Id: //depot/dev/client3/rdock/2013.1/src/exe/rbdock.cxx#4 $)

>  <Rbt.Library>
libRbt.so (2013.1, Build901 2013/11/27)

>  <Rbt.Parameter_File>
/export/apps/rDock/src/rDock_2013.1_src/data/scripts/dock_solv.prm

>  <Rbt.Receptor>
prm/pocket_docking_2.prm

>  <SCORE>
-12.661

>  <SCORE.INTER>
-14.3299

>  <SCORE.INTER.CONST>
1

>  <SCORE.INTER.POLAR>
0

>  <SCORE.INTER.ROT>
6

>  <SCORE.INTER.SOLV>
13.2448

>  <SCORE.INTER.VDW>
-21.5682

>  <SCORE.INTER.norm>
-0.530738

>  <SCORE.INTRA>
-0.0377297

>  <SCORE.INTRA.DIHEDRAL>
-2.17838

>  <SCORE.INTRA.DIHEDRAL.0>
10.2917

>  <SCORE.INTRA.POLAR>
0

>  <SCORE.INTRA.POLAR.0>
0

>  <SCORE.INTRA.REPUL>
0

>  <SCORE.INTRA.REPUL.0>
0

>  <SCORE.INTRA.SOLV>
-0.272137

>  <SCORE.INTRA.SOLV.lig_0>
-39.6315

>  <SCORE.INTRA.VDW>
1.18753

>  <SCORE.INTRA.VDW.0>
-4.02152

>  <SCORE.INTRA.norm>
-0.00139739

>  <SCORE.RESTR>
1.70668

>  <SCORE.RESTR.CAVITY>
1.70668

>  <SCORE.RESTR.norm>
0.0632105

>  <SCORE.SYSTEM>
0

>  <SCORE.SYSTEM.CONST>
0

>  <SCORE.SYSTEM.DIHEDRAL>
0

>  <SCORE.SYSTEM.SOLV>
0

>  <SCORE.SYSTEM.norm>
0

>  <SCORE.heavy>
27

>  <SCORE.norm>
-0.468925

>  <RMSD>
6.474

$$$$
lig.pdb
 OpenBabel11021811493D
libRbt.so/2013.1/901 2013/11/27
 27 29  0  0  0  0  0  0  0  0999 V2000
    5.6183  -14.5381   -4.3436 N   0  0  0  0  0  0  0  0  0  0  0  0
    4.9697  -15.2070   -5.5123 C   0  0  2  0  0  0  0  0  0  0  0  0
    6.0504  -15.8011   -6.4108 C   0  0  0  0  0  0  0  0  0  0  0  0
    6.6467  -15.0766   -7.1991 O   0  0  0  0  0  0  0  0  0  0  0  0
    6.3574  -16.9998   -6.3876 O   0  0  0  0  0  0  0  0  0  0  0  0
    4.0132  -14.2885   -6.2993 C   0  0  0  0  0  0  0  0  0  0  0  0
    2.9392  -14.9856   -7.1753 C   0  0  0  0  0  0  0  0  0  0  0  0
    1.7670  -13.9449   -8.1480 S   0  0  2  0  0  0  0  0  0  0  0  0
    1.0527  -12.9061   -6.8556 C   0  0  0  0  0  0  0  0  0  0  0  0
    0.3725  -15.0506   -8.4556 C   0  0  0  0  0  0  0  0  0  0  0  0
    0.7191  -16.0119   -9.5849 C   0  0  1  0  0  0  0  0  0  0  0  0
    1.0335  -15.3415  -10.7961 O   0  0  0  0  0  0  0  0  0  0  0  0
    1.9442  -16.8393   -9.3024 C   0  0  1  0  0  0  0  0  0  0  0  0
    1.6254  -17.8938   -8.4408 O   0  0  0  0  0  0  0  0  0  0  0  0
    2.2973  -17.3001  -10.6993 C   0  0  1  0  0  0  0  0  0  0  0  0
    1.5141  -18.4214  -11.0548 O   0  0  0  0  0  0  0  0  0  0  0  0
    1.9096  -16.1236  -11.5880 C   0  0  2  0  0  0  0  0  0  0  0  0
    3.0514  -15.3192  -12.1034 N   0  0  0  0  0  0  0  0  0  0  0  0
    3.2758  -15.0150  -13.4225 C   0  0  0  0  0  0  0  0  0  0  0  0
    4.4002  -14.2711  -13.5213 N   0  0  0  0  0  0  0  0  0  0  0  0
    4.9007  -14.0821  -12.2893 C   0  0  0  0  0  0  0  0  0  0  0  0
    6.0152  -13.3950  -11.8330 C   0  0  0  0  0  0  0  0  0  0  0  0
    6.8100  -12.7646  -12.6876 N   0  0  0  0  0  0  0  0  0  0  0  0
    6.2833  -13.3702  -10.4787 N   0  0  0  0  0  0  0  0  0  0  0  0
    5.4542  -14.0178   -9.5715 C   0  0  0  0  0  0  0  0  0  0  0  0
    4.3463  -14.6917  -10.0437 N   0  0  0  0  0  0  0  0  0  0  0  0
    4.0710  -14.7335  -11.3800 C   0  0  0  0  0  0  0  0  0  0  0  0
  2  3  1  6  0  0  0
  2  6  1  0  0  0  0
  2  1  1  0  0  0  0
  4  3  2  0  0  0  0
  5  3  1  0  0  0  0
  6  7  2  0  0  0  0
  8  7  1  1  0  0  0
  8  9  1  0  0  0  0
  8 10  1  0  0  0  0
 11 10  1  1  0  0  0
 11 13  1  0  0  0  0
 12 11  1  0  0  0  0
 12 17  1  0  0  0  0
 13 14  1  1  0  0  0
 13 15  1  0  0  0  0
 15 16  1  6  0  0  0
 17 18  1  1  0  0  0
 17 15  1  0  0  0  0
 18 19  1  0  0  0  0
 20 19  2  0  0  0  0
 21 27  2  0  0  0  0
 21 20  1  0  0  0  0
 22 21  1  0  0  0  0
 23 22  1  0  0  0  0
 24 22  2  0  0  0  0
 24 25  1  0  0  0  0
 25 26  2  0  0  0  0
 26 27  1  0  0  0  0
 27 18  1  0  0  0  0
M  END
>  <CHROM.1>
-80.60018022,-158.76178486,-55.56347967,-78.08363928,-59.23075974,-113.52189253
3.56287259,-15.10996137,-9.36503624,-1.36258844,-0.38156662,-1.49153941

>  <Name>
lig.pdb

>  <RI>
0

>  <Rbt.Current_Directory>
/home/itssahil/PROJECTS/Mol_Feturizer/New_Systems/rnas/4b5r

>  <Rbt.Executable>
rbdock ($Id: //depot/dev/client3/rdock/2013.1/src/exe/rbdock.cxx#4 $)

>  <Rbt.Library>
libRbt.so (2013.1, Build901 2013/11/27)

>  <Rbt.Parameter_File>
/export/apps/rDock/src/rDock_2013.1_src/data/scripts/dock_solv.prm

>  <Rbt.Receptor>
prm/pocket_docking_2.prm

>  <SCORE>
-11.1962

>  <SCORE.INTER>
-12.4474

>  <SCORE.INTER.CONST>
1

>  <SCORE.INTER.POLAR>
0

>  <SCORE.INTER.ROT>
6

>  <SCORE.INTER.SOLV>
13.7939

>  <SCORE.INTER.VDW>
-20.4963

>  <SCORE.INTER.norm>
-0.461015

>  <SCORE.INTRA>
-1.27063

>  <SCORE.INTRA.DIHEDRAL>
-1.15286

>  <SCORE.INTRA.DIHEDRAL.0>
10.2917

>  <SCORE.INTRA.POLAR>
0

>  <SCORE.INTRA.POLAR.0>
0

>  <SCORE.INTRA.REPUL>
0

>  <SCORE.INTRA.REPUL.0>
0

>  <SCORE.INTRA.SOLV>
-1.14116

>  <SCORE.INTRA.SOLV.lig_0>
-39.6315

>  <SCORE.INTRA.VDW>
-0.123621

>  <SCORE.INTRA.VDW.0>
-4.02152

>  <SCORE.INTRA.norm>
-0.0470604

>  <SCORE.RESTR>
2.52184

>  <SCORE.RESTR.CAVITY>
2.52184

>  <SCORE.RESTR.norm>
0.0934015

>  <SCORE.SYSTEM>
0

>  <SCORE.SYSTEM.CONST>
0

>  <SCORE.SYSTEM.DIHEDRAL>
0

>  <SCORE.SYSTEM.SOLV>
0

>  <SCORE.SYSTEM.norm>
0

>  <SCORE.heavy>
27

>  <SCORE.norm>
-0.414674

>  <RMSD>
6.478

$$$$
lig.pdb
 OpenBabel11021811493D
libRbt.so/2013.1/901 2013/11/27
 27 29  0  0  0  0  0  0  0  0999 V2000
    6.0407  -16.6990   -6.3465 N   0  0  0  0  0  0  0  0  0  0  0  0
    4.5592  -16.8781   -6.4318 C   0  0  2  0  0  0  0  0  0  0  0  0
    4.2413  -18.3668   -6.5362 C   0  0  0  0  0  0  0  0  0  0  0  0
    5.1575  -19.1803   -6.5602 O   0  0  0  0  0  0  0  0  0  0  0  0
    3.0848  -18.8022   -6.6044 O   0  0  0  0  0  0  0  0  0  0  0  0
    3.9024  -16.0721   -7.5705 C   0  0  0  0  0  0  0  0  0  0  0  0
    2.7327  -15.1326   -7.1761 C   0  0  0  0  0  0  0  0  0  0  0  0
    1.8982  -14.1443   -8.4916 S   0  0  2  0  0  0  0  0  0  0  0  0
    1.1458  -12.8201   -7.5222 C   0  0  0  0  0  0  0  0  0  0  0  0
    0.4243  -15.1131   -8.8798 C   0  0  0  0  0  0  0  0  0  0  0  0
    0.7177  -16.0499  -10.0442 C   0  0  1  0  0  0  0  0  0  0  0  0
    1.0439  -15.3531  -11.2372 O   0  0  0  0  0  0  0  0  0  0  0  0
    1.9118  -16.9344   -9.8054 C   0  0  1  0  0  0  0  0  0  0  0  0
    1.5613  -18.0030   -8.9741 O   0  0  0  0  0  0  0  0  0  0  0  0
    2.2286  -17.3628  -11.2212 C   0  0  1  0  0  0  0  0  0  0  0  0
    1.3964  -18.4396  -11.6020 O   0  0  0  0  0  0  0  0  0  0  0  0
    1.8778  -16.1432  -12.0661 C   0  0  2  0  0  0  0  0  0  0  0  0
    3.0447  -15.3686  -12.5707 N   0  0  0  0  0  0  0  0  0  0  0  0
    3.4182  -15.2645  -13.8870 C   0  0  0  0  0  0  0  0  0  0  0  0
    4.5188  -14.4847  -13.9757 N   0  0  0  0  0  0  0  0  0  0  0  0
    4.8574  -14.0764  -12.7417 C   0  0  0  0  0  0  0  0  0  0  0  0
    5.8822  -13.2656  -12.2784 C   0  0  0  0  0  0  0  0  0  0  0  0
    6.7528  -12.7352  -13.1271 N   0  0  0  0  0  0  0  0  0  0  0  0
    5.9811  -13.0126  -10.9245 N   0  0  0  0  0  0  0  0  0  0  0  0
    5.0707  -13.5536  -10.0254 C   0  0  0  0  0  0  0  0  0  0  0  0
    4.0539  -14.3535  -10.5058 N   0  0  0  0  0  0  0  0  0  0  0  0
    3.9462  -14.6208  -11.8401 C   0  0  0  0  0  0  0  0  0  0  0  0
  2  3  1  6  0  0  0
  2  6  1  0  0  0  0
  2  1  1  0  0  0  0
  4  3  2  0  0  0  0
  5  3  1  0  0  0  0
  6  7  2  0  0  0  0
  8  7  1  1  0  0  0
  8  9  1  0  0  0  0
  8 10  1  0  0  0  0
 11 10  1  1  0  0  0
 11 13  1  0  0  0  0
 12 11  1  0  0  0  0
 12 17  1  0  0  0  0
 13 14  1  1  0  0  0
 13 15  1  0  0  0  0
 15 16  1  6  0  0  0
 17 18  1  1  0  0  0
 17 15  1  0  0  0  0
 18 19  1  0  0  0  0
 20 19  2  0  0  0  0
 21 27  2  0  0  0  0
 21 20  1  0  0  0  0
 22 21  1  0  0  0  0
 23 22  1  0  0  0  0
 24 22  2  0  0  0  0
 24 25  1  0  0  0  0
 25 26  2  0  0  0  0
 26 27  1  0  0  0  0
 27 18  1  0  0  0  0
M  END
>  <CHROM.1>
-1.17173058,-125.89592545,-158.68396728,-93.08854832,-62.60075795,-127.88045839
3.27097916,-15.62544934,-9.84732048,-1.76563350,-0.46478517,-1.11671099

>  <Name>
lig.pdb

>  <RI>
0

>  <Rbt.Current_Directory>
/home/itssahil/PROJECTS/Mol_Feturizer/New_Systems/rnas/4b5r

>  <Rbt.Executable>
rbdock ($Id: //depot/dev/client3/rdock/2013.1/src/exe/rbdock.cxx#4 $)

>  <Rbt.Library>
libRbt.so (2013.1, Build901 2013/11/27)

>  <Rbt.Parameter_File>
/export/apps/rDock/src/rDock_2013.1_src/data/scripts/dock_solv.prm

>  <Rbt.Receptor>
prm/pocket_docking_4.prm

>  <SCORE>
-16.4408

>  <SCORE.INTER>
-14.8384

>  <SCORE.INTER.CONST>
1

>  <SCORE.INTER.POLAR>
0

>  <SCORE.INTER.ROT>
6

>  <SCORE.INTER.SOLV>
11.6726

>  <SCORE.INTER.VDW>
-21.3831

>  <SCORE.INTER.norm>
-0.54957

>  <SCORE.INTRA>
-1.60242

>  <SCORE.INTRA.DIHEDRAL>
-0.44218

>  <SCORE.INTRA.DIHEDRAL.0>
10.2917

>  <SCORE.INTRA.POLAR>
0

>  <SCORE.INTRA.POLAR.0>
0

>  <SCORE.INTRA.REPUL>
0

>  <SCORE.INTRA.REPUL.0>
0

>  <SCORE.INTRA.SOLV>
-1.28372

>  <SCORE.INTRA.SOLV.lig_0>
-39.6315

>  <SCORE.INTRA.VDW>
-0.739471

>  <SCORE.INTRA.VDW.0>
-4.02152

>  <SCORE.INTRA.norm>
-0.059349

>  <SCORE.RESTR>
0

>  <SCORE.RESTR.CAVITY>
0

>  <SCORE.RESTR.norm>
0

>  <SCORE.SYSTEM>
0

>  <SCORE.SYSTEM.CONST>
0

>  <SCORE.SYSTEM.DIHEDRAL>
0

>  <SCORE.SYSTEM.SOLV>
0

>  <SCORE.SYSTEM.norm>
0

>  <SCORE.heavy>
27

>  <SCORE.norm>
-0.608919

>  <RMSD>
6.487

$$$$
lig.pdb
 OpenBabel11021811493D
libRbt.so/2013.1/901 2013/11/27
 27 29  0  0  0  0  0  0  0  0999 V2000
    6.6160  -14.8722   -5.0213 N   0  0  0  0  0  0  0  0  0  0  0  0
    5.9180  -15.1320   -6.3173 C   0  0  2  0  0  0  0  0  0  0  0  0
    4.6926  -14.2281   -6.4146 C   0  0  0  0  0  0  0  0  0  0  0  0
    3.8783  -14.2132   -5.4989 O   0  0  0  0  0  0  0  0  0  0  0  0
    4.4724  -13.5000   -7.3909 O   0  0  0  0  0  0  0  0  0  0  0  0
    5.5541  -16.6141   -6.5386 C   0  0  0  0  0  0  0  0  0  0  0  0
    4.0555  -16.9369   -6.7762 C   0  0  0  0  0  0  0  0  0  0  0  0
    3.5508  -18.6914   -7.0413 S   0  0  2  0  0  0  0  0  0  0  0  0
    4.9510  -19.5790   -6.3264 C   0  0  0  0  0  0  0  0  0  0  0  0
    3.8790  -18.9671   -8.7958 C   0  0  0  0  0  0  0  0  0  0  0  0
    2.7779  -18.3270   -9.6307 C   0  0  1  0  0  0  0  0  0  0  0  0
    2.7505  -16.9130   -9.5073 O   0  0  0  0  0  0  0  0  0  0  0  0
    2.9467  -18.5565  -11.1086 C   0  0  1  0  0  0  0  0  0  0  0  0
    2.5191  -19.8441  -11.4482 O   0  0  0  0  0  0  0  0  0  0  0  0
    2.0537  -17.4688  -11.6633 C   0  0  1  0  0  0  0  0  0  0  0  0
    0.7067  -17.8963  -11.6613 O   0  0  0  0  0  0  0  0  0  0  0  0
    2.2096  -16.3192  -10.6741 C   0  0  2  0  0  0  0  0  0  0  0  0
    3.0463  -15.1845  -11.1524 N   0  0  0  0  0  0  0  0  0  0  0  0
    3.4486  -14.1184  -10.3879 C   0  0  0  0  0  0  0  0  0  0  0  0
    4.1935  -13.2840  -11.1471 N   0  0  0  0  0  0  0  0  0  0  0  0
    4.2867  -13.7965  -12.3851 C   0  0  0  0  0  0  0  0  0  0  0  0
    4.9330  -13.3539  -13.5292 C   0  0  0  0  0  0  0  0  0  0  0  0
    5.6232  -12.2213  -13.5132 N   0  0  0  0  0  0  0  0  0  0  0  0
    4.8541  -14.1096  -14.6822 N   0  0  0  0  0  0  0  0  0  0  0  0
    4.1429  -15.3026  -14.7107 C   0  0  0  0  0  0  0  0  0  0  0  0
    3.5110  -15.7299  -13.5606 N   0  0  0  0  0  0  0  0  0  0  0  0
    3.5716  -14.9912  -12.4144 C   0  0  0  0  0  0  0  0  0  0  0  0
  2  3  1  1  0  0  0
  2  6  1  0  0  0  0
  2  1  1  0  0  0  0
  4  3  2  0  0  0  0
  5  3  1  0  0  0  0
  6  7  2  0  0  0  0
  8  7  1  6  0  0  0
  8  9  1  0  0  0  0
  8 10  1  0  0  0  0
 11 10  1  1  0  0  0
 11 13  1  0  0  0  0
 12 11  1  0  0  0  0
 12 17  1  0  0  0  0
 13 14  1  1  0  0  0
 13 15  1  0  0  0  0
 15 16  1  1  0  0  0
 17 18  1  6  0  0  0
 17 15  1  0  0  0  0
 18 19  1  0  0  0  0
 20 19  2  0  0  0  0
 21 27  2  0  0  0  0
 21 20  1  0  0  0  0
 22 21  1  0  0  0  0
 23 22  1  0  0  0  0
 24 22  2  0  0  0  0
 24 25  1  0  0  0  0
 25 26  2  0  0  0  0
 26 27  1  0  0  0  0
 27 18  1  0  0  0  0
M  END
>  <CHROM.1>
-52.43516461,122.48805808,20.41977235,-77.22254902,64.81895936,-52.77307692
3.84998255,-16.10670373,-9.78658602,-1.35303734,-1.12003545,-1.07251855

>  <Name>
lig.pdb

>  <RI>
0

>  <Rbt.Current_Directory>
/home/itssahil/PROJECTS/Mol_Feturizer/New_Systems/rnas/4b5r

>  <Rbt.Executable>
rbdock ($Id: //depot/dev/client3/rdock/2013.1/src/exe/rbdock.cxx#4 $)

>  <Rbt.Library>
libRbt.so (2013.1, Build901 2013/11/27)

>  <Rbt.Parameter_File>
/export/apps/rDock/src/rDock_2013.1_src/data/scripts/dock_solv.prm

>  <Rbt.Receptor>
prm/pocket_docking_4.prm

>  <SCORE>
-12.1429

>  <SCORE.INTER>
-12.1258

>  <SCORE.INTER.CONST>
1

>  <SCORE.INTER.POLAR>
0

>  <SCORE.INTER.ROT>
6

>  <SCORE.INTER.SOLV>
14.7838

>  <SCORE.INTER.VDW>
-20.6118

>  <SCORE.INTER.norm>
-0.449103

>  <SCORE.INTRA>
-0.017143

>  <SCORE.INTRA.DIHEDRAL>
-1.84036

>  <SCORE.INTRA.DIHEDRAL.0>
10.2917

>  <SCORE.INTRA.POLAR>
0

>  <SCORE.INTRA.POLAR.0>
0

>  <SCORE.INTRA.REPUL>
0

>  <SCORE.INTRA.REPUL.0>
0

>  <SCORE.INTRA.SOLV>
-2.72853

>  <SCORE.INTRA.SOLV.lig_0>
-39.6315

>  <SCORE.INTRA.VDW>
2.2673

>  <SCORE.INTRA.VDW.0>
-4.02152

>  <SCORE.INTRA.norm>
-0.000634925

>  <SCORE.RESTR>
0

>  <SCORE.RESTR.CAVITY>
0

>  <SCORE.RESTR.norm>
0

>  <SCORE.SYSTEM>
0

>  <SCORE.SYSTEM.CONST>
0

>  <SCORE.SYSTEM.DIHEDRAL>
0

>  <SCORE.SYSTEM.SOLV>
0

>  <SCORE.SYSTEM.norm>
0

>  <SCORE.heavy>
27

>  <SCORE.norm>
-0.449738

>  <RMSD>
6.491

$$$$
lig.pdb
 OpenBabel11021811493D
libRbt.so/2013.1/901 2013/11/27
 27 29  0  0  0  0  0  0  0  0999 V2000
    6.2128  -14.5681   -6.8517 N   0  0  0  0  0  0  0  0  0  0  0  0
    5.2692  -13.9301   -5.8839 C   0  0  2  0  0  0  0  0  0  0  0  0
    5.3284  -14.6835   -4.5583 C   0  0  0  0  0  0  0  0  0  0  0  0
    5.6508  -15.8657   -4.5489 O   0  0  0  0  0  0  0  0  0  0  0  0
    5.0574  -14.1534   -3.4732 O   0  0  0  0  0  0  0  0  0  0  0  0
    3.8249  -13.8145   -6.4116 C   0  0  0  0  0  0  0  0  0  0  0  0
    3.6115  -14.0785   -7.9253 C   0  0  0  0  0  0  0  0  0  0  0  0
    1.9085  -13.9501   -8.6230 S   0  0  2  0  0  0  0  0  0  0  0  0
    1.1653  -12.7202   -7.5302 C   0  0  0  0  0  0  0  0  0  0  0  0
    1.0861  -15.4373   -8.0119 C   0  0  0  0  0  0  0  0  0  0  0  0
    1.4684  -16.6288   -8.8801 C   0  0  1  0  0  0  0  0  0  0  0  0
    1.2141  -16.4044  -10.2586 O   0  0  0  0  0  0  0  0  0  0  0  0
    2.9385  -16.9483   -8.8321 C   0  0  1  0  0  0  0  0  0  0  0  0
    3.2417  -17.6471   -7.6592 O   0  0  0  0  0  0  0  0  0  0  0  0
    3.0810  -17.7921  -10.0795 C   0  0  1  0  0  0  0  0  0  0  0  0
    2.6928  -19.1245   -9.8132 O   0  0  0  0  0  0  0  0  0  0  0  0
    2.0911  -17.1748  -11.0611 C   0  0  2  0  0  0  0  0  0  0  0  0
    2.7035  -16.3595  -12.1458 N   0  0  0  0  0  0  0  0  0  0  0  0
    2.4029  -16.4617  -13.4808 C   0  0  0  0  0  0  0  0  0  0  0  0
    3.1469  -15.5700  -14.1726 N   0  0  0  0  0  0  0  0  0  0  0  0
    3.9157  -14.8881  -13.3077 C   0  0  0  0  0  0  0  0  0  0  0  0
    4.8396  -13.8699  -13.4867 C   0  0  0  0  0  0  0  0  0  0  0  0
    5.0911  -13.3990  -14.7011 N   0  0  0  0  0  0  0  0  0  0  0  0
    5.4892  -13.3486  -12.3853 N   0  0  0  0  0  0  0  0  0  0  0  0
    5.2287  -13.8254  -11.1068 C   0  0  0  0  0  0  0  0  0  0  0  0
    4.3016  -14.8353  -10.9477 N   0  0  0  0  0  0  0  0  0  0  0  0
    3.6564  -15.3678  -12.0262 C   0  0  0  0  0  0  0  0  0  0  0  0
  2  3  1  1  0  0  0
  2  6  1  0  0  0  0
  2  1  1  0  0  0  0
  4  3  2  0  0  0  0
  5  3  1  0  0  0  0
  6  7  2  0  0  0  0
  8  7  1  1  0  0  0
  8  9  1  0  0  0  0
  8 10  1  0  0  0  0
 11 10  1  1  0  0  0
 11 13  1  0  0  0  0
 12 11  1  0  0  0  0
 12 17  1  0  0  0  0
 13 14  1  1  0  0  0
 13 15  1  0  0  0  0
 15 16  1  1  0  0  0
 17 18  1  6  0  0  0
 17 15  1  0  0  0  0
 18 19  1  0  0  0  0
 20 19  2  0  0  0  0
 21 27  2  0  0  0  0
 21 20  1  0  0  0  0
 22 21  1  0  0  0  0
 23 22  1  0  0  0  0
 24 22  2  0  0  0  0
 24 25  1  0  0  0  0
 25 26  2  0  0  0  0
 26 27  1  0  0  0  0
 27 18  1  0  0  0  0
M  END
>  <CHROM.1>
-26.70175140,-12.50886432,29.54336864,-80.57786359,-54.31556748,-108.64802408
3.48283444,-15.26063374,-9.43100082,-1.40003454,-0.86228605,-1.51591769

>  <Name>
lig.pdb

>  <RI>
0

>  <Rbt.Current_Directory>
/home/itssahil/PROJECTS/Mol_Feturizer/New_Systems/rnas/4b5r

>  <Rbt.Executable>
rbdock ($Id: //depot/dev/client3/rdock/2013.1/src/exe/rbdock.cxx#4 $)

>  <Rbt.Library>
libRbt.so (2013.1, Build901 2013/11/27)

>  <Rbt.Parameter_File>
/export/apps/rDock/src/rDock_2013.1_src/data/scripts/dock_solv.prm

>  <Rbt.Receptor>
prm/pocket_docking_4.prm

>  <SCORE>
-15.7624

>  <SCORE.INTER>
-15.2613

>  <SCORE.INTER.CONST>
1

>  <SCORE.INTER.POLAR>
0

>  <SCORE.INTER.ROT>
6

>  <SCORE.INTER.SOLV>
11.2252

>  <SCORE.INTER.VDW>
-21.516

>  <SCORE.INTER.norm>
-0.565235

>  <SCORE.INTRA>
-0.502018

>  <SCORE.INTRA.DIHEDRAL>
-1.10543

>  <SCORE.INTRA.DIHEDRAL.0>
10.2917

>  <SCORE.INTRA.POLAR>
0

>  <SCORE.INTRA.POLAR.0>
0

>  <SCORE.INTRA.REPUL>
0

>  <SCORE.INTRA.REPUL.0>
0

>  <SCORE.INTRA.SOLV>
-1.04909

>  <SCORE.INTRA.SOLV.lig_0>
-39.6315

>  <SCORE.INTRA.VDW>
0.575244

>  <SCORE.INTRA.VDW.0>
-4.02152

>  <SCORE.INTRA.norm>
-0.0185933

>  <SCORE.RESTR>
0.000968205

>  <SCORE.RESTR.CAVITY>
0.000968205

>  <SCORE.RESTR.norm>
3.58595e-05

>  <SCORE.SYSTEM>
0

>  <SCORE.SYSTEM.CONST>
0

>  <SCORE.SYSTEM.DIHEDRAL>
0

>  <SCORE.SYSTEM.SOLV>
0

>  <SCORE.SYSTEM.norm>
0

>  <SCORE.heavy>
27

>  <SCORE.norm>
-0.583792

>  <RMSD>
6.493

$$$$
lig.pdb
 OpenBabel11021811493D
libRbt.so/2013.1/901 2013/11/27
 27 29  0  0  0  0  0  0  0  0999 V2000
    5.3240  -15.0631   -4.3566 N   0  0  0  0  0  0  0  0  0  0  0  0
    4.8635  -15.4986   -5.7102 C   0  0  2  0  0  0  0  0  0  0  0  0
    6.0755  -15.9054   -6.5432 C   0  0  0  0  0  0  0  0  0  0  0  0
    6.6153  -15.0785   -7.2688 O   0  0  0  0  0  0  0  0  0  0  0  0
    6.5465  -17.0498   -6.5270 O   0  0  0  0  0  0  0  0  0  0  0  0
    3.9966  -14.4504   -6.4366 C   0  0  0  0  0  0  0  0  0  0  0  0
    2.8554  -14.9915   -7.3374 C   0  0  0  0  0  0  0  0  0  0  0  0
    1.7846  -13.7908   -8.2403 S   0  0  2  0  0  0  0  0  0  0  0  0
    1.2947  -12.6752   -6.9081 C   0  0  0  0  0  0  0  0  0  0  0  0
    0.2358  -14.6914   -8.4686 C   0  0  0  0  0  0  0  0  0  0  0  0
    0.3638  -15.6408   -9.6525 C   0  0  1  0  0  0  0  0  0  0  0  0
    1.1468  -15.0989  -10.7053 O   0  0  0  0  0  0  0  0  0  0  0  0
    1.0654  -16.9266   -9.3065 C   0  0  1  0  0  0  0  0  0  0  0  0
    0.1869  -17.7928   -8.6479 O   0  0  0  0  0  0  0  0  0  0  0  0
    1.4545  -17.4114  -10.6856 C   0  0  1  0  0  0  0  0  0  0  0  0
    0.3630  -18.0686  -11.2968 O   0  0  0  0  0  0  0  0  0  0  0  0
    1.7575  -16.1321  -11.4577 C   0  0  2  0  0  0  0  0  0  0  0  0
    3.2031  -15.8629  -11.6900 N   0  0  0  0  0  0  0  0  0  0  0  0
    3.9627  -16.4178  -12.6890 C   0  0  0  0  0  0  0  0  0  0  0  0
    5.2270  -15.9480  -12.5982 N   0  0  0  0  0  0  0  0  0  0  0  0
    5.2952  -15.0933  -11.5643 C   0  0  0  0  0  0  0  0  0  0  0  0
    6.3373  -14.3380  -11.0486 C   0  0  0  0  0  0  0  0  0  0  0  0
    7.5408  -14.3892  -11.6040 N   0  0  0  0  0  0  0  0  0  0  0  0
    6.1049  -13.5280   -9.9546 N   0  0  0  0  0  0  0  0  0  0  0  0
    4.8473  -13.4572   -9.3689 C   0  0  0  0  0  0  0  0  0  0  0  0
    3.8209  -14.2118   -9.8997 N   0  0  0  0  0  0  0  0  0  0  0  0
    4.0350  -15.0242  -10.9755 C   0  0  0  0  0  0  0  0  0  0  0  0
  2  3  1  6  0  0  0
  2  6  1  0  0  0  0
  2  1  1  0  0  0  0
  4  3  2  0  0  0  0
  5  3  1  0  0  0  0
  6  7  2  0  0  0  0
  8  7  1  1  0  0  0
  8  9  1  0  0  0  0
  8 10  1  0  0  0  0
 11 10  1  1  0  0  0
 11 13  1  0  0  0  0
 12 11  1  0  0  0  0
 12 17  1  0  0  0  0
 13 14  1  6  0  0  0
 13 15  1  0  0  0  0
 15 16  1  6  0  0  0
 17 18  1  1  0  0  0
 17 15  1  0  0  0  0
 18 19  1  0  0  0  0
 20 19  2  0  0  0  0
 21 27  2  0  0  0  0
 21 20  1  0  0  0  0
 22 21  1  0  0  0  0
 23 22  1  0  0  0  0
 24 22  2  0  0  0  0
 24 25  1  0  0  0  0
 25 26  2  0  0  0  0
 26 27  1  0  0  0  0
 27 18  1  0  0  0  0
M  END
>  <CHROM.1>
-92.96221959,-145.42435447,-50.93035140,-80.35814201,-36.40874282,-158.74362722
3.44238623,-15.30456886,-9.21617125,0.61810050,0.18080888,1.40562570

>  <Name>
lig.pdb

>  <RI>
0

>  <Rbt.Current_Directory>
/home/itssahil/PROJECTS/Mol_Feturizer/New_Systems/rnas/4b5r

>  <Rbt.Executable>
rbdock ($Id: //depot/dev/client3/rdock/2013.1/src/exe/rbdock.cxx#4 $)

>  <Rbt.Library>
libRbt.so (2013.1, Build901 2013/11/27)

>  <Rbt.Parameter_File>
/export/apps/rDock/src/rDock_2013.1_src/data/scripts/dock_solv.prm

>  <Rbt.Receptor>
prm/pocket_docking_2.prm

>  <SCORE>
-7.41176

>  <SCORE.INTER>
-9.90627

>  <SCORE.INTER.CONST>
1

>  <SCORE.INTER.POLAR>
0

>  <SCORE.INTER.ROT>
6

>  <SCORE.INTER.SOLV>
15.4805

>  <SCORE.INTER.VDW>
-19.3644

>  <SCORE.INTER.norm>
-0.366899

>  <SCORE.INTRA>
0.763013

>  <SCORE.INTRA.DIHEDRAL>
-0.24061

>  <SCORE.INTRA.DIHEDRAL.0>
10.2917

>  <SCORE.INTRA.POLAR>
0

>  <SCORE.INTRA.POLAR.0>
0

>  <SCORE.INTRA.REPUL>
0

>  <SCORE.INTRA.REPUL.0>
0

>  <SCORE.INTRA.SOLV>
-0.640643

>  <SCORE.INTRA.SOLV.lig_0>
-39.6315

>  <SCORE.INTRA.VDW>
1.20364

>  <SCORE.INTRA.VDW.0>
-4.02152

>  <SCORE.INTRA.norm>
0.0282597

>  <SCORE.RESTR>
1.73151

>  <SCORE.RESTR.CAVITY>
1.73151

>  <SCORE.RESTR.norm>
0.0641299

>  <SCORE.SYSTEM>
0

>  <SCORE.SYSTEM.CONST>
0

>  <SCORE.SYSTEM.DIHEDRAL>
0

>  <SCORE.SYSTEM.SOLV>
0

>  <SCORE.SYSTEM.norm>
0

>  <SCORE.heavy>
27

>  <SCORE.norm>
-0.274509

>  <RMSD>
6.502

$$$$
lig.pdb
 OpenBabel11021811493D
libRbt.so/2013.1/901 2013/11/27
 27 29  0  0  0  0  0  0  0  0999 V2000
    6.6622  -14.5477   -6.8563 N   0  0  0  0  0  0  0  0  0  0  0  0
    5.5066  -13.9915   -6.0887 C   0  0  2  0  0  0  0  0  0  0  0  0
    5.1713  -14.9350   -4.9374 C   0  0  0  0  0  0  0  0  0  0  0  0
    5.3234  -16.1424   -5.0815 O   0  0  0  0  0  0  0  0  0  0  0  0
    4.7409  -14.5364   -3.8476 O   0  0  0  0  0  0  0  0  0  0  0  0
    4.2705  -13.6918   -6.9606 C   0  0  0  0  0  0  0  0  0  0  0  0
    3.3073  -14.8762   -7.2366 C   0  0  0  0  0  0  0  0  0  0  0  0
    1.8123  -14.5875   -8.2783 S   0  0  2  0  0  0  0  0  0  0  0  0
    0.9359  -13.3411   -7.3097 C   0  0  0  0  0  0  0  0  0  0  0  0
    0.7731  -16.0246   -7.9370 C   0  0  0  0  0  0  0  0  0  0  0  0
    1.2712  -17.2201   -8.7384 C   0  0  1  0  0  0  0  0  0  0  0  0
    0.9454  -17.1278  -10.1170 O   0  0  0  0  0  0  0  0  0  0  0  0
    2.7703  -17.3545   -8.7305 C   0  0  1  0  0  0  0  0  0  0  0  0
    3.1966  -17.9252   -7.5270 O   0  0  0  0  0  0  0  0  0  0  0  0
    2.9748  -18.2621   -9.9232 C   0  0  1  0  0  0  0  0  0  0  0  0
    2.7639  -19.6092   -9.5520 O   0  0  0  0  0  0  0  0  0  0  0  0
    1.8840  -17.8416  -10.9019 C   0  0  2  0  0  0  0  0  0  0  0  0
    2.3542  -17.0380  -12.0635 N   0  0  0  0  0  0  0  0  0  0  0  0
    1.5684  -16.2104  -12.8255 C   0  0  0  0  0  0  0  0  0  0  0  0
    2.3265  -15.6430  -13.7902 N   0  0  0  0  0  0  0  0  0  0  0  0
    3.5889  -16.0825  -13.6595 C   0  0  0  0  0  0  0  0  0  0  0  0
    4.7474  -15.8105  -14.3712 C   0  0  0  0  0  0  0  0  0  0  0  0
    4.7220  -14.9686  -15.3960 N   0  0  0  0  0  0  0  0  0  0  0  0
    5.9274  -16.4216  -13.9962 N   0  0  0  0  0  0  0  0  0  0  0  0
    5.9706  -17.2978  -12.9191 C   0  0  0  0  0  0  0  0  0  0  0  0
    4.8087  -17.5518  -12.2190 N   0  0  0  0  0  0  0  0  0  0  0  0
    3.6318  -16.9629  -12.5812 C   0  0  0  0  0  0  0  0  0  0  0  0
  2  3  1  1  0  0  0
  2  6  1  0  0  0  0
  2  1  1  0  0  0  0
  4  3  2  0  0  0  0
  5  3  1  0  0  0  0
  6  7  2  0  0  0  0
  8  7  1  1  0  0  0
  8  9  1  0  0  0  0
  8 10  1  0  0  0  0
 11 10  1  1  0  0  0
 11 13  1  0  0  0  0
 12 11  1  0  0  0  0
 12 17  1  0  0  0  0
 13 14  1  1  0  0  0
 13 15  1  0  0  0  0
 15 16  1  1  0  0  0
 17 18  1  6  0  0  0
 17 15  1  0  0  0  0
 18 19  1  0  0  0  0
 20 19  2  0  0  0  0
 21 27  2  0  0  0  0
 21 20  1  0  0  0  0
 22 21  1  0  0  0  0
 23 22  1  0  0  0  0
 24 22  2  0  0  0  0
 24 25  1  0  0  0  0
 25 26  2  0  0  0  0
 26 27  1  0  0  0  0
 27 18  1  0  0  0  0
M  END
>  <CHROM.1>
-33.62913007,84.65627376,-60.88709193,-79.29223532,-74.45292789,-38.99620980
3.38177076,-16.09264886,-9.60750682,-1.53664398,-0.33147812,-1.77159942

>  <Name>
lig.pdb

>  <RI>
0

>  <Rbt.Current_Directory>
/home/itssahil/PROJECTS/Mol_Feturizer/New_Systems/rnas/4b5r

>  <Rbt.Executable>
rbdock ($Id: //depot/dev/client3/rdock/2013.1/src/exe/rbdock.cxx#4 $)

>  <Rbt.Library>
libRbt.so (2013.1, Build901 2013/11/27)

>  <Rbt.Parameter_File>
/export/apps/rDock/src/rDock_2013.1_src/data/scripts/dock_solv.prm

>  <Rbt.Receptor>
prm/pocket_docking_4.prm

>  <SCORE>
-14.6741

>  <SCORE.INTER>
-15.7518

>  <SCORE.INTER.CONST>
1

>  <SCORE.INTER.POLAR>
0

>  <SCORE.INTER.ROT>
6

>  <SCORE.INTER.SOLV>
14.456

>  <SCORE.INTER.VDW>
-22.9199

>  <SCORE.INTER.norm>
-0.583399

>  <SCORE.INTRA>
1.07765

>  <SCORE.INTRA.DIHEDRAL>
-0.530482

>  <SCORE.INTRA.DIHEDRAL.0>
10.2917

>  <SCORE.INTRA.POLAR>
0

>  <SCORE.INTRA.POLAR.0>
0

>  <SCORE.INTRA.REPUL>
0

>  <SCORE.INTRA.REPUL.0>
0

>  <SCORE.INTRA.SOLV>
-1.99684

>  <SCORE.INTRA.SOLV.lig_0>
-39.6315

>  <SCORE.INTRA.VDW>
2.34131

>  <SCORE.INTRA.VDW.0>
-4.02152

>  <SCORE.INTRA.norm>
0.039913

>  <SCORE.RESTR>
0

>  <SCORE.RESTR.CAVITY>
0

>  <SCORE.RESTR.norm>
0

>  <SCORE.SYSTEM>
0

>  <SCORE.SYSTEM.CONST>
0

>  <SCORE.SYSTEM.DIHEDRAL>
0

>  <SCORE.SYSTEM.SOLV>
0

>  <SCORE.SYSTEM.norm>
0

>  <SCORE.heavy>
27

>  <SCORE.norm>
-0.543486

>  <RMSD>
6.504

$$$$
lig.pdb
 OpenBabel11021811493D
libRbt.so/2013.1/901 2013/11/27
 27 29  0  0  0  0  0  0  0  0999 V2000
    5.7605  -15.9219   -7.2996 N   0  0  0  0  0  0  0  0  0  0  0  0
    4.5448  -16.2442   -6.4921 C   0  0  2  0  0  0  0  0  0  0  0  0
    4.4272  -17.7588   -6.3493 C   0  0  0  0  0  0  0  0  0  0  0  0
    5.4141  -18.4150   -6.0376 O   0  0  0  0  0  0  0  0  0  0  0  0
    3.3681  -18.3700   -6.5406 O   0  0  0  0  0  0  0  0  0  0  0  0
    3.2488  -15.6202   -7.0477 C   0  0  0  0  0  0  0  0  0  0  0  0
    3.3856  -14.7451   -8.3213 C   0  0  0  0  0  0  0  0  0  0  0  0
    1.8744  -13.9632   -9.0344 S   0  0  2  0  0  0  0  0  0  0  0  0
    1.2925  -12.9723   -7.6419 C   0  0  0  0  0  0  0  0  0  0  0  0
    0.6509  -15.2910   -8.9959 C   0  0  0  0  0  0  0  0  0  0  0  0
    0.9130  -16.2638  -10.1380 C   0  0  1  0  0  0  0  0  0  0  0  0
    1.0384  -15.6121  -11.3930 O   0  0  0  0  0  0  0  0  0  0  0  0
    2.2095  -17.0140   -9.9904 C   0  0  1  0  0  0  0  0  0  0  0  0
    2.0596  -18.0593   -9.0735 O   0  0  0  0  0  0  0  0  0  0  0  0
    2.4164  -17.4945  -11.4098 C   0  0  1  0  0  0  0  0  0  0  0  0
    1.6624  -18.6670  -11.6419 O   0  0  0  0  0  0  0  0  0  0  0  0
    1.8558  -16.3671  -12.2695 C   0  0  2  0  0  0  0  0  0  0  0  0
    2.8777  -15.5161  -12.9387 N   0  0  0  0  0  0  0  0  0  0  0  0
    3.1841  -15.5481  -14.2759 C   0  0  0  0  0  0  0  0  0  0  0  0
    4.1548  -14.6424  -14.5305 N   0  0  0  0  0  0  0  0  0  0  0  0
    4.4745  -14.0205  -13.3838 C   0  0  0  0  0  0  0  0  0  0  0  0
    5.3858  -13.0169  -13.0922 C   0  0  0  0  0  0  0  0  0  0  0  0
    6.1380  -12.4953  -14.0522 N   0  0  0  0  0  0  0  0  0  0  0  0
    5.4955  -12.5638  -11.7924 N   0  0  0  0  0  0  0  0  0  0  0  0
    4.7072  -13.0941  -10.7790 C   0  0  0  0  0  0  0  0  0  0  0  0
    3.8017  -14.0882  -11.0894 N   0  0  0  0  0  0  0  0  0  0  0  0
    3.6860  -14.5539  -12.3672 C   0  0  0  0  0  0  0  0  0  0  0  0
  2  3  1  6  0  0  0
  2  6  1  0  0  0  0
  2  1  1  0  0  0  0
  4  3  2  0  0  0  0
  5  3  1  0  0  0  0
  6  7  2  0  0  0  0
  8  7  1  1  0  0  0
  8  9  1  0  0  0  0
  8 10  1  0  0  0  0
 11 10  1  1  0  0  0
 11 13  1  0  0  0  0
 12 11  1  0  0  0  0
 12 17  1  0  0  0  0
 13 14  1  1  0  0  0
 13 15  1  0  0  0  0
 15 16  1  1  0  0  0
 17 18  1  1  0  0  0
 17 15  1  0  0  0  0
 18 19  1  0  0  0  0
 20 19  2  0  0  0  0
 21 27  2  0  0  0  0
 21 20  1  0  0  0  0
 22 21  1  0  0  0  0
 23 22  1  0  0  0  0
 24 22  2  0  0  0  0
 24 25  1  0  0  0  0
 25 26  2  0  0  0  0
 26 27  1  0  0  0  0
 27 18  1  0  0  0  0
M  END
>  <CHROM.1>
46.70494065,-1.04165993,58.49239042,-77.30835667,-51.07977032,-134.40779793
3.23060876,-15.48133403,-10.17981750,-1.71824375,-0.82318242,-1.22541486

>  <Name>
lig.pdb

>  <RI>
0

>  <Rbt.Current_Directory>
/home/itssahil/PROJECTS/Mol_Feturizer/New_Systems/rnas/4b5r

>  <Rbt.Executable>
rbdock ($Id: //depot/dev/client3/rdock/2013.1/src/exe/rbdock.cxx#4 $)

>  <Rbt.Library>
libRbt.so (2013.1, Build901 2013/11/27)

>  <Rbt.Parameter_File>
/export/apps/rDock/src/rDock_2013.1_src/data/scripts/dock_solv.prm

>  <Rbt.Receptor>
prm/pocket_docking_5.prm

>  <SCORE>
-16.8806

>  <SCORE.INTER>
-16.4443

>  <SCORE.INTER.CONST>
1

>  <SCORE.INTER.POLAR>
0

>  <SCORE.INTER.ROT>
6

>  <SCORE.INTER.SOLV>
11.6311

>  <SCORE.INTER.VDW>
-22.4399

>  <SCORE.INTER.norm>
-0.609049

>  <SCORE.INTRA>
-0.436292

>  <SCORE.INTRA.DIHEDRAL>
-1.19768

>  <SCORE.INTRA.DIHEDRAL.0>
10.2917

>  <SCORE.INTRA.POLAR>
0

>  <SCORE.INTRA.POLAR.0>
0

>  <SCORE.INTRA.REPUL>
0

>  <SCORE.INTRA.REPUL.0>
0

>  <SCORE.INTRA.SOLV>
-0.662472

>  <SCORE.INTRA.SOLV.lig_0>
-39.6315

>  <SCORE.INTRA.VDW>
0.493786

>  <SCORE.INTRA.VDW.0>
-4.02152

>  <SCORE.INTRA.norm>
-0.016159

>  <SCORE.RESTR>
0

>  <SCORE.RESTR.CAVITY>
0

>  <SCORE.RESTR.norm>
0

>  <SCORE.SYSTEM>
0

>  <SCORE.SYSTEM.CONST>
0

>  <SCORE.SYSTEM.DIHEDRAL>
0

>  <SCORE.SYSTEM.SOLV>
0

>  <SCORE.SYSTEM.norm>
0

>  <SCORE.heavy>
27

>  <SCORE.norm>
-0.625208

>  <RMSD>
6.516

$$$$
lig.pdb
 OpenBabel11021811493D
libRbt.so/2013.1/901 2013/11/27
 27 29  0  0  0  0  0  0  0  0999 V2000
    7.1858  -13.9798  -17.4018 N   0  0  0  0  0  0  0  0  0  0  0  0
    6.0100  -14.5129  -16.6486 C   0  0  2  0  0  0  0  0  0  0  0  0
    4.8814  -14.8120  -17.6309 C   0  0  0  0  0  0  0  0  0  0  0  0
    4.5992  -13.9908  -18.4956 O   0  0  0  0  0  0  0  0  0  0  0  0
    4.2211  -15.8582  -17.5951 O   0  0  0  0  0  0  0  0  0  0  0  0
    5.5412  -13.5949  -15.5017 C   0  0  0  0  0  0  0  0  0  0  0  0
    5.5607  -14.1979  -14.0725 C   0  0  0  0  0  0  0  0  0  0  0  0
    5.0059  -13.1551  -12.6554 S   0  0  2  0  0  0  0  0  0  0  0  0
    5.7831  -11.5736  -13.0484 C   0  0  0  0  0  0  0  0  0  0  0  0
    6.0684  -13.6871  -11.2953 C   0  0  0  0  0  0  0  0  0  0  0  0
    5.4587  -14.9050  -10.6138 C   0  0  1  0  0  0  0  0  0  0  0  0
    5.2505  -15.9858  -11.5105 O   0  0  0  0  0  0  0  0  0  0  0  0
    6.3425  -15.4890   -9.5446 C   0  0  1  0  0  0  0  0  0  0  0  0
    6.2486  -14.7296   -8.3739 O   0  0  0  0  0  0  0  0  0  0  0  0
    5.7386  -16.8691   -9.4071 C   0  0  1  0  0  0  0  0  0  0  0  0
    4.6033  -16.8224   -8.5669 O   0  0  0  0  0  0  0  0  0  0  0  0
    5.2933  -17.2228  -10.8217 C   0  0  2  0  0  0  0  0  0  0  0  0
    6.1533  -18.2143  -11.5243 N   0  0  0  0  0  0  0  0  0  0  0  0
    6.4823  -19.4580  -11.0471 C   0  0  0  0  0  0  0  0  0  0  0  0
    7.2751  -20.0829  -11.9461 N   0  0  0  0  0  0  0  0  0  0  0  0
    7.4567  -19.2687  -12.9988 C   0  0  0  0  0  0  0  0  0  0  0  0
    8.1641  -19.4206  -14.1816 C   0  0  0  0  0  0  0  0  0  0  0  0
    8.8240  -20.5446  -14.4280 N   0  0  0  0  0  0  0  0  0  0  0  0
    8.1677  -18.3906  -15.1012 N   0  0  0  0  0  0  0  0  0  0  0  0
    7.4732  -17.2118  -14.8606 C   0  0  0  0  0  0  0  0  0  0  0  0
    6.7700  -17.0811  -13.6804 N   0  0  0  0  0  0  0  0  0  0  0  0
    6.7624  -18.0859  -12.7565 C   0  0  0  0  0  0  0  0  0  0  0  0
  2  3  1  6  0  0  0
  2  6  1  0  0  0  0
  2  1  1  0  0  0  0
  4  3  2  0  0  0  0
  5  3  1  0  0  0  0
  6  7  2  0  0  0  0
  8  7  1  6  0  0  0
  8  9  1  0  0  0  0
  8 10  1  0  0  0  0
 11 10  1  6  0  0  0
 11 13  1  0  0  0  0
 12 11  1  0  0  0  0
 12 17  1  0  0  0  0
 13 14  1  1  0  0  0
 13 15  1  0  0  0  0
 15 16  1  1  0  0  0
 17 18  1  6  0  0  0
 17 15  1  0  0  0  0
 18 19  1  0  0  0  0
 20 19  2  0  0  0  0
 21 27  2  0  0  0  0
 21 20  1  0  0  0  0
 22 21  1  0  0  0  0
 23 22  1  0  0  0  0
 24 22  2  0  0  0  0
 24 25  1  0  0  0  0
 25 26  2  0  0  0  0
 26 27  1  0  0  0  0
 27 18  1  0  0  0  0
M  END
>  <CHROM.1>
-45.62147346,-120.27249582,-42.55145871,-85.79021589,57.45734188,174.14399182
6.10202319,-16.06224044,-13.13358065,-1.83328862,-1.21191192,1.74352706

>  <Name>
lig.pdb

>  <RI>
0

>  <Rbt.Current_Directory>
/home/itssahil/PROJECTS/Mol_Feturizer/New_Systems/rnas/4b5r

>  <Rbt.Executable>
rbdock ($Id: //depot/dev/client3/rdock/2013.1/src/exe/rbdock.cxx#4 $)

>  <Rbt.Library>
libRbt.so (2013.1, Build901 2013/11/27)

>  <Rbt.Parameter_File>
/export/apps/rDock/src/rDock_2013.1_src/data/scripts/dock_solv.prm

>  <Rbt.Receptor>
prm/pocket_docking_8.prm

>  <SCORE>
-11.4178

>  <SCORE.INTER>
-10.6895

>  <SCORE.INTER.CONST>
1

>  <SCORE.INTER.POLAR>
0

>  <SCORE.INTER.ROT>
6

>  <SCORE.INTER.SOLV>
13.3064

>  <SCORE.INTER.VDW>
-19.1618

>  <SCORE.INTER.norm>
-0.395909

>  <SCORE.INTRA>
-0.728268

>  <SCORE.INTRA.DIHEDRAL>
-2.5783

>  <SCORE.INTRA.DIHEDRAL.0>
10.2917

>  <SCORE.INTRA.POLAR>
0

>  <SCORE.INTRA.POLAR.0>
0

>  <SCORE.INTRA.REPUL>
0.166331

>  <SCORE.INTRA.REPUL.0>
0

>  <SCORE.INTRA.SOLV>
-2.06192

>  <SCORE.INTRA.SOLV.lig_0>
-39.6315

>  <SCORE.INTRA.VDW>
0.760183

>  <SCORE.INTRA.VDW.0>
-4.02152

>  <SCORE.INTRA.norm>
-0.0269729

>  <SCORE.RESTR>
0

>  <SCORE.RESTR.CAVITY>
0

>  <SCORE.RESTR.norm>
0

>  <SCORE.SYSTEM>
0

>  <SCORE.SYSTEM.CONST>
0

>  <SCORE.SYSTEM.DIHEDRAL>
0

>  <SCORE.SYSTEM.SOLV>
0

>  <SCORE.SYSTEM.norm>
0

>  <SCORE.heavy>
27

>  <SCORE.norm>
-0.422881

>  <RMSD>
6.527

$$$$
lig.pdb
 OpenBabel11021811493D
libRbt.so/2013.1/901 2013/11/27
 27 29  0  0  0  0  0  0  0  0999 V2000
    6.2144  -14.5584   -6.8511 N   0  0  0  0  0  0  0  0  0  0  0  0
    5.2629  -13.8597   -5.9344 C   0  0  2  0  0  0  0  0  0  0  0  0
    5.3429  -14.4978   -4.5507 C   0  0  0  0  0  0  0  0  0  0  0  0
    4.8333  -13.9289   -3.5924 O   0  0  0  0  0  0  0  0  0  0  0  0
    5.9109  -15.5774   -4.3421 O   0  0  0  0  0  0  0  0  0  0  0  0
    3.8142  -13.8166   -6.4610 C   0  0  0  0  0  0  0  0  0  0  0  0
    3.5976  -14.2226   -7.9425 C   0  0  0  0  0  0  0  0  0  0  0  0
    1.8893  -14.1867   -8.6380 S   0  0  2  0  0  0  0  0  0  0  0  0
    1.1298  -12.8763   -7.6554 C   0  0  0  0  0  0  0  0  0  0  0  0
    1.0962  -15.6267   -7.8903 C   0  0  0  0  0  0  0  0  0  0  0  0
    1.4832  -16.8830   -8.6594 C   0  0  1  0  0  0  0  0  0  0  0  0
    1.0766  -16.8384  -10.0188 O   0  0  0  0  0  0  0  0  0  0  0  0
    2.9714  -17.0954   -8.7351 C   0  0  1  0  0  0  0  0  0  0  0  0
    3.4435  -17.6307   -7.5324 O   0  0  0  0  0  0  0  0  0  0  0  0
    3.0555  -18.0674   -9.8910 C   0  0  1  0  0  0  0  0  0  0  0  0
    2.8018  -19.3827   -9.4409 O   0  0  0  0  0  0  0  0  0  0  0  0
    1.9276  -17.6366  -10.8220 C   0  0  2  0  0  0  0  0  0  0  0  0
    2.3633  -16.9141  -12.0486 N   0  0  0  0  0  0  0  0  0  0  0  0
    1.5561  -16.1353  -12.8392 C   0  0  0  0  0  0  0  0  0  0  0  0
    2.2851  -15.6368  -13.8626 N   0  0  0  0  0  0  0  0  0  0  0  0
    3.5499  -16.0725  -13.7422 C   0  0  0  0  0  0  0  0  0  0  0  0
    4.6861  -15.8538  -14.5062 C   0  0  0  0  0  0  0  0  0  0  0  0
    4.6308  -15.0817  -15.5835 N   0  0  0  0  0  0  0  0  0  0  0  0
    5.8758  -16.4441  -14.1282 N   0  0  0  0  0  0  0  0  0  0  0  0
    5.9504  -17.2471  -12.9970 C   0  0  0  0  0  0  0  0  0  0  0  0
    4.8104  -17.4486  -12.2458 N   0  0  0  0  0  0  0  0  0  0  0  0
    3.6242  -16.8796  -12.6097 C   0  0  0  0  0  0  0  0  0  0  0  0
  2  3  1  1  0  0  0
  2  6  1  0  0  0  0
  2  1  1  0  0  0  0
  4  3  2  0  0  0  0
  5  3  1  0  0  0  0
  6  7  2  0  0  0  0
  8  7  1  1  0  0  0
  8  9  1  0  0  0  0
  8 10  1  0  0  0  0
 11 10  1  6  0  0  0
 11 13  1  0  0  0  0
 12 11  1  0  0  0  0
 12 17  1  0  0  0  0
 13 14  1  1  0  0  0
 13 15  1  0  0  0  0
 15 16  1  1  0  0  0
 17 18  1  6  0  0  0
 17 15  1  0  0  0  0
 18 19  1  0  0  0  0
 20 19  2  0  0  0  0
 21 27  2  0  0  0  0
 21 20  1  0  0  0  0
 22 21  1  0  0  0  0
 23 22  1  0  0  0  0
 24 22  2  0  0  0  0
 24 25  1  0  0  0  0
 25 26  2  0  0  0  0
 26 27  1  0  0  0  0
 27 18  1  0  0  0  0
M  END
>  <CHROM.1>
166.70536047,-12.00146237,29.40347136,-81.18442308,-60.68893080,-42.38392685
3.43493093,-15.86871459,-9.60810022,-1.50699841,-0.14769913,-1.80306389

>  <Name>
lig.pdb

>  <RI>
0

>  <Rbt.Current_Directory>
/home/itssahil/PROJECTS/Mol_Feturizer/New_Systems/rnas/4b5r

>  <Rbt.Executable>
rbdock ($Id: //depot/dev/client3/rdock/2013.1/src/exe/rbdock.cxx#4 $)

>  <Rbt.Library>
libRbt.so (2013.1, Build901 2013/11/27)

>  <Rbt.Parameter_File>
/export/apps/rDock/src/rDock_2013.1_src/data/scripts/dock_solv.prm

>  <Rbt.Receptor>
prm/pocket_docking_8.prm

>  <SCORE>
-15.5714

>  <SCORE.INTER>
-16.2044

>  <SCORE.INTER.CONST>
1

>  <SCORE.INTER.POLAR>
0

>  <SCORE.INTER.ROT>
6

>  <SCORE.INTER.SOLV>
14.724

>  <SCORE.INTER.VDW>
-23.3109

>  <SCORE.INTER.norm>
-0.600164

>  <SCORE.INTRA>
0.632987

>  <SCORE.INTRA.DIHEDRAL>
-1.231

>  <SCORE.INTRA.DIHEDRAL.0>
10.2917

>  <SCORE.INTRA.POLAR>
0

>  <SCORE.INTRA.POLAR.0>
0

>  <SCORE.INTRA.REPUL>
0

>  <SCORE.INTRA.REPUL.0>
0

>  <SCORE.INTRA.SOLV>
-1.85314

>  <SCORE.INTRA.SOLV.lig_0>
-39.6315

>  <SCORE.INTRA.VDW>
2.17506

>  <SCORE.INTRA.VDW.0>
-4.02152

>  <SCORE.INTRA.norm>
0.023444

>  <SCORE.RESTR>
0

>  <SCORE.RESTR.CAVITY>
0

>  <SCORE.RESTR.norm>
0

>  <SCORE.SYSTEM>
0

>  <SCORE.SYSTEM.CONST>
0

>  <SCORE.SYSTEM.DIHEDRAL>
0

>  <SCORE.SYSTEM.SOLV>
0

>  <SCORE.SYSTEM.norm>
0

>  <SCORE.heavy>
27

>  <SCORE.norm>
-0.57672

>  <RMSD>
6.527

$$$$
lig.pdb
 OpenBabel11021811493D
libRbt.so/2013.1/901 2013/11/27
 27 29  0  0  0  0  0  0  0  0999 V2000
    7.3909  -17.7430  -14.9557 N   0  0  0  0  0  0  0  0  0  0  0  0
    6.7156  -16.6577  -14.1810 C   0  0  2  0  0  0  0  0  0  0  0  0
    7.7647  -15.8817  -13.3901 C   0  0  0  0  0  0  0  0  0  0  0  0
    8.2066  -14.8313  -13.8407 O   0  0  0  0  0  0  0  0  0  0  0  0
    8.2038  -16.2686  -12.2995 O   0  0  0  0  0  0  0  0  0  0  0  0
    5.5740  -17.1616  -13.2751 C   0  0  0  0  0  0  0  0  0  0  0  0
    4.1423  -16.6738  -13.6198 C   0  0  0  0  0  0  0  0  0  0  0  0
    2.7312  -17.2341  -12.5718 S   0  0  2  0  0  0  0  0  0  0  0  0
    1.7545  -15.7208  -12.4470 C   0  0  0  0  0  0  0  0  0  0  0  0
    3.4314  -17.2829  -10.9078 C   0  0  0  0  0  0  0  0  0  0  0  0
    4.3356  -18.5003  -10.7669 C   0  0  1  0  0  0  0  0  0  0  0  0
    5.4527  -18.2569   -9.9253 O   0  0  0  0  0  0  0  0  0  0  0  0
    3.6494  -19.6757  -10.1241 C   0  0  1  0  0  0  0  0  0  0  0  0
    2.8378  -20.3291  -11.0570 O   0  0  0  0  0  0  0  0  0  0  0  0
    4.8457  -20.4981   -9.6989 C   0  0  1  0  0  0  0  0  0  0  0  0
    5.3245  -21.2607  -10.7880 O   0  0  0  0  0  0  0  0  0  0  0  0
    5.8962  -19.4594   -9.3221 C   0  0  2  0  0  0  0  0  0  0  0  0
    6.1210  -19.2911   -7.8601 N   0  0  0  0  0  0  0  0  0  0  0  0
    6.2520  -18.0893   -7.2110 C   0  0  0  0  0  0  0  0  0  0  0  0
    6.4436  -18.3158   -5.8921 N   0  0  0  0  0  0  0  0  0  0  0  0
    6.4300  -19.6416   -5.6769 C   0  0  0  0  0  0  0  0  0  0  0  0
    6.5685  -20.3985   -4.5234 C   0  0  0  0  0  0  0  0  0  0  0  0
    6.7521  -19.8057   -3.3511 N   0  0  0  0  0  0  0  0  0  0  0  0
    6.5065  -21.7752   -4.6099 N   0  0  0  0  0  0  0  0  0  0  0  0
    6.3050  -22.4089   -5.8295 C   0  0  0  0  0  0  0  0  0  0  0  0
    6.1635  -21.6388   -6.9659 N   0  0  0  0  0  0  0  0  0  0  0  0
    6.2305  -20.2770   -6.9000 C   0  0  0  0  0  0  0  0  0  0  0  0
  2  3  1  1  0  0  0
  2  6  1  0  0  0  0
  2  1  1  0  0  0  0
  4  3  2  0  0  0  0
  5  3  1  0  0  0  0
  6  7  2  0  0  0  0
  8  7  1  6  0  0  0
  8  9  1  0  0  0  0
  8 10  1  0  0  0  0
 11 10  1  1  0  0  0
 11 13  1  0  0  0  0
 12 11  1  0  0  0  0
 12 17  1  0  0  0  0
 13 14  1  6  0  0  0
 13 15  1  0  0  0  0
 15 16  1  6  0  0  0
 17 18  1  1  0  0  0
 17 15  1  0  0  0  0
 18 19  1  0  0  0  0
 20 19  2  0  0  0  0
 21 27  2  0  0  0  0
 21 20  1  0  0  0  0
 22 21  1  0  0  0  0
 23 22  1  0  0  0  0
 24 22  2  0  0  0  0
 24 25  1  0  0  0  0
 25 26  2  0  0  0  0
 26 27  1  0  0  0  0
 27 18  1  0  0  0  0
M  END
>  <CHROM.1>
97.50932681,-115.28707549,139.42267964,-74.92435910,145.59225718,-16.84384600
5.48051134,-18.60838934,-9.91685861,-1.68438740,0.30674631,2.07670374

>  <Name>
lig.pdb

>  <RI>
0

>  <Rbt.Current_Directory>
/home/itssahil/PROJECTS/Mol_Feturizer/New_Systems/rnas/4b5r

>  <Rbt.Executable>
rbdock ($Id: //depot/dev/client3/rdock/2013.1/src/exe/rbdock.cxx#4 $)

>  <Rbt.Library>
libRbt.so (2013.1, Build901 2013/11/27)

>  <Rbt.Parameter_File>
/export/apps/rDock/src/rDock_2013.1_src/data/scripts/dock_solv.prm

>  <Rbt.Receptor>
prm/pocket_docking_8.prm

>  <SCORE>
-9.60539

>  <SCORE.INTER>
-9.32094

>  <SCORE.INTER.CONST>
1

>  <SCORE.INTER.POLAR>
0

>  <SCORE.INTER.ROT>
6

>  <SCORE.INTER.SOLV>
11.9023

>  <SCORE.INTER.VDW>
-17.7814

>  <SCORE.INTER.norm>
-0.34522

>  <SCORE.INTRA>
-0.284445

>  <SCORE.INTRA.DIHEDRAL>
-0.135361

>  <SCORE.INTRA.DIHEDRAL.0>
10.2917

>  <SCORE.INTRA.POLAR>
0

>  <SCORE.INTRA.POLAR.0>
0

>  <SCORE.INTRA.REPUL>
0

>  <SCORE.INTRA.REPUL.0>
0

>  <SCORE.INTRA.SOLV>
-3.06985

>  <SCORE.INTRA.SOLV.lig_0>
-39.6315

>  <SCORE.INTRA.VDW>
1.31816

>  <SCORE.INTRA.VDW.0>
-4.02152

>  <SCORE.INTRA.norm>
-0.010535

>  <SCORE.RESTR>
0

>  <SCORE.RESTR.CAVITY>
0

>  <SCORE.RESTR.norm>
0

>  <SCORE.SYSTEM>
0

>  <SCORE.SYSTEM.CONST>
0

>  <SCORE.SYSTEM.DIHEDRAL>
0

>  <SCORE.SYSTEM.SOLV>
0

>  <SCORE.SYSTEM.norm>
0

>  <SCORE.heavy>
27

>  <SCORE.norm>
-0.355755

>  <RMSD>
6.546

$$$$
lig.pdb
 OpenBabel11021811493D
libRbt.so/2013.1/901 2013/11/27
 27 29  0  0  0  0  0  0  0  0999 V2000
    6.8534  -22.5495   -8.2267 N   0  0  0  0  0  0  0  0  0  0  0  0
    6.4755  -21.4499   -7.2875 C   0  0  2  0  0  0  0  0  0  0  0  0
    5.5785  -22.0161   -6.1907 C   0  0  0  0  0  0  0  0  0  0  0  0
    5.8712  -21.8312   -5.0151 O   0  0  0  0  0  0  0  0  0  0  0  0
    4.5549  -22.6687   -6.4319 O   0  0  0  0  0  0  0  0  0  0  0  0
    5.8294  -20.2352   -7.9839 C   0  0  0  0  0  0  0  0  0  0  0  0
    4.3387  -19.9554   -7.6585 C   0  0  0  0  0  0  0  0  0  0  0  0
    3.5028  -18.5210   -8.4630 S   0  0  2  0  0  0  0  0  0  0  0  0
    4.7814  -17.2514   -8.3497 C   0  0  0  0  0  0  0  0  0  0  0  0
    2.3671  -17.9239   -7.1921 C   0  0  0  0  0  0  0  0  0  0  0  0
    1.5304  -16.7792   -7.7481 C   0  0  1  0  0  0  0  0  0  0  0  0
    2.3205  -15.6722   -8.1550 O   0  0  0  0  0  0  0  0  0  0  0  0
    0.7673  -17.1533   -8.9904 C   0  0  1  0  0  0  0  0  0  0  0  0
   -0.3754  -17.8851   -8.6518 O   0  0  0  0  0  0  0  0  0  0  0  0
    0.4512  -15.7825   -9.5464 C   0  0  1  0  0  0  0  0  0  0  0  0
   -0.6867  -15.2462   -8.9025 O   0  0  0  0  0  0  0  0  0  0  0  0
    1.6695  -14.9425   -9.1797 C   0  0  2  0  0  0  0  0  0  0  0  0
    2.5903  -14.6397  -10.3096 N   0  0  0  0  0  0  0  0  0  0  0  0
    3.7119  -13.8532  -10.2298 C   0  0  0  0  0  0  0  0  0  0  0  0
    4.3037  -13.7995  -11.4440 N   0  0  0  0  0  0  0  0  0  0  0  0
    3.5894  -14.5441  -12.3040 C   0  0  0  0  0  0  0  0  0  0  0  0
    3.7596  -14.8318  -13.6496 C   0  0  0  0  0  0  0  0  0  0  0  0
    4.7917  -14.3319  -14.3164 N   0  0  0  0  0  0  0  0  0  0  0  0
    2.8457  -15.6494  -14.2844 N   0  0  0  0  0  0  0  0  0  0  0  0
    1.7657  -16.1877  -13.5962 C   0  0  0  0  0  0  0  0  0  0  0  0
    1.6159  -15.8948  -12.2559 N   0  0  0  0  0  0  0  0  0  0  0  0
    2.5052  -15.0817  -11.6147 C   0  0  0  0  0  0  0  0  0  0  0  0
  2  3  1  1  0  0  0
  2  6  1  0  0  0  0
  2  1  1  0  0  0  0
  4  3  2  0  0  0  0
  5  3  1  0  0  0  0
  6  7  2  0  0  0  0
  8  7  1  1  0  0  0
  8  9  1  0  0  0  0
  8 10  1  0  0  0  0
 11 10  1  6  0  0  0
 11 13  1  0  0  0  0
 12 11  1  0  0  0  0
 12 17  1  0  0  0  0
 13 14  1  1  0  0  0
 13 15  1  0  0  0  0
 15 16  1  1  0  0  0
 17 18  1  6  0  0  0
 17 15  1  0  0  0  0
 18 19  1  0  0  0  0
 20 19  2  0  0  0  0
 21 27  2  0  0  0  0
 21 20  1  0  0  0  0
 22 21  1  0  0  0  0
 23 22  1  0  0  0  0
 24 22  2  0  0  0  0
 24 25  1  0  0  0  0
 25 26  2  0  0  0  0
 26 27  1  0  0  0  0
 27 18  1  0  0  0  0
M  END
>  <CHROM.1>
126.75894710,113.54361005,-42.05997735,-176.37313414,-60.82238898,-63.69079236
3.22094734,-17.38824430,-9.42796770,-1.18727141,0.52798160,-0.87273090

>  <Name>
lig.pdb

>  <RI>
0

>  <Rbt.Current_Directory>
/home/itssahil/PROJECTS/Mol_Feturizer/New_Systems/rnas/4b5r

>  <Rbt.Executable>
rbdock ($Id: //depot/dev/client3/rdock/2013.1/src/exe/rbdock.cxx#4 $)

>  <Rbt.Library>
libRbt.so (2013.1, Build901 2013/11/27)

>  <Rbt.Parameter_File>
/export/apps/rDock/src/rDock_2013.1_src/data/scripts/dock_solv.prm

>  <Rbt.Receptor>
prm/pocket_docking_8.prm

>  <SCORE>
-14.3094

>  <SCORE.INTER>
-13.813

>  <SCORE.INTER.CONST>
1

>  <SCORE.INTER.POLAR>
0

>  <SCORE.INTER.ROT>
6

>  <SCORE.INTER.SOLV>
12.1329

>  <SCORE.INTER.VDW>
-20.853

>  <SCORE.INTER.norm>
-0.511594

>  <SCORE.INTRA>
-0.496352

>  <SCORE.INTRA.DIHEDRAL>
-3.05849

>  <SCORE.INTRA.DIHEDRAL.0>
10.2917

>  <SCORE.INTRA.POLAR>
0

>  <SCORE.INTRA.POLAR.0>
0

>  <SCORE.INTRA.REPUL>
0

>  <SCORE.INTRA.REPUL.0>
0

>  <SCORE.INTRA.SOLV>
-2.64256

>  <SCORE.INTRA.SOLV.lig_0>
-39.6315

>  <SCORE.INTRA.VDW>
2.35417

>  <SCORE.INTRA.VDW.0>
-4.02152

>  <SCORE.INTRA.norm>
-0.0183834

>  <SCORE.RESTR>
0

>  <SCORE.RESTR.CAVITY>
0

>  <SCORE.RESTR.norm>
0

>  <SCORE.SYSTEM>
0

>  <SCORE.SYSTEM.CONST>
0

>  <SCORE.SYSTEM.DIHEDRAL>
0

>  <SCORE.SYSTEM.SOLV>
0

>  <SCORE.SYSTEM.norm>
0

>  <SCORE.heavy>
27

>  <SCORE.norm>
-0.529978

>  <RMSD>
6.549

$$$$
lig.pdb
 OpenBabel11021811493D
libRbt.so/2013.1/901 2013/11/27
 27 29  0  0  0  0  0  0  0  0999 V2000
    4.9600  -19.3718   -7.0834 N   0  0  0  0  0  0  0  0  0  0  0  0
    3.6375  -19.3212   -7.7782 C   0  0  2  0  0  0  0  0  0  0  0  0
    3.7567  -20.0180   -9.1304 C   0  0  0  0  0  0  0  0  0  0  0  0
    4.4928  -20.9909   -9.2462 O   0  0  0  0  0  0  0  0  0  0  0  0
    3.1409  -19.6409  -10.1356 O   0  0  0  0  0  0  0  0  0  0  0  0
    3.0655  -17.8960   -7.9181 C   0  0  0  0  0  0  0  0  0  0  0  0
    1.5203  -17.7594   -7.9025 C   0  0  0  0  0  0  0  0  0  0  0  0
    0.7701  -16.0825   -8.0723 S   0  0  2  0  0  0  0  0  0  0  0  0
   -0.8022  -16.4724   -8.8695 C   0  0  0  0  0  0  0  0  0  0  0  0
    1.6523  -15.3627   -9.4743 C   0  0  0  0  0  0  0  0  0  0  0  0
    3.1201  -15.1737   -9.1148 C   0  0  1  0  0  0  0  0  0  0  0  0
    3.9654  -15.1667  -10.2553 O   0  0  0  0  0  0  0  0  0  0  0  0
    3.4011  -13.8530   -8.4498 C   0  0  1  0  0  0  0  0  0  0  0  0
    3.0301  -13.9035   -7.1023 O   0  0  0  0  0  0  0  0  0  0  0  0
    4.8971  -13.7530   -8.6503 C   0  0  1  0  0  0  0  0  0  0  0  0
    5.5725  -14.4971   -7.6568 O   0  0  0  0  0  0  0  0  0  0  0  0
    5.1352  -14.4075  -10.0065 C   0  0  2  0  0  0  0  0  0  0  0  0
    5.4256  -13.4635  -11.1204 N   0  0  0  0  0  0  0  0  0  0  0  0
    4.6285  -12.4119  -11.4970 C   0  0  0  0  0  0  0  0  0  0  0  0
    5.2017  -11.7722  -12.5409 N   0  0  0  0  0  0  0  0  0  0  0  0
    6.3584  -12.3863  -12.8392 C   0  0  0  0  0  0  0  0  0  0  0  0
    7.3252  -12.1336  -13.8004 C   0  0  0  0  0  0  0  0  0  0  0  0
    7.1862  -11.1151  -14.6389 N   0  0  0  0  0  0  0  0  0  0  0  0
    8.4360  -12.9509  -13.8695 N   0  0  0  0  0  0  0  0  0  0  0  0
    8.5992  -14.0150  -12.9917 C   0  0  0  0  0  0  0  0  0  0  0  0
    7.6293  -14.2475  -12.0378 N   0  0  0  0  0  0  0  0  0  0  0  0
    6.5208  -13.4547  -11.9607 C   0  0  0  0  0  0  0  0  0  0  0  0
  2  3  1  6  0  0  0
  2  6  1  0  0  0  0
  2  1  1  0  0  0  0
  4  3  2  0  0  0  0
  5  3  1  0  0  0  0
  6  7  2  0  0  0  0
  8  7  1  6  0  0  0
  8  9  1  0  0  0  0
  8 10  1  0  0  0  0
 11 10  1  6  0  0  0
 11 13  1  0  0  0  0
 12 11  1  0  0  0  0
 12 17  1  0  0  0  0
 13 14  1  1  0  0  0
 13 15  1  0  0  0  0
 15 16  1  1  0  0  0
 17 18  1  6  0  0  0
 17 15  1  0  0  0  0
 18 19  1  0  0  0  0
 20 19  2  0  0  0  0
 21 27  2  0  0  0  0
 21 20  1  0  0  0  0
 22 21  1  0  0  0  0
 23 22  1  0  0  0  0
 24 22  2  0  0  0  0
 24 25  1  0  0  0  0
 25 26  2  0  0  0  0
 26 27  1  0  0  0  0
 27 18  1  0  0  0  0
M  END
>  <CHROM.1>
34.68815896,-148.70391909,150.70308435,-65.45881357,154.86990893,64.13578816
4.31792708,-15.33966252,-10.00276153,-2.27272960,0.58433052,-0.27078733

>  <Name>
lig.pdb

>  <RI>
0

>  <Rbt.Current_Directory>
/home/itssahil/PROJECTS/Mol_Feturizer/New_Systems/rnas/4b5r

>  <Rbt.Executable>
rbdock ($Id: //depot/dev/client3/rdock/2013.1/src/exe/rbdock.cxx#4 $)

>  <Rbt.Library>
libRbt.so (2013.1, Build901 2013/11/27)

>  <Rbt.Parameter_File>
/export/apps/rDock/src/rDock_2013.1_src/data/scripts/dock_solv.prm

>  <Rbt.Receptor>
prm/pocket_docking_6.prm

>  <SCORE>
-14.6326

>  <SCORE.INTER>
-14.322

>  <SCORE.INTER.CONST>
1

>  <SCORE.INTER.POLAR>
0

>  <SCORE.INTER.ROT>
6

>  <SCORE.INTER.SOLV>
9.32948

>  <SCORE.INTER.VDW>
-20.2578

>  <SCORE.INTER.norm>
-0.530444

>  <SCORE.INTRA>
-0.335449

>  <SCORE.INTRA.DIHEDRAL>
-0.3083

>  <SCORE.INTRA.DIHEDRAL.0>
10.2917

>  <SCORE.INTRA.POLAR>
0

>  <SCORE.INTRA.POLAR.0>
0

>  <SCORE.INTRA.REPUL>
0

>  <SCORE.INTRA.REPUL.0>
0

>  <SCORE.INTRA.SOLV>
-3.33102

>  <SCORE.INTRA.SOLV.lig_0>
-39.6315

>  <SCORE.INTRA.VDW>
1.48421

>  <SCORE.INTRA.VDW.0>
-4.02152

>  <SCORE.INTRA.norm>
-0.012424

>  <SCORE.RESTR>
0.0247839

>  <SCORE.RESTR.CAVITY>
0.0247839

>  <SCORE.RESTR.norm>
0.000917923

>  <SCORE.SYSTEM>
0

>  <SCORE.SYSTEM.CONST>
0

>  <SCORE.SYSTEM.DIHEDRAL>
0

>  <SCORE.SYSTEM.SOLV>
0

>  <SCORE.SYSTEM.norm>
0

>  <SCORE.heavy>
27

>  <SCORE.norm>
-0.54195

>  <RMSD>
6.555

$$$$
lig.pdb
 OpenBabel11021811493D
libRbt.so/2013.1/901 2013/11/27
 27 29  0  0  0  0  0  0  0  0999 V2000
    5.6375  -16.5994   -6.2114 N   0  0  0  0  0  0  0  0  0  0  0  0
    5.1858  -15.1787   -6.3193 C   0  0  2  0  0  0  0  0  0  0  0  0
    5.3819  -14.4886   -4.9727 C   0  0  0  0  0  0  0  0  0  0  0  0
    5.9504  -13.4040   -4.9264 O   0  0  0  0  0  0  0  0  0  0  0  0
    4.9937  -14.9796   -3.9049 O   0  0  0  0  0  0  0  0  0  0  0  0
    3.7407  -15.0256   -6.8350 C   0  0  0  0  0  0  0  0  0  0  0  0
    3.5399  -14.1504   -8.1000 C   0  0  0  0  0  0  0  0  0  0  0  0
    1.8348  -13.9206   -8.7658 S   0  0  2  0  0  0  0  0  0  0  0  0
    1.1122  -12.8218   -7.5289 C   0  0  0  0  0  0  0  0  0  0  0  0
    0.9981  -15.4609   -8.3310 C   0  0  0  0  0  0  0  0  0  0  0  0
    1.4073  -16.5595   -9.3032 C   0  0  1  0  0  0  0  0  0  0  0  0
    1.2566  -16.1720  -10.6606 O   0  0  0  0  0  0  0  0  0  0  0  0
    2.8610  -16.9341   -9.1947 C   0  0  1  0  0  0  0  0  0  0  0  0
    3.0619  -17.7712   -8.0925 O   0  0  0  0  0  0  0  0  0  0  0  0
    3.0673  -17.6362  -10.5187 C   0  0  1  0  0  0  0  0  0  0  0  0
    2.6248  -18.9756  -10.4339 O   0  0  0  0  0  0  0  0  0  0  0  0
    2.1660  -16.8773  -11.4863 C   0  0  2  0  0  0  0  0  0  0  0  0
    2.8752  -15.9669  -12.4268 N   0  0  0  0  0  0  0  0  0  0  0  0
    2.7727  -16.0033  -13.7947 C   0  0  0  0  0  0  0  0  0  0  0  0
    3.5519  -15.0337  -14.3241 N   0  0  0  0  0  0  0  0  0  0  0  0
    4.1485  -14.3666  -13.3225 C   0  0  0  0  0  0  0  0  0  0  0  0
    5.0255  -13.2927  -13.3124 C   0  0  0  0  0  0  0  0  0  0  0  0
    5.4169  -12.7365  -14.4513 N   0  0  0  0  0  0  0  0  0  0  0  0
    5.4806  -12.8062  -12.1029 N   0  0  0  0  0  0  0  0  0  0  0  0
    5.0714  -13.3727  -10.9023 C   0  0  0  0  0  0  0  0  0  0  0  0
    4.1936  -14.4372  -10.9320 N   0  0  0  0  0  0  0  0  0  0  0  0
    3.7403  -14.9361  -12.1190 C   0  0  0  0  0  0  0  0  0  0  0  0
  2  3  1  1  0  0  0
  2  6  1  0  0  0  0
  2  1  1  0  0  0  0
  4  3  2  0  0  0  0
  5  3  1  0  0  0  0
  6  7  2  0  0  0  0
  8  7  1  1  0  0  0
  8  9  1  0  0  0  0
  8 10  1  0  0  0  0
 11 10  1  1  0  0  0
 11 13  1  0  0  0  0
 12 11  1  0  0  0  0
 12 17  1  0  0  0  0
 13 14  1  1  0  0  0
 13 15  1  0  0  0  0
 15 16  1  1  0  0  0
 17 18  1  1  0  0  0
 17 15  1  0  0  0  0
 18 19  1  0  0  0  0
 20 19  2  0  0  0  0
 21 27  2  0  0  0  0
 21 20  1  0  0  0  0
 22 21  1  0  0  0  0
 23 22  1  0  0  0  0
 24 22  2  0  0  0  0
 24 25  1  0  0  0  0
 25 26  2  0  0  0  0
 26 27  1  0  0  0  0
 27 18  1  0  0  0  0
M  END
>  <CHROM.1>
130.78320206,-123.67862596,72.37858893,-78.20347920,-51.28405130,-116.03129408
3.49402006,-15.15048078,-9.62372314,-1.42311683,-0.89286269,-1.45022222

>  <Name>
lig.pdb

>  <RI>
0

>  <Rbt.Current_Directory>
/home/itssahil/PROJECTS/Mol_Feturizer/New_Systems/rnas/4b5r

>  <Rbt.Executable>
rbdock ($Id: //depot/dev/client3/rdock/2013.1/src/exe/rbdock.cxx#4 $)

>  <Rbt.Library>
libRbt.so (2013.1, Build901 2013/11/27)

>  <Rbt.Parameter_File>
/export/apps/rDock/src/rDock_2013.1_src/data/scripts/dock_solv.prm

>  <Rbt.Receptor>
prm/pocket_docking_5.prm

>  <SCORE>
-16.1309

>  <SCORE.INTER>
-14.8929

>  <SCORE.INTER.CONST>
1

>  <SCORE.INTER.POLAR>
0

>  <SCORE.INTER.ROT>
6

>  <SCORE.INTER.SOLV>
10.7971

>  <SCORE.INTER.VDW>
-21.1277

>  <SCORE.INTER.norm>
-0.551591

>  <SCORE.INTRA>
-1.23795

>  <SCORE.INTRA.DIHEDRAL>
-1.32187

>  <SCORE.INTRA.DIHEDRAL.0>
10.2917

>  <SCORE.INTRA.POLAR>
0

>  <SCORE.INTRA.POLAR.0>
0

>  <SCORE.INTRA.REPUL>
0

>  <SCORE.INTRA.REPUL.0>
0

>  <SCORE.INTRA.SOLV>
-0.539117

>  <SCORE.INTRA.SOLV.lig_0>
-39.6315

>  <SCORE.INTRA.VDW>
-0.307463

>  <SCORE.INTRA.VDW.0>
-4.02152

>  <SCORE.INTRA.norm>
-0.0458502

>  <SCORE.RESTR>
0

>  <SCORE.RESTR.CAVITY>
0

>  <SCORE.RESTR.norm>
0

>  <SCORE.SYSTEM>
0

>  <SCORE.SYSTEM.CONST>
0

>  <SCORE.SYSTEM.DIHEDRAL>
0

>  <SCORE.SYSTEM.SOLV>
0

>  <SCORE.SYSTEM.norm>
0

>  <SCORE.heavy>
27

>  <SCORE.norm>
-0.597441

>  <RMSD>
6.561

$$$$
lig.pdb
 OpenBabel11021811493D
libRbt.so/2013.1/901 2013/11/27
 27 29  0  0  0  0  0  0  0  0999 V2000
    6.2556  -16.3767   -6.2602 N   0  0  0  0  0  0  0  0  0  0  0  0
    4.9149  -17.0309   -6.3527 C   0  0  2  0  0  0  0  0  0  0  0  0
    5.0990  -18.5454   -6.3782 C   0  0  0  0  0  0  0  0  0  0  0  0
    4.7548  -19.1795   -7.3687 O   0  0  0  0  0  0  0  0  0  0  0  0
    5.5819  -19.1782   -5.4304 O   0  0  0  0  0  0  0  0  0  0  0  0
    4.0659  -16.5382   -7.5419 C   0  0  0  0  0  0  0  0  0  0  0  0
    2.7233  -15.8406   -7.1995 C   0  0  0  0  0  0  0  0  0  0  0  0
    1.6559  -15.2330   -8.5760 S   0  0  2  0  0  0  0  0  0  0  0  0
    0.5177  -14.1445   -7.6933 C   0  0  0  0  0  0  0  0  0  0  0  0
    0.5532  -16.6250   -8.9044 C   0  0  0  0  0  0  0  0  0  0  0  0
    1.0682  -17.4172  -10.0988 C   0  0  1  0  0  0  0  0  0  0  0  0
    1.0776  -16.6554  -11.2967 O   0  0  0  0  0  0  0  0  0  0  0  0
    2.4980  -17.8607   -9.9425 C   0  0  1  0  0  0  0  0  0  0  0  0
    2.5662  -18.9827   -9.1105 O   0  0  0  0  0  0  0  0  0  0  0  0
    2.8539  -18.1656  -11.3808 C   0  0  1  0  0  0  0  0  0  0  0  0
    2.3993  -19.4568  -11.7318 O   0  0  0  0  0  0  0  0  0  0  0  0
    2.0741  -17.1308  -12.1842 C   0  0  2  0  0  0  0  0  0  0  0  0
    2.8912  -16.0179  -12.7411 N   0  0  0  0  0  0  0  0  0  0  0  0
    3.1701  -15.8272  -14.0710 C   0  0  0  0  0  0  0  0  0  0  0  0
    3.9347  -14.7211  -14.2100 N   0  0  0  0  0  0  0  0  0  0  0  0
    4.1471  -14.1896  -12.9949 C   0  0  0  0  0  0  0  0  0  0  0  0
    4.8451  -13.0657  -12.5800 C   0  0  0  0  0  0  0  0  0  0  0  0
    5.4580  -12.2924  -13.4666 N   0  0  0  0  0  0  0  0  0  0  0  0
    4.8888  -12.7587  -11.2344 N   0  0  0  0  0  0  0  0  0  0  0  0
    4.2436  -13.5541  -10.2960 C   0  0  0  0  0  0  0  0  0  0  0  0
    3.5489  -14.6655  -10.7284 N   0  0  0  0  0  0  0  0  0  0  0  0
    3.5024  -14.9884  -12.0538 C   0  0  0  0  0  0  0  0  0  0  0  0
  2  3  1  6  0  0  0
  2  6  1  0  0  0  0
  2  1  1  0  0  0  0
  4  3  2  0  0  0  0
  5  3  1  0  0  0  0
  6  7  2  0  0  0  0
  8  7  1  1  0  0  0
  8  9  1  0  0  0  0
  8 10  1  0  0  0  0
 11 10  1  1  0  0  0
 11 13  1  0  0  0  0
 12 11  1  0  0  0  0
 12 17  1  0  0  0  0
 13 14  1  1  0  0  0
 13 15  1  0  0  0  0
 15 16  1  6  0  0  0
 17 18  1  1  0  0  0
 17 15  1  0  0  0  0
 18 19  1  0  0  0  0
 20 19  2  0  0  0  0
 21 27  2  0  0  0  0
 21 20  1  0  0  0  0
 22 21  1  0  0  0  0
 23 22  1  0  0  0  0
 24 22  2  0  0  0  0
 24 25  1  0  0  0  0
 25 26  2  0  0  0  0
 26 27  1  0  0  0  0
 27 18  1  0  0  0  0
M  END
>  <CHROM.1>
-116.51384791,-118.08717170,-165.05848336,-98.73399298,-63.04197547,-130.25298241
3.27726767,-16.19057117,-9.94958567,-1.48438602,-0.90380621,-0.96687328

>  <Name>
lig.pdb

>  <RI>
0

>  <Rbt.Current_Directory>
/home/itssahil/PROJECTS/Mol_Feturizer/New_Systems/rnas/4b5r

>  <Rbt.Executable>
rbdock ($Id: //depot/dev/client3/rdock/2013.1/src/exe/rbdock.cxx#4 $)

>  <Rbt.Library>
libRbt.so (2013.1, Build901 2013/11/27)

>  <Rbt.Parameter_File>
/export/apps/rDock/src/rDock_2013.1_src/data/scripts/dock_solv.prm

>  <Rbt.Receptor>
prm/pocket_docking_5.prm

>  <SCORE>
-15.3757

>  <SCORE.INTER>
-14.7522

>  <SCORE.INTER.CONST>
1

>  <SCORE.INTER.POLAR>
0

>  <SCORE.INTER.ROT>
6

>  <SCORE.INTER.SOLV>
12.7648

>  <SCORE.INTER.VDW>
-21.6897

>  <SCORE.INTER.norm>
-0.546376

>  <SCORE.INTRA>
-0.62357

>  <SCORE.INTRA.DIHEDRAL>
-0.0181017

>  <SCORE.INTRA.DIHEDRAL.0>
10.2917

>  <SCORE.INTRA.POLAR>
0

>  <SCORE.INTRA.POLAR.0>
0

>  <SCORE.INTRA.REPUL>
0

>  <SCORE.INTRA.REPUL.0>
0

>  <SCORE.INTRA.SOLV>
-0.823952

>  <SCORE.INTRA.SOLV.lig_0>
-39.6315

>  <SCORE.INTRA.VDW>
-0.202543

>  <SCORE.INTRA.VDW.0>
-4.02152

>  <SCORE.INTRA.norm>
-0.0230952

>  <SCORE.RESTR>
0

>  <SCORE.RESTR.CAVITY>
0

>  <SCORE.RESTR.norm>
0

>  <SCORE.SYSTEM>
0

>  <SCORE.SYSTEM.CONST>
0

>  <SCORE.SYSTEM.DIHEDRAL>
0

>  <SCORE.SYSTEM.SOLV>
0

>  <SCORE.SYSTEM.norm>
0

>  <SCORE.heavy>
27

>  <SCORE.norm>
-0.569472

>  <RMSD>
6.570

$$$$
lig.pdb
 OpenBabel11021811493D
libRbt.so/2013.1/901 2013/11/27
 27 29  0  0  0  0  0  0  0  0999 V2000
    6.1214  -14.5276   -5.5035 N   0  0  0  0  0  0  0  0  0  0  0  0
    4.8110  -15.2012   -5.7546 C   0  0  2  0  0  0  0  0  0  0  0  0
    5.0652  -16.5773   -6.3628 C   0  0  0  0  0  0  0  0  0  0  0  0
    5.9803  -16.7240   -7.1646 O   0  0  0  0  0  0  0  0  0  0  0  0
    4.3789  -17.5696   -6.0868 O   0  0  0  0  0  0  0  0  0  0  0  0
    3.8403  -14.3668   -6.6144 C   0  0  0  0  0  0  0  0  0  0  0  0
    3.0586  -15.1248   -7.7195 C   0  0  0  0  0  0  0  0  0  0  0  0
    1.8854  -14.1845   -8.7885 S   0  0  2  0  0  0  0  0  0  0  0  0
    1.1274  -13.0659   -7.5912 C   0  0  0  0  0  0  0  0  0  0  0  0
    0.5181  -15.3383   -9.0356 C   0  0  0  0  0  0  0  0  0  0  0  0
    0.8685  -16.3189  -10.1469 C   0  0  1  0  0  0  0  0  0  0  0  0
    1.0119  -15.6856  -11.4093 O   0  0  0  0  0  0  0  0  0  0  0  0
    2.1914  -17.0049   -9.9354 C   0  0  1  0  0  0  0  0  0  0  0  0
    2.0545  -18.0387   -9.0035 O   0  0  0  0  0  0  0  0  0  0  0  0
    2.4746  -17.5017  -11.3359 C   0  0  1  0  0  0  0  0  0  0  0  0
    1.7848  -18.7121  -11.5721 O   0  0  0  0  0  0  0  0  0  0  0  0
    1.8963  -16.4179  -12.2389 C   0  0  2  0  0  0  0  0  0  0  0  0
    2.9030  -15.5328  -12.8865 N   0  0  0  0  0  0  0  0  0  0  0  0
    3.2431  -15.5580  -14.2156 C   0  0  0  0  0  0  0  0  0  0  0  0
    4.1866  -14.6187  -14.4502 N   0  0  0  0  0  0  0  0  0  0  0  0
    4.4553  -13.9818  -13.2986 C   0  0  0  0  0  0  0  0  0  0  0  0
    5.3224  -12.9451  -12.9890 C   0  0  0  0  0  0  0  0  0  0  0  0
    6.0788  -12.3998  -13.9325 N   0  0  0  0  0  0  0  0  0  0  0  0
    5.3838  -12.4840  -11.6889 N   0  0  0  0  0  0  0  0  0  0  0  0
    4.5905  -13.0391  -10.6928 C   0  0  0  0  0  0  0  0  0  0  0  0
    3.7292  -14.0663  -11.0211 N   0  0  0  0  0  0  0  0  0  0  0  0
    3.6619  -14.5401  -12.2994 C   0  0  0  0  0  0  0  0  0  0  0  0
  2  3  1  6  0  0  0
  2  6  1  0  0  0  0
  2  1  1  0  0  0  0
  4  3  2  0  0  0  0
  5  3  1  0  0  0  0
  6  7  2  0  0  0  0
  8  7  1  1  0  0  0
  8  9  1  0  0  0  0
  8 10  1  0  0  0  0
 11 10  1  1  0  0  0
 11 13  1  0  0  0  0
 12 11  1  0  0  0  0
 12 17  1  0  0  0  0
 13 14  1  1  0  0  0
 13 15  1  0  0  0  0
 15 16  1  6  0  0  0
 17 18  1  1  0  0  0
 17 15  1  0  0  0  0
 18 19  1  0  0  0  0
 20 19  2  0  0  0  0
 21 27  2  0  0  0  0
 21 20  1  0  0  0  0
 22 21  1  0  0  0  0
 23 22  1  0  0  0  0
 24 22  2  0  0  0  0
 24 25  1  0  0  0  0
 25 26  2  0  0  0  0
 26 27  1  0  0  0  0
 27 18  1  0  0  0  0
M  END
>  <CHROM.1>
-37.48899546,137.28460200,-39.71207944,-81.78129283,-64.82686922,-133.07765675
3.32831631,-15.24722826,-10.02549258,-1.53762106,-0.75219800,-1.35119685

>  <Name>
lig.pdb

>  <RI>
0

>  <Rbt.Current_Directory>
/home/itssahil/PROJECTS/Mol_Feturizer/New_Systems/rnas/4b5r

>  <Rbt.Executable>
rbdock ($Id: //depot/dev/client3/rdock/2013.1/src/exe/rbdock.cxx#4 $)

>  <Rbt.Library>
libRbt.so (2013.1, Build901 2013/11/27)

>  <Rbt.Parameter_File>
/export/apps/rDock/src/rDock_2013.1_src/data/scripts/dock_solv.prm

>  <Rbt.Receptor>
prm/pocket_docking_5.prm

>  <SCORE>
-16.7666

>  <SCORE.INTER>
-15.8916

>  <SCORE.INTER.CONST>
1

>  <SCORE.INTER.POLAR>
0

>  <SCORE.INTER.ROT>
6

>  <SCORE.INTER.SOLV>
13.0748

>  <SCORE.INTER.VDW>
-22.5527

>  <SCORE.INTER.norm>
-0.588579

>  <SCORE.INTRA>
-0.874932

>  <SCORE.INTRA.DIHEDRAL>
-2.36527

>  <SCORE.INTRA.DIHEDRAL.0>
10.2917

>  <SCORE.INTRA.POLAR>
0

>  <SCORE.INTRA.POLAR.0>
0

>  <SCORE.INTRA.REPUL>
0

>  <SCORE.INTRA.REPUL.0>
0

>  <SCORE.INTRA.SOLV>
-1.5768

>  <SCORE.INTRA.SOLV.lig_0>
-39.6315

>  <SCORE.INTRA.VDW>
1.0961

>  <SCORE.INTRA.VDW.0>
-4.02152

>  <SCORE.INTRA.norm>
-0.0324049

>  <SCORE.RESTR>
0

>  <SCORE.RESTR.CAVITY>
0

>  <SCORE.RESTR.norm>
0

>  <SCORE.SYSTEM>
0

>  <SCORE.SYSTEM.CONST>
0

>  <SCORE.SYSTEM.DIHEDRAL>
0

>  <SCORE.SYSTEM.SOLV>
0

>  <SCORE.SYSTEM.norm>
0

>  <SCORE.heavy>
27

>  <SCORE.norm>
-0.620984

>  <RMSD>
6.577

$$$$
lig.pdb
 OpenBabel11021811493D
libRbt.so/2013.1/901 2013/11/27
 27 29  0  0  0  0  0  0  0  0999 V2000
    5.4913  -15.0653   -4.3215 N   0  0  0  0  0  0  0  0  0  0  0  0
    5.0545  -15.5138   -5.6788 C   0  0  2  0  0  0  0  0  0  0  0  0
    6.2819  -15.9176   -6.4903 C   0  0  0  0  0  0  0  0  0  0  0  0
    7.1066  -15.0667   -6.8028 O   0  0  0  0  0  0  0  0  0  0  0  0
    6.4882  -17.0805   -6.8602 O   0  0  0  0  0  0  0  0  0  0  0  0
    4.1911  -14.4772   -6.4257 C   0  0  0  0  0  0  0  0  0  0  0  0
    3.0115  -15.0288   -7.2688 C   0  0  0  0  0  0  0  0  0  0  0  0
    1.9427  -13.8426   -8.1930 S   0  0  2  0  0  0  0  0  0  0  0  0
    1.1190  -12.9744   -6.8413 C   0  0  0  0  0  0  0  0  0  0  0  0
    0.5748  -14.8682   -8.7749 C   0  0  0  0  0  0  0  0  0  0  0  0
    1.0268  -15.6970   -9.9700 C   0  0  1  0  0  0  0  0  0  0  0  0
    1.5934  -14.9038  -11.0021 O   0  0  0  0  0  0  0  0  0  0  0  0
    2.1160  -16.6789   -9.6310 C   0  0  1  0  0  0  0  0  0  0  0  0
    1.5725  -17.8021   -8.9993 O   0  0  0  0  0  0  0  0  0  0  0  0
    2.6598  -16.9787  -11.0104 C   0  0  1  0  0  0  0  0  0  0  0  0
    1.8591  -17.9525  -11.6486 O   0  0  0  0  0  0  0  0  0  0  0  0
    2.5236  -15.6576  -11.7590 C   0  0  2  0  0  0  0  0  0  0  0  0
    3.7971  -14.9143  -11.9638 N   0  0  0  0  0  0  0  0  0  0  0  0
    3.9044  -13.6605  -12.5111 C   0  0  0  0  0  0  0  0  0  0  0  0
    5.2069  -13.2998  -12.5421 N   0  0  0  0  0  0  0  0  0  0  0  0
    5.9412  -14.2941  -12.0167 C   0  0  0  0  0  0  0  0  0  0  0  0
    7.3045  -14.4322  -11.8048 C   0  0  0  0  0  0  0  0  0  0  0  0
    8.1377  -13.4580  -12.1458 N   0  0  0  0  0  0  0  0  0  0  0  0
    7.7825  -15.5929  -11.2292 N   0  0  0  0  0  0  0  0  0  0  0  0
    6.9205  -16.6172  -10.8583 C   0  0  0  0  0  0  0  0  0  0  0  0
    5.5662  -16.4593  -11.0717 N   0  0  0  0  0  0  0  0  0  0  0  0
    5.0774  -15.3221  -11.6471 C   0  0  0  0  0  0  0  0  0  0  0  0
  2  3  1  6  0  0  0
  2  6  1  0  0  0  0
  2  1  1  0  0  0  0
  4  3  2  0  0  0  0
  5  3  1  0  0  0  0
  6  7  2  0  0  0  0
  8  7  1  1  0  0  0
  8  9  1  0  0  0  0
  8 10  1  0  0  0  0
 11 10  1  1  0  0  0
 11 13  1  0  0  0  0
 12 11  1  0  0  0  0
 12 17  1  0  0  0  0
 13 14  1  6  0  0  0
 13 15  1  0  0  0  0
 15 16  1  6  0  0  0
 17 18  1  1  0  0  0
 17 15  1  0  0  0  0
 18 19  1  0  0  0  0
 20 19  2  0  0  0  0
 21 27  2  0  0  0  0
 21 20  1  0  0  0  0
 22 21  1  0  0  0  0
 23 22  1  0  0  0  0
 24 22  2  0  0  0  0
 24 25  1  0  0  0  0
 25 26  2  0  0  0  0
 26 27  1  0  0  0  0
 27 18  1  0  0  0  0
M  END
>  <CHROM.1>
-65.95747891,-141.68384977,-67.58033174,-76.86430784,-53.64808214,-54.96339586
4.08197715,-15.27471825,-9.50859796,-2.11446424,-0.05003579,-1.57428211

>  <Name>
lig.pdb

>  <RI>
0

>  <Rbt.Current_Directory>
/home/itssahil/PROJECTS/Mol_Feturizer/New_Systems/rnas/4b5r

>  <Rbt.Executable>
rbdock ($Id: //depot/dev/client3/rdock/2013.1/src/exe/rbdock.cxx#4 $)

>  <Rbt.Library>
libRbt.so (2013.1, Build901 2013/11/27)

>  <Rbt.Parameter_File>
/export/apps/rDock/src/rDock_2013.1_src/data/scripts/dock_solv.prm

>  <Rbt.Receptor>
prm/pocket_docking_3.prm

>  <SCORE>
-12.8045

>  <SCORE.INTER>
-11.6577

>  <SCORE.INTER.CONST>
1

>  <SCORE.INTER.POLAR>
0

>  <SCORE.INTER.ROT>
6

>  <SCORE.INTER.SOLV>
13.3288

>  <SCORE.INTER.VDW>
-19.8147

>  <SCORE.INTER.norm>
-0.431766

>  <SCORE.INTRA>
-1.1534

>  <SCORE.INTRA.DIHEDRAL>
-1.9663

>  <SCORE.INTRA.DIHEDRAL.0>
10.2917

>  <SCORE.INTRA.POLAR>
0

>  <SCORE.INTRA.POLAR.0>
0

>  <SCORE.INTRA.REPUL>
0

>  <SCORE.INTRA.REPUL.0>
0

>  <SCORE.INTRA.SOLV>
-2.63856

>  <SCORE.INTRA.SOLV.lig_0>
-39.6315

>  <SCORE.INTRA.VDW>
1.14903

>  <SCORE.INTRA.VDW.0>
-4.02152

>  <SCORE.INTRA.norm>
-0.0427185

>  <SCORE.RESTR>
0.00658174

>  <SCORE.RESTR.CAVITY>
0.00658174

>  <SCORE.RESTR.norm>
0.000243768

>  <SCORE.SYSTEM>
0

>  <SCORE.SYSTEM.CONST>
0

>  <SCORE.SYSTEM.DIHEDRAL>
0

>  <SCORE.SYSTEM.SOLV>
0

>  <SCORE.SYSTEM.norm>
0

>  <SCORE.heavy>
27

>  <SCORE.norm>
-0.47424

>  <RMSD>
6.580

$$$$
lig.pdb
 OpenBabel11021811493D
libRbt.so/2013.1/901 2013/11/27
 27 29  0  0  0  0  0  0  0  0999 V2000
    6.0510  -14.4801   -5.4807 N   0  0  0  0  0  0  0  0  0  0  0  0
    4.7408  -15.1277   -5.7937 C   0  0  2  0  0  0  0  0  0  0  0  0
    4.9966  -16.4955   -6.4198 C   0  0  0  0  0  0  0  0  0  0  0  0
    6.0467  -16.6997   -7.0176 O   0  0  0  0  0  0  0  0  0  0  0  0
    4.1809  -17.4242   -6.3582 O   0  0  0  0  0  0  0  0  0  0  0  0
    3.8156  -14.2612   -6.6717 C   0  0  0  0  0  0  0  0  0  0  0  0
    2.9923  -15.0001   -7.7593 C   0  0  0  0  0  0  0  0  0  0  0  0
    1.8702  -14.0215   -8.8488 S   0  0  2  0  0  0  0  0  0  0  0  0
    1.1352  -12.8722   -7.6663 C   0  0  0  0  0  0  0  0  0  0  0  0
    0.4660  -15.1259   -9.1134 C   0  0  0  0  0  0  0  0  0  0  0  0
    0.8094  -16.1431  -10.1937 C   0  0  1  0  0  0  0  0  0  0  0  0
    0.9837  -15.5468  -11.4701 O   0  0  0  0  0  0  0  0  0  0  0  0
    2.1139  -16.8518   -9.9458 C   0  0  1  0  0  0  0  0  0  0  0  0
    1.9417  -17.8573   -8.9891 O   0  0  0  0  0  0  0  0  0  0  0  0
    2.4047  -17.3916  -11.3286 C   0  0  1  0  0  0  0  0  0  0  0  0
    1.6915  -18.5926  -11.5426 O   0  0  0  0  0  0  0  0  0  0  0  0
    1.8626  -16.3199  -12.2678 C   0  0  2  0  0  0  0  0  0  0  0  0
    2.8972  -15.4743  -12.9242 N   0  0  0  0  0  0  0  0  0  0  0  0
    3.2216  -15.5096  -14.2571 C   0  0  0  0  0  0  0  0  0  0  0  0
    4.1997  -14.6086  -14.4998 N   0  0  0  0  0  0  0  0  0  0  0  0
    4.5064  -13.9862  -13.3497 C   0  0  0  0  0  0  0  0  0  0  0  0
    5.4179  -12.9862  -13.0472 C   0  0  0  0  0  0  0  0  0  0  0  0
    6.1855  -12.4693  -13.9977 N   0  0  0  0  0  0  0  0  0  0  0  0
    5.5120  -12.5315  -11.7468 N   0  0  0  0  0  0  0  0  0  0  0  0
    4.7077  -13.0569  -10.7434 C   0  0  0  0  0  0  0  0  0  0  0  0
    3.8022  -14.0476  -11.0646 N   0  0  0  0  0  0  0  0  0  0  0  0
    3.7019  -14.5147  -12.3432 C   0  0  0  0  0  0  0  0  0  0  0  0
  2  3  1  6  0  0  0
  2  6  1  0  0  0  0
  2  1  1  0  0  0  0
  4  3  2  0  0  0  0
  5  3  1  0  0  0  0
  6  7  2  0  0  0  0
  8  7  1  1  0  0  0
  8  9  1  0  0  0  0
  8 10  1  0  0  0  0
 11 10  1  1  0  0  0
 11 13  1  0  0  0  0
 12 11  1  0  0  0  0
 12 17  1  0  0  0  0
 13 14  1  1  0  0  0
 13 15  1  0  0  0  0
 15 16  1  6  0  0  0
 17 18  1  1  0  0  0
 17 15  1  0  0  0  0
 18 19  1  0  0  0  0
 20 19  2  0  0  0  0
 21 27  2  0  0  0  0
 21 20  1  0  0  0  0
 22 21  1  0  0  0  0
 23 22  1  0  0  0  0
 24 22  2  0  0  0  0
 24 25  1  0  0  0  0
 25 26  2  0  0  0  0
 26 27  1  0  0  0  0
 27 18  1  0  0  0  0
M  END
>  <CHROM.1>
-26.08355921,141.22656872,-41.48583101,-80.45623913,-66.22663336,-130.65914814
3.31272323,-15.16218024,-10.06691415,-1.55794125,-0.69839381,-1.38216236

>  <Name>
lig.pdb

>  <RI>
0

>  <Rbt.Current_Directory>
/home/itssahil/PROJECTS/Mol_Feturizer/New_Systems/rnas/4b5r

>  <Rbt.Executable>
rbdock ($Id: //depot/dev/client3/rdock/2013.1/src/exe/rbdock.cxx#4 $)

>  <Rbt.Library>
libRbt.so (2013.1, Build901 2013/11/27)

>  <Rbt.Parameter_File>
/export/apps/rDock/src/rDock_2013.1_src/data/scripts/dock_solv.prm

>  <Rbt.Receptor>
prm/pocket_docking_4.prm

>  <SCORE>
-16.7381

>  <SCORE.INTER>
-15.9664

>  <SCORE.INTER.CONST>
1

>  <SCORE.INTER.POLAR>
0

>  <SCORE.INTER.ROT>
6

>  <SCORE.INTER.SOLV>
13.1262

>  <SCORE.INTER.VDW>
-22.6196

>  <SCORE.INTER.norm>
-0.591347

>  <SCORE.INTRA>
-0.771694

>  <SCORE.INTRA.DIHEDRAL>
-2.16904

>  <SCORE.INTRA.DIHEDRAL.0>
10.2917

>  <SCORE.INTRA.POLAR>
0

>  <SCORE.INTRA.POLAR.0>
0

>  <SCORE.INTRA.REPUL>
0

>  <SCORE.INTRA.REPUL.0>
0

>  <SCORE.INTRA.SOLV>
-1.64635

>  <SCORE.INTRA.SOLV.lig_0>
-39.6315

>  <SCORE.INTRA.VDW>
1.13601

>  <SCORE.INTRA.VDW.0>
-4.02152

>  <SCORE.INTRA.norm>
-0.0285812

>  <SCORE.RESTR>
0

>  <SCORE.RESTR.CAVITY>
0

>  <SCORE.RESTR.norm>
0

>  <SCORE.SYSTEM>
0

>  <SCORE.SYSTEM.CONST>
0

>  <SCORE.SYSTEM.DIHEDRAL>
0

>  <SCORE.SYSTEM.SOLV>
0

>  <SCORE.SYSTEM.norm>
0

>  <SCORE.heavy>
27

>  <SCORE.norm>
-0.619928

>  <RMSD>
6.584

$$$$
lig.pdb
 OpenBabel11021811493D
libRbt.so/2013.1/901 2013/11/27
 27 29  0  0  0  0  0  0  0  0999 V2000
    5.8563  -15.9153  -15.3970 N   0  0  0  0  0  0  0  0  0  0  0  0
    6.4688  -16.7056  -14.2860 C   0  0  2  0  0  0  0  0  0  0  0  0
    7.2719  -17.8600  -14.8781 C   0  0  0  0  0  0  0  0  0  0  0  0
    7.2278  -18.0709  -16.0845 O   0  0  0  0  0  0  0  0  0  0  0  0
    7.9741  -18.6110  -14.1891 O   0  0  0  0  0  0  0  0  0  0  0  0
    5.4484  -17.1968  -13.2394 C   0  0  0  0  0  0  0  0  0  0  0  0
    3.9570  -16.8666  -13.5101 C   0  0  0  0  0  0  0  0  0  0  0  0
    2.6848  -17.4197  -12.2939 S   0  0  2  0  0  0  0  0  0  0  0  0
    1.8466  -15.8650  -11.9201 C   0  0  0  0  0  0  0  0  0  0  0  0
    3.6233  -17.6349  -10.7660 C   0  0  0  0  0  0  0  0  0  0  0  0
    4.4289  -18.9255  -10.8358 C   0  0  1  0  0  0  0  0  0  0  0  0
    5.6265  -18.8639  -10.0760 O   0  0  0  0  0  0  0  0  0  0  0  0
    3.6989  -20.1104  -10.2627 C   0  0  1  0  0  0  0  0  0  0  0  0
    2.7625  -20.5910  -11.1836 O   0  0  0  0  0  0  0  0  0  0  0  0
    4.8510  -21.0639  -10.0351 C   0  0  1  0  0  0  0  0  0  0  0  0
    5.1743  -21.7329  -11.2371 O   0  0  0  0  0  0  0  0  0  0  0  0
    6.0129  -20.1569   -9.6454 C   0  0  2  0  0  0  0  0  0  0  0  0
    6.3677  -20.1721   -8.1997 N   0  0  0  0  0  0  0  0  0  0  0  0
    7.0296  -21.1873   -7.5561 C   0  0  0  0  0  0  0  0  0  0  0  0
    7.1809  -20.8622   -6.2527 N   0  0  0  0  0  0  0  0  0  0  0  0
    6.6366  -19.6520   -6.0451 C   0  0  0  0  0  0  0  0  0  0  0  0
    6.5302  -18.8616   -4.9109 C   0  0  0  0  0  0  0  0  0  0  0  0
    7.0273  -19.2794   -3.7541 N   0  0  0  0  0  0  0  0  0  0  0  0
    5.9066  -17.6330   -5.0022 N   0  0  0  0  0  0  0  0  0  0  0  0
    5.3901  -17.1788   -6.2091 C   0  0  0  0  0  0  0  0  0  0  0  0
    5.5106  -17.9768   -7.3286 N   0  0  0  0  0  0  0  0  0  0  0  0
    6.1166  -19.1976   -7.2546 C   0  0  0  0  0  0  0  0  0  0  0  0
  2  3  1  6  0  0  0
  2  6  1  0  0  0  0
  2  1  1  0  0  0  0
  4  3  2  0  0  0  0
  5  3  1  0  0  0  0
  6  7  2  0  0  0  0
  8  7  1  6  0  0  0
  8  9  1  0  0  0  0
  8 10  1  0  0  0  0
 11 10  1  1  0  0  0
 11 13  1  0  0  0  0
 12 11  1  0  0  0  0
 12 17  1  0  0  0  0
 13 14  1  6  0  0  0
 13 15  1  0  0  0  0
 15 16  1  6  0  0  0
 17 18  1  1  0  0  0
 17 15  1  0  0  0  0
 18 19  1  0  0  0  0
 20 19  2  0  0  0  0
 21 27  2  0  0  0  0
 21 20  1  0  0  0  0
 22 21  1  0  0  0  0
 23 22  1  0  0  0  0
 24 22  2  0  0  0  0
 24 25  1  0  0  0  0
 25 26  2  0  0  0  0
 26 27  1  0  0  0  0
 27 18  1  0  0  0  0
M  END
>  <CHROM.1>
-6.35974871,2.61490542,125.45259586,-76.07571679,150.49957501,-166.03636525
5.35282450,-18.67368867,-10.28200977,-1.71255979,-0.51878490,1.73426133

>  <Name>
lig.pdb

>  <RI>
0

>  <Rbt.Current_Directory>
/home/itssahil/PROJECTS/Mol_Feturizer/New_Systems/rnas/4b5r

>  <Rbt.Executable>
rbdock ($Id: //depot/dev/client3/rdock/2013.1/src/exe/rbdock.cxx#4 $)

>  <Rbt.Library>
libRbt.so (2013.1, Build901 2013/11/27)

>  <Rbt.Parameter_File>
/export/apps/rDock/src/rDock_2013.1_src/data/scripts/dock_solv.prm

>  <Rbt.Receptor>
prm/pocket_docking_7.prm

>  <SCORE>
-11.2659

>  <SCORE.INTER>
-11.4722

>  <SCORE.INTER.CONST>
1

>  <SCORE.INTER.POLAR>
0

>  <SCORE.INTER.ROT>
6

>  <SCORE.INTER.SOLV>
13.7598

>  <SCORE.INTER.VDW>
-19.8347

>  <SCORE.INTER.norm>
-0.424897

>  <SCORE.INTRA>
0.206266

>  <SCORE.INTRA.DIHEDRAL>
-0.64222

>  <SCORE.INTRA.DIHEDRAL.0>
10.2917

>  <SCORE.INTRA.POLAR>
0

>  <SCORE.INTRA.POLAR.0>
0

>  <SCORE.INTRA.REPUL>
0

>  <SCORE.INTRA.REPUL.0>
0

>  <SCORE.INTRA.SOLV>
-1.87888

>  <SCORE.INTRA.SOLV.lig_0>
-39.6315

>  <SCORE.INTRA.VDW>
1.46681

>  <SCORE.INTRA.VDW.0>
-4.02152

>  <SCORE.INTRA.norm>
0.00763948

>  <SCORE.RESTR>
0

>  <SCORE.RESTR.CAVITY>
0

>  <SCORE.RESTR.norm>
0

>  <SCORE.SYSTEM>
0

>  <SCORE.SYSTEM.CONST>
0

>  <SCORE.SYSTEM.DIHEDRAL>
0

>  <SCORE.SYSTEM.SOLV>
0

>  <SCORE.SYSTEM.norm>
0

>  <SCORE.heavy>
27

>  <SCORE.norm>
-0.417257

>  <RMSD>
6.586

$$$$
lig.pdb
 OpenBabel11021811493D
libRbt.so/2013.1/901 2013/11/27
 27 29  0  0  0  0  0  0  0  0999 V2000
    6.1447  -14.8368   -6.9661 N   0  0  0  0  0  0  0  0  0  0  0  0
    5.2745  -13.9162   -6.1729 C   0  0  2  0  0  0  0  0  0  0  0  0
    5.2526  -14.3787   -4.7191 C   0  0  0  0  0  0  0  0  0  0  0  0
    5.9161  -15.3532   -4.3847 O   0  0  0  0  0  0  0  0  0  0  0  0
    4.5827  -13.8129   -3.8455 O   0  0  0  0  0  0  0  0  0  0  0  0
    3.8509  -13.7628   -6.7455 C   0  0  0  0  0  0  0  0  0  0  0  0
    3.4183  -14.7897   -7.8248 C   0  0  0  0  0  0  0  0  0  0  0  0
    1.7296  -14.6589   -8.5562 S   0  0  2  0  0  0  0  0  0  0  0  0
    0.9458  -13.4769   -7.4391 C   0  0  0  0  0  0  0  0  0  0  0  0
    0.9139  -16.1766   -8.0151 C   0  0  0  0  0  0  0  0  0  0  0  0
    1.3839  -17.3452   -8.8712 C   0  0  1  0  0  0  0  0  0  0  0  0
    1.0110  -17.2089  -10.2342 O   0  0  0  0  0  0  0  0  0  0  0  0
    2.8824  -17.4785   -8.9191 C   0  0  1  0  0  0  0  0  0  0  0  0
    3.3496  -18.0873   -7.7499 O   0  0  0  0  0  0  0  0  0  0  0  0
    3.0457  -18.3471  -10.1468 C   0  0  1  0  0  0  0  0  0  0  0  0
    2.8473  -19.7056   -9.8121 O   0  0  0  0  0  0  0  0  0  0  0  0
    1.9220  -17.8963  -11.0734 C   0  0  2  0  0  0  0  0  0  0  0  0
    2.3522  -17.0553  -12.2240 N   0  0  0  0  0  0  0  0  0  0  0  0
    1.5286  -16.2491  -12.9688 C   0  0  0  0  0  0  0  0  0  0  0  0
    2.2573  -15.6352  -13.9277 N   0  0  0  0  0  0  0  0  0  0  0  0
    3.5376  -16.0237  -13.8099 C   0  0  0  0  0  0  0  0  0  0  0  0
    4.6799  -15.6922  -14.5225 C   0  0  0  0  0  0  0  0  0  0  0  0
    4.6141  -14.8358  -15.5334 N   0  0  0  0  0  0  0  0  0  0  0  0
    5.8864  -16.2595  -14.1628 N   0  0  0  0  0  0  0  0  0  0  0  0
    5.9716  -17.1503  -13.1003 C   0  0  0  0  0  0  0  0  0  0  0  0
    4.8251  -17.4637  -12.3991 N   0  0  0  0  0  0  0  0  0  0  0  0
    3.6227  -16.9187  -12.7463 C   0  0  0  0  0  0  0  0  0  0  0  0
  2  3  1  1  0  0  0
  2  6  1  0  0  0  0
  2  1  1  0  0  0  0
  4  3  2  0  0  0  0
  5  3  1  0  0  0  0
  6  7  2  0  0  0  0
  8  7  1  1  0  0  0
  8  9  1  0  0  0  0
  8 10  1  0  0  0  0
 11 10  1  1  0  0  0
 11 13  1  0  0  0  0
 12 11  1  0  0  0  0
 12 17  1  0  0  0  0
 13 14  1  1  0  0  0
 13 15  1  0  0  0  0
 15 16  1  1  0  0  0
 17 18  1  6  0  0  0
 17 15  1  0  0  0  0
 18 19  1  0  0  0  0
 20 19  2  0  0  0  0
 21 27  2  0  0  0  0
 21 20  1  0  0  0  0
 22 21  1  0  0  0  0
 23 22  1  0  0  0  0
 24 22  2  0  0  0  0
 24 25  1  0  0  0  0
 25 26  2  0  0  0  0
 26 27  1  0  0  0  0
 27 18  1  0  0  0  0
M  END
>  <CHROM.1>
1.41720501,13.46949316,-11.97397200,-77.80621706,-64.11135928,-42.04480444
3.37510214,-16.04047994,-9.72368717,-1.51017954,-0.42781031,-1.78433978

>  <Name>
lig.pdb

>  <RI>
0

>  <Rbt.Current_Directory>
/home/itssahil/PROJECTS/Mol_Feturizer/New_Systems/rnas/4b5r

>  <Rbt.Executable>
rbdock ($Id: //depot/dev/client3/rdock/2013.1/src/exe/rbdock.cxx#4 $)

>  <Rbt.Library>
libRbt.so (2013.1, Build901 2013/11/27)

>  <Rbt.Parameter_File>
/export/apps/rDock/src/rDock_2013.1_src/data/scripts/dock_solv.prm

>  <Rbt.Receptor>
prm/pocket_docking_5.prm

>  <SCORE>
-16.0684

>  <SCORE.INTER>
-16.9247

>  <SCORE.INTER.CONST>
1

>  <SCORE.INTER.POLAR>
0

>  <SCORE.INTER.ROT>
6

>  <SCORE.INTER.SOLV>
13.352

>  <SCORE.INTER.VDW>
-23.3338

>  <SCORE.INTER.norm>
-0.626839

>  <SCORE.INTRA>
0.856235

>  <SCORE.INTRA.DIHEDRAL>
-2.49327

>  <SCORE.INTRA.DIHEDRAL.0>
10.2917

>  <SCORE.INTRA.POLAR>
0

>  <SCORE.INTRA.POLAR.0>
0

>  <SCORE.INTRA.REPUL>
0

>  <SCORE.INTRA.REPUL.0>
0

>  <SCORE.INTRA.SOLV>
-1.91042

>  <SCORE.INTRA.SOLV.lig_0>
-39.6315

>  <SCORE.INTRA.VDW>
3.05808

>  <SCORE.INTRA.VDW.0>
-4.02152

>  <SCORE.INTRA.norm>
0.0317124

>  <SCORE.RESTR>
0

>  <SCORE.RESTR.CAVITY>
0

>  <SCORE.RESTR.norm>
0

>  <SCORE.SYSTEM>
0

>  <SCORE.SYSTEM.CONST>
0

>  <SCORE.SYSTEM.DIHEDRAL>
0

>  <SCORE.SYSTEM.SOLV>
0

>  <SCORE.SYSTEM.norm>
0

>  <SCORE.heavy>
27

>  <SCORE.norm>
-0.595127

>  <RMSD>
6.595

$$$$
lig.pdb
 OpenBabel11021811493D
libRbt.so/2013.1/901 2013/11/27
 27 29  0  0  0  0  0  0  0  0999 V2000
    5.0389  -16.2670   -6.2666 N   0  0  0  0  0  0  0  0  0  0  0  0
    5.4245  -14.8270   -6.3748 C   0  0  2  0  0  0  0  0  0  0  0  0
    5.8942  -14.3318   -5.0102 C   0  0  0  0  0  0  0  0  0  0  0  0
    6.1618  -13.1457   -4.8568 O   0  0  0  0  0  0  0  0  0  0  0  0
    6.0262  -15.0811   -4.0340 O   0  0  0  0  0  0  0  0  0  0  0  0
    4.3133  -13.9302   -6.9568 C   0  0  0  0  0  0  0  0  0  0  0  0
    3.0515  -14.6482   -7.5036 C   0  0  0  0  0  0  0  0  0  0  0  0
    1.6867  -13.6344   -8.2199 S   0  0  2  0  0  0  0  0  0  0  0  0
    0.9929  -12.8698   -6.7389 C   0  0  0  0  0  0  0  0  0  0  0  0
    0.3954  -14.8475   -8.5700 C   0  0  0  0  0  0  0  0  0  0  0  0
    0.9054  -15.8614   -9.5856 C   0  0  1  0  0  0  0  0  0  0  0  0
    1.5081  -15.2478  -10.7149 O   0  0  0  0  0  0  0  0  0  0  0  0
    1.9879  -16.7530   -9.0391 C   0  0  1  0  0  0  0  0  0  0  0  0
    1.4283  -17.7599   -8.2461 O   0  0  0  0  0  0  0  0  0  0  0  0
    2.5927  -17.2759  -10.3233 C   0  0  1  0  0  0  0  0  0  0  0  0
    1.8286  -18.3576  -10.8164 O   0  0  0  0  0  0  0  0  0  0  0  0
    2.4765  -16.1051  -11.2928 C   0  0  2  0  0  0  0  0  0  0  0  0
    3.7508  -15.3873  -11.5708 N   0  0  0  0  0  0  0  0  0  0  0  0
    3.8995  -14.3488  -12.4553 C   0  0  0  0  0  0  0  0  0  0  0  0
    5.1888  -13.9426  -12.4501 N   0  0  0  0  0  0  0  0  0  0  0  0
    5.8731  -14.6940  -11.5719 C   0  0  0  0  0  0  0  0  0  0  0  0
    7.2030  -14.6877  -11.1796 C   0  0  0  0  0  0  0  0  0  0  0  0
    8.0523  -13.8145  -11.7046 N   0  0  0  0  0  0  0  0  0  0  0  0
    7.6298  -15.5968  -10.2319 N   0  0  0  0  0  0  0  0  0  0  0  0
    6.7492  -16.5105   -9.6667 C   0  0  0  0  0  0  0  0  0  0  0  0
    5.4281  -16.4978  -10.0654 N   0  0  0  0  0  0  0  0  0  0  0  0
    4.9908  -15.6116  -11.0070 C   0  0  0  0  0  0  0  0  0  0  0  0
  2  3  1  1  0  0  0
  2  6  1  0  0  0  0
  2  1  1  0  0  0  0
  4  3  2  0  0  0  0
  5  3  1  0  0  0  0
  6  7  2  0  0  0  0
  8  7  1  1  0  0  0
  8  9  1  0  0  0  0
  8 10  1  0  0  0  0
 11 10  1  1  0  0  0
 11 13  1  0  0  0  0
 12 11  1  0  0  0  0
 12 17  1  0  0  0  0
 13 14  1  1  0  0  0
 13 15  1  0  0  0  0
 15 16  1  6  0  0  0
 17 18  1  1  0  0  0
 17 15  1  0  0  0  0
 18 19  1  0  0  0  0
 20 19  2  0  0  0  0
 21 27  2  0  0  0  0
 21 20  1  0  0  0  0
 22 21  1  0  0  0  0
 23 22  1  0  0  0  0
 24 22  2  0  0  0  0
 24 25  1  0  0  0  0
 25 26  2  0  0  0  0
 26 27  1  0  0  0  0
 27 18  1  0  0  0  0
M  END
>  <CHROM.1>
-174.53434035,-7.39924046,-71.74192054,-61.69891138,-49.05564525,-63.82166612
3.92922790,-15.19724907,-9.02980784,-1.34206887,-0.15768922,-1.78129306

>  <Name>
lig.pdb

>  <RI>
0

>  <Rbt.Current_Directory>
/home/itssahil/PROJECTS/Mol_Feturizer/New_Systems/rnas/4b5r

>  <Rbt.Executable>
rbdock ($Id: //depot/dev/client3/rdock/2013.1/src/exe/rbdock.cxx#4 $)

>  <Rbt.Library>
libRbt.so (2013.1, Build901 2013/11/27)

>  <Rbt.Parameter_File>
/export/apps/rDock/src/rDock_2013.1_src/data/scripts/dock_solv.prm

>  <Rbt.Receptor>
prm/pocket_docking_2.prm

>  <SCORE>
-8.08123

>  <SCORE.INTER>
-9.43199

>  <SCORE.INTER.CONST>
1

>  <SCORE.INTER.POLAR>
0

>  <SCORE.INTER.ROT>
6

>  <SCORE.INTER.SOLV>
12.4165

>  <SCORE.INTER.VDW>
-18.0268

>  <SCORE.INTER.norm>
-0.349333

>  <SCORE.INTRA>
0.123523

>  <SCORE.INTRA.DIHEDRAL>
-2.3454

>  <SCORE.INTRA.DIHEDRAL.0>
10.2917

>  <SCORE.INTRA.POLAR>
0

>  <SCORE.INTRA.POLAR.0>
0

>  <SCORE.INTRA.REPUL>
0

>  <SCORE.INTRA.REPUL.0>
0

>  <SCORE.INTRA.SOLV>
-0.479049

>  <SCORE.INTRA.SOLV.lig_0>
-39.6315

>  <SCORE.INTRA.VDW>
1.53575

>  <SCORE.INTRA.VDW.0>
-4.02152

>  <SCORE.INTRA.norm>
0.00457492

>  <SCORE.RESTR>
1.22723

>  <SCORE.RESTR.CAVITY>
1.22723

>  <SCORE.RESTR.norm>
0.0454531

>  <SCORE.SYSTEM>
0

>  <SCORE.SYSTEM.CONST>
0

>  <SCORE.SYSTEM.DIHEDRAL>
0

>  <SCORE.SYSTEM.SOLV>
0

>  <SCORE.SYSTEM.norm>
0

>  <SCORE.heavy>
27

>  <SCORE.norm>
-0.299305

>  <RMSD>
6.599

$$$$
lig.pdb
 OpenBabel11021811493D
libRbt.so/2013.1/901 2013/11/27
 27 29  0  0  0  0  0  0  0  0999 V2000
    3.0520  -16.1106  -12.0169 N   0  0  0  0  0  0  0  0  0  0  0  0
    3.4323  -17.5494  -12.1560 C   0  0  2  0  0  0  0  0  0  0  0  0
    2.2239  -18.4198  -11.8236 C   0  0  0  0  0  0  0  0  0  0  0  0
    1.2203  -17.9037  -11.3459 O   0  0  0  0  0  0  0  0  0  0  0  0
    2.2071  -19.6432  -12.0102 O   0  0  0  0  0  0  0  0  0  0  0  0
    4.6687  -17.9465  -11.3245 C   0  0  0  0  0  0  0  0  0  0  0  0
    4.4110  -18.7968  -10.0528 C   0  0  0  0  0  0  0  0  0  0  0  0
    5.8465  -19.3005   -9.0091 S   0  0  2  0  0  0  0  0  0  0  0  0
    5.8132  -21.0959   -9.1964 C   0  0  0  0  0  0  0  0  0  0  0  0
    5.2158  -19.1584   -7.3227 C   0  0  0  0  0  0  0  0  0  0  0  0
    6.2464  -19.7018   -6.3419 C   0  0  1  0  0  0  0  0  0  0  0  0
    6.8535  -18.6802   -5.5653 O   0  0  0  0  0  0  0  0  0  0  0  0
    5.6546  -20.6307   -5.3160 C   0  0  1  0  0  0  0  0  0  0  0  0
    5.4500  -21.8969   -5.8736 O   0  0  0  0  0  0  0  0  0  0  0  0
    6.7421  -20.6138   -4.2647 C   0  0  1  0  0  0  0  0  0  0  0  0
    7.7726  -21.5150   -4.6152 O   0  0  0  0  0  0  0  0  0  0  0  0
    7.2888  -19.1915   -4.3181 C   0  0  2  0  0  0  0  0  0  0  0  0
    6.8753  -18.3138   -3.1890 N   0  0  0  0  0  0  0  0  0  0  0  0
    6.8387  -18.6847   -1.8684 C   0  0  0  0  0  0  0  0  0  0  0  0
    6.4170  -17.6375   -1.1248 N   0  0  0  0  0  0  0  0  0  0  0  0
    6.1892  -16.5949   -1.9403 C   0  0  0  0  0  0  0  0  0  0  0  0
    5.7609  -15.2989   -1.6964 C   0  0  0  0  0  0  0  0  0  0  0  0
    5.4980  -14.9020   -0.4582 N   0  0  0  0  0  0  0  0  0  0  0  0
    5.6177  -14.4261   -2.7567 N   0  0  0  0  0  0  0  0  0  0  0  0
    5.8986  -14.8253   -4.0573 C   0  0  0  0  0  0  0  0  0  0  0  0
    6.3294  -16.1174   -4.2800 N   0  0  0  0  0  0  0  0  0  0  0  0
    6.4684  -16.9958   -3.2445 C   0  0  0  0  0  0  0  0  0  0  0  0
  2  3  1  1  0  0  0
  2  6  1  0  0  0  0
  2  1  1  0  0  0  0
  4  3  2  0  0  0  0
  5  3  1  0  0  0  0
  6  7  2  0  0  0  0
  8  7  1  6  0  0  0
  8  9  1  0  0  0  0
  8 10  1  0  0  0  0
 11 10  1  6  0  0  0
 11 13  1  0  0  0  0
 12 11  1  0  0  0  0
 12 17  1  0  0  0  0
 13 14  1  6  0  0  0
 13 15  1  0  0  0  0
 15 16  1  6  0  0  0
 17 18  1  1  0  0  0
 17 15  1  0  0  0  0
 18 19  1  0  0  0  0
 20 19  2  0  0  0  0
 21 27  2  0  0  0  0
 21 20  1  0  0  0  0
 22 21  1  0  0  0  0
 23 22  1  0  0  0  0
 24 22  2  0  0  0  0
 24 25  1  0  0  0  0
 25 26  2  0  0  0  0
 26 27  1  0  0  0  0
 27 18  1  0  0  0  0
M  END
>  <CHROM.1>
-9.15877632,106.21012699,-115.33323624,173.40783523,109.37934294,162.49071824
5.40913232,-18.34003378,-6.39377222,2.28865160,1.06460159,-2.38856610

>  <Name>
lig.pdb

>  <RI>
0

>  <Rbt.Current_Directory>
/home/itssahil/PROJECTS/Mol_Feturizer/New_Systems/rnas/4b5r

>  <Rbt.Executable>
rbdock ($Id: //depot/dev/client3/rdock/2013.1/src/exe/rbdock.cxx#4 $)

>  <Rbt.Library>
libRbt.so (2013.1, Build901 2013/11/27)

>  <Rbt.Parameter_File>
/export/apps/rDock/src/rDock_2013.1_src/data/scripts/dock_solv.prm

>  <Rbt.Receptor>
prm/pocket_docking_8.prm

>  <SCORE>
-10.3703

>  <SCORE.INTER>
-14.1812

>  <SCORE.INTER.CONST>
1

>  <SCORE.INTER.POLAR>
0

>  <SCORE.INTER.ROT>
6

>  <SCORE.INTER.SOLV>
14.3533

>  <SCORE.INTER.VDW>
-21.8386

>  <SCORE.INTER.norm>
-0.525231

>  <SCORE.INTRA>
3.81099

>  <SCORE.INTRA.DIHEDRAL>
3.38767

>  <SCORE.INTRA.DIHEDRAL.0>
10.2917

>  <SCORE.INTRA.POLAR>
0

>  <SCORE.INTRA.POLAR.0>
0

>  <SCORE.INTRA.REPUL>
0.235347

>  <SCORE.INTRA.REPUL.0>
0

>  <SCORE.INTRA.SOLV>
-2.68361

>  <SCORE.INTRA.SOLV.lig_0>
-39.6315

>  <SCORE.INTRA.VDW>
2.28222

>  <SCORE.INTRA.VDW.0>
-4.02152

>  <SCORE.INTRA.norm>
0.141148

>  <SCORE.RESTR>
0

>  <SCORE.RESTR.CAVITY>
0

>  <SCORE.RESTR.norm>
0

>  <SCORE.SYSTEM>
0

>  <SCORE.SYSTEM.CONST>
0

>  <SCORE.SYSTEM.DIHEDRAL>
0

>  <SCORE.SYSTEM.SOLV>
0

>  <SCORE.SYSTEM.norm>
0

>  <SCORE.heavy>
27

>  <SCORE.norm>
-0.384083

>  <RMSD>
6.602

$$$$
lig.pdb
 OpenBabel11021811493D
libRbt.so/2013.1/901 2013/11/27
 27 29  0  0  0  0  0  0  0  0999 V2000
    6.5175  -19.5945   -5.2297 N   0  0  0  0  0  0  0  0  0  0  0  0
    6.8367  -18.2425   -5.7813 C   0  0  2  0  0  0  0  0  0  0  0  0
    6.9654  -17.2507   -4.6289 C   0  0  0  0  0  0  0  0  0  0  0  0
    7.5746  -16.2012   -4.7999 O   0  0  0  0  0  0  0  0  0  0  0  0
    6.4817  -17.4580   -3.5087 O   0  0  0  0  0  0  0  0  0  0  0  0
    5.8331  -17.7550   -6.8457 C   0  0  0  0  0  0  0  0  0  0  0  0
    5.4022  -16.2666   -6.7689 C   0  0  0  0  0  0  0  0  0  0  0  0
    4.1987  -15.6201   -8.0087 S   0  0  2  0  0  0  0  0  0  0  0  0
    4.5522  -13.8503   -7.9622 C   0  0  0  0  0  0  0  0  0  0  0  0
    2.6249  -15.6398   -7.1229 C   0  0  0  0  0  0  0  0  0  0  0  0
    1.4760  -15.7190   -8.1195 C   0  0  1  0  0  0  0  0  0  0  0  0
    1.6371  -14.8260   -9.2113 O   0  0  0  0  0  0  0  0  0  0  0  0
    1.3518  -17.0690   -8.7733 C   0  0  1  0  0  0  0  0  0  0  0  0
    0.7226  -17.9681   -7.9064 O   0  0  0  0  0  0  0  0  0  0  0  0
    0.5085  -16.7180   -9.9791 C   0  0  1  0  0  0  0  0  0  0  0  0
   -0.8574  -16.6682   -9.6203 O   0  0  0  0  0  0  0  0  0  0  0  0
    0.9714  -15.3165  -10.3614 C   0  0  2  0  0  0  0  0  0  0  0  0
    1.8372  -15.2460  -11.5703 N   0  0  0  0  0  0  0  0  0  0  0  0
    1.6122  -15.9148  -12.7472 C   0  0  0  0  0  0  0  0  0  0  0  0
    2.5974  -15.6156  -13.6231 N   0  0  0  0  0  0  0  0  0  0  0  0
    3.4495  -14.7592  -13.0361 C   0  0  0  0  0  0  0  0  0  0  0  0
    4.6050  -14.1399  -13.4876 C   0  0  0  0  0  0  0  0  0  0  0  0
    5.0461  -14.3606  -14.7190 N   0  0  0  0  0  0  0  0  0  0  0  0
    5.2863  -13.2868  -12.6422 N   0  0  0  0  0  0  0  0  0  0  0  0
    4.8306  -13.0390  -11.3536 C   0  0  0  0  0  0  0  0  0  0  0  0
    3.6754  -13.6599  -10.9237 N   0  0  0  0  0  0  0  0  0  0  0  0
    2.9940  -14.5126  -11.7433 C   0  0  0  0  0  0  0  0  0  0  0  0
  2  3  1  1  0  0  0
  2  6  1  0  0  0  0
  2  1  1  0  0  0  0
  4  3  2  0  0  0  0
  5  3  1  0  0  0  0
  6  7  2  0  0  0  0
  8  7  1  1  0  0  0
  8  9  1  0  0  0  0
  8 10  1  0  0  0  0
 11 10  1  1  0  0  0
 11 13  1  0  0  0  0
 12 11  1  0  0  0  0
 12 17  1  0  0  0  0
 13 14  1  1  0  0  0
 13 15  1  0  0  0  0
 15 16  1  1  0  0  0
 17 18  1  6  0  0  0
 17 15  1  0  0  0  0
 18 19  1  0  0  0  0
 20 19  2  0  0  0  0
 21 27  2  0  0  0  0
 21 20  1  0  0  0  0
 22 21  1  0  0  0  0
 23 22  1  0  0  0  0
 24 22  2  0  0  0  0
 24 25  1  0  0  0  0
 25 26  2  0  0  0  0
 26 27  1  0  0  0  0
 27 18  1  0  0  0  0
M  END
>  <CHROM.1>
159.68723071,138.18129028,-157.32384384,-155.76291556,-45.16135881,163.91493406
3.66317097,-15.81435240,-9.13411326,-1.13869437,-0.22638405,-1.11950534

>  <Name>
lig.pdb

>  <RI>
0

>  <Rbt.Current_Directory>
/home/itssahil/PROJECTS/Mol_Feturizer/New_Systems/rnas/4b5r

>  <Rbt.Executable>
rbdock ($Id: //depot/dev/client3/rdock/2013.1/src/exe/rbdock.cxx#4 $)

>  <Rbt.Library>
libRbt.so (2013.1, Build901 2013/11/27)

>  <Rbt.Parameter_File>
/export/apps/rDock/src/rDock_2013.1_src/data/scripts/dock_solv.prm

>  <Rbt.Receptor>
prm/pocket_docking_6.prm

>  <SCORE>
-11.6677

>  <SCORE.INTER>
-13.9435

>  <SCORE.INTER.CONST>
1

>  <SCORE.INTER.POLAR>
0

>  <SCORE.INTER.ROT>
6

>  <SCORE.INTER.SOLV>
14.3262

>  <SCORE.INTER.VDW>
-21.6711

>  <SCORE.INTER.norm>
-0.516426

>  <SCORE.INTRA>
2.2758

>  <SCORE.INTRA.DIHEDRAL>
1.67313

>  <SCORE.INTRA.DIHEDRAL.0>
10.2917

>  <SCORE.INTRA.POLAR>
0

>  <SCORE.INTRA.POLAR.0>
0

>  <SCORE.INTRA.REPUL>
0.231583

>  <SCORE.INTRA.REPUL.0>
0

>  <SCORE.INTRA.SOLV>
-2.26072

>  <SCORE.INTRA.SOLV.lig_0>
-39.6315

>  <SCORE.INTRA.VDW>
1.41168

>  <SCORE.INTRA.VDW.0>
-4.02152

>  <SCORE.INTRA.norm>
0.0842888

>  <SCORE.RESTR>
0

>  <SCORE.RESTR.CAVITY>
0

>  <SCORE.RESTR.norm>
0

>  <SCORE.SYSTEM>
0

>  <SCORE.SYSTEM.CONST>
0

>  <SCORE.SYSTEM.DIHEDRAL>
0

>  <SCORE.SYSTEM.SOLV>
0

>  <SCORE.SYSTEM.norm>
0

>  <SCORE.heavy>
27

>  <SCORE.norm>
-0.432137

>  <RMSD>
6.603

$$$$
lig.pdb
 OpenBabel11021811493D
libRbt.so/2013.1/901 2013/11/27
 27 29  0  0  0  0  0  0  0  0999 V2000
    6.3847  -14.5052   -8.0475 N   0  0  0  0  0  0  0  0  0  0  0  0
    5.6837  -15.1504   -6.8959 C   0  0  2  0  0  0  0  0  0  0  0  0
    6.5024  -14.9321   -5.6269 C   0  0  0  0  0  0  0  0  0  0  0  0
    6.0595  -14.2143   -4.7379 O   0  0  0  0  0  0  0  0  0  0  0  0
    7.6132  -15.4480   -5.4487 O   0  0  0  0  0  0  0  0  0  0  0  0
    5.3658  -16.6424   -7.1213 C   0  0  0  0  0  0  0  0  0  0  0  0
    3.9157  -17.1011   -6.8157 C   0  0  0  0  0  0  0  0  0  0  0  0
    3.4701  -18.8749   -7.0580 S   0  0  2  0  0  0  0  0  0  0  0  0
    4.9114  -19.7055   -6.3565 C   0  0  0  0  0  0  0  0  0  0  0  0
    3.7821  -19.1549   -8.8147 C   0  0  0  0  0  0  0  0  0  0  0  0
    2.6929  -18.4857   -9.6425 C   0  0  1  0  0  0  0  0  0  0  0  0
    2.6833  -17.0739   -9.4939 O   0  0  0  0  0  0  0  0  0  0  0  0
    2.8651  -18.6911  -11.1235 C   0  0  1  0  0  0  0  0  0  0  0  0
    2.4223  -19.9668  -11.4877 O   0  0  0  0  0  0  0  0  0  0  0  0
    1.9885  -17.5822  -11.6623 C   0  0  1  0  0  0  0  0  0  0  0  0
    0.6362  -17.9921  -11.6733 O   0  0  0  0  0  0  0  0  0  0  0  0
    2.1551  -16.4525  -10.6521 C   0  0  2  0  0  0  0  0  0  0  0  0
    3.0084  -15.3205  -11.1068 N   0  0  0  0  0  0  0  0  0  0  0  0
    3.4254  -14.2760  -10.3205 C   0  0  0  0  0  0  0  0  0  0  0  0
    4.1829  -13.4371  -11.0621 N   0  0  0  0  0  0  0  0  0  0  0  0
    4.2696  -13.9256  -12.3103 C   0  0  0  0  0  0  0  0  0  0  0  0
    4.9231  -13.4691  -13.4448 C   0  0  0  0  0  0  0  0  0  0  0  0
    5.6296  -12.3471  -13.4053 N   0  0  0  0  0  0  0  0  0  0  0  0
    4.8343  -14.1999  -14.6130 N   0  0  0  0  0  0  0  0  0  0  0  0
    4.1060  -15.3816  -14.6662 C   0  0  0  0  0  0  0  0  0  0  0  0
    3.4671  -15.8232  -13.5254 N   0  0  0  0  0  0  0  0  0  0  0  0
    3.5374  -15.1090  -12.3643 C   0  0  0  0  0  0  0  0  0  0  0  0
  2  3  1  1  0  0  0
  2  6  1  0  0  0  0
  2  1  1  0  0  0  0
  4  3  2  0  0  0  0
  5  3  1  0  0  0  0
  6  7  2  0  0  0  0
  8  7  1  6  0  0  0
  8  9  1  0  0  0  0
  8 10  1  0  0  0  0
 11 10  1  1  0  0  0
 11 13  1  0  0  0  0
 12 11  1  0  0  0  0
 12 17  1  0  0  0  0
 13 14  1  6  0  0  0
 13 15  1  0  0  0  0
 15 16  1  1  0  0  0
 17 18  1  6  0  0  0
 17 15  1  0  0  0  0
 18 19  1  0  0  0  0
 20 19  2  0  0  0  0
 21 27  2  0  0  0  0
 21 20  1  0  0  0  0
 22 21  1  0  0  0  0
 23 22  1  0  0  0  0
 24 22  2  0  0  0  0
 24 25  1  0  0  0  0
 25 26  2  0  0  0  0
 26 27  1  0  0  0  0
 27 18  1  0  0  0  0
M  END
>  <CHROM.1>
112.47238253,-131.05555540,42.74792089,-73.65458001,63.56530816,-52.50989352
4.05825730,-16.30287383,-9.78261270,-1.17685837,-0.94300536,-1.00183888

>  <Name>
lig.pdb

>  <RI>
0

>  <Rbt.Current_Directory>
/home/itssahil/PROJECTS/Mol_Feturizer/New_Systems/rnas/4b5r

>  <Rbt.Executable>
rbdock ($Id: //depot/dev/client3/rdock/2013.1/src/exe/rbdock.cxx#4 $)

>  <Rbt.Library>
libRbt.so (2013.1, Build901 2013/11/27)

>  <Rbt.Parameter_File>
/export/apps/rDock/src/rDock_2013.1_src/data/scripts/dock_solv.prm

>  <Rbt.Receptor>
prm/pocket_docking_8.prm

>  <SCORE>
-12.6236

>  <SCORE.INTER>
-11.9475

>  <SCORE.INTER.CONST>
1

>  <SCORE.INTER.POLAR>
0

>  <SCORE.INTER.ROT>
6

>  <SCORE.INTER.SOLV>
14.8525

>  <SCORE.INTER.VDW>
-20.5158

>  <SCORE.INTER.norm>
-0.4425

>  <SCORE.INTRA>
-0.678916

>  <SCORE.INTRA.DIHEDRAL>
-1.41596

>  <SCORE.INTRA.DIHEDRAL.0>
10.2917

>  <SCORE.INTRA.POLAR>
0

>  <SCORE.INTRA.POLAR.0>
0

>  <SCORE.INTRA.REPUL>
0

>  <SCORE.INTRA.REPUL.0>
0

>  <SCORE.INTRA.SOLV>
-2.08277

>  <SCORE.INTRA.SOLV.lig_0>
-39.6315

>  <SCORE.INTRA.VDW>
1.07045

>  <SCORE.INTRA.VDW.0>
-4.02152

>  <SCORE.INTRA.norm>
-0.025145

>  <SCORE.RESTR>
0.00280754

>  <SCORE.RESTR.CAVITY>
0.00280754

>  <SCORE.RESTR.norm>
0.000103983

>  <SCORE.SYSTEM>
0

>  <SCORE.SYSTEM.CONST>
0

>  <SCORE.SYSTEM.DIHEDRAL>
0

>  <SCORE.SYSTEM.SOLV>
0

>  <SCORE.SYSTEM.norm>
0

>  <SCORE.heavy>
27

>  <SCORE.norm>
-0.467541

>  <RMSD>
6.621

$$$$
lig.pdb
 OpenBabel11021811493D
libRbt.so/2013.1/901 2013/11/27
 27 29  0  0  0  0  0  0  0  0999 V2000
    6.2681  -16.7049   -6.3307 N   0  0  0  0  0  0  0  0  0  0  0  0
    6.0488  -15.2298   -6.4313 C   0  0  2  0  0  0  0  0  0  0  0  0
    5.8156  -14.6632   -5.0339 C   0  0  0  0  0  0  0  0  0  0  0  0
    5.9246  -13.4573   -4.8447 O   0  0  0  0  0  0  0  0  0  0  0  0
    5.5218  -15.3725   -4.0632 O   0  0  0  0  0  0  0  0  0  0  0  0
    4.9184  -14.8365   -7.4035 C   0  0  0  0  0  0  0  0  0  0  0  0
    3.5726  -14.3982   -6.7685 C   0  0  0  0  0  0  0  0  0  0  0  0
    2.1761  -13.9209   -7.8756 S   0  0  2  0  0  0  0  0  0  0  0  0
    1.1401  -12.9601   -6.7517 C   0  0  0  0  0  0  0  0  0  0  0  0
    1.1881  -15.4285   -7.9869 C   0  0  0  0  0  0  0  0  0  0  0  0
    1.6492  -16.2576   -9.1783 C   0  0  1  0  0  0  0  0  0  0  0  0
    1.9885  -15.4585  -10.3015 O   0  0  0  0  0  0  0  0  0  0  0  0
    2.9032  -17.0430   -8.9027 C   0  0  1  0  0  0  0  0  0  0  0  0
    2.6002  -18.1905   -8.1629 O   0  0  0  0  0  0  0  0  0  0  0  0
    3.3561  -17.3486  -10.3133 C   0  0  1  0  0  0  0  0  0  0  0  0
    2.6590  -18.4700  -10.8166 O   0  0  0  0  0  0  0  0  0  0  0  0
    2.9492  -16.1141  -11.1101 C   0  0  2  0  0  0  0  0  0  0  0  0
    4.0685  -15.2053  -11.4809 N   0  0  0  0  0  0  0  0  0  0  0  0
    3.9265  -13.9409  -11.9948 C   0  0  0  0  0  0  0  0  0  0  0  0
    5.1507  -13.4098  -12.2114 N   0  0  0  0  0  0  0  0  0  0  0  0
    6.0801  -14.3049  -11.8384 C   0  0  0  0  0  0  0  0  0  0  0  0
    7.4660  -14.2635  -11.8415 C   0  0  0  0  0  0  0  0  0  0  0  0
    8.1031  -13.1825  -12.2718 N   0  0  0  0  0  0  0  0  0  0  0  0
    8.1735  -15.3581  -11.3856 N   0  0  0  0  0  0  0  0  0  0  0  0
    7.5194  -16.4930  -10.9231 C   0  0  0  0  0  0  0  0  0  0  0  0
    6.1395  -16.5136  -10.9222 N   0  0  0  0  0  0  0  0  0  0  0  0
    5.4243  -15.4437  -11.3771 C   0  0  0  0  0  0  0  0  0  0  0  0
  2  3  1  1  0  0  0
  2  6  1  0  0  0  0
  2  1  1  0  0  0  0
  4  3  2  0  0  0  0
  5  3  1  0  0  0  0
  6  7  2  0  0  0  0
  8  7  1  1  0  0  0
  8  9  1  0  0  0  0
  8 10  1  0  0  0  0
 11 10  1  1  0  0  0
 11 13  1  0  0  0  0
 12 11  1  0  0  0  0
 12 17  1  0  0  0  0
 13 14  1  1  0  0  0
 13 15  1  0  0  0  0
 15 16  1  6  0  0  0
 17 18  1  1  0  0  0
 17 15  1  0  0  0  0
 18 19  1  0  0  0  0
 20 19  2  0  0  0  0
 21 27  2  0  0  0  0
 21 20  1  0  0  0  0
 22 21  1  0  0  0  0
 23 22  1  0  0  0  0
 24 22  2  0  0  0  0
 24 25  1  0  0  0  0
 25 26  2  0  0  0  0
 26 27  1  0  0  0  0
 27 18  1  0  0  0  0
M  END
>  <CHROM.1>
163.03410831,104.00013082,-160.20314204,-91.26295348,-38.33259626,-49.10499245
4.38281510,-15.28685629,-9.07935242,-1.98663089,-0.24457849,-1.70947408

>  <Name>
lig.pdb

>  <RI>
0

>  <Rbt.Current_Directory>
/home/itssahil/PROJECTS/Mol_Feturizer/New_Systems/rnas/4b5r

>  <Rbt.Executable>
rbdock ($Id: //depot/dev/client3/rdock/2013.1/src/exe/rbdock.cxx#4 $)

>  <Rbt.Library>
libRbt.so (2013.1, Build901 2013/11/27)

>  <Rbt.Parameter_File>
/export/apps/rDock/src/rDock_2013.1_src/data/scripts/dock_solv.prm

>  <Rbt.Receptor>
prm/pocket_docking_3.prm

>  <SCORE>
-10.291

>  <SCORE.INTER>
-10.5216

>  <SCORE.INTER.CONST>
1

>  <SCORE.INTER.POLAR>
0

>  <SCORE.INTER.ROT>
6

>  <SCORE.INTER.SOLV>
9.9283

>  <SCORE.INTER.VDW>
-17.9239

>  <SCORE.INTER.norm>
-0.38969

>  <SCORE.INTRA>
0.230583

>  <SCORE.INTRA.DIHEDRAL>
1.18545

>  <SCORE.INTRA.DIHEDRAL.0>
10.2917

>  <SCORE.INTRA.POLAR>
0

>  <SCORE.INTRA.POLAR.0>
0

>  <SCORE.INTRA.REPUL>
0

>  <SCORE.INTRA.REPUL.0>
0

>  <SCORE.INTRA.SOLV>
-2.0561

>  <SCORE.INTRA.SOLV.lig_0>
-39.6315

>  <SCORE.INTRA.VDW>
0.665908

>  <SCORE.INTRA.VDW.0>
-4.02152

>  <SCORE.INTRA.norm>
0.00854011

>  <SCORE.RESTR>
0

>  <SCORE.RESTR.CAVITY>
0

>  <SCORE.RESTR.norm>
0

>  <SCORE.SYSTEM>
0

>  <SCORE.SYSTEM.CONST>
0

>  <SCORE.SYSTEM.DIHEDRAL>
0

>  <SCORE.SYSTEM.SOLV>
0

>  <SCORE.SYSTEM.norm>
0

>  <SCORE.heavy>
27

>  <SCORE.norm>
-0.38115

>  <RMSD>
6.624

$$$$
lig.pdb
 OpenBabel11021811493D
libRbt.so/2013.1/901 2013/11/27
 27 29  0  0  0  0  0  0  0  0999 V2000
    5.0935  -13.8306   -5.2204 N   0  0  0  0  0  0  0  0  0  0  0  0
    5.0943  -15.3055   -5.4627 C   0  0  2  0  0  0  0  0  0  0  0  0
    6.5301  -15.7757   -5.6762 C   0  0  0  0  0  0  0  0  0  0  0  0
    6.8307  -16.9356   -5.4194 O   0  0  0  0  0  0  0  0  0  0  0  0
    7.4238  -15.0308   -6.0982 O   0  0  0  0  0  0  0  0  0  0  0  0
    4.1715  -15.7440   -6.6177 C   0  0  0  0  0  0  0  0  0  0  0  0
    3.2370  -14.6593   -7.2149 C   0  0  0  0  0  0  0  0  0  0  0  0
    2.1025  -15.1191   -8.5952 S   0  0  2  0  0  0  0  0  0  0  0  0
    0.7033  -14.0196   -8.2904 C   0  0  0  0  0  0  0  0  0  0  0  0
    1.3843  -16.6843   -8.0509 C   0  0  0  0  0  0  0  0  0  0  0  0
    1.7550  -17.7880   -9.0327 C   0  0  1  0  0  0  0  0  0  0  0  0
    1.2975  -17.5236  -10.3503 O   0  0  0  0  0  0  0  0  0  0  0  0
    3.2413  -17.9608   -9.1951 C   0  0  1  0  0  0  0  0  0  0  0  0
    3.7632  -18.6818   -8.1163 O   0  0  0  0  0  0  0  0  0  0  0  0
    3.2920  -18.7247  -10.4998 C   0  0  1  0  0  0  0  0  0  0  0  0
    3.0684  -20.1005  -10.2677 O   0  0  0  0  0  0  0  0  0  0  0  0
    2.1260  -18.1626  -11.3053 C   0  0  2  0  0  0  0  0  0  0  0  0
    2.5083  -17.2384  -12.4080 N   0  0  0  0  0  0  0  0  0  0  0  0
    1.6352  -16.4769  -13.1434 C   0  0  0  0  0  0  0  0  0  0  0  0
    2.3302  -15.7607  -14.0552 N   0  0  0  0  0  0  0  0  0  0  0  0
    3.6368  -16.0394  -13.9159 C   0  0  0  0  0  0  0  0  0  0  0  0
    4.7626  -15.5783  -14.5810 C   0  0  0  0  0  0  0  0  0  0  0  0
    4.6462  -14.6886  -15.5580 N   0  0  0  0  0  0  0  0  0  0  0  0
    6.0054  -16.0517  -14.2096 N   0  0  0  0  0  0  0  0  0  0  0  0
    6.1429  -16.9762  -13.1818 C   0  0  0  0  0  0  0  0  0  0  0  0
    5.0115  -17.4192  -12.5275 N   0  0  0  0  0  0  0  0  0  0  0  0
    3.7745  -16.9681  -12.8873 C   0  0  0  0  0  0  0  0  0  0  0  0
  2  3  1  6  0  0  0
  2  6  1  0  0  0  0
  2  1  1  0  0  0  0
  4  3  2  0  0  0  0
  5  3  1  0  0  0  0
  6  7  2  0  0  0  0
  8  7  1  1  0  0  0
  8  9  1  0  0  0  0
  8 10  1  0  0  0  0
 11 10  1  1  0  0  0
 11 13  1  0  0  0  0
 12 11  1  0  0  0  0
 12 17  1  0  0  0  0
 13 14  1  1  0  0  0
 13 15  1  0  0  0  0
 15 16  1  1  0  0  0
 17 18  1  6  0  0  0
 17 15  1  0  0  0  0
 18 19  1  0  0  0  0
 20 19  2  0  0  0  0
 21 27  2  0  0  0  0
 21 20  1  0  0  0  0
 22 21  1  0  0  0  0
 23 22  1  0  0  0  0
 24 22  2  0  0  0  0
 24 25  1  0  0  0  0
 25 26  2  0  0  0  0
 26 27  1  0  0  0  0
 27 18  1  0  0  0  0
M  END
>  <CHROM.1>
153.98722526,-8.57628815,148.55218064,-118.31364244,-59.37203852,-51.23264348
3.68442849,-16.44993701,-9.92306352,-1.41175500,-0.25913071,-1.65273869

>  <Name>
lig.pdb

>  <RI>
0

>  <Rbt.Current_Directory>
/home/itssahil/PROJECTS/Mol_Feturizer/New_Systems/rnas/4b5r

>  <Rbt.Executable>
rbdock ($Id: //depot/dev/client3/rdock/2013.1/src/exe/rbdock.cxx#4 $)

>  <Rbt.Library>
libRbt.so (2013.1, Build901 2013/11/27)

>  <Rbt.Parameter_File>
/export/apps/rDock/src/rDock_2013.1_src/data/scripts/dock_solv.prm

>  <Rbt.Receptor>
prm/pocket_docking_5.prm

>  <SCORE>
-13.8037

>  <SCORE.INTER>
-14.4581

>  <SCORE.INTER.CONST>
1

>  <SCORE.INTER.POLAR>
0

>  <SCORE.INTER.ROT>
6

>  <SCORE.INTER.SOLV>
15.2411

>  <SCORE.INTER.VDW>
-22.3191

>  <SCORE.INTER.norm>
-0.535487

>  <SCORE.INTRA>
0.654483

>  <SCORE.INTRA.DIHEDRAL>
0.757716

>  <SCORE.INTRA.DIHEDRAL.0>
10.2917

>  <SCORE.INTRA.POLAR>
0

>  <SCORE.INTRA.POLAR.0>
0

>  <SCORE.INTRA.REPUL>
0

>  <SCORE.INTRA.REPUL.0>
0

>  <SCORE.INTRA.SOLV>
-2.02283

>  <SCORE.INTRA.SOLV.lig_0>
-39.6315

>  <SCORE.INTRA.VDW>
1.28704

>  <SCORE.INTRA.VDW.0>
-4.02152

>  <SCORE.INTRA.norm>
0.0242401

>  <SCORE.RESTR>
0

>  <SCORE.RESTR.CAVITY>
0

>  <SCORE.RESTR.norm>
0

>  <SCORE.SYSTEM>
0

>  <SCORE.SYSTEM.CONST>
0

>  <SCORE.SYSTEM.DIHEDRAL>
0

>  <SCORE.SYSTEM.SOLV>
0

>  <SCORE.SYSTEM.norm>
0

>  <SCORE.heavy>
27

>  <SCORE.norm>
-0.511247

>  <RMSD>
6.633

$$$$
lig.pdb
 OpenBabel11021811493D
libRbt.so/2013.1/901 2013/11/27
 27 29  0  0  0  0  0  0  0  0999 V2000
    6.0092  -16.6332   -6.4766 N   0  0  0  0  0  0  0  0  0  0  0  0
    5.2514  -15.3450   -6.4573 C   0  0  2  0  0  0  0  0  0  0  0  0
    5.3637  -14.7203   -5.0698 C   0  0  0  0  0  0  0  0  0  0  0  0
    5.6563  -15.4254   -4.1112 O   0  0  0  0  0  0  0  0  0  0  0  0
    5.1656  -13.5170   -4.8583 O   0  0  0  0  0  0  0  0  0  0  0  0
    3.7822  -15.4839   -6.9044 C   0  0  0  0  0  0  0  0  0  0  0  0
    3.3909  -14.7975   -8.2395 C   0  0  0  0  0  0  0  0  0  0  0  0
    1.6471  -14.9194   -8.8291 S   0  0  2  0  0  0  0  0  0  0  0  0
    0.8076  -13.7861   -7.7020 C   0  0  0  0  0  0  0  0  0  0  0  0
    1.0800  -16.4958   -8.1543 C   0  0  0  0  0  0  0  0  0  0  0  0
    1.5273  -17.6335   -9.0626 C   0  0  1  0  0  0  0  0  0  0  0  0
    1.1450  -17.4352  -10.4154 O   0  0  0  0  0  0  0  0  0  0  0  0
    3.0233  -17.7842   -9.1292 C   0  0  1  0  0  0  0  0  0  0  0  0
    3.4919  -18.4477   -7.9907 O   0  0  0  0  0  0  0  0  0  0  0  0
    3.1648  -18.6026  -10.3935 C   0  0  1  0  0  0  0  0  0  0  0  0
    2.9509  -19.9713  -10.1143 O   0  0  0  0  0  0  0  0  0  0  0  0
    2.0397  -18.0987  -11.2906 C   0  0  2  0  0  0  0  0  0  0  0  0
    2.4717  -17.2158  -12.4087 N   0  0  0  0  0  0  0  0  0  0  0  0
    1.6413  -16.4205  -13.1575 C   0  0  0  0  0  0  0  0  0  0  0  0
    2.3742  -15.7590  -14.0809 N   0  0  0  0  0  0  0  0  0  0  0  0
    3.6636  -16.1062  -13.9361 C   0  0  0  0  0  0  0  0  0  0  0  0
    4.8128  -15.7187  -14.6082 C   0  0  0  0  0  0  0  0  0  0  0  0
    4.7449  -14.8409  -15.6004 N   0  0  0  0  0  0  0  0  0  0  0  0
    6.0280  -16.2530  -14.2279 N   0  0  0  0  0  0  0  0  0  0  0  0
    6.1150  -17.1658  -13.1844 C   0  0  0  0  0  0  0  0  0  0  0  0
    4.9612  -17.5351  -12.5233 N   0  0  0  0  0  0  0  0  0  0  0  0
    3.7506  -17.0233  -12.8916 C   0  0  0  0  0  0  0  0  0  0  0  0
  2  3  1  1  0  0  0
  2  6  1  0  0  0  0
  2  1  1  0  0  0  0
  4  3  2  0  0  0  0
  5  3  1  0  0  0  0
  6  7  2  0  0  0  0
  8  7  1  1  0  0  0
  8  9  1  0  0  0  0
  8 10  1  0  0  0  0
 11 10  1  1  0  0  0
 11 13  1  0  0  0  0
 12 11  1  0  0  0  0
 12 17  1  0  0  0  0
 13 14  1  1  0  0  0
 13 15  1  0  0  0  0
 15 16  1  1  0  0  0
 17 18  1  6  0  0  0
 17 15  1  0  0  0  0
 18 19  1  0  0  0  0
 20 19  2  0  0  0  0
 21 27  2  0  0  0  0
 21 20  1  0  0  0  0
 22 21  1  0  0  0  0
 23 22  1  0  0  0  0
 24 22  2  0  0  0  0
 24 25  1  0  0  0  0
 25 26  2  0  0  0  0
 26 27  1  0  0  0  0
 27 18  1  0  0  0  0
M  END
>  <CHROM.1>
-20.80475062,-112.83664224,73.86693709,-82.66674095,-52.98757739,-45.64160320
3.45333160,-16.35189351,-9.91331479,-1.51649242,-0.33453643,-1.72657486

>  <Name>
lig.pdb

>  <RI>
0

>  <Rbt.Current_Directory>
/home/itssahil/PROJECTS/Mol_Feturizer/New_Systems/rnas/4b5r

>  <Rbt.Executable>
rbdock ($Id: //depot/dev/client3/rdock/2013.1/src/exe/rbdock.cxx#4 $)

>  <Rbt.Library>
libRbt.so (2013.1, Build901 2013/11/27)

>  <Rbt.Parameter_File>
/export/apps/rDock/src/rDock_2013.1_src/data/scripts/dock_solv.prm

>  <Rbt.Receptor>
prm/pocket_docking_4.prm

>  <SCORE>
-15.3199

>  <SCORE.INTER>
-15.178

>  <SCORE.INTER.CONST>
1

>  <SCORE.INTER.POLAR>
0

>  <SCORE.INTER.ROT>
6

>  <SCORE.INTER.SOLV>
12.3671

>  <SCORE.INTER.VDW>
-21.841

>  <SCORE.INTER.norm>
-0.562146

>  <SCORE.INTRA>
-0.141905

>  <SCORE.INTRA.DIHEDRAL>
-1.07643

>  <SCORE.INTRA.DIHEDRAL.0>
10.2917

>  <SCORE.INTRA.POLAR>
0

>  <SCORE.INTRA.POLAR.0>
0

>  <SCORE.INTRA.REPUL>
0

>  <SCORE.INTRA.REPUL.0>
0

>  <SCORE.INTRA.SOLV>
-1.33889

>  <SCORE.INTRA.SOLV.lig_0>
-39.6315

>  <SCORE.INTRA.VDW>
1.06576

>  <SCORE.INTRA.VDW.0>
-4.02152

>  <SCORE.INTRA.norm>
-0.00525573

>  <SCORE.RESTR>
0

>  <SCORE.RESTR.CAVITY>
0

>  <SCORE.RESTR.norm>
0

>  <SCORE.SYSTEM>
0

>  <SCORE.SYSTEM.CONST>
0

>  <SCORE.SYSTEM.DIHEDRAL>
0

>  <SCORE.SYSTEM.SOLV>
0

>  <SCORE.SYSTEM.norm>
0

>  <SCORE.heavy>
27

>  <SCORE.norm>
-0.567402

>  <RMSD>
6.658

$$$$
lig.pdb
 OpenBabel11021811493D
libRbt.so/2013.1/901 2013/11/27
 27 29  0  0  0  0  0  0  0  0999 V2000
    5.6397  -16.6140   -5.9739 N   0  0  0  0  0  0  0  0  0  0  0  0
    5.0704  -15.2566   -6.2333 C   0  0  2  0  0  0  0  0  0  0  0  0
    5.2368  -14.3979   -4.9830 C   0  0  0  0  0  0  0  0  0  0  0  0
    5.9713  -13.4176   -5.0164 O   0  0  0  0  0  0  0  0  0  0  0  0
    4.6616  -14.6485   -3.9162 O   0  0  0  0  0  0  0  0  0  0  0  0
    3.6071  -15.2811   -6.7192 C   0  0  0  0  0  0  0  0  0  0  0  0
    3.3505  -14.8401   -8.1842 C   0  0  0  0  0  0  0  0  0  0  0  0
    1.6213  -14.8399   -8.8271 S   0  0  2  0  0  0  0  0  0  0  0  0
    0.8140  -13.6992   -7.6841 C   0  0  0  0  0  0  0  0  0  0  0  0
    0.9448  -16.4029   -8.2263 C   0  0  0  0  0  0  0  0  0  0  0  0
    1.4507  -17.5483   -9.0933 C   0  0  1  0  0  0  0  0  0  0  0  0
    1.0958  -17.3975  -10.4595 O   0  0  0  0  0  0  0  0  0  0  0  0
    2.9521  -17.6514   -9.1202 C   0  0  1  0  0  0  0  0  0  0  0  0
    3.4136  -18.2696   -7.9536 O   0  0  0  0  0  0  0  0  0  0  0  0
    3.1510  -18.4969  -10.3586 C   0  0  1  0  0  0  0  0  0  0  0  0
    2.9746  -19.8642  -10.0485 O   0  0  0  0  0  0  0  0  0  0  0  0
    2.0327  -18.0534  -11.2952 C   0  0  2  0  0  0  0  0  0  0  0  0
    2.4635  -17.1858  -12.4257 N   0  0  0  0  0  0  0  0  0  0  0  0
    1.6336  -16.3936  -13.1784 C   0  0  0  0  0  0  0  0  0  0  0  0
    2.3650  -15.7471  -14.1136 N   0  0  0  0  0  0  0  0  0  0  0  0
    3.6531  -16.1008  -13.9725 C   0  0  0  0  0  0  0  0  0  0  0  0
    4.8006  -15.7282  -14.6558 C   0  0  0  0  0  0  0  0  0  0  0  0
    4.7322  -14.8610  -15.6573 N   0  0  0  0  0  0  0  0  0  0  0  0
    6.0146  -16.2658  -14.2768 N   0  0  0  0  0  0  0  0  0  0  0  0
    6.1023  -17.1675  -13.2237 C   0  0  0  0  0  0  0  0  0  0  0  0
    4.9502  -17.5221  -12.5517 N   0  0  0  0  0  0  0  0  0  0  0  0
    3.7407  -17.0068  -12.9184 C   0  0  0  0  0  0  0  0  0  0  0  0
  2  3  1  1  0  0  0
  2  6  1  0  0  0  0
  2  1  1  0  0  0  0
  4  3  2  0  0  0  0
  5  3  1  0  0  0  0
  6  7  2  0  0  0  0
  8  7  1  1  0  0  0
  8  9  1  0  0  0  0
  8 10  1  0  0  0  0
 11 10  1  1  0  0  0
 11 13  1  0  0  0  0
 12 11  1  0  0  0  0
 12 17  1  0  0  0  0
 13 14  1  1  0  0  0
 13 15  1  0  0  0  0
 15 16  1  1  0  0  0
 17 18  1  6  0  0  0
 17 15  1  0  0  0  0
 18 19  1  0  0  0  0
 20 19  2  0  0  0  0
 21 27  2  0  0  0  0
 21 20  1  0  0  0  0
 22 21  1  0  0  0  0
 23 22  1  0  0  0  0
 24 22  2  0  0  0  0
 24 25  1  0  0  0  0
 25 26  2  0  0  0  0
 26 27  1  0  0  0  0
 27 18  1  0  0  0  0
M  END
>  <CHROM.1>
114.54576319,-111.84754193,59.09916753,-77.87090621,-58.95047323,-42.69127926
3.39494361,-16.25631412,-9.88665842,-1.53245500,-0.42059217,-1.75654503

>  <Name>
lig.pdb

>  <RI>
0

>  <Rbt.Current_Directory>
/home/itssahil/PROJECTS/Mol_Feturizer/New_Systems/rnas/4b5r

>  <Rbt.Executable>
rbdock ($Id: //depot/dev/client3/rdock/2013.1/src/exe/rbdock.cxx#4 $)

>  <Rbt.Library>
libRbt.so (2013.1, Build901 2013/11/27)

>  <Rbt.Parameter_File>
/export/apps/rDock/src/rDock_2013.1_src/data/scripts/dock_solv.prm

>  <Rbt.Receptor>
prm/pocket_docking_4.prm

>  <SCORE>
-16.0044

>  <SCORE.INTER>
-15.7669

>  <SCORE.INTER.CONST>
1

>  <SCORE.INTER.POLAR>
0

>  <SCORE.INTER.ROT>
6

>  <SCORE.INTER.SOLV>
13.8597

>  <SCORE.INTER.VDW>
-22.7312

>  <SCORE.INTER.norm>
-0.583959

>  <SCORE.INTRA>
-0.23747

>  <SCORE.INTRA.DIHEDRAL>
-1.32987

>  <SCORE.INTRA.DIHEDRAL.0>
10.2917

>  <SCORE.INTRA.POLAR>
0

>  <SCORE.INTRA.POLAR.0>
0

>  <SCORE.INTRA.REPUL>
0

>  <SCORE.INTRA.REPUL.0>
0

>  <SCORE.INTRA.SOLV>
-1.50164

>  <SCORE.INTRA.SOLV.lig_0>
-39.6315

>  <SCORE.INTRA.VDW>
1.17829

>  <SCORE.INTRA.VDW.0>
-4.02152

>  <SCORE.INTRA.norm>
-0.0087952

>  <SCORE.RESTR>
0

>  <SCORE.RESTR.CAVITY>
0

>  <SCORE.RESTR.norm>
0

>  <SCORE.SYSTEM>
0

>  <SCORE.SYSTEM.CONST>
0

>  <SCORE.SYSTEM.DIHEDRAL>
0

>  <SCORE.SYSTEM.SOLV>
0

>  <SCORE.SYSTEM.norm>
0

>  <SCORE.heavy>
27

>  <SCORE.norm>
-0.592754

>  <RMSD>
6.687

$$$$
lig.pdb
 OpenBabel11021811493D
libRbt.so/2013.1/901 2013/11/27
 27 29  0  0  0  0  0  0  0  0999 V2000
    5.7520  -16.7966   -6.8199 N   0  0  0  0  0  0  0  0  0  0  0  0
    5.3972  -15.3448   -6.8400 C   0  0  2  0  0  0  0  0  0  0  0  0
    5.7635  -14.7224   -5.4959 C   0  0  0  0  0  0  0  0  0  0  0  0
    6.8038  -15.0543   -4.9396 O   0  0  0  0  0  0  0  0  0  0  0  0
    5.0483  -13.8884   -4.9260 O   0  0  0  0  0  0  0  0  0  0  0  0
    3.9264  -15.0717   -7.2144 C   0  0  0  0  0  0  0  0  0  0  0  0
    3.6655  -13.9299   -8.2316 C   0  0  0  0  0  0  0  0  0  0  0  0
    1.9277  -13.5467   -8.7180 S   0  0  2  0  0  0  0  0  0  0  0  0
    1.3863  -12.5209   -7.3345 C   0  0  0  0  0  0  0  0  0  0  0  0
    1.0344  -15.0692   -8.3361 C   0  0  0  0  0  0  0  0  0  0  0  0
    0.8101  -15.8669   -9.6140 C   0  0  1  0  0  0  0  0  0  0  0  0
    1.2473  -15.1750  -10.7739 O   0  0  0  0  0  0  0  0  0  0  0  0
    1.5852  -17.1566   -9.6501 C   0  0  1  0  0  0  0  0  0  0  0  0
    0.9413  -18.1275   -8.8763 O   0  0  0  0  0  0  0  0  0  0  0  0
    1.5519  -17.4602  -11.1316 C   0  0  1  0  0  0  0  0  0  0  0  0
    0.3302  -18.0823  -11.4741 O   0  0  0  0  0  0  0  0  0  0  0  0
    1.6115  -16.0881  -11.7938 C   0  0  2  0  0  0  0  0  0  0  0  0
    2.9240  -15.7380  -12.4027 N   0  0  0  0  0  0  0  0  0  0  0  0
    3.4828  -16.3564  -13.4928 C   0  0  0  0  0  0  0  0  0  0  0  0
    4.6745  -15.7803  -13.7674 N   0  0  0  0  0  0  0  0  0  0  0  0
    4.8910  -14.7956  -12.8799 C   0  0  0  0  0  0  0  0  0  0  0  0
    5.9372  -13.8996  -12.7209 C   0  0  0  0  0  0  0  0  0  0  0  0
    6.9746  -13.9274  -13.5471 N   0  0  0  0  0  0  0  0  0  0  0  0
    5.8823  -12.9751  -11.6967 N   0  0  0  0  0  0  0  0  0  0  0  0
    4.7976  -12.9283  -10.8301 C   0  0  0  0  0  0  0  0  0  0  0  0
    3.7631  -13.8243  -11.0075 N   0  0  0  0  0  0  0  0  0  0  0  0
    3.8048  -14.7503  -12.0095 C   0  0  0  0  0  0  0  0  0  0  0  0
  2  3  1  1  0  0  0
  2  6  1  0  0  0  0
  2  1  1  0  0  0  0
  4  3  2  0  0  0  0
  5  3  1  0  0  0  0
  6  7  2  0  0  0  0
  8  7  1  1  0  0  0
  8  9  1  0  0  0  0
  8 10  1  0  0  0  0
 11 10  1  1  0  0  0
 11 13  1  0  0  0  0
 12 11  1  0  0  0  0
 12 17  1  0  0  0  0
 13 14  1  1  0  0  0
 13 15  1  0  0  0  0
 15 16  1  1  0  0  0
 17 18  1  1  0  0  0
 17 15  1  0  0  0  0
 18 19  1  0  0  0  0
 20 19  2  0  0  0  0
 21 27  2  0  0  0  0
 21 20  1  0  0  0  0
 22 21  1  0  0  0  0
 23 22  1  0  0  0  0
 24 22  2  0  0  0  0
 24 25  1  0  0  0  0
 25 26  2  0  0  0  0
 26 27  1  0  0  0  0
 27 18  1  0  0  0  0
M  END
>  <CHROM.1>
39.73068231,-135.46101248,81.28517232,-100.82552178,-5.00150102,-173.59971434
3.43549641,-15.08876753,-9.75005820,-1.31715864,-0.46046276,-1.62114966

>  <Name>
lig.pdb

>  <RI>
0

>  <Rbt.Current_Directory>
/home/itssahil/PROJECTS/Mol_Feturizer/New_Systems/rnas/4b5r

>  <Rbt.Executable>
rbdock ($Id: //depot/dev/client3/rdock/2013.1/src/exe/rbdock.cxx#4 $)

>  <Rbt.Library>
libRbt.so (2013.1, Build901 2013/11/27)

>  <Rbt.Parameter_File>
/export/apps/rDock/src/rDock_2013.1_src/data/scripts/dock_solv.prm

>  <Rbt.Receptor>
prm/pocket_docking_3.prm

>  <SCORE>
-6.58432

>  <SCORE.INTER>
-10.6632

>  <SCORE.INTER.CONST>
1

>  <SCORE.INTER.POLAR>
0

>  <SCORE.INTER.ROT>
6

>  <SCORE.INTER.SOLV>
11.4799

>  <SCORE.INTER.VDW>
-18.5354

>  <SCORE.INTER.norm>
-0.394933

>  <SCORE.INTRA>
4.0631

>  <SCORE.INTRA.DIHEDRAL>
5.93832

>  <SCORE.INTRA.DIHEDRAL.0>
10.2917

>  <SCORE.INTRA.POLAR>
0

>  <SCORE.INTRA.POLAR.0>
0

>  <SCORE.INTRA.REPUL>
0.0205125

>  <SCORE.INTRA.REPUL.0>
0

>  <SCORE.INTRA.SOLV>
-2.04187

>  <SCORE.INTRA.SOLV.lig_0>
-39.6315

>  <SCORE.INTRA.VDW>
2.01232

>  <SCORE.INTRA.VDW.0>
-4.02152

>  <SCORE.INTRA.norm>
0.150485

>  <SCORE.RESTR>
0.0157611

>  <SCORE.RESTR.CAVITY>
0.0157611

>  <SCORE.RESTR.norm>
0.000583744

>  <SCORE.SYSTEM>
0

>  <SCORE.SYSTEM.CONST>
0

>  <SCORE.SYSTEM.DIHEDRAL>
0

>  <SCORE.SYSTEM.SOLV>
0

>  <SCORE.SYSTEM.norm>
0

>  <SCORE.heavy>
27

>  <SCORE.norm>
-0.243864

>  <RMSD>
6.695

$$$$
lig.pdb
 OpenBabel11021811493D
libRbt.so/2013.1/901 2013/11/27
 27 29  0  0  0  0  0  0  0  0999 V2000
    5.4441  -16.1204   -6.6009 N   0  0  0  0  0  0  0  0  0  0  0  0
    5.3829  -14.6978   -6.1465 C   0  0  2  0  0  0  0  0  0  0  0  0
    5.3277  -14.6625   -4.6221 C   0  0  0  0  0  0  0  0  0  0  0  0
    6.0058  -15.4512   -3.9742 O   0  0  0  0  0  0  0  0  0  0  0  0
    4.6162  -13.8670   -3.9952 O   0  0  0  0  0  0  0  0  0  0  0  0
    4.2285  -13.8946   -6.7790 C   0  0  0  0  0  0  0  0  0  0  0  0
    3.2020  -14.6946   -7.6233 C   0  0  0  0  0  0  0  0  0  0  0  0
    1.7997  -13.7932   -8.4136 S   0  0  2  0  0  0  0  0  0  0  0  0
    1.1367  -12.8645   -7.0146 C   0  0  0  0  0  0  0  0  0  0  0  0
    0.5195  -15.0570   -8.5745 C   0  0  0  0  0  0  0  0  0  0  0  0
    0.8209  -15.9428   -9.7761 C   0  0  1  0  0  0  0  0  0  0  0  0
    1.2095  -15.1979  -10.9204 O   0  0  0  0  0  0  0  0  0  0  0  0
    1.9767  -16.8790   -9.5460 C   0  0  1  0  0  0  0  0  0  0  0  0
    1.5638  -17.9759   -8.7828 O   0  0  0  0  0  0  0  0  0  0  0  0
    2.3265  -17.2454  -10.9713 C   0  0  1  0  0  0  0  0  0  0  0  0
    1.4726  -18.2721  -11.4338 O   0  0  0  0  0  0  0  0  0  0  0  0
    2.0443  -15.9730  -11.7623 C   0  0  2  0  0  0  0  0  0  0  0  0
    3.2521  -15.2143  -12.1888 N   0  0  0  0  0  0  0  0  0  0  0  0
    3.5244  -14.8130  -13.4724 C   0  0  0  0  0  0  0  0  0  0  0  0
    4.7022  -14.1498  -13.4897 N   0  0  0  0  0  0  0  0  0  0  0  0
    5.1908  -14.1080  -12.2392 C   0  0  0  0  0  0  0  0  0  0  0  0
    6.3435  -13.5492  -11.7088 C   0  0  0  0  0  0  0  0  0  0  0  0
    7.1994  -12.9075  -12.4932 N   0  0  0  0  0  0  0  0  0  0  0  0
    6.5858  -13.6638  -10.3542 N   0  0  0  0  0  0  0  0  0  0  0  0
    5.6936  -14.3246   -9.5194 C   0  0  0  0  0  0  0  0  0  0  0  0
    4.5487  -14.8693  -10.0645 N   0  0  0  0  0  0  0  0  0  0  0  0
    4.2975  -14.7727  -11.4026 C   0  0  0  0  0  0  0  0  0  0  0  0
  2  3  1  1  0  0  0
  2  6  1  0  0  0  0
  2  1  1  0  0  0  0
  4  3  2  0  0  0  0
  5  3  1  0  0  0  0
  6  7  2  0  0  0  0
  8  7  1  1  0  0  0
  8  9  1  0  0  0  0
  8 10  1  0  0  0  0
 11 10  1  1  0  0  0
 11 13  1  0  0  0  0
 12 11  1  0  0  0  0
 12 17  1  0  0  0  0
 13 14  1  1  0  0  0
 13 15  1  0  0  0  0
 15 16  1  6  0  0  0
 17 18  1  1  0  0  0
 17 15  1  0  0  0  0
 18 19  1  0  0  0  0
 20 19  2  0  0  0  0
 21 27  2  0  0  0  0
 21 20  1  0  0  0  0
 22 21  1  0  0  0  0
 23 22  1  0  0  0  0
 24 22  2  0  0  0  0
 24 25  1  0  0  0  0
 25 26  2  0  0  0  0
 26 27  1  0  0  0  0
 27 18  1  0  0  0  0
M  END
>  <CHROM.1>
39.31362841,7.94300156,-50.95905964,-78.92345178,-44.56079810,-113.25000357
3.58302678,-14.97269410,-9.29559964,-1.39926200,-0.43964623,-1.59346915

>  <Name>
lig.pdb

>  <RI>
0

>  <Rbt.Current_Directory>
/home/itssahil/PROJECTS/Mol_Feturizer/New_Systems/rnas/4b5r

>  <Rbt.Executable>
rbdock ($Id: //depot/dev/client3/rdock/2013.1/src/exe/rbdock.cxx#4 $)

>  <Rbt.Library>
libRbt.so (2013.1, Build901 2013/11/27)

>  <Rbt.Parameter_File>
/export/apps/rDock/src/rDock_2013.1_src/data/scripts/dock_solv.prm

>  <Rbt.Receptor>
prm/pocket_docking_3.prm

>  <SCORE>
-15.4279

>  <SCORE.INTER>
-15.0689

>  <SCORE.INTER.CONST>
1

>  <SCORE.INTER.POLAR>
0

>  <SCORE.INTER.ROT>
6

>  <SCORE.INTER.SOLV>
10.4579

>  <SCORE.INTER.VDW>
-21.1319

>  <SCORE.INTER.norm>
-0.558107

>  <SCORE.INTRA>
-0.359046

>  <SCORE.INTRA.DIHEDRAL>
-2.11192

>  <SCORE.INTRA.DIHEDRAL.0>
10.2917

>  <SCORE.INTRA.POLAR>
0

>  <SCORE.INTRA.POLAR.0>
0

>  <SCORE.INTRA.REPUL>
0

>  <SCORE.INTRA.REPUL.0>
0

>  <SCORE.INTRA.SOLV>
0.132335

>  <SCORE.INTRA.SOLV.lig_0>
-39.6315

>  <SCORE.INTRA.VDW>
0.630748

>  <SCORE.INTRA.VDW.0>
-4.02152

>  <SCORE.INTRA.norm>
-0.013298

>  <SCORE.RESTR>
0

>  <SCORE.RESTR.CAVITY>
0

>  <SCORE.RESTR.norm>
0

>  <SCORE.SYSTEM>
0

>  <SCORE.SYSTEM.CONST>
0

>  <SCORE.SYSTEM.DIHEDRAL>
0

>  <SCORE.SYSTEM.SOLV>
0

>  <SCORE.SYSTEM.norm>
0

>  <SCORE.heavy>
27

>  <SCORE.norm>
-0.571405

>  <RMSD>
6.699

$$$$
lig.pdb
 OpenBabel11021811493D
libRbt.so/2013.1/901 2013/11/27
 27 29  0  0  0  0  0  0  0  0999 V2000
    5.3103  -16.9572   -7.3323 N   0  0  0  0  0  0  0  0  0  0  0  0
    5.7966  -15.5438   -7.3310 C   0  0  2  0  0  0  0  0  0  0  0  0
    6.2060  -15.1579   -5.9127 C   0  0  0  0  0  0  0  0  0  0  0  0
    5.3663  -14.7064   -5.1429 O   0  0  0  0  0  0  0  0  0  0  0  0
    7.3649  -15.2748   -5.4942 O   0  0  0  0  0  0  0  0  0  0  0  0
    4.7883  -14.5413   -7.9276 C   0  0  0  0  0  0  0  0  0  0  0  0
    3.2872  -14.8045   -7.6373 C   0  0  0  0  0  0  0  0  0  0  0  0
    2.0276  -13.6465   -8.3271 S   0  0  2  0  0  0  0  0  0  0  0  0
    1.2163  -13.0625   -6.8237 C   0  0  0  0  0  0  0  0  0  0  0  0
    0.7418  -14.7457   -8.9598 C   0  0  0  0  0  0  0  0  0  0  0  0
    1.0863  -15.1744  -10.3801 C   0  0  1  0  0  0  0  0  0  0  0  0
    1.8430  -14.1967  -11.0777 O   0  0  0  0  0  0  0  0  0  0  0  0
    1.9512  -16.4051  -10.4332 C   0  0  1  0  0  0  0  0  0  0  0  0
    1.1741  -17.5495  -10.2271 O   0  0  0  0  0  0  0  0  0  0  0  0
    2.4952  -16.3026  -11.8410 C   0  0  1  0  0  0  0  0  0  0  0  0
    1.5563  -16.8151  -12.7645 O   0  0  0  0  0  0  0  0  0  0  0  0
    2.6491  -14.8034  -12.0720 C   0  0  2  0  0  0  0  0  0  0  0  0
    4.0490  -14.2989  -12.0287 N   0  0  0  0  0  0  0  0  0  0  0  0
    4.4198  -12.9803  -12.1114 C   0  0  0  0  0  0  0  0  0  0  0  0
    5.7667  -12.8926  -12.0375 N   0  0  0  0  0  0  0  0  0  0  0  0
    6.2715  -14.1296  -11.8997 C   0  0  0  0  0  0  0  0  0  0  0  0
    7.5712  -14.5952  -11.7710 C   0  0  0  0  0  0  0  0  0  0  0  0
    8.5901  -13.7459  -11.7686 N   0  0  0  0  0  0  0  0  0  0  0  0
    7.7905  -15.9522  -11.6392 N   0  0  0  0  0  0  0  0  0  0  0  0
    6.7323  -16.8521  -11.6304 C   0  0  0  0  0  0  0  0  0  0  0  0
    5.4453  -16.3696  -11.7538 N   0  0  0  0  0  0  0  0  0  0  0  0
    5.2109  -15.0321  -11.8933 C   0  0  0  0  0  0  0  0  0  0  0  0
  2  3  1  1  0  0  0
  2  6  1  0  0  0  0
  2  1  1  0  0  0  0
  4  3  2  0  0  0  0
  5  3  1  0  0  0  0
  6  7  2  0  0  0  0
  8  7  1  1  0  0  0
  8  9  1  0  0  0  0
  8 10  1  0  0  0  0
 11 10  1  1  0  0  0
 11 13  1  0  0  0  0
 12 11  1  0  0  0  0
 12 17  1  0  0  0  0
 13 14  1  6  0  0  0
 13 15  1  0  0  0  0
 15 16  1  6  0  0  0
 17 18  1  1  0  0  0
 17 15  1  0  0  0  0
 18 19  1  0  0  0  0
 20 19  2  0  0  0  0
 21 27  2  0  0  0  0
 21 20  1  0  0  0  0
 22 21  1  0  0  0  0
 23 22  1  0  0  0  0
 24 22  2  0  0  0  0
 24 25  1  0  0  0  0
 25 26  2  0  0  0  0
 26 27  1  0  0  0  0
 27 18  1  0  0  0  0
M  END
>  <CHROM.1>
-87.52994661,36.68527352,-120.83967969,-86.13635234,-29.50876517,-55.53368853
4.15969009,-15.00493545,-9.81224067,-1.19791061,-0.01865164,-1.63645052

>  <Name>
lig.pdb

>  <RI>
0

>  <Rbt.Current_Directory>
/home/itssahil/PROJECTS/Mol_Feturizer/New_Systems/rnas/4b5r

>  <Rbt.Executable>
rbdock ($Id: //depot/dev/client3/rdock/2013.1/src/exe/rbdock.cxx#4 $)

>  <Rbt.Library>
libRbt.so (2013.1, Build901 2013/11/27)

>  <Rbt.Parameter_File>
/export/apps/rDock/src/rDock_2013.1_src/data/scripts/dock_solv.prm

>  <Rbt.Receptor>
prm/pocket_docking_5.prm

>  <SCORE>
-10.7085

>  <SCORE.INTER>
-12.1254

>  <SCORE.INTER.CONST>
1

>  <SCORE.INTER.POLAR>
0

>  <SCORE.INTER.ROT>
6

>  <SCORE.INTER.SOLV>
10.6689

>  <SCORE.INTER.VDW>
-19.2399

>  <SCORE.INTER.norm>
-0.449088

>  <SCORE.INTRA>
1.41684

>  <SCORE.INTRA.DIHEDRAL>
3.71021

>  <SCORE.INTRA.DIHEDRAL.0>
10.2917

>  <SCORE.INTRA.POLAR>
0

>  <SCORE.INTRA.POLAR.0>
0

>  <SCORE.INTRA.REPUL>
0

>  <SCORE.INTRA.REPUL.0>
0

>  <SCORE.INTRA.SOLV>
-1.83683

>  <SCORE.INTRA.SOLV.lig_0>
-39.6315

>  <SCORE.INTRA.VDW>
0.48015

>  <SCORE.INTRA.VDW.0>
-4.02152

>  <SCORE.INTRA.norm>
0.0524756

>  <SCORE.RESTR>
0

>  <SCORE.RESTR.CAVITY>
0

>  <SCORE.RESTR.norm>
0

>  <SCORE.SYSTEM>
0

>  <SCORE.SYSTEM.CONST>
0

>  <SCORE.SYSTEM.DIHEDRAL>
0

>  <SCORE.SYSTEM.SOLV>
0

>  <SCORE.SYSTEM.norm>
0

>  <SCORE.heavy>
27

>  <SCORE.norm>
-0.396613

>  <RMSD>
6.704

$$$$
lig.pdb
 OpenBabel11021811493D
libRbt.so/2013.1/901 2013/11/27
 27 29  0  0  0  0  0  0  0  0999 V2000
    5.5000  -16.1082   -7.1939 N   0  0  0  0  0  0  0  0  0  0  0  0
    5.6449  -14.6539   -6.8812 C   0  0  2  0  0  0  0  0  0  0  0  0
    5.9173  -14.4885   -5.3890 C   0  0  0  0  0  0  0  0  0  0  0  0
    6.8289  -15.1199   -4.8674 O   0  0  0  0  0  0  0  0  0  0  0  0
    5.2493  -13.7398   -4.6644 O   0  0  0  0  0  0  0  0  0  0  0  0
    4.4470  -13.7989   -7.3417 C   0  0  0  0  0  0  0  0  0  0  0  0
    3.2499  -14.5572   -7.9729 C   0  0  0  0  0  0  0  0  0  0  0  0
    1.7868  -13.5935   -8.5511 S   0  0  2  0  0  0  0  0  0  0  0  0
    1.0853  -13.0327   -6.9850 C   0  0  0  0  0  0  0  0  0  0  0  0
    0.5833  -14.8682   -8.9850 C   0  0  0  0  0  0  0  0  0  0  0  0
    1.0780  -15.6509  -10.1942 C   0  0  1  0  0  0  0  0  0  0  0  0
    1.6622  -14.8169  -11.1833 O   0  0  0  0  0  0  0  0  0  0  0  0
    2.1699  -16.6309   -9.8583 C   0  0  1  0  0  0  0  0  0  0  0  0
    1.6239  -17.7810   -9.2795 O   0  0  0  0  0  0  0  0  0  0  0  0
    2.7547  -16.8777  -11.2314 C   0  0  1  0  0  0  0  0  0  0  0  0
    1.9839  -17.8388  -11.9236 O   0  0  0  0  0  0  0  0  0  0  0  0
    2.6221  -15.5338  -11.9391 C   0  0  2  0  0  0  0  0  0  0  0  0
    3.8911  -14.7691  -12.0840 N   0  0  0  0  0  0  0  0  0  0  0  0
    3.9839  -13.4447  -12.4310 C   0  0  0  0  0  0  0  0  0  0  0  0
    5.2866  -13.0853  -12.4661 N   0  0  0  0  0  0  0  0  0  0  0  0
    6.0359  -14.1512  -12.1395 C   0  0  0  0  0  0  0  0  0  0  0  0
    7.4063  -14.3228  -12.0166 C   0  0  0  0  0  0  0  0  0  0  0  0
    8.2312  -13.3080  -12.2386 N   0  0  0  0  0  0  0  0  0  0  0  0
    7.9002  -15.5604  -11.6546 N   0  0  0  0  0  0  0  0  0  0  0  0
    7.0475  -16.6293  -11.4097 C   0  0  0  0  0  0  0  0  0  0  0  0
    5.6862  -16.4379  -11.5313 N   0  0  0  0  0  0  0  0  0  0  0  0
    5.1812  -15.2235  -11.8964 C   0  0  0  0  0  0  0  0  0  0  0  0
  2  3  1  1  0  0  0
  2  6  1  0  0  0  0
  2  1  1  0  0  0  0
  4  3  2  0  0  0  0
  5  3  1  0  0  0  0
  6  7  2  0  0  0  0
  8  7  1  1  0  0  0
  8  9  1  0  0  0  0
  8 10  1  0  0  0  0
 11 10  1  1  0  0  0
 11 13  1  0  0  0  0
 12 11  1  0  0  0  0
 12 17  1  0  0  0  0
 13 14  1  6  0  0  0
 13 15  1  0  0  0  0
 15 16  1  6  0  0  0
 17 18  1  1  0  0  0
 17 15  1  0  0  0  0
 18 19  1  0  0  0  0
 20 19  2  0  0  0  0
 21 27  2  0  0  0  0
 21 20  1  0  0  0  0
 22 21  1  0  0  0  0
 23 22  1  0  0  0  0
 24 22  2  0  0  0  0
 24 25  1  0  0  0  0
 25 26  2  0  0  0  0
 26 27  1  0  0  0  0
 27 18  1  0  0  0  0
M  END
>  <CHROM.1>
52.39244315,3.47324851,-69.44631031,-67.07548910,-41.45544542,-46.56639575
4.08552420,-14.99065857,-9.67405831,-1.76584704,-0.13700332,-1.73238482

>  <Name>
lig.pdb

>  <RI>
0

>  <Rbt.Current_Directory>
/home/itssahil/PROJECTS/Mol_Feturizer/New_Systems/rnas/4b5r

>  <Rbt.Executable>
rbdock ($Id: //depot/dev/client3/rdock/2013.1/src/exe/rbdock.cxx#4 $)

>  <Rbt.Library>
libRbt.so (2013.1, Build901 2013/11/27)

>  <Rbt.Parameter_File>
/export/apps/rDock/src/rDock_2013.1_src/data/scripts/dock_solv.prm

>  <Rbt.Receptor>
prm/pocket_docking_3.prm

>  <SCORE>
-13.9806

>  <SCORE.INTER>
-13.6598

>  <SCORE.INTER.CONST>
1

>  <SCORE.INTER.POLAR>
0

>  <SCORE.INTER.ROT>
6

>  <SCORE.INTER.SOLV>
9.64628

>  <SCORE.INTER.VDW>
-19.922

>  <SCORE.INTER.norm>
-0.50592

>  <SCORE.INTRA>
-0.321511

>  <SCORE.INTRA.DIHEDRAL>
-1.87079

>  <SCORE.INTRA.DIHEDRAL.0>
10.2917

>  <SCORE.INTRA.POLAR>
0

>  <SCORE.INTRA.POLAR.0>
0

>  <SCORE.INTRA.REPUL>
0

>  <SCORE.INTRA.REPUL.0>
0

>  <SCORE.INTRA.SOLV>
-1.83749

>  <SCORE.INTRA.SOLV.lig_0>
-39.6315

>  <SCORE.INTRA.VDW>
1.53263

>  <SCORE.INTRA.VDW.0>
-4.02152

>  <SCORE.INTRA.norm>
-0.0119078

>  <SCORE.RESTR>
0.000772009

>  <SCORE.RESTR.CAVITY>
0.000772009

>  <SCORE.RESTR.norm>
2.85929e-05

>  <SCORE.SYSTEM>
0

>  <SCORE.SYSTEM.CONST>
0

>  <SCORE.SYSTEM.DIHEDRAL>
0

>  <SCORE.SYSTEM.SOLV>
0

>  <SCORE.SYSTEM.norm>
0

>  <SCORE.heavy>
27

>  <SCORE.norm>
-0.517799

>  <RMSD>
6.707

$$$$
lig.pdb
 OpenBabel11021811493D
libRbt.so/2013.1/901 2013/11/27
 27 29  0  0  0  0  0  0  0  0999 V2000
    6.5889  -15.6937   -9.1129 N   0  0  0  0  0  0  0  0  0  0  0  0
    5.8453  -14.9242   -8.0693 C   0  0  2  0  0  0  0  0  0  0  0  0
    5.4268  -15.8747   -6.9514 C   0  0  0  0  0  0  0  0  0  0  0  0
    5.4565  -17.0845   -7.1439 O   0  0  0  0  0  0  0  0  0  0  0  0
    5.0472  -15.4788   -5.8419 O   0  0  0  0  0  0  0  0  0  0  0  0
    4.6454  -14.1296   -8.6231 C   0  0  0  0  0  0  0  0  0  0  0  0
    3.2333  -14.6109   -8.1976 C   0  0  0  0  0  0  0  0  0  0  0  0
    1.7539  -13.7082   -8.8300 S   0  0  2  0  0  0  0  0  0  0  0  0
    1.0922  -12.9948   -7.3092 C   0  0  0  0  0  0  0  0  0  0  0  0
    0.5420  -15.0189   -9.1041 C   0  0  0  0  0  0  0  0  0  0  0  0
    0.9444  -15.8441  -10.3192 C   0  0  1  0  0  0  0  0  0  0  0  0
    1.2375  -15.0409  -11.4525 O   0  0  0  0  0  0  0  0  0  0  0  0
    2.2050  -16.6378  -10.1042 C   0  0  1  0  0  0  0  0  0  0  0  0
    1.9290  -17.7876   -9.3573 O   0  0  0  0  0  0  0  0  0  0  0  0
    2.5925  -16.9384  -11.5352 C   0  0  1  0  0  0  0  0  0  0  0  0
    1.8670  -18.0532  -12.0124 O   0  0  0  0  0  0  0  0  0  0  0  0
    2.1572  -15.6975  -12.3067 C   0  0  2  0  0  0  0  0  0  0  0  0
    3.2639  -14.7928  -12.7228 N   0  0  0  0  0  0  0  0  0  0  0  0
    3.8071  -13.7971  -11.9506 C   0  0  0  0  0  0  0  0  0  0  0  0
    4.7885  -13.1809  -12.6468 N   0  0  0  0  0  0  0  0  0  0  0  0
    4.8945  -13.7666  -13.8509 C   0  0  0  0  0  0  0  0  0  0  0  0
    5.7346  -13.5324  -14.9288 C   0  0  0  0  0  0  0  0  0  0  0  0
    6.6483  -12.5725  -14.8701 N   0  0  0  0  0  0  0  0  0  0  0  0
    5.6124  -14.3143  -16.0603 N   0  0  0  0  0  0  0  0  0  0  0  0
    4.6666  -15.3293  -16.1320 C   0  0  0  0  0  0  0  0  0  0  0  0
    3.8431  -15.5514  -15.0470 N   0  0  0  0  0  0  0  0  0  0  0  0
    3.9447  -14.7825  -13.9238 C   0  0  0  0  0  0  0  0  0  0  0  0
  2  3  1  1  0  0  0
  2  6  1  0  0  0  0
  2  1  1  0  0  0  0
  4  3  2  0  0  0  0
  5  3  1  0  0  0  0
  6  7  2  0  0  0  0
  8  7  1  1  0  0  0
  8  9  1  0  0  0  0
  8 10  1  0  0  0  0
 11 10  1  1  0  0  0
 11 13  1  0  0  0  0
 12 11  1  0  0  0  0
 12 17  1  0  0  0  0
 13 14  1  1  0  0  0
 13 15  1  0  0  0  0
 15 16  1  6  0  0  0
 17 18  1  1  0  0  0
 17 15  1  0  0  0  0
 18 19  1  0  0  0  0
 20 19  2  0  0  0  0
 21 27  2  0  0  0  0
 21 20  1  0  0  0  0
 22 21  1  0  0  0  0
 23 22  1  0  0  0  0
 24 22  2  0  0  0  0
 24 25  1  0  0  0  0
 25 26  2  0  0  0  0
 26 27  1  0  0  0  0
 27 18  1  0  0  0  0
M  END
>  <CHROM.1>
-15.67294870,111.81281416,-113.78924029,-72.00039866,-50.07497750,33.50713474
3.56462842,-15.05788037,-10.86883151,-1.78327553,-0.27964177,-1.49692648

>  <Name>
lig.pdb

>  <RI>
0

>  <Rbt.Current_Directory>
/home/itssahil/PROJECTS/Mol_Feturizer/New_Systems/rnas/4b5r

>  <Rbt.Executable>
rbdock ($Id: //depot/dev/client3/rdock/2013.1/src/exe/rbdock.cxx#4 $)

>  <Rbt.Library>
libRbt.so (2013.1, Build901 2013/11/27)

>  <Rbt.Parameter_File>
/export/apps/rDock/src/rDock_2013.1_src/data/scripts/dock_solv.prm

>  <Rbt.Receptor>
prm/pocket_docking_5.prm

>  <SCORE>
-14.369

>  <SCORE.INTER>
-13.62

>  <SCORE.INTER.CONST>
1

>  <SCORE.INTER.POLAR>
0

>  <SCORE.INTER.ROT>
6

>  <SCORE.INTER.SOLV>
11.9859

>  <SCORE.INTER.VDW>
-20.6753

>  <SCORE.INTER.norm>
-0.504443

>  <SCORE.INTRA>
-0.748985

>  <SCORE.INTRA.DIHEDRAL>
-1.29191

>  <SCORE.INTRA.DIHEDRAL.0>
10.2917

>  <SCORE.INTRA.POLAR>
0

>  <SCORE.INTRA.POLAR.0>
0

>  <SCORE.INTRA.REPUL>
0

>  <SCORE.INTRA.REPUL.0>
0

>  <SCORE.INTRA.SOLV>
-2.45475

>  <SCORE.INTRA.SOLV.lig_0>
-39.6315

>  <SCORE.INTRA.VDW>
1.12435

>  <SCORE.INTRA.VDW.0>
-4.02152

>  <SCORE.INTRA.norm>
-0.0277402

>  <SCORE.RESTR>
0

>  <SCORE.RESTR.CAVITY>
0

>  <SCORE.RESTR.norm>
0

>  <SCORE.SYSTEM>
0

>  <SCORE.SYSTEM.CONST>
0

>  <SCORE.SYSTEM.DIHEDRAL>
0

>  <SCORE.SYSTEM.SOLV>
0

>  <SCORE.SYSTEM.norm>
0

>  <SCORE.heavy>
27

>  <SCORE.norm>
-0.532183

>  <RMSD>
6.721

$$$$
lig.pdb
 OpenBabel11021811493D
libRbt.so/2013.1/901 2013/11/27
 27 29  0  0  0  0  0  0  0  0999 V2000
    5.6384  -15.7417   -6.6395 N   0  0  0  0  0  0  0  0  0  0  0  0
    5.3257  -14.4195   -6.0167 C   0  0  2  0  0  0  0  0  0  0  0  0
    5.2509  -14.5861   -4.5018 C   0  0  0  0  0  0  0  0  0  0  0  0
    4.6386  -13.7622   -3.8326 O   0  0  0  0  0  0  0  0  0  0  0  0
    5.7912  -15.5250   -3.9031 O   0  0  0  0  0  0  0  0  0  0  0  0
    4.0548  -13.7536   -6.5818 C   0  0  0  0  0  0  0  0  0  0  0  0
    3.3257  -14.5020   -7.7285 C   0  0  0  0  0  0  0  0  0  0  0  0
    1.8021  -13.7568   -8.4545 S   0  0  2  0  0  0  0  0  0  0  0  0
    1.1222  -12.8752   -7.0333 C   0  0  0  0  0  0  0  0  0  0  0  0
    0.6476  -15.1434   -8.5338 C   0  0  0  0  0  0  0  0  0  0  0  0
    0.9795  -16.0196   -9.7344 C   0  0  1  0  0  0  0  0  0  0  0  0
    1.3490  -15.2632  -10.8775 O   0  0  0  0  0  0  0  0  0  0  0  0
    2.1625  -16.9203   -9.5005 C   0  0  1  0  0  0  0  0  0  0  0  0
    1.7806  -18.0293   -8.7387 O   0  0  0  0  0  0  0  0  0  0  0  0
    2.5277  -17.2759  -10.9248 C   0  0  1  0  0  0  0  0  0  0  0  0
    1.7069  -18.3280  -11.3899 O   0  0  0  0  0  0  0  0  0  0  0  0
    2.2096  -16.0126  -11.7167 C   0  0  2  0  0  0  0  0  0  0  0  0
    3.3952  -15.2177  -12.1394 N   0  0  0  0  0  0  0  0  0  0  0  0
    3.5917  -14.6908  -13.3911 C   0  0  0  0  0  0  0  0  0  0  0  0
    4.7716  -14.0316  -13.4150 N   0  0  0  0  0  0  0  0  0  0  0  0
    5.3361  -14.1158  -12.1991 C   0  0  0  0  0  0  0  0  0  0  0  0
    6.5238  -13.6151  -11.6879 C   0  0  0  0  0  0  0  0  0  0  0  0
    7.3352  -12.9000  -12.4560 N   0  0  0  0  0  0  0  0  0  0  0  0
    6.8476  -13.8647  -10.3690 N   0  0  0  0  0  0  0  0  0  0  0  0
    6.0028  -14.6037   -9.5506 C   0  0  0  0  0  0  0  0  0  0  0  0
    4.8222  -15.0890  -10.0754 N   0  0  0  0  0  0  0  0  0  0  0  0
    4.4904  -14.8588  -11.3793 C   0  0  0  0  0  0  0  0  0  0  0  0
  2  3  1  1  0  0  0
  2  6  1  0  0  0  0
  2  1  1  0  0  0  0
  4  3  2  0  0  0  0
  5  3  1  0  0  0  0
  6  7  2  0  0  0  0
  8  7  1  1  0  0  0
  8  9  1  0  0  0  0
  8 10  1  0  0  0  0
 11 10  1  1  0  0  0
 11 13  1  0  0  0  0
 12 11  1  0  0  0  0
 12 17  1  0  0  0  0
 13 14  1  1  0  0  0
 13 15  1  0  0  0  0
 15 16  1  6  0  0  0
 17 18  1  1  0  0  0
 17 15  1  0  0  0  0
 18 19  1  0  0  0  0
 20 19  2  0  0  0  0
 21 27  2  0  0  0  0
 21 20  1  0  0  0  0
 22 21  1  0  0  0  0
 23 22  1  0  0  0  0
 24 22  2  0  0  0  0
 24 25  1  0  0  0  0
 25 26  2  0  0  0  0
 26 27  1  0  0  0  0
 27 18  1  0  0  0  0
M  END
>  <CHROM.1>
-158.63137892,-2.28129387,-30.80861879,-78.56847985,-39.57013592,-106.13247377
3.68853698,-14.96989892,-9.25845057,-1.45980502,-0.43490443,-1.62725816

>  <Name>
lig.pdb

>  <RI>
0

>  <Rbt.Current_Directory>
/home/itssahil/PROJECTS/Mol_Feturizer/New_Systems/rnas/4b5r

>  <Rbt.Executable>
rbdock ($Id: //depot/dev/client3/rdock/2013.1/src/exe/rbdock.cxx#4 $)

>  <Rbt.Library>
libRbt.so (2013.1, Build901 2013/11/27)

>  <Rbt.Parameter_File>
/export/apps/rDock/src/rDock_2013.1_src/data/scripts/dock_solv.prm

>  <Rbt.Receptor>
prm/pocket_docking_3.prm

>  <SCORE>
-13.7375

>  <SCORE.INTER>
-13.8844

>  <SCORE.INTER.CONST>
1

>  <SCORE.INTER.POLAR>
0

>  <SCORE.INTER.ROT>
6

>  <SCORE.INTER.SOLV>
11.1164

>  <SCORE.INTER.VDW>
-20.5617

>  <SCORE.INTER.norm>
-0.514238

>  <SCORE.INTRA>
0.14696

>  <SCORE.INTRA.DIHEDRAL>
-1.75111

>  <SCORE.INTRA.DIHEDRAL.0>
10.2917

>  <SCORE.INTRA.POLAR>
0

>  <SCORE.INTRA.POLAR.0>
0

>  <SCORE.INTRA.REPUL>
0

>  <SCORE.INTRA.REPUL.0>
0

>  <SCORE.INTRA.SOLV>
0.313474

>  <SCORE.INTRA.SOLV.lig_0>
-39.6315

>  <SCORE.INTRA.VDW>
0.865778

>  <SCORE.INTRA.VDW.0>
-4.02152

>  <SCORE.INTRA.norm>
0.00544296

>  <SCORE.RESTR>
0

>  <SCORE.RESTR.CAVITY>
0

>  <SCORE.RESTR.norm>
0

>  <SCORE.SYSTEM>
0

>  <SCORE.SYSTEM.CONST>
0

>  <SCORE.SYSTEM.DIHEDRAL>
0

>  <SCORE.SYSTEM.SOLV>
0

>  <SCORE.SYSTEM.norm>
0

>  <SCORE.heavy>
27

>  <SCORE.norm>
-0.508795

>  <RMSD>
6.723

$$$$
lig.pdb
 OpenBabel11021811493D
libRbt.so/2013.1/901 2013/11/27
 27 29  0  0  0  0  0  0  0  0999 V2000
    5.5502  -16.0580   -7.0200 N   0  0  0  0  0  0  0  0  0  0  0  0
    5.5080  -14.5945   -6.7195 C   0  0  2  0  0  0  0  0  0  0  0  0
    5.5337  -14.3942   -5.2070 C   0  0  0  0  0  0  0  0  0  0  0  0
    6.0513  -13.3867   -4.7394 O   0  0  0  0  0  0  0  0  0  0  0  0
    5.0546  -15.2147   -4.4139 O   0  0  0  0  0  0  0  0  0  0  0  0
    4.3187  -13.8620   -7.3728 C   0  0  0  0  0  0  0  0  0  0  0  0
    3.3043  -14.7371   -8.1550 C   0  0  0  0  0  0  0  0  0  0  0  0
    1.8616  -13.9228   -8.9667 S   0  0  2  0  0  0  0  0  0  0  0  0
    1.2155  -12.9114   -7.6180 C   0  0  0  0  0  0  0  0  0  0  0  0
    0.6062  -15.2208   -9.0025 C   0  0  0  0  0  0  0  0  0  0  0  0
    0.9440  -16.2316  -10.0904 C   0  0  1  0  0  0  0  0  0  0  0  0
    1.0597  -15.6354  -11.3735 O   0  0  0  0  0  0  0  0  0  0  0  0
    2.2758  -16.9014   -9.8828 C   0  0  1  0  0  0  0  0  0  0  0  0
    2.1639  -17.9078   -8.9182 O   0  0  0  0  0  0  0  0  0  0  0  0
    2.5375  -17.4378  -11.2728 C   0  0  1  0  0  0  0  0  0  0  0  0
    1.8529  -18.6597  -11.4602 O   0  0  0  0  0  0  0  0  0  0  0  0
    1.9345  -16.3857  -12.1970 C   0  0  2  0  0  0  0  0  0  0  0  0
    2.9225  -15.5132  -12.8889 N   0  0  0  0  0  0  0  0  0  0  0  0
    3.2018  -15.5414  -14.2321 C   0  0  0  0  0  0  0  0  0  0  0  0
    4.1459  -14.6143  -14.5087 N   0  0  0  0  0  0  0  0  0  0  0  0
    4.4747  -13.9822  -13.3701 C   0  0  0  0  0  0  0  0  0  0  0  0
    5.3684  -12.9572  -13.0995 C   0  0  0  0  0  0  0  0  0  0  0  0
    6.0884  -12.4208  -14.0760 N   0  0  0  0  0  0  0  0  0  0  0  0
    5.4945  -12.4983  -11.8033 N   0  0  0  0  0  0  0  0  0  0  0  0
    4.7398  -13.0441  -10.7726 C   0  0  0  0  0  0  0  0  0  0  0  0
    3.8512  -14.0596  -11.0621 N   0  0  0  0  0  0  0  0  0  0  0  0
    3.7200  -14.5311  -12.3363 C   0  0  0  0  0  0  0  0  0  0  0  0
  2  3  1  1  0  0  0
  2  6  1  0  0  0  0
  2  1  1  0  0  0  0
  4  3  2  0  0  0  0
  5  3  1  0  0  0  0
  6  7  2  0  0  0  0
  8  7  1  1  0  0  0
  8  9  1  0  0  0  0
  8 10  1  0  0  0  0
 11 10  1  1  0  0  0
 11 13  1  0  0  0  0
 12 11  1  0  0  0  0
 12 17  1  0  0  0  0
 13 14  1  1  0  0  0
 13 15  1  0  0  0  0
 15 16  1  1  0  0  0
 17 18  1  1  0  0  0
 17 15  1  0  0  0  0
 18 19  1  0  0  0  0
 20 19  2  0  0  0  0
 21 27  2  0  0  0  0
 21 20  1  0  0  0  0
 22 21  1  0  0  0  0
 23 22  1  0  0  0  0
 24 22  2  0  0  0  0
 24 25  1  0  0  0  0
 25 26  2  0  0  0  0
 26 27  1  0  0  0  0
 27 18  1  0  0  0  0
M  END
>  <CHROM.1>
149.52319355,3.78135229,-49.68386750,-75.35390344,-57.23278767,-130.45891263
3.43811015,-14.90075849,-9.96900814,-1.36177468,-0.74078633,-1.49145422

>  <Name>
lig.pdb

>  <RI>
0

>  <Rbt.Current_Directory>
/home/itssahil/PROJECTS/Mol_Feturizer/New_Systems/rnas/4b5r

>  <Rbt.Executable>
rbdock ($Id: //depot/dev/client3/rdock/2013.1/src/exe/rbdock.cxx#4 $)

>  <Rbt.Library>
libRbt.so (2013.1, Build901 2013/11/27)

>  <Rbt.Parameter_File>
/export/apps/rDock/src/rDock_2013.1_src/data/scripts/dock_solv.prm

>  <Rbt.Receptor>
prm/pocket_docking_5.prm

>  <SCORE>
-18.4876

>  <SCORE.INTER>
-16.9592

>  <SCORE.INTER.CONST>
1

>  <SCORE.INTER.POLAR>
0

>  <SCORE.INTER.ROT>
6

>  <SCORE.INTER.SOLV>
12.3449

>  <SCORE.INTER.VDW>
-23.0211

>  <SCORE.INTER.norm>
-0.628119

>  <SCORE.INTRA>
-1.53616

>  <SCORE.INTRA.DIHEDRAL>
-3.23029

>  <SCORE.INTRA.DIHEDRAL.0>
10.2917

>  <SCORE.INTRA.POLAR>
0

>  <SCORE.INTRA.POLAR.0>
0

>  <SCORE.INTRA.REPUL>
0

>  <SCORE.INTRA.REPUL.0>
0

>  <SCORE.INTRA.SOLV>
-0.951417

>  <SCORE.INTRA.SOLV.lig_0>
-39.6315

>  <SCORE.INTRA.VDW>
0.554698

>  <SCORE.INTRA.VDW.0>
-4.02152

>  <SCORE.INTRA.norm>
-0.0568947

>  <SCORE.RESTR>
0.00774903

>  <SCORE.RESTR.CAVITY>
0.00774903

>  <SCORE.RESTR.norm>
0.000287001

>  <SCORE.SYSTEM>
0

>  <SCORE.SYSTEM.CONST>
0

>  <SCORE.SYSTEM.DIHEDRAL>
0

>  <SCORE.SYSTEM.SOLV>
0

>  <SCORE.SYSTEM.norm>
0

>  <SCORE.heavy>
27

>  <SCORE.norm>
-0.684726

>  <RMSD>
6.743

$$$$
lig.pdb
 OpenBabel11021811493D
libRbt.so/2013.1/901 2013/11/27
 27 29  0  0  0  0  0  0  0  0999 V2000
    5.5645  -16.0581   -7.1561 N   0  0  0  0  0  0  0  0  0  0  0  0
    5.4983  -14.6041   -6.8163 C   0  0  2  0  0  0  0  0  0  0  0  0
    5.4515  -14.4474   -5.2992 C   0  0  0  0  0  0  0  0  0  0  0  0
    5.8216  -13.3969   -4.7883 O   0  0  0  0  0  0  0  0  0  0  0  0
    5.0566  -15.3452   -4.5444 O   0  0  0  0  0  0  0  0  0  0  0  0
    4.3360  -13.8596   -7.5039 C   0  0  0  0  0  0  0  0  0  0  0  0
    3.2425  -14.7357   -8.1696 C   0  0  0  0  0  0  0  0  0  0  0  0
    1.8273  -13.9080   -9.0155 S   0  0  2  0  0  0  0  0  0  0  0  0
    1.1669  -12.8799   -7.6864 C   0  0  0  0  0  0  0  0  0  0  0  0
    0.5562  -15.1899   -9.0692 C   0  0  0  0  0  0  0  0  0  0  0  0
    0.8802  -16.1880  -10.1731 C   0  0  1  0  0  0  0  0  0  0  0  0
    1.0392  -15.5685  -11.4404 O   0  0  0  0  0  0  0  0  0  0  0  0
    2.1849  -16.9065   -9.9568 C   0  0  1  0  0  0  0  0  0  0  0  0
    2.0218  -17.9291   -9.0168 O   0  0  0  0  0  0  0  0  0  0  0  0
    2.4542  -17.4213  -11.3535 C   0  0  1  0  0  0  0  0  0  0  0  0
    1.7329  -18.6153  -11.5800 O   0  0  0  0  0  0  0  0  0  0  0  0
    1.9037  -16.3300  -12.2647 C   0  0  2  0  0  0  0  0  0  0  0  0
    2.9327  -15.4764  -12.9196 N   0  0  0  0  0  0  0  0  0  0  0  0
    3.2481  -15.4979  -14.2549 C   0  0  0  0  0  0  0  0  0  0  0  0
    4.2233  -14.5931  -14.4952 N   0  0  0  0  0  0  0  0  0  0  0  0
    4.5368  -13.9818  -13.3410 C   0  0  0  0  0  0  0  0  0  0  0  0
    5.4490  -12.9835  -13.0347 C   0  0  0  0  0  0  0  0  0  0  0  0
    6.2094  -12.4561  -13.9850 N   0  0  0  0  0  0  0  0  0  0  0  0
    5.5512  -12.5417  -11.7304 N   0  0  0  0  0  0  0  0  0  0  0  0
    4.7544  -13.0783  -10.7269 C   0  0  0  0  0  0  0  0  0  0  0  0
    3.8481  -14.0670  -11.0519 N   0  0  0  0  0  0  0  0  0  0  0  0
    3.7399  -14.5215  -12.3345 C   0  0  0  0  0  0  0  0  0  0  0  0
  2  3  1  1  0  0  0
  2  6  1  0  0  0  0
  2  1  1  0  0  0  0
  4  3  2  0  0  0  0
  5  3  1  0  0  0  0
  6  7  2  0  0  0  0
  8  7  1  1  0  0  0
  8  9  1  0  0  0  0
  8 10  1  0  0  0  0
 11 10  1  1  0  0  0
 11 13  1  0  0  0  0
 12 11  1  0  0  0  0
 12 17  1  0  0  0  0
 13 14  1  1  0  0  0
 13 15  1  0  0  0  0
 15 16  1  6  0  0  0
 17 18  1  1  0  0  0
 17 15  1  0  0  0  0
 18 19  1  0  0  0  0
 20 19  2  0  0  0  0
 21 27  2  0  0  0  0
 21 20  1  0  0  0  0
 22 21  1  0  0  0  0
 23 22  1  0  0  0  0
 24 22  2  0  0  0  0
 24 25  1  0  0  0  0
 25 26  2  0  0  0  0
 26 27  1  0  0  0  0
 27 18  1  0  0  0  0
M  END
>  <CHROM.1>
156.52248602,13.12239023,-56.30168200,-77.11530718,-55.53329357,-131.38702199
3.41438026,-14.89863160,-10.01374092,-1.37369142,-0.71595336,-1.50686910

>  <Name>
lig.pdb

>  <RI>
0

>  <Rbt.Current_Directory>
/home/itssahil/PROJECTS/Mol_Feturizer/New_Systems/rnas/4b5r

>  <Rbt.Executable>
rbdock ($Id: //depot/dev/client3/rdock/2013.1/src/exe/rbdock.cxx#4 $)

>  <Rbt.Library>
libRbt.so (2013.1, Build901 2013/11/27)

>  <Rbt.Parameter_File>
/export/apps/rDock/src/rDock_2013.1_src/data/scripts/dock_solv.prm

>  <Rbt.Receptor>
prm/pocket_docking_6.prm

>  <SCORE>
-18.3643

>  <SCORE.INTER>
-16.8916

>  <SCORE.INTER.CONST>
1

>  <SCORE.INTER.POLAR>
0

>  <SCORE.INTER.ROT>
6

>  <SCORE.INTER.SOLV>
12.4048

>  <SCORE.INTER.VDW>
-22.996

>  <SCORE.INTER.norm>
-0.625614

>  <SCORE.INTRA>
-1.47586

>  <SCORE.INTRA.DIHEDRAL>
-2.70951

>  <SCORE.INTRA.DIHEDRAL.0>
10.2917

>  <SCORE.INTRA.POLAR>
0

>  <SCORE.INTRA.POLAR.0>
0

>  <SCORE.INTRA.REPUL>
0

>  <SCORE.INTRA.REPUL.0>
0

>  <SCORE.INTRA.SOLV>
-0.965028

>  <SCORE.INTRA.SOLV.lig_0>
-39.6315

>  <SCORE.INTRA.VDW>
0.361406

>  <SCORE.INTRA.VDW.0>
-4.02152

>  <SCORE.INTRA.norm>
-0.0546616

>  <SCORE.RESTR>
0.00314227

>  <SCORE.RESTR.CAVITY>
0.00314227

>  <SCORE.RESTR.norm>
0.00011638

>  <SCORE.SYSTEM>
0

>  <SCORE.SYSTEM.CONST>
0

>  <SCORE.SYSTEM.DIHEDRAL>
0

>  <SCORE.SYSTEM.SOLV>
0

>  <SCORE.SYSTEM.norm>
0

>  <SCORE.heavy>
27

>  <SCORE.norm>
-0.68016

>  <RMSD>
6.743

$$$$
lig.pdb
 OpenBabel11021811493D
libRbt.so/2013.1/901 2013/11/27
 27 29  0  0  0  0  0  0  0  0999 V2000
    5.8680  -14.7247   -8.0796 N   0  0  0  0  0  0  0  0  0  0  0  0
    4.6735  -13.9497   -7.6250 C   0  0  2  0  0  0  0  0  0  0  0  0
    4.2425  -14.4563   -6.2518 C   0  0  0  0  0  0  0  0  0  0  0  0
    3.5398  -13.7486   -5.5396 O   0  0  0  0  0  0  0  0  0  0  0  0
    4.5766  -15.5632   -5.8103 O   0  0  0  0  0  0  0  0  0  0  0  0
    3.5058  -13.9641   -8.6319 C   0  0  0  0  0  0  0  0  0  0  0  0
    2.2546  -14.7923   -8.2380 C   0  0  0  0  0  0  0  0  0  0  0  0
    0.8239  -14.8571   -9.4010 S   0  0  2  0  0  0  0  0  0  0  0  0
   -0.4384  -15.6378   -8.3731 C   0  0  0  0  0  0  0  0  0  0  0  0
    1.2259  -16.2391  -10.4920 C   0  0  0  0  0  0  0  0  0  0  0  0
    2.3449  -15.8341  -11.4424 C   0  0  1  0  0  0  0  0  0  0  0  0
    3.6345  -16.0180  -10.8780 O   0  0  0  0  0  0  0  0  0  0  0  0
    2.3808  -16.6601  -12.7001 C   0  0  1  0  0  0  0  0  0  0  0  0
    1.3997  -16.2195  -13.5941 O   0  0  0  0  0  0  0  0  0  0  0  0
    3.7884  -16.3791  -13.1777 C   0  0  1  0  0  0  0  0  0  0  0  0
    3.8295  -15.1520  -13.8773 O   0  0  0  0  0  0  0  0  0  0  0  0
    4.5971  -16.2436  -11.8924 C   0  0  2  0  0  0  0  0  0  0  0  0
    5.4720  -17.4047  -11.5721 N   0  0  0  0  0  0  0  0  0  0  0  0
    6.8441  -17.3922  -11.5883 C   0  0  0  0  0  0  0  0  0  0  0  0
    7.3031  -18.6166  -11.2456 N   0  0  0  0  0  0  0  0  0  0  0  0
    6.2526  -19.4167  -11.0000 C   0  0  0  0  0  0  0  0  0  0  0  0
    6.1653  -20.7441  -10.6091 C   0  0  0  0  0  0  0  0  0  0  0  0
    7.2656  -21.4572  -10.4081 N   0  0  0  0  0  0  0  0  0  0  0  0
    4.9199  -21.3117  -10.4260 N   0  0  0  0  0  0  0  0  0  0  0  0
    3.7594  -20.5741  -10.6236 C   0  0  0  0  0  0  0  0  0  0  0  0
    3.8663  -19.2527  -11.0068 N   0  0  0  0  0  0  0  0  0  0  0  0
    5.0892  -18.6780  -11.2005 C   0  0  0  0  0  0  0  0  0  0  0  0
  2  3  1  1  0  0  0
  2  6  1  0  0  0  0
  2  1  1  0  0  0  0
  4  3  2  0  0  0  0
  5  3  1  0  0  0  0
  6  7  2  0  0  0  0
  8  7  1  1  0  0  0
  8  9  1  0  0  0  0
  8 10  1  0  0  0  0
 11 10  1  1  0  0  0
 11 13  1  0  0  0  0
 12 11  1  0  0  0  0
 12 17  1  0  0  0  0
 13 14  1  6  0  0  0
 13 15  1  0  0  0  0
 15 16  1  1  0  0  0
 17 18  1  1  0  0  0
 17 15  1  0  0  0  0
 18 19  1  0  0  0  0
 20 19  2  0  0  0  0
 21 27  2  0  0  0  0
 21 20  1  0  0  0  0
 22 21  1  0  0  0  0
 23 22  1  0  0  0  0
 24 22  2  0  0  0  0
 24 25  1  0  0  0  0
 25 26  2  0  0  0  0
 26 27  1  0  0  0  0
 27 18  1  0  0  0  0
M  END
>  <CHROM.1>
160.11922953,108.84642915,-169.50936748,-73.16878012,85.47199765,-128.57978484
3.84365732,-16.71288398,-10.16028331,-2.21916688,0.69399110,-2.08458718

>  <Name>
lig.pdb

>  <RI>
0

>  <Rbt.Current_Directory>
/home/itssahil/PROJECTS/Mol_Feturizer/New_Systems/rnas/4b5r

>  <Rbt.Executable>
rbdock ($Id: //depot/dev/client3/rdock/2013.1/src/exe/rbdock.cxx#4 $)

>  <Rbt.Library>
libRbt.so (2013.1, Build901 2013/11/27)

>  <Rbt.Parameter_File>
/export/apps/rDock/src/rDock_2013.1_src/data/scripts/dock_solv.prm

>  <Rbt.Receptor>
prm/blind_docking_80.prm

>  <SCORE>
-12.5645

>  <SCORE.INTER>
-12.2805

>  <SCORE.INTER.CONST>
1

>  <SCORE.INTER.POLAR>
0

>  <SCORE.INTER.ROT>
6

>  <SCORE.INTER.SOLV>
13.5481

>  <SCORE.INTER.VDW>
-20.3031

>  <SCORE.INTER.norm>
-0.454835

>  <SCORE.INTRA>
-0.283969

>  <SCORE.INTRA.DIHEDRAL>
-0.187443

>  <SCORE.INTRA.DIHEDRAL.0>
10.2917

>  <SCORE.INTRA.POLAR>
0

>  <SCORE.INTRA.POLAR.0>
0

>  <SCORE.INTRA.REPUL>
0

>  <SCORE.INTRA.REPUL.0>
0

>  <SCORE.INTRA.SOLV>
-1.78546

>  <SCORE.INTRA.SOLV.lig_0>
-39.6315

>  <SCORE.INTRA.VDW>
0.702484

>  <SCORE.INTRA.VDW.0>
-4.02152

>  <SCORE.INTRA.norm>
-0.0105174

>  <SCORE.RESTR>
0

>  <SCORE.RESTR.CAVITY>
0

>  <SCORE.RESTR.norm>
0

>  <SCORE.SYSTEM>
0

>  <SCORE.SYSTEM.CONST>
0

>  <SCORE.SYSTEM.DIHEDRAL>
0

>  <SCORE.SYSTEM.SOLV>
0

>  <SCORE.SYSTEM.norm>
0

>  <SCORE.heavy>
27

>  <SCORE.norm>
-0.465352

>  <RMSD>
6.745

$$$$
lig.pdb
 OpenBabel11021811493D
libRbt.so/2013.1/901 2013/11/27
 27 29  0  0  0  0  0  0  0  0999 V2000
    5.4403  -16.0677   -6.6960 N   0  0  0  0  0  0  0  0  0  0  0  0
    5.4550  -14.6214   -6.3192 C   0  0  2  0  0  0  0  0  0  0  0  0
    5.5658  -14.5017   -4.8021 C   0  0  0  0  0  0  0  0  0  0  0  0
    6.5401  -14.9737   -4.2280 O   0  0  0  0  0  0  0  0  0  0  0  0
    4.7038  -13.9467   -4.1087 O   0  0  0  0  0  0  0  0  0  0  0  0
    4.2541  -13.8257   -6.8692 C   0  0  0  0  0  0  0  0  0  0  0  0
    3.2420  -14.6074   -7.7473 C   0  0  0  0  0  0  0  0  0  0  0  0
    1.7857  -13.7134   -8.4426 S   0  0  2  0  0  0  0  0  0  0  0  0
    1.0283  -13.0441   -6.9466 C   0  0  0  0  0  0  0  0  0  0  0  0
    0.6127  -15.0359   -8.8125 C   0  0  0  0  0  0  0  0  0  0  0  0
    1.1060  -15.8400  -10.0081 C   0  0  1  0  0  0  0  0  0  0  0  0
    1.6451  -15.0196  -11.0335 O   0  0  0  0  0  0  0  0  0  0  0  0
    2.2331  -16.7772   -9.6663 C   0  0  1  0  0  0  0  0  0  0  0  0
    1.7332  -17.9247   -9.0424 O   0  0  0  0  0  0  0  0  0  0  0  0
    2.7973  -17.0482  -11.0435 C   0  0  1  0  0  0  0  0  0  0  0  0
    2.0416  -18.0518  -11.6905 O   0  0  0  0  0  0  0  0  0  0  0  0
    2.6105  -15.7307  -11.7877 C   0  0  2  0  0  0  0  0  0  0  0  0
    3.8531  -14.9341  -11.9818 N   0  0  0  0  0  0  0  0  0  0  0  0
    3.9077  -13.6611  -12.4910 C   0  0  0  0  0  0  0  0  0  0  0  0
    5.1953  -13.2509  -12.5234 N   0  0  0  0  0  0  0  0  0  0  0  0
    5.9719  -14.2324  -12.0361 C   0  0  0  0  0  0  0  0  0  0  0  0
    7.3416  -14.3256  -11.8418 C   0  0  0  0  0  0  0  0  0  0  0  0
    8.1341  -13.3107  -12.1606 N   0  0  0  0  0  0  0  0  0  0  0  0
    7.8687  -15.4844  -11.3071 N   0  0  0  0  0  0  0  0  0  0  0  0
    7.0497  -16.5513  -10.9597 C   0  0  0  0  0  0  0  0  0  0  0  0
    5.6882  -16.4380  -11.1550 N   0  0  0  0  0  0  0  0  0  0  0  0
    5.1511  -15.3030  -11.6902 C   0  0  0  0  0  0  0  0  0  0  0  0
  2  3  1  1  0  0  0
  2  6  1  0  0  0  0
  2  1  1  0  0  0  0
  4  3  2  0  0  0  0
  5  3  1  0  0  0  0
  6  7  2  0  0  0  0
  8  7  1  1  0  0  0
  8  9  1  0  0  0  0
  8 10  1  0  0  0  0
 11 10  1  1  0  0  0
 11 13  1  0  0  0  0
 12 11  1  0  0  0  0
 12 17  1  0  0  0  0
 13 14  1  6  0  0  0
 13 15  1  0  0  0  0
 15 16  1  6  0  0  0
 17 18  1  1  0  0  0
 17 15  1  0  0  0  0
 18 19  1  0  0  0  0
 20 19  2  0  0  0  0
 21 27  2  0  0  0  0
 21 20  1  0  0  0  0
 22 21  1  0  0  0  0
 23 22  1  0  0  0  0
 24 22  2  0  0  0  0
 24 25  1  0  0  0  0
 25 26  2  0  0  0  0
 26 27  1  0  0  0  0
 27 18  1  0  0  0  0
M  END
>  <CHROM.1>
60.22018167,-1.56115459,-56.10226874,-71.19792023,-41.41708868,-53.15630103
4.01780719,-15.07514702,-9.42290397,-1.70133196,-0.17061875,-1.71888252

>  <Name>
lig.pdb

>  <RI>
0

>  <Rbt.Current_Directory>
/home/itssahil/PROJECTS/Mol_Feturizer/New_Systems/rnas/4b5r

>  <Rbt.Executable>
rbdock ($Id: //depot/dev/client3/rdock/2013.1/src/exe/rbdock.cxx#4 $)

>  <Rbt.Library>
libRbt.so (2013.1, Build901 2013/11/27)

>  <Rbt.Parameter_File>
/export/apps/rDock/src/rDock_2013.1_src/data/scripts/dock_solv.prm

>  <Rbt.Receptor>
prm/pocket_docking_5.prm

>  <SCORE>
-14.5907

>  <SCORE.INTER>
-14.1959

>  <SCORE.INTER.CONST>
1

>  <SCORE.INTER.POLAR>
0

>  <SCORE.INTER.ROT>
6

>  <SCORE.INTER.SOLV>
10.1417

>  <SCORE.INTER.VDW>
-20.4445

>  <SCORE.INTER.norm>
-0.525776

>  <SCORE.INTRA>
-0.394757

>  <SCORE.INTRA.DIHEDRAL>
-2.16592

>  <SCORE.INTRA.DIHEDRAL.0>
10.2917

>  <SCORE.INTRA.POLAR>
0

>  <SCORE.INTRA.POLAR.0>
0

>  <SCORE.INTRA.REPUL>
0

>  <SCORE.INTRA.REPUL.0>
0

>  <SCORE.INTRA.SOLV>
-2.01125

>  <SCORE.INTRA.SOLV.lig_0>
-39.6315

>  <SCORE.INTRA.VDW>
1.69382

>  <SCORE.INTRA.VDW.0>
-4.02152

>  <SCORE.INTRA.norm>
-0.0146206

>  <SCORE.RESTR>
0

>  <SCORE.RESTR.CAVITY>
0

>  <SCORE.RESTR.norm>
0

>  <SCORE.SYSTEM>
0

>  <SCORE.SYSTEM.CONST>
0

>  <SCORE.SYSTEM.DIHEDRAL>
0

>  <SCORE.SYSTEM.SOLV>
0

>  <SCORE.SYSTEM.norm>
0

>  <SCORE.heavy>
27

>  <SCORE.norm>
-0.540396

>  <RMSD>
6.751

$$$$
lig.pdb
 OpenBabel11021811493D
libRbt.so/2013.1/901 2013/11/27
 27 29  0  0  0  0  0  0  0  0999 V2000
    5.6564  -16.0403   -6.9212 N   0  0  0  0  0  0  0  0  0  0  0  0
    5.4065  -14.6584   -6.4094 C   0  0  2  0  0  0  0  0  0  0  0  0
    5.2907  -14.7025   -4.8886 C   0  0  0  0  0  0  0  0  0  0  0  0
    4.6689  -13.8231   -4.3040 O   0  0  0  0  0  0  0  0  0  0  0  0
    5.8063  -15.5942   -4.2025 O   0  0  0  0  0  0  0  0  0  0  0  0
    4.1877  -13.9694   -7.0557 C   0  0  0  0  0  0  0  0  0  0  0  0
    3.3392  -14.8248   -8.0329 C   0  0  0  0  0  0  0  0  0  0  0  0
    1.8706  -14.0593   -8.8458 S   0  0  2  0  0  0  0  0  0  0  0  0
    1.2025  -13.0527   -7.5042 C   0  0  0  0  0  0  0  0  0  0  0  0
    0.6519  -15.3921   -8.8628 C   0  0  0  0  0  0  0  0  0  0  0  0
    0.9698  -16.3638   -9.9916 C   0  0  1  0  0  0  0  0  0  0  0  0
    1.0514  -15.7244  -11.2564 O   0  0  0  0  0  0  0  0  0  0  0  0
    2.3101  -17.0312   -9.8379 C   0  0  1  0  0  0  0  0  0  0  0  0
    2.2271  -18.0699   -8.9051 O   0  0  0  0  0  0  0  0  0  0  0  0
    2.5419  -17.5192  -11.2508 C   0  0  1  0  0  0  0  0  0  0  0  0
    1.8603  -18.7388  -11.4629 O   0  0  0  0  0  0  0  0  0  0  0  0
    1.9110  -16.4410  -12.1248 C   0  0  2  0  0  0  0  0  0  0  0  0
    2.8770  -15.5392  -12.8103 N   0  0  0  0  0  0  0  0  0  0  0  0
    3.1476  -15.5423  -14.1555 C   0  0  0  0  0  0  0  0  0  0  0  0
    4.0716  -14.5930  -14.4245 N   0  0  0  0  0  0  0  0  0  0  0  0
    4.3959  -13.9714  -13.2789 C   0  0  0  0  0  0  0  0  0  0  0  0
    5.2713  -12.9332  -12.9990 C   0  0  0  0  0  0  0  0  0  0  0  0
    5.9741  -12.3686  -13.9721 N   0  0  0  0  0  0  0  0  0  0  0  0
    5.3973  -12.4910  -11.6969 N   0  0  0  0  0  0  0  0  0  0  0  0
    4.6604  -13.0665  -10.6696 C   0  0  0  0  0  0  0  0  0  0  0  0
    3.7898  -14.0948  -10.9682 N   0  0  0  0  0  0  0  0  0  0  0  0
    3.6590  -14.5500  -12.2484 C   0  0  0  0  0  0  0  0  0  0  0  0
  2  3  1  1  0  0  0
  2  6  1  0  0  0  0
  2  1  1  0  0  0  0
  4  3  2  0  0  0  0
  5  3  1  0  0  0  0
  6  7  2  0  0  0  0
  8  7  1  1  0  0  0
  8  9  1  0  0  0  0
  8 10  1  0  0  0  0
 11 10  1  1  0  0  0
 11 13  1  0  0  0  0
 12 11  1  0  0  0  0
 12 17  1  0  0  0  0
 13 14  1  1  0  0  0
 13 15  1  0  0  0  0
 15 16  1  1  0  0  0
 17 18  1  1  0  0  0
 17 15  1  0  0  0  0
 18 19  1  0  0  0  0
 20 19  2  0  0  0  0
 21 27  2  0  0  0  0
 21 20  1  0  0  0  0
 22 21  1  0  0  0  0
 23 22  1  0  0  0  0
 24 22  2  0  0  0  0
 24 25  1  0  0  0  0
 25 26  2  0  0  0  0
 26 27  1  0  0  0  0
 27 18  1  0  0  0  0
M  END
>  <CHROM.1>
-155.88211298,4.92959195,-38.70837650,-78.42939670,-55.47083567,-132.08625237
3.38197930,-15.00091000,-9.84033066,-1.39446242,-0.78497992,-1.46035743

>  <Name>
lig.pdb

>  <RI>
0

>  <Rbt.Current_Directory>
/home/itssahil/PROJECTS/Mol_Feturizer/New_Systems/rnas/4b5r

>  <Rbt.Executable>
rbdock ($Id: //depot/dev/client3/rdock/2013.1/src/exe/rbdock.cxx#4 $)

>  <Rbt.Library>
libRbt.so (2013.1, Build901 2013/11/27)

>  <Rbt.Parameter_File>
/export/apps/rDock/src/rDock_2013.1_src/data/scripts/dock_solv.prm

>  <Rbt.Receptor>
prm/pocket_docking_4.prm

>  <SCORE>
-17.878

>  <SCORE.INTER>
-16.9161

>  <SCORE.INTER.CONST>
1

>  <SCORE.INTER.POLAR>
0

>  <SCORE.INTER.ROT>
6

>  <SCORE.INTER.SOLV>
12.5965

>  <SCORE.INTER.VDW>
-23.0763

>  <SCORE.INTER.norm>
-0.626523

>  <SCORE.INTRA>
-0.961838

>  <SCORE.INTRA.DIHEDRAL>
-3.07852

>  <SCORE.INTRA.DIHEDRAL.0>
10.2917

>  <SCORE.INTRA.POLAR>
0

>  <SCORE.INTRA.POLAR.0>
0

>  <SCORE.INTRA.REPUL>
0

>  <SCORE.INTRA.REPUL.0>
0

>  <SCORE.INTRA.SOLV>
-0.921702

>  <SCORE.INTRA.SOLV.lig_0>
-39.6315

>  <SCORE.INTRA.VDW>
1.03827

>  <SCORE.INTRA.VDW.0>
-4.02152

>  <SCORE.INTRA.norm>
-0.0356236

>  <SCORE.RESTR>
0

>  <SCORE.RESTR.CAVITY>
0

>  <SCORE.RESTR.norm>
0

>  <SCORE.SYSTEM>
0

>  <SCORE.SYSTEM.CONST>
0

>  <SCORE.SYSTEM.DIHEDRAL>
0

>  <SCORE.SYSTEM.SOLV>
0

>  <SCORE.SYSTEM.norm>
0

>  <SCORE.heavy>
27

>  <SCORE.norm>
-0.662147

>  <RMSD>
6.762

$$$$
lig.pdb
 OpenBabel11021811493D
libRbt.so/2013.1/901 2013/11/27
 27 29  0  0  0  0  0  0  0  0999 V2000
    6.2643  -14.5952   -5.4004 N   0  0  0  0  0  0  0  0  0  0  0  0
    4.9277  -15.2359   -5.5928 C   0  0  2  0  0  0  0  0  0  0  0  0
    5.1079  -16.5512   -6.3448 C   0  0  0  0  0  0  0  0  0  0  0  0
    6.0781  -16.7000   -7.0784 O   0  0  0  0  0  0  0  0  0  0  0  0
    4.3070  -17.4905   -6.2542 O   0  0  0  0  0  0  0  0  0  0  0  0
    3.8954  -14.3205   -6.2815 C   0  0  0  0  0  0  0  0  0  0  0  0
    3.0843  -14.9388   -7.4505 C   0  0  0  0  0  0  0  0  0  0  0  0
    1.8371  -13.8957   -8.3223 S   0  0  2  0  0  0  0  0  0  0  0  0
    1.0719  -13.0218   -6.9402 C   0  0  0  0  0  0  0  0  0  0  0  0
    0.5132  -15.0586   -8.7180 C   0  0  0  0  0  0  0  0  0  0  0  0
    0.9018  -15.8829   -9.9382 C   0  0  1  0  0  0  0  0  0  0  0  0
    1.2027  -15.0780  -11.0682 O   0  0  0  0  0  0  0  0  0  0  0  0
    2.1523  -16.6942   -9.7303 C   0  0  1  0  0  0  0  0  0  0  0  0
    1.8630  -17.8440   -8.9885 O   0  0  0  0  0  0  0  0  0  0  0  0
    2.5323  -16.9926  -11.1638 C   0  0  1  0  0  0  0  0  0  0  0  0
    1.7911  -18.0955  -11.6447 O   0  0  0  0  0  0  0  0  0  0  0  0
    2.1116  -15.7422  -11.9280 C   0  0  2  0  0  0  0  0  0  0  0  0
    3.2291  -14.8502  -12.3423 N   0  0  0  0  0  0  0  0  0  0  0  0
    3.8401  -13.9194  -11.5401 C   0  0  0  0  0  0  0  0  0  0  0  0
    4.8101  -13.2947  -12.2446 N   0  0  0  0  0  0  0  0  0  0  0  0
    4.8422  -13.8113  -13.4840 C   0  0  0  0  0  0  0  0  0  0  0  0
    5.6411  -13.5407  -14.5845 C   0  0  0  0  0  0  0  0  0  0  0  0
    6.5889  -12.6154  -14.5131 N   0  0  0  0  0  0  0  0  0  0  0  0
    5.4418  -14.2502  -15.7522 N   0  0  0  0  0  0  0  0  0  0  0  0
    4.4594  -15.2287  -15.8381 C   0  0  0  0  0  0  0  0  0  0  0  0
    3.6779  -15.4882  -14.7306 N   0  0  0  0  0  0  0  0  0  0  0  0
    3.8557  -14.7905  -13.5709 C   0  0  0  0  0  0  0  0  0  0  0  0
  2  3  1  6  0  0  0
  2  6  1  0  0  0  0
  2  1  1  0  0  0  0
  4  3  2  0  0  0  0
  5  3  1  0  0  0  0
  6  7  2  0  0  0  0
  8  7  1  1  0  0  0
  8  9  1  0  0  0  0
  8 10  1  0  0  0  0
 11 10  1  1  0  0  0
 11 13  1  0  0  0  0
 12 11  1  0  0  0  0
 12 17  1  0  0  0  0
 13 14  1  1  0  0  0
 13 15  1  0  0  0  0
 15 16  1  6  0  0  0
 17 18  1  1  0  0  0
 17 15  1  0  0  0  0
 18 19  1  0  0  0  0
 20 19  2  0  0  0  0
 21 27  2  0  0  0  0
 21 20  1  0  0  0  0
 22 21  1  0  0  0  0
 23 22  1  0  0  0  0
 24 22  2  0  0  0  0
 24 25  1  0  0  0  0
 25 26  2  0  0  0  0
 26 27  1  0  0  0  0
 27 18  1  0  0  0  0
M  END
>  <CHROM.1>
-25.74439368,132.70163560,-41.30040547,-78.71069755,-56.80162647,37.59577567
3.44110207,-15.16928888,-10.26013027,-1.70246448,-0.37507449,-1.48024540

>  <Name>
lig.pdb

>  <RI>
0

>  <Rbt.Current_Directory>
/home/itssahil/PROJECTS/Mol_Feturizer/New_Systems/rnas/4b5r

>  <Rbt.Executable>
rbdock ($Id: //depot/dev/client3/rdock/2013.1/src/exe/rbdock.cxx#4 $)

>  <Rbt.Library>
libRbt.so (2013.1, Build901 2013/11/27)

>  <Rbt.Parameter_File>
/export/apps/rDock/src/rDock_2013.1_src/data/scripts/dock_solv.prm

>  <Rbt.Receptor>
prm/blind_docking_60.prm

>  <SCORE>
-16.8042

>  <SCORE.INTER>
-15.9665

>  <SCORE.INTER.CONST>
1

>  <SCORE.INTER.POLAR>
0

>  <SCORE.INTER.ROT>
6

>  <SCORE.INTER.SOLV>
12.2483

>  <SCORE.INTER.VDW>
-22.3271

>  <SCORE.INTER.norm>
-0.591352

>  <SCORE.INTRA>
-0.83768

>  <SCORE.INTRA.DIHEDRAL>
-2.806

>  <SCORE.INTRA.DIHEDRAL.0>
10.2917

>  <SCORE.INTRA.POLAR>
0

>  <SCORE.INTRA.POLAR.0>
0

>  <SCORE.INTRA.REPUL>
0

>  <SCORE.INTRA.REPUL.0>
0

>  <SCORE.INTRA.SOLV>
-2.82595

>  <SCORE.INTRA.SOLV.lig_0>
-39.6315

>  <SCORE.INTRA.VDW>
1.97829

>  <SCORE.INTRA.VDW.0>
-4.02152

>  <SCORE.INTRA.norm>
-0.0310252

>  <SCORE.RESTR>
0

>  <SCORE.RESTR.CAVITY>
0

>  <SCORE.RESTR.norm>
0

>  <SCORE.SYSTEM>
0

>  <SCORE.SYSTEM.CONST>
0

>  <SCORE.SYSTEM.DIHEDRAL>
0

>  <SCORE.SYSTEM.SOLV>
0

>  <SCORE.SYSTEM.norm>
0

>  <SCORE.heavy>
27

>  <SCORE.norm>
-0.622377

>  <RMSD>
6.773

$$$$
lig.pdb
 OpenBabel11021811493D
libRbt.so/2013.1/901 2013/11/27
 27 29  0  0  0  0  0  0  0  0999 V2000
    7.4540  -15.0634   -5.9063 N   0  0  0  0  0  0  0  0  0  0  0  0
    5.9860  -15.1458   -5.6374 C   0  0  2  0  0  0  0  0  0  0  0  0
    5.6862  -14.4841   -4.2956 C   0  0  0  0  0  0  0  0  0  0  0  0
    4.6657  -13.8184   -4.1645 O   0  0  0  0  0  0  0  0  0  0  0  0
    6.4372  -14.5828   -3.3167 O   0  0  0  0  0  0  0  0  0  0  0  0
    5.4232  -16.5798   -5.7060 C   0  0  0  0  0  0  0  0  0  0  0  0
    4.3932  -16.8725   -6.8285 C   0  0  0  0  0  0  0  0  0  0  0  0
    3.6755  -18.5667   -6.9626 S   0  0  2  0  0  0  0  0  0  0  0  0
    4.9677  -19.5653   -6.1927 C   0  0  0  0  0  0  0  0  0  0  0  0
    3.9427  -19.0052   -8.6941 C   0  0  0  0  0  0  0  0  0  0  0  0
    2.8625  -18.3673   -9.5577 C   0  0  1  0  0  0  0  0  0  0  0  0
    2.8492  -16.9512   -9.4588 O   0  0  0  0  0  0  0  0  0  0  0  0
    3.0525  -18.6241  -11.0285 C   0  0  1  0  0  0  0  0  0  0  0  0
    2.6158  -19.9125  -11.3530 O   0  0  0  0  0  0  0  0  0  0  0  0
    2.1809  -17.5363  -11.6161 C   0  0  1  0  0  0  0  0  0  0  0  0
    0.8293  -17.9487  -11.6288 O   0  0  0  0  0  0  0  0  0  0  0  0
    2.3340  -16.3716  -10.6442 C   0  0  2  0  0  0  0  0  0  0  0  0
    3.1911  -15.2547  -11.1280 N   0  0  0  0  0  0  0  0  0  0  0  0
    2.8843  -14.4122  -12.1668 C   0  0  0  0  0  0  0  0  0  0  0  0
    3.8878  -13.5205  -12.3262 N   0  0  0  0  0  0  0  0  0  0  0  0
    4.8326  -13.7666  -11.4038 C   0  0  0  0  0  0  0  0  0  0  0  0
    6.0437  -13.1518  -11.1253 C   0  0  0  0  0  0  0  0  0  0  0  0
    6.4470  -12.1107  -11.8416 N   0  0  0  0  0  0  0  0  0  0  0  0
    6.8208  -13.6327  -10.0901 N   0  0  0  0  0  0  0  0  0  0  0  0
    6.4065  -14.7160   -9.3256 C   0  0  0  0  0  0  0  0  0  0  0  0
    5.1953  -15.3114   -9.6139 N   0  0  0  0  0  0  0  0  0  0  0  0
    4.4184  -14.8543  -10.6389 C   0  0  0  0  0  0  0  0  0  0  0  0
  2  3  1  1  0  0  0
  2  6  1  0  0  0  0
  2  1  1  0  0  0  0
  4  3  2  0  0  0  0
  5  3  1  0  0  0  0
  6  7  2  0  0  0  0
  8  7  1  6  0  0  0
  8  9  1  0  0  0  0
  8 10  1  0  0  0  0
 11 10  1  1  0  0  0
 11 13  1  0  0  0  0
 12 11  1  0  0  0  0
 12 17  1  0  0  0  0
 13 14  1  1  0  0  0
 13 15  1  0  0  0  0
 15 16  1  1  0  0  0
 17 18  1  6  0  0  0
 17 15  1  0  0  0  0
 18 19  1  0  0  0  0
 20 19  2  0  0  0  0
 21 27  2  0  0  0  0
 21 20  1  0  0  0  0
 22 21  1  0  0  0  0
 23 22  1  0  0  0  0
 24 22  2  0  0  0  0
 24 25  1  0  0  0  0
 25 26  2  0  0  0  0
 26 27  1  0  0  0  0
 27 18  1  0  0  0  0
M  END
>  <CHROM.1>
141.77915012,-115.45430686,-25.27112102,-80.77503697,59.57426613,-172.86905551
4.36200236,-16.10530872,-8.84863842,-0.75134927,-0.99341335,-1.02143444

>  <Name>
lig.pdb

>  <RI>
0

>  <Rbt.Current_Directory>
/home/itssahil/PROJECTS/Mol_Feturizer/New_Systems/rnas/4b5r

>  <Rbt.Executable>
rbdock ($Id: //depot/dev/client3/rdock/2013.1/src/exe/rbdock.cxx#4 $)

>  <Rbt.Library>
libRbt.so (2013.1, Build901 2013/11/27)

>  <Rbt.Parameter_File>
/export/apps/rDock/src/rDock_2013.1_src/data/scripts/dock_solv.prm

>  <Rbt.Receptor>
prm/pocket_docking_4.prm

>  <SCORE>
-13.7115

>  <SCORE.INTER>
-12.4472

>  <SCORE.INTER.CONST>
1

>  <SCORE.INTER.POLAR>
0

>  <SCORE.INTER.ROT>
6

>  <SCORE.INTER.SOLV>
18.8503

>  <SCORE.INTER.VDW>
-22.1816

>  <SCORE.INTER.norm>
-0.461009

>  <SCORE.INTRA>
-1.26427

>  <SCORE.INTRA.DIHEDRAL>
-2.89858

>  <SCORE.INTRA.DIHEDRAL.0>
10.2917

>  <SCORE.INTRA.POLAR>
0

>  <SCORE.INTRA.POLAR.0>
0

>  <SCORE.INTRA.REPUL>
0.0106351

>  <SCORE.INTRA.REPUL.0>
0

>  <SCORE.INTRA.SOLV>
-1.71892

>  <SCORE.INTRA.SOLV.lig_0>
-39.6315

>  <SCORE.INTRA.VDW>
0.991309

>  <SCORE.INTRA.VDW.0>
-4.02152

>  <SCORE.INTRA.norm>
-0.0468247

>  <SCORE.RESTR>
0

>  <SCORE.RESTR.CAVITY>
0

>  <SCORE.RESTR.norm>
0

>  <SCORE.SYSTEM>
0

>  <SCORE.SYSTEM.CONST>
0

>  <SCORE.SYSTEM.DIHEDRAL>
0

>  <SCORE.SYSTEM.SOLV>
0

>  <SCORE.SYSTEM.norm>
0

>  <SCORE.heavy>
27

>  <SCORE.norm>
-0.507834

>  <RMSD>
6.787

$$$$
lig.pdb
 OpenBabel11021811493D
libRbt.so/2013.1/901 2013/11/27
 27 29  0  0  0  0  0  0  0  0999 V2000
    5.4768  -15.8692   -6.7436 N   0  0  0  0  0  0  0  0  0  0  0  0
    5.3345  -14.4069   -6.4690 C   0  0  2  0  0  0  0  0  0  0  0  0
    5.2089  -14.1913   -4.9637 C   0  0  0  0  0  0  0  0  0  0  0  0
    6.2136  -14.2221   -4.2628 O   0  0  0  0  0  0  0  0  0  0  0  0
    4.1239  -13.9885   -4.4037 O   0  0  0  0  0  0  0  0  0  0  0  0
    4.1767  -13.7416   -7.2403 C   0  0  0  0  0  0  0  0  0  0  0  0
    3.2573  -14.6801   -8.0652 C   0  0  0  0  0  0  0  0  0  0  0  0
    1.8567  -13.9479   -9.0169 S   0  0  2  0  0  0  0  0  0  0  0  0
    1.1171  -12.8565   -7.7835 C   0  0  0  0  0  0  0  0  0  0  0  0
    0.6221  -15.2658   -9.0371 C   0  0  0  0  0  0  0  0  0  0  0  0
    0.9670  -16.2757  -10.1237 C   0  0  1  0  0  0  0  0  0  0  0  0
    1.0782  -15.6803  -11.4076 O   0  0  0  0  0  0  0  0  0  0  0  0
    2.3037  -16.9355   -9.9154 C   0  0  1  0  0  0  0  0  0  0  0  0
    2.1992  -17.9414   -8.9494 O   0  0  0  0  0  0  0  0  0  0  0  0
    2.5690  -17.4718  -11.3047 C   0  0  1  0  0  0  0  0  0  0  0  0
    1.8933  -18.6990  -11.4904 O   0  0  0  0  0  0  0  0  0  0  0  0
    1.9583  -16.4254  -12.2302 C   0  0  2  0  0  0  0  0  0  0  0  0
    2.9398  -15.5466  -12.9235 N   0  0  0  0  0  0  0  0  0  0  0  0
    3.2190  -15.5746  -14.2667 C   0  0  0  0  0  0  0  0  0  0  0  0
    4.1564  -14.6411  -14.5447 N   0  0  0  0  0  0  0  0  0  0  0  0
    4.4808  -14.0051  -13.4070 C   0  0  0  0  0  0  0  0  0  0  0  0
    5.3672  -12.9734  -13.1379 C   0  0  0  0  0  0  0  0  0  0  0  0
    6.0831  -12.4331  -14.1152 N   0  0  0  0  0  0  0  0  0  0  0  0
    5.4902  -12.5119  -11.8423 N   0  0  0  0  0  0  0  0  0  0  0  0
    4.7397  -13.0618  -10.8108 C   0  0  0  0  0  0  0  0  0  0  0  0
    3.8584  -14.0841  -11.0988 N   0  0  0  0  0  0  0  0  0  0  0  0
    3.7303  -14.5581  -12.3723 C   0  0  0  0  0  0  0  0  0  0  0  0
  2  3  1  1  0  0  0
  2  6  1  0  0  0  0
  2  1  1  0  0  0  0
  4  3  2  0  0  0  0
  5  3  1  0  0  0  0
  6  7  2  0  0  0  0
  8  7  1  1  0  0  0
  8  9  1  0  0  0  0
  8 10  1  0  0  0  0
 11 10  1  1  0  0  0
 11 13  1  0  0  0  0
 12 11  1  0  0  0  0
 12 17  1  0  0  0  0
 13 14  1  1  0  0  0
 13 15  1  0  0  0  0
 15 16  1  1  0  0  0
 17 18  1  1  0  0  0
 17 15  1  0  0  0  0
 18 19  1  0  0  0  0
 20 19  2  0  0  0  0
 21 27  2  0  0  0  0
 21 20  1  0  0  0  0
 22 21  1  0  0  0  0
 23 22  1  0  0  0  0
 24 22  2  0  0  0  0
 24 25  1  0  0  0  0
 25 26  2  0  0  0  0
 26 27  1  0  0  0  0
 27 18  1  0  0  0  0
M  END
>  <CHROM.1>
78.84458208,5.64965359,-47.23650616,-80.80305479,-56.53091526,-130.45422680
3.38763617,-14.87870830,-9.94842364,-1.40862971,-0.75882298,-1.54469869

>  <Name>
lig.pdb

>  <RI>
0

>  <Rbt.Current_Directory>
/home/itssahil/PROJECTS/Mol_Feturizer/New_Systems/rnas/4b5r

>  <Rbt.Executable>
rbdock ($Id: //depot/dev/client3/rdock/2013.1/src/exe/rbdock.cxx#4 $)

>  <Rbt.Library>
libRbt.so (2013.1, Build901 2013/11/27)

>  <Rbt.Parameter_File>
/export/apps/rDock/src/rDock_2013.1_src/data/scripts/dock_solv.prm

>  <Rbt.Receptor>
prm/pocket_docking_6.prm

>  <SCORE>
-19.3886

>  <SCORE.INTER>
-17.8031

>  <SCORE.INTER.CONST>
1

>  <SCORE.INTER.POLAR>
0

>  <SCORE.INTER.ROT>
6

>  <SCORE.INTER.SOLV>
12.3831

>  <SCORE.INTER.VDW>
-23.5964

>  <SCORE.INTER.norm>
-0.659374

>  <SCORE.INTRA>
-1.5855

>  <SCORE.INTRA.DIHEDRAL>
-2.89177

>  <SCORE.INTRA.DIHEDRAL.0>
10.2917

>  <SCORE.INTRA.POLAR>
0

>  <SCORE.INTRA.POLAR.0>
0

>  <SCORE.INTRA.REPUL>
0

>  <SCORE.INTRA.REPUL.0>
0

>  <SCORE.INTRA.SOLV>
-1.20597

>  <SCORE.INTRA.SOLV.lig_0>
-39.6315

>  <SCORE.INTRA.VDW>
0.463375

>  <SCORE.INTRA.VDW.0>
-4.02152

>  <SCORE.INTRA.norm>
-0.0587221

>  <SCORE.RESTR>
0

>  <SCORE.RESTR.CAVITY>
0

>  <SCORE.RESTR.norm>
0

>  <SCORE.SYSTEM>
0

>  <SCORE.SYSTEM.CONST>
0

>  <SCORE.SYSTEM.DIHEDRAL>
0

>  <SCORE.SYSTEM.SOLV>
0

>  <SCORE.SYSTEM.norm>
0

>  <SCORE.heavy>
27

>  <SCORE.norm>
-0.718096

>  <RMSD>
6.790

$$$$
lig.pdb
 OpenBabel11021811493D
libRbt.so/2013.1/901 2013/11/27
 27 29  0  0  0  0  0  0  0  0999 V2000
    5.5013  -15.7720   -6.7748 N   0  0  0  0  0  0  0  0  0  0  0  0
    5.3263  -14.3139   -6.4970 C   0  0  2  0  0  0  0  0  0  0  0  0
    5.2069  -14.1033   -4.9905 C   0  0  0  0  0  0  0  0  0  0  0  0
    4.0969  -14.0292   -4.4766 O   0  0  0  0  0  0  0  0  0  0  0  0
    6.1916  -13.9964   -4.2483 O   0  0  0  0  0  0  0  0  0  0  0  0
    4.1473  -13.6753   -7.2586 C   0  0  0  0  0  0  0  0  0  0  0  0
    3.2620  -14.6301   -8.1020 C   0  0  0  0  0  0  0  0  0  0  0  0
    1.8383  -13.9297   -9.0433 S   0  0  2  0  0  0  0  0  0  0  0  0
    1.0943  -12.8408   -7.8104 C   0  0  0  0  0  0  0  0  0  0  0  0
    0.6263  -15.2686   -9.0384 C   0  0  0  0  0  0  0  0  0  0  0  0
    0.9669  -16.2734  -10.1310 C   0  0  1  0  0  0  0  0  0  0  0  0
    1.0809  -15.6707  -11.4113 O   0  0  0  0  0  0  0  0  0  0  0  0
    2.3006  -16.9404   -9.9266 C   0  0  1  0  0  0  0  0  0  0  0  0
    2.1914  -17.9517   -8.9667 O   0  0  0  0  0  0  0  0  0  0  0  0
    2.5638  -17.4695  -11.3191 C   0  0  1  0  0  0  0  0  0  0  0  0
    1.8826  -18.6924  -11.5123 O   0  0  0  0  0  0  0  0  0  0  0  0
    1.9579  -16.4147  -12.2383 C   0  0  2  0  0  0  0  0  0  0  0  0
    2.9435  -15.5361  -12.9261 N   0  0  0  0  0  0  0  0  0  0  0  0
    3.2235  -15.5578  -14.2692 C   0  0  0  0  0  0  0  0  0  0  0  0
    4.1648  -14.6266  -14.5414 N   0  0  0  0  0  0  0  0  0  0  0  0
    4.4911  -13.9983  -13.4000 C   0  0  0  0  0  0  0  0  0  0  0  0
    5.3814  -12.9716  -13.1246 C   0  0  0  0  0  0  0  0  0  0  0  0
    6.1002  -12.4289  -14.0984 N   0  0  0  0  0  0  0  0  0  0  0  0
    5.5054  -12.5178  -11.8264 N   0  0  0  0  0  0  0  0  0  0  0  0
    4.7520  -13.0703  -10.7984 C   0  0  0  0  0  0  0  0  0  0  0  0
    3.8668  -14.0874  -11.0926 N   0  0  0  0  0  0  0  0  0  0  0  0
    3.7376  -14.5539  -12.3689 C   0  0  0  0  0  0  0  0  0  0  0  0
  2  3  1  1  0  0  0
  2  6  1  0  0  0  0
  2  1  1  0  0  0  0
  4  3  2  0  0  0  0
  5  3  1  0  0  0  0
  6  7  2  0  0  0  0
  8  7  1  1  0  0  0
  8  9  1  0  0  0  0
  8 10  1  0  0  0  0
 11 10  1  1  0  0  0
 11 13  1  0  0  0  0
 12 11  1  0  0  0  0
 12 17  1  0  0  0  0
 13 14  1  1  0  0  0
 13 15  1  0  0  0  0
 15 16  1  1  0  0  0
 17 18  1  1  0  0  0
 17 15  1  0  0  0  0
 18 19  1  0  0  0  0
 20 19  2  0  0  0  0
 21 27  2  0  0  0  0
 21 20  1  0  0  0  0
 22 21  1  0  0  0  0
 23 22  1  0  0  0  0
 24 22  2  0  0  0  0
 24 25  1  0  0  0  0
 25 26  2  0  0  0  0
 26 27  1  0  0  0  0
 27 18  1  0  0  0  0
M  END
>  <CHROM.1>
-95.69574172,4.40060473,-45.27811736,-81.44118806,-54.80419411,-130.50213527
3.38560291,-14.85398167,-9.95942545,-1.40435623,-0.75839351,-1.55886867

>  <Name>
lig.pdb

>  <RI>
0

>  <Rbt.Current_Directory>
/home/itssahil/PROJECTS/Mol_Feturizer/New_Systems/rnas/4b5r

>  <Rbt.Executable>
rbdock ($Id: //depot/dev/client3/rdock/2013.1/src/exe/rbdock.cxx#4 $)

>  <Rbt.Library>
libRbt.so (2013.1, Build901 2013/11/27)

>  <Rbt.Parameter_File>
/export/apps/rDock/src/rDock_2013.1_src/data/scripts/dock_solv.prm

>  <Rbt.Receptor>
prm/pocket_docking_4.prm

>  <SCORE>
-19.0093

>  <SCORE.INTER>
-17.7107

>  <SCORE.INTER.CONST>
1

>  <SCORE.INTER.POLAR>
0

>  <SCORE.INTER.ROT>
6

>  <SCORE.INTER.SOLV>
12.9334

>  <SCORE.INTER.VDW>
-23.7183

>  <SCORE.INTER.norm>
-0.655954

>  <SCORE.INTRA>
-1.29852

>  <SCORE.INTRA.DIHEDRAL>
-2.8244

>  <SCORE.INTRA.DIHEDRAL.0>
10.2917

>  <SCORE.INTRA.POLAR>
0

>  <SCORE.INTRA.POLAR.0>
0

>  <SCORE.INTRA.REPUL>
0

>  <SCORE.INTRA.REPUL.0>
0

>  <SCORE.INTRA.SOLV>
-0.886765

>  <SCORE.INTRA.SOLV.lig_0>
-39.6315

>  <SCORE.INTRA.VDW>
0.557058

>  <SCORE.INTRA.VDW.0>
-4.02152

>  <SCORE.INTRA.norm>
-0.0480934

>  <SCORE.RESTR>
0

>  <SCORE.RESTR.CAVITY>
0

>  <SCORE.RESTR.norm>
0

>  <SCORE.SYSTEM>
0

>  <SCORE.SYSTEM.CONST>
0

>  <SCORE.SYSTEM.DIHEDRAL>
0

>  <SCORE.SYSTEM.SOLV>
0

>  <SCORE.SYSTEM.norm>
0

>  <SCORE.heavy>
27

>  <SCORE.norm>
-0.704047

>  <RMSD>
6.811

$$$$
lig.pdb
 OpenBabel11021811493D
libRbt.so/2013.1/901 2013/11/27
 27 29  0  0  0  0  0  0  0  0999 V2000
    7.4242  -15.3924   -5.6005 N   0  0  0  0  0  0  0  0  0  0  0  0
    6.2918  -14.4350   -5.4131 C   0  0  2  0  0  0  0  0  0  0  0  0
    5.8541  -14.4590   -3.9516 C   0  0  0  0  0  0  0  0  0  0  0  0
    4.8270  -13.8794   -3.6187 O   0  0  0  0  0  0  0  0  0  0  0  0
    6.4977  -15.0400   -3.0684 O   0  0  0  0  0  0  0  0  0  0  0  0
    5.1070  -14.6823   -6.3687 C   0  0  0  0  0  0  0  0  0  0  0  0
    4.0377  -13.5620   -6.4593 C   0  0  0  0  0  0  0  0  0  0  0  0
    2.5906  -13.7970   -7.5791 S   0  0  2  0  0  0  0  0  0  0  0  0
    1.2679  -13.0263   -6.6220 C   0  0  0  0  0  0  0  0  0  0  0  0
    2.1568  -15.5355   -7.3533 C   0  0  0  0  0  0  0  0  0  0  0  0
    1.1918  -15.9702   -8.4484 C   0  0  1  0  0  0  0  0  0  0  0  0
    1.2690  -15.1477   -9.6029 O   0  0  0  0  0  0  0  0  0  0  0  0
    1.4746  -17.3529   -8.9715 C   0  0  1  0  0  0  0  0  0  0  0  0
    0.9758  -18.3142   -8.0866 O   0  0  0  0  0  0  0  0  0  0  0  0
    0.7274  -17.3116  -10.2861 C   0  0  1  0  0  0  0  0  0  0  0  0
   -0.6446  -17.5764  -10.0750 O   0  0  0  0  0  0  0  0  0  0  0  0
    0.8865  -15.8710  -10.7592 C   0  0  2  0  0  0  0  0  0  0  0  0
    1.8529  -15.6764  -11.8747 N   0  0  0  0  0  0  0  0  0  0  0  0
    1.7059  -16.1699  -13.1466 C   0  0  0  0  0  0  0  0  0  0  0  0
    2.7708  -15.7991  -13.8923 N   0  0  0  0  0  0  0  0  0  0  0  0
    3.5980  -15.0679  -13.1274 C   0  0  0  0  0  0  0  0  0  0  0  0
    4.8071  -14.4450  -13.3966 C   0  0  0  0  0  0  0  0  0  0  0  0
    5.3429  -14.5169  -14.6079 N   0  0  0  0  0  0  0  0  0  0  0  0
    5.4424  -13.7444  -12.3905 N   0  0  0  0  0  0  0  0  0  0  0  0
    4.8882  -13.6526  -11.1200 C   0  0  0  0  0  0  0  0  0  0  0  0
    3.6812  -14.2743  -10.8724 N   0  0  0  0  0  0  0  0  0  0  0  0
    3.0436  -14.9780  -11.8530 C   0  0  0  0  0  0  0  0  0  0  0  0
  2  3  1  1  0  0  0
  2  6  1  0  0  0  0
  2  1  1  0  0  0  0
  4  3  2  0  0  0  0
  5  3  1  0  0  0  0
  6  7  2  0  0  0  0
  8  7  1  1  0  0  0
  8  9  1  0  0  0  0
  8 10  1  0  0  0  0
 11 10  1  1  0  0  0
 11 13  1  0  0  0  0
 12 11  1  0  0  0  0
 12 17  1  0  0  0  0
 13 14  1  1  0  0  0
 13 15  1  0  0  0  0
 15 16  1  1  0  0  0
 17 18  1  6  0  0  0
 17 15  1  0  0  0  0
 18 19  1  0  0  0  0
 20 19  2  0  0  0  0
 21 27  2  0  0  0  0
 21 20  1  0  0  0  0
 22 21  1  0  0  0  0
 23 22  1  0  0  0  0
 24 22  2  0  0  0  0
 24 25  1  0  0  0  0
 25 26  2  0  0  0  0
 26 27  1  0  0  0  0
 27 18  1  0  0  0  0
M  END
>  <CHROM.1>
-170.44252512,-166.94890935,143.14385546,-166.71581478,22.59400049,-175.18970371
3.22999551,-15.12755436,-9.04078584,-1.21871880,-0.44570226,-1.55303979

>  <Name>
lig.pdb

>  <RI>
0

>  <Rbt.Current_Directory>
/home/itssahil/PROJECTS/Mol_Feturizer/New_Systems/rnas/4b5r

>  <Rbt.Executable>
rbdock ($Id: //depot/dev/client3/rdock/2013.1/src/exe/rbdock.cxx#4 $)

>  <Rbt.Library>
libRbt.so (2013.1, Build901 2013/11/27)

>  <Rbt.Parameter_File>
/export/apps/rDock/src/rDock_2013.1_src/data/scripts/dock_solv.prm

>  <Rbt.Receptor>
prm/pocket_docking_3.prm

>  <SCORE>
-15.0551

>  <SCORE.INTER>
-18.0608

>  <SCORE.INTER.CONST>
1

>  <SCORE.INTER.POLAR>
0

>  <SCORE.INTER.ROT>
6

>  <SCORE.INTER.SOLV>
18.5799

>  <SCORE.INTER.VDW>
-25.8338

>  <SCORE.INTER.norm>
-0.668919

>  <SCORE.INTRA>
2.40917

>  <SCORE.INTRA.DIHEDRAL>
3.61977

>  <SCORE.INTRA.DIHEDRAL.0>
10.2917

>  <SCORE.INTRA.POLAR>
0

>  <SCORE.INTRA.POLAR.0>
0

>  <SCORE.INTRA.REPUL>
0.0417952

>  <SCORE.INTRA.REPUL.0>
0

>  <SCORE.INTRA.SOLV>
-2.49641

>  <SCORE.INTRA.SOLV.lig_0>
-39.6315

>  <SCORE.INTRA.VDW>
1.63852

>  <SCORE.INTRA.VDW.0>
-4.02152

>  <SCORE.INTRA.norm>
0.0892287

>  <SCORE.RESTR>
0.596546

>  <SCORE.RESTR.CAVITY>
0.596546

>  <SCORE.RESTR.norm>
0.0220943

>  <SCORE.SYSTEM>
0

>  <SCORE.SYSTEM.CONST>
0

>  <SCORE.SYSTEM.DIHEDRAL>
0

>  <SCORE.SYSTEM.SOLV>
0

>  <SCORE.SYSTEM.norm>
0

>  <SCORE.heavy>
27

>  <SCORE.norm>
-0.557596

>  <RMSD>
6.815

$$$$
lig.pdb
 OpenBabel11021811493D
libRbt.so/2013.1/901 2013/11/27
 27 29  0  0  0  0  0  0  0  0999 V2000
    7.0619  -14.8893   -5.6618 N   0  0  0  0  0  0  0  0  0  0  0  0
    5.5840  -15.1101   -5.6953 C   0  0  2  0  0  0  0  0  0  0  0  0
    4.9534  -14.4557   -4.4696 C   0  0  0  0  0  0  0  0  0  0  0  0
    3.8975  -13.8449   -4.5865 O   0  0  0  0  0  0  0  0  0  0  0  0
    5.4658  -14.5068   -3.3441 O   0  0  0  0  0  0  0  0  0  0  0  0
    5.1820  -16.5934   -5.8218 C   0  0  0  0  0  0  0  0  0  0  0  0
    4.0961  -16.9348   -6.8758 C   0  0  0  0  0  0  0  0  0  0  0  0
    3.5642  -18.6902   -7.0738 S   0  0  2  0  0  0  0  0  0  0  0  0
    4.9398  -19.5705   -6.3042 C   0  0  0  0  0  0  0  0  0  0  0  0
    3.9091  -19.0450   -8.8107 C   0  0  0  0  0  0  0  0  0  0  0  0
    2.8609  -18.3751   -9.6894 C   0  0  1  0  0  0  0  0  0  0  0  0
    2.9180  -16.9581   -9.6244 O   0  0  0  0  0  0  0  0  0  0  0  0
    3.0362  -18.6762  -11.1536 C   0  0  1  0  0  0  0  0  0  0  0  0
    2.5357  -19.9487  -11.4472 O   0  0  0  0  0  0  0  0  0  0  0  0
    2.2190  -17.5608  -11.7671 C   0  0  1  0  0  0  0  0  0  0  0  0
    0.8487  -17.9057  -11.7700 O   0  0  0  0  0  0  0  0  0  0  0  0
    2.4309  -16.3822  -10.8234 C   0  0  2  0  0  0  0  0  0  0  0  0
    3.3418  -15.3211  -11.3339 N   0  0  0  0  0  0  0  0  0  0  0  0
    2.9641  -14.2631  -12.1218 C   0  0  0  0  0  0  0  0  0  0  0  0
    4.0482  -13.5026  -12.3932 N   0  0  0  0  0  0  0  0  0  0  0  0
    5.1171  -14.0455  -11.7877 C   0  0  0  0  0  0  0  0  0  0  0  0
    6.4495  -13.6655  -11.7350 C   0  0  0  0  0  0  0  0  0  0  0  0
    6.8599  -12.5723  -12.3643 N   0  0  0  0  0  0  0  0  0  0  0  0
    7.3414  -14.4353  -11.0148 N   0  0  0  0  0  0  0  0  0  0  0  0
    6.9238  -15.5773  -10.3431 C   0  0  0  0  0  0  0  0  0  0  0  0
    5.5926  -15.9365  -10.4022 N   0  0  0  0  0  0  0  0  0  0  0  0
    4.6990  -15.1918  -11.1163 C   0  0  0  0  0  0  0  0  0  0  0  0
  2  3  1  1  0  0  0
  2  6  1  0  0  0  0
  2  1  1  0  0  0  0
  4  3  2  0  0  0  0
  5  3  1  0  0  0  0
  6  7  2  0  0  0  0
  8  7  1  6  0  0  0
  8  9  1  0  0  0  0
  8 10  1  0  0  0  0
 11 10  1  1  0  0  0
 11 13  1  0  0  0  0
 12 11  1  0  0  0  0
 12 17  1  0  0  0  0
 13 14  1  1  0  0  0
 13 15  1  0  0  0  0
 15 16  1  1  0  0  0
 17 18  1  6  0  0  0
 17 15  1  0  0  0  0
 18 19  1  0  0  0  0
 20 19  2  0  0  0  0
 21 27  2  0  0  0  0
 21 20  1  0  0  0  0
 22 21  1  0  0  0  0
 23 22  1  0  0  0  0
 24 22  2  0  0  0  0
 24 25  1  0  0  0  0
 25 26  2  0  0  0  0
 26 27  1  0  0  0  0
 27 18  1  0  0  0  0
M  END
>  <CHROM.1>
138.86535387,-133.12938421,-18.81268247,-74.96619574,65.37373124,-153.83154480
4.32424842,-16.24050227,-9.09235321,-1.18195175,-0.98313836,-1.28658804

>  <Name>
lig.pdb

>  <RI>
0

>  <Rbt.Current_Directory>
/home/itssahil/PROJECTS/Mol_Feturizer/New_Systems/rnas/4b5r

>  <Rbt.Executable>
rbdock ($Id: //depot/dev/client3/rdock/2013.1/src/exe/rbdock.cxx#4 $)

>  <Rbt.Library>
libRbt.so (2013.1, Build901 2013/11/27)

>  <Rbt.Parameter_File>
/export/apps/rDock/src/rDock_2013.1_src/data/scripts/dock_solv.prm

>  <Rbt.Receptor>
prm/pocket_docking_4.prm

>  <SCORE>
-11.4194

>  <SCORE.INTER>
-10.0053

>  <SCORE.INTER.CONST>
1

>  <SCORE.INTER.POLAR>
0

>  <SCORE.INTER.ROT>
6

>  <SCORE.INTER.SOLV>
16.2621

>  <SCORE.INTER.VDW>
-19.6909

>  <SCORE.INTER.norm>
-0.370568

>  <SCORE.INTRA>
-1.41651

>  <SCORE.INTRA.DIHEDRAL>
-2.79615

>  <SCORE.INTRA.DIHEDRAL.0>
10.2917

>  <SCORE.INTRA.POLAR>
0

>  <SCORE.INTRA.POLAR.0>
0

>  <SCORE.INTRA.REPUL>
0

>  <SCORE.INTRA.REPUL.0>
0

>  <SCORE.INTRA.SOLV>
-2.67456

>  <SCORE.INTRA.SOLV.lig_0>
-39.6315

>  <SCORE.INTRA.VDW>
1.31884

>  <SCORE.INTRA.VDW.0>
-4.02152

>  <SCORE.INTRA.norm>
-0.0524633

>  <SCORE.RESTR>
0.00250022

>  <SCORE.RESTR.CAVITY>
0.00250022

>  <SCORE.RESTR.norm>
9.26007e-05

>  <SCORE.SYSTEM>
0

>  <SCORE.SYSTEM.CONST>
0

>  <SCORE.SYSTEM.DIHEDRAL>
0

>  <SCORE.SYSTEM.SOLV>
0

>  <SCORE.SYSTEM.norm>
0

>  <SCORE.heavy>
27

>  <SCORE.norm>
-0.422939

>  <RMSD>
6.815

$$$$
lig.pdb
 OpenBabel11021811493D
libRbt.so/2013.1/901 2013/11/27
 27 29  0  0  0  0  0  0  0  0999 V2000
    6.7621  -15.6973   -6.6508 N   0  0  0  0  0  0  0  0  0  0  0  0
    5.3507  -15.3809   -6.2740 C   0  0  2  0  0  0  0  0  0  0  0  0
    5.3161  -14.8989   -4.8268 C   0  0  0  0  0  0  0  0  0  0  0  0
    4.5969  -13.9550   -4.5211 O   0  0  0  0  0  0  0  0  0  0  0  0
    5.9935  -15.4185   -3.9307 O   0  0  0  0  0  0  0  0  0  0  0  0
    4.3700  -16.5469   -6.5117 C   0  0  0  0  0  0  0  0  0  0  0  0
    4.9935  -17.9218   -6.8687 C   0  0  0  0  0  0  0  0  0  0  0  0
    3.8758  -19.3579   -7.1720 S   0  0  2  0  0  0  0  0  0  0  0  0
    4.8844  -20.7300   -6.5724 C   0  0  0  0  0  0  0  0  0  0  0  0
    4.0126  -19.6339   -8.9515 C   0  0  0  0  0  0  0  0  0  0  0  0
    3.1066  -18.6601   -9.6932 C   0  0  1  0  0  0  0  0  0  0  0  0
    3.4031  -17.3038   -9.3966 O   0  0  0  0  0  0  0  0  0  0  0  0
    3.2493  -18.7414  -11.1893 C   0  0  1  0  0  0  0  0  0  0  0  0
    2.5439  -19.8442  -11.6814 O   0  0  0  0  0  0  0  0  0  0  0  0
    2.6429  -17.4176  -11.5994 C   0  0  1  0  0  0  0  0  0  0  0  0
    1.2340  -17.5191  -11.6399 O   0  0  0  0  0  0  0  0  0  0  0  0
    3.0385  -16.4640  -10.4775 C   0  0  2  0  0  0  0  0  0  0  0  0
    4.1240  -15.5041  -10.8189 N   0  0  0  0  0  0  0  0  0  0  0  0
    3.9468  -14.1714  -11.0936 C   0  0  0  0  0  0  0  0  0  0  0  0
    5.1473  -13.6097  -11.3595 N   0  0  0  0  0  0  0  0  0  0  0  0
    6.0970  -14.5535  -11.2529 C   0  0  0  0  0  0  0  0  0  0  0  0
    7.4739  -14.5102  -11.4108 C   0  0  0  0  0  0  0  0  0  0  0  0
    8.0767  -13.3713  -11.7253 N   0  0  0  0  0  0  0  0  0  0  0  0
    8.2091  -15.6651  -11.2305 N   0  0  0  0  0  0  0  0  0  0  0  0
    7.5920  -16.8626  -10.8915 C   0  0  0  0  0  0  0  0  0  0  0  0
    6.2213  -16.8850  -10.7329 N   0  0  0  0  0  0  0  0  0  0  0  0
    5.4782  -15.7547  -10.9155 C   0  0  0  0  0  0  0  0  0  0  0  0
  2  3  1  1  0  0  0
  2  6  1  0  0  0  0
  2  1  1  0  0  0  0
  4  3  2  0  0  0  0
  5  3  1  0  0  0  0
  6  7  2  0  0  0  0
  8  7  1  6  0  0  0
  8  9  1  0  0  0  0
  8 10  1  0  0  0  0
 11 10  1  1  0  0  0
 11 13  1  0  0  0  0
 12 11  1  0  0  0  0
 12 17  1  0  0  0  0
 13 14  1  6  0  0  0
 13 15  1  0  0  0  0
 15 16  1  1  0  0  0
 17 18  1  6  0  0  0
 17 15  1  0  0  0  0
 18 19  1  0  0  0  0
 20 19  2  0  0  0  0
 21 27  2  0  0  0  0
 21 20  1  0  0  0  0
 22 21  1  0  0  0  0
 23 22  1  0  0  0  0
 24 22  2  0  0  0  0
 24 25  1  0  0  0  0
 25 26  2  0  0  0  0
 26 27  1  0  0  0  0
 27 18  1  0  0  0  0
M  END
>  <CHROM.1>
138.81928006,9.80315225,-147.79301319,-81.42517966,57.58675498,-136.29634723
4.78845181,-16.70569443,-9.09733263,-1.46561924,-0.93887880,-1.43197056

>  <Name>
lig.pdb

>  <RI>
0

>  <Rbt.Current_Directory>
/home/itssahil/PROJECTS/Mol_Feturizer/New_Systems/rnas/4b5r

>  <Rbt.Executable>
rbdock ($Id: //depot/dev/client3/rdock/2013.1/src/exe/rbdock.cxx#4 $)

>  <Rbt.Library>
libRbt.so (2013.1, Build901 2013/11/27)

>  <Rbt.Parameter_File>
/export/apps/rDock/src/rDock_2013.1_src/data/scripts/dock_solv.prm

>  <Rbt.Receptor>
prm/pocket_docking_6.prm

>  <SCORE>
-10.525

>  <SCORE.INTER>
-9.11708

>  <SCORE.INTER.CONST>
1

>  <SCORE.INTER.POLAR>
0

>  <SCORE.INTER.ROT>
6

>  <SCORE.INTER.SOLV>
15.189

>  <SCORE.INTER.VDW>
-18.741

>  <SCORE.INTER.norm>
-0.33767

>  <SCORE.INTRA>
-1.40793

>  <SCORE.INTRA.DIHEDRAL>
-1.18514

>  <SCORE.INTRA.DIHEDRAL.0>
10.2917

>  <SCORE.INTRA.POLAR>
0

>  <SCORE.INTRA.POLAR.0>
0

>  <SCORE.INTRA.REPUL>
0

>  <SCORE.INTRA.REPUL.0>
0

>  <SCORE.INTRA.SOLV>
-1.82654

>  <SCORE.INTRA.SOLV.lig_0>
-39.6315

>  <SCORE.INTRA.VDW>
0.097909

>  <SCORE.INTRA.VDW.0>
-4.02152

>  <SCORE.INTRA.norm>
-0.0521456

>  <SCORE.RESTR>
0

>  <SCORE.RESTR.CAVITY>
0

>  <SCORE.RESTR.norm>
0

>  <SCORE.SYSTEM>
0

>  <SCORE.SYSTEM.CONST>
0

>  <SCORE.SYSTEM.DIHEDRAL>
0

>  <SCORE.SYSTEM.SOLV>
0

>  <SCORE.SYSTEM.norm>
0

>  <SCORE.heavy>
27

>  <SCORE.norm>
-0.389815

>  <RMSD>
6.842

$$$$
lig.pdb
 OpenBabel11021811493D
libRbt.so/2013.1/901 2013/11/27
 27 29  0  0  0  0  0  0  0  0999 V2000
    5.6293  -16.2429   -7.4959 N   0  0  0  0  0  0  0  0  0  0  0  0
    4.4511  -16.4233   -6.5941 C   0  0  2  0  0  0  0  0  0  0  0  0
    4.0645  -17.8991   -6.5666 C   0  0  0  0  0  0  0  0  0  0  0  0
    3.0013  -18.2547   -7.0615 O   0  0  0  0  0  0  0  0  0  0  0  0
    4.7803  -18.7702   -6.0561 O   0  0  0  0  0  0  0  0  0  0  0  0
    3.2511  -15.5248   -6.9555 C   0  0  0  0  0  0  0  0  0  0  0  0
    3.4051  -14.6259   -8.2104 C   0  0  0  0  0  0  0  0  0  0  0  0
    2.0090  -13.5215   -8.6949 S   0  0  2  0  0  0  0  0  0  0  0  0
    1.2935  -13.1216   -7.0863 C   0  0  0  0  0  0  0  0  0  0  0  0
    0.7553  -14.6670   -9.3097 C   0  0  0  0  0  0  0  0  0  0  0  0
    1.1891  -15.2277  -10.6576 C   0  0  1  0  0  0  0  0  0  0  0  0
    1.8611  -14.2671  -11.4583 O   0  0  0  0  0  0  0  0  0  0  0  0
    2.1801  -16.3543  -10.5385 C   0  0  1  0  0  0  0  0  0  0  0  0
    1.5214  -17.5420  -10.2047 O   0  0  0  0  0  0  0  0  0  0  0  0
    2.7559  -16.3678  -11.9373 C   0  0  1  0  0  0  0  0  0  0  0  0
    1.9069  -17.0891  -12.8066 O   0  0  0  0  0  0  0  0  0  0  0  0
    2.7587  -14.9008  -12.3524 C   0  0  2  0  0  0  0  0  0  0  0  0
    4.0956  -14.2458  -12.3462 N   0  0  0  0  0  0  0  0  0  0  0  0
    4.4796  -13.2350  -11.5015 C   0  0  0  0  0  0  0  0  0  0  0  0
    5.7561  -12.8864  -11.7780 N   0  0  0  0  0  0  0  0  0  0  0  0
    6.2058  -13.6597  -12.7798 C   0  0  0  0  0  0  0  0  0  0  0  0
    7.4288  -13.7221  -13.4303 C   0  0  0  0  0  0  0  0  0  0  0  0
    8.4175  -12.9113  -13.0773 N   0  0  0  0  0  0  0  0  0  0  0  0
    7.6060  -14.6421  -14.4446 N   0  0  0  0  0  0  0  0  0  0  0  0
    6.5825  -15.5038  -14.8181 C   0  0  0  0  0  0  0  0  0  0  0  0
    5.3741  -15.4311  -14.1554 N   0  0  0  0  0  0  0  0  0  0  0  0
    5.1789  -14.5220  -13.1560 C   0  0  0  0  0  0  0  0  0  0  0  0
  2  3  1  6  0  0  0
  2  6  1  0  0  0  0
  2  1  1  0  0  0  0
  4  3  2  0  0  0  0
  5  3  1  0  0  0  0
  6  7  2  0  0  0  0
  8  7  1  1  0  0  0
  8  9  1  0  0  0  0
  8 10  1  0  0  0  0
 11 10  1  1  0  0  0
 11 13  1  0  0  0  0
 12 11  1  0  0  0  0
 12 17  1  0  0  0  0
 13 14  1  6  0  0  0
 13 15  1  0  0  0  0
 15 16  1  6  0  0  0
 17 18  1  1  0  0  0
 17 15  1  0  0  0  0
 18 19  1  0  0  0  0
 20 19  2  0  0  0  0
 21 27  2  0  0  0  0
 21 20  1  0  0  0  0
 22 21  1  0  0  0  0
 23 22  1  0  0  0  0
 24 22  2  0  0  0  0
 24 25  1  0  0  0  0
 25 26  2  0  0  0  0
 26 27  1  0  0  0  0
 27 18  1  0  0  0  0
M  END
>  <CHROM.1>
-112.44314118,2.54715094,31.92116926,-72.00223819,-36.83764911,5.79320233
3.84040663,-15.21077076,-10.43546837,-2.06478780,0.16282214,-1.15957927

>  <Name>
lig.pdb

>  <RI>
0

>  <Rbt.Current_Directory>
/home/itssahil/PROJECTS/Mol_Feturizer/New_Systems/rnas/4b5r

>  <Rbt.Executable>
rbdock ($Id: //depot/dev/client3/rdock/2013.1/src/exe/rbdock.cxx#4 $)

>  <Rbt.Library>
libRbt.so (2013.1, Build901 2013/11/27)

>  <Rbt.Parameter_File>
/export/apps/rDock/src/rDock_2013.1_src/data/scripts/dock_solv.prm

>  <Rbt.Receptor>
prm/pocket_docking_4.prm

>  <SCORE>
-11.6836

>  <SCORE.INTER>
-12.4823

>  <SCORE.INTER.CONST>
1

>  <SCORE.INTER.POLAR>
0

>  <SCORE.INTER.ROT>
6

>  <SCORE.INTER.SOLV>
9.99311

>  <SCORE.INTER.VDW>
-19.2525

>  <SCORE.INTER.norm>
-0.462306

>  <SCORE.INTRA>
0.798669

>  <SCORE.INTRA.DIHEDRAL>
-0.119403

>  <SCORE.INTRA.DIHEDRAL.0>
10.2917

>  <SCORE.INTRA.POLAR>
0

>  <SCORE.INTRA.POLAR.0>
0

>  <SCORE.INTRA.REPUL>
0

>  <SCORE.INTRA.REPUL.0>
0

>  <SCORE.INTRA.SOLV>
-1.80811

>  <SCORE.INTRA.SOLV.lig_0>
-39.6315

>  <SCORE.INTRA.VDW>
1.76242

>  <SCORE.INTRA.VDW.0>
-4.02152

>  <SCORE.INTRA.norm>
0.0295803

>  <SCORE.RESTR>
0

>  <SCORE.RESTR.CAVITY>
0

>  <SCORE.RESTR.norm>
0

>  <SCORE.SYSTEM>
0

>  <SCORE.SYSTEM.CONST>
0

>  <SCORE.SYSTEM.DIHEDRAL>
0

>  <SCORE.SYSTEM.SOLV>
0

>  <SCORE.SYSTEM.norm>
0

>  <SCORE.heavy>
27

>  <SCORE.norm>
-0.432725

>  <RMSD>
6.845

$$$$
lig.pdb
 OpenBabel11021811493D
libRbt.so/2013.1/901 2013/11/27
 27 29  0  0  0  0  0  0  0  0999 V2000
    5.5350  -15.9906   -7.2080 N   0  0  0  0  0  0  0  0  0  0  0  0
    5.5049  -14.5440   -6.8332 C   0  0  2  0  0  0  0  0  0  0  0  0
    5.5266  -14.4215   -5.3125 C   0  0  0  0  0  0  0  0  0  0  0  0
    5.9758  -13.4060   -4.7942 O   0  0  0  0  0  0  0  0  0  0  0  0
    5.1109  -15.3136   -4.5620 O   0  0  0  0  0  0  0  0  0  0  0  0
    4.3249  -13.7681   -7.4524 C   0  0  0  0  0  0  0  0  0  0  0  0
    3.2224  -14.6109   -8.1458 C   0  0  0  0  0  0  0  0  0  0  0  0
    1.7857  -13.7444   -8.9130 S   0  0  2  0  0  0  0  0  0  0  0  0
    1.1238  -12.8308   -7.5035 C   0  0  0  0  0  0  0  0  0  0  0  0
    0.5340  -15.0389   -9.0520 C   0  0  0  0  0  0  0  0  0  0  0  0
    0.8903  -15.9765  -10.1981 C   0  0  1  0  0  0  0  0  0  0  0  0
    1.2532  -15.2803  -11.3808 O   0  0  0  0  0  0  0  0  0  0  0  0
    2.0882  -16.8395   -9.9059 C   0  0  1  0  0  0  0  0  0  0  0  0
    1.7220  -17.9097   -9.0834 O   0  0  0  0  0  0  0  0  0  0  0  0
    2.4696  -17.2697  -11.3051 C   0  0  1  0  0  0  0  0  0  0  0  0
    1.6717  -18.3622  -11.7133 O   0  0  0  0  0  0  0  0  0  0  0  0
    2.1333  -16.0603  -12.1705 C   0  0  2  0  0  0  0  0  0  0  0  0
    3.3067  -15.2687  -12.6317 N   0  0  0  0  0  0  0  0  0  0  0  0
    3.4718  -13.9182  -12.4535 C   0  0  0  0  0  0  0  0  0  0  0  0
    4.6500  -13.5395  -12.9974 N   0  0  0  0  0  0  0  0  0  0  0  0
    5.2524  -14.6224  -13.5156 C   0  0  0  0  0  0  0  0  0  0  0  0
    6.4639  -14.7901  -14.1688 C   0  0  0  0  0  0  0  0  0  0  0  0
    7.2635  -13.7519  -14.3746 N   0  0  0  0  0  0  0  0  0  0  0  0
    6.8298  -16.0512  -14.5961 N   0  0  0  0  0  0  0  0  0  0  0  0
    6.0068  -17.1490  -14.3786 C   0  0  0  0  0  0  0  0  0  0  0  0
    4.8074  -16.9636  -13.7217 N   0  0  0  0  0  0  0  0  0  0  0  0
    4.4262  -15.7226  -13.2999 C   0  0  0  0  0  0  0  0  0  0  0  0
  2  3  1  1  0  0  0
  2  6  1  0  0  0  0
  2  1  1  0  0  0  0
  4  3  2  0  0  0  0
  5  3  1  0  0  0  0
  6  7  2  0  0  0  0
  8  7  1  1  0  0  0
  8  9  1  0  0  0  0
  8 10  1  0  0  0  0
 11 10  1  1  0  0  0
 11 13  1  0  0  0  0
 12 11  1  0  0  0  0
 12 17  1  0  0  0  0
 13 14  1  1  0  0  0
 13 15  1  0  0  0  0
 15 16  1  6  0  0  0
 17 18  1  1  0  0  0
 17 15  1  0  0  0  0
 18 19  1  0  0  0  0
 20 19  2  0  0  0  0
 21 27  2  0  0  0  0
 21 20  1  0  0  0  0
 22 21  1  0  0  0  0
 23 22  1  0  0  0  0
 24 22  2  0  0  0  0
 24 25  1  0  0  0  0
 25 26  2  0  0  0  0
 26 27  1  0  0  0  0
 27 18  1  0  0  0  0
M  END
>  <CHROM.1>
154.07802948,10.42112346,-57.60264895,-74.95265021,-46.84885532,-6.63079513
3.68716860,-15.24462985,-10.27927509,-1.71617702,-0.27908633,-1.77954888

>  <Name>
lig.pdb

>  <RI>
0

>  <Rbt.Current_Directory>
/home/itssahil/PROJECTS/Mol_Feturizer/New_Systems/rnas/4b5r

>  <Rbt.Executable>
rbdock ($Id: //depot/dev/client3/rdock/2013.1/src/exe/rbdock.cxx#4 $)

>  <Rbt.Library>
libRbt.so (2013.1, Build901 2013/11/27)

>  <Rbt.Parameter_File>
/export/apps/rDock/src/rDock_2013.1_src/data/scripts/dock_solv.prm

>  <Rbt.Receptor>
prm/pocket_docking_6.prm

>  <SCORE>
-14.082

>  <SCORE.INTER>
-13.3311

>  <SCORE.INTER.CONST>
1

>  <SCORE.INTER.POLAR>
0

>  <SCORE.INTER.ROT>
6

>  <SCORE.INTER.SOLV>
11.3395

>  <SCORE.INTER.VDW>
-20.2672

>  <SCORE.INTER.norm>
-0.493743

>  <SCORE.INTRA>
-0.75093

>  <SCORE.INTRA.DIHEDRAL>
-2.36221

>  <SCORE.INTRA.DIHEDRAL.0>
10.2917

>  <SCORE.INTRA.POLAR>
0

>  <SCORE.INTRA.POLAR.0>
0

>  <SCORE.INTRA.REPUL>
0

>  <SCORE.INTRA.REPUL.0>
0

>  <SCORE.INTRA.SOLV>
-2.15651

>  <SCORE.INTRA.SOLV.lig_0>
-39.6315

>  <SCORE.INTRA.VDW>
1.50843

>  <SCORE.INTRA.VDW.0>
-4.02152

>  <SCORE.INTRA.norm>
-0.0278122

>  <SCORE.RESTR>
0

>  <SCORE.RESTR.CAVITY>
0

>  <SCORE.RESTR.norm>
0

>  <SCORE.SYSTEM>
0

>  <SCORE.SYSTEM.CONST>
0

>  <SCORE.SYSTEM.DIHEDRAL>
0

>  <SCORE.SYSTEM.SOLV>
0

>  <SCORE.SYSTEM.norm>
0

>  <SCORE.heavy>
27

>  <SCORE.norm>
-0.521555

>  <RMSD>
6.878

$$$$
lig.pdb
 OpenBabel11021811493D
libRbt.so/2013.1/901 2013/11/27
 27 29  0  0  0  0  0  0  0  0999 V2000
    0.3637  -16.0047   -8.4368 N   0  0  0  0  0  0  0  0  0  0  0  0
    1.4254  -14.9829   -8.1866 C   0  0  2  0  0  0  0  0  0  0  0  0
    1.7637  -14.2824   -9.4992 C   0  0  0  0  0  0  0  0  0  0  0  0
    1.0733  -14.4896  -10.4903 O   0  0  0  0  0  0  0  0  0  0  0  0
    2.7200  -13.5057   -9.6176 O   0  0  0  0  0  0  0  0  0  0  0  0
    2.6841  -15.5524   -7.5017 C   0  0  0  0  0  0  0  0  0  0  0  0
    3.3732  -14.6491   -6.4454 C   0  0  0  0  0  0  0  0  0  0  0  0
    4.8880  -15.2674   -5.5929 S   0  0  2  0  0  0  0  0  0  0  0  0
    5.7844  -13.7290   -5.2943 C   0  0  0  0  0  0  0  0  0  0  0  0
    5.8852  -15.9451   -6.9376 C   0  0  0  0  0  0  0  0  0  0  0  0
    6.1511  -17.4232   -6.6848 C   0  0  1  0  0  0  0  0  0  0  0  0
    7.0843  -17.6391   -5.6370 O   0  0  0  0  0  0  0  0  0  0  0  0
    4.9271  -18.1767   -6.2383 C   0  0  1  0  0  0  0  0  0  0  0  0
    4.1109  -18.4642   -7.3370 O   0  0  0  0  0  0  0  0  0  0  0  0
    5.5635  -19.4084   -5.6332 C   0  0  1  0  0  0  0  0  0  0  0  0
    5.8770  -20.3424   -6.6462 O   0  0  0  0  0  0  0  0  0  0  0  0
    6.8593  -18.8928   -5.0170 C   0  0  2  0  0  0  0  0  0  0  0  0
    6.8504  -18.7788   -3.5327 N   0  0  0  0  0  0  0  0  0  0  0  0
    7.0483  -19.8161   -2.6564 C   0  0  0  0  0  0  0  0  0  0  0  0
    6.9733  -19.3480   -1.3904 N   0  0  0  0  0  0  0  0  0  0  0  0
    6.7393  -18.0261   -1.4337 C   0  0  0  0  0  0  0  0  0  0  0  0
    6.5869  -17.0750   -0.4363 C   0  0  0  0  0  0  0  0  0  0  0  0
    6.6708  -17.4239    0.8407 N   0  0  0  0  0  0  0  0  0  0  0  0
    6.3532  -15.7606   -0.7892 N   0  0  0  0  0  0  0  0  0  0  0  0
    6.2726  -15.3795   -2.1226 C   0  0  0  0  0  0  0  0  0  0  0  0
    6.4327  -16.3391   -3.1014 N   0  0  0  0  0  0  0  0  0  0  0  0
    6.6559  -17.6444   -2.7704 C   0  0  0  0  0  0  0  0  0  0  0  0
  2  3  1  6  0  0  0
  2  6  1  0  0  0  0
  2  1  1  0  0  0  0
  4  3  2  0  0  0  0
  5  3  1  0  0  0  0
  6  7  2  0  0  0  0
  8  7  1  6  0  0  0
  8  9  1  0  0  0  0
  8 10  1  0  0  0  0
 11 10  1  1  0  0  0
 11 13  1  0  0  0  0
 12 11  1  0  0  0  0
 12 17  1  0  0  0  0
 13 14  1  6  0  0  0
 13 15  1  0  0  0  0
 15 16  1  6  0  0  0
 17 18  1  1  0  0  0
 17 15  1  0  0  0  0
 18 19  1  0  0  0  0
 20 19  2  0  0  0  0
 21 27  2  0  0  0  0
 21 20  1  0  0  0  0
 22 21  1  0  0  0  0
 23 22  1  0  0  0  0
 24 22  2  0  0  0  0
 24 25  1  0  0  0  0
 25 26  2  0  0  0  0
 26 27  1  0  0  0  0
 27 18  1  0  0  0  0
M  END
>  <CHROM.1>
8.66762569,-142.27502528,148.76437101,-120.62452694,-72.64031689,-159.86999225
5.04463734,-16.74311044,-5.24831385,-2.89191951,-1.00804708,0.69655207

>  <Name>
lig.pdb

>  <RI>
0

>  <Rbt.Current_Directory>
/home/itssahil/PROJECTS/Mol_Feturizer/New_Systems/rnas/4b5r

>  <Rbt.Executable>
rbdock ($Id: //depot/dev/client3/rdock/2013.1/src/exe/rbdock.cxx#4 $)

>  <Rbt.Library>
libRbt.so (2013.1, Build901 2013/11/27)

>  <Rbt.Parameter_File>
/export/apps/rDock/src/rDock_2013.1_src/data/scripts/dock_solv.prm

>  <Rbt.Receptor>
prm/pocket_docking_8.prm

>  <SCORE>
-16.391

>  <SCORE.INTER>
-16.9296

>  <SCORE.INTER.CONST>
1

>  <SCORE.INTER.POLAR>
0

>  <SCORE.INTER.ROT>
6

>  <SCORE.INTER.SOLV>
12.9549

>  <SCORE.INTER.VDW>
-23.2047

>  <SCORE.INTER.norm>
-0.627021

>  <SCORE.INTRA>
0.538579

>  <SCORE.INTRA.DIHEDRAL>
2.05751

>  <SCORE.INTRA.DIHEDRAL.0>
10.2917

>  <SCORE.INTRA.POLAR>
0

>  <SCORE.INTRA.POLAR.0>
0

>  <SCORE.INTRA.REPUL>
0

>  <SCORE.INTRA.REPUL.0>
0

>  <SCORE.INTRA.SOLV>
-1.90376

>  <SCORE.INTRA.SOLV.lig_0>
-39.6315

>  <SCORE.INTRA.VDW>
0.461706

>  <SCORE.INTRA.VDW.0>
-4.02152

>  <SCORE.INTRA.norm>
0.0199474

>  <SCORE.RESTR>
0

>  <SCORE.RESTR.CAVITY>
0

>  <SCORE.RESTR.norm>
0

>  <SCORE.SYSTEM>
0

>  <SCORE.SYSTEM.CONST>
0

>  <SCORE.SYSTEM.DIHEDRAL>
0

>  <SCORE.SYSTEM.SOLV>
0

>  <SCORE.SYSTEM.norm>
0

>  <SCORE.heavy>
27

>  <SCORE.norm>
-0.607073

>  <RMSD>
6.898

$$$$
lig.pdb
 OpenBabel11021811493D
libRbt.so/2013.1/901 2013/11/27
 27 29  0  0  0  0  0  0  0  0999 V2000
    7.0740  -15.2815   -6.4522 N   0  0  0  0  0  0  0  0  0  0  0  0
    6.0067  -15.8239   -5.5574 C   0  0  2  0  0  0  0  0  0  0  0  0
    6.3887  -15.5556   -4.1048 C   0  0  0  0  0  0  0  0  0  0  0  0
    5.7398  -14.7498   -3.4480 O   0  0  0  0  0  0  0  0  0  0  0  0
    7.3409  -16.1165   -3.5474 O   0  0  0  0  0  0  0  0  0  0  0  0
    5.6931  -17.3141   -5.8001 C   0  0  0  0  0  0  0  0  0  0  0  0
    4.3359  -17.6407   -6.4766 C   0  0  0  0  0  0  0  0  0  0  0  0
    3.8956  -19.4046   -6.7900 S   0  0  2  0  0  0  0  0  0  0  0  0
    5.3475  -20.2575   -6.1389 C   0  0  0  0  0  0  0  0  0  0  0  0
    4.1909  -19.6080   -8.5600 C   0  0  0  0  0  0  0  0  0  0  0  0
    3.1738  -18.7923   -9.3472 C   0  0  1  0  0  0  0  0  0  0  0  0
    3.2472  -17.4038   -9.0605 O   0  0  0  0  0  0  0  0  0  0  0  0
    3.3823  -18.8644  -10.8360 C   0  0  1  0  0  0  0  0  0  0  0  0
    2.8734  -20.0672  -11.3362 O   0  0  0  0  0  0  0  0  0  0  0  0
    2.5951  -17.6537  -11.2865 C   0  0  1  0  0  0  0  0  0  0  0  0
    1.2210  -17.9715  -11.3747 O   0  0  0  0  0  0  0  0  0  0  0  0
    2.7979  -16.6402  -10.1657 C   0  0  2  0  0  0  0  0  0  0  0  0
    3.7348  -15.5277  -10.4831 N   0  0  0  0  0  0  0  0  0  0  0  0
    3.3710  -14.2234  -10.7053 C   0  0  0  0  0  0  0  0  0  0  0  0
    4.4779  -13.4917  -10.9636 N   0  0  0  0  0  0  0  0  0  0  0  0
    5.5503  -14.2981  -10.9036 C   0  0  0  0  0  0  0  0  0  0  0  0
    6.9052  -14.0590  -11.0756 C   0  0  0  0  0  0  0  0  0  0  0  0
    7.3399  -12.8370  -11.3539 N   0  0  0  0  0  0  0  0  0  0  0  0
    7.7956  -15.1066  -10.9475 N   0  0  0  0  0  0  0  0  0  0  0  0
    7.3554  -16.3893  -10.6468 C   0  0  0  0  0  0  0  0  0  0  0  0
    6.0037  -16.6070  -10.4734 N   0  0  0  0  0  0  0  0  0  0  0  0
    5.1088  -15.5847  -10.6047 C   0  0  0  0  0  0  0  0  0  0  0  0
  2  3  1  1  0  0  0
  2  6  1  0  0  0  0
  2  1  1  0  0  0  0
  4  3  2  0  0  0  0
  5  3  1  0  0  0  0
  6  7  2  0  0  0  0
  8  7  1  6  0  0  0
  8  9  1  0  0  0  0
  8 10  1  0  0  0  0
 11 10  1  1  0  0  0
 11 13  1  0  0  0  0
 12 11  1  0  0  0  0
 12 17  1  0  0  0  0
 13 14  1  6  0  0  0
 13 15  1  0  0  0  0
 15 16  1  1  0  0  0
 17 18  1  6  0  0  0
 17 15  1  0  0  0  0
 18 19  1  0  0  0  0
 20 19  2  0  0  0  0
 21 27  2  0  0  0  0
 21 20  1  0  0  0  0
 22 21  1  0  0  0  0
 23 22  1  0  0  0  0
 24 22  2  0  0  0  0
 24 25  1  0  0  0  0
 25 26  2  0  0  0  0
 26 27  1  0  0  0  0
 27 18  1  0  0  0  0
M  END
>  <CHROM.1>
111.32193341,-108.49049634,-0.13335580,-67.90924089,60.39287745,-132.18692507
4.84844926,-16.74832359,-8.69172405,-1.01113283,-0.91415608,-1.10741591

>  <Name>
lig.pdb

>  <RI>
0

>  <Rbt.Current_Directory>
/home/itssahil/PROJECTS/Mol_Feturizer/New_Systems/rnas/4b5r

>  <Rbt.Executable>
rbdock ($Id: //depot/dev/client3/rdock/2013.1/src/exe/rbdock.cxx#4 $)

>  <Rbt.Library>
libRbt.so (2013.1, Build901 2013/11/27)

>  <Rbt.Parameter_File>
/export/apps/rDock/src/rDock_2013.1_src/data/scripts/dock_solv.prm

>  <Rbt.Receptor>
prm/pocket_docking_7.prm

>  <SCORE>
-11.864

>  <SCORE.INTER>
-10.9283

>  <SCORE.INTER.CONST>
1

>  <SCORE.INTER.POLAR>
0

>  <SCORE.INTER.ROT>
6

>  <SCORE.INTER.SOLV>
15.732

>  <SCORE.INTER.VDW>
-20.1295

>  <SCORE.INTER.norm>
-0.40475

>  <SCORE.INTRA>
-0.935697

>  <SCORE.INTRA.DIHEDRAL>
-2.59101

>  <SCORE.INTRA.DIHEDRAL.0>
10.2917

>  <SCORE.INTRA.POLAR>
0

>  <SCORE.INTRA.POLAR.0>
0

>  <SCORE.INTRA.REPUL>
0

>  <SCORE.INTRA.REPUL.0>
0

>  <SCORE.INTRA.SOLV>
-2.50466

>  <SCORE.INTRA.SOLV.lig_0>
-39.6315

>  <SCORE.INTRA.VDW>
1.61214

>  <SCORE.INTRA.VDW.0>
-4.02152

>  <SCORE.INTRA.norm>
-0.0346554

>  <SCORE.RESTR>
0

>  <SCORE.RESTR.CAVITY>
0

>  <SCORE.RESTR.norm>
0

>  <SCORE.SYSTEM>
0

>  <SCORE.SYSTEM.CONST>
0

>  <SCORE.SYSTEM.DIHEDRAL>
0

>  <SCORE.SYSTEM.SOLV>
0

>  <SCORE.SYSTEM.norm>
0

>  <SCORE.heavy>
27

>  <SCORE.norm>
-0.439406

>  <RMSD>
6.908

$$$$
lig.pdb
 OpenBabel11021811493D
libRbt.so/2013.1/901 2013/11/27
 27 29  0  0  0  0  0  0  0  0999 V2000
    7.6604  -15.7843  -10.6671 N   0  0  0  0  0  0  0  0  0  0  0  0
    6.5318  -15.4400   -9.7497 C   0  0  2  0  0  0  0  0  0  0  0  0
    6.3734  -13.9232   -9.7001 C   0  0  0  0  0  0  0  0  0  0  0  0
    5.2997  -13.4383   -9.3627 O   0  0  0  0  0  0  0  0  0  0  0  0
    7.2887  -13.1435   -9.9936 O   0  0  0  0  0  0  0  0  0  0  0  0
    6.6733  -16.0462   -8.3389 C   0  0  0  0  0  0  0  0  0  0  0  0
    5.3695  -16.5355   -7.6554 C   0  0  0  0  0  0  0  0  0  0  0  0
    5.4673  -17.2654   -5.9639 S   0  0  2  0  0  0  0  0  0  0  0  0
    6.5190  -16.0671   -5.1168 C   0  0  0  0  0  0  0  0  0  0  0  0
    6.6438  -18.6224   -6.1544 C   0  0  0  0  0  0  0  0  0  0  0  0
    6.0024  -19.7496   -6.9528 C   0  0  1  0  0  0  0  0  0  0  0  0
    5.6701  -19.3609   -8.2771 O   0  0  0  0  0  0  0  0  0  0  0  0
    6.9129  -20.9329   -7.1422 C   0  0  1  0  0  0  0  0  0  0  0  0
    6.9411  -21.7102   -5.9798 O   0  0  0  0  0  0  0  0  0  0  0  0
    6.2327  -21.6249   -8.3027 C   0  0  1  0  0  0  0  0  0  0  0  0
    5.1578  -22.4149   -7.8365 O   0  0  0  0  0  0  0  0  0  0  0  0
    5.6778  -20.4810   -9.1442 C   0  0  2  0  0  0  0  0  0  0  0  0
    6.4274  -20.1999  -10.3994 N   0  0  0  0  0  0  0  0  0  0  0  0
    7.4545  -20.9616  -10.8972 C   0  0  0  0  0  0  0  0  0  0  0  0
    7.8971  -20.4109  -12.0497 N   0  0  0  0  0  0  0  0  0  0  0  0
    7.1687  -19.3127  -12.3094 C   0  0  0  0  0  0  0  0  0  0  0  0
    7.2015  -18.3994  -13.3521 C   0  0  0  0  0  0  0  0  0  0  0  0
    8.0778  -18.5393  -14.3380 N   0  0  0  0  0  0  0  0  0  0  0  0
    6.3073  -17.3472  -13.3541 N   0  0  0  0  0  0  0  0  0  0  0  0
    5.3779  -17.1938  -12.3331 C   0  0  0  0  0  0  0  0  0  0  0  0
    5.3564  -18.1161  -11.3067 N   0  0  0  0  0  0  0  0  0  0  0  0
    6.2385  -19.1575  -11.2845 C   0  0  0  0  0  0  0  0  0  0  0  0
  2  3  1  1  0  0  0
  2  6  1  0  0  0  0
  2  1  1  0  0  0  0
  4  3  2  0  0  0  0
  5  3  1  0  0  0  0
  6  7  2  0  0  0  0
  8  7  1  6  0  0  0
  8  9  1  0  0  0  0
  8 10  1  0  0  0  0
 11 10  1  6  0  0  0
 11 13  1  0  0  0  0
 12 11  1  0  0  0  0
 12 17  1  0  0  0  0
 13 14  1  1  0  0  0
 13 15  1  0  0  0  0
 15 16  1  1  0  0  0
 17 18  1  6  0  0  0
 17 15  1  0  0  0  0
 18 19  1  0  0  0  0
 20 19  2  0  0  0  0
 21 27  2  0  0  0  0
 21 20  1  0  0  0  0
 22 21  1  0  0  0  0
 23 22  1  0  0  0  0
 24 22  2  0  0  0  0
 24 25  1  0  0  0  0
 25 26  2  0  0  0  0
 26 27  1  0  0  0  0
 27 18  1  0  0  0  0
M  END
>  <CHROM.1>
157.66026349,-142.82962747,46.68320328,-71.56753487,63.36913241,126.54334685
6.38570178,-18.17156070,-9.31474210,0.90332183,1.41967414,-0.18615424

>  <Name>
lig.pdb

>  <RI>
0

>  <Rbt.Current_Directory>
/home/itssahil/PROJECTS/Mol_Feturizer/New_Systems/rnas/4b5r

>  <Rbt.Executable>
rbdock ($Id: //depot/dev/client3/rdock/2013.1/src/exe/rbdock.cxx#4 $)

>  <Rbt.Library>
libRbt.so (2013.1, Build901 2013/11/27)

>  <Rbt.Parameter_File>
/export/apps/rDock/src/rDock_2013.1_src/data/scripts/dock_solv.prm

>  <Rbt.Receptor>
prm/pocket_docking_7.prm

>  <SCORE>
-9.53517

>  <SCORE.INTER>
-10.548

>  <SCORE.INTER.CONST>
1

>  <SCORE.INTER.POLAR>
0

>  <SCORE.INTER.ROT>
6

>  <SCORE.INTER.SOLV>
10.7787

>  <SCORE.INTER.VDW>
-18.2249

>  <SCORE.INTER.norm>
-0.390667

>  <SCORE.INTRA>
1.01284

>  <SCORE.INTRA.DIHEDRAL>
-0.815691

>  <SCORE.INTRA.DIHEDRAL.0>
10.2917

>  <SCORE.INTRA.POLAR>
0

>  <SCORE.INTRA.POLAR.0>
0

>  <SCORE.INTRA.REPUL>
0.0607854

>  <SCORE.INTRA.REPUL.0>
0

>  <SCORE.INTRA.SOLV>
1.21918

>  <SCORE.INTRA.SOLV.lig_0>
-39.6315

>  <SCORE.INTRA.VDW>
0.507169

>  <SCORE.INTRA.VDW.0>
-4.02152

>  <SCORE.INTRA.norm>
0.0375125

>  <SCORE.RESTR>
0

>  <SCORE.RESTR.CAVITY>
0

>  <SCORE.RESTR.norm>
0

>  <SCORE.SYSTEM>
0

>  <SCORE.SYSTEM.CONST>
0

>  <SCORE.SYSTEM.DIHEDRAL>
0

>  <SCORE.SYSTEM.SOLV>
0

>  <SCORE.SYSTEM.norm>
0

>  <SCORE.heavy>
27

>  <SCORE.norm>
-0.353154

>  <RMSD>
6.917

$$$$
lig.pdb
 OpenBabel11021811493D
libRbt.so/2013.1/901 2013/11/27
 27 29  0  0  0  0  0  0  0  0999 V2000
    5.7668  -16.4619   -6.6240 N   0  0  0  0  0  0  0  0  0  0  0  0
    5.3239  -15.0419   -6.4777 C   0  0  2  0  0  0  0  0  0  0  0  0
    5.6146  -14.5720   -5.0554 C   0  0  0  0  0  0  0  0  0  0  0  0
    6.0219  -13.4317   -4.8669 O   0  0  0  0  0  0  0  0  0  0  0  0
    5.4624  -15.2985   -4.0650 O   0  0  0  0  0  0  0  0  0  0  0  0
    3.8498  -14.8097   -6.8662 C   0  0  0  0  0  0  0  0  0  0  0  0
    3.5820  -13.8150   -8.0262 C   0  0  0  0  0  0  0  0  0  0  0  0
    1.8400  -13.4866   -8.5370 S   0  0  2  0  0  0  0  0  0  0  0  0
    1.0092  -13.3913   -6.9370 C   0  0  0  0  0  0  0  0  0  0  0  0
    1.2487  -15.1005   -9.0916 C   0  0  0  0  0  0  0  0  0  0  0  0
    1.3423  -15.1877  -10.6092 C   0  0  1  0  0  0  0  0  0  0  0  0
    2.2535  -14.2462  -11.1555 O   0  0  0  0  0  0  0  0  0  0  0  0
    1.8607  -16.5147  -11.0948 C   0  0  1  0  0  0  0  0  0  0  0  0
    0.8428  -17.4729  -11.0565 O   0  0  0  0  0  0  0  0  0  0  0  0
    2.2814  -16.1514  -12.5017 C   0  0  1  0  0  0  0  0  0  0  0  0
    1.1631  -16.1727  -13.3653 O   0  0  0  0  0  0  0  0  0  0  0  0
    2.7861  -14.7179  -12.3804 C   0  0  2  0  0  0  0  0  0  0  0  0
    4.2658  -14.5634  -12.4328 N   0  0  0  0  0  0  0  0  0  0  0  0
    4.9384  -13.6050  -13.1484 C   0  0  0  0  0  0  0  0  0  0  0  0
    6.2679  -13.7640  -12.9627 N   0  0  0  0  0  0  0  0  0  0  0  0
    6.4654  -14.8020  -12.1334 C   0  0  0  0  0  0  0  0  0  0  0  0
    7.6180  -15.3742  -11.6169 C   0  0  0  0  0  0  0  0  0  0  0  0
    8.8092  -14.8834  -11.9328 N   0  0  0  0  0  0  0  0  0  0  0  0
    7.5097  -16.4560  -10.7657 N   0  0  0  0  0  0  0  0  0  0  0  0
    6.2683  -16.9741  -10.4188 C   0  0  0  0  0  0  0  0  0  0  0  0
    5.1321  -16.3878  -10.9381 N   0  0  0  0  0  0  0  0  0  0  0  0
    5.2211  -15.3230  -11.7875 C   0  0  0  0  0  0  0  0  0  0  0  0
  2  3  1  1  0  0  0
  2  6  1  0  0  0  0
  2  1  1  0  0  0  0
  4  3  2  0  0  0  0
  5  3  1  0  0  0  0
  6  7  2  0  0  0  0
  8  7  1  1  0  0  0
  8  9  1  0  0  0  0
  8 10  1  0  0  0  0
 11 10  1  1  0  0  0
 11 13  1  0  0  0  0
 12 11  1  0  0  0  0
 12 17  1  0  0  0  0
 13 14  1  6  0  0  0
 13 15  1  0  0  0  0
 15 16  1  6  0  0  0
 17 18  1  1  0  0  0
 17 15  1  0  0  0  0
 18 19  1  0  0  0  0
 20 19  2  0  0  0  0
 21 27  2  0  0  0  0
 21 20  1  0  0  0  0
 22 21  1  0  0  0  0
 23 22  1  0  0  0  0
 24 22  2  0  0  0  0
 24 25  1  0  0  0  0
 25 26  2  0  0  0  0
 26 27  1  0  0  0  0
 27 18  1  0  0  0  0
M  END
>  <CHROM.1>
141.04048179,-119.79440731,41.17463866,-98.07412202,20.41740901,-104.43351592
4.07630662,-15.03693712,-9.77620012,-1.43162935,0.03557209,-1.70069225

>  <Name>
lig.pdb

>  <RI>
0

>  <Rbt.Current_Directory>
/home/itssahil/PROJECTS/Mol_Feturizer/New_Systems/rnas/4b5r

>  <Rbt.Executable>
rbdock ($Id: //depot/dev/client3/rdock/2013.1/src/exe/rbdock.cxx#4 $)

>  <Rbt.Library>
libRbt.so (2013.1, Build901 2013/11/27)

>  <Rbt.Parameter_File>
/export/apps/rDock/src/rDock_2013.1_src/data/scripts/dock_solv.prm

>  <Rbt.Receptor>
prm/pocket_docking_3.prm

>  <SCORE>
-11.0633

>  <SCORE.INTER>
-13.2762

>  <SCORE.INTER.CONST>
1

>  <SCORE.INTER.POLAR>
0

>  <SCORE.INTER.ROT>
6

>  <SCORE.INTER.SOLV>
14.0048

>  <SCORE.INTER.VDW>
-21.119

>  <SCORE.INTER.norm>
-0.491711

>  <SCORE.INTRA>
2.20893

>  <SCORE.INTRA.DIHEDRAL>
4.35642

>  <SCORE.INTRA.DIHEDRAL.0>
10.2917

>  <SCORE.INTRA.POLAR>
0

>  <SCORE.INTRA.POLAR.0>
0

>  <SCORE.INTRA.REPUL>
0

>  <SCORE.INTRA.REPUL.0>
0

>  <SCORE.INTRA.SOLV>
-2.19696

>  <SCORE.INTRA.SOLV.lig_0>
-39.6315

>  <SCORE.INTRA.VDW>
1.1292

>  <SCORE.INTRA.VDW.0>
-4.02152

>  <SCORE.INTRA.norm>
0.0818121

>  <SCORE.RESTR>
0.00395794

>  <SCORE.RESTR.CAVITY>
0.00395794

>  <SCORE.RESTR.norm>
0.00014659

>  <SCORE.SYSTEM>
0

>  <SCORE.SYSTEM.CONST>
0

>  <SCORE.SYSTEM.DIHEDRAL>
0

>  <SCORE.SYSTEM.SOLV>
0

>  <SCORE.SYSTEM.norm>
0

>  <SCORE.heavy>
27

>  <SCORE.norm>
-0.409752

>  <RMSD>
6.923

$$$$
lig.pdb
 OpenBabel11021811493D
libRbt.so/2013.1/901 2013/11/27
 27 29  0  0  0  0  0  0  0  0999 V2000
    5.1379  -14.4650   -3.9653 N   0  0  0  0  0  0  0  0  0  0  0  0
    4.9948  -15.0632   -5.3275 C   0  0  2  0  0  0  0  0  0  0  0  0
    6.3821  -15.3343   -5.9021 C   0  0  0  0  0  0  0  0  0  0  0  0
    6.9012  -16.4318   -5.7359 O   0  0  0  0  0  0  0  0  0  0  0  0
    7.0235  -14.4854   -6.5344 O   0  0  0  0  0  0  0  0  0  0  0  0
    4.1336  -14.2182   -6.2878 C   0  0  0  0  0  0  0  0  0  0  0  0
    3.0429  -14.9717   -7.0936 C   0  0  0  0  0  0  0  0  0  0  0  0
    1.9815  -14.0211   -8.2655 S   0  0  2  0  0  0  0  0  0  0  0  0
    1.1530  -12.8715   -7.1469 C   0  0  0  0  0  0  0  0  0  0  0  0
    0.6141  -15.1493   -8.6106 C   0  0  0  0  0  0  0  0  0  0  0  0
    0.9084  -15.9397   -9.8787 C   0  0  1  0  0  0  0  0  0  0  0  0
    1.1669  -15.1033  -10.9963 O   0  0  0  0  0  0  0  0  0  0  0  0
    2.1451  -16.7908   -9.7718 C   0  0  1  0  0  0  0  0  0  0  0  0
    1.8661  -17.9582   -9.0539 O   0  0  0  0  0  0  0  0  0  0  0  0
    2.4335  -17.0480  -11.2343 C   0  0  1  0  0  0  0  0  0  0  0  0
    1.6347  -18.1129  -11.7084 O   0  0  0  0  0  0  0  0  0  0  0  0
    2.0056  -15.7605  -11.9297 C   0  0  2  0  0  0  0  0  0  0  0  0
    3.1226  -14.8842  -12.3779 N   0  0  0  0  0  0  0  0  0  0  0  0
    3.7209  -13.9108  -11.6180 C   0  0  0  0  0  0  0  0  0  0  0  0
    4.6945  -13.3170  -12.3439 N   0  0  0  0  0  0  0  0  0  0  0  0
    4.7414  -13.8953  -13.5552 C   0  0  0  0  0  0  0  0  0  0  0  0
    5.5496  -13.6761  -14.6604 C   0  0  0  0  0  0  0  0  0  0  0  0
    6.4919  -12.7431  -14.6268 N   0  0  0  0  0  0  0  0  0  0  0  0
    5.3653  -14.4447  -15.7926 N   0  0  0  0  0  0  0  0  0  0  0  0
    4.3889  -15.4318  -15.8383 C   0  0  0  0  0  0  0  0  0  0  0  0
    3.5979  -15.6394  -14.7266 N   0  0  0  0  0  0  0  0  0  0  0  0
    3.7608  -14.8831  -13.6020 C   0  0  0  0  0  0  0  0  0  0  0  0
  2  3  1  6  0  0  0
  2  6  1  0  0  0  0
  2  1  1  0  0  0  0
  4  3  2  0  0  0  0
  5  3  1  0  0  0  0
  6  7  2  0  0  0  0
  8  7  1  1  0  0  0
  8  9  1  0  0  0  0
  8 10  1  0  0  0  0
 11 10  1  1  0  0  0
 11 13  1  0  0  0  0
 12 11  1  0  0  0  0
 12 17  1  0  0  0  0
 13 14  1  1  0  0  0
 13 15  1  0  0  0  0
 15 16  1  6  0  0  0
 17 18  1  1  0  0  0
 17 15  1  0  0  0  0
 18 19  1  0  0  0  0
 20 19  2  0  0  0  0
 21 27  2  0  0  0  0
 21 20  1  0  0  0  0
 22 21  1  0  0  0  0
 23 22  1  0  0  0  0
 24 22  2  0  0  0  0
 24 25  1  0  0  0  0
 25 26  2  0  0  0  0
 26 27  1  0  0  0  0
 27 18  1  0  0  0  0
M  END
>  <CHROM.1>
92.28812804,-132.67032529,-61.85226074,-94.46014879,-56.05539401,31.08060968
3.56554571,-15.04180488,-10.15283216,-1.55409424,-0.35425159,-1.53865951

>  <Name>
lig.pdb

>  <RI>
0

>  <Rbt.Current_Directory>
/home/itssahil/PROJECTS/Mol_Feturizer/New_Systems/rnas/4b5r

>  <Rbt.Executable>
rbdock ($Id: //depot/dev/client3/rdock/2013.1/src/exe/rbdock.cxx#4 $)

>  <Rbt.Library>
libRbt.so (2013.1, Build901 2013/11/27)

>  <Rbt.Parameter_File>
/export/apps/rDock/src/rDock_2013.1_src/data/scripts/dock_solv.prm

>  <Rbt.Receptor>
prm/pocket_docking_5.prm

>  <SCORE>
-17.0472

>  <SCORE.INTER>
-16.0238

>  <SCORE.INTER.CONST>
1

>  <SCORE.INTER.POLAR>
0

>  <SCORE.INTER.ROT>
6

>  <SCORE.INTER.SOLV>
16.6611

>  <SCORE.INTER.VDW>
-23.8362

>  <SCORE.INTER.norm>
-0.593473

>  <SCORE.INTRA>
-1.02345

>  <SCORE.INTRA.DIHEDRAL>
-1.07402

>  <SCORE.INTRA.DIHEDRAL.0>
10.2917

>  <SCORE.INTRA.POLAR>
0

>  <SCORE.INTRA.POLAR.0>
0

>  <SCORE.INTRA.REPUL>
0

>  <SCORE.INTRA.REPUL.0>
0

>  <SCORE.INTRA.SOLV>
-3.21364

>  <SCORE.INTRA.SOLV.lig_0>
-39.6315

>  <SCORE.INTRA.VDW>
1.12038

>  <SCORE.INTRA.VDW.0>
-4.02152

>  <SCORE.INTRA.norm>
-0.0379057

>  <SCORE.RESTR>
0

>  <SCORE.RESTR.CAVITY>
0

>  <SCORE.RESTR.norm>
0

>  <SCORE.SYSTEM>
0

>  <SCORE.SYSTEM.CONST>
0

>  <SCORE.SYSTEM.DIHEDRAL>
0

>  <SCORE.SYSTEM.SOLV>
0

>  <SCORE.SYSTEM.norm>
0

>  <SCORE.heavy>
27

>  <SCORE.norm>
-0.631379

>  <RMSD>
6.965

$$$$
lig.pdb
 OpenBabel11021811493D
libRbt.so/2013.1/901 2013/11/27
 27 29  0  0  0  0  0  0  0  0999 V2000
    5.4377  -16.0670   -6.8374 N   0  0  0  0  0  0  0  0  0  0  0  0
    5.4229  -14.6385   -6.3978 C   0  0  2  0  0  0  0  0  0  0  0  0
    5.5746  -14.5813   -4.8806 C   0  0  0  0  0  0  0  0  0  0  0  0
    6.5619  -15.0796   -4.3526 O   0  0  0  0  0  0  0  0  0  0  0  0
    4.7338  -14.0525   -4.1422 O   0  0  0  0  0  0  0  0  0  0  0  0
    4.1846  -13.8553   -6.8784 C   0  0  0  0  0  0  0  0  0  0  0  0
    3.2155  -14.5995   -7.8341 C   0  0  0  0  0  0  0  0  0  0  0  0
    1.7175  -13.7175   -8.4518 S   0  0  2  0  0  0  0  0  0  0  0  0
    1.0655  -13.0065   -6.9258 C   0  0  0  0  0  0  0  0  0  0  0  0
    0.5186  -15.0440   -8.7064 C   0  0  0  0  0  0  0  0  0  0  0  0
    0.9002  -15.8510   -9.9404 C   0  0  1  0  0  0  0  0  0  0  0  0
    1.2116  -15.0296  -11.0556 O   0  0  0  0  0  0  0  0  0  0  0  0
    2.1417  -16.6792   -9.7450 C   0  0  1  0  0  0  0  0  0  0  0  0
    1.8388  -17.8386   -9.0239 O   0  0  0  0  0  0  0  0  0  0  0  0
    2.5207  -16.9565  -11.1830 C   0  0  1  0  0  0  0  0  0  0  0  0
    1.7684  -18.0426  -11.6842 O   0  0  0  0  0  0  0  0  0  0  0  0
    2.1147  -15.6884  -11.9257 C   0  0  2  0  0  0  0  0  0  0  0  0
    3.2424  -14.8013  -12.3226 N   0  0  0  0  0  0  0  0  0  0  0  0
    3.8582  -13.8873  -11.5051 C   0  0  0  0  0  0  0  0  0  0  0  0
    4.8372  -13.2622  -12.1965 N   0  0  0  0  0  0  0  0  0  0  0  0
    4.8704  -13.7621  -13.4427 C   0  0  0  0  0  0  0  0  0  0  0  0
    5.6768  -13.4840  -14.5358 C   0  0  0  0  0  0  0  0  0  0  0  0
    6.6328  -12.5687  -14.4475 N   0  0  0  0  0  0  0  0  0  0  0  0
    5.4764  -14.1757  -15.7140 N   0  0  0  0  0  0  0  0  0  0  0  0
    4.4854  -15.1436  -15.8177 C   0  0  0  0  0  0  0  0  0  0  0  0
    3.6963  -15.4109  -14.7174 N   0  0  0  0  0  0  0  0  0  0  0  0
    3.8752  -14.7308  -13.5475 C   0  0  0  0  0  0  0  0  0  0  0  0
  2  3  1  1  0  0  0
  2  6  1  0  0  0  0
  2  1  1  0  0  0  0
  4  3  2  0  0  0  0
  5  3  1  0  0  0  0
  6  7  2  0  0  0  0
  8  7  1  1  0  0  0
  8  9  1  0  0  0  0
  8 10  1  0  0  0  0
 11 10  1  1  0  0  0
 11 13  1  0  0  0  0
 12 11  1  0  0  0  0
 12 17  1  0  0  0  0
 13 14  1  1  0  0  0
 13 15  1  0  0  0  0
 15 16  1  6  0  0  0
 17 18  1  1  0  0  0
 17 15  1  0  0  0  0
 18 19  1  0  0  0  0
 20 19  2  0  0  0  0
 21 27  2  0  0  0  0
 21 20  1  0  0  0  0
 22 21  1  0  0  0  0
 23 22  1  0  0  0  0
 24 22  2  0  0  0  0
 24 25  1  0  0  0  0
 25 26  2  0  0  0  0
 26 27  1  0  0  0  0
 27 18  1  0  0  0  0
M  END
>  <CHROM.1>
58.35564676,-5.30122778,-47.42143312,-73.18499389,-47.27863671,37.29735012
3.49050124,-14.86369730,-10.12928612,-1.61056371,-0.45395410,-1.57670292

>  <Name>
lig.pdb

>  <RI>
0

>  <Rbt.Current_Directory>
/home/itssahil/PROJECTS/Mol_Feturizer/New_Systems/rnas/4b5r

>  <Rbt.Executable>
rbdock ($Id: //depot/dev/client3/rdock/2013.1/src/exe/rbdock.cxx#4 $)

>  <Rbt.Library>
libRbt.so (2013.1, Build901 2013/11/27)

>  <Rbt.Parameter_File>
/export/apps/rDock/src/rDock_2013.1_src/data/scripts/dock_solv.prm

>  <Rbt.Receptor>
prm/pocket_docking_6.prm

>  <SCORE>
-18.6721

>  <SCORE.INTER>
-17.863

>  <SCORE.INTER.CONST>
1

>  <SCORE.INTER.POLAR>
0

>  <SCORE.INTER.ROT>
6

>  <SCORE.INTER.SOLV>
11.2332

>  <SCORE.INTER.VDW>
-23.2531

>  <SCORE.INTER.norm>
-0.661594

>  <SCORE.INTRA>
-0.809106

>  <SCORE.INTRA.DIHEDRAL>
-2.75195

>  <SCORE.INTRA.DIHEDRAL.0>
10.2917

>  <SCORE.INTRA.POLAR>
0

>  <SCORE.INTRA.POLAR.0>
0

>  <SCORE.INTRA.REPUL>
0

>  <SCORE.INTRA.REPUL.0>
0

>  <SCORE.INTRA.SOLV>
-2.34703

>  <SCORE.INTRA.SOLV.lig_0>
-39.6315

>  <SCORE.INTRA.VDW>
1.74038

>  <SCORE.INTRA.VDW.0>
-4.02152

>  <SCORE.INTRA.norm>
-0.0299669

>  <SCORE.RESTR>
0

>  <SCORE.RESTR.CAVITY>
0

>  <SCORE.RESTR.norm>
0

>  <SCORE.SYSTEM>
0

>  <SCORE.SYSTEM.CONST>
0

>  <SCORE.SYSTEM.DIHEDRAL>
0

>  <SCORE.SYSTEM.SOLV>
0

>  <SCORE.SYSTEM.norm>
0

>  <SCORE.heavy>
27

>  <SCORE.norm>
-0.691561

>  <RMSD>
6.991

$$$$
lig.pdb
 OpenBabel11021811493D
libRbt.so/2013.1/901 2013/11/27
 27 29  0  0  0  0  0  0  0  0999 V2000
    5.4305  -16.0630   -6.7137 N   0  0  0  0  0  0  0  0  0  0  0  0
    5.4450  -14.6140   -6.3474 C   0  0  2  0  0  0  0  0  0  0  0  0
    5.5672  -14.4831   -4.8321 C   0  0  0  0  0  0  0  0  0  0  0  0
    6.5546  -14.9349   -4.2640 O   0  0  0  0  0  0  0  0  0  0  0  0
    4.7019  -13.9389   -4.1342 O   0  0  0  0  0  0  0  0  0  0  0  0
    4.2381  -13.8248   -6.8937 C   0  0  0  0  0  0  0  0  0  0  0  0
    3.2153  -14.6174   -7.7495 C   0  0  0  0  0  0  0  0  0  0  0  0
    1.7514  -13.7317   -8.4394 S   0  0  2  0  0  0  0  0  0  0  0  0
    1.0853  -12.9355   -6.9623 C   0  0  0  0  0  0  0  0  0  0  0  0
    0.5271  -15.0413   -8.6579 C   0  0  0  0  0  0  0  0  0  0  0  0
    0.8663  -15.8595   -9.8969 C   0  0  1  0  0  0  0  0  0  0  0  0
    1.1679  -15.0480  -11.0219 O   0  0  0  0  0  0  0  0  0  0  0  0
    2.0963  -16.7099   -9.7257 C   0  0  1  0  0  0  0  0  0  0  0  0
    1.7882  -17.8610   -8.9935 O   0  0  0  0  0  0  0  0  0  0  0  0
    2.4381  -16.9993  -11.1706 C   0  0  1  0  0  0  0  0  0  0  0  0
    1.6549  -18.0731  -11.6508 O   0  0  0  0  0  0  0  0  0  0  0  0
    2.0391  -15.7265  -11.9092 C   0  0  2  0  0  0  0  0  0  0  0  0
    3.1738  -14.8619  -12.3345 N   0  0  0  0  0  0  0  0  0  0  0  0
    3.7941  -13.9236  -11.5484 C   0  0  0  0  0  0  0  0  0  0  0  0
    4.7791  -13.3302  -12.2591 N   0  0  0  0  0  0  0  0  0  0  0  0
    4.8116  -13.8744  -13.4867 C   0  0  0  0  0  0  0  0  0  0  0  0
    5.6226  -13.6409  -14.5868 C   0  0  0  0  0  0  0  0  0  0  0  0
    6.5847  -12.7296  -14.5287 N   0  0  0  0  0  0  0  0  0  0  0  0
    5.4200  -14.3727  -15.7402 N   0  0  0  0  0  0  0  0  0  0  0  0
    4.4226  -15.3369  -15.8120 C   0  0  0  0  0  0  0  0  0  0  0  0
    3.6292  -15.5594  -14.7050 N   0  0  0  0  0  0  0  0  0  0  0  0
    3.8100  -14.8393  -13.5595 C   0  0  0  0  0  0  0  0  0  0  0  0
  2  3  1  1  0  0  0
  2  6  1  0  0  0  0
  2  1  1  0  0  0  0
  4  3  2  0  0  0  0
  5  3  1  0  0  0  0
  6  7  2  0  0  0  0
  8  7  1  1  0  0  0
  8  9  1  0  0  0  0
  8 10  1  0  0  0  0
 11 10  1  1  0  0  0
 11 13  1  0  0  0  0
 12 11  1  0  0  0  0
 12 17  1  0  0  0  0
 13 14  1  1  0  0  0
 13 15  1  0  0  0  0
 15 16  1  6  0  0  0
 17 18  1  1  0  0  0
 17 15  1  0  0  0  0
 18 19  1  0  0  0  0
 20 19  2  0  0  0  0
 21 27  2  0  0  0  0
 21 20  1  0  0  0  0
 22 21  1  0  0  0  0
 23 22  1  0  0  0  0
 24 22  2  0  0  0  0
 24 25  1  0  0  0  0
 25 26  2  0  0  0  0
 26 27  1  0  0  0  0
 27 18  1  0  0  0  0
M  END
>  <CHROM.1>
61.08855068,-1.11033511,-51.86870423,-76.75535263,-47.02670377,34.89753857
3.45791370,-14.89603404,-10.11762736,-1.59555347,-0.45525180,-1.59666454

>  <Name>
lig.pdb

>  <RI>
0

>  <Rbt.Current_Directory>
/home/itssahil/PROJECTS/Mol_Feturizer/New_Systems/rnas/4b5r

>  <Rbt.Executable>
rbdock ($Id: //depot/dev/client3/rdock/2013.1/src/exe/rbdock.cxx#4 $)

>  <Rbt.Library>
libRbt.so (2013.1, Build901 2013/11/27)

>  <Rbt.Parameter_File>
/export/apps/rDock/src/rDock_2013.1_src/data/scripts/dock_solv.prm

>  <Rbt.Receptor>
prm/pocket_docking_6.prm

>  <SCORE>
-18.7288

>  <SCORE.INTER>
-17.8418

>  <SCORE.INTER.CONST>
1

>  <SCORE.INTER.POLAR>
0

>  <SCORE.INTER.ROT>
6

>  <SCORE.INTER.SOLV>
11.7092

>  <SCORE.INTER.VDW>
-23.3976

>  <SCORE.INTER.norm>
-0.660807

>  <SCORE.INTRA>
-0.886983

>  <SCORE.INTRA.DIHEDRAL>
-2.5676

>  <SCORE.INTRA.DIHEDRAL.0>
10.2917

>  <SCORE.INTRA.POLAR>
0

>  <SCORE.INTRA.POLAR.0>
0

>  <SCORE.INTRA.REPUL>
0

>  <SCORE.INTRA.REPUL.0>
0

>  <SCORE.INTRA.SOLV>
-2.43541

>  <SCORE.INTRA.SOLV.lig_0>
-39.6315

>  <SCORE.INTRA.VDW>
1.61452

>  <SCORE.INTRA.VDW.0>
-4.02152

>  <SCORE.INTRA.norm>
-0.0328512

>  <SCORE.RESTR>
0

>  <SCORE.RESTR.CAVITY>
0

>  <SCORE.RESTR.norm>
0

>  <SCORE.SYSTEM>
0

>  <SCORE.SYSTEM.CONST>
0

>  <SCORE.SYSTEM.DIHEDRAL>
0

>  <SCORE.SYSTEM.SOLV>
0

>  <SCORE.SYSTEM.norm>
0

>  <SCORE.heavy>
27

>  <SCORE.norm>
-0.693658

>  <RMSD>
6.993

$$$$
lig.pdb
 OpenBabel11021811493D
libRbt.so/2013.1/901 2013/11/27
 27 29  0  0  0  0  0  0  0  0999 V2000
    5.4356  -16.1208   -6.7467 N   0  0  0  0  0  0  0  0  0  0  0  0
    5.3946  -14.6890   -6.3196 C   0  0  2  0  0  0  0  0  0  0  0  0
    5.4433  -14.6207   -4.7961 C   0  0  0  0  0  0  0  0  0  0  0  0
    6.2924  -15.2629   -4.1891 O   0  0  0  0  0  0  0  0  0  0  0  0
    4.6515  -13.9418   -4.1297 O   0  0  0  0  0  0  0  0  0  0  0  0
    4.1935  -13.9070   -6.8887 C   0  0  0  0  0  0  0  0  0  0  0  0
    3.2215  -14.6924   -7.8078 C   0  0  0  0  0  0  0  0  0  0  0  0
    1.7672  -13.8145   -8.5274 S   0  0  2  0  0  0  0  0  0  0  0  0
    1.0442  -13.0545   -7.0580 C   0  0  0  0  0  0  0  0  0  0  0  0
    0.5691  -15.1366   -8.8074 C   0  0  0  0  0  0  0  0  0  0  0  0
    0.9576  -15.9268  -10.0500 C   0  0  1  0  0  0  0  0  0  0  0  0
    1.2570  -15.0908  -11.1577 O   0  0  0  0  0  0  0  0  0  0  0  0
    2.2092  -16.7422   -9.8653 C   0  0  1  0  0  0  0  0  0  0  0  0
    1.9215  -17.9122   -9.1551 O   0  0  0  0  0  0  0  0  0  0  0  0
    2.5885  -17.0008  -11.3066 C   0  0  1  0  0  0  0  0  0  0  0  0
    1.8480  -18.0907  -11.8172 O   0  0  0  0  0  0  0  0  0  0  0  0
    2.1660  -15.7303  -12.0360 C   0  0  2  0  0  0  0  0  0  0  0  0
    3.2823  -14.8261  -12.4263 N   0  0  0  0  0  0  0  0  0  0  0  0
    3.8708  -13.8940  -11.6091 C   0  0  0  0  0  0  0  0  0  0  0  0
    4.8471  -13.2570  -12.2935 N   0  0  0  0  0  0  0  0  0  0  0  0
    4.9054  -13.7669  -13.5347 C   0  0  0  0  0  0  0  0  0  0  0  0
    5.7206  -13.4833  -14.6199 C   0  0  0  0  0  0  0  0  0  0  0  0
    6.6586  -12.5499  -14.5274 N   0  0  0  0  0  0  0  0  0  0  0  0
    5.5480  -14.1886  -15.7944 N   0  0  0  0  0  0  0  0  0  0  0  0
    4.5762  -15.1754  -15.9022 C   0  0  0  0  0  0  0  0  0  0  0  0
    3.7781  -15.4477  -14.8097 N   0  0  0  0  0  0  0  0  0  0  0  0
    3.9295  -14.7545  -13.6437 C   0  0  0  0  0  0  0  0  0  0  0  0
  2  3  1  1  0  0  0
  2  6  1  0  0  0  0
  2  1  1  0  0  0  0
  4  3  2  0  0  0  0
  5  3  1  0  0  0  0
  6  7  2  0  0  0  0
  8  7  1  1  0  0  0
  8  9  1  0  0  0  0
  8 10  1  0  0  0  0
 11 10  1  1  0  0  0
 11 13  1  0  0  0  0
 12 11  1  0  0  0  0
 12 17  1  0  0  0  0
 13 14  1  1  0  0  0
 13 15  1  0  0  0  0
 15 16  1  6  0  0  0
 17 18  1  1  0  0  0
 17 15  1  0  0  0  0
 18 19  1  0  0  0  0
 20 19  2  0  0  0  0
 21 27  2  0  0  0  0
 21 20  1  0  0  0  0
 22 21  1  0  0  0  0
 23 22  1  0  0  0  0
 24 22  2  0  0  0  0
 24 25  1  0  0  0  0
 25 26  2  0  0  0  0
 26 27  1  0  0  0  0
 27 18  1  0  0  0  0
M  END
>  <CHROM.1>
48.84898193,-0.25801794,-50.92474986,-76.79960260,-48.15289323,35.88843801
3.50900121,-14.90840629,-10.18941888,-1.62156832,-0.48749191,-1.57881520

>  <Name>
lig.pdb

>  <RI>
0

>  <Rbt.Current_Directory>
/home/itssahil/PROJECTS/Mol_Feturizer/New_Systems/rnas/4b5r

>  <Rbt.Executable>
rbdock ($Id: //depot/dev/client3/rdock/2013.1/src/exe/rbdock.cxx#4 $)

>  <Rbt.Library>
libRbt.so (2013.1, Build901 2013/11/27)

>  <Rbt.Parameter_File>
/export/apps/rDock/src/rDock_2013.1_src/data/scripts/dock_solv.prm

>  <Rbt.Receptor>
prm/pocket_docking_6.prm

>  <SCORE>
-18.5069

>  <SCORE.INTER>
-17.6679

>  <SCORE.INTER.CONST>
1

>  <SCORE.INTER.POLAR>
0

>  <SCORE.INTER.ROT>
6

>  <SCORE.INTER.SOLV>
11.2109

>  <SCORE.INTER.VDW>
-23.1156

>  <SCORE.INTER.norm>
-0.654366

>  <SCORE.INTRA>
-0.838977

>  <SCORE.INTRA.DIHEDRAL>
-2.67142

>  <SCORE.INTRA.DIHEDRAL.0>
10.2917

>  <SCORE.INTRA.POLAR>
0

>  <SCORE.INTRA.POLAR.0>
0

>  <SCORE.INTRA.REPUL>
0

>  <SCORE.INTRA.REPUL.0>
0

>  <SCORE.INTRA.SOLV>
-2.39394

>  <SCORE.INTRA.SOLV.lig_0>
-39.6315

>  <SCORE.INTRA.VDW>
1.6937

>  <SCORE.INTRA.VDW.0>
-4.02152

>  <SCORE.INTRA.norm>
-0.0310732

>  <SCORE.RESTR>
0

>  <SCORE.RESTR.CAVITY>
0

>  <SCORE.RESTR.norm>
0

>  <SCORE.SYSTEM>
0

>  <SCORE.SYSTEM.CONST>
0

>  <SCORE.SYSTEM.DIHEDRAL>
0

>  <SCORE.SYSTEM.SOLV>
0

>  <SCORE.SYSTEM.norm>
0

>  <SCORE.heavy>
27

>  <SCORE.norm>
-0.685439

>  <RMSD>
7.040

$$$$
lig.pdb
 OpenBabel11021811493D
libRbt.so/2013.1/901 2013/11/27
 27 29  0  0  0  0  0  0  0  0999 V2000
    6.2840  -16.4945   -4.6764 N   0  0  0  0  0  0  0  0  0  0  0  0
    6.3150  -15.1662   -3.9917 C   0  0  2  0  0  0  0  0  0  0  0  0
    5.9129  -15.3478   -2.5311 C   0  0  0  0  0  0  0  0  0  0  0  0
    5.2918  -14.4590   -1.9601 O   0  0  0  0  0  0  0  0  0  0  0  0
    6.1914  -16.3630   -1.8802 O   0  0  0  0  0  0  0  0  0  0  0  0
    5.4606  -14.0892   -4.6901 C   0  0  0  0  0  0  0  0  0  0  0  0
    4.8897  -14.4485   -6.0871 C   0  0  0  0  0  0  0  0  0  0  0  0
    3.8642  -13.2021   -6.9805 S   0  0  2  0  0  0  0  0  0  0  0  0
    2.2084  -13.6082   -6.3865 C   0  0  0  0  0  0  0  0  0  0  0  0
    3.7571  -13.8639   -8.6575 C   0  0  0  0  0  0  0  0  0  0  0  0
    5.1064  -13.7270   -9.3505 C   0  0  1  0  0  0  0  0  0  0  0  0
    5.9656  -14.8280   -9.0960 O   0  0  0  0  0  0  0  0  0  0  0  0
    4.9998  -13.6923  -10.8514 C   0  0  1  0  0  0  0  0  0  0  0  0
    4.6006  -12.4213  -11.2769 O   0  0  0  0  0  0  0  0  0  0  0  0
    6.4228  -14.0285  -11.2395 C   0  0  1  0  0  0  0  0  0  0  0  0
    7.2300  -12.8700  -11.1819 O   0  0  0  0  0  0  0  0  0  0  0  0
    6.8811  -15.0053  -10.1623 C   0  0  2  0  0  0  0  0  0  0  0  0
    6.9562  -16.4286  -10.5921 N   0  0  0  0  0  0  0  0  0  0  0  0
    7.8710  -16.9429  -11.4763 C   0  0  0  0  0  0  0  0  0  0  0  0
    7.6434  -18.2664  -11.6306 N   0  0  0  0  0  0  0  0  0  0  0  0
    6.6041  -18.6175  -10.8556 C   0  0  0  0  0  0  0  0  0  0  0  0
    5.9764  -19.8342  -10.6359 C   0  0  0  0  0  0  0  0  0  0  0  0
    6.4003  -20.9282  -11.2547 N   0  0  0  0  0  0  0  0  0  0  0  0
    4.9097  -19.8934   -9.7610 N   0  0  0  0  0  0  0  0  0  0  0  0
    4.4615  -18.7575   -9.0987 C   0  0  0  0  0  0  0  0  0  0  0  0
    5.1024  -17.5566   -9.3256 N   0  0  0  0  0  0  0  0  0  0  0  0
    6.1531  -17.4783  -10.1935 C   0  0  0  0  0  0  0  0  0  0  0  0
  2  3  1  1  0  0  0
  2  6  1  0  0  0  0
  2  1  1  0  0  0  0
  4  3  2  0  0  0  0
  5  3  1  0  0  0  0
  6  7  2  0  0  0  0
  8  7  1  1  0  0  0
  8  9  1  0  0  0  0
  8 10  1  0  0  0  0
 11 10  1  1  0  0  0
 11 13  1  0  0  0  0
 12 11  1  0  0  0  0
 12 17  1  0  0  0  0
 13 14  1  1  0  0  0
 13 15  1  0  0  0  0
 15 16  1  1  0  0  0
 17 18  1  6  0  0  0
 17 15  1  0  0  0  0
 18 19  1  0  0  0  0
 20 19  2  0  0  0  0
 21 27  2  0  0  0  0
 21 20  1  0  0  0  0
 22 21  1  0  0  0  0
 23 22  1  0  0  0  0
 24 22  2  0  0  0  0
 24 25  1  0  0  0  0
 25 26  2  0  0  0  0
 26 27  1  0  0  0  0
 27 18  1  0  0  0  0
M  END
>  <CHROM.1>
-146.57547510,-9.42684600,-89.81548458,-71.48287186,86.84300762,-171.10297385
5.58173703,-15.66925465,-8.25376420,-2.27461931,1.32331980,-1.25022093

>  <Name>
lig.pdb

>  <RI>
0

>  <Rbt.Current_Directory>
/home/itssahil/PROJECTS/Mol_Feturizer/New_Systems/rnas/4b5r

>  <Rbt.Executable>
rbdock ($Id: //depot/dev/client3/rdock/2013.1/src/exe/rbdock.cxx#4 $)

>  <Rbt.Library>
libRbt.so (2013.1, Build901 2013/11/27)

>  <Rbt.Parameter_File>
/export/apps/rDock/src/rDock_2013.1_src/data/scripts/dock_solv.prm

>  <Rbt.Receptor>
prm/pocket_docking_8.prm

>  <SCORE>
-14.2954

>  <SCORE.INTER>
-14.8905

>  <SCORE.INTER.CONST>
1

>  <SCORE.INTER.POLAR>
0

>  <SCORE.INTER.ROT>
6

>  <SCORE.INTER.SOLV>
14.5279

>  <SCORE.INTER.VDW>
-22.3697

>  <SCORE.INTER.norm>
-0.551501

>  <SCORE.INTRA>
0.595113

>  <SCORE.INTRA.DIHEDRAL>
-0.0409414

>  <SCORE.INTRA.DIHEDRAL.0>
10.2917

>  <SCORE.INTRA.POLAR>
0

>  <SCORE.INTRA.POLAR.0>
0

>  <SCORE.INTRA.REPUL>
0

>  <SCORE.INTRA.REPUL.0>
0

>  <SCORE.INTRA.SOLV>
-2.1377

>  <SCORE.INTRA.SOLV.lig_0>
-39.6315

>  <SCORE.INTRA.VDW>
1.68443

>  <SCORE.INTRA.VDW.0>
-4.02152

>  <SCORE.INTRA.norm>
0.0220412

>  <SCORE.RESTR>
0

>  <SCORE.RESTR.CAVITY>
0

>  <SCORE.RESTR.norm>
0

>  <SCORE.SYSTEM>
0

>  <SCORE.SYSTEM.CONST>
0

>  <SCORE.SYSTEM.DIHEDRAL>
0

>  <SCORE.SYSTEM.SOLV>
0

>  <SCORE.SYSTEM.norm>
0

>  <SCORE.heavy>
27

>  <SCORE.norm>
-0.52946

>  <RMSD>
7.051

$$$$
lig.pdb
 OpenBabel11021811493D
libRbt.so/2013.1/901 2013/11/27
 27 29  0  0  0  0  0  0  0  0999 V2000
    5.4159  -19.9325   -5.9933 N   0  0  0  0  0  0  0  0  0  0  0  0
    4.2077  -19.7322   -6.8500 C   0  0  2  0  0  0  0  0  0  0  0  0
    4.5593  -20.0689   -8.2961 C   0  0  0  0  0  0  0  0  0  0  0  0
    5.7277  -20.0163   -8.6620 O   0  0  0  0  0  0  0  0  0  0  0  0
    3.7089  -20.3932   -9.1348 O   0  0  0  0  0  0  0  0  0  0  0  0
    3.5861  -18.3265   -6.7254 C   0  0  0  0  0  0  0  0  0  0  0  0
    3.8160  -17.3539   -7.9119 C   0  0  0  0  0  0  0  0  0  0  0  0
    3.1048  -15.6539   -7.8241 S   0  0  2  0  0  0  0  0  0  0  0  0
    1.3363  -15.9990   -7.9372 C   0  0  0  0  0  0  0  0  0  0  0  0
    3.3916  -14.9877   -9.4781 C   0  0  0  0  0  0  0  0  0  0  0  0
    4.8700  -14.6661   -9.6526 C   0  0  1  0  0  0  0  0  0  0  0  0
    5.6855  -15.8280   -9.6545 O   0  0  0  0  0  0  0  0  0  0  0  0
    5.1804  -14.0058  -10.9691 C   0  0  1  0  0  0  0  0  0  0  0  0
    4.8439  -12.6492  -10.9189 O   0  0  0  0  0  0  0  0  0  0  0  0
    6.6716  -14.2447  -11.0558 C   0  0  1  0  0  0  0  0  0  0  0  0
    7.3655  -13.2706  -10.3031 O   0  0  0  0  0  0  0  0  0  0  0  0
    6.8683  -15.6080  -10.4022 C   0  0  2  0  0  0  0  0  0  0  0  0
    7.1386  -16.7270  -11.3462 N   0  0  0  0  0  0  0  0  0  0  0  0
    7.1399  -18.0592  -11.0173 C   0  0  0  0  0  0  0  0  0  0  0  0
    7.4229  -18.7883  -12.1200 N   0  0  0  0  0  0  0  0  0  0  0  0
    7.5957  -17.9515  -13.1563 C   0  0  0  0  0  0  0  0  0  0  0  0
    7.8885  -18.1740  -14.4932 C   0  0  0  0  0  0  0  0  0  0  0  0
    8.0478  -19.4100  -14.9475 N   0  0  0  0  0  0  0  0  0  0  0  0
    8.0059  -17.0941  -15.3457 N   0  0  0  0  0  0  0  0  0  0  0  0
    7.8320  -15.7949  -14.8857 C   0  0  0  0  0  0  0  0  0  0  0  0
    7.5353  -15.5934  -13.5530 N   0  0  0  0  0  0  0  0  0  0  0  0
    7.4239  -16.6488  -12.6946 C   0  0  0  0  0  0  0  0  0  0  0  0
  2  3  1  6  0  0  0
  2  6  1  0  0  0  0
  2  1  1  0  0  0  0
  4  3  2  0  0  0  0
  5  3  1  0  0  0  0
  6  7  2  0  0  0  0
  8  7  1  6  0  0  0
  8  9  1  0  0  0  0
  8 10  1  0  0  0  0
 11 10  1  6  0  0  0
 11 13  1  0  0  0  0
 12 11  1  0  0  0  0
 12 17  1  0  0  0  0
 13 14  1  1  0  0  0
 13 15  1  0  0  0  0
 15 16  1  1  0  0  0
 17 18  1  6  0  0  0
 17 15  1  0  0  0  0
 18 19  1  0  0  0  0
 20 19  2  0  0  0  0
 21 27  2  0  0  0  0
 21 20  1  0  0  0  0
 22 21  1  0  0  0  0
 23 22  1  0  0  0  0
 24 22  2  0  0  0  0
 24 25  1  0  0  0  0
 25 26  2  0  0  0  0
 26 27  1  0  0  0  0
 27 18  1  0  0  0  0
M  END
>  <CHROM.1>
-23.23549687,105.73777415,-68.57620534,-73.21588201,67.02213978,-49.72792876
5.63003143,-16.83636399,-10.39430512,-2.80593377,0.95285190,-0.24294780

>  <Name>
lig.pdb

>  <RI>
0

>  <Rbt.Current_Directory>
/home/itssahil/PROJECTS/Mol_Feturizer/New_Systems/rnas/4b5r

>  <Rbt.Executable>
rbdock ($Id: //depot/dev/client3/rdock/2013.1/src/exe/rbdock.cxx#4 $)

>  <Rbt.Library>
libRbt.so (2013.1, Build901 2013/11/27)

>  <Rbt.Parameter_File>
/export/apps/rDock/src/rDock_2013.1_src/data/scripts/dock_solv.prm

>  <Rbt.Receptor>
prm/pocket_docking_6.prm

>  <SCORE>
-10.9637

>  <SCORE.INTER>
-10.1087

>  <SCORE.INTER.CONST>
1

>  <SCORE.INTER.POLAR>
0

>  <SCORE.INTER.ROT>
6

>  <SCORE.INTER.SOLV>
13.0223

>  <SCORE.INTER.VDW>
-18.6799

>  <SCORE.INTER.norm>
-0.374395

>  <SCORE.INTRA>
-0.855062

>  <SCORE.INTRA.DIHEDRAL>
-2.48176

>  <SCORE.INTRA.DIHEDRAL.0>
10.2917

>  <SCORE.INTRA.POLAR>
0

>  <SCORE.INTRA.POLAR.0>
0

>  <SCORE.INTRA.REPUL>
0

>  <SCORE.INTRA.REPUL.0>
0

>  <SCORE.INTRA.SOLV>
-2.42904

>  <SCORE.INTRA.SOLV.lig_0>
-39.6315

>  <SCORE.INTRA.VDW>
1.60034

>  <SCORE.INTRA.VDW.0>
-4.02152

>  <SCORE.INTRA.norm>
-0.0316689

>  <SCORE.RESTR>
0

>  <SCORE.RESTR.CAVITY>
0

>  <SCORE.RESTR.norm>
0

>  <SCORE.SYSTEM>
0

>  <SCORE.SYSTEM.CONST>
0

>  <SCORE.SYSTEM.DIHEDRAL>
0

>  <SCORE.SYSTEM.SOLV>
0

>  <SCORE.SYSTEM.norm>
0

>  <SCORE.heavy>
27

>  <SCORE.norm>
-0.406064

>  <RMSD>
7.062

$$$$
lig.pdb
 OpenBabel11021811493D
libRbt.so/2013.1/901 2013/11/27
 27 29  0  0  0  0  0  0  0  0999 V2000
    5.4452  -15.2267   -4.4034 N   0  0  0  0  0  0  0  0  0  0  0  0
    5.1292  -15.5802   -5.8208 C   0  0  2  0  0  0  0  0  0  0  0  0
    6.4284  -15.8823   -6.5618 C   0  0  0  0  0  0  0  0  0  0  0  0
    6.4271  -16.6983   -7.4760 O   0  0  0  0  0  0  0  0  0  0  0  0
    7.5038  -15.3394   -6.2781 O   0  0  0  0  0  0  0  0  0  0  0  0
    4.2885  -14.5144   -6.5524 C   0  0  0  0  0  0  0  0  0  0  0  0
    3.1045  -15.0288   -7.4127 C   0  0  0  0  0  0  0  0  0  0  0  0
    2.0622  -13.8064   -8.3197 S   0  0  2  0  0  0  0  0  0  0  0  0
    1.1015  -13.0849   -6.9722 C   0  0  0  0  0  0  0  0  0  0  0  0
    0.7866  -14.8259   -9.0913 C   0  0  0  0  0  0  0  0  0  0  0  0
    1.2930  -15.3594  -10.4249 C   0  0  1  0  0  0  0  0  0  0  0  0
    1.7760  -14.3316  -11.2768 O   0  0  0  0  0  0  0  0  0  0  0  0
    2.4669  -16.2906  -10.2823 C   0  0  1  0  0  0  0  0  0  0  0  0
    2.0303  -17.5595   -9.8881 O   0  0  0  0  0  0  0  0  0  0  0  0
    3.0169  -16.2632  -11.6912 C   0  0  1  0  0  0  0  0  0  0  0  0
    2.2949  -17.1574  -12.5134 O   0  0  0  0  0  0  0  0  0  0  0  0
    2.7579  -14.8370  -12.1638 C   0  0  2  0  0  0  0  0  0  0  0  0
    3.9600  -13.9601  -12.2115 N   0  0  0  0  0  0  0  0  0  0  0  0
    4.4783  -13.2663  -11.1470 C   0  0  0  0  0  0  0  0  0  0  0  0
    5.5681  -12.5780  -11.5542 N   0  0  0  0  0  0  0  0  0  0  0  0
    5.7679  -12.8217  -12.8599 C   0  0  0  0  0  0  0  0  0  0  0  0
    6.7349  -12.3825  -13.7512 C   0  0  0  0  0  0  0  0  0  0  0  0
    7.6968  -11.5637  -13.3464 N   0  0  0  0  0  0  0  0  0  0  0  0
    6.6875  -12.8129  -15.0624 N   0  0  0  0  0  0  0  0  0  0  0  0
    5.6916  -13.6780  -15.4977 C   0  0  0  0  0  0  0  0  0  0  0  0
    4.7411  -14.1091  -14.5948 N   0  0  0  0  0  0  0  0  0  0  0  0
    4.7680  -13.6870  -13.2970 C   0  0  0  0  0  0  0  0  0  0  0  0
  2  3  1  6  0  0  0
  2  6  1  0  0  0  0
  2  1  1  0  0  0  0
  4  3  2  0  0  0  0
  5  3  1  0  0  0  0
  6  7  2  0  0  0  0
  8  7  1  1  0  0  0
  8  9  1  0  0  0  0
  8 10  1  0  0  0  0
 11 10  1  1  0  0  0
 11 13  1  0  0  0  0
 12 11  1  0  0  0  0
 12 17  1  0  0  0  0
 13 14  1  6  0  0  0
 13 15  1  0  0  0  0
 15 16  1  6  0  0  0
 17 18  1  1  0  0  0
 17 15  1  0  0  0  0
 18 19  1  0  0  0  0
 20 19  2  0  0  0  0
 21 27  2  0  0  0  0
 21 20  1  0  0  0  0
 22 21  1  0  0  0  0
 23 22  1  0  0  0  0
 24 22  2  0  0  0  0
 24 25  1  0  0  0  0
 25 26  2  0  0  0  0
 26 27  1  0  0  0  0
 27 18  1  0  0  0  0
M  END
>  <CHROM.1>
148.89216604,-135.66481186,-73.99618039,-85.69471207,-53.05201359,35.41800422
4.08847805,-14.55471673,-10.24057234,-1.75990073,-0.28631664,-1.37003766

>  <Name>
lig.pdb

>  <RI>
0

>  <Rbt.Current_Directory>
/home/itssahil/PROJECTS/Mol_Feturizer/New_Systems/rnas/4b5r

>  <Rbt.Executable>
rbdock ($Id: //depot/dev/client3/rdock/2013.1/src/exe/rbdock.cxx#4 $)

>  <Rbt.Library>
libRbt.so (2013.1, Build901 2013/11/27)

>  <Rbt.Parameter_File>
/export/apps/rDock/src/rDock_2013.1_src/data/scripts/dock_solv.prm

>  <Rbt.Receptor>
prm/pocket_docking_6.prm

>  <SCORE>
-16.0301

>  <SCORE.INTER>
-14.6873

>  <SCORE.INTER.CONST>
1

>  <SCORE.INTER.POLAR>
0

>  <SCORE.INTER.ROT>
6

>  <SCORE.INTER.SOLV>
13.6478

>  <SCORE.INTER.VDW>
-21.9408

>  <SCORE.INTER.norm>
-0.543975

>  <SCORE.INTRA>
-1.34282

>  <SCORE.INTRA.DIHEDRAL>
-1.40713

>  <SCORE.INTRA.DIHEDRAL.0>
10.2917

>  <SCORE.INTRA.POLAR>
0

>  <SCORE.INTRA.POLAR.0>
0

>  <SCORE.INTRA.REPUL>
0

>  <SCORE.INTRA.REPUL.0>
0

>  <SCORE.INTRA.SOLV>
-3.0502

>  <SCORE.INTRA.SOLV.lig_0>
-39.6315

>  <SCORE.INTRA.VDW>
0.885851

>  <SCORE.INTRA.VDW.0>
-4.02152

>  <SCORE.INTRA.norm>
-0.0497339

>  <SCORE.RESTR>
0

>  <SCORE.RESTR.CAVITY>
0

>  <SCORE.RESTR.norm>
0

>  <SCORE.SYSTEM>
0

>  <SCORE.SYSTEM.CONST>
0

>  <SCORE.SYSTEM.DIHEDRAL>
0

>  <SCORE.SYSTEM.SOLV>
0

>  <SCORE.SYSTEM.norm>
0

>  <SCORE.heavy>
27

>  <SCORE.norm>
-0.593709

>  <RMSD>
7.063

$$$$
lig.pdb
 OpenBabel11021811493D
libRbt.so/2013.1/901 2013/11/27
 27 29  0  0  0  0  0  0  0  0999 V2000
    5.1491  -13.2370  -12.2462 N   0  0  0  0  0  0  0  0  0  0  0  0
    5.5411  -13.2023  -10.8043 C   0  0  2  0  0  0  0  0  0  0  0  0
    7.0230  -13.5447  -10.6813 C   0  0  0  0  0  0  0  0  0  0  0  0
    7.5981  -13.3659   -9.6141 O   0  0  0  0  0  0  0  0  0  0  0  0
    7.6870  -13.9970  -11.6228 O   0  0  0  0  0  0  0  0  0  0  0  0
    4.6701  -14.1011   -9.9037 C   0  0  0  0  0  0  0  0  0  0  0  0
    4.5725  -13.7045   -8.4071 C   0  0  0  0  0  0  0  0  0  0  0  0
    3.5517  -14.7415   -7.2730 S   0  0  2  0  0  0  0  0  0  0  0  0
    1.9005  -14.0718   -7.5638 C   0  0  0  0  0  0  0  0  0  0  0  0
    3.8825  -14.0391   -5.6424 C   0  0  0  0  0  0  0  0  0  0  0  0
    5.2532  -14.4919   -5.1569 C   0  0  1  0  0  0  0  0  0  0  0  0
    5.5832  -13.9633   -3.8814 O   0  0  0  0  0  0  0  0  0  0  0  0
    5.3506  -15.9817   -4.9657 C   0  0  1  0  0  0  0  0  0  0  0  0
    5.5275  -16.6153   -6.1999 O   0  0  0  0  0  0  0  0  0  0  0  0
    6.5691  -16.0689   -4.0736 C   0  0  1  0  0  0  0  0  0  0  0  0
    7.7475  -16.0028   -4.8508 O   0  0  0  0  0  0  0  0  0  0  0  0
    6.4810  -14.8219   -3.2008 C   0  0  2  0  0  0  0  0  0  0  0  0
    6.0525  -15.0642   -1.7959 N   0  0  0  0  0  0  0  0  0  0  0  0
    5.0390  -14.4015   -1.1504 C   0  0  0  0  0  0  0  0  0  0  0  0
    4.9283  -14.8791    0.1094 N   0  0  0  0  0  0  0  0  0  0  0  0
    5.8458  -15.8439    0.2860 C   0  0  0  0  0  0  0  0  0  0  0  0
    6.1489  -16.6526    1.3707 C   0  0  0  0  0  0  0  0  0  0  0  0
    5.4653  -16.5401    2.5020 N   0  0  0  0  0  0  0  0  0  0  0  0
    7.1660  -17.5795    1.2564 N   0  0  0  0  0  0  0  0  0  0  0  0
    7.8836  -17.7148    0.0747 C   0  0  0  0  0  0  0  0  0  0  0  0
    7.5638  -16.9052   -0.9962 N   0  0  0  0  0  0  0  0  0  0  0  0
    6.5670  -15.9778   -0.8979 C   0  0  0  0  0  0  0  0  0  0  0  0
  2  3  1  6  0  0  0
  2  6  1  0  0  0  0
  2  1  1  0  0  0  0
  4  3  2  0  0  0  0
  5  3  1  0  0  0  0
  6  7  2  0  0  0  0
  8  7  1  6  0  0  0
  8  9  1  0  0  0  0
  8 10  1  0  0  0  0
 11 10  1  1  0  0  0
 11 13  1  0  0  0  0
 12 11  1  0  0  0  0
 12 17  1  0  0  0  0
 13 14  1  6  0  0  0
 13 15  1  0  0  0  0
 15 16  1  6  0  0  0
 17 18  1  1  0  0  0
 17 15  1  0  0  0  0
 18 19  1  0  0  0  0
 20 19  2  0  0  0  0
 21 27  2  0  0  0  0
 21 20  1  0  0  0  0
 22 21  1  0  0  0  0
 23 22  1  0  0  0  0
 24 22  2  0  0  0  0
 24 25  1  0  0  0  0
 25 26  2  0  0  0  0
 26 27  1  0  0  0  0
 27 18  1  0  0  0  0
M  END
>  <CHROM.1>
168.41268500,-154.69270748,-83.36412850,-76.47247387,179.42766974,-9.22176916
5.70716361,-15.06116368,-4.86689707,-1.65137662,-0.27029175,1.78889574

>  <Name>
lig.pdb

>  <RI>
0

>  <Rbt.Current_Directory>
/home/itssahil/PROJECTS/Mol_Feturizer/New_Systems/rnas/4b5r

>  <Rbt.Executable>
rbdock ($Id: //depot/dev/client3/rdock/2013.1/src/exe/rbdock.cxx#4 $)

>  <Rbt.Library>
libRbt.so (2013.1, Build901 2013/11/27)

>  <Rbt.Parameter_File>
/export/apps/rDock/src/rDock_2013.1_src/data/scripts/dock_solv.prm

>  <Rbt.Receptor>
prm/blind_docking_20.prm

>  <SCORE>
-16.9395

>  <SCORE.INTER>
-17.2715

>  <SCORE.INTER.CONST>
1

>  <SCORE.INTER.POLAR>
0

>  <SCORE.INTER.ROT>
6

>  <SCORE.INTER.SOLV>
17.1529

>  <SCORE.INTER.VDW>
-24.832

>  <SCORE.INTER.norm>
-0.639686

>  <SCORE.INTRA>
-0.0654306

>  <SCORE.INTRA.DIHEDRAL>
-0.787005

>  <SCORE.INTRA.DIHEDRAL.0>
10.2917

>  <SCORE.INTRA.POLAR>
0

>  <SCORE.INTRA.POLAR.0>
0

>  <SCORE.INTRA.REPUL>
0

>  <SCORE.INTRA.REPUL.0>
0

>  <SCORE.INTRA.SOLV>
-2.90209

>  <SCORE.INTRA.SOLV.lig_0>
-39.6315

>  <SCORE.INTRA.VDW>
1.77912

>  <SCORE.INTRA.VDW.0>
-4.02152

>  <SCORE.INTRA.norm>
-0.00242336

>  <SCORE.RESTR>
0.397466

>  <SCORE.RESTR.CAVITY>
0.397466

>  <SCORE.RESTR.norm>
0.014721

>  <SCORE.SYSTEM>
0

>  <SCORE.SYSTEM.CONST>
0

>  <SCORE.SYSTEM.DIHEDRAL>
0

>  <SCORE.SYSTEM.SOLV>
0

>  <SCORE.SYSTEM.norm>
0

>  <SCORE.heavy>
27

>  <SCORE.norm>
-0.627389

>  <RMSD>
7.077

$$$$
lig.pdb
 OpenBabel11021811493D
libRbt.so/2013.1/901 2013/11/27
 27 29  0  0  0  0  0  0  0  0999 V2000
    7.0282  -16.3663   -3.2775 N   0  0  0  0  0  0  0  0  0  0  0  0
    6.9617  -16.4940   -4.7652 C   0  0  2  0  0  0  0  0  0  0  0  0
    6.7495  -15.1121   -5.3761 C   0  0  0  0  0  0  0  0  0  0  0  0
    7.0878  -14.9054   -6.5356 O   0  0  0  0  0  0  0  0  0  0  0  0
    6.2488  -14.1708   -4.7475 O   0  0  0  0  0  0  0  0  0  0  0  0
    5.9032  -17.5035   -5.2535 C   0  0  0  0  0  0  0  0  0  0  0  0
    4.8163  -16.9629   -6.2194 C   0  0  0  0  0  0  0  0  0  0  0  0
    3.5158  -18.1169   -6.8363 S   0  0  2  0  0  0  0  0  0  0  0  0
    4.4609  -19.6401   -7.0511 C   0  0  0  0  0  0  0  0  0  0  0  0
    3.3104  -17.6393   -8.5659 C   0  0  0  0  0  0  0  0  0  0  0  0
    3.1319  -16.1300   -8.6639 C   0  0  1  0  0  0  0  0  0  0  0  0
    4.3491  -15.4228   -8.4806 O   0  0  0  0  0  0  0  0  0  0  0  0
    2.6525  -15.6776  -10.0170 C   0  0  1  0  0  0  0  0  0  0  0  0
    1.2762  -15.8944  -10.1379 O   0  0  0  0  0  0  0  0  0  0  0  0
    3.0202  -14.2111   -9.9668 C   0  0  1  0  0  0  0  0  0  0  0  0
    2.0268  -13.4833   -9.2738 O   0  0  0  0  0  0  0  0  0  0  0  0
    4.3122  -14.1792   -9.1579 C   0  0  2  0  0  0  0  0  0  0  0  0
    5.5492  -13.9492   -9.9535 N   0  0  0  0  0  0  0  0  0  0  0  0
    6.7554  -14.5680   -9.7411 C   0  0  0  0  0  0  0  0  0  0  0  0
    7.6506  -14.1190  -10.6491 N   0  0  0  0  0  0  0  0  0  0  0  0
    7.0419  -13.2284  -11.4493 C   0  0  0  0  0  0  0  0  0  0  0  0
    7.4936  -12.4885  -12.5314 C   0  0  0  0  0  0  0  0  0  0  0  0
    8.7488  -12.6037  -12.9447 N   0  0  0  0  0  0  0  0  0  0  0  0
    6.6196  -11.6359  -13.1763 N   0  0  0  0  0  0  0  0  0  0  0  0
    5.3000  -11.5125  -12.7604 C   0  0  0  0  0  0  0  0  0  0  0  0
    4.8668  -12.2613  -11.6851 N   0  0  0  0  0  0  0  0  0  0  0  0
    5.7195  -13.1027  -11.0307 C   0  0  0  0  0  0  0  0  0  0  0  0
  2  3  1  6  0  0  0
  2  6  1  0  0  0  0
  2  1  1  0  0  0  0
  4  3  2  0  0  0  0
  5  3  1  0  0  0  0
  6  7  2  0  0  0  0
  8  7  1  1  0  0  0
  8  9  1  0  0  0  0
  8 10  1  0  0  0  0
 11 10  1  6  0  0  0
 11 13  1  0  0  0  0
 12 11  1  0  0  0  0
 12 17  1  0  0  0  0
 13 14  1  1  0  0  0
 13 15  1  0  0  0  0
 15 16  1  1  0  0  0
 17 18  1  6  0  0  0
 17 15  1  0  0  0  0
 18 19  1  0  0  0  0
 20 19  2  0  0  0  0
 21 27  2  0  0  0  0
 21 20  1  0  0  0  0
 22 21  1  0  0  0  0
 23 22  1  0  0  0  0
 24 22  2  0  0  0  0
 24 25  1  0  0  0  0
 25 26  2  0  0  0  0
 26 27  1  0  0  0  0
 27 18  1  0  0  0  0
M  END
>  <CHROM.1>
156.47244259,122.58001355,-37.23121586,-49.44733584,75.38517928,-21.31445774
5.15158284,-15.04619436,-8.75512989,-1.73089020,-0.43521882,-1.00930550

>  <Name>
lig.pdb

>  <RI>
0

>  <Rbt.Current_Directory>
/home/itssahil/PROJECTS/Mol_Feturizer/New_Systems/rnas/4b5r

>  <Rbt.Executable>
rbdock ($Id: //depot/dev/client3/rdock/2013.1/src/exe/rbdock.cxx#4 $)

>  <Rbt.Library>
libRbt.so (2013.1, Build901 2013/11/27)

>  <Rbt.Parameter_File>
/export/apps/rDock/src/rDock_2013.1_src/data/scripts/dock_solv.prm

>  <Rbt.Receptor>
prm/blind_docking_40.prm

>  <SCORE>
-13.5048

>  <SCORE.INTER>
-13.7573

>  <SCORE.INTER.CONST>
1

>  <SCORE.INTER.POLAR>
0

>  <SCORE.INTER.ROT>
6

>  <SCORE.INTER.SOLV>
15.6634

>  <SCORE.INTER.VDW>
-21.9927

>  <SCORE.INTER.norm>
-0.50953

>  <SCORE.INTRA>
0.252514

>  <SCORE.INTRA.DIHEDRAL>
-1.76376

>  <SCORE.INTRA.DIHEDRAL.0>
10.2917

>  <SCORE.INTRA.POLAR>
0

>  <SCORE.INTRA.POLAR.0>
0

>  <SCORE.INTRA.REPUL>
0

>  <SCORE.INTRA.REPUL.0>
0

>  <SCORE.INTRA.SOLV>
-2.36253

>  <SCORE.INTRA.SOLV.lig_0>
-39.6315

>  <SCORE.INTRA.VDW>
2.31566

>  <SCORE.INTRA.VDW.0>
-4.02152

>  <SCORE.INTRA.norm>
0.00935239

>  <SCORE.RESTR>
0

>  <SCORE.RESTR.CAVITY>
0

>  <SCORE.RESTR.norm>
0

>  <SCORE.SYSTEM>
0

>  <SCORE.SYSTEM.CONST>
0

>  <SCORE.SYSTEM.DIHEDRAL>
0

>  <SCORE.SYSTEM.SOLV>
0

>  <SCORE.SYSTEM.norm>
0

>  <SCORE.heavy>
27

>  <SCORE.norm>
-0.500178

>  <RMSD>
7.085

$$$$
lig.pdb
 OpenBabel11021811493D
libRbt.so/2013.1/901 2013/11/27
 27 29  0  0  0  0  0  0  0  0999 V2000
    6.5509  -15.3022   -5.1152 N   0  0  0  0  0  0  0  0  0  0  0  0
    5.2783  -15.9543   -5.5502 C   0  0  2  0  0  0  0  0  0  0  0  0
    5.5246  -17.4469   -5.7494 C   0  0  0  0  0  0  0  0  0  0  0  0
    6.6427  -17.9070   -5.5497 O   0  0  0  0  0  0  0  0  0  0  0  0
    4.6381  -18.2300   -6.1139 O   0  0  0  0  0  0  0  0  0  0  0  0
    4.6464  -15.3077   -6.7994 C   0  0  0  0  0  0  0  0  0  0  0  0
    3.1783  -14.8239   -6.6681 C   0  0  0  0  0  0  0  0  0  0  0  0
    2.3600  -14.0469   -8.1275 S   0  0  2  0  0  0  0  0  0  0  0  0
    1.1291  -12.9942   -7.3299 C   0  0  0  0  0  0  0  0  0  0  0  0
    1.2826  -15.3532   -8.7556 C   0  0  0  0  0  0  0  0  0  0  0  0
    1.2744  -15.3240  -10.2783 C   0  0  1  0  0  0  0  0  0  0  0  0
    1.9001  -14.1641  -10.8059 O   0  0  0  0  0  0  0  0  0  0  0  0
    2.0432  -16.4609  -10.8960 C   0  0  1  0  0  0  0  0  0  0  0  0
    1.2779  -17.6312  -10.8685 O   0  0  0  0  0  0  0  0  0  0  0  0
    2.2579  -15.9248  -12.2942 C   0  0  1  0  0  0  0  0  0  0  0  0
    1.1100  -16.1547  -13.0856 O   0  0  0  0  0  0  0  0  0  0  0  0
    2.4288  -14.4230  -12.0943 C   0  0  2  0  0  0  0  0  0  0  0  0
    3.8251  -13.9239  -12.2265 N   0  0  0  0  0  0  0  0  0  0  0  0
    4.4559  -13.0880  -11.3397 C   0  0  0  0  0  0  0  0  0  0  0  0
    5.7120  -12.8445  -11.7760 N   0  0  0  0  0  0  0  0  0  0  0  0
    5.9064  -13.5149  -12.9235 C   0  0  0  0  0  0  0  0  0  0  0  0
    7.0022  -13.6180  -13.7668 C   0  0  0  0  0  0  0  0  0  0  0  0
    8.1280  -12.9760  -13.4840 N   0  0  0  0  0  0  0  0  0  0  0  0
    6.9086  -14.4015  -14.9000 N   0  0  0  0  0  0  0  0  0  0  0  0
    5.7391  -15.0870  -15.2034 C   0  0  0  0  0  0  0  0  0  0  0  0
    4.6608  -14.9769  -14.3491 N   0  0  0  0  0  0  0  0  0  0  0  0
    4.7331  -14.2002  -13.2291 C   0  0  0  0  0  0  0  0  0  0  0  0
  2  3  1  6  0  0  0
  2  6  1  0  0  0  0
  2  1  1  0  0  0  0
  4  3  2  0  0  0  0
  5  3  1  0  0  0  0
  6  7  2  0  0  0  0
  8  7  1  1  0  0  0
  8  9  1  0  0  0  0
  8 10  1  0  0  0  0
 11 10  1  1  0  0  0
 11 13  1  0  0  0  0
 12 11  1  0  0  0  0
 12 17  1  0  0  0  0
 13 14  1  6  0  0  0
 13 15  1  0  0  0  0
 15 16  1  6  0  0  0
 17 18  1  1  0  0  0
 17 15  1  0  0  0  0
 18 19  1  0  0  0  0
 20 19  2  0  0  0  0
 21 27  2  0  0  0  0
 21 20  1  0  0  0  0
 22 21  1  0  0  0  0
 23 22  1  0  0  0  0
 24 22  2  0  0  0  0
 24 25  1  0  0  0  0
 25 26  2  0  0  0  0
 26 27  1  0  0  0  0
 27 18  1  0  0  0  0
M  END
>  <CHROM.1>
-0.08949588,-124.59375481,-153.62889726,-142.11059783,-10.49718268,-12.19236488
3.96218428,-15.03851160,-10.18919605,-1.67566994,-0.07667994,-1.33330571

>  <Name>
lig.pdb

>  <RI>
0

>  <Rbt.Current_Directory>
/home/itssahil/PROJECTS/Mol_Feturizer/New_Systems/rnas/4b5r

>  <Rbt.Executable>
rbdock ($Id: //depot/dev/client3/rdock/2013.1/src/exe/rbdock.cxx#4 $)

>  <Rbt.Library>
libRbt.so (2013.1, Build901 2013/11/27)

>  <Rbt.Parameter_File>
/export/apps/rDock/src/rDock_2013.1_src/data/scripts/dock_solv.prm

>  <Rbt.Receptor>
prm/pocket_docking_4.prm

>  <SCORE>
-9.11551

>  <SCORE.INTER>
-13.1832

>  <SCORE.INTER.CONST>
1

>  <SCORE.INTER.POLAR>
0

>  <SCORE.INTER.ROT>
6

>  <SCORE.INTER.SOLV>
11.953

>  <SCORE.INTER.VDW>
-20.3731

>  <SCORE.INTER.norm>
-0.488265

>  <SCORE.INTRA>
4.06765

>  <SCORE.INTRA.DIHEDRAL>
6.65974

>  <SCORE.INTRA.DIHEDRAL.0>
10.2917

>  <SCORE.INTRA.POLAR>
0

>  <SCORE.INTRA.POLAR.0>
0

>  <SCORE.INTRA.REPUL>
0

>  <SCORE.INTRA.REPUL.0>
0

>  <SCORE.INTRA.SOLV>
-3.02279

>  <SCORE.INTRA.SOLV.lig_0>
-39.6315

>  <SCORE.INTRA.VDW>
2.24918

>  <SCORE.INTRA.VDW.0>
-4.02152

>  <SCORE.INTRA.norm>
0.150654

>  <SCORE.RESTR>
0

>  <SCORE.RESTR.CAVITY>
0

>  <SCORE.RESTR.norm>
0

>  <SCORE.SYSTEM>
0

>  <SCORE.SYSTEM.CONST>
0

>  <SCORE.SYSTEM.DIHEDRAL>
0

>  <SCORE.SYSTEM.SOLV>
0

>  <SCORE.SYSTEM.norm>
0

>  <SCORE.heavy>
27

>  <SCORE.norm>
-0.337611

>  <RMSD>
7.095

$$$$
lig.pdb
 OpenBabel11021811493D
libRbt.so/2013.1/901 2013/11/27
 27 29  0  0  0  0  0  0  0  0999 V2000
    5.7268  -16.1164   -6.6706 N   0  0  0  0  0  0  0  0  0  0  0  0
    4.7285  -17.2148   -6.4944 C   0  0  2  0  0  0  0  0  0  0  0  0
    5.4576  -18.4916   -6.0864 C   0  0  0  0  0  0  0  0  0  0  0  0
    6.6824  -18.5022   -6.0480 O   0  0  0  0  0  0  0  0  0  0  0  0
    4.8647  -19.5374   -5.7921 O   0  0  0  0  0  0  0  0  0  0  0  0
    3.8299  -17.4389   -7.7273 C   0  0  0  0  0  0  0  0  0  0  0  0
    4.0651  -18.7424   -8.5349 C   0  0  0  0  0  0  0  0  0  0  0  0
    3.0282  -19.0690  -10.0254 S   0  0  2  0  0  0  0  0  0  0  0  0
    3.6551  -20.6780  -10.5524 C   0  0  0  0  0  0  0  0  0  0  0  0
    3.7700  -18.0220  -11.2964 C   0  0  0  0  0  0  0  0  0  0  0  0
    3.1831  -16.6191  -11.2125 C   0  0  1  0  0  0  0  0  0  0  0  0
    4.1152  -15.6650  -10.7266 O   0  0  0  0  0  0  0  0  0  0  0  0
    2.7698  -16.0697  -12.5514 C   0  0  1  0  0  0  0  0  0  0  0  0
    1.5389  -16.6115  -12.9354 O   0  0  0  0  0  0  0  0  0  0  0  0
    2.6954  -14.5923  -12.2353 C   0  0  1  0  0  0  0  0  0  0  0  0
    1.4566  -14.2858  -11.6284 O   0  0  0  0  0  0  0  0  0  0  0  0
    3.8117  -14.3725  -11.2205 C   0  0  2  0  0  0  0  0  0  0  0  0
    5.0223  -13.6885  -11.7525 N   0  0  0  0  0  0  0  0  0  0  0  0
    5.1584  -12.3334  -11.9200 C   0  0  0  0  0  0  0  0  0  0  0  0
    6.3853  -12.0694  -12.4223 N   0  0  0  0  0  0  0  0  0  0  0  0
    7.0468  -13.2285  -12.5739 C   0  0  0  0  0  0  0  0  0  0  0  0
    8.3221  -13.5188  -13.0339 C   0  0  0  0  0  0  0  0  0  0  0  0
    9.1321  -12.5433  -13.4236 N   0  0  0  0  0  0  0  0  0  0  0  0
    8.7400  -14.8343  -13.0752 N   0  0  0  0  0  0  0  0  0  0  0  0
    7.9058  -15.8651  -12.6612 C   0  0  0  0  0  0  0  0  0  0  0  0
    6.6420  -15.5563  -12.2009 N   0  0  0  0  0  0  0  0  0  0  0  0
    6.2097  -14.2622  -12.1611 C   0  0  0  0  0  0  0  0  0  0  0  0
  2  3  1  6  0  0  0
  2  6  1  0  0  0  0
  2  1  1  0  0  0  0
  4  3  2  0  0  0  0
  5  3  1  0  0  0  0
  6  7  2  0  0  0  0
  8  7  1  1  0  0  0
  8  9  1  0  0  0  0
  8 10  1  0  0  0  0
 11 10  1  6  0  0  0
 11 13  1  0  0  0  0
 12 11  1  0  0  0  0
 12 17  1  0  0  0  0
 13 14  1  1  0  0  0
 13 15  1  0  0  0  0
 15 16  1  1  0  0  0
 17 18  1  6  0  0  0
 17 15  1  0  0  0  0
 18 19  1  0  0  0  0
 20 19  2  0  0  0  0
 21 27  2  0  0  0  0
 21 20  1  0  0  0  0
 22 21  1  0  0  0  0
 23 22  1  0  0  0  0
 24 22  2  0  0  0  0
 24 25  1  0  0  0  0
 25 26  2  0  0  0  0
 26 27  1  0  0  0  0
 27 18  1  0  0  0  0
M  END
>  <CHROM.1>
-4.97307822,109.58012410,-178.62712664,-85.59841651,109.40832054,-159.18404194
4.88804990,-16.12841377,-10.56543070,-1.89982920,-0.40260499,-0.89876997

>  <Name>
lig.pdb

>  <RI>
0

>  <Rbt.Current_Directory>
/home/itssahil/PROJECTS/Mol_Feturizer/New_Systems/rnas/4b5r

>  <Rbt.Executable>
rbdock ($Id: //depot/dev/client3/rdock/2013.1/src/exe/rbdock.cxx#4 $)

>  <Rbt.Library>
libRbt.so (2013.1, Build901 2013/11/27)

>  <Rbt.Parameter_File>
/export/apps/rDock/src/rDock_2013.1_src/data/scripts/dock_solv.prm

>  <Rbt.Receptor>
prm/pocket_docking_7.prm

>  <SCORE>
-8.60396

>  <SCORE.INTER>
-10.2911

>  <SCORE.INTER.CONST>
1

>  <SCORE.INTER.POLAR>
0

>  <SCORE.INTER.ROT>
6

>  <SCORE.INTER.SOLV>
12.2846

>  <SCORE.INTER.VDW>
-18.5556

>  <SCORE.INTER.norm>
-0.381153

>  <SCORE.INTRA>
1.68718

>  <SCORE.INTRA.DIHEDRAL>
3.12479

>  <SCORE.INTRA.DIHEDRAL.0>
10.2917

>  <SCORE.INTRA.POLAR>
0

>  <SCORE.INTRA.POLAR.0>
0

>  <SCORE.INTRA.REPUL>
0

>  <SCORE.INTRA.REPUL.0>
0

>  <SCORE.INTRA.SOLV>
-2.47587

>  <SCORE.INTRA.SOLV.lig_0>
-39.6315

>  <SCORE.INTRA.VDW>
1.36272

>  <SCORE.INTRA.VDW.0>
-4.02152

>  <SCORE.INTRA.norm>
0.062488

>  <SCORE.RESTR>
0

>  <SCORE.RESTR.CAVITY>
0

>  <SCORE.RESTR.norm>
0

>  <SCORE.SYSTEM>
0

>  <SCORE.SYSTEM.CONST>
0

>  <SCORE.SYSTEM.DIHEDRAL>
0

>  <SCORE.SYSTEM.SOLV>
0

>  <SCORE.SYSTEM.norm>
0

>  <SCORE.heavy>
27

>  <SCORE.norm>
-0.318665

>  <RMSD>
7.109

$$$$
lig.pdb
 OpenBabel11021811493D
libRbt.so/2013.1/901 2013/11/27
 27 29  0  0  0  0  0  0  0  0999 V2000
    6.8221  -19.4394   -4.4353 N   0  0  0  0  0  0  0  0  0  0  0  0
    5.8306  -19.3651   -5.5513 C   0  0  2  0  0  0  0  0  0  0  0  0
    5.9456  -20.6237   -6.4061 C   0  0  0  0  0  0  0  0  0  0  0  0
    7.0524  -21.0221   -6.7496 O   0  0  0  0  0  0  0  0  0  0  0  0
    4.9601  -21.2716   -6.7816 O   0  0  0  0  0  0  0  0  0  0  0  0
    5.9495  -18.0840   -6.4013 C   0  0  0  0  0  0  0  0  0  0  0  0
    6.6049  -16.8533   -5.7212 C   0  0  0  0  0  0  0  0  0  0  0  0
    6.7721  -15.2864   -6.6804 S   0  0  2  0  0  0  0  0  0  0  0  0
    5.8455  -14.1325   -5.6463 C   0  0  0  0  0  0  0  0  0  0  0  0
    5.5972  -15.4913   -8.0366 C   0  0  0  0  0  0  0  0  0  0  0  0
    5.9373  -14.5222   -9.1612 C   0  0  1  0  0  0  0  0  0  0  0  0
    7.1222  -14.8839   -9.8545 O   0  0  0  0  0  0  0  0  0  0  0  0
    4.8885  -14.4760  -10.2398 C   0  0  1  0  0  0  0  0  0  0  0  0
    3.8076  -13.6901   -9.8274 O   0  0  0  0  0  0  0  0  0  0  0  0
    5.6783  -13.8533  -11.3697 C   0  0  1  0  0  0  0  0  0  0  0  0
    5.7146  -12.4484  -11.2222 O   0  0  0  0  0  0  0  0  0  0  0  0
    7.0872  -14.4068  -11.1878 C   0  0  2  0  0  0  0  0  0  0  0  0
    7.4806  -15.4629  -12.1605 N   0  0  0  0  0  0  0  0  0  0  0  0
    8.0746  -15.2391  -13.3771 C   0  0  0  0  0  0  0  0  0  0  0  0
    8.2894  -16.4243  -13.9908 N   0  0  0  0  0  0  0  0  0  0  0  0
    7.8529  -17.4093  -13.1889 C   0  0  0  0  0  0  0  0  0  0  0  0
    7.8445  -18.7887  -13.3294 C   0  0  0  0  0  0  0  0  0  0  0  0
    8.3382  -19.3539  -14.4232 N   0  0  0  0  0  0  0  0  0  0  0  0
    7.3220  -19.5659  -12.3146 N   0  0  0  0  0  0  0  0  0  0  0  0
    6.8105  -18.9880  -11.1595 C   0  0  0  0  0  0  0  0  0  0  0  0
    6.8327  -17.6138  -11.0351 N   0  0  0  0  0  0  0  0  0  0  0  0
    7.3378  -16.8300  -12.0319 C   0  0  0  0  0  0  0  0  0  0  0  0
  2  3  1  6  0  0  0
  2  6  1  0  0  0  0
  2  1  1  0  0  0  0
  4  3  2  0  0  0  0
  5  3  1  0  0  0  0
  6  7  2  0  0  0  0
  8  7  1  1  0  0  0
  8  9  1  0  0  0  0
  8 10  1  0  0  0  0
 11 10  1  1  0  0  0
 11 13  1  0  0  0  0
 12 11  1  0  0  0  0
 12 17  1  0  0  0  0
 13 14  1  1  0  0  0
 13 15  1  0  0  0  0
 15 16  1  1  0  0  0
 17 18  1  6  0  0  0
 17 15  1  0  0  0  0
 18 19  1  0  0  0  0
 20 19  2  0  0  0  0
 21 27  2  0  0  0  0
 21 20  1  0  0  0  0
 22 21  1  0  0  0  0
 23 22  1  0  0  0  0
 24 22  2  0  0  0  0
 24 25  1  0  0  0  0
 25 26  2  0  0  0  0
 26 27  1  0  0  0  0
 27 18  1  0  0  0  0
M  END
>  <CHROM.1>
-46.33560257,-23.68802835,121.27168005,-161.02585830,71.40372128,-151.30182118
6.56258236,-16.76923342,-9.51906217,-2.13117081,1.28842297,-0.65658684

>  <Name>
lig.pdb

>  <RI>
0

>  <Rbt.Current_Directory>
/home/itssahil/PROJECTS/Mol_Feturizer/New_Systems/rnas/4b5r

>  <Rbt.Executable>
rbdock ($Id: //depot/dev/client3/rdock/2013.1/src/exe/rbdock.cxx#4 $)

>  <Rbt.Library>
libRbt.so (2013.1, Build901 2013/11/27)

>  <Rbt.Parameter_File>
/export/apps/rDock/src/rDock_2013.1_src/data/scripts/dock_solv.prm

>  <Rbt.Receptor>
prm/pocket_docking_7.prm

>  <SCORE>
-12.8225

>  <SCORE.INTER>
-12.9602

>  <SCORE.INTER.CONST>
1

>  <SCORE.INTER.POLAR>
0

>  <SCORE.INTER.ROT>
6

>  <SCORE.INTER.SOLV>
14.0506

>  <SCORE.INTER.VDW>
-20.9237

>  <SCORE.INTER.norm>
-0.480008

>  <SCORE.INTRA>
0.137685

>  <SCORE.INTRA.DIHEDRAL>
-0.169689

>  <SCORE.INTRA.DIHEDRAL.0>
10.2917

>  <SCORE.INTRA.POLAR>
0

>  <SCORE.INTRA.POLAR.0>
0

>  <SCORE.INTRA.REPUL>
0

>  <SCORE.INTRA.REPUL.0>
0

>  <SCORE.INTRA.SOLV>
-2.09771

>  <SCORE.INTRA.SOLV.lig_0>
-39.6315

>  <SCORE.INTRA.VDW>
1.27139

>  <SCORE.INTRA.VDW.0>
-4.02152

>  <SCORE.INTRA.norm>
0.00509944

>  <SCORE.RESTR>
0

>  <SCORE.RESTR.CAVITY>
0

>  <SCORE.RESTR.norm>
0

>  <SCORE.SYSTEM>
0

>  <SCORE.SYSTEM.CONST>
0

>  <SCORE.SYSTEM.DIHEDRAL>
0

>  <SCORE.SYSTEM.SOLV>
0

>  <SCORE.SYSTEM.norm>
0

>  <SCORE.heavy>
27

>  <SCORE.norm>
-0.474909

>  <RMSD>
7.189

$$$$
lig.pdb
 OpenBabel11021811493D
libRbt.so/2013.1/901 2013/11/27
 27 29  0  0  0  0  0  0  0  0999 V2000
    4.5204  -13.4382   -7.8782 N   0  0  0  0  0  0  0  0  0  0  0  0
    3.1246  -13.7872   -7.4731 C   0  0  2  0  0  0  0  0  0  0  0  0
    2.9948  -13.6497   -5.9590 C   0  0  0  0  0  0  0  0  0  0  0  0
    1.9514  -13.2236   -5.4780 O   0  0  0  0  0  0  0  0  0  0  0  0
    3.9078  -13.9470   -5.1781 O   0  0  0  0  0  0  0  0  0  0  0  0
    2.6667  -15.1761   -7.9622 C   0  0  0  0  0  0  0  0  0  0  0  0
    1.3393  -15.2313   -8.7632 C   0  0  0  0  0  0  0  0  0  0  0  0
    0.7308  -16.8630   -9.3722 S   0  0  2  0  0  0  0  0  0  0  0  0
   -0.9567  -16.8783   -8.7307 C   0  0  0  0  0  0  0  0  0  0  0  0
    1.4960  -18.0490   -8.2454 C   0  0  0  0  0  0  0  0  0  0  0  0
    2.9837  -18.1614   -8.5513 C   0  0  1  0  0  0  0  0  0  0  0  0
    3.7665  -18.3746   -7.3864 O   0  0  0  0  0  0  0  0  0  0  0  0
    3.3197  -19.3354   -9.4312 C   0  0  1  0  0  0  0  0  0  0  0  0
    3.0209  -19.0390  -10.7650 O   0  0  0  0  0  0  0  0  0  0  0  0
    4.8041  -19.4636   -9.1698 C   0  0  1  0  0  0  0  0  0  0  0  0
    5.5208  -18.5458   -9.9704 O   0  0  0  0  0  0  0  0  0  0  0  0
    4.9591  -19.0693   -7.7052 C   0  0  2  0  0  0  0  0  0  0  0  0
    5.2033  -20.2012   -6.7696 N   0  0  0  0  0  0  0  0  0  0  0  0
    4.7677  -21.4895   -6.9525 C   0  0  0  0  0  0  0  0  0  0  0  0
    5.1712  -22.2469   -5.9080 N   0  0  0  0  0  0  0  0  0  0  0  0
    5.8668  -21.4731   -5.0587 C   0  0  0  0  0  0  0  0  0  0  0  0
    6.5007  -21.7473   -3.8564 C   0  0  0  0  0  0  0  0  0  0  0  0
    6.4831  -22.9750   -3.3545 N   0  0  0  0  0  0  0  0  0  0  0  0
    7.1550  -20.7286   -3.1924 N   0  0  0  0  0  0  0  0  0  0  0  0
    7.1897  -19.4405   -3.7112 C   0  0  0  0  0  0  0  0  0  0  0  0
    6.5580  -19.1879   -4.9120 N   0  0  0  0  0  0  0  0  0  0  0  0
    5.8995  -20.1810   -5.5776 C   0  0  0  0  0  0  0  0  0  0  0  0
  2  3  1  1  0  0  0
  2  6  1  0  0  0  0
  2  1  1  0  0  0  0
  4  3  2  0  0  0  0
  5  3  1  0  0  0  0
  6  7  2  0  0  0  0
  8  7  1  1  0  0  0
  8  9  1  0  0  0  0
  8 10  1  0  0  0  0
 11 10  1  1  0  0  0
 11 13  1  0  0  0  0
 12 11  1  0  0  0  0
 12 17  1  0  0  0  0
 13 14  1  6  0  0  0
 13 15  1  0  0  0  0
 15 16  1  6  0  0  0
 17 18  1  1  0  0  0
 17 15  1  0  0  0  0
 18 19  1  0  0  0  0
 20 19  2  0  0  0  0
 21 27  2  0  0  0  0
 21 20  1  0  0  0  0
 22 21  1  0  0  0  0
 23 22  1  0  0  0  0
 24 22  2  0  0  0  0
 24 25  1  0  0  0  0
 25 26  2  0  0  0  0
 26 27  1  0  0  0  0
 27 18  1  0  0  0  0
M  END
>  <CHROM.1>
143.27535131,-126.51529333,127.36534600,-72.85077535,145.31221966,90.71795600
3.90717156,-18.09752345,-7.09463924,-2.64283663,0.90376670,-2.68161245

>  <Name>
lig.pdb

>  <RI>
0

>  <Rbt.Current_Directory>
/home/itssahil/PROJECTS/Mol_Feturizer/New_Systems/rnas/4b5r

>  <Rbt.Executable>
rbdock ($Id: //depot/dev/client3/rdock/2013.1/src/exe/rbdock.cxx#4 $)

>  <Rbt.Library>
libRbt.so (2013.1, Build901 2013/11/27)

>  <Rbt.Parameter_File>
/export/apps/rDock/src/rDock_2013.1_src/data/scripts/dock_solv.prm

>  <Rbt.Receptor>
prm/pocket_docking_8.prm

>  <SCORE>
-13.898

>  <SCORE.INTER>
-13.8842

>  <SCORE.INTER.CONST>
1

>  <SCORE.INTER.POLAR>
0

>  <SCORE.INTER.ROT>
6

>  <SCORE.INTER.SOLV>
14.3327

>  <SCORE.INTER.VDW>
-21.6337

>  <SCORE.INTER.norm>
-0.514229

>  <SCORE.INTRA>
-0.0138192

>  <SCORE.INTRA.DIHEDRAL>
-0.0467778

>  <SCORE.INTRA.DIHEDRAL.0>
10.2917

>  <SCORE.INTRA.POLAR>
0

>  <SCORE.INTRA.POLAR.0>
0

>  <SCORE.INTRA.REPUL>
0

>  <SCORE.INTRA.REPUL.0>
0

>  <SCORE.INTRA.SOLV>
-3.24372

>  <SCORE.INTRA.SOLV.lig_0>
-39.6315

>  <SCORE.INTRA.VDW>
1.63143

>  <SCORE.INTRA.VDW.0>
-4.02152

>  <SCORE.INTRA.norm>
-0.000511824

>  <SCORE.RESTR>
0

>  <SCORE.RESTR.CAVITY>
0

>  <SCORE.RESTR.norm>
0

>  <SCORE.SYSTEM>
0

>  <SCORE.SYSTEM.CONST>
0

>  <SCORE.SYSTEM.DIHEDRAL>
0

>  <SCORE.SYSTEM.SOLV>
0

>  <SCORE.SYSTEM.norm>
0

>  <SCORE.heavy>
27

>  <SCORE.norm>
-0.514741

>  <RMSD>
7.223

$$$$
lig.pdb
 OpenBabel11021811493D
libRbt.so/2013.1/901 2013/11/27
 27 29  0  0  0  0  0  0  0  0999 V2000
    6.9687  -15.2711   -6.9580 N   0  0  0  0  0  0  0  0  0  0  0  0
    6.0247  -15.8877   -5.9768 C   0  0  2  0  0  0  0  0  0  0  0  0
    6.5128  -15.5934   -4.5615 C   0  0  0  0  0  0  0  0  0  0  0  0
    7.5883  -16.0457   -4.1867 O   0  0  0  0  0  0  0  0  0  0  0  0
    5.8639  -14.9134   -3.7563 O   0  0  0  0  0  0  0  0  0  0  0  0
    5.7965  -17.3962   -6.2007 C   0  0  0  0  0  0  0  0  0  0  0  0
    4.3296  -17.8575   -6.4051 C   0  0  0  0  0  0  0  0  0  0  0  0
    3.9859  -19.6504   -6.6715 S   0  0  2  0  0  0  0  0  0  0  0  0
    5.3749  -20.4139   -5.8070 C   0  0  0  0  0  0  0  0  0  0  0  0
    4.4988  -19.9317   -8.3802 C   0  0  0  0  0  0  0  0  0  0  0  0
    3.7626  -18.9687   -9.3022 C   0  0  1  0  0  0  0  0  0  0  0  0
    4.2699  -17.6450   -9.2274 O   0  0  0  0  0  0  0  0  0  0  0  0
    3.8972  -19.3245  -10.7585 C   0  0  1  0  0  0  0  0  0  0  0  0
    3.0274  -20.3710  -11.0812 O   0  0  0  0  0  0  0  0  0  0  0  0
    3.5109  -18.0115  -11.4028 C   0  0  1  0  0  0  0  0  0  0  0  0
    2.1040  -17.8971  -11.4700 O   0  0  0  0  0  0  0  0  0  0  0  0
    4.0483  -16.9546  -10.4443 C   0  0  2  0  0  0  0  0  0  0  0  0
    5.2743  -16.2482  -10.9071 N   0  0  0  0  0  0  0  0  0  0  0  0
    6.5033  -16.8301  -11.0910 C   0  0  0  0  0  0  0  0  0  0  0  0
    7.3792  -15.8924  -11.5164 N   0  0  0  0  0  0  0  0  0  0  0  0
    6.7359  -14.7178  -11.6189 C   0  0  0  0  0  0  0  0  0  0  0  0
    7.1574  -13.4573  -12.0139 C   0  0  0  0  0  0  0  0  0  0  0  0
    8.4152  -13.2571  -12.3845 N   0  0  0  0  0  0  0  0  0  0  0  0
    6.2507  -12.4159  -12.0224 N   0  0  0  0  0  0  0  0  0  0  0  0
    4.9281  -12.6134  -11.6461 C   0  0  0  0  0  0  0  0  0  0  0  0
    4.5255  -13.8761  -11.2615 N   0  0  0  0  0  0  0  0  0  0  0  0
    5.4105  -14.9151  -11.2392 C   0  0  0  0  0  0  0  0  0  0  0  0
  2  3  1  1  0  0  0
  2  6  1  0  0  0  0
  2  1  1  0  0  0  0
  4  3  2  0  0  0  0
  5  3  1  0  0  0  0
  6  7  2  0  0  0  0
  8  7  1  1  0  0  0
  8  9  1  0  0  0  0
  8 10  1  0  0  0  0
 11 10  1  1  0  0  0
 11 13  1  0  0  0  0
 12 11  1  0  0  0  0
 12 17  1  0  0  0  0
 13 14  1  6  0  0  0
 13 15  1  0  0  0  0
 15 16  1  1  0  0  0
 17 18  1  6  0  0  0
 17 15  1  0  0  0  0
 18 19  1  0  0  0  0
 20 19  2  0  0  0  0
 21 27  2  0  0  0  0
 21 20  1  0  0  0  0
 22 21  1  0  0  0  0
 23 22  1  0  0  0  0
 24 22  2  0  0  0  0
 24 25  1  0  0  0  0
 25 26  2  0  0  0  0
 26 27  1  0  0  0  0
 27 18  1  0  0  0  0
M  END
>  <CHROM.1>
-63.81090324,-123.60792840,27.45720760,-55.65980069,75.10525530,54.04535671
5.24705215,-16.73311925,-9.02359857,-1.82849555,-1.01152332,-1.18547630

>  <Name>
lig.pdb

>  <RI>
0

>  <Rbt.Current_Directory>
/home/itssahil/PROJECTS/Mol_Feturizer/New_Systems/rnas/4b5r

>  <Rbt.Executable>
rbdock ($Id: //depot/dev/client3/rdock/2013.1/src/exe/rbdock.cxx#4 $)

>  <Rbt.Library>
libRbt.so (2013.1, Build901 2013/11/27)

>  <Rbt.Parameter_File>
/export/apps/rDock/src/rDock_2013.1_src/data/scripts/dock_solv.prm

>  <Rbt.Receptor>
prm/pocket_docking_5.prm

>  <SCORE>
-10.2402

>  <SCORE.INTER>
-9.98285

>  <SCORE.INTER.CONST>
1

>  <SCORE.INTER.POLAR>
0

>  <SCORE.INTER.ROT>
6

>  <SCORE.INTER.SOLV>
14.8975

>  <SCORE.INTER.VDW>
-19.2211

>  <SCORE.INTER.norm>
-0.369735

>  <SCORE.INTRA>
-0.257394

>  <SCORE.INTRA.DIHEDRAL>
-0.765166

>  <SCORE.INTRA.DIHEDRAL.0>
10.2917

>  <SCORE.INTRA.POLAR>
0

>  <SCORE.INTRA.POLAR.0>
0

>  <SCORE.INTRA.REPUL>
0

>  <SCORE.INTRA.REPUL.0>
0

>  <SCORE.INTRA.SOLV>
-3.09947

>  <SCORE.INTRA.SOLV.lig_0>
-39.6315

>  <SCORE.INTRA.VDW>
1.67492

>  <SCORE.INTRA.VDW.0>
-4.02152

>  <SCORE.INTRA.norm>
-0.00953311

>  <SCORE.RESTR>
0

>  <SCORE.RESTR.CAVITY>
0

>  <SCORE.RESTR.norm>
0

>  <SCORE.SYSTEM>
0

>  <SCORE.SYSTEM.CONST>
0

>  <SCORE.SYSTEM.DIHEDRAL>
0

>  <SCORE.SYSTEM.SOLV>
0

>  <SCORE.SYSTEM.norm>
0

>  <SCORE.heavy>
27

>  <SCORE.norm>
-0.379268

>  <RMSD>
7.246

$$$$
lig.pdb
 OpenBabel11021811493D
libRbt.so/2013.1/901 2013/11/27
 27 29  0  0  0  0  0  0  0  0999 V2000
   -0.7449  -16.4217   -9.4008 N   0  0  0  0  0  0  0  0  0  0  0  0
    0.4181  -16.7800   -8.5331 C   0  0  2  0  0  0  0  0  0  0  0  0
    0.8214  -15.5604   -7.7096 C   0  0  0  0  0  0  0  0  0  0  0  0
    1.9122  -15.5416   -7.1516 O   0  0  0  0  0  0  0  0  0  0  0  0
    0.0876  -14.5735   -7.5697 O   0  0  0  0  0  0  0  0  0  0  0  0
    1.6141  -17.3654   -9.3108 C   0  0  0  0  0  0  0  0  0  0  0  0
    1.4273  -17.5553  -10.8391 C   0  0  0  0  0  0  0  0  0  0  0  0
    2.8173  -18.2573  -11.8284 S   0  0  2  0  0  0  0  0  0  0  0  0
    3.0990  -19.8290  -10.9856 C   0  0  0  0  0  0  0  0  0  0  0  0
    4.2589  -17.3375  -11.2475 C   0  0  0  0  0  0  0  0  0  0  0  0
    5.4089  -17.5111  -12.2307 C   0  0  1  0  0  0  0  0  0  0  0  0
    5.1746  -16.8540  -13.4671 O   0  0  0  0  0  0  0  0  0  0  0  0
    6.7002  -16.9111  -11.7427 C   0  0  1  0  0  0  0  0  0  0  0  0
    7.3059  -17.7623  -10.8130 O   0  0  0  0  0  0  0  0  0  0  0  0
    7.4681  -16.8085  -13.0420 C   0  0  1  0  0  0  0  0  0  0  0  0
    8.0620  -18.0516  -13.3563 O   0  0  0  0  0  0  0  0  0  0  0  0
    6.3987  -16.4936  -14.0821 C   0  0  2  0  0  0  0  0  0  0  0  0
    6.3799  -15.0841  -14.5608 N   0  0  0  0  0  0  0  0  0  0  0  0
    6.6872  -14.6748  -15.8340 C   0  0  0  0  0  0  0  0  0  0  0  0
    6.5636  -13.3308  -15.9100 N   0  0  0  0  0  0  0  0  0  0  0  0
    6.1737  -12.8661  -14.7117 C   0  0  0  0  0  0  0  0  0  0  0  0
    5.8960  -11.5867  -14.2551 C   0  0  0  0  0  0  0  0  0  0  0  0
    6.0003  -10.5465  -15.0718 N   0  0  0  0  0  0  0  0  0  0  0  0
    5.5040  -11.4101  -12.9429 N   0  0  0  0  0  0  0  0  0  0  0  0
    5.3813  -12.4913  -12.0794 C   0  0  0  0  0  0  0  0  0  0  0  0
    5.6562  -13.7579  -12.5533 N   0  0  0  0  0  0  0  0  0  0  0  0
    6.0530  -13.9497  -13.8452 C   0  0  0  0  0  0  0  0  0  0  0  0
  2  3  1  6  0  0  0
  2  6  1  0  0  0  0
  2  1  1  0  0  0  0
  4  3  2  0  0  0  0
  5  3  1  0  0  0  0
  6  7  2  0  0  0  0
  8  7  1  1  0  0  0
  8  9  1  0  0  0  0
  8 10  1  0  0  0  0
 11 10  1  1  0  0  0
 11 13  1  0  0  0  0
 12 11  1  0  0  0  0
 12 17  1  0  0  0  0
 13 14  1  1  0  0  0
 13 15  1  0  0  0  0
 15 16  1  6  0  0  0
 17 18  1  1  0  0  0
 17 15  1  0  0  0  0
 18 19  1  0  0  0  0
 20 19  2  0  0  0  0
 21 27  2  0  0  0  0
 21 20  1  0  0  0  0
 22 21  1  0  0  0  0
 23 22  1  0  0  0  0
 24 22  2  0  0  0  0
 24 25  1  0  0  0  0
 25 26  2  0  0  0  0
 26 27  1  0  0  0  0
 27 18  1  0  0  0  0
M  END
>  <CHROM.1>
-164.45444998,-2.55163810,56.91111751,-163.90957101,69.39143151,-127.21703717
4.44809326,-15.71825512,-11.97677283,2.63631847,-0.71863185,2.94273567

>  <Name>
lig.pdb

>  <RI>
0

>  <Rbt.Current_Directory>
/home/itssahil/PROJECTS/Mol_Feturizer/New_Systems/rnas/4b5r

>  <Rbt.Executable>
rbdock ($Id: //depot/dev/client3/rdock/2013.1/src/exe/rbdock.cxx#4 $)

>  <Rbt.Library>
libRbt.so (2013.1, Build901 2013/11/27)

>  <Rbt.Parameter_File>
/export/apps/rDock/src/rDock_2013.1_src/data/scripts/dock_solv.prm

>  <Rbt.Receptor>
prm/pocket_docking_6.prm

>  <SCORE>
-9.60324

>  <SCORE.INTER>
-10.1706

>  <SCORE.INTER.CONST>
1

>  <SCORE.INTER.POLAR>
0

>  <SCORE.INTER.ROT>
6

>  <SCORE.INTER.SOLV>
16.8761

>  <SCORE.INTER.VDW>
-20.0058

>  <SCORE.INTER.norm>
-0.376689

>  <SCORE.INTRA>
0.567355

>  <SCORE.INTRA.DIHEDRAL>
0.0961264

>  <SCORE.INTRA.DIHEDRAL.0>
10.2917

>  <SCORE.INTRA.POLAR>
0

>  <SCORE.INTRA.POLAR.0>
0

>  <SCORE.INTRA.REPUL>
0

>  <SCORE.INTRA.REPUL.0>
0

>  <SCORE.INTRA.SOLV>
-2.12833

>  <SCORE.INTRA.SOLV.lig_0>
-39.6315

>  <SCORE.INTRA.VDW>
1.58345

>  <SCORE.INTRA.VDW.0>
-4.02152

>  <SCORE.INTRA.norm>
0.0210132

>  <SCORE.RESTR>
0

>  <SCORE.RESTR.CAVITY>
0

>  <SCORE.RESTR.norm>
0

>  <SCORE.SYSTEM>
0

>  <SCORE.SYSTEM.CONST>
0

>  <SCORE.SYSTEM.DIHEDRAL>
0

>  <SCORE.SYSTEM.SOLV>
0

>  <SCORE.SYSTEM.norm>
0

>  <SCORE.heavy>
27

>  <SCORE.norm>
-0.355675

>  <RMSD>
7.246

$$$$
lig.pdb
 OpenBabel11021811493D
libRbt.so/2013.1/901 2013/11/27
 27 29  0  0  0  0  0  0  0  0999 V2000
    4.5252  -13.2379   -6.8770 N   0  0  0  0  0  0  0  0  0  0  0  0
    5.0495  -14.5506   -6.3912 C   0  0  2  0  0  0  0  0  0  0  0  0
    6.4329  -14.7881   -6.9895 C   0  0  0  0  0  0  0  0  0  0  0  0
    6.6557  -14.4557   -8.1478 O   0  0  0  0  0  0  0  0  0  0  0  0
    7.3565  -15.3137   -6.3551 O   0  0  0  0  0  0  0  0  0  0  0  0
    4.0994  -15.7349   -6.6602 C   0  0  0  0  0  0  0  0  0  0  0  0
    4.2234  -16.4295   -8.0418 C   0  0  0  0  0  0  0  0  0  0  0  0
    3.1116  -17.8494   -8.4308 S   0  0  2  0  0  0  0  0  0  0  0  0
    1.4902  -17.1469   -8.0605 C   0  0  0  0  0  0  0  0  0  0  0  0
    3.3032  -18.9415   -7.0053 C   0  0  0  0  0  0  0  0  0  0  0  0
    4.7676  -19.3294   -6.8490 C   0  0  1  0  0  0  0  0  0  0  0  0
    5.5068  -18.3805   -6.0949 O   0  0  0  0  0  0  0  0  0  0  0  0
    4.9613  -20.6180   -6.0957 C   0  0  1  0  0  0  0  0  0  0  0  0
    4.7143  -21.7088   -6.9355 O   0  0  0  0  0  0  0  0  0  0  0  0
    6.4153  -20.4923   -5.6979 C   0  0  1  0  0  0  0  0  0  0  0  0
    7.2490  -20.8896   -6.7675 O   0  0  0  0  0  0  0  0  0  0  0  0
    6.6054  -19.0000   -5.4501 C   0  0  2  0  0  0  0  0  0  0  0  0
    6.6967  -18.6050   -4.0176 N   0  0  0  0  0  0  0  0  0  0  0  0
    6.9768  -19.4545   -2.9770 C   0  0  0  0  0  0  0  0  0  0  0  0
    6.9795  -18.7540   -1.8208 N   0  0  0  0  0  0  0  0  0  0  0  0
    6.7149  -17.4665   -2.0971 C   0  0  0  0  0  0  0  0  0  0  0  0
    6.6115  -16.3438   -1.2901 C   0  0  0  0  0  0  0  0  0  0  0  0
    6.7909  -16.4419    0.0205 N   0  0  0  0  0  0  0  0  0  0  0  0
    6.3260  -15.1227   -1.8683 N   0  0  0  0  0  0  0  0  0  0  0  0
    6.1453  -15.0037   -3.2404 C   0  0  0  0  0  0  0  0  0  0  0  0
    6.2577  -16.1312   -4.0283 N   0  0  0  0  0  0  0  0  0  0  0  0
    6.5312  -17.3475   -3.4725 C   0  0  0  0  0  0  0  0  0  0  0  0
  2  3  1  6  0  0  0
  2  6  1  0  0  0  0
  2  1  1  0  0  0  0
  4  3  2  0  0  0  0
  5  3  1  0  0  0  0
  6  7  2  0  0  0  0
  8  7  1  1  0  0  0
  8  9  1  0  0  0  0
  8 10  1  0  0  0  0
 11 10  1  1  0  0  0
 11 13  1  0  0  0  0
 12 11  1  0  0  0  0
 12 17  1  0  0  0  0
 13 14  1  6  0  0  0
 13 15  1  0  0  0  0
 15 16  1  6  0  0  0
 17 18  1  1  0  0  0
 17 15  1  0  0  0  0
 18 19  1  0  0  0  0
 20 19  2  0  0  0  0
 21 27  2  0  0  0  0
 21 20  1  0  0  0  0
 22 21  1  0  0  0  0
 23 22  1  0  0  0  0
 24 22  2  0  0  0  0
 24 25  1  0  0  0  0
 25 26  2  0  0  0  0
 26 27  1  0  0  0  0
 27 18  1  0  0  0  0
M  END
>  <CHROM.1>
-38.51775381,86.56697432,52.26854882,-58.04266495,86.07629539,137.68315147
5.52136050,-17.43843541,-5.46784107,2.96050796,1.10184308,-3.10605578

>  <Name>
lig.pdb

>  <RI>
0

>  <Rbt.Current_Directory>
/home/itssahil/PROJECTS/Mol_Feturizer/New_Systems/rnas/4b5r

>  <Rbt.Executable>
rbdock ($Id: //depot/dev/client3/rdock/2013.1/src/exe/rbdock.cxx#4 $)

>  <Rbt.Library>
libRbt.so (2013.1, Build901 2013/11/27)

>  <Rbt.Parameter_File>
/export/apps/rDock/src/rDock_2013.1_src/data/scripts/dock_solv.prm

>  <Rbt.Receptor>
prm/pocket_docking_7.prm

>  <SCORE>
-14.1877

>  <SCORE.INTER>
-15.6056

>  <SCORE.INTER.CONST>
1

>  <SCORE.INTER.POLAR>
0

>  <SCORE.INTER.ROT>
6

>  <SCORE.INTER.SOLV>
15.234

>  <SCORE.INTER.VDW>
-23.0817

>  <SCORE.INTER.norm>
-0.577984

>  <SCORE.INTRA>
1.41786

>  <SCORE.INTRA.DIHEDRAL>
2.22262

>  <SCORE.INTRA.DIHEDRAL.0>
10.2917

>  <SCORE.INTRA.POLAR>
0

>  <SCORE.INTRA.POLAR.0>
0

>  <SCORE.INTRA.REPUL>
0.137084

>  <SCORE.INTRA.REPUL.0>
0

>  <SCORE.INTRA.SOLV>
-1.47141

>  <SCORE.INTRA.SOLV.lig_0>
-39.6315

>  <SCORE.INTRA.VDW>
0.356833

>  <SCORE.INTRA.VDW.0>
-4.02152

>  <SCORE.INTRA.norm>
0.0525132

>  <SCORE.RESTR>
0

>  <SCORE.RESTR.CAVITY>
0

>  <SCORE.RESTR.norm>
0

>  <SCORE.SYSTEM>
0

>  <SCORE.SYSTEM.CONST>
0

>  <SCORE.SYSTEM.DIHEDRAL>
0

>  <SCORE.SYSTEM.SOLV>
0

>  <SCORE.SYSTEM.norm>
0

>  <SCORE.heavy>
27

>  <SCORE.norm>
-0.52547

>  <RMSD>
7.301

$$$$
lig.pdb
 OpenBabel11021811493D
libRbt.so/2013.1/901 2013/11/27
 27 29  0  0  0  0  0  0  0  0999 V2000
    7.0349  -15.6749   -5.5772 N   0  0  0  0  0  0  0  0  0  0  0  0
    5.5900  -15.5177   -5.9258 C   0  0  2  0  0  0  0  0  0  0  0  0
    4.9409  -14.5502   -4.9405 C   0  0  0  0  0  0  0  0  0  0  0  0
    5.4710  -14.3474   -3.8544 O   0  0  0  0  0  0  0  0  0  0  0  0
    3.8847  -13.9529   -5.1845 O   0  0  0  0  0  0  0  0  0  0  0  0
    4.8230  -16.8531   -6.0047 C   0  0  0  0  0  0  0  0  0  0  0  0
    4.1037  -17.1669   -7.3430 C   0  0  0  0  0  0  0  0  0  0  0  0
    3.1622  -18.7454   -7.5022 S   0  0  2  0  0  0  0  0  0  0  0  0
    4.2250  -19.8896   -6.5963 C   0  0  0  0  0  0  0  0  0  0  0  0
    3.5107  -19.2790   -9.1921 C   0  0  0  0  0  0  0  0  0  0  0  0
    2.9421  -18.2666  -10.1776 C   0  0  1  0  0  0  0  0  0  0  0  0
    3.6048  -17.0126  -10.1161 O   0  0  0  0  0  0  0  0  0  0  0  0
    3.0988  -18.6870  -11.6143 C   0  0  1  0  0  0  0  0  0  0  0  0
    2.1224  -19.6306  -11.9494 O   0  0  0  0  0  0  0  0  0  0  0  0
    2.9076  -17.3603  -12.3152 C   0  0  1  0  0  0  0  0  0  0  0  0
    1.5301  -17.0779  -12.4561 O   0  0  0  0  0  0  0  0  0  0  0  0
    3.5264  -16.3437  -11.3623 C   0  0  2  0  0  0  0  0  0  0  0  0
    4.8502  -15.8084  -11.7836 N   0  0  0  0  0  0  0  0  0  0  0  0
    5.9577  -16.5665  -12.0694 C   0  0  0  0  0  0  0  0  0  0  0  0
    6.9771  -15.7496  -12.4169 N   0  0  0  0  0  0  0  0  0  0  0  0
    6.5453  -14.4786  -12.3693 C   0  0  0  0  0  0  0  0  0  0  0  0
    7.1734  -13.2718  -12.6368 C   0  0  0  0  0  0  0  0  0  0  0  0
    8.4422  -13.2479  -13.0231 N   0  0  0  0  0  0  0  0  0  0  0  0
    6.4603  -12.0970  -12.5020 N   0  0  0  0  0  0  0  0  0  0  0  0
    5.1283  -12.1077  -12.1077 C   0  0  0  0  0  0  0  0  0  0  0  0
    4.5184  -13.3189  -11.8515 N   0  0  0  0  0  0  0  0  0  0  0  0
    5.2107  -14.4891  -11.9715 C   0  0  0  0  0  0  0  0  0  0  0  0
  2  3  1  1  0  0  0
  2  6  1  0  0  0  0
  2  1  1  0  0  0  0
  4  3  2  0  0  0  0
  5  3  1  0  0  0  0
  6  7  2  0  0  0  0
  8  7  1  6  0  0  0
  8  9  1  0  0  0  0
  8 10  1  0  0  0  0
 11 10  1  1  0  0  0
 11 13  1  0  0  0  0
 12 11  1  0  0  0  0
 12 17  1  0  0  0  0
 13 14  1  6  0  0  0
 13 15  1  0  0  0  0
 15 16  1  1  0  0  0
 17 18  1  6  0  0  0
 17 15  1  0  0  0  0
 18 19  1  0  0  0  0
 20 19  2  0  0  0  0
 21 27  2  0  0  0  0
 21 20  1  0  0  0  0
 22 21  1  0  0  0  0
 23 22  1  0  0  0  0
 24 22  2  0  0  0  0
 24 25  1  0  0  0  0
 25 26  2  0  0  0  0
 26 27  1  0  0  0  0
 27 18  1  0  0  0  0
M  END
>  <CHROM.1>
-20.70414794,-123.16155530,-38.22123626,-63.96913854,66.88754015,63.70121267
4.60738078,-16.15398443,-9.65051194,-1.89389233,-0.99121205,-1.49409042

>  <Name>
lig.pdb

>  <RI>
0

>  <Rbt.Current_Directory>
/home/itssahil/PROJECTS/Mol_Feturizer/New_Systems/rnas/4b5r

>  <Rbt.Executable>
rbdock ($Id: //depot/dev/client3/rdock/2013.1/src/exe/rbdock.cxx#4 $)

>  <Rbt.Library>
libRbt.so (2013.1, Build901 2013/11/27)

>  <Rbt.Parameter_File>
/export/apps/rDock/src/rDock_2013.1_src/data/scripts/dock_solv.prm

>  <Rbt.Receptor>
prm/pocket_docking_8.prm

>  <SCORE>
-11.501

>  <SCORE.INTER>
-10.263

>  <SCORE.INTER.CONST>
1

>  <SCORE.INTER.POLAR>
0

>  <SCORE.INTER.ROT>
6

>  <SCORE.INTER.SOLV>
15.9906

>  <SCORE.INTER.VDW>
-19.7722

>  <SCORE.INTER.norm>
-0.380111

>  <SCORE.INTRA>
-1.23798

>  <SCORE.INTRA.DIHEDRAL>
-3.29759

>  <SCORE.INTRA.DIHEDRAL.0>
10.2917

>  <SCORE.INTRA.POLAR>
0

>  <SCORE.INTRA.POLAR.0>
0

>  <SCORE.INTRA.REPUL>
0

>  <SCORE.INTRA.REPUL.0>
0

>  <SCORE.INTRA.SOLV>
-3.38412

>  <SCORE.INTRA.SOLV.lig_0>
-39.6315

>  <SCORE.INTRA.VDW>
2.10287

>  <SCORE.INTRA.VDW.0>
-4.02152

>  <SCORE.INTRA.norm>
-0.0458513

>  <SCORE.RESTR>
0

>  <SCORE.RESTR.CAVITY>
0

>  <SCORE.RESTR.norm>
0

>  <SCORE.SYSTEM>
0

>  <SCORE.SYSTEM.CONST>
0

>  <SCORE.SYSTEM.DIHEDRAL>
0

>  <SCORE.SYSTEM.SOLV>
0

>  <SCORE.SYSTEM.norm>
0

>  <SCORE.heavy>
27

>  <SCORE.norm>
-0.425962

>  <RMSD>
7.304

$$$$
lig.pdb
 OpenBabel11021811493D
libRbt.so/2013.1/901 2013/11/27
 27 29  0  0  0  0  0  0  0  0999 V2000
   -1.1391  -16.7731   -8.7293 N   0  0  0  0  0  0  0  0  0  0  0  0
    0.3159  -16.5048   -8.5174 C   0  0  2  0  0  0  0  0  0  0  0  0
    0.5127  -15.0199   -8.2263 C   0  0  0  0  0  0  0  0  0  0  0  0
    1.2739  -14.6754   -7.3299 O   0  0  0  0  0  0  0  0  0  0  0  0
   -0.0717  -14.1298   -8.8572 O   0  0  0  0  0  0  0  0  0  0  0  0
    1.2097  -16.9827   -9.6796 C   0  0  0  0  0  0  0  0  0  0  0  0
    2.1731  -18.1612   -9.3802 C   0  0  0  0  0  0  0  0  0  0  0  0
    3.2750  -18.7779  -10.7252 S   0  0  2  0  0  0  0  0  0  0  0  0
    4.0491  -20.2017   -9.9297 C   0  0  0  0  0  0  0  0  0  0  0  0
    4.6631  -17.6228  -10.6999 C   0  0  0  0  0  0  0  0  0  0  0  0
    4.1734  -16.2241  -11.0510 C   0  0  1  0  0  0  0  0  0  0  0  0
    5.0992  -15.2126  -10.6834 O   0  0  0  0  0  0  0  0  0  0  0  0
    3.9826  -16.0178  -12.5297 C   0  0  1  0  0  0  0  0  0  0  0  0
    2.7778  -16.5938  -12.9451 O   0  0  0  0  0  0  0  0  0  0  0  0
    3.9740  -14.5068  -12.6013 C   0  0  1  0  0  0  0  0  0  0  0  0
    2.6909  -14.0111  -12.2772 O   0  0  0  0  0  0  0  0  0  0  0  0
    4.9584  -14.0776  -11.5192 C   0  0  2  0  0  0  0  0  0  0  0  0
    6.2753  -13.5960  -12.0193 N   0  0  0  0  0  0  0  0  0  0  0  0
    7.4968  -13.9468  -11.5018 C   0  0  0  0  0  0  0  0  0  0  0  0
    8.4709  -13.3233  -12.2016 N   0  0  0  0  0  0  0  0  0  0  0  0
    7.9009  -12.5835  -13.1669 C   0  0  0  0  0  0  0  0  0  0  0  0
    8.4359  -11.7694  -14.1536 C   0  0  0  0  0  0  0  0  0  0  0  0
    9.7497  -11.6200  -14.2597 N   0  0  0  0  0  0  0  0  0  0  0  0
    7.5848  -11.1220  -15.0273 N   0  0  0  0  0  0  0  0  0  0  0  0
    6.2075  -11.2769  -14.9339 C   0  0  0  0  0  0  0  0  0  0  0  0
    5.6937  -12.0958  -13.9491 N   0  0  0  0  0  0  0  0  0  0  0  0
    6.5200  -12.7368  -13.0718 C   0  0  0  0  0  0  0  0  0  0  0  0
  2  3  1  6  0  0  0
  2  6  1  0  0  0  0
  2  1  1  0  0  0  0
  4  3  2  0  0  0  0
  5  3  1  0  0  0  0
  6  7  2  0  0  0  0
  8  7  1  1  0  0  0
  8  9  1  0  0  0  0
  8 10  1  0  0  0  0
 11 10  1  6  0  0  0
 11 13  1  0  0  0  0
 12 11  1  0  0  0  0
 12 17  1  0  0  0  0
 13 14  1  1  0  0  0
 13 15  1  0  0  0  0
 15 16  1  1  0  0  0
 17 18  1  6  0  0  0
 17 15  1  0  0  0  0
 18 19  1  0  0  0  0
 20 19  2  0  0  0  0
 21 27  2  0  0  0  0
 21 20  1  0  0  0  0
 22 21  1  0  0  0  0
 23 22  1  0  0  0  0
 24 22  2  0  0  0  0
 24 25  1  0  0  0  0
 25 26  2  0  0  0  0
 26 27  1  0  0  0  0
 27 18  1  0  0  0  0
M  END
>  <CHROM.1>
136.62336326,-112.63510202,-175.02398921,-63.36798545,162.96479926,-15.85629850
4.25864570,-15.02506354,-11.40438315,2.48739462,-0.51303319,2.96163247

>  <Name>
lig.pdb

>  <RI>
0

>  <Rbt.Current_Directory>
/home/itssahil/PROJECTS/Mol_Feturizer/New_Systems/rnas/4b5r

>  <Rbt.Executable>
rbdock ($Id: //depot/dev/client3/rdock/2013.1/src/exe/rbdock.cxx#4 $)

>  <Rbt.Library>
libRbt.so (2013.1, Build901 2013/11/27)

>  <Rbt.Parameter_File>
/export/apps/rDock/src/rDock_2013.1_src/data/scripts/dock_solv.prm

>  <Rbt.Receptor>
prm/blind_docking_80.prm

>  <SCORE>
-10.9291

>  <SCORE.INTER>
-9.70215

>  <SCORE.INTER.CONST>
1

>  <SCORE.INTER.POLAR>
0

>  <SCORE.INTER.ROT>
6

>  <SCORE.INTER.SOLV>
17.8112

>  <SCORE.INTER.VDW>
-20.0052

>  <SCORE.INTER.norm>
-0.359339

>  <SCORE.INTRA>
-1.22694

>  <SCORE.INTRA.DIHEDRAL>
-1.55046

>  <SCORE.INTRA.DIHEDRAL.0>
10.2917

>  <SCORE.INTRA.POLAR>
0

>  <SCORE.INTRA.POLAR.0>
0

>  <SCORE.INTRA.REPUL>
0

>  <SCORE.INTRA.REPUL.0>
0

>  <SCORE.INTRA.SOLV>
-2.7613

>  <SCORE.INTRA.SOLV.lig_0>
-39.6315

>  <SCORE.INTRA.VDW>
0.92894

>  <SCORE.INTRA.VDW.0>
-4.02152

>  <SCORE.INTRA.norm>
-0.0454422

>  <SCORE.RESTR>
0

>  <SCORE.RESTR.CAVITY>
0

>  <SCORE.RESTR.norm>
0

>  <SCORE.SYSTEM>
0

>  <SCORE.SYSTEM.CONST>
0

>  <SCORE.SYSTEM.DIHEDRAL>
0

>  <SCORE.SYSTEM.SOLV>
0

>  <SCORE.SYSTEM.norm>
0

>  <SCORE.heavy>
27

>  <SCORE.norm>
-0.404781

>  <RMSD>
7.316

$$$$
lig.pdb
 OpenBabel11021811493D
libRbt.so/2013.1/901 2013/11/27
 27 29  0  0  0  0  0  0  0  0999 V2000
    4.0674  -13.7876   -8.4203 N   0  0  0  0  0  0  0  0  0  0  0  0
    4.3320  -13.6028   -9.8797 C   0  0  2  0  0  0  0  0  0  0  0  0
    3.4212  -14.5340  -10.6743 C   0  0  0  0  0  0  0  0  0  0  0  0
    2.3322  -14.8536  -10.2121 O   0  0  0  0  0  0  0  0  0  0  0  0
    3.7339  -14.9956  -11.7793 O   0  0  0  0  0  0  0  0  0  0  0  0
    5.8133  -13.7833  -10.2684 C   0  0  0  0  0  0  0  0  0  0  0  0
    6.2646  -13.1512  -11.6112 C   0  0  0  0  0  0  0  0  0  0  0  0
    8.0226  -13.3359  -12.1392 S   0  0  2  0  0  0  0  0  0  0  0  0
    7.8302  -13.7645  -13.8824 C   0  0  0  0  0  0  0  0  0  0  0  0
    8.4969  -14.9488  -11.4794 C   0  0  0  0  0  0  0  0  0  0  0  0
    7.3526  -15.9364  -11.6662 C   0  0  1  0  0  0  0  0  0  0  0  0
    7.3660  -16.5527  -12.9450 O   0  0  0  0  0  0  0  0  0  0  0  0
    7.4086  -17.0950  -10.7071 C   0  0  1  0  0  0  0  0  0  0  0  0
    6.9286  -16.7056   -9.4525 O   0  0  0  0  0  0  0  0  0  0  0  0
    6.5022  -18.0818  -11.4093 C   0  0  1  0  0  0  0  0  0  0  0  0
    5.1497  -17.7928  -11.1191 O   0  0  0  0  0  0  0  0  0  0  0  0
    6.7554  -17.8297  -12.8915 C   0  0  2  0  0  0  0  0  0  0  0  0
    7.5803  -18.8631  -13.5753 N   0  0  0  0  0  0  0  0  0  0  0  0
    8.1913  -18.7111  -14.7946 C   0  0  0  0  0  0  0  0  0  0  0  0
    8.8539  -19.8481  -15.1038 N   0  0  0  0  0  0  0  0  0  0  0  0
    8.6890  -20.7280  -14.1024 C   0  0  0  0  0  0  0  0  0  0  0  0
    9.1572  -22.0191  -13.9117 C   0  0  0  0  0  0  0  0  0  0  0  0
    9.9248  -22.5956  -14.8271 N   0  0  0  0  0  0  0  0  0  0  0  0
    8.8196  -22.6939  -12.7552 N   0  0  0  0  0  0  0  0  0  0  0  0
    8.0245  -22.0990  -11.7838 C   0  0  0  0  0  0  0  0  0  0  0  0
    7.5727  -20.8112  -11.9885 N   0  0  0  0  0  0  0  0  0  0  0  0
    7.8899  -20.1326  -13.1296 C   0  0  0  0  0  0  0  0  0  0  0  0
  2  3  1  6  0  0  0
  2  6  1  0  0  0  0
  2  1  1  0  0  0  0
  4  3  2  0  0  0  0
  5  3  1  0  0  0  0
  6  7  2  0  0  0  0
  8  7  1  1  0  0  0
  8  9  1  0  0  0  0
  8 10  1  0  0  0  0
 11 10  1  6  0  0  0
 11 13  1  0  0  0  0
 12 11  1  0  0  0  0
 12 17  1  0  0  0  0
 13 14  1  1  0  0  0
 13 15  1  0  0  0  0
 15 16  1  6  0  0  0
 17 18  1  1  0  0  0
 17 15  1  0  0  0  0
 18 19  1  0  0  0  0
 20 19  2  0  0  0  0
 21 27  2  0  0  0  0
 21 20  1  0  0  0  0
 22 21  1  0  0  0  0
 23 22  1  0  0  0  0
 24 22  2  0  0  0  0
 24 25  1  0  0  0  0
 25 26  2  0  0  0  0
 26 27  1  0  0  0  0
 27 18  1  0  0  0  0
M  END
>  <CHROM.1>
28.94781243,-159.56311238,135.52610362,40.56702848,85.47026713,-44.69862366
6.91076193,-17.12760512,-12.06649513,2.12540399,0.68368099,0.01363913

>  <Name>
lig.pdb

>  <RI>
0

>  <Rbt.Current_Directory>
/home/itssahil/PROJECTS/Mol_Feturizer/New_Systems/rnas/4b5r

>  <Rbt.Executable>
rbdock ($Id: //depot/dev/client3/rdock/2013.1/src/exe/rbdock.cxx#4 $)

>  <Rbt.Library>
libRbt.so (2013.1, Build901 2013/11/27)

>  <Rbt.Parameter_File>
/export/apps/rDock/src/rDock_2013.1_src/data/scripts/dock_solv.prm

>  <Rbt.Receptor>
prm/blind_docking_40.prm

>  <SCORE>
-15.4463

>  <SCORE.INTER>
-16.378

>  <SCORE.INTER.CONST>
1

>  <SCORE.INTER.POLAR>
0

>  <SCORE.INTER.ROT>
6

>  <SCORE.INTER.SOLV>
15.6727

>  <SCORE.INTER.VDW>
-23.7429

>  <SCORE.INTER.norm>
-0.606592

>  <SCORE.INTRA>
0.931735

>  <SCORE.INTRA.DIHEDRAL>
0.838567

>  <SCORE.INTRA.DIHEDRAL.0>
10.2917

>  <SCORE.INTRA.POLAR>
0

>  <SCORE.INTRA.POLAR.0>
0

>  <SCORE.INTRA.REPUL>
0

>  <SCORE.INTRA.REPUL.0>
0

>  <SCORE.INTRA.SOLV>
-2.49494

>  <SCORE.INTRA.SOLV.lig_0>
-39.6315

>  <SCORE.INTRA.VDW>
1.75992

>  <SCORE.INTRA.VDW.0>
-4.02152

>  <SCORE.INTRA.norm>
0.0345087

>  <SCORE.RESTR>
0

>  <SCORE.RESTR.CAVITY>
0

>  <SCORE.RESTR.norm>
0

>  <SCORE.SYSTEM>
0

>  <SCORE.SYSTEM.CONST>
0

>  <SCORE.SYSTEM.DIHEDRAL>
0

>  <SCORE.SYSTEM.SOLV>
0

>  <SCORE.SYSTEM.norm>
0

>  <SCORE.heavy>
27

>  <SCORE.norm>
-0.572084

>  <RMSD>
7.334

$$$$
lig.pdb
 OpenBabel11021811493D
libRbt.so/2013.1/901 2013/11/27
 27 29  0  0  0  0  0  0  0  0999 V2000
    4.9801  -14.2880   -3.9730 N   0  0  0  0  0  0  0  0  0  0  0  0
    5.3006  -15.3342   -4.9912 C   0  0  2  0  0  0  0  0  0  0  0  0
    6.8158  -15.4480   -5.1305 C   0  0  0  0  0  0  0  0  0  0  0  0
    7.4596  -16.0348   -4.2686 O   0  0  0  0  0  0  0  0  0  0  0  0
    7.4396  -14.9647   -6.0839 O   0  0  0  0  0  0  0  0  0  0  0  0
    4.6172  -15.1023   -6.3539 C   0  0  0  0  0  0  0  0  0  0  0  0
    3.5203  -14.0066   -6.4073 C   0  0  0  0  0  0  0  0  0  0  0  0
    2.6581  -13.6829   -8.0058 S   0  0  2  0  0  0  0  0  0  0  0  0
    0.9269  -13.7349   -7.4963 C   0  0  0  0  0  0  0  0  0  0  0  0
    2.7676  -15.2624   -8.8747 C   0  0  0  0  0  0  0  0  0  0  0  0
    2.3277  -15.0837  -10.3218 C   0  0  1  0  0  0  0  0  0  0  0  0
    3.0955  -14.1078  -11.0098 O   0  0  0  0  0  0  0  0  0  0  0  0
    2.5003  -16.3281  -11.1506 C   0  0  1  0  0  0  0  0  0  0  0  0
    1.4578  -17.2250  -10.8962 O   0  0  0  0  0  0  0  0  0  0  0  0
    2.4531  -15.7430  -12.5448 C   0  0  1  0  0  0  0  0  0  0  0  0
    1.1121  -15.5539  -12.9485 O   0  0  0  0  0  0  0  0  0  0  0  0
    3.1231  -14.3813  -12.3994 C   0  0  2  0  0  0  0  0  0  0  0  0
    4.5036  -14.2954  -12.9498 N   0  0  0  0  0  0  0  0  0  0  0  0
    4.8331  -14.3678  -14.2799 C   0  0  0  0  0  0  0  0  0  0  0  0
    6.1736  -14.2526  -14.4119 N   0  0  0  0  0  0  0  0  0  0  0  0
    6.7143  -14.0985  -13.1922 C   0  0  0  0  0  0  0  0  0  0  0  0
    8.0241  -13.9296  -12.7695 C   0  0  0  0  0  0  0  0  0  0  0  0
    9.0139  -13.8966  -13.6520 N   0  0  0  0  0  0  0  0  0  0  0  0
    8.2838  -13.7901  -11.4205 N   0  0  0  0  0  0  0  0  0  0  0  0
    7.2560  -13.8131  -10.4862 C   0  0  0  0  0  0  0  0  0  0  0  0
    5.9582  -13.9763  -10.9261 N   0  0  0  0  0  0  0  0  0  0  0  0
    5.6843  -14.1240  -12.2552 C   0  0  0  0  0  0  0  0  0  0  0  0
  2  3  1  6  0  0  0
  2  6  1  0  0  0  0
  2  1  1  0  0  0  0
  4  3  2  0  0  0  0
  5  3  1  0  0  0  0
  6  7  2  0  0  0  0
  8  7  1  1  0  0  0
  8  9  1  0  0  0  0
  8 10  1  0  0  0  0
 11 10  1  1  0  0  0
 11 13  1  0  0  0  0
 12 11  1  0  0  0  0
 12 17  1  0  0  0  0
 13 14  1  6  0  0  0
 13 15  1  0  0  0  0
 15 16  1  1  0  0  0
 17 18  1  1  0  0  0
 17 15  1  0  0  0  0
 18 19  1  0  0  0  0
 20 19  2  0  0  0  0
 21 27  2  0  0  0  0
 21 20  1  0  0  0  0
 22 21  1  0  0  0  0
 23 22  1  0  0  0  0
 24 22  2  0  0  0  0
 24 25  1  0  0  0  0
 25 26  2  0  0  0  0
 26 27  1  0  0  0  0
 27 18  1  0  0  0  0
M  END
>  <CHROM.1>
76.44086357,-10.79589186,130.05616071,-169.45432047,57.64818814,-172.70247137
4.62887233,-14.67160087,-9.83351091,-1.55869103,-0.12812035,-1.52331521

>  <Name>
lig.pdb

>  <RI>
0

>  <Rbt.Current_Directory>
/home/itssahil/PROJECTS/Mol_Feturizer/New_Systems/rnas/4b5r

>  <Rbt.Executable>
rbdock ($Id: //depot/dev/client3/rdock/2013.1/src/exe/rbdock.cxx#4 $)

>  <Rbt.Library>
libRbt.so (2013.1, Build901 2013/11/27)

>  <Rbt.Parameter_File>
/export/apps/rDock/src/rDock_2013.1_src/data/scripts/dock_solv.prm

>  <Rbt.Receptor>
prm/pocket_docking_5.prm

>  <SCORE>
-13.6139

>  <SCORE.INTER>
-13.0798

>  <SCORE.INTER.CONST>
1

>  <SCORE.INTER.POLAR>
0

>  <SCORE.INTER.ROT>
6

>  <SCORE.INTER.SOLV>
16.9536

>  <SCORE.INTER.VDW>
-21.9711

>  <SCORE.INTER.norm>
-0.484436

>  <SCORE.INTRA>
-0.534127

>  <SCORE.INTRA.DIHEDRAL>
-2.31289

>  <SCORE.INTRA.DIHEDRAL.0>
10.2917

>  <SCORE.INTRA.POLAR>
0

>  <SCORE.INTRA.POLAR.0>
0

>  <SCORE.INTRA.REPUL>
0.00837707

>  <SCORE.INTRA.REPUL.0>
0

>  <SCORE.INTRA.SOLV>
-2.35539

>  <SCORE.INTRA.SOLV.lig_0>
-39.6315

>  <SCORE.INTRA.VDW>
1.75813

>  <SCORE.INTRA.VDW.0>
-4.02152

>  <SCORE.INTRA.norm>
-0.0197825

>  <SCORE.RESTR>
0

>  <SCORE.RESTR.CAVITY>
0

>  <SCORE.RESTR.norm>
0

>  <SCORE.SYSTEM>
0

>  <SCORE.SYSTEM.CONST>
0

>  <SCORE.SYSTEM.DIHEDRAL>
0

>  <SCORE.SYSTEM.SOLV>
0

>  <SCORE.SYSTEM.norm>
0

>  <SCORE.heavy>
27

>  <SCORE.norm>
-0.504219

>  <RMSD>
7.365

$$$$
lig.pdb
 OpenBabel11021811493D
libRbt.so/2013.1/901 2013/11/27
 27 29  0  0  0  0  0  0  0  0999 V2000
    4.5965  -14.1338   -4.8193 N   0  0  0  0  0  0  0  0  0  0  0  0
    4.8571  -15.3087   -5.7058 C   0  0  2  0  0  0  0  0  0  0  0  0
    6.3614  -15.4505   -5.9177 C   0  0  0  0  0  0  0  0  0  0  0  0
    6.9623  -14.6050   -6.5703 O   0  0  0  0  0  0  0  0  0  0  0  0
    7.0168  -16.3955   -5.4603 O   0  0  0  0  0  0  0  0  0  0  0  0
    4.0938  -15.2559   -7.0446 C   0  0  0  0  0  0  0  0  0  0  0  0
    2.8715  -14.3030   -7.1142 C   0  0  0  0  0  0  0  0  0  0  0  0
    1.9099  -14.1970   -8.6850 S   0  0  2  0  0  0  0  0  0  0  0  0
    0.2311  -14.5100   -8.0994 C   0  0  0  0  0  0  0  0  0  0  0  0
    2.2483  -15.7741   -9.4973 C   0  0  0  0  0  0  0  0  0  0  0  0
    1.9230  -15.6674  -10.9813 C   0  0  1  0  0  0  0  0  0  0  0  0
    2.6876  -14.6675  -11.6378 O   0  0  0  0  0  0  0  0  0  0  0  0
    2.2385  -16.9236  -11.7480 C   0  0  1  0  0  0  0  0  0  0  0  0
    1.2329  -17.8749  -11.5490 O   0  0  0  0  0  0  0  0  0  0  0  0
    2.2753  -16.3855  -13.1613 C   0  0  1  0  0  0  0  0  0  0  0  0
    0.9647  -16.2921  -13.6812 O   0  0  0  0  0  0  0  0  0  0  0  0
    2.8491  -14.9811  -13.0096 C   0  0  2  0  0  0  0  0  0  0  0  0
    4.2639  -14.8271  -13.4464 N   0  0  0  0  0  0  0  0  0  0  0  0
    5.0160  -15.7994  -14.0562 C   0  0  0  0  0  0  0  0  0  0  0  0
    6.2504  -15.3109  -14.3112 N   0  0  0  0  0  0  0  0  0  0  0  0
    6.3060  -14.0383  -13.8851 C   0  0  0  0  0  0  0  0  0  0  0  0
    7.3180  -13.0909  -13.9134 C   0  0  0  0  0  0  0  0  0  0  0  0
    8.4987  -13.3872  -14.4404 N   0  0  0  0  0  0  0  0  0  0  0  0
    7.0791  -11.8346  -13.3924 N   0  0  0  0  0  0  0  0  0  0  0  0
    5.8444  -11.5075  -12.8463 C   0  0  0  0  0  0  0  0  0  0  0  0
    4.8475  -12.4618  -12.8322 N   0  0  0  0  0  0  0  0  0  0  0  0
    5.0690  -13.7111  -13.3353 C   0  0  0  0  0  0  0  0  0  0  0  0
  2  3  1  6  0  0  0
  2  6  1  0  0  0  0
  2  1  1  0  0  0  0
  4  3  2  0  0  0  0
  5  3  1  0  0  0  0
  6  7  2  0  0  0  0
  8  7  1  1  0  0  0
  8  9  1  0  0  0  0
  8 10  1  0  0  0  0
 11 10  1  1  0  0  0
 11 13  1  0  0  0  0
 12 11  1  0  0  0  0
 12 17  1  0  0  0  0
 13 14  1  6  0  0  0
 13 15  1  0  0  0  0
 15 16  1  1  0  0  0
 17 18  1  1  0  0  0
 17 15  1  0  0  0  0
 18 19  1  0  0  0  0
 20 19  2  0  0  0  0
 21 27  2  0  0  0  0
 21 20  1  0  0  0  0
 22 21  1  0  0  0  0
 23 22  1  0  0  0  0
 24 22  2  0  0  0  0
 24 25  1  0  0  0  0
 25 26  2  0  0  0  0
 26 27  1  0  0  0  0
 27 18  1  0  0  0  0
M  END
>  <CHROM.1>
-68.41160378,-18.77184825,126.94629158,-161.10676230,59.88613226,125.11700148
4.13176881,-14.77615135,-10.63669457,-1.71579712,-0.38029938,-1.50216323

>  <Name>
lig.pdb

>  <RI>
0

>  <Rbt.Current_Directory>
/home/itssahil/PROJECTS/Mol_Feturizer/New_Systems/rnas/4b5r

>  <Rbt.Executable>
rbdock ($Id: //depot/dev/client3/rdock/2013.1/src/exe/rbdock.cxx#4 $)

>  <Rbt.Library>
libRbt.so (2013.1, Build901 2013/11/27)

>  <Rbt.Parameter_File>
/export/apps/rDock/src/rDock_2013.1_src/data/scripts/dock_solv.prm

>  <Rbt.Receptor>
prm/pocket_docking_4.prm

>  <SCORE>
-11.7531

>  <SCORE.INTER>
-12.6223

>  <SCORE.INTER.CONST>
1

>  <SCORE.INTER.POLAR>
0

>  <SCORE.INTER.ROT>
6

>  <SCORE.INTER.SOLV>
17.1878

>  <SCORE.INTER.VDW>
-21.7441

>  <SCORE.INTER.norm>
-0.467494

>  <SCORE.INTRA>
0.869231

>  <SCORE.INTRA.DIHEDRAL>
-1.00909

>  <SCORE.INTRA.DIHEDRAL.0>
10.2917

>  <SCORE.INTRA.POLAR>
0

>  <SCORE.INTRA.POLAR.0>
0

>  <SCORE.INTRA.REPUL>
0.0525159

>  <SCORE.INTRA.REPUL.0>
0

>  <SCORE.INTRA.SOLV>
-2.59306

>  <SCORE.INTRA.SOLV.lig_0>
-39.6315

>  <SCORE.INTRA.VDW>
2.40773

>  <SCORE.INTRA.VDW.0>
-4.02152

>  <SCORE.INTRA.norm>
0.0321937

>  <SCORE.RESTR>
0

>  <SCORE.RESTR.CAVITY>
0

>  <SCORE.RESTR.norm>
0

>  <SCORE.SYSTEM>
0

>  <SCORE.SYSTEM.CONST>
0

>  <SCORE.SYSTEM.DIHEDRAL>
0

>  <SCORE.SYSTEM.SOLV>
0

>  <SCORE.SYSTEM.norm>
0

>  <SCORE.heavy>
27

>  <SCORE.norm>
-0.4353

>  <RMSD>
7.552

$$$$
lig.pdb
 OpenBabel11021811493D
libRbt.so/2013.1/901 2013/11/27
 27 29  0  0  0  0  0  0  0  0999 V2000
    5.2010  -19.3579   -6.7713 N   0  0  0  0  0  0  0  0  0  0  0  0
    6.1928  -18.3562   -6.2745 C   0  0  2  0  0  0  0  0  0  0  0  0
    6.7893  -18.8531   -4.9609 C   0  0  0  0  0  0  0  0  0  0  0  0
    7.0150  -20.0485   -4.8135 O   0  0  0  0  0  0  0  0  0  0  0  0
    7.0567  -18.0976   -4.0178 O   0  0  0  0  0  0  0  0  0  0  0  0
    5.6192  -16.9313   -6.1390 C   0  0  0  0  0  0  0  0  0  0  0  0
    5.9817  -15.9232   -7.2610 C   0  0  0  0  0  0  0  0  0  0  0  0
    5.3334  -14.1992   -7.1565 S   0  0  2  0  0  0  0  0  0  0  0  0
    3.7818  -14.4529   -6.2691 C   0  0  0  0  0  0  0  0  0  0  0  0
    4.6886  -13.8868   -8.8144 C   0  0  0  0  0  0  0  0  0  0  0  0
    5.8378  -13.5610   -9.7591 C   0  0  1  0  0  0  0  0  0  0  0  0
    6.8287  -14.5773   -9.7852 O   0  0  0  0  0  0  0  0  0  0  0  0
    5.4066  -13.4412  -11.1962 C   0  0  1  0  0  0  0  0  0  0  0  0
    4.8104  -12.1958  -11.4181 O   0  0  0  0  0  0  0  0  0  0  0  0
    6.7366  -13.5965  -11.9000 C   0  0  1  0  0  0  0  0  0  0  0  0
    7.4278  -12.3640  -11.9126 O   0  0  0  0  0  0  0  0  0  0  0  0
    7.5043  -14.5857  -11.0302 C   0  0  2  0  0  0  0  0  0  0  0  0
    7.6146  -15.9620  -11.5870 N   0  0  0  0  0  0  0  0  0  0  0  0
    7.6181  -17.1185  -10.8484 C   0  0  0  0  0  0  0  0  0  0  0  0
    7.7322  -18.1768  -11.6816 N   0  0  0  0  0  0  0  0  0  0  0  0
    7.7935  -17.7251  -12.9450 C   0  0  0  0  0  0  0  0  0  0  0  0
    7.9021  -18.3791  -14.1628 C   0  0  0  0  0  0  0  0  0  0  0  0
    7.9629  -19.7034  -14.2091 N   0  0  0  0  0  0  0  0  0  0  0  0
    7.9399  -17.6354  -15.3256 N   0  0  0  0  0  0  0  0  0  0  0  0
    7.8674  -16.2485  -15.2926 C   0  0  0  0  0  0  0  0  0  0  0  0
    7.7537  -15.6154  -14.0716 N   0  0  0  0  0  0  0  0  0  0  0  0
    7.7234  -16.3346  -12.9118 C   0  0  0  0  0  0  0  0  0  0  0  0
  2  3  1  1  0  0  0
  2  6  1  0  0  0  0
  2  1  1  0  0  0  0
  4  3  2  0  0  0  0
  5  3  1  0  0  0  0
  6  7  2  0  0  0  0
  8  7  1  6  0  0  0
  8  9  1  0  0  0  0
  8 10  1  0  0  0  0
 11 10  1  1  0  0  0
 11 13  1  0  0  0  0
 12 11  1  0  0  0  0
 12 17  1  0  0  0  0
 13 14  1  1  0  0  0
 13 15  1  0  0  0  0
 15 16  1  1  0  0  0
 17 18  1  6  0  0  0
 17 15  1  0  0  0  0
 18 19  1  0  0  0  0
 20 19  2  0  0  0  0
 21 27  2  0  0  0  0
 21 20  1  0  0  0  0
 22 21  1  0  0  0  0
 23 22  1  0  0  0  0
 24 22  2  0  0  0  0
 24 25  1  0  0  0  0
 25 26  2  0  0  0  0
 26 27  1  0  0  0  0
 27 18  1  0  0  0  0
M  END
>  <CHROM.1>
37.40025160,-101.95095779,-29.85089723,-78.68073456,56.00201192,-26.18575862
6.58562149,-16.06325175,-9.88303136,-2.13968267,1.18833191,-0.89932707

>  <Name>
lig.pdb

>  <RI>
0

>  <Rbt.Current_Directory>
/home/itssahil/PROJECTS/Mol_Feturizer/New_Systems/rnas/4b5r

>  <Rbt.Executable>
rbdock ($Id: //depot/dev/client3/rdock/2013.1/src/exe/rbdock.cxx#4 $)

>  <Rbt.Library>
libRbt.so (2013.1, Build901 2013/11/27)

>  <Rbt.Parameter_File>
/export/apps/rDock/src/rDock_2013.1_src/data/scripts/dock_solv.prm

>  <Rbt.Receptor>
prm/blind_docking_40.prm

>  <SCORE>
-15.0467

>  <SCORE.INTER>
-14.6187

>  <SCORE.INTER.CONST>
1

>  <SCORE.INTER.POLAR>
0

>  <SCORE.INTER.ROT>
6

>  <SCORE.INTER.SOLV>
13.5265

>  <SCORE.INTER.VDW>
-21.8546

>  <SCORE.INTER.norm>
-0.541433

>  <SCORE.INTRA>
-0.427959

>  <SCORE.INTRA.DIHEDRAL>
-2.52556

>  <SCORE.INTRA.DIHEDRAL.0>
10.2917

>  <SCORE.INTRA.POLAR>
0

>  <SCORE.INTRA.POLAR.0>
0

>  <SCORE.INTRA.REPUL>
0

>  <SCORE.INTRA.REPUL.0>
0

>  <SCORE.INTRA.SOLV>
-2.9771

>  <SCORE.INTRA.SOLV.lig_0>
-39.6315

>  <SCORE.INTRA.VDW>
2.32337

>  <SCORE.INTRA.VDW.0>
-4.02152

>  <SCORE.INTRA.norm>
-0.0158503

>  <SCORE.RESTR>
0

>  <SCORE.RESTR.CAVITY>
0

>  <SCORE.RESTR.norm>
0

>  <SCORE.SYSTEM>
0

>  <SCORE.SYSTEM.CONST>
0

>  <SCORE.SYSTEM.DIHEDRAL>
0

>  <SCORE.SYSTEM.SOLV>
0

>  <SCORE.SYSTEM.norm>
0

>  <SCORE.heavy>
27

>  <SCORE.norm>
-0.557283

>  <RMSD>
7.563

$$$$
lig.pdb
 OpenBabel11021811493D
libRbt.so/2013.1/901 2013/11/27
 27 29  0  0  0  0  0  0  0  0999 V2000
    5.2185  -14.2822   -3.6719 N   0  0  0  0  0  0  0  0  0  0  0  0
    5.4463  -15.3135   -4.7295 C   0  0  2  0  0  0  0  0  0  0  0  0
    6.9458  -15.5527   -4.8792 C   0  0  0  0  0  0  0  0  0  0  0  0
    7.5642  -16.0986   -3.9730 O   0  0  0  0  0  0  0  0  0  0  0  0
    7.5819  -15.2126   -5.8850 O   0  0  0  0  0  0  0  0  0  0  0  0
    4.7843  -14.9726   -6.0798 C   0  0  0  0  0  0  0  0  0  0  0  0
    3.6189  -13.9492   -6.0473 C   0  0  0  0  0  0  0  0  0  0  0  0
    2.7786  -13.5018   -7.6275 S   0  0  2  0  0  0  0  0  0  0  0  0
    1.0585  -13.3721   -7.0946 C   0  0  0  0  0  0  0  0  0  0  0  0
    2.7020  -15.0669   -8.5256 C   0  0  0  0  0  0  0  0  0  0  0  0
    2.3215  -14.8076   -9.9773 C   0  0  1  0  0  0  0  0  0  0  0  0
    3.2813  -14.0158  -10.6607 O   0  0  0  0  0  0  0  0  0  0  0  0
    2.2391  -16.0647  -10.8009 C   0  0  1  0  0  0  0  0  0  0  0  0
    1.0308  -16.7242  -10.5538 O   0  0  0  0  0  0  0  0  0  0  0  0
    2.3266  -15.4892  -12.1971 C   0  0  1  0  0  0  0  0  0  0  0  0
    1.0578  -15.0276  -12.6141 O   0  0  0  0  0  0  0  0  0  0  0  0
    3.2636  -14.2956  -12.0492 C   0  0  2  0  0  0  0  0  0  0  0  0
    4.6366  -14.5011  -12.5866 N   0  0  0  0  0  0  0  0  0  0  0  0
    5.0881  -15.6467  -13.1922 C   0  0  0  0  0  0  0  0  0  0  0  0
    6.3795  -15.4778  -13.5544 N   0  0  0  0  0  0  0  0  0  0  0  0
    6.7671  -14.2412  -13.2016 C   0  0  0  0  0  0  0  0  0  0  0  0
    7.9691  -13.5656  -13.3477 C   0  0  0  0  0  0  0  0  0  0  0  0
    9.0020  -14.1551  -13.9353 N   0  0  0  0  0  0  0  0  0  0  0  0
    8.0751  -12.2708  -12.8798 N   0  0  0  0  0  0  0  0  0  0  0  0
    6.9988  -11.6378  -12.2711 C   0  0  0  0  0  0  0  0  0  0  0  0
    5.8087  -12.3240  -12.1398 N   0  0  0  0  0  0  0  0  0  0  0  0
    5.6889  -13.6074  -12.5890 C   0  0  0  0  0  0  0  0  0  0  0  0
  2  3  1  6  0  0  0
  2  6  1  0  0  0  0
  2  1  1  0  0  0  0
  4  3  2  0  0  0  0
  5  3  1  0  0  0  0
  6  7  2  0  0  0  0
  8  7  1  1  0  0  0
  8  9  1  0  0  0  0
  8 10  1  0  0  0  0
 11 10  1  1  0  0  0
 11 13  1  0  0  0  0
 12 11  1  0  0  0  0
 12 17  1  0  0  0  0
 13 14  1  6  0  0  0
 13 15  1  0  0  0  0
 15 16  1  1  0  0  0
 17 18  1  1  0  0  0
 17 15  1  0  0  0  0
 18 19  1  0  0  0  0
 20 19  2  0  0  0  0
 21 27  2  0  0  0  0
 21 20  1  0  0  0  0
 22 21  1  0  0  0  0
 23 22  1  0  0  0  0
 24 22  2  0  0  0  0
 24 25  1  0  0  0  0
 25 26  2  0  0  0  0
 26 27  1  0  0  0  0
 27 18  1  0  0  0  0
M  END
>  <CHROM.1>
68.56205459,-20.65488731,141.72325415,-167.19524197,62.41789335,120.05776230
4.65620116,-14.46362712,-9.73115820,-1.66462964,-0.13944187,-1.48432872

>  <Name>
lig.pdb

>  <RI>
0

>  <Rbt.Current_Directory>
/home/itssahil/PROJECTS/Mol_Feturizer/New_Systems/rnas/4b5r

>  <Rbt.Executable>
rbdock ($Id: //depot/dev/client3/rdock/2013.1/src/exe/rbdock.cxx#4 $)

>  <Rbt.Library>
libRbt.so (2013.1, Build901 2013/11/27)

>  <Rbt.Parameter_File>
/export/apps/rDock/src/rDock_2013.1_src/data/scripts/dock_solv.prm

>  <Rbt.Receptor>
prm/pocket_docking_6.prm

>  <SCORE>
-13.3766

>  <SCORE.INTER>
-13.7355

>  <SCORE.INTER.CONST>
1

>  <SCORE.INTER.POLAR>
0

>  <SCORE.INTER.ROT>
6

>  <SCORE.INTER.SOLV>
18.3033

>  <SCORE.INTER.VDW>
-22.8581

>  <SCORE.INTER.norm>
-0.508721

>  <SCORE.INTRA>
0.358883

>  <SCORE.INTRA.DIHEDRAL>
-1.66116

>  <SCORE.INTRA.DIHEDRAL.0>
10.2917

>  <SCORE.INTRA.POLAR>
0

>  <SCORE.INTRA.POLAR.0>
0

>  <SCORE.INTRA.REPUL>
0.0274864

>  <SCORE.INTRA.REPUL.0>
0

>  <SCORE.INTRA.SOLV>
-2.85236

>  <SCORE.INTRA.SOLV.lig_0>
-39.6315

>  <SCORE.INTRA.VDW>
2.47821

>  <SCORE.INTRA.VDW.0>
-4.02152

>  <SCORE.INTRA.norm>
0.013292

>  <SCORE.RESTR>
0

>  <SCORE.RESTR.CAVITY>
0

>  <SCORE.RESTR.norm>
0

>  <SCORE.SYSTEM>
0

>  <SCORE.SYSTEM.CONST>
0

>  <SCORE.SYSTEM.DIHEDRAL>
0

>  <SCORE.SYSTEM.SOLV>
0

>  <SCORE.SYSTEM.norm>
0

>  <SCORE.heavy>
27

>  <SCORE.norm>
-0.495429

>  <RMSD>
7.572

$$$$
lig.pdb
 OpenBabel11021811493D
libRbt.so/2013.1/901 2013/11/27
 27 29  0  0  0  0  0  0  0  0999 V2000
    5.6847  -17.2396   -7.1048 N   0  0  0  0  0  0  0  0  0  0  0  0
    4.2709  -17.0453   -6.6601 C   0  0  2  0  0  0  0  0  0  0  0  0
    3.5436  -18.3858   -6.7084 C   0  0  0  0  0  0  0  0  0  0  0  0
    4.1676  -19.4199   -6.5013 O   0  0  0  0  0  0  0  0  0  0  0  0
    2.3349  -18.4842   -6.9557 O   0  0  0  0  0  0  0  0  0  0  0  0
    3.5169  -15.9571   -7.4507 C   0  0  0  0  0  0  0  0  0  0  0  0
    3.4814  -16.1135   -8.9937 C   0  0  0  0  0  0  0  0  0  0  0  0
    2.6013  -14.8424  -10.0003 S   0  0  2  0  0  0  0  0  0  0  0  0
    0.9197  -14.9773   -9.3571 C   0  0  0  0  0  0  0  0  0  0  0  0
    2.3804  -15.6474  -11.6018 C   0  0  0  0  0  0  0  0  0  0  0  0
    3.6628  -15.5324  -12.4153 C   0  0  1  0  0  0  0  0  0  0  0  0
    4.7905  -16.0629  -11.7356 O   0  0  0  0  0  0  0  0  0  0  0  0
    3.6186  -16.3112  -13.7026 C   0  0  1  0  0  0  0  0  0  0  0  0
    2.8895  -15.6076  -14.6666 O   0  0  0  0  0  0  0  0  0  0  0  0
    5.0941  -16.4022  -14.0237 C   0  0  1  0  0  0  0  0  0  0  0  0
    5.5295  -15.2149  -14.6542 O   0  0  0  0  0  0  0  0  0  0  0  0
    5.7654  -16.5132  -12.6594 C   0  0  2  0  0  0  0  0  0  0  0  0
    6.2672  -17.8710  -12.3117 N   0  0  0  0  0  0  0  0  0  0  0  0
    5.9436  -18.5692  -11.1756 C   0  0  0  0  0  0  0  0  0  0  0  0
    6.5790  -19.7623  -11.1918 N   0  0  0  0  0  0  0  0  0  0  0  0
    7.2998  -19.8505  -12.3217 C   0  0  0  0  0  0  0  0  0  0  0  0
    8.1152  -20.8503  -12.8297 C   0  0  0  0  0  0  0  0  0  0  0  0
    8.2880  -21.9803  -12.1568 N   0  0  0  0  0  0  0  0  0  0  0  0
    8.7392  -20.6573  -14.0462 N   0  0  0  0  0  0  0  0  0  0  0  0
    8.5595  -19.4829  -14.7662 C   0  0  0  0  0  0  0  0  0  0  0  0
    7.7397  -18.5014  -14.2474 N   0  0  0  0  0  0  0  0  0  0  0  0
    7.1217  -18.6721  -13.0423 C   0  0  0  0  0  0  0  0  0  0  0  0
  2  3  1  6  0  0  0
  2  6  1  0  0  0  0
  2  1  1  0  0  0  0
  4  3  2  0  0  0  0
  5  3  1  0  0  0  0
  6  7  2  0  0  0  0
  8  7  1  1  0  0  0
  8  9  1  0  0  0  0
  8 10  1  0  0  0  0
 11 10  1  1  0  0  0
 11 13  1  0  0  0  0
 12 11  1  0  0  0  0
 12 17  1  0  0  0  0
 13 14  1  6  0  0  0
 13 15  1  0  0  0  0
 15 16  1  1  0  0  0
 17 18  1  1  0  0  0
 17 15  1  0  0  0  0
 18 19  1  0  0  0  0
 20 19  2  0  0  0  0
 21 27  2  0  0  0  0
 21 20  1  0  0  0  0
 22 21  1  0  0  0  0
 23 22  1  0  0  0  0
 24 22  2  0  0  0  0
 24 25  1  0  0  0  0
 25 26  2  0  0  0  0
 26 27  1  0  0  0  0
 27 18  1  0  0  0  0
M  END
>  <CHROM.1>
31.28334068,55.08202512,-60.55024604,-81.36136224,56.07865848,-6.02574943
4.96296239,-17.45489439,-11.16052260,-2.60923544,0.79438256,-1.17714864

>  <Name>
lig.pdb

>  <RI>
0

>  <Rbt.Current_Directory>
/home/itssahil/PROJECTS/Mol_Feturizer/New_Systems/rnas/4b5r

>  <Rbt.Executable>
rbdock ($Id: //depot/dev/client3/rdock/2013.1/src/exe/rbdock.cxx#4 $)

>  <Rbt.Library>
libRbt.so (2013.1, Build901 2013/11/27)

>  <Rbt.Parameter_File>
/export/apps/rDock/src/rDock_2013.1_src/data/scripts/dock_solv.prm

>  <Rbt.Receptor>
prm/pocket_docking_8.prm

>  <SCORE>
-13.3497

>  <SCORE.INTER>
-13.5977

>  <SCORE.INTER.CONST>
1

>  <SCORE.INTER.POLAR>
0

>  <SCORE.INTER.ROT>
6

>  <SCORE.INTER.SOLV>
13.8826

>  <SCORE.INTER.VDW>
-21.2927

>  <SCORE.INTER.norm>
-0.50362

>  <SCORE.INTRA>
0.248076

>  <SCORE.INTRA.DIHEDRAL>
-0.0697124

>  <SCORE.INTRA.DIHEDRAL.0>
10.2917

>  <SCORE.INTRA.POLAR>
0

>  <SCORE.INTRA.POLAR.0>
0

>  <SCORE.INTRA.REPUL>
0

>  <SCORE.INTRA.REPUL.0>
0

>  <SCORE.INTRA.SOLV>
-2.51812

>  <SCORE.INTRA.SOLV.lig_0>
-39.6315

>  <SCORE.INTRA.VDW>
1.54199

>  <SCORE.INTRA.VDW.0>
-4.02152

>  <SCORE.INTRA.norm>
0.00918798

>  <SCORE.RESTR>
0

>  <SCORE.RESTR.CAVITY>
0

>  <SCORE.RESTR.norm>
0

>  <SCORE.SYSTEM>
0

>  <SCORE.SYSTEM.CONST>
0

>  <SCORE.SYSTEM.DIHEDRAL>
0

>  <SCORE.SYSTEM.SOLV>
0

>  <SCORE.SYSTEM.norm>
0

>  <SCORE.heavy>
27

>  <SCORE.norm>
-0.494432

>  <RMSD>
7.577

$$$$
lig.pdb
 OpenBabel11021811493D
libRbt.so/2013.1/901 2013/11/27
 27 29  0  0  0  0  0  0  0  0999 V2000
    5.3584  -13.6068   -4.9266 N   0  0  0  0  0  0  0  0  0  0  0  0
    4.7700  -14.8551   -5.5008 C   0  0  2  0  0  0  0  0  0  0  0  0
    5.8365  -15.9462   -5.5216 C   0  0  0  0  0  0  0  0  0  0  0  0
    5.5110  -17.1131   -5.3369 O   0  0  0  0  0  0  0  0  0  0  0  0
    7.0357  -15.7079   -5.7138 O   0  0  0  0  0  0  0  0  0  0  0  0
    4.1289  -14.6560   -6.8890 C   0  0  0  0  0  0  0  0  0  0  0  0
    2.5863  -14.7979   -6.9723 C   0  0  0  0  0  0  0  0  0  0  0  0
    1.7559  -14.5783   -8.6050 S   0  0  2  0  0  0  0  0  0  0  0  0
    0.0580  -15.0474   -8.2095 C   0  0  0  0  0  0  0  0  0  0  0  0
    2.2652  -16.0372   -9.5399 C   0  0  0  0  0  0  0  0  0  0  0  0
    1.9319  -15.8446  -11.0135 C   0  0  1  0  0  0  0  0  0  0  0  0
    2.6912  -14.8065  -11.6143 O   0  0  0  0  0  0  0  0  0  0  0  0
    2.2455  -17.0533  -11.8538 C   0  0  1  0  0  0  0  0  0  0  0  0
    1.2426  -18.0167  -11.7055 O   0  0  0  0  0  0  0  0  0  0  0  0
    2.2739  -16.4335  -13.2335 C   0  0  1  0  0  0  0  0  0  0  0  0
    0.9604  -16.3126  -13.7403 O   0  0  0  0  0  0  0  0  0  0  0  0
    2.8460  -15.0392  -13.0030 C   0  0  2  0  0  0  0  0  0  0  0  0
    4.2582  -14.8570  -13.4374 N   0  0  0  0  0  0  0  0  0  0  0  0
    5.0238  -15.8071  -14.0652 C   0  0  0  0  0  0  0  0  0  0  0  0
    6.2509  -15.2964  -14.3116 N   0  0  0  0  0  0  0  0  0  0  0  0
    6.2886  -14.0313  -13.8622 C   0  0  0  0  0  0  0  0  0  0  0  0
    7.2870  -13.0691  -13.8734 C   0  0  0  0  0  0  0  0  0  0  0  0
    8.4715  -13.3388  -14.4061 N   0  0  0  0  0  0  0  0  0  0  0  0
    7.0306  -11.8262  -13.3292 N   0  0  0  0  0  0  0  0  0  0  0  0
    5.7917  -11.5268  -12.7768 C   0  0  0  0  0  0  0  0  0  0  0  0
    4.8085  -12.4953  -12.7799 N   0  0  0  0  0  0  0  0  0  0  0  0
    5.0474  -13.7319  -13.3060 C   0  0  0  0  0  0  0  0  0  0  0  0
  2  3  1  6  0  0  0
  2  6  1  0  0  0  0
  2  1  1  0  0  0  0
  4  3  2  0  0  0  0
  5  3  1  0  0  0  0
  6  7  2  0  0  0  0
  8  7  1  1  0  0  0
  8  9  1  0  0  0  0
  8 10  1  0  0  0  0
 11 10  1  1  0  0  0
 11 13  1  0  0  0  0
 12 11  1  0  0  0  0
 12 17  1  0  0  0  0
 13 14  1  6  0  0  0
 13 15  1  0  0  0  0
 15 16  1  1  0  0  0
 17 18  1  1  0  0  0
 17 15  1  0  0  0  0
 18 19  1  0  0  0  0
 20 19  2  0  0  0  0
 21 27  2  0  0  0  0
 21 20  1  0  0  0  0
 22 21  1  0  0  0  0
 23 22  1  0  0  0  0
 24 22  2  0  0  0  0
 24 25  1  0  0  0  0
 25 26  2  0  0  0  0
 26 27  1  0  0  0  0
 27 18  1  0  0  0  0
M  END
>  <CHROM.1>
145.87561833,-112.09525876,172.94489970,-166.70933873,66.21031837,122.70122099
4.04708880,-14.91643620,-10.57476273,-1.72949213,-0.43790671,-1.48277887

>  <Name>
lig.pdb

>  <RI>
0

>  <Rbt.Current_Directory>
/home/itssahil/PROJECTS/Mol_Feturizer/New_Systems/rnas/4b5r

>  <Rbt.Executable>
rbdock ($Id: //depot/dev/client3/rdock/2013.1/src/exe/rbdock.cxx#4 $)

>  <Rbt.Library>
libRbt.so (2013.1, Build901 2013/11/27)

>  <Rbt.Parameter_File>
/export/apps/rDock/src/rDock_2013.1_src/data/scripts/dock_solv.prm

>  <Rbt.Receptor>
prm/blind_docking_80.prm

>  <SCORE>
-13.2191

>  <SCORE.INTER>
-12.8283

>  <SCORE.INTER.CONST>
1

>  <SCORE.INTER.POLAR>
0

>  <SCORE.INTER.ROT>
6

>  <SCORE.INTER.SOLV>
17.5009

>  <SCORE.INTER.VDW>
-21.9858

>  <SCORE.INTER.norm>
-0.475122

>  <SCORE.INTRA>
-0.390799

>  <SCORE.INTRA.DIHEDRAL>
-1.54318

>  <SCORE.INTRA.DIHEDRAL.0>
10.2917

>  <SCORE.INTRA.POLAR>
0

>  <SCORE.INTRA.POLAR.0>
0

>  <SCORE.INTRA.REPUL>
0.0396791

>  <SCORE.INTRA.REPUL.0>
0

>  <SCORE.INTRA.SOLV>
-3.31735

>  <SCORE.INTRA.SOLV.lig_0>
-39.6315

>  <SCORE.INTRA.VDW>
1.84107

>  <SCORE.INTRA.VDW.0>
-4.02152

>  <SCORE.INTRA.norm>
-0.014474

>  <SCORE.RESTR>
0

>  <SCORE.RESTR.CAVITY>
0

>  <SCORE.RESTR.norm>
0

>  <SCORE.SYSTEM>
0

>  <SCORE.SYSTEM.CONST>
0

>  <SCORE.SYSTEM.DIHEDRAL>
0

>  <SCORE.SYSTEM.SOLV>
0

>  <SCORE.SYSTEM.norm>
0

>  <SCORE.heavy>
27

>  <SCORE.norm>
-0.489596

>  <RMSD>
7.606

$$$$
lig.pdb
 OpenBabel11021811493D
libRbt.so/2013.1/901 2013/11/27
 27 29  0  0  0  0  0  0  0  0999 V2000
    6.6901  -16.2432   -5.4904 N   0  0  0  0  0  0  0  0  0  0  0  0
    5.8868  -17.4902   -5.3066 C   0  0  2  0  0  0  0  0  0  0  0  0
    6.8213  -18.6958   -5.3409 C   0  0  0  0  0  0  0  0  0  0  0  0
    6.9692  -19.3163   -6.3873 O   0  0  0  0  0  0  0  0  0  0  0  0
    7.4448  -19.0894   -4.3468 O   0  0  0  0  0  0  0  0  0  0  0  0
    4.7291  -17.6355   -6.3147 C   0  0  0  0  0  0  0  0  0  0  0  0
    4.2089  -16.3307   -6.9731 C   0  0  0  0  0  0  0  0  0  0  0  0
    2.8207  -16.4331   -8.1839 S   0  0  2  0  0  0  0  0  0  0  0  0
    2.0138  -17.9659   -7.6752 C   0  0  0  0  0  0  0  0  0  0  0  0
    3.6212  -16.9990   -9.7007 C   0  0  0  0  0  0  0  0  0  0  0  0
    2.8454  -16.4935  -10.9099 C   0  0  1  0  0  0  0  0  0  0  0  0
    3.0535  -15.1105  -11.1536 O   0  0  0  0  0  0  0  0  0  0  0  0
    3.2610  -17.1529  -12.1974 C   0  0  1  0  0  0  0  0  0  0  0  0
    2.6813  -18.4216  -12.2981 O   0  0  0  0  0  0  0  0  0  0  0  0
    2.7116  -16.1675  -13.2051 C   0  0  1  0  0  0  0  0  0  0  0  0
    1.3363  -16.4091  -13.4226 O   0  0  0  0  0  0  0  0  0  0  0  0
    2.8748  -14.8119  -12.5267 C   0  0  2  0  0  0  0  0  0  0  0  0
    3.9837  -13.9712  -13.0557 N   0  0  0  0  0  0  0  0  0  0  0  0
    4.5738  -12.9263  -12.3901 C   0  0  0  0  0  0  0  0  0  0  0  0
    5.5417  -12.3938  -13.1693 N   0  0  0  0  0  0  0  0  0  0  0  0
    5.5929  -13.0814  -14.3220 C   0  0  0  0  0  0  0  0  0  0  0  0
    6.3984  -12.9584  -15.4439 C   0  0  0  0  0  0  0  0  0  0  0  0
    7.3324  -12.0180  -15.4983 N   0  0  0  0  0  0  0  0  0  0  0  0
    6.2202  -13.8302  -16.4998 N   0  0  0  0  0  0  0  0  0  0  0  0
    5.2525  -14.8258  -16.4524 C   0  0  0  0  0  0  0  0  0  0  0  0
    4.4642  -14.9365  -15.3251 N   0  0  0  0  0  0  0  0  0  0  0  0
    4.6211  -14.0779  -14.2756 C   0  0  0  0  0  0  0  0  0  0  0  0
  2  3  1  6  0  0  0
  2  6  1  0  0  0  0
  2  1  1  0  0  0  0
  4  3  2  0  0  0  0
  5  3  1  0  0  0  0
  6  7  2  0  0  0  0
  8  7  1  1  0  0  0
  8  9  1  0  0  0  0
  8 10  1  0  0  0  0
 11 10  1  1  0  0  0
 11 13  1  0  0  0  0
 12 11  1  0  0  0  0
 12 17  1  0  0  0  0
 13 14  1  6  0  0  0
 13 15  1  0  0  0  0
 15 16  1  1  0  0  0
 17 18  1  6  0  0  0
 17 15  1  0  0  0  0
 18 19  1  0  0  0  0
 20 19  2  0  0  0  0
 21 27  2  0  0  0  0
 21 20  1  0  0  0  0
 22 21  1  0  0  0  0
 23 22  1  0  0  0  0
 24 22  2  0  0  0  0
 24 25  1  0  0  0  0
 25 26  2  0  0  0  0
 26 27  1  0  0  0  0
 27 18  1  0  0  0  0
M  END
>  <CHROM.1>
-96.36520554,-22.70187963,24.56573070,-151.83073722,74.93617709,-40.39341237
4.48124537,-15.87183097,-10.83362897,-1.51691197,-0.40450585,-1.11790928

>  <Name>
lig.pdb

>  <RI>
0

>  <Rbt.Current_Directory>
/home/itssahil/PROJECTS/Mol_Feturizer/New_Systems/rnas/4b5r

>  <Rbt.Executable>
rbdock ($Id: //depot/dev/client3/rdock/2013.1/src/exe/rbdock.cxx#4 $)

>  <Rbt.Library>
libRbt.so (2013.1, Build901 2013/11/27)

>  <Rbt.Parameter_File>
/export/apps/rDock/src/rDock_2013.1_src/data/scripts/dock_solv.prm

>  <Rbt.Receptor>
prm/blind_docking_100.prm

>  <SCORE>
-8.54288

>  <SCORE.INTER>
-11.2142

>  <SCORE.INTER.CONST>
1

>  <SCORE.INTER.POLAR>
0

>  <SCORE.INTER.ROT>
6

>  <SCORE.INTER.SOLV>
11.8953

>  <SCORE.INTER.VDW>
-19.0413

>  <SCORE.INTER.norm>
-0.415342

>  <SCORE.INTRA>
2.67137

>  <SCORE.INTRA.DIHEDRAL>
2.35389

>  <SCORE.INTRA.DIHEDRAL.0>
10.2917

>  <SCORE.INTRA.POLAR>
0

>  <SCORE.INTRA.POLAR.0>
0

>  <SCORE.INTRA.REPUL>
0

>  <SCORE.INTRA.REPUL.0>
0

>  <SCORE.INTRA.SOLV>
-2.42737

>  <SCORE.INTRA.SOLV.lig_0>
-39.6315

>  <SCORE.INTRA.VDW>
2.70811

>  <SCORE.INTRA.VDW.0>
-4.02152

>  <SCORE.INTRA.norm>
0.0989396

>  <SCORE.RESTR>
0

>  <SCORE.RESTR.CAVITY>
0

>  <SCORE.RESTR.norm>
0

>  <SCORE.SYSTEM>
0

>  <SCORE.SYSTEM.CONST>
0

>  <SCORE.SYSTEM.DIHEDRAL>
0

>  <SCORE.SYSTEM.SOLV>
0

>  <SCORE.SYSTEM.norm>
0

>  <SCORE.heavy>
27

>  <SCORE.norm>
-0.316403

>  <RMSD>
7.667

$$$$
lig.pdb
 OpenBabel11021811493D
libRbt.so/2013.1/901 2013/11/27
 27 29  0  0  0  0  0  0  0  0999 V2000
    6.3881  -16.7302   -5.0441 N   0  0  0  0  0  0  0  0  0  0  0  0
    6.6396  -15.4027   -4.4051 C   0  0  2  0  0  0  0  0  0  0  0  0
    6.3824  -15.5136   -2.9052 C   0  0  0  0  0  0  0  0  0  0  0  0
    7.1832  -16.1131   -2.1973 O   0  0  0  0  0  0  0  0  0  0  0  0
    5.3857  -15.0248   -2.3579 O   0  0  0  0  0  0  0  0  0  0  0  0
    5.8372  -14.2483   -5.0387 C   0  0  0  0  0  0  0  0  0  0  0  0
    5.0495  -14.5747   -6.3347 C   0  0  0  0  0  0  0  0  0  0  0  0
    4.0737  -13.2367   -7.1477 S   0  0  2  0  0  0  0  0  0  0  0  0
    2.3977  -13.6379   -6.6097 C   0  0  0  0  0  0  0  0  0  0  0  0
    3.9762  -13.7693   -8.8707 C   0  0  0  0  0  0  0  0  0  0  0  0
    5.2784  -13.4341   -9.5859 C   0  0  1  0  0  0  0  0  0  0  0  0
    6.2575  -14.4521   -9.4439 O   0  0  0  0  0  0  0  0  0  0  0  0
    5.1162  -13.2953  -11.0758 C   0  0  1  0  0  0  0  0  0  0  0  0
    4.5702  -12.0458  -11.3868 O   0  0  0  0  0  0  0  0  0  0  0  0
    6.5522  -13.4446  -11.5274 C   0  0  1  0  0  0  0  0  0  0  0  0
    7.2339  -12.2136  -11.3982 O   0  0  0  0  0  0  0  0  0  0  0  0
    7.1487  -14.4464  -10.5450 C   0  0  2  0  0  0  0  0  0  0  0  0
    7.3588  -15.8157  -11.0899 N   0  0  0  0  0  0  0  0  0  0  0  0
    7.4274  -16.9647  -10.3428 C   0  0  0  0  0  0  0  0  0  0  0  0
    7.6246  -18.0184  -11.1664 N   0  0  0  0  0  0  0  0  0  0  0  0
    7.6757  -17.5716  -12.4320 C   0  0  0  0  0  0  0  0  0  0  0  0
    7.8466  -18.2246  -13.6432 C   0  0  0  0  0  0  0  0  0  0  0  0
    7.9959  -19.5422  -13.6788 N   0  0  0  0  0  0  0  0  0  0  0  0
    7.8533  -17.4874  -14.8107 N   0  0  0  0  0  0  0  0  0  0  0  0
    7.6885  -16.1083  -14.7890 C   0  0  0  0  0  0  0  0  0  0  0  0
    7.5138  -15.4765  -13.5746 N   0  0  0  0  0  0  0  0  0  0  0  0
    7.5130  -16.1887  -12.4102 C   0  0  0  0  0  0  0  0  0  0  0  0
  2  3  1  1  0  0  0
  2  6  1  0  0  0  0
  2  1  1  0  0  0  0
  4  3  2  0  0  0  0
  5  3  1  0  0  0  0
  6  7  2  0  0  0  0
  8  7  1  1  0  0  0
  8  9  1  0  0  0  0
  8 10  1  0  0  0  0
 11 10  1  1  0  0  0
 11 13  1  0  0  0  0
 12 11  1  0  0  0  0
 12 17  1  0  0  0  0
 13 14  1  1  0  0  0
 13 15  1  0  0  0  0
 15 16  1  1  0  0  0
 17 18  1  6  0  0  0
 17 15  1  0  0  0  0
 18 19  1  0  0  0  0
 20 19  2  0  0  0  0
 21 27  2  0  0  0  0
 21 20  1  0  0  0  0
 22 21  1  0  0  0  0
 23 22  1  0  0  0  0
 24 22  2  0  0  0  0
 24 25  1  0  0  0  0
 25 26  2  0  0  0  0
 26 27  1  0  0  0  0
 27 18  1  0  0  0  0
M  END
>  <CHROM.1>
73.09171801,-7.81729042,-101.64157094,-79.62077456,86.64404202,-36.60186828
6.22756754,-15.14434615,-9.21976408,-1.99540666,1.00870065,-1.39609810

>  <Name>
lig.pdb

>  <RI>
0

>  <Rbt.Current_Directory>
/home/itssahil/PROJECTS/Mol_Feturizer/New_Systems/rnas/4b5r

>  <Rbt.Executable>
rbdock ($Id: //depot/dev/client3/rdock/2013.1/src/exe/rbdock.cxx#4 $)

>  <Rbt.Library>
libRbt.so (2013.1, Build901 2013/11/27)

>  <Rbt.Parameter_File>
/export/apps/rDock/src/rDock_2013.1_src/data/scripts/dock_solv.prm

>  <Rbt.Receptor>
prm/pocket_docking_5.prm

>  <SCORE>
-16.7225

>  <SCORE.INTER>
-17.6771

>  <SCORE.INTER.CONST>
1

>  <SCORE.INTER.POLAR>
0

>  <SCORE.INTER.ROT>
6

>  <SCORE.INTER.SOLV>
16.9497

>  <SCORE.INTER.VDW>
-25.0347

>  <SCORE.INTER.norm>
-0.654709

>  <SCORE.INTRA>
0.842072

>  <SCORE.INTRA.DIHEDRAL>
0.579841

>  <SCORE.INTRA.DIHEDRAL.0>
10.2917

>  <SCORE.INTRA.POLAR>
0

>  <SCORE.INTRA.POLAR.0>
0

>  <SCORE.INTRA.REPUL>
0

>  <SCORE.INTRA.REPUL.0>
0

>  <SCORE.INTRA.SOLV>
-2.55927

>  <SCORE.INTRA.SOLV.lig_0>
-39.6315

>  <SCORE.INTRA.VDW>
1.83179

>  <SCORE.INTRA.VDW.0>
-4.02152

>  <SCORE.INTRA.norm>
0.0311879

>  <SCORE.RESTR>
0.112586

>  <SCORE.RESTR.CAVITY>
0.112586

>  <SCORE.RESTR.norm>
0.00416987

>  <SCORE.SYSTEM>
0

>  <SCORE.SYSTEM.CONST>
0

>  <SCORE.SYSTEM.DIHEDRAL>
0

>  <SCORE.SYSTEM.SOLV>
0

>  <SCORE.SYSTEM.norm>
0

>  <SCORE.heavy>
27

>  <SCORE.norm>
-0.619352

>  <RMSD>
7.707

$$$$
lig.pdb
 OpenBabel11021811493D
libRbt.so/2013.1/901 2013/11/27
 27 29  0  0  0  0  0  0  0  0999 V2000
    5.8059  -19.3971   -8.5800 N   0  0  0  0  0  0  0  0  0  0  0  0
    6.0990  -19.0261   -7.1621 C   0  0  2  0  0  0  0  0  0  0  0  0
    5.0291  -19.6291   -6.2567 C   0  0  0  0  0  0  0  0  0  0  0  0
    5.3640  -20.3321   -5.3105 O   0  0  0  0  0  0  0  0  0  0  0  0
    3.8182  -19.4455   -6.4354 O   0  0  0  0  0  0  0  0  0  0  0  0
    6.2487  -17.5079   -6.9373 C   0  0  0  0  0  0  0  0  0  0  0  0
    6.2778  -16.6140   -8.2049 C   0  0  0  0  0  0  0  0  0  0  0  0
    6.4613  -14.7890   -8.0069 S   0  0  2  0  0  0  0  0  0  0  0  0
    5.1373  -14.4206   -6.8361 C   0  0  0  0  0  0  0  0  0  0  0  0
    5.7274  -14.1223   -9.5165 C   0  0  0  0  0  0  0  0  0  0  0  0
    6.8221  -13.8322  -10.5347 C   0  0  1  0  0  0  0  0  0  0  0  0
    7.5827  -14.9852  -10.8628 O   0  0  0  0  0  0  0  0  0  0  0  0
    6.2872  -13.3638  -11.8613 C   0  0  1  0  0  0  0  0  0  0  0  0
    5.9334  -12.0127  -11.7882 O   0  0  0  0  0  0  0  0  0  0  0  0
    7.4852  -13.6165  -12.7496 C   0  0  1  0  0  0  0  0  0  0  0  0
    8.4044  -12.5484  -12.6434 O   0  0  0  0  0  0  0  0  0  0  0  0
    8.1198  -14.8753  -12.1689 C   0  0  2  0  0  0  0  0  0  0  0  0
    7.8987  -16.1163  -12.9610 N   0  0  0  0  0  0  0  0  0  0  0  0
    7.8712  -17.3893  -12.4495 C   0  0  0  0  0  0  0  0  0  0  0  0
    7.6473  -18.2663  -13.4536 N   0  0  0  0  0  0  0  0  0  0  0  0
    7.5210  -17.5819  -14.6023 C   0  0  0  0  0  0  0  0  0  0  0  0
    7.2771  -17.9880  -15.9054 C   0  0  0  0  0  0  0  0  0  0  0  0
    7.1196  -19.2745  -16.1880 N   0  0  0  0  0  0  0  0  0  0  0  0
    7.1941  -17.0368  -16.9030 N   0  0  0  0  0  0  0  0  0  0  0  0
    7.3473  -15.6855  -16.6200 C   0  0  0  0  0  0  0  0  0  0  0  0
    7.5838  -15.2998  -15.3162 N   0  0  0  0  0  0  0  0  0  0  0  0
    7.6772  -16.2273  -14.3191 C   0  0  0  0  0  0  0  0  0  0  0  0
  2  3  1  1  0  0  0
  2  6  1  0  0  0  0
  2  1  1  0  0  0  0
  4  3  2  0  0  0  0
  5  3  1  0  0  0  0
  6  7  2  0  0  0  0
  8  7  1  6  0  0  0
  8  9  1  0  0  0  0
  8 10  1  0  0  0  0
 11 10  1  1  0  0  0
 11 13  1  0  0  0  0
 12 11  1  0  0  0  0
 12 17  1  0  0  0  0
 13 14  1  1  0  0  0
 13 15  1  0  0  0  0
 15 16  1  1  0  0  0
 17 18  1  6  0  0  0
 17 15  1  0  0  0  0
 18 19  1  0  0  0  0
 20 19  2  0  0  0  0
 21 27  2  0  0  0  0
 21 20  1  0  0  0  0
 22 21  1  0  0  0  0
 23 22  1  0  0  0  0
 24 22  2  0  0  0  0
 24 25  1  0  0  0  0
 25 26  2  0  0  0  0
 26 27  1  0  0  0  0
 27 18  1  0  0  0  0
M  END
>  <CHROM.1>
125.92282170,-8.32016048,-52.48583372,-96.83806441,58.49827499,-32.86948648
6.69340602,-16.24029170,-11.04620655,3.00915980,1.32682091,0.37202569

>  <Name>
lig.pdb

>  <RI>
0

>  <Rbt.Current_Directory>
/home/itssahil/PROJECTS/Mol_Feturizer/New_Systems/rnas/4b5r

>  <Rbt.Executable>
rbdock ($Id: //depot/dev/client3/rdock/2013.1/src/exe/rbdock.cxx#4 $)

>  <Rbt.Library>
libRbt.so (2013.1, Build901 2013/11/27)

>  <Rbt.Parameter_File>
/export/apps/rDock/src/rDock_2013.1_src/data/scripts/dock_solv.prm

>  <Rbt.Receptor>
prm/pocket_docking_7.prm

>  <SCORE>
-12.3892

>  <SCORE.INTER>
-12.225

>  <SCORE.INTER.CONST>
1

>  <SCORE.INTER.POLAR>
0

>  <SCORE.INTER.ROT>
6

>  <SCORE.INTER.SOLV>
15.0869

>  <SCORE.INTER.VDW>
-20.779

>  <SCORE.INTER.norm>
-0.452779

>  <SCORE.INTRA>
-0.164195

>  <SCORE.INTRA.DIHEDRAL>
-1.23069

>  <SCORE.INTRA.DIHEDRAL.0>
10.2917

>  <SCORE.INTRA.POLAR>
0

>  <SCORE.INTRA.POLAR.0>
0

>  <SCORE.INTRA.REPUL>
0

>  <SCORE.INTRA.REPUL.0>
0

>  <SCORE.INTRA.SOLV>
-2.55583

>  <SCORE.INTRA.SOLV.lig_0>
-39.6315

>  <SCORE.INTRA.VDW>
1.72907

>  <SCORE.INTRA.VDW.0>
-4.02152

>  <SCORE.INTRA.norm>
-0.00608129

>  <SCORE.RESTR>
0

>  <SCORE.RESTR.CAVITY>
0

>  <SCORE.RESTR.norm>
0

>  <SCORE.SYSTEM>
0

>  <SCORE.SYSTEM.CONST>
0

>  <SCORE.SYSTEM.DIHEDRAL>
0

>  <SCORE.SYSTEM.SOLV>
0

>  <SCORE.SYSTEM.norm>
0

>  <SCORE.heavy>
27

>  <SCORE.norm>
-0.45886

>  <RMSD>
7.716

$$$$
lig.pdb
 OpenBabel11021811493D
libRbt.so/2013.1/901 2013/11/27
 27 29  0  0  0  0  0  0  0  0999 V2000
    4.9164  -15.8504   -7.4994 N   0  0  0  0  0  0  0  0  0  0  0  0
    3.7368  -14.9326   -7.4848 C   0  0  2  0  0  0  0  0  0  0  0  0
    2.4692  -15.7521   -7.2616 C   0  0  0  0  0  0  0  0  0  0  0  0
    2.5439  -16.9731   -7.1882 O   0  0  0  0  0  0  0  0  0  0  0  0
    1.3486  -15.2378   -7.1543 O   0  0  0  0  0  0  0  0  0  0  0  0
    3.6286  -14.0429   -8.7396 C   0  0  0  0  0  0  0  0  0  0  0  0
    4.7936  -14.1308   -9.7602 C   0  0  0  0  0  0  0  0  0  0  0  0
    4.7299  -13.0875  -11.2804 S   0  0  2  0  0  0  0  0  0  0  0  0
    3.6396  -14.0625  -12.3388 C   0  0  0  0  0  0  0  0  0  0  0  0
    6.3118  -13.4163  -12.0875 C   0  0  0  0  0  0  0  0  0  0  0  0
    6.5969  -14.9122  -12.0678 C   0  0  1  0  0  0  0  0  0  0  0  0
    5.8792  -15.6185  -13.0684 O   0  0  0  0  0  0  0  0  0  0  0  0
    8.0367  -15.2439  -12.3551 C   0  0  1  0  0  0  0  0  0  0  0  0
    8.8166  -15.0335  -11.2135 O   0  0  0  0  0  0  0  0  0  0  0  0
    7.9164  -16.7042  -12.7310 C   0  0  1  0  0  0  0  0  0  0  0  0
    7.8724  -17.5047  -11.5674 O   0  0  0  0  0  0  0  0  0  0  0  0
    6.5726  -16.7948  -13.4455 C   0  0  2  0  0  0  0  0  0  0  0  0
    6.6531  -16.9356  -14.9253 N   0  0  0  0  0  0  0  0  0  0  0  0
    7.1275  -18.0368  -15.5926 C   0  0  0  0  0  0  0  0  0  0  0  0
    7.0522  -17.8154  -16.9240 N   0  0  0  0  0  0  0  0  0  0  0  0
    6.5297  -16.5951  -17.1284 C   0  0  0  0  0  0  0  0  0  0  0  0
    6.2337  -15.8915  -18.2859 C   0  0  0  0  0  0  0  0  0  0  0  0
    6.4678  -16.4296  -19.4755 N   0  0  0  0  0  0  0  0  0  0  0  0
    5.6869  -14.6275  -18.1846 N   0  0  0  0  0  0  0  0  0  0  0  0
    5.4275  -14.0556  -16.9455 C   0  0  0  0  0  0  0  0  0  0  0  0
    5.7234  -14.7733  -15.8045 N   0  0  0  0  0  0  0  0  0  0  0  0
    6.2719  -16.0206  -15.8862 C   0  0  0  0  0  0  0  0  0  0  0  0
  2  3  1  6  0  0  0
  2  6  1  0  0  0  0
  2  1  1  0  0  0  0
  4  3  2  0  0  0  0
  5  3  1  0  0  0  0
  6  7  2  0  0  0  0
  8  7  1  1  0  0  0
  8  9  1  0  0  0  0
  8 10  1  0  0  0  0
 11 10  1  6  0  0  0
 11 13  1  0  0  0  0
 12 11  1  0  0  0  0
 12 17  1  0  0  0  0
 13 14  1  1  0  0  0
 13 15  1  0  0  0  0
 15 16  1  1  0  0  0
 17 18  1  6  0  0  0
 17 15  1  0  0  0  0
 18 19  1  0  0  0  0
 20 19  2  0  0  0  0
 21 27  2  0  0  0  0
 21 20  1  0  0  0  0
 22 21  1  0  0  0  0
 23 22  1  0  0  0  0
 24 22  2  0  0  0  0
 24 25  1  0  0  0  0
 25 26  2  0  0  0  0
 26 27  1  0  0  0  0
 27 18  1  0  0  0  0
M  END
>  <CHROM.1>
-3.15004908,-5.03029361,-81.05483312,44.57968171,78.91991348,-172.29958583
5.60662419,-15.46026822,-12.66428880,-1.98134179,0.63621417,-1.42891476

>  <Name>
lig.pdb

>  <RI>
0

>  <Rbt.Current_Directory>
/home/itssahil/PROJECTS/Mol_Feturizer/New_Systems/rnas/4b5r

>  <Rbt.Executable>
rbdock ($Id: //depot/dev/client3/rdock/2013.1/src/exe/rbdock.cxx#4 $)

>  <Rbt.Library>
libRbt.so (2013.1, Build901 2013/11/27)

>  <Rbt.Parameter_File>
/export/apps/rDock/src/rDock_2013.1_src/data/scripts/dock_solv.prm

>  <Rbt.Receptor>
prm/blind_docking_40.prm

>  <SCORE>
-10.1217

>  <SCORE.INTER>
-11.3785

>  <SCORE.INTER.CONST>
1

>  <SCORE.INTER.POLAR>
0

>  <SCORE.INTER.ROT>
6

>  <SCORE.INTER.SOLV>
10.258

>  <SCORE.INTER.VDW>
-18.605

>  <SCORE.INTER.norm>
-0.421424

>  <SCORE.INTRA>
1.25678

>  <SCORE.INTRA.DIHEDRAL>
-1.29426

>  <SCORE.INTRA.DIHEDRAL.0>
10.2917

>  <SCORE.INTRA.POLAR>
0

>  <SCORE.INTRA.POLAR.0>
0

>  <SCORE.INTRA.REPUL>
0.00290847

>  <SCORE.INTRA.REPUL.0>
0

>  <SCORE.INTRA.SOLV>
-1.9232

>  <SCORE.INTRA.SOLV.lig_0>
-39.6315

>  <SCORE.INTRA.VDW>
2.85097

>  <SCORE.INTRA.VDW.0>
-4.02152

>  <SCORE.INTRA.norm>
0.0465473

>  <SCORE.RESTR>
0

>  <SCORE.RESTR.CAVITY>
0

>  <SCORE.RESTR.norm>
0

>  <SCORE.SYSTEM>
0

>  <SCORE.SYSTEM.CONST>
0

>  <SCORE.SYSTEM.DIHEDRAL>
0

>  <SCORE.SYSTEM.SOLV>
0

>  <SCORE.SYSTEM.norm>
0

>  <SCORE.heavy>
27

>  <SCORE.norm>
-0.374877

>  <RMSD>
7.760

$$$$
lig.pdb
 OpenBabel11021811493D
libRbt.so/2013.1/901 2013/11/27
 27 29  0  0  0  0  0  0  0  0999 V2000
    5.4434   -9.6619  -17.3971 N   0  0  0  0  0  0  0  0  0  0  0  0
    6.4623  -10.5951  -16.8269 C   0  0  2  0  0  0  0  0  0  0  0  0
    6.4213  -11.9110  -17.5982 C   0  0  0  0  0  0  0  0  0  0  0  0
    7.4696  -12.4810  -17.8773 O   0  0  0  0  0  0  0  0  0  0  0  0
    5.3646  -12.4390  -17.9676 O   0  0  0  0  0  0  0  0  0  0  0  0
    6.3168  -10.8180  -15.3081 C   0  0  0  0  0  0  0  0  0  0  0  0
    5.8677  -12.2304  -14.8497 C   0  0  0  0  0  0  0  0  0  0  0  0
    5.6678  -12.5626  -13.0460 S   0  0  2  0  0  0  0  0  0  0  0  0
    7.3346  -12.2352  -12.4345 C   0  0  0  0  0  0  0  0  0  0  0  0
    5.6550  -14.3658  -12.9453 C   0  0  0  0  0  0  0  0  0  0  0  0
    6.4994  -14.9487  -14.0707 C   0  0  1  0  0  0  0  0  0  0  0  0
    7.4925  -15.8472  -13.5997 O   0  0  0  0  0  0  0  0  0  0  0  0
    5.7002  -15.7729  -15.0441 C   0  0  1  0  0  0  0  0  0  0  0  0
    5.0120  -14.9385  -15.9307 O   0  0  0  0  0  0  0  0  0  0  0  0
    6.8035  -16.5652  -15.7098 C   0  0  1  0  0  0  0  0  0  0  0  0
    7.4117  -15.7943  -16.7261 O   0  0  0  0  0  0  0  0  0  0  0  0
    7.8162  -16.8018  -14.5949 C   0  0  2  0  0  0  0  0  0  0  0  0
    7.8369  -18.1849  -14.0446 N   0  0  0  0  0  0  0  0  0  0  0  0
    8.4122  -19.2721  -14.6530 C   0  0  0  0  0  0  0  0  0  0  0  0
    8.2415  -20.3607  -13.8700 N   0  0  0  0  0  0  0  0  0  0  0  0
    7.5743  -19.9944  -12.7634 C   0  0  0  0  0  0  0  0  0  0  0  0
    7.1559  -20.7074  -11.6502 C   0  0  0  0  0  0  0  0  0  0  0  0
    7.4103  -22.0055  -11.5514 N   0  0  0  0  0  0  0  0  0  0  0  0
    6.4775  -20.0483  -10.6442 N   0  0  0  0  0  0  0  0  0  0  0  0
    6.2127  -18.6873  -10.7299 C   0  0  0  0  0  0  0  0  0  0  0  0
    6.6419  -17.9932  -11.8428 N   0  0  0  0  0  0  0  0  0  0  0  0
    7.3065  -18.6305  -12.8504 C   0  0  0  0  0  0  0  0  0  0  0  0
  2  3  1  6  0  0  0
  2  6  1  0  0  0  0
  2  1  1  0  0  0  0
  4  3  2  0  0  0  0
  5  3  1  0  0  0  0
  6  7  2  0  0  0  0
  8  7  1  6  0  0  0
  8  9  1  0  0  0  0
  8 10  1  0  0  0  0
 11 10  1  1  0  0  0
 11 13  1  0  0  0  0
 12 11  1  0  0  0  0
 12 17  1  0  0  0  0
 13 14  1  6  0  0  0
 13 15  1  0  0  0  0
 15 16  1  6  0  0  0
 17 18  1  1  0  0  0
 17 15  1  0  0  0  0
 18 19  1  0  0  0  0
 20 19  2  0  0  0  0
 21 27  2  0  0  0  0
 21 20  1  0  0  0  0
 22 21  1  0  0  0  0
 23 22  1  0  0  0  0
 24 22  2  0  0  0  0
 24 25  1  0  0  0  0
 25 26  2  0  0  0  0
 26 27  1  0  0  0  0
 27 18  1  0  0  0  0
M  END
>  <CHROM.1>
139.52106523,111.74659816,-60.02856247,29.95723452,126.40517744,-163.64968644
6.68187542,-15.55108276,-14.31059799,-2.07315379,-1.29313360,2.20764057

>  <Name>
lig.pdb

>  <RI>
0

>  <Rbt.Current_Directory>
/home/itssahil/PROJECTS/Mol_Feturizer/New_Systems/rnas/4b5r

>  <Rbt.Executable>
rbdock ($Id: //depot/dev/client3/rdock/2013.1/src/exe/rbdock.cxx#4 $)

>  <Rbt.Library>
libRbt.so (2013.1, Build901 2013/11/27)

>  <Rbt.Parameter_File>
/export/apps/rDock/src/rDock_2013.1_src/data/scripts/dock_solv.prm

>  <Rbt.Receptor>
prm/blind_docking_60.prm

>  <SCORE>
-9.97306

>  <SCORE.INTER>
-12.021

>  <SCORE.INTER.CONST>
1

>  <SCORE.INTER.POLAR>
0

>  <SCORE.INTER.ROT>
6

>  <SCORE.INTER.SOLV>
10.6655

>  <SCORE.INTER.VDW>
-19.1692

>  <SCORE.INTER.norm>
-0.445224

>  <SCORE.INTRA>
2.04799

>  <SCORE.INTRA.DIHEDRAL>
3.24376

>  <SCORE.INTRA.DIHEDRAL.0>
10.2917

>  <SCORE.INTRA.POLAR>
0

>  <SCORE.INTRA.POLAR.0>
0

>  <SCORE.INTRA.REPUL>
0

>  <SCORE.INTRA.REPUL.0>
0

>  <SCORE.INTRA.SOLV>
-1.89342

>  <SCORE.INTRA.SOLV.lig_0>
-39.6315

>  <SCORE.INTRA.VDW>
1.37281

>  <SCORE.INTRA.VDW.0>
-4.02152

>  <SCORE.INTRA.norm>
0.0758513

>  <SCORE.RESTR>
0

>  <SCORE.RESTR.CAVITY>
0

>  <SCORE.RESTR.norm>
0

>  <SCORE.SYSTEM>
0

>  <SCORE.SYSTEM.CONST>
0

>  <SCORE.SYSTEM.DIHEDRAL>
0

>  <SCORE.SYSTEM.SOLV>
0

>  <SCORE.SYSTEM.norm>
0

>  <SCORE.heavy>
27

>  <SCORE.norm>
-0.369373

>  <RMSD>
7.939

$$$$
lig.pdb
 OpenBabel11021811493D
libRbt.so/2013.1/901 2013/11/27
 27 29  0  0  0  0  0  0  0  0999 V2000
    5.7912  -14.7271  -19.3403 N   0  0  0  0  0  0  0  0  0  0  0  0
    5.2394  -13.6762  -18.4319 C   0  0  2  0  0  0  0  0  0  0  0  0
    6.1177  -12.4313  -18.5168 C   0  0  0  0  0  0  0  0  0  0  0  0
    5.5946  -11.3236  -18.5485 O   0  0  0  0  0  0  0  0  0  0  0  0
    7.3534  -12.4844  -18.5613 O   0  0  0  0  0  0  0  0  0  0  0  0
    5.0580  -14.1494  -16.9755 C   0  0  0  0  0  0  0  0  0  0  0  0
    5.6019  -13.2132  -15.8645 C   0  0  0  0  0  0  0  0  0  0  0  0
    5.4230  -13.7227  -14.1004 S   0  0  2  0  0  0  0  0  0  0  0  0
    5.6736  -12.1519  -13.2465 C   0  0  0  0  0  0  0  0  0  0  0  0
    6.9972  -14.5261  -13.7288 C   0  0  0  0  0  0  0  0  0  0  0  0
    6.7755  -15.6503  -12.7255 C   0  0  1  0  0  0  0  0  0  0  0  0
    6.4749  -16.8890  -13.3505 O   0  0  0  0  0  0  0  0  0  0  0  0
    7.9946  -15.9517  -11.8958 C   0  0  1  0  0  0  0  0  0  0  0  0
    8.1288  -15.0052  -10.8750 O   0  0  0  0  0  0  0  0  0  0  0  0
    7.6484  -17.3323  -11.3834 C   0  0  1  0  0  0  0  0  0  0  0  0
    6.7983  -17.2354  -10.2587 O   0  0  0  0  0  0  0  0  0  0  0  0
    6.8780  -17.9730  -12.5325 C   0  0  2  0  0  0  0  0  0  0  0  0
    7.6344  -18.9950  -13.3068 N   0  0  0  0  0  0  0  0  0  0  0  0
    8.2168  -18.7907  -14.5324 C   0  0  0  0  0  0  0  0  0  0  0  0
    8.8169  -19.9333  -14.9346 N   0  0  0  0  0  0  0  0  0  0  0  0
    8.6400  -20.8687  -13.9871 C   0  0  0  0  0  0  0  0  0  0  0  0
    9.0530  -22.1891  -13.8944 C   0  0  0  0  0  0  0  0  0  0  0  0
    9.7668  -22.7378  -14.8686 N   0  0  0  0  0  0  0  0  0  0  0  0
    8.7176  -22.9226  -12.7736 N   0  0  0  0  0  0  0  0  0  0  0  0
    7.9789  -22.3579  -11.7415 C   0  0  0  0  0  0  0  0  0  0  0  0
    7.5816  -21.0406  -11.8489 N   0  0  0  0  0  0  0  0  0  0  0  0
    7.8973  -20.3034  -12.9535 C   0  0  0  0  0  0  0  0  0  0  0  0
  2  3  1  1  0  0  0
  2  6  1  0  0  0  0
  2  1  1  0  0  0  0
  4  3  2  0  0  0  0
  5  3  1  0  0  0  0
  6  7  2  0  0  0  0
  8  7  1  6  0  0  0
  8  9  1  0  0  0  0
  8 10  1  0  0  0  0
 11 10  1  6  0  0  0
 11 13  1  0  0  0  0
 12 11  1  0  0  0  0
 12 17  1  0  0  0  0
 13 14  1  1  0  0  0
 13 15  1  0  0  0  0
 15 16  1  1  0  0  0
 17 18  1  6  0  0  0
 17 15  1  0  0  0  0
 18 19  1  0  0  0  0
 20 19  2  0  0  0  0
 21 27  2  0  0  0  0
 21 20  1  0  0  0  0
 22 21  1  0  0  0  0
 23 22  1  0  0  0  0
 24 22  2  0  0  0  0
 24 25  1  0  0  0  0
 25 26  2  0  0  0  0
 26 27  1  0  0  0  0
 27 18  1  0  0  0  0
M  END
>  <CHROM.1>
138.53441883,132.20241359,-162.16266539,-147.13380638,88.89409154,17.66767324
7.07945837,-16.72900686,-14.25095793,-2.70657705,-1.26981965,1.55711062

>  <Name>
lig.pdb

>  <RI>
0

>  <Rbt.Current_Directory>
/home/itssahil/PROJECTS/Mol_Feturizer/New_Systems/rnas/4b5r

>  <Rbt.Executable>
rbdock ($Id: //depot/dev/client3/rdock/2013.1/src/exe/rbdock.cxx#4 $)

>  <Rbt.Library>
libRbt.so (2013.1, Build901 2013/11/27)

>  <Rbt.Parameter_File>
/export/apps/rDock/src/rDock_2013.1_src/data/scripts/dock_solv.prm

>  <Rbt.Receptor>
prm/blind_docking_80.prm

>  <SCORE>
-14.7726

>  <SCORE.INTER>
-17.0509

>  <SCORE.INTER.CONST>
1

>  <SCORE.INTER.POLAR>
0

>  <SCORE.INTER.ROT>
6

>  <SCORE.INTER.SOLV>
14.1689

>  <SCORE.INTER.VDW>
-23.6903

>  <SCORE.INTER.norm>
-0.631517

>  <SCORE.INTRA>
2.27831

>  <SCORE.INTRA.DIHEDRAL>
3.89209

>  <SCORE.INTRA.DIHEDRAL.0>
10.2917

>  <SCORE.INTRA.POLAR>
0

>  <SCORE.INTRA.POLAR.0>
0

>  <SCORE.INTRA.REPUL>
0

>  <SCORE.INTRA.REPUL.0>
0

>  <SCORE.INTRA.SOLV>
-3.37421

>  <SCORE.INTRA.SOLV.lig_0>
-39.6315

>  <SCORE.INTRA.VDW>
2.01937

>  <SCORE.INTRA.VDW.0>
-4.02152

>  <SCORE.INTRA.norm>
0.0843818

>  <SCORE.RESTR>
0

>  <SCORE.RESTR.CAVITY>
0

>  <SCORE.RESTR.norm>
0

>  <SCORE.SYSTEM>
0

>  <SCORE.SYSTEM.CONST>
0

>  <SCORE.SYSTEM.DIHEDRAL>
0

>  <SCORE.SYSTEM.SOLV>
0

>  <SCORE.SYSTEM.norm>
0

>  <SCORE.heavy>
27

>  <SCORE.norm>
-0.547135

>  <RMSD>
8.149

$$$$
lig.pdb
 OpenBabel11021811493D
libRbt.so/2013.1/901 2013/11/27
 27 29  0  0  0  0  0  0  0  0999 V2000
    2.6007   -7.3456  -18.4598 N   0  0  0  0  0  0  0  0  0  0  0  0
    4.0613   -7.4310  -18.1540 C   0  0  2  0  0  0  0  0  0  0  0  0
    4.8545   -6.9657  -19.3715 C   0  0  0  0  0  0  0  0  0  0  0  0
    6.0055   -6.5702  -19.2280 O   0  0  0  0  0  0  0  0  0  0  0  0
    4.3846   -6.9623  -20.5165 O   0  0  0  0  0  0  0  0  0  0  0  0
    4.5136   -8.8256  -17.6760 C   0  0  0  0  0  0  0  0  0  0  0  0
    5.4246   -8.8719  -16.4212 C   0  0  0  0  0  0  0  0  0  0  0  0
    6.0070  -10.5086  -15.8002 S   0  0  2  0  0  0  0  0  0  0  0  0
    7.7324  -10.5002  -16.3315 C   0  0  0  0  0  0  0  0  0  0  0  0
    5.3266  -11.6818  -16.9928 C   0  0  0  0  0  0  0  0  0  0  0  0
    5.7347  -13.0982  -16.6096 C   0  0  1  0  0  0  0  0  0  0  0  0
    5.5381  -13.3691  -15.2299 O   0  0  0  0  0  0  0  0  0  0  0  0
    4.9210  -14.1568  -17.3042 C   0  0  1  0  0  0  0  0  0  0  0  0
    5.3758  -14.3312  -18.6152 O   0  0  0  0  0  0  0  0  0  0  0  0
    5.1987  -15.3493  -16.4159 C   0  0  1  0  0  0  0  0  0  0  0  0
    6.4324  -15.9418  -16.7677 O   0  0  0  0  0  0  0  0  0  0  0  0
    5.3171  -14.7521  -15.0181 C   0  0  2  0  0  0  0  0  0  0  0  0
    4.1480  -14.9925  -14.1283 N   0  0  0  0  0  0  0  0  0  0  0  0
    3.0372  -15.7270  -14.4593 C   0  0  0  0  0  0  0  0  0  0  0  0
    2.1815  -15.7337  -13.4128 N   0  0  0  0  0  0  0  0  0  0  0  0
    2.7236  -15.0242  -12.4093 C   0  0  0  0  0  0  0  0  0  0  0  0
    2.2763  -14.7296  -11.1304 C   0  0  0  0  0  0  0  0  0  0  0  0
    1.1036  -15.1847  -10.7093 N   0  0  0  0  0  0  0  0  0  0  0  0
    3.0690  -13.9626  -10.2997 N   0  0  0  0  0  0  0  0  0  0  0  0
    4.3034  -13.4876  -10.7241 C   0  0  0  0  0  0  0  0  0  0  0  0
    4.7345  -13.7959  -11.9983 N   0  0  0  0  0  0  0  0  0  0  0  0
    3.9601  -14.5458  -12.8356 C   0  0  0  0  0  0  0  0  0  0  0  0
  2  3  1  6  0  0  0
  2  6  1  0  0  0  0
  2  1  1  0  0  0  0
  4  3  2  0  0  0  0
  5  3  1  0  0  0  0
  6  7  2  0  0  0  0
  8  7  1  6  0  0  0
  8  9  1  0  0  0  0
  8 10  1  0  0  0  0
 11 10  1  1  0  0  0
 11 13  1  0  0  0  0
 12 11  1  0  0  0  0
 12 17  1  0  0  0  0
 13 14  1  6  0  0  0
 13 15  1  0  0  0  0
 15 16  1  6  0  0  0
 17 18  1  1  0  0  0
 17 15  1  0  0  0  0
 18 19  1  0  0  0  0
 20 19  2  0  0  0  0
 21 27  2  0  0  0  0
 21 20  1  0  0  0  0
 22 21  1  0  0  0  0
 23 22  1  0  0  0  0
 24 22  2  0  0  0  0
 24 25  1  0  0  0  0
 25 26  2  0  0  0  0
 26 27  1  0  0  0  0
 27 18  1  0  0  0  0
M  END
>  <CHROM.1>
157.95180422,-133.24272514,105.34514263,179.75596147,46.75320361,121.77442147
4.60211162,-12.23982498,-15.55232962,1.20862043,1.05919010,-0.39757905

>  <Name>
lig.pdb

>  <RI>
0

>  <Rbt.Current_Directory>
/home/itssahil/PROJECTS/Mol_Feturizer/New_Systems/rnas/4b5r

>  <Rbt.Executable>
rbdock ($Id: //depot/dev/client3/rdock/2013.1/src/exe/rbdock.cxx#4 $)

>  <Rbt.Library>
libRbt.so (2013.1, Build901 2013/11/27)

>  <Rbt.Parameter_File>
/export/apps/rDock/src/rDock_2013.1_src/data/scripts/dock_solv.prm

>  <Rbt.Receptor>
prm/blind_docking_80.prm

>  <SCORE>
-11.8808

>  <SCORE.INTER>
-11.994

>  <SCORE.INTER.CONST>
1

>  <SCORE.INTER.POLAR>
0

>  <SCORE.INTER.ROT>
6

>  <SCORE.INTER.SOLV>
10.5858

>  <SCORE.INTER.VDW>
-19.1246

>  <SCORE.INTER.norm>
-0.44422

>  <SCORE.INTRA>
0.113169

>  <SCORE.INTRA.DIHEDRAL>
-1.83176

>  <SCORE.INTRA.DIHEDRAL.0>
10.2917

>  <SCORE.INTRA.POLAR>
0

>  <SCORE.INTRA.POLAR.0>
0

>  <SCORE.INTRA.REPUL>
0.0351745

>  <SCORE.INTRA.REPUL.0>
0

>  <SCORE.INTRA.SOLV>
-3.27917

>  <SCORE.INTRA.SOLV.lig_0>
-39.6315

>  <SCORE.INTRA.VDW>
2.49276

>  <SCORE.INTRA.VDW.0>
-4.02152

>  <SCORE.INTRA.norm>
0.00419144

>  <SCORE.RESTR>
0

>  <SCORE.RESTR.CAVITY>
0

>  <SCORE.RESTR.norm>
0

>  <SCORE.SYSTEM>
0

>  <SCORE.SYSTEM.CONST>
0

>  <SCORE.SYSTEM.DIHEDRAL>
0

>  <SCORE.SYSTEM.SOLV>
0

>  <SCORE.SYSTEM.norm>
0

>  <SCORE.heavy>
27

>  <SCORE.norm>
-0.440029

>  <RMSD>
8.325

$$$$
lig.pdb
 OpenBabel11021811493D
libRbt.so/2013.1/901 2013/11/27
 27 29  0  0  0  0  0  0  0  0999 V2000
    4.1368  -17.8337   -7.3274 N   0  0  0  0  0  0  0  0  0  0  0  0
    5.5478  -18.0132   -7.7866 C   0  0  2  0  0  0  0  0  0  0  0  0
    6.4853  -17.8558   -6.5930 C   0  0  0  0  0  0  0  0  0  0  0  0
    6.9598  -18.8529   -6.0616 O   0  0  0  0  0  0  0  0  0  0  0  0
    6.7924  -16.7531   -6.1225 O   0  0  0  0  0  0  0  0  0  0  0  0
    5.9435  -17.0826   -8.9507 C   0  0  0  0  0  0  0  0  0  0  0  0
    6.2169  -17.7565  -10.3211 C   0  0  0  0  0  0  0  0  0  0  0  0
    6.7012  -16.7011  -11.7546 S   0  0  2  0  0  0  0  0  0  0  0  0
    7.5418  -17.8980  -12.8130 C   0  0  0  0  0  0  0  0  0  0  0  0
    8.1291  -15.7810  -11.1413 C   0  0  0  0  0  0  0  0  0  0  0  0
    8.5523  -14.7430  -12.1723 C   0  0  1  0  0  0  0  0  0  0  0  0
    8.8345  -15.3157  -13.4402 O   0  0  0  0  0  0  0  0  0  0  0  0
    7.4795  -13.7288  -12.4656 C   0  0  1  0  0  0  0  0  0  0  0  0
    7.4337  -12.7685  -11.4499 O   0  0  0  0  0  0  0  0  0  0  0  0
    7.9726  -13.1752  -13.7842 C   0  0  1  0  0  0  0  0  0  0  0  0
    8.9633  -12.1928  -13.5600 O   0  0  0  0  0  0  0  0  0  0  0  0
    8.6120  -14.3744  -14.4752 C   0  0  2  0  0  0  0  0  0  0  0  0
    7.8159  -14.9592  -15.5889 N   0  0  0  0  0  0  0  0  0  0  0  0
    7.8114  -16.2828  -15.9509 C   0  0  0  0  0  0  0  0  0  0  0  0
    6.9756  -16.4533  -16.9996 N   0  0  0  0  0  0  0  0  0  0  0  0
    6.4339  -15.2655  -17.3155 C   0  0  0  0  0  0  0  0  0  0  0  0
    5.5207  -14.8885  -18.2883 C   0  0  0  0  0  0  0  0  0  0  0  0
    5.0178  -15.7905  -19.1208 N   0  0  0  0  0  0  0  0  0  0  0  0
    5.1372  -13.5648  -18.3753 N   0  0  0  0  0  0  0  0  0  0  0  0
    5.6484  -12.6113  -17.5039 C   0  0  0  0  0  0  0  0  0  0  0  0
    6.5518  -13.0064  -16.5384 N   0  0  0  0  0  0  0  0  0  0  0  0
    6.9483  -14.3091  -16.4436 C   0  0  0  0  0  0  0  0  0  0  0  0
  2  3  1  1  0  0  0
  2  6  1  0  0  0  0
  2  1  1  0  0  0  0
  4  3  2  0  0  0  0
  5  3  1  0  0  0  0
  6  7  2  0  0  0  0
  8  7  1  1  0  0  0
  8  9  1  0  0  0  0
  8 10  1  0  0  0  0
 11 10  1  1  0  0  0
 11 13  1  0  0  0  0
 12 11  1  0  0  0  0
 12 17  1  0  0  0  0
 13 14  1  1  0  0  0
 13 15  1  0  0  0  0
 15 16  1  1  0  0  0
 17 18  1  6  0  0  0
 17 15  1  0  0  0  0
 18 19  1  0  0  0  0
 20 19  2  0  0  0  0
 21 27  2  0  0  0  0
 21 20  1  0  0  0  0
 22 21  1  0  0  0  0
 23 22  1  0  0  0  0
 24 22  2  0  0  0  0
 24 25  1  0  0  0  0
 25 26  2  0  0  0  0
 26 27  1  0  0  0  0
 27 18  1  0  0  0  0
M  END
>  <CHROM.1>
101.83176155,-112.21418418,157.41088623,-173.73730188,-56.35700389,-29.29039492
6.91760091,-15.53689836,-12.89184786,1.60427277,1.00407058,1.87158240

>  <Name>
lig.pdb

>  <RI>
0

>  <Rbt.Current_Directory>
/home/itssahil/PROJECTS/Mol_Feturizer/New_Systems/rnas/4b5r

>  <Rbt.Executable>
rbdock ($Id: //depot/dev/client3/rdock/2013.1/src/exe/rbdock.cxx#4 $)

>  <Rbt.Library>
libRbt.so (2013.1, Build901 2013/11/27)

>  <Rbt.Parameter_File>
/export/apps/rDock/src/rDock_2013.1_src/data/scripts/dock_solv.prm

>  <Rbt.Receptor>
prm/pocket_docking_7.prm

>  <SCORE>
-11.5599

>  <SCORE.INTER>
-10.412

>  <SCORE.INTER.CONST>
1

>  <SCORE.INTER.POLAR>
0

>  <SCORE.INTER.ROT>
6

>  <SCORE.INTER.SOLV>
13.0665

>  <SCORE.INTER.VDW>
-18.8969

>  <SCORE.INTER.norm>
-0.385631

>  <SCORE.INTRA>
-1.14785

>  <SCORE.INTRA.DIHEDRAL>
-2.67248

>  <SCORE.INTRA.DIHEDRAL.0>
10.2917

>  <SCORE.INTRA.POLAR>
0

>  <SCORE.INTRA.POLAR.0>
0

>  <SCORE.INTRA.REPUL>
0

>  <SCORE.INTRA.REPUL.0>
0

>  <SCORE.INTRA.SOLV>
-2.79902

>  <SCORE.INTRA.SOLV.lig_0>
-39.6315

>  <SCORE.INTRA.VDW>
1.5879

>  <SCORE.INTRA.VDW.0>
-4.02152

>  <SCORE.INTRA.norm>
-0.042513

>  <SCORE.RESTR>
0

>  <SCORE.RESTR.CAVITY>
0

>  <SCORE.RESTR.norm>
0

>  <SCORE.SYSTEM>
0

>  <SCORE.SYSTEM.CONST>
0

>  <SCORE.SYSTEM.DIHEDRAL>
0

>  <SCORE.SYSTEM.SOLV>
0

>  <SCORE.SYSTEM.norm>
0

>  <SCORE.heavy>
27

>  <SCORE.norm>
-0.428144

>  <RMSD>
8.391

$$$$
lig.pdb
 OpenBabel11021811493D
libRbt.so/2013.1/901 2013/11/27
 27 29  0  0  0  0  0  0  0  0999 V2000
    4.1116  -15.2612   -7.8996 N   0  0  0  0  0  0  0  0  0  0  0  0
    2.6808  -14.8746   -8.0933 C   0  0  2  0  0  0  0  0  0  0  0  0
    1.7858  -15.9966   -7.5755 C   0  0  0  0  0  0  0  0  0  0  0  0
    2.2944  -17.0162   -7.1244 O   0  0  0  0  0  0  0  0  0  0  0  0
    0.5500  -15.9305   -7.5928 O   0  0  0  0  0  0  0  0  0  0  0  0
    2.3341  -14.4913   -9.5462 C   0  0  0  0  0  0  0  0  0  0  0  0
    3.3876  -14.8393  -10.6304 C   0  0  0  0  0  0  0  0  0  0  0  0
    3.0383  -14.4020  -12.3883 S   0  0  2  0  0  0  0  0  0  0  0  0
    2.0451  -15.8135  -12.9181 C   0  0  0  0  0  0  0  0  0  0  0  0
    4.5865  -14.7833  -13.2364 C   0  0  0  0  0  0  0  0  0  0  0  0
    5.7435  -14.0907  -12.5286 C   0  0  1  0  0  0  0  0  0  0  0  0
    6.9773  -14.2514  -13.2123 O   0  0  0  0  0  0  0  0  0  0  0  0
    5.5734  -12.5979  -12.4383 C   0  0  1  0  0  0  0  0  0  0  0  0
    4.6880  -12.2755  -11.4048 O   0  0  0  0  0  0  0  0  0  0  0  0
    6.9970  -12.1720  -12.1547 C   0  0  1  0  0  0  0  0  0  0  0  0
    7.2821  -12.3115  -10.7777 O   0  0  0  0  0  0  0  0  0  0  0  0
    7.8458  -13.1663  -12.9392 C   0  0  2  0  0  0  0  0  0  0  0  0
    8.4607  -12.6272  -14.1832 N   0  0  0  0  0  0  0  0  0  0  0  0
    9.7971  -12.3713  -14.3608 C   0  0  0  0  0  0  0  0  0  0  0  0
    9.9950  -11.8912  -15.6090 N   0  0  0  0  0  0  0  0  0  0  0  0
    8.8120  -11.8409  -16.2431 C   0  0  0  0  0  0  0  0  0  0  0  0
    8.4587  -11.4427  -17.5234 C   0  0  0  0  0  0  0  0  0  0  0  0
    9.3843  -11.0127  -18.3707 N   0  0  0  0  0  0  0  0  0  0  0  0
    7.1336  -11.5053  -17.9065 N   0  0  0  0  0  0  0  0  0  0  0  0
    6.1552  -11.9625  -17.0328 C   0  0  0  0  0  0  0  0  0  0  0  0
    6.5266  -12.3601  -15.7645 N   0  0  0  0  0  0  0  0  0  0  0  0
    7.8307  -12.2970  -15.3664 C   0  0  0  0  0  0  0  0  0  0  0  0
  2  3  1  6  0  0  0
  2  6  1  0  0  0  0
  2  1  1  0  0  0  0
  4  3  2  0  0  0  0
  5  3  1  0  0  0  0
  6  7  2  0  0  0  0
  8  7  1  1  0  0  0
  8  9  1  0  0  0  0
  8 10  1  0  0  0  0
 11 10  1  6  0  0  0
 11 13  1  0  0  0  0
 12 11  1  0  0  0  0
 12 17  1  0  0  0  0
 13 14  1  1  0  0  0
 13 15  1  0  0  0  0
 15 16  1  1  0  0  0
 17 18  1  6  0  0  0
 17 15  1  0  0  0  0
 18 19  1  0  0  0  0
 20 19  2  0  0  0  0
 21 27  2  0  0  0  0
 21 20  1  0  0  0  0
 22 21  1  0  0  0  0
 23 22  1  0  0  0  0
 24 22  2  0  0  0  0
 24 25  1  0  0  0  0
 25 26  2  0  0  0  0
 26 27  1  0  0  0  0
 27 18  1  0  0  0  0
M  END
>  <CHROM.1>
-1.51892378,12.55873055,-84.02902051,-52.41804331,-174.77384894,-131.40020114
5.53469842,-13.55165235,-12.66813214,-2.24931501,-0.35918469,-1.39332488

>  <Name>
lig.pdb

>  <RI>
0

>  <Rbt.Current_Directory>
/home/itssahil/PROJECTS/Mol_Feturizer/New_Systems/rnas/4b5r

>  <Rbt.Executable>
rbdock ($Id: //depot/dev/client3/rdock/2013.1/src/exe/rbdock.cxx#4 $)

>  <Rbt.Library>
libRbt.so (2013.1, Build901 2013/11/27)

>  <Rbt.Parameter_File>
/export/apps/rDock/src/rDock_2013.1_src/data/scripts/dock_solv.prm

>  <Rbt.Receptor>
prm/blind_docking_40.prm

>  <SCORE>
-13.7847

>  <SCORE.INTER>
-13.9632

>  <SCORE.INTER.CONST>
1

>  <SCORE.INTER.POLAR>
0

>  <SCORE.INTER.ROT>
6

>  <SCORE.INTER.SOLV>
10.4464

>  <SCORE.INTER.VDW>
-20.3909

>  <SCORE.INTER.norm>
-0.517156

>  <SCORE.INTRA>
0.178511

>  <SCORE.INTRA.DIHEDRAL>
-1.54038

>  <SCORE.INTRA.DIHEDRAL.0>
10.2917

>  <SCORE.INTRA.POLAR>
0

>  <SCORE.INTRA.POLAR.0>
0

>  <SCORE.INTRA.REPUL>
0

>  <SCORE.INTRA.REPUL.0>
0

>  <SCORE.INTRA.SOLV>
-1.51566

>  <SCORE.INTRA.SOLV.lig_0>
-39.6315

>  <SCORE.INTRA.VDW>
1.70653

>  <SCORE.INTRA.VDW.0>
-4.02152

>  <SCORE.INTRA.norm>
0.00661154

>  <SCORE.RESTR>
0

>  <SCORE.RESTR.CAVITY>
0

>  <SCORE.RESTR.norm>
0

>  <SCORE.SYSTEM>
0

>  <SCORE.SYSTEM.CONST>
0

>  <SCORE.SYSTEM.DIHEDRAL>
0

>  <SCORE.SYSTEM.SOLV>
0

>  <SCORE.SYSTEM.norm>
0

>  <SCORE.heavy>
27

>  <SCORE.norm>
-0.510545

>  <RMSD>
8.401

$$$$
lig.pdb
 OpenBabel11021811493D
libRbt.so/2013.1/901 2013/11/27
 27 29  0  0  0  0  0  0  0  0999 V2000
    3.9717  -16.7314  -10.2307 N   0  0  0  0  0  0  0  0  0  0  0  0
    3.9627  -17.4689  -11.5308 C   0  0  2  0  0  0  0  0  0  0  0  0
    3.3735  -18.8593  -11.3121 C   0  0  0  0  0  0  0  0  0  0  0  0
    2.3667  -19.1926  -11.9262 O   0  0  0  0  0  0  0  0  0  0  0  0
    3.8663  -19.6806  -10.5283 O   0  0  0  0  0  0  0  0  0  0  0  0
    5.3428  -17.5342  -12.2155 C   0  0  0  0  0  0  0  0  0  0  0  0
    5.3963  -17.1458  -13.7165 C   0  0  0  0  0  0  0  0  0  0  0  0
    7.0156  -17.2085  -14.5982 S   0  0  2  0  0  0  0  0  0  0  0  0
    7.7170  -18.7410  -13.9508 C   0  0  0  0  0  0  0  0  0  0  0  0
    8.0306  -16.0090  -13.7078 C   0  0  0  0  0  0  0  0  0  0  0  0
    7.6619  -14.5981  -14.1473 C   0  0  1  0  0  0  0  0  0  0  0  0
    7.8285  -14.3995  -15.5431 O   0  0  0  0  0  0  0  0  0  0  0  0
    6.2148  -14.2623  -13.9056 C   0  0  1  0  0  0  0  0  0  0  0  0
    6.0122  -13.9452  -12.5587 O   0  0  0  0  0  0  0  0  0  0  0  0
    6.0469  -13.0743  -14.8270 C   0  0  1  0  0  0  0  0  0  0  0  0
    6.5161  -11.8995  -14.1973 O   0  0  0  0  0  0  0  0  0  0  0  0
    6.9489  -13.3939  -16.0139 C   0  0  2  0  0  0  0  0  0  0  0  0
    6.2375  -13.8200  -17.2502 N   0  0  0  0  0  0  0  0  0  0  0  0
    5.4503  -13.0114  -18.0309 C   0  0  0  0  0  0  0  0  0  0  0  0
    4.9673  -13.7306  -19.0687 N   0  0  0  0  0  0  0  0  0  0  0  0
    5.4354  -14.9861  -18.9769 C   0  0  0  0  0  0  0  0  0  0  0  0
    5.2585  -16.1059  -19.7753 C   0  0  0  0  0  0  0  0  0  0  0  0
    4.5046  -16.0397  -20.8648 N   0  0  0  0  0  0  0  0  0  0  0  0
    5.8815  -17.2876  -19.4257 N   0  0  0  0  0  0  0  0  0  0  0  0
    6.6816  -17.3687  -18.2930 C   0  0  0  0  0  0  0  0  0  0  0  0
    6.8506  -16.2423  -17.5137 N   0  0  0  0  0  0  0  0  0  0  0  0
    6.2355  -15.0682  -17.8400 C   0  0  0  0  0  0  0  0  0  0  0  0
  2  3  1  1  0  0  0
  2  6  1  0  0  0  0
  2  1  1  0  0  0  0
  4  3  2  0  0  0  0
  5  3  1  0  0  0  0
  6  7  2  0  0  0  0
  8  7  1  1  0  0  0
  8  9  1  0  0  0  0
  8 10  1  0  0  0  0
 11 10  1  6  0  0  0
 11 13  1  0  0  0  0
 12 11  1  0  0  0  0
 12 17  1  0  0  0  0
 13 14  1  1  0  0  0
 13 15  1  0  0  0  0
 15 16  1  1  0  0  0
 17 18  1  6  0  0  0
 17 15  1  0  0  0  0
 18 19  1  0  0  0  0
 20 19  2  0  0  0  0
 21 27  2  0  0  0  0
 21 20  1  0  0  0  0
 22 21  1  0  0  0  0
 23 22  1  0  0  0  0
 24 22  2  0  0  0  0
 24 25  1  0  0  0  0
 25 26  2  0  0  0  0
 26 27  1  0  0  0  0
 27 18  1  0  0  0  0
M  END
>  <CHROM.1>
120.20726090,-131.04733950,41.51125983,-78.31704234,-58.38380099,-171.53370545
5.83049546,-15.91839943,-15.14105858,-2.08989100,-1.18348589,-1.63170154

>  <Name>
lig.pdb

>  <RI>
0

>  <Rbt.Current_Directory>
/home/itssahil/PROJECTS/Mol_Feturizer/New_Systems/rnas/4b5r

>  <Rbt.Executable>
rbdock ($Id: //depot/dev/client3/rdock/2013.1/src/exe/rbdock.cxx#4 $)

>  <Rbt.Library>
libRbt.so (2013.1, Build901 2013/11/27)

>  <Rbt.Parameter_File>
/export/apps/rDock/src/rDock_2013.1_src/data/scripts/dock_solv.prm

>  <Rbt.Receptor>
prm/blind_docking_80.prm

>  <SCORE>
-10.0103

>  <SCORE.INTER>
-8.93626

>  <SCORE.INTER.CONST>
1

>  <SCORE.INTER.POLAR>
0

>  <SCORE.INTER.ROT>
6

>  <SCORE.INTER.SOLV>
13.1006

>  <SCORE.INTER.VDW>
-17.9244

>  <SCORE.INTER.norm>
-0.330973

>  <SCORE.INTRA>
-1.07403

>  <SCORE.INTRA.DIHEDRAL>
-1.24353

>  <SCORE.INTRA.DIHEDRAL.0>
10.2917

>  <SCORE.INTRA.POLAR>
0

>  <SCORE.INTRA.POLAR.0>
0

>  <SCORE.INTRA.REPUL>
0

>  <SCORE.INTRA.REPUL.0>
0

>  <SCORE.INTRA.SOLV>
-1.83616

>  <SCORE.INTRA.SOLV.lig_0>
-39.6315

>  <SCORE.INTRA.VDW>
0.465816

>  <SCORE.INTRA.VDW.0>
-4.02152

>  <SCORE.INTRA.norm>
-0.0397789

>  <SCORE.RESTR>
0

>  <SCORE.RESTR.CAVITY>
0

>  <SCORE.RESTR.norm>
0

>  <SCORE.SYSTEM>
0

>  <SCORE.SYSTEM.CONST>
0

>  <SCORE.SYSTEM.DIHEDRAL>
0

>  <SCORE.SYSTEM.SOLV>
0

>  <SCORE.SYSTEM.norm>
0

>  <SCORE.heavy>
27

>  <SCORE.norm>
-0.370752

>  <RMSD>
8.462

$$$$
lig.pdb
 OpenBabel11021811493D
libRbt.so/2013.1/901 2013/11/27
 27 29  0  0  0  0  0  0  0  0999 V2000
    0.0862   -7.9028  -18.4812 N   0  0  0  0  0  0  0  0  0  0  0  0
    1.5216   -7.5756  -18.7394 C   0  0  2  0  0  0  0  0  0  0  0  0
    1.8101   -7.7353  -20.2291 C   0  0  0  0  0  0  0  0  0  0  0  0
    1.8244   -8.8557  -20.7254 O   0  0  0  0  0  0  0  0  0  0  0  0
    2.0398   -6.7742  -20.9743 O   0  0  0  0  0  0  0  0  0  0  0  0
    2.5072   -8.3886  -17.8759 C   0  0  0  0  0  0  0  0  0  0  0  0
    3.6851   -7.6065  -17.2375 C   0  0  0  0  0  0  0  0  0  0  0  0
    4.9048   -8.5203  -16.1979 S   0  0  2  0  0  0  0  0  0  0  0  0
    6.4580   -7.7588  -16.7148 C   0  0  0  0  0  0  0  0  0  0  0  0
    5.0575  -10.1173  -17.0275 C   0  0  0  0  0  0  0  0  0  0  0  0
    6.0931  -10.9720  -16.3088 C   0  0  1  0  0  0  0  0  0  0  0  0
    5.9123  -10.9809  -14.9008 O   0  0  0  0  0  0  0  0  0  0  0  0
    6.0271  -12.4266  -16.6899 C   0  0  1  0  0  0  0  0  0  0  0  0
    6.6497  -12.6297  -17.9256 O   0  0  0  0  0  0  0  0  0  0  0  0
    6.7801  -13.0512  -15.5361 C   0  0  1  0  0  0  0  0  0  0  0  0
    8.1727  -12.9649  -15.7596 O   0  0  0  0  0  0  0  0  0  0  0  0
    6.4158  -12.1799  -14.3392 C   0  0  2  0  0  0  0  0  0  0  0  0
    5.4484  -12.7897  -13.3860 N   0  0  0  0  0  0  0  0  0  0  0  0
    5.2199  -12.3587  -12.1035 C   0  0  0  0  0  0  0  0  0  0  0  0
    4.2793  -13.1439  -11.5324 N   0  0  0  0  0  0  0  0  0  0  0  0
    3.8903  -14.0684  -12.4258 C   0  0  0  0  0  0  0  0  0  0  0  0
    2.9596  -15.0940  -12.3583 C   0  0  0  0  0  0  0  0  0  0  0  0
    2.2598  -15.2918  -11.2489 N   0  0  0  0  0  0  0  0  0  0  0  0
    2.7664  -15.9017  -13.4614 N   0  0  0  0  0  0  0  0  0  0  0  0
    3.4853  -15.6999  -14.6328 C   0  0  0  0  0  0  0  0  0  0  0  0
    4.4031  -14.6705  -14.6832 N   0  0  0  0  0  0  0  0  0  0  0  0
    4.6128  -13.8677  -13.5994 C   0  0  0  0  0  0  0  0  0  0  0  0
  2  3  1  6  0  0  0
  2  6  1  0  0  0  0
  2  1  1  0  0  0  0
  4  3  2  0  0  0  0
  5  3  1  0  0  0  0
  6  7  2  0  0  0  0
  8  7  1  6  0  0  0
  8  9  1  0  0  0  0
  8 10  1  0  0  0  0
 11 10  1  6  0  0  0
 11 13  1  0  0  0  0
 12 11  1  0  0  0  0
 12 17  1  0  0  0  0
 13 14  1  6  0  0  0
 13 15  1  0  0  0  0
 15 16  1  6  0  0  0
 17 18  1  1  0  0  0
 17 15  1  0  0  0  0
 18 19  1  0  0  0  0
 20 19  2  0  0  0  0
 21 27  2  0  0  0  0
 21 20  1  0  0  0  0
 22 21  1  0  0  0  0
 23 22  1  0  0  0  0
 24 22  2  0  0  0  0
 24 25  1  0  0  0  0
 25 26  2  0  0  0  0
 26 27  1  0  0  0  0
 27 18  1  0  0  0  0
M  END
>  <CHROM.1>
-70.04756900,-135.94053982,139.48384495,177.47722058,47.18950352,-77.19044466
4.33213954,-11.26699237,-15.84472881,1.77378083,-0.05169779,-0.73273216

>  <Name>
lig.pdb

>  <RI>
0

>  <Rbt.Current_Directory>
/home/itssahil/PROJECTS/Mol_Feturizer/New_Systems/rnas/4b5r

>  <Rbt.Executable>
rbdock ($Id: //depot/dev/client3/rdock/2013.1/src/exe/rbdock.cxx#4 $)

>  <Rbt.Library>
libRbt.so (2013.1, Build901 2013/11/27)

>  <Rbt.Parameter_File>
/export/apps/rDock/src/rDock_2013.1_src/data/scripts/dock_solv.prm

>  <Rbt.Receptor>
prm/blind_docking_80.prm

>  <SCORE>
-14.1003

>  <SCORE.INTER>
-13.1175

>  <SCORE.INTER.CONST>
1

>  <SCORE.INTER.POLAR>
0

>  <SCORE.INTER.ROT>
6

>  <SCORE.INTER.SOLV>
12.1312

>  <SCORE.INTER.VDW>
-20.3887

>  <SCORE.INTER.norm>
-0.485832

>  <SCORE.INTRA>
-0.982816

>  <SCORE.INTRA.DIHEDRAL>
-2.44084

>  <SCORE.INTRA.DIHEDRAL.0>
10.2917

>  <SCORE.INTRA.POLAR>
0

>  <SCORE.INTRA.POLAR.0>
0

>  <SCORE.INTRA.REPUL>
0

>  <SCORE.INTRA.REPUL.0>
0

>  <SCORE.INTRA.SOLV>
-2.91697

>  <SCORE.INTRA.SOLV.lig_0>
-39.6315

>  <SCORE.INTRA.VDW>
1.69609

>  <SCORE.INTRA.VDW.0>
-4.02152

>  <SCORE.INTRA.norm>
-0.0364006

>  <SCORE.RESTR>
0

>  <SCORE.RESTR.CAVITY>
0

>  <SCORE.RESTR.norm>
0

>  <SCORE.SYSTEM>
0

>  <SCORE.SYSTEM.CONST>
0

>  <SCORE.SYSTEM.DIHEDRAL>
0

>  <SCORE.SYSTEM.SOLV>
0

>  <SCORE.SYSTEM.norm>
0

>  <SCORE.heavy>
27

>  <SCORE.norm>
-0.522233

>  <RMSD>
8.584

$$$$
lig.pdb
 OpenBabel11021811493D
libRbt.so/2013.1/901 2013/11/27
 27 29  0  0  0  0  0  0  0  0999 V2000
    6.3229   -6.4294  -17.4101 N   0  0  0  0  0  0  0  0  0  0  0  0
    7.7116   -6.6895  -16.9224 C   0  0  2  0  0  0  0  0  0  0  0  0
    8.7069   -6.2583  -17.9956 C   0  0  0  0  0  0  0  0  0  0  0  0
    9.8015   -5.8190  -17.6632 O   0  0  0  0  0  0  0  0  0  0  0  0
    8.4586   -6.3258  -19.2062 O   0  0  0  0  0  0  0  0  0  0  0  0
    7.9485   -8.1463  -16.4755 C   0  0  0  0  0  0  0  0  0  0  0  0
    6.7492   -9.1212  -16.6092 C   0  0  0  0  0  0  0  0  0  0  0  0
    6.9631  -10.8774  -16.0862 S   0  0  2  0  0  0  0  0  0  0  0  0
    8.4343  -11.3524  -17.0187 C   0  0  0  0  0  0  0  0  0  0  0  0
    5.7038  -11.7591  -17.0340 C   0  0  0  0  0  0  0  0  0  0  0  0
    5.8730  -13.2602  -16.8404 C   0  0  1  0  0  0  0  0  0  0  0  0
    5.7571  -13.6524  -15.4810 O   0  0  0  0  0  0  0  0  0  0  0  0
    4.8149  -14.0700  -17.5406 C   0  0  1  0  0  0  0  0  0  0  0  0
    5.1063  -14.1665  -18.9050 O   0  0  0  0  0  0  0  0  0  0  0  0
    4.9452  -15.3887  -16.8110 C   0  0  1  0  0  0  0  0  0  0  0  0
    6.0084  -16.1437  -17.3555 O   0  0  0  0  0  0  0  0  0  0  0  0
    5.3015  -14.9901  -15.3832 C   0  0  2  0  0  0  0  0  0  0  0  0
    4.1951  -15.1237  -14.3961 N   0  0  0  0  0  0  0  0  0  0  0  0
    3.0335  -15.8259  -14.5971 C   0  0  0  0  0  0  0  0  0  0  0  0
    2.2608  -15.7312  -13.4919 N   0  0  0  0  0  0  0  0  0  0  0  0
    2.9063  -14.9881  -12.5781 C   0  0  0  0  0  0  0  0  0  0  0  0
    2.5704  -14.5974  -11.2908 C   0  0  0  0  0  0  0  0  0  0  0  0
    1.4159  -14.9730  -10.7563 N   0  0  0  0  0  0  0  0  0  0  0  0
    3.4547  -13.8185  -10.5710 N   0  0  0  0  0  0  0  0  0  0  0  0
    4.6713  -13.4259  -11.1146 C   0  0  0  0  0  0  0  0  0  0  0  0
    4.9908  -13.8293  -12.3951 N   0  0  0  0  0  0  0  0  0  0  0  0
    4.1249  -14.5923  -13.1239 C   0  0  0  0  0  0  0  0  0  0  0  0
  2  3  1  6  0  0  0
  2  6  1  0  0  0  0
  2  1  1  0  0  0  0
  4  3  2  0  0  0  0
  5  3  1  0  0  0  0
  6  7  2  0  0  0  0
  8  7  1  6  0  0  0
  8  9  1  0  0  0  0
  8 10  1  0  0  0  0
 11 10  1  1  0  0  0
 11 13  1  0  0  0  0
 12 11  1  0  0  0  0
 12 17  1  0  0  0  0
 13 14  1  6  0  0  0
 13 15  1  0  0  0  0
 15 16  1  6  0  0  0
 17 18  1  1  0  0  0
 17 15  1  0  0  0  0
 18 19  1  0  0  0  0
 20 19  2  0  0  0  0
 21 27  2  0  0  0  0
 21 20  1  0  0  0  0
 22 21  1  0  0  0  0
 23 22  1  0  0  0  0
 24 22  2  0  0  0  0
 24 25  1  0  0  0  0
 25 26  2  0  0  0  0
 26 27  1  0  0  0  0
 27 18  1  0  0  0  0
M  END
>  <CHROM.1>
147.67614577,0.82242416,-52.99064069,172.83072331,59.53934165,134.53672413
5.61964624,-12.17055703,-15.49299591,0.26254580,1.06831164,0.73487339

>  <Name>
lig.pdb

>  <RI>
0

>  <Rbt.Current_Directory>
/home/itssahil/PROJECTS/Mol_Feturizer/New_Systems/rnas/4b5r

>  <Rbt.Executable>
rbdock ($Id: //depot/dev/client3/rdock/2013.1/src/exe/rbdock.cxx#4 $)

>  <Rbt.Library>
libRbt.so (2013.1, Build901 2013/11/27)

>  <Rbt.Parameter_File>
/export/apps/rDock/src/rDock_2013.1_src/data/scripts/dock_solv.prm

>  <Rbt.Receptor>
prm/blind_docking_60.prm

>  <SCORE>
-14.2928

>  <SCORE.INTER>
-14.3482

>  <SCORE.INTER.CONST>
1

>  <SCORE.INTER.POLAR>
0

>  <SCORE.INTER.ROT>
6

>  <SCORE.INTER.SOLV>
12.9218

>  <SCORE.INTER.VDW>
-21.4727

>  <SCORE.INTER.norm>
-0.531414

>  <SCORE.INTRA>
0.0553936

>  <SCORE.INTRA.DIHEDRAL>
-3.38147

>  <SCORE.INTRA.DIHEDRAL.0>
10.2917

>  <SCORE.INTRA.POLAR>
0

>  <SCORE.INTRA.POLAR.0>
0

>  <SCORE.INTRA.REPUL>
0.11424

>  <SCORE.INTRA.REPUL.0>
0

>  <SCORE.INTRA.SOLV>
-2.72682

>  <SCORE.INTRA.SOLV.lig_0>
-39.6315

>  <SCORE.INTRA.VDW>
2.53834

>  <SCORE.INTRA.VDW.0>
-4.02152

>  <SCORE.INTRA.norm>
0.00205162

>  <SCORE.RESTR>
0

>  <SCORE.RESTR.CAVITY>
0

>  <SCORE.RESTR.norm>
0

>  <SCORE.SYSTEM>
0

>  <SCORE.SYSTEM.CONST>
0

>  <SCORE.SYSTEM.DIHEDRAL>
0

>  <SCORE.SYSTEM.SOLV>
0

>  <SCORE.SYSTEM.norm>
0

>  <SCORE.heavy>
27

>  <SCORE.norm>
-0.529363

>  <RMSD>
8.809

$$$$
lig.pdb
 OpenBabel11021811493D
libRbt.so/2013.1/901 2013/11/27
 27 29  0  0  0  0  0  0  0  0999 V2000
    2.5270  -14.5151   -8.6298 N   0  0  0  0  0  0  0  0  0  0  0  0
    1.3325  -14.3601   -9.5147 C   0  0  2  0  0  0  0  0  0  0  0  0
    0.2350  -15.3094   -9.0431 C   0  0  0  0  0  0  0  0  0  0  0  0
    0.0192  -16.3416   -9.6674 O   0  0  0  0  0  0  0  0  0  0  0  0
   -0.4646  -15.0836   -8.0474 O   0  0  0  0  0  0  0  0  0  0  0  0
    1.6437  -14.5459  -11.0136 C   0  0  0  0  0  0  0  0  0  0  0  0
    3.1415  -14.5935  -11.4148 C   0  0  0  0  0  0  0  0  0  0  0  0
    3.5834  -14.8072  -13.1932 S   0  0  2  0  0  0  0  0  0  0  0  0
    2.5834  -16.2420  -13.6411 C   0  0  0  0  0  0  0  0  0  0  0  0
    5.2152  -15.5791  -13.1353 C   0  0  0  0  0  0  0  0  0  0  0  0
    5.6494  -15.9674  -14.5425 C   0  0  1  0  0  0  0  0  0  0  0  0
    5.6081  -14.8749  -15.4481 O   0  0  0  0  0  0  0  0  0  0  0  0
    7.0770  -16.4393  -14.6120 C   0  0  1  0  0  0  0  0  0  0  0  0
    7.1691  -17.7626  -14.1689 O   0  0  0  0  0  0  0  0  0  0  0  0
    7.3482  -16.2889  -16.0926 C   0  0  1  0  0  0  0  0  0  0  0  0
    6.8509  -17.4095  -16.7953 O   0  0  0  0  0  0  0  0  0  0  0  0
    6.5456  -15.0565  -16.4944 C   0  0  2  0  0  0  0  0  0  0  0  0
    7.3521  -13.8275  -16.7298 N   0  0  0  0  0  0  0  0  0  0  0  0
    7.4095  -13.1306  -17.9105 C   0  0  0  0  0  0  0  0  0  0  0  0
    8.2374  -12.0724  -17.7615 N   0  0  0  0  0  0  0  0  0  0  0  0
    8.7085  -12.0686  -16.5037 C   0  0  0  0  0  0  0  0  0  0  0  0
    9.5701  -11.2122  -15.8354 C   0  0  0  0  0  0  0  0  0  0  0  0
   10.0869  -10.1612  -16.4583 N   0  0  0  0  0  0  0  0  0  0  0  0
    9.8780  -11.4635  -14.5129 N   0  0  0  0  0  0  0  0  0  0  0  0
    9.3365  -12.5548  -13.8454 C   0  0  0  0  0  0  0  0  0  0  0  0
    8.4763  -13.3928  -14.5253 N   0  0  0  0  0  0  0  0  0  0  0  0
    8.1677  -13.1641  -15.8351 C   0  0  0  0  0  0  0  0  0  0  0  0
  2  3  1  1  0  0  0
  2  6  1  0  0  0  0
  2  1  1  0  0  0  0
  4  3  2  0  0  0  0
  5  3  1  0  0  0  0
  6  7  2  0  0  0  0
  8  7  1  1  0  0  0
  8  9  1  0  0  0  0
  8 10  1  0  0  0  0
 11 10  1  1  0  0  0
 11 13  1  0  0  0  0
 12 11  1  0  0  0  0
 12 17  1  0  0  0  0
 13 14  1  6  0  0  0
 13 15  1  0  0  0  0
 15 16  1  6  0  0  0
 17 18  1  1  0  0  0
 17 15  1  0  0  0  0
 18 19  1  0  0  0  0
 20 19  2  0  0  0  0
 21 27  2  0  0  0  0
 21 20  1  0  0  0  0
 22 21  1  0  0  0  0
 23 22  1  0  0  0  0
 24 22  2  0  0  0  0
 24 25  1  0  0  0  0
 25 26  2  0  0  0  0
 26 27  1  0  0  0  0
 27 18  1  0  0  0  0
M  END
>  <CHROM.1>
-103.61982684,-11.14982479,-50.77060281,173.51422757,54.43503308,-120.46702189
5.50908633,-14.47289831,-13.83261831,-2.98533082,-0.72380420,-2.56012194

>  <Name>
lig.pdb

>  <RI>
0

>  <Rbt.Current_Directory>
/home/itssahil/PROJECTS/Mol_Feturizer/New_Systems/rnas/4b5r

>  <Rbt.Executable>
rbdock ($Id: //depot/dev/client3/rdock/2013.1/src/exe/rbdock.cxx#4 $)

>  <Rbt.Library>
libRbt.so (2013.1, Build901 2013/11/27)

>  <Rbt.Parameter_File>
/export/apps/rDock/src/rDock_2013.1_src/data/scripts/dock_solv.prm

>  <Rbt.Receptor>
prm/blind_docking_40.prm

>  <SCORE>
-14.5139

>  <SCORE.INTER>
-13.8454

>  <SCORE.INTER.CONST>
1

>  <SCORE.INTER.POLAR>
0

>  <SCORE.INTER.ROT>
6

>  <SCORE.INTER.SOLV>
12.3001

>  <SCORE.INTER.VDW>
-20.9303

>  <SCORE.INTER.norm>
-0.512791

>  <SCORE.INTRA>
-0.668514

>  <SCORE.INTRA.DIHEDRAL>
-3.12332

>  <SCORE.INTRA.DIHEDRAL.0>
10.2917

>  <SCORE.INTRA.POLAR>
0

>  <SCORE.INTRA.POLAR.0>
0

>  <SCORE.INTRA.REPUL>
0

>  <SCORE.INTRA.REPUL.0>
0

>  <SCORE.INTRA.SOLV>
-2.03209

>  <SCORE.INTRA.SOLV.lig_0>
-39.6315

>  <SCORE.INTRA.VDW>
1.90919

>  <SCORE.INTRA.VDW.0>
-4.02152

>  <SCORE.INTRA.norm>
-0.0247598

>  <SCORE.RESTR>
0

>  <SCORE.RESTR.CAVITY>
0

>  <SCORE.RESTR.norm>
0

>  <SCORE.SYSTEM>
0

>  <SCORE.SYSTEM.CONST>
0

>  <SCORE.SYSTEM.DIHEDRAL>
0

>  <SCORE.SYSTEM.SOLV>
0

>  <SCORE.SYSTEM.norm>
0

>  <SCORE.heavy>
27

>  <SCORE.norm>
-0.537551

>  <RMSD>
9.001

$$$$
lig.pdb
 OpenBabel11021811493D
libRbt.so/2013.1/901 2013/11/27
 27 29  0  0  0  0  0  0  0  0999 V2000
    3.2077  -14.2683   -7.7259 N   0  0  0  0  0  0  0  0  0  0  0  0
    2.4773  -13.8562   -8.9632 C   0  0  2  0  0  0  0  0  0  0  0  0
    1.1965  -14.6766   -9.0837 C   0  0  0  0  0  0  0  0  0  0  0  0
    1.2654  -15.8668   -9.3673 O   0  0  0  0  0  0  0  0  0  0  0  0
    0.0709  -14.1915   -8.9118 O   0  0  0  0  0  0  0  0  0  0  0  0
    3.3321  -13.9396  -10.2439 C   0  0  0  0  0  0  0  0  0  0  0  0
    4.8526  -13.6752  -10.0867 C   0  0  0  0  0  0  0  0  0  0  0  0
    5.9319  -13.7529  -11.5809 S   0  0  2  0  0  0  0  0  0  0  0  0
    5.4619  -12.2372  -12.4418 C   0  0  0  0  0  0  0  0  0  0  0  0
    5.1114  -14.9688  -12.6346 C   0  0  0  0  0  0  0  0  0  0  0  0
    6.0182  -15.3302  -13.8035 C   0  0  1  0  0  0  0  0  0  0  0  0
    6.3598  -14.2046  -14.5984 O   0  0  0  0  0  0  0  0  0  0  0  0
    7.3495  -15.8831  -13.3707 C   0  0  1  0  0  0  0  0  0  0  0  0
    7.2163  -17.2249  -12.9995 O   0  0  0  0  0  0  0  0  0  0  0  0
    8.1545  -15.6947  -14.6374 C   0  0  1  0  0  0  0  0  0  0  0  0
    7.9058  -16.7573  -15.5352 O   0  0  0  0  0  0  0  0  0  0  0  0
    7.6091  -14.4029  -15.2360 C   0  0  2  0  0  0  0  0  0  0  0  0
    8.4959  -13.2162  -15.0898 N   0  0  0  0  0  0  0  0  0  0  0  0
    9.1291  -12.8369  -13.9330 C   0  0  0  0  0  0  0  0  0  0  0  0
    9.8492  -11.7172  -14.1678 N   0  0  0  0  0  0  0  0  0  0  0  0
    9.6994  -11.3719  -15.4571 C   0  0  0  0  0  0  0  0  0  0  0  0
   10.2200  -10.3286  -16.2075 C   0  0  0  0  0  0  0  0  0  0  0  0
   11.0348   -9.4431  -15.6492 N   0  0  0  0  0  0  0  0  0  0  0  0
    9.8847  -10.2269  -17.5432 N   0  0  0  0  0  0  0  0  0  0  0  0
    9.0404  -11.1526  -18.1431 C   0  0  0  0  0  0  0  0  0  0  0  0
    8.5366  -12.1875  -17.3817 N   0  0  0  0  0  0  0  0  0  0  0  0
    8.8509  -12.2984  -16.0580 C   0  0  0  0  0  0  0  0  0  0  0  0
  2  3  1  6  0  0  0
  2  6  1  0  0  0  0
  2  1  1  0  0  0  0
  4  3  2  0  0  0  0
  5  3  1  0  0  0  0
  6  7  2  0  0  0  0
  8  7  1  1  0  0  0
  8  9  1  0  0  0  0
  8 10  1  0  0  0  0
 11 10  1  1  0  0  0
 11 13  1  0  0  0  0
 12 11  1  0  0  0  0
 12 17  1  0  0  0  0
 13 14  1  6  0  0  0
 13 15  1  0  0  0  0
 15 16  1  6  0  0  0
 17 18  1  1  0  0  0
 17 15  1  0  0  0  0
 18 19  1  0  0  0  0
 20 19  2  0  0  0  0
 21 27  2  0  0  0  0
 21 20  1  0  0  0  0
 22 21  1  0  0  0  0
 23 22  1  0  0  0  0
 24 22  2  0  0  0  0
 24 25  1  0  0  0  0
 25 26  2  0  0  0  0
 26 27  1  0  0  0  0
 27 18  1  0  0  0  0
M  END
>  <CHROM.1>
-71.17893916,-31.59906629,72.59433255,-169.84529318,-59.10997665,72.75647943
6.50167545,-13.62060172,-13.23985966,2.98396886,-0.79290244,-2.96218711

>  <Name>
lig.pdb

>  <RI>
0

>  <Rbt.Current_Directory>
/home/itssahil/PROJECTS/Mol_Feturizer/New_Systems/rnas/4b5r

>  <Rbt.Executable>
rbdock ($Id: //depot/dev/client3/rdock/2013.1/src/exe/rbdock.cxx#4 $)

>  <Rbt.Library>
libRbt.so (2013.1, Build901 2013/11/27)

>  <Rbt.Parameter_File>
/export/apps/rDock/src/rDock_2013.1_src/data/scripts/dock_solv.prm

>  <Rbt.Receptor>
prm/blind_docking_60.prm

>  <SCORE>
-12.7558

>  <SCORE.INTER>
-13.3982

>  <SCORE.INTER.CONST>
1

>  <SCORE.INTER.POLAR>
0

>  <SCORE.INTER.ROT>
6

>  <SCORE.INTER.SOLV>
10.9324

>  <SCORE.INTER.VDW>
-20.1763

>  <SCORE.INTER.norm>
-0.496231

>  <SCORE.INTRA>
0.642488

>  <SCORE.INTRA.DIHEDRAL>
0.354728

>  <SCORE.INTRA.DIHEDRAL.0>
10.2917

>  <SCORE.INTRA.POLAR>
0

>  <SCORE.INTRA.POLAR.0>
0

>  <SCORE.INTRA.REPUL>
0

>  <SCORE.INTRA.REPUL.0>
0

>  <SCORE.INTRA.SOLV>
-2.45861

>  <SCORE.INTRA.SOLV.lig_0>
-39.6315

>  <SCORE.INTRA.VDW>
1.69443

>  <SCORE.INTRA.VDW.0>
-4.02152

>  <SCORE.INTRA.norm>
0.0237959

>  <SCORE.RESTR>
0

>  <SCORE.RESTR.CAVITY>
0

>  <SCORE.RESTR.norm>
0

>  <SCORE.SYSTEM>
0

>  <SCORE.SYSTEM.CONST>
0

>  <SCORE.SYSTEM.DIHEDRAL>
0

>  <SCORE.SYSTEM.SOLV>
0

>  <SCORE.SYSTEM.norm>
0

>  <SCORE.heavy>
27

>  <SCORE.norm>
-0.472436

>  <RMSD>
9.014

$$$$
lig.pdb
 OpenBabel11021811493D
libRbt.so/2013.1/901 2013/11/27
 27 29  0  0  0  0  0  0  0  0999 V2000
    7.4178  -12.4606  -20.0217 N   0  0  0  0  0  0  0  0  0  0  0  0
    7.7720  -11.1412  -19.4153 C   0  0  2  0  0  0  0  0  0  0  0  0
    8.2896  -10.2118  -20.5090 C   0  0  0  0  0  0  0  0  0  0  0  0
    8.5634   -9.0492  -20.2348 O   0  0  0  0  0  0  0  0  0  0  0  0
    8.4450  -10.5771  -21.6813 O   0  0  0  0  0  0  0  0  0  0  0  0
    8.7627  -11.2464  -18.2384 C   0  0  0  0  0  0  0  0  0  0  0  0
    8.5765  -10.2353  -17.0767 C   0  0  0  0  0  0  0  0  0  0  0  0
    9.7323  -10.3022  -15.6403 S   0  0  2  0  0  0  0  0  0  0  0  0
   11.3316  -10.1225  -16.4585 C   0  0  0  0  0  0  0  0  0  0  0  0
    9.7965  -12.0595  -15.2286 C   0  0  0  0  0  0  0  0  0  0  0  0
    8.4549  -12.7092  -15.5407 C   0  0  1  0  0  0  0  0  0  0  0  0
    8.4956  -14.1244  -15.4364 O   0  0  0  0  0  0  0  0  0  0  0  0
    7.3661  -12.3083  -14.5819 C   0  0  1  0  0  0  0  0  0  0  0  0
    6.8794  -11.0387  -14.9090 O   0  0  0  0  0  0  0  0  0  0  0  0
    6.3598  -13.4109  -14.8264 C   0  0  1  0  0  0  0  0  0  0  0  0
    5.5829  -13.1166  -15.9695 O   0  0  0  0  0  0  0  0  0  0  0  0
    7.2163  -14.6393  -15.1127 C   0  0  2  0  0  0  0  0  0  0  0  0
    7.2867  -15.6315  -14.0051 N   0  0  0  0  0  0  0  0  0  0  0  0
    7.1860  -15.3367  -12.6687 C   0  0  0  0  0  0  0  0  0  0  0  0
    7.2931  -16.4785  -11.9530 N   0  0  0  0  0  0  0  0  0  0  0  0
    7.4522  -17.5059  -12.8034 C   0  0  0  0  0  0  0  0  0  0  0  0
    7.5976  -18.8695  -12.5986 C   0  0  0  0  0  0  0  0  0  0  0  0
    7.5914  -19.3667  -11.3688 N   0  0  0  0  0  0  0  0  0  0  0  0
    7.7427  -19.7028  -13.6900 N   0  0  0  0  0  0  0  0  0  0  0  0
    7.7413  -19.1970  -14.9838 C   0  0  0  0  0  0  0  0  0  0  0  0
    7.5895  -17.8378  -15.1683 N   0  0  0  0  0  0  0  0  0  0  0  0
    7.4534  -16.9986  -14.1004 C   0  0  0  0  0  0  0  0  0  0  0  0
  2  3  1  6  0  0  0
  2  6  1  0  0  0  0
  2  1  1  0  0  0  0
  4  3  2  0  0  0  0
  5  3  1  0  0  0  0
  6  7  2  0  0  0  0
  8  7  1  6  0  0  0
  8  9  1  0  0  0  0
  8 10  1  0  0  0  0
 11 10  1  1  0  0  0
 11 13  1  0  0  0  0
 12 11  1  0  0  0  0
 12 17  1  0  0  0  0
 13 14  1  6  0  0  0
 13 15  1  0  0  0  0
 15 16  1  6  0  0  0
 17 18  1  1  0  0  0
 17 15  1  0  0  0  0
 18 19  1  0  0  0  0
 20 19  2  0  0  0  0
 21 27  2  0  0  0  0
 21 20  1  0  0  0  0
 22 21  1  0  0  0  0
 23 22  1  0  0  0  0
 24 22  2  0  0  0  0
 24 25  1  0  0  0  0
 25 26  2  0  0  0  0
 26 27  1  0  0  0  0
 27 18  1  0  0  0  0
M  END
>  <CHROM.1>
175.78290618,-145.00324920,56.20702094,-32.09978757,170.90321793,89.77719390
8.01863995,-13.64947711,-15.77177536,1.10598945,-1.27305798,-1.08110674

>  <Name>
lig.pdb

>  <RI>
0

>  <Rbt.Current_Directory>
/home/itssahil/PROJECTS/Mol_Feturizer/New_Systems/rnas/4b5r

>  <Rbt.Executable>
rbdock ($Id: //depot/dev/client3/rdock/2013.1/src/exe/rbdock.cxx#4 $)

>  <Rbt.Library>
libRbt.so (2013.1, Build901 2013/11/27)

>  <Rbt.Parameter_File>
/export/apps/rDock/src/rDock_2013.1_src/data/scripts/dock_solv.prm

>  <Rbt.Receptor>
prm/blind_docking_40.prm

>  <SCORE>
-11.3169

>  <SCORE.INTER>
-13.3281

>  <SCORE.INTER.CONST>
1

>  <SCORE.INTER.POLAR>
0

>  <SCORE.INTER.ROT>
6

>  <SCORE.INTER.SOLV>
15.9568

>  <SCORE.INTER.VDW>
-21.8044

>  <SCORE.INTER.norm>
-0.493634

>  <SCORE.INTRA>
2.01124

>  <SCORE.INTRA.DIHEDRAL>
2.33968

>  <SCORE.INTRA.DIHEDRAL.0>
10.2917

>  <SCORE.INTRA.POLAR>
0

>  <SCORE.INTRA.POLAR.0>
0

>  <SCORE.INTRA.REPUL>
0

>  <SCORE.INTRA.REPUL.0>
0

>  <SCORE.INTRA.SOLV>
-2.76658

>  <SCORE.INTRA.SOLV.lig_0>
-39.6315

>  <SCORE.INTRA.VDW>
2.22469

>  <SCORE.INTRA.VDW.0>
-4.02152

>  <SCORE.INTRA.norm>
0.0744903

>  <SCORE.RESTR>
0

>  <SCORE.RESTR.CAVITY>
0

>  <SCORE.RESTR.norm>
0

>  <SCORE.SYSTEM>
0

>  <SCORE.SYSTEM.CONST>
0

>  <SCORE.SYSTEM.DIHEDRAL>
0

>  <SCORE.SYSTEM.SOLV>
0

>  <SCORE.SYSTEM.norm>
0

>  <SCORE.heavy>
27

>  <SCORE.norm>
-0.419144

>  <RMSD>
9.026

$$$$
lig.pdb
 OpenBabel11021811493D
libRbt.so/2013.1/901 2013/11/27
 27 29  0  0  0  0  0  0  0  0999 V2000
    9.1048  -10.4606  -17.2324 N   0  0  0  0  0  0  0  0  0  0  0  0
    9.1001  -10.8410  -18.6778 C   0  0  2  0  0  0  0  0  0  0  0  0
    8.8029   -9.6031  -19.5190 C   0  0  0  0  0  0  0  0  0  0  0  0
    8.6444   -8.5207  -18.9666 O   0  0  0  0  0  0  0  0  0  0  0  0
    8.7069   -9.6379  -20.7525 O   0  0  0  0  0  0  0  0  0  0  0  0
    8.1404  -12.0014  -19.0098 C   0  0  0  0  0  0  0  0  0  0  0  0
    7.6424  -12.8585  -17.8166 C   0  0  0  0  0  0  0  0  0  0  0  0
    6.4970  -14.2670  -18.1450 S   0  0  2  0  0  0  0  0  0  0  0  0
    6.0939  -14.0028  -19.8849 C   0  0  0  0  0  0  0  0  0  0  0  0
    4.9448  -13.7372  -17.3888 C   0  0  0  0  0  0  0  0  0  0  0  0
    4.9498  -14.0882  -15.9069 C   0  0  1  0  0  0  0  0  0  0  0  0
    4.8566  -15.4858  -15.6760 O   0  0  0  0  0  0  0  0  0  0  0  0
    6.2232  -13.6918  -15.2092 C   0  0  1  0  0  0  0  0  0  0  0  0
    6.2140  -12.3211  -14.9317 O   0  0  0  0  0  0  0  0  0  0  0  0
    6.1385  -14.5498  -13.9663 C   0  0  1  0  0  0  0  0  0  0  0  0
    5.3131  -13.9294  -13.0015 O   0  0  0  0  0  0  0  0  0  0  0  0
    5.4646  -15.8312  -14.4441 C   0  0  2  0  0  0  0  0  0  0  0  0
    6.3697  -17.0045  -14.5871 N   0  0  0  0  0  0  0  0  0  0  0  0
    7.0592  -17.3402  -15.7251 C   0  0  0  0  0  0  0  0  0  0  0  0
    7.7796  -18.4604  -15.4932 N   0  0  0  0  0  0  0  0  0  0  0  0
    7.5746  -18.8487  -14.2239 C   0  0  0  0  0  0  0  0  0  0  0  0
    8.0712  -19.9110  -13.4840 C   0  0  0  0  0  0  0  0  0  0  0  0
    8.9201  -20.7704  -14.0321 N   0  0  0  0  0  0  0  0  0  0  0  0
    7.6763  -20.0589  -12.1691 N   0  0  0  0  0  0  0  0  0  0  0  0
    6.7956  -19.1609  -11.5795 C   0  0  0  0  0  0  0  0  0  0  0  0
    6.3163  -18.1065  -12.3298 N   0  0  0  0  0  0  0  0  0  0  0  0
    6.6896  -17.9499  -13.6334 C   0  0  0  0  0  0  0  0  0  0  0  0
  2  3  1  6  0  0  0
  2  6  1  0  0  0  0
  2  1  1  0  0  0  0
  4  3  2  0  0  0  0
  5  3  1  0  0  0  0
  6  7  2  0  0  0  0
  8  7  1  1  0  0  0
  8  9  1  0  0  0  0
  8 10  1  0  0  0  0
 11 10  1  6  0  0  0
 11 13  1  0  0  0  0
 12 11  1  0  0  0  0
 12 17  1  0  0  0  0
 13 14  1  1  0  0  0
 13 15  1  0  0  0  0
 15 16  1  1  0  0  0
 17 18  1  6  0  0  0
 17 15  1  0  0  0  0
 18 19  1  0  0  0  0
 20 19  2  0  0  0  0
 21 27  2  0  0  0  0
 21 20  1  0  0  0  0
 22 21  1  0  0  0  0
 23 22  1  0  0  0  0
 24 22  2  0  0  0  0
 24 25  1  0  0  0  0
 25 26  2  0  0  0  0
 26 27  1  0  0  0  0
 27 18  1  0  0  0  0
M  END
>  <CHROM.1>
1.50781549,-16.77599133,-9.18838853,-85.07588133,-70.22347048,29.57969723
6.99459327,-14.80973729,-15.99556411,1.41571592,0.91838819,-0.48417255

>  <Name>
lig.pdb

>  <RI>
0

>  <Rbt.Current_Directory>
/home/itssahil/PROJECTS/Mol_Feturizer/New_Systems/rnas/4b5r

>  <Rbt.Executable>
rbdock ($Id: //depot/dev/client3/rdock/2013.1/src/exe/rbdock.cxx#4 $)

>  <Rbt.Library>
libRbt.so (2013.1, Build901 2013/11/27)

>  <Rbt.Parameter_File>
/export/apps/rDock/src/rDock_2013.1_src/data/scripts/dock_solv.prm

>  <Rbt.Receptor>
prm/blind_docking_100.prm

>  <SCORE>
-11.6887

>  <SCORE.INTER>
-12.8362

>  <SCORE.INTER.CONST>
1

>  <SCORE.INTER.POLAR>
0

>  <SCORE.INTER.ROT>
6

>  <SCORE.INTER.SOLV>
15.7011

>  <SCORE.INTER.VDW>
-21.3912

>  <SCORE.INTER.norm>
-0.475417

>  <SCORE.INTRA>
1.14758

>  <SCORE.INTRA.DIHEDRAL>
-1.40755

>  <SCORE.INTRA.DIHEDRAL.0>
10.2917

>  <SCORE.INTRA.POLAR>
0

>  <SCORE.INTRA.POLAR.0>
0

>  <SCORE.INTRA.REPUL>
0

>  <SCORE.INTRA.REPUL.0>
0

>  <SCORE.INTRA.SOLV>
-2.15167

>  <SCORE.INTRA.SOLV.lig_0>
-39.6315

>  <SCORE.INTRA.VDW>
2.92719

>  <SCORE.INTRA.VDW.0>
-4.02152

>  <SCORE.INTRA.norm>
0.0425029

>  <SCORE.RESTR>
0

>  <SCORE.RESTR.CAVITY>
0

>  <SCORE.RESTR.norm>
0

>  <SCORE.SYSTEM>
0

>  <SCORE.SYSTEM.CONST>
0

>  <SCORE.SYSTEM.DIHEDRAL>
0

>  <SCORE.SYSTEM.SOLV>
0

>  <SCORE.SYSTEM.norm>
0

>  <SCORE.heavy>
27

>  <SCORE.norm>
-0.432914

>  <RMSD>
9.075

$$$$
lig.pdb
 OpenBabel11021811493D
libRbt.so/2013.1/901 2013/11/27
 27 29  0  0  0  0  0  0  0  0999 V2000
    4.1294   -7.1158  -17.3542 N   0  0  0  0  0  0  0  0  0  0  0  0
    3.9223   -8.2524  -18.3025 C   0  0  2  0  0  0  0  0  0  0  0  0
    2.4295   -8.5507  -18.4061 C   0  0  0  0  0  0  0  0  0  0  0  0
    1.8434   -8.3420  -19.4619 O   0  0  0  0  0  0  0  0  0  0  0  0
    1.7674   -8.9956  -17.4598 O   0  0  0  0  0  0  0  0  0  0  0  0
    4.7337   -9.5138  -17.9441 C   0  0  0  0  0  0  0  0  0  0  0  0
    5.6507  -10.0925  -19.0535 C   0  0  0  0  0  0  0  0  0  0  0  0
    6.6440  -11.6046  -18.6927 S   0  0  2  0  0  0  0  0  0  0  0  0
    6.5714  -12.4675  -20.2768 C   0  0  0  0  0  0  0  0  0  0  0  0
    5.5142  -12.6356  -17.7322 C   0  0  0  0  0  0  0  0  0  0  0  0
    6.1949  -13.9513  -17.3786 C   0  0  1  0  0  0  0  0  0  0  0  0
    7.2979  -13.7776  -16.5020 O   0  0  0  0  0  0  0  0  0  0  0  0
    5.2937  -14.9038  -16.6397 C   0  0  1  0  0  0  0  0  0  0  0  0
    4.4271  -15.5395  -17.5346 O   0  0  0  0  0  0  0  0  0  0  0  0
    6.3153  -15.8414  -16.0351 C   0  0  1  0  0  0  0  0  0  0  0  0
    6.7084  -16.8113  -16.9848 O   0  0  0  0  0  0  0  0  0  0  0  0
    7.5066  -14.9425  -15.7234 C   0  0  2  0  0  0  0  0  0  0  0  0
    7.6903  -14.6156  -14.2827 N   0  0  0  0  0  0  0  0  0  0  0  0
    8.7641  -14.9907  -13.5150 C   0  0  0  0  0  0  0  0  0  0  0  0
    8.5971  -14.5207  -12.2586 N   0  0  0  0  0  0  0  0  0  0  0  0
    7.4396  -13.8417  -12.2035 C   0  0  0  0  0  0  0  0  0  0  0  0
    6.8077  -13.1617  -11.1735 C   0  0  0  0  0  0  0  0  0  0  0  0
    7.3622  -13.1034   -9.9699 N   0  0  0  0  0  0  0  0  0  0  0  0
    5.5985  -12.5415  -11.4181 N   0  0  0  0  0  0  0  0  0  0  0  0
    5.0111  -12.5862  -12.6762 C   0  0  0  0  0  0  0  0  0  0  0  0
    5.6576  -13.2629  -13.6904 N   0  0  0  0  0  0  0  0  0  0  0  0
    6.8493  -13.8887  -13.4641 C   0  0  0  0  0  0  0  0  0  0  0  0
  2  3  1  1  0  0  0
  2  6  1  0  0  0  0
  2  1  1  0  0  0  0
  4  3  2  0  0  0  0
  5  3  1  0  0  0  0
  6  7  2  0  0  0  0
  8  7  1  6  0  0  0
  8  9  1  0  0  0  0
  8 10  1  0  0  0  0
 11 10  1  1  0  0  0
 11 13  1  0  0  0  0
 12 11  1  0  0  0  0
 12 17  1  0  0  0  0
 13 14  1  6  0  0  0
 13 15  1  0  0  0  0
 15 16  1  6  0  0  0
 17 18  1  1  0  0  0
 17 15  1  0  0  0  0
 18 19  1  0  0  0  0
 20 19  2  0  0  0  0
 21 27  2  0  0  0  0
 21 20  1  0  0  0  0
 22 21  1  0  0  0  0
 23 22  1  0  0  0  0
 24 22  2  0  0  0  0
 24 25  1  0  0  0  0
 25 26  2  0  0  0  0
 26 27  1  0  0  0  0
 27 18  1  0  0  0  0
M  END
>  <CHROM.1>
113.05923522,-125.48559200,143.11875541,178.88654368,65.72937400,-124.90358528
5.80542960,-12.54413892,-16.00242551,2.60069370,1.06469949,-1.79922796

>  <Name>
lig.pdb

>  <RI>
0

>  <Rbt.Current_Directory>
/home/itssahil/PROJECTS/Mol_Feturizer/New_Systems/rnas/4b5r

>  <Rbt.Executable>
rbdock ($Id: //depot/dev/client3/rdock/2013.1/src/exe/rbdock.cxx#4 $)

>  <Rbt.Library>
libRbt.so (2013.1, Build901 2013/11/27)

>  <Rbt.Parameter_File>
/export/apps/rDock/src/rDock_2013.1_src/data/scripts/dock_solv.prm

>  <Rbt.Receptor>
prm/blind_docking_40.prm

>  <SCORE>
-11.9918

>  <SCORE.INTER>
-9.99188

>  <SCORE.INTER.CONST>
1

>  <SCORE.INTER.POLAR>
0

>  <SCORE.INTER.ROT>
6

>  <SCORE.INTER.SOLV>
14.7776

>  <SCORE.INTER.VDW>
-19.1871

>  <SCORE.INTER.norm>
-0.37007

>  <SCORE.INTRA>
-1.99991

>  <SCORE.INTRA.DIHEDRAL>
-3.22709

>  <SCORE.INTRA.DIHEDRAL.0>
10.2917

>  <SCORE.INTRA.POLAR>
0

>  <SCORE.INTRA.POLAR.0>
0

>  <SCORE.INTRA.REPUL>
0

>  <SCORE.INTRA.REPUL.0>
0

>  <SCORE.INTRA.SOLV>
-2.88308

>  <SCORE.INTRA.SOLV.lig_0>
-39.6315

>  <SCORE.INTRA.VDW>
1.05517

>  <SCORE.INTRA.VDW.0>
-4.02152

>  <SCORE.INTRA.norm>
-0.0740708

>  <SCORE.RESTR>
0

>  <SCORE.RESTR.CAVITY>
0

>  <SCORE.RESTR.norm>
0

>  <SCORE.SYSTEM>
0

>  <SCORE.SYSTEM.CONST>
0

>  <SCORE.SYSTEM.DIHEDRAL>
0

>  <SCORE.SYSTEM.SOLV>
0

>  <SCORE.SYSTEM.norm>
0

>  <SCORE.heavy>
27

>  <SCORE.norm>
-0.44414

>  <RMSD>
9.083

$$$$
lig.pdb
 OpenBabel11021811493D
libRbt.so/2013.1/901 2013/11/27
 27 29  0  0  0  0  0  0  0  0999 V2000
    5.2006   -7.9541  -16.7540 N   0  0  0  0  0  0  0  0  0  0  0  0
    4.7073   -8.5785  -18.0192 C   0  0  2  0  0  0  0  0  0  0  0  0
    3.2548   -8.1693  -18.2449 C   0  0  0  0  0  0  0  0  0  0  0  0
    2.4159   -8.4206  -17.3876 O   0  0  0  0  0  0  0  0  0  0  0  0
    2.8727   -7.5909  -19.2702 O   0  0  0  0  0  0  0  0  0  0  0  0
    4.8832  -10.1099  -18.0639 C   0  0  0  0  0  0  0  0  0  0  0  0
    5.3251  -10.8004  -16.7469 C   0  0  0  0  0  0  0  0  0  0  0  0
    5.5604  -12.6302  -16.7331 S   0  0  2  0  0  0  0  0  0  0  0  0
    6.8311  -12.8185  -15.4645 C   0  0  0  0  0  0  0  0  0  0  0  0
    6.5543  -12.9416  -18.2085 C   0  0  0  0  0  0  0  0  0  0  0  0
    6.7586  -14.4407  -18.3828 C   0  0  1  0  0  0  0  0  0  0  0  0
    7.4157  -15.0352  -17.2737 O   0  0  0  0  0  0  0  0  0  0  0  0
    5.4666  -15.2055  -18.4885 C   0  0  1  0  0  0  0  0  0  0  0  0
    4.9373  -15.0813  -19.7771 O   0  0  0  0  0  0  0  0  0  0  0  0
    5.9456  -16.6059  -18.1760 C   0  0  1  0  0  0  0  0  0  0  0  0
    6.4957  -17.2022  -19.3330 O   0  0  0  0  0  0  0  0  0  0  0  0
    7.0547  -16.3994  -17.1505 C   0  0  2  0  0  0  0  0  0  0  0  0
    6.6916  -16.7481  -15.7495 N   0  0  0  0  0  0  0  0  0  0  0  0
    7.4257  -17.5552  -14.9173 C   0  0  0  0  0  0  0  0  0  0  0  0
    6.7979  -17.6502  -13.7239 N   0  0  0  0  0  0  0  0  0  0  0  0
    5.6766  -16.9121  -13.7677 C   0  0  0  0  0  0  0  0  0  0  0  0
    4.6908  -16.6605  -12.8256 C   0  0  0  0  0  0  0  0  0  0  0  0
    4.7682  -17.1973  -11.6150 N   0  0  0  0  0  0  0  0  0  0  0  0
    3.6323  -15.8398  -13.1612 N   0  0  0  0  0  0  0  0  0  0  0  0
    3.5435  -15.2632  -14.4219 C   0  0  0  0  0  0  0  0  0  0  0  0
    4.5371  -15.5205  -15.3445 N   0  0  0  0  0  0  0  0  0  0  0  0
    5.5862  -16.3360  -15.0324 C   0  0  0  0  0  0  0  0  0  0  0  0
  2  3  1  1  0  0  0
  2  6  1  0  0  0  0
  2  1  1  0  0  0  0
  4  3  2  0  0  0  0
  5  3  1  0  0  0  0
  6  7  2  0  0  0  0
  8  7  1  6  0  0  0
  8  9  1  0  0  0  0
  8 10  1  0  0  0  0
 11 10  1  1  0  0  0
 11 13  1  0  0  0  0
 12 11  1  0  0  0  0
 12 17  1  0  0  0  0
 13 14  1  6  0  0  0
 13 15  1  0  0  0  0
 15 16  1  6  0  0  0
 17 18  1  1  0  0  0
 17 15  1  0  0  0  0
 18 19  1  0  0  0  0
 20 19  2  0  0  0  0
 21 27  2  0  0  0  0
 21 20  1  0  0  0  0
 22 21  1  0  0  0  0
 23 22  1  0  0  0  0
 24 22  2  0  0  0  0
 24 25  1  0  0  0  0
 25 26  2  0  0  0  0
 26 27  1  0  0  0  0
 27 18  1  0  0  0  0
M  END
>  <CHROM.1>
-57.46800892,9.14332087,150.62754899,-176.38729399,-59.49969466,-110.79741118
5.37485643,-13.80773793,-16.52581561,2.07352576,1.11985777,-0.83315616

>  <Name>
lig.pdb

>  <RI>
0

>  <Rbt.Current_Directory>
/home/itssahil/PROJECTS/Mol_Feturizer/New_Systems/rnas/4b5r

>  <Rbt.Executable>
rbdock ($Id: //depot/dev/client3/rdock/2013.1/src/exe/rbdock.cxx#4 $)

>  <Rbt.Library>
libRbt.so (2013.1, Build901 2013/11/27)

>  <Rbt.Parameter_File>
/export/apps/rDock/src/rDock_2013.1_src/data/scripts/dock_solv.prm

>  <Rbt.Receptor>
prm/blind_docking_40.prm

>  <SCORE>
-11.1283

>  <SCORE.INTER>
-9.55482

>  <SCORE.INTER.CONST>
1

>  <SCORE.INTER.POLAR>
0

>  <SCORE.INTER.ROT>
6

>  <SCORE.INTER.SOLV>
13.8712

>  <SCORE.INTER.VDW>
-18.5936

>  <SCORE.INTER.norm>
-0.353882

>  <SCORE.INTRA>
-1.57349

>  <SCORE.INTRA.DIHEDRAL>
-2.91722

>  <SCORE.INTRA.DIHEDRAL.0>
10.2917

>  <SCORE.INTRA.POLAR>
0

>  <SCORE.INTRA.POLAR.0>
0

>  <SCORE.INTRA.REPUL>
0

>  <SCORE.INTRA.REPUL.0>
0

>  <SCORE.INTRA.SOLV>
-1.26813

>  <SCORE.INTRA.SOLV.lig_0>
-39.6315

>  <SCORE.INTRA.VDW>
0.519187

>  <SCORE.INTRA.VDW.0>
-4.02152

>  <SCORE.INTRA.norm>
-0.0582774

>  <SCORE.RESTR>
0

>  <SCORE.RESTR.CAVITY>
0

>  <SCORE.RESTR.norm>
0

>  <SCORE.SYSTEM>
0

>  <SCORE.SYSTEM.CONST>
0

>  <SCORE.SYSTEM.DIHEDRAL>
0

>  <SCORE.SYSTEM.SOLV>
0

>  <SCORE.SYSTEM.norm>
0

>  <SCORE.heavy>
27

>  <SCORE.norm>
-0.41216

>  <RMSD>
9.230

$$$$
lig.pdb
 OpenBabel11021811493D
libRbt.so/2013.1/901 2013/11/27
 27 29  0  0  0  0  0  0  0  0999 V2000
    1.6685  -13.7221   -8.4129 N   0  0  0  0  0  0  0  0  0  0  0  0
    0.8599  -14.3999   -9.4715 C   0  0  2  0  0  0  0  0  0  0  0  0
   -0.1747  -15.3038   -8.8076 C   0  0  0  0  0  0  0  0  0  0  0  0
   -0.7758  -16.1316   -9.4822 O   0  0  0  0  0  0  0  0  0  0  0  0
   -0.4466  -15.2388   -7.6019 O   0  0  0  0  0  0  0  0  0  0  0  0
    1.7101  -15.1669  -10.5044 C   0  0  0  0  0  0  0  0  0  0  0  0
    1.5064  -14.7888  -11.9950 C   0  0  0  0  0  0  0  0  0  0  0  0
    2.4877  -15.6729  -13.2830 S   0  0  2  0  0  0  0  0  0  0  0  0
    2.7986  -17.2561  -12.4727 C   0  0  0  0  0  0  0  0  0  0  0  0
    4.1299  -14.9336  -13.1474 C   0  0  0  0  0  0  0  0  0  0  0  0
    5.0871  -15.6303  -14.1054 C   0  0  1  0  0  0  0  0  0  0  0  0
    4.6981  -15.4917  -15.4636 O   0  0  0  0  0  0  0  0  0  0  0  0
    6.4796  -15.0601  -14.0694 C   0  0  1  0  0  0  0  0  0  0  0  0
    7.1701  -15.5449  -12.9540 O   0  0  0  0  0  0  0  0  0  0  0  0
    7.0278  -15.5809  -15.3795 C   0  0  1  0  0  0  0  0  0  0  0  0
    7.4744  -16.9127  -15.2256 O   0  0  0  0  0  0  0  0  0  0  0  0
    5.8259  -15.5669  -16.3174 C   0  0  2  0  0  0  0  0  0  0  0  0
    5.8259  -14.4726  -17.3266 N   0  0  0  0  0  0  0  0  0  0  0  0
    5.3418  -13.2050  -17.1220 C   0  0  0  0  0  0  0  0  0  0  0  0
    5.5049  -12.4800  -18.2513 N   0  0  0  0  0  0  0  0  0  0  0  0
    6.0933  -13.2538  -19.1781 C   0  0  0  0  0  0  0  0  0  0  0  0
    6.4883  -13.0049  -20.4837 C   0  0  0  0  0  0  0  0  0  0  0  0
    6.2999  -11.8082  -21.0241 N   0  0  0  0  0  0  0  0  0  0  0  0
    7.0851  -14.0156  -21.2111 N   0  0  0  0  0  0  0  0  0  0  0  0
    7.2973  -15.2706  -20.6547 C   0  0  0  0  0  0  0  0  0  0  0  0
    6.9028  -15.4979  -19.3519 N   0  0  0  0  0  0  0  0  0  0  0  0
    6.3038  -14.5128  -18.6212 C   0  0  0  0  0  0  0  0  0  0  0  0
  2  3  1  1  0  0  0
  2  6  1  0  0  0  0
  2  1  1  0  0  0  0
  4  3  2  0  0  0  0
  5  3  1  0  0  0  0
  6  7  2  0  0  0  0
  8  7  1  1  0  0  0
  8  9  1  0  0  0  0
  8 10  1  0  0  0  0
 11 10  1  1  0  0  0
 11 13  1  0  0  0  0
 12 11  1  0  0  0  0
 12 17  1  0  0  0  0
 13 14  1  1  0  0  0
 13 15  1  0  0  0  0
 15 16  1  1  0  0  0
 17 18  1  6  0  0  0
 17 15  1  0  0  0  0
 18 19  1  0  0  0  0
 20 19  2  0  0  0  0
 21 27  2  0  0  0  0
 21 20  1  0  0  0  0
 22 21  1  0  0  0  0
 23 22  1  0  0  0  0
 24 22  2  0  0  0  0
 24 25  1  0  0  0  0
 25 26  2  0  0  0  0
 26 27  1  0  0  0  0
 27 18  1  0  0  0  0
M  END
>  <CHROM.1>
-166.77753440,-124.25606944,27.05748065,176.57971479,61.78784465,33.35248077
4.34506047,-14.89786794,-14.70776832,2.20182449,-0.52159668,2.04738042

>  <Name>
lig.pdb

>  <RI>
0

>  <Rbt.Current_Directory>
/home/itssahil/PROJECTS/Mol_Feturizer/New_Systems/rnas/4b5r

>  <Rbt.Executable>
rbdock ($Id: //depot/dev/client3/rdock/2013.1/src/exe/rbdock.cxx#4 $)

>  <Rbt.Library>
libRbt.so (2013.1, Build901 2013/11/27)

>  <Rbt.Parameter_File>
/export/apps/rDock/src/rDock_2013.1_src/data/scripts/dock_solv.prm

>  <Rbt.Receptor>
prm/blind_docking_40.prm

>  <SCORE>
-15.6129

>  <SCORE.INTER>
-15.4772

>  <SCORE.INTER.CONST>
1

>  <SCORE.INTER.POLAR>
0

>  <SCORE.INTER.ROT>
6

>  <SCORE.INTER.SOLV>
14.2604

>  <SCORE.INTER.VDW>
-22.6716

>  <SCORE.INTER.norm>
-0.57323

>  <SCORE.INTRA>
-0.135632

>  <SCORE.INTRA.DIHEDRAL>
-1.90255

>  <SCORE.INTRA.DIHEDRAL.0>
10.2917

>  <SCORE.INTRA.POLAR>
0

>  <SCORE.INTRA.POLAR.0>
0

>  <SCORE.INTRA.REPUL>
0

>  <SCORE.INTRA.REPUL.0>
0

>  <SCORE.INTRA.SOLV>
-3.343

>  <SCORE.INTRA.SOLV.lig_0>
-39.6315

>  <SCORE.INTRA.VDW>
2.48714

>  <SCORE.INTRA.VDW.0>
-4.02152

>  <SCORE.INTRA.norm>
-0.00502342

>  <SCORE.RESTR>
0

>  <SCORE.RESTR.CAVITY>
0

>  <SCORE.RESTR.norm>
0

>  <SCORE.SYSTEM>
0

>  <SCORE.SYSTEM.CONST>
0

>  <SCORE.SYSTEM.DIHEDRAL>
0

>  <SCORE.SYSTEM.SOLV>
0

>  <SCORE.SYSTEM.norm>
0

>  <SCORE.heavy>
27

>  <SCORE.norm>
-0.578254

>  <RMSD>
9.244

$$$$
lig.pdb
 OpenBabel11021811493D
libRbt.so/2013.1/901 2013/11/27
 27 29  0  0  0  0  0  0  0  0999 V2000
    9.1871   -4.3709  -16.5968 N   0  0  0  0  0  0  0  0  0  0  0  0
    9.1364   -5.4354  -17.6447 C   0  0  2  0  0  0  0  0  0  0  0  0
    7.8380   -5.2977  -18.4341 C   0  0  0  0  0  0  0  0  0  0  0  0
    7.0475   -4.4065  -18.1467 O   0  0  0  0  0  0  0  0  0  0  0  0
    7.5344   -6.0570  -19.3632 O   0  0  0  0  0  0  0  0  0  0  0  0
    9.3183   -6.8619  -17.0879 C   0  0  0  0  0  0  0  0  0  0  0  0
    8.0373   -7.7260  -16.9502 C   0  0  0  0  0  0  0  0  0  0  0  0
    8.1836   -9.4403  -16.2844 S   0  0  2  0  0  0  0  0  0  0  0  0
    9.3212  -10.1892  -17.4695 C   0  0  0  0  0  0  0  0  0  0  0  0
    6.6431  -10.2291  -16.8006 C   0  0  0  0  0  0  0  0  0  0  0  0
    6.7464  -11.7356  -16.6024 C   0  0  1  0  0  0  0  0  0  0  0  0
    6.8108  -12.1034  -15.2327 O   0  0  0  0  0  0  0  0  0  0  0  0
    5.5477  -12.4841  -17.1205 C   0  0  1  0  0  0  0  0  0  0  0  0
    5.6257  -12.6153  -18.5107 O   0  0  0  0  0  0  0  0  0  0  0  0
    5.7038  -13.7997  -16.3904 C   0  0  1  0  0  0  0  0  0  0  0  0
    6.6252  -14.6278  -17.0703 O   0  0  0  0  0  0  0  0  0  0  0  0
    6.2932  -13.4078  -15.0400 C   0  0  2  0  0  0  0  0  0  0  0  0
    5.3405  -13.4585  -13.8972 N   0  0  0  0  0  0  0  0  0  0  0  0
    5.3783  -12.6403  -12.7963 C   0  0  0  0  0  0  0  0  0  0  0  0
    4.3638  -12.9677  -11.9650 N   0  0  0  0  0  0  0  0  0  0  0  0
    3.6667  -13.9763  -12.5134 C   0  0  0  0  0  0  0  0  0  0  0  0
    2.5441  -14.6705  -12.0886 C   0  0  0  0  0  0  0  0  0  0  0  0
    1.9627  -14.3636  -10.9365 N   0  0  0  0  0  0  0  0  0  0  0  0
    2.0362  -15.6799  -12.8822 N   0  0  0  0  0  0  0  0  0  0  0  0
    2.6292  -16.0055  -14.0955 C   0  0  0  0  0  0  0  0  0  0  0  0
    3.7423  -15.2996  -14.5045 N   0  0  0  0  0  0  0  0  0  0  0  0
    4.2626  -14.3044  -13.7286 C   0  0  0  0  0  0  0  0  0  0  0  0
  2  3  1  1  0  0  0
  2  6  1  0  0  0  0
  2  1  1  0  0  0  0
  4  3  2  0  0  0  0
  5  3  1  0  0  0  0
  6  7  2  0  0  0  0
  8  7  1  6  0  0  0
  8  9  1  0  0  0  0
  8 10  1  0  0  0  0
 11 10  1  1  0  0  0
 11 13  1  0  0  0  0
 12 11  1  0  0  0  0
 12 17  1  0  0  0  0
 13 14  1  6  0  0  0
 13 15  1  0  0  0  0
 15 16  1  6  0  0  0
 17 18  1  1  0  0  0
 17 15  1  0  0  0  0
 18 19  1  0  0  0  0
 20 19  2  0  0  0  0
 21 27  2  0  0  0  0
 21 20  1  0  0  0  0
 22 21  1  0  0  0  0
 23 22  1  0  0  0  0
 24 22  2  0  0  0  0
 24 25  1  0  0  0  0
 25 26  2  0  0  0  0
 26 27  1  0  0  0  0
 27 18  1  0  0  0  0
M  END
>  <CHROM.1>
-0.01768652,102.84134783,-58.84644934,167.17518311,67.60840744,-28.93799302
6.12831697,-11.13138054,-15.67215589,0.57952137,1.00440620,0.42644861

>  <Name>
lig.pdb

>  <RI>
0

>  <Rbt.Current_Directory>
/home/itssahil/PROJECTS/Mol_Feturizer/New_Systems/rnas/4b5r

>  <Rbt.Executable>
rbdock ($Id: //depot/dev/client3/rdock/2013.1/src/exe/rbdock.cxx#4 $)

>  <Rbt.Library>
libRbt.so (2013.1, Build901 2013/11/27)

>  <Rbt.Parameter_File>
/export/apps/rDock/src/rDock_2013.1_src/data/scripts/dock_solv.prm

>  <Rbt.Receptor>
prm/blind_docking_80.prm

>  <SCORE>
-14.1018

>  <SCORE.INTER>
-14.1537

>  <SCORE.INTER.CONST>
1

>  <SCORE.INTER.POLAR>
0

>  <SCORE.INTER.ROT>
6

>  <SCORE.INTER.SOLV>
15.4445

>  <SCORE.INTER.VDW>
-22.1839

>  <SCORE.INTER.norm>
-0.52421

>  <SCORE.INTRA>
0.0518307

>  <SCORE.INTRA.DIHEDRAL>
-2.56466

>  <SCORE.INTRA.DIHEDRAL.0>
10.2917

>  <SCORE.INTRA.POLAR>
0

>  <SCORE.INTRA.POLAR.0>
0

>  <SCORE.INTRA.REPUL>
0

>  <SCORE.INTRA.REPUL.0>
0

>  <SCORE.INTRA.SOLV>
-2.83872

>  <SCORE.INTRA.SOLV.lig_0>
-39.6315

>  <SCORE.INTRA.VDW>
2.75352

>  <SCORE.INTRA.VDW.0>
-4.02152

>  <SCORE.INTRA.norm>
0.00191965

>  <SCORE.RESTR>
0

>  <SCORE.RESTR.CAVITY>
0

>  <SCORE.RESTR.norm>
0

>  <SCORE.SYSTEM>
0

>  <SCORE.SYSTEM.CONST>
0

>  <SCORE.SYSTEM.DIHEDRAL>
0

>  <SCORE.SYSTEM.SOLV>
0

>  <SCORE.SYSTEM.norm>
0

>  <SCORE.heavy>
27

>  <SCORE.norm>
-0.52229

>  <RMSD>
9.270

$$$$
lig.pdb
 OpenBabel11021811493D
libRbt.so/2013.1/901 2013/11/27
 27 29  0  0  0  0  0  0  0  0999 V2000
    2.4562   -7.6641  -20.9471 N   0  0  0  0  0  0  0  0  0  0  0  0
    2.7572   -6.4679  -20.1030 C   0  0  2  0  0  0  0  0  0  0  0  0
    3.5887   -5.4797  -20.9155 C   0  0  0  0  0  0  0  0  0  0  0  0
    3.3047   -4.2879  -20.8917 O   0  0  0  0  0  0  0  0  0  0  0  0
    4.5494   -5.8273  -21.6141 O   0  0  0  0  0  0  0  0  0  0  0  0
    3.4304   -6.8117  -18.7590 C   0  0  0  0  0  0  0  0  0  0  0  0
    3.7043   -8.3129  -18.4793 C   0  0  0  0  0  0  0  0  0  0  0  0
    4.5016   -8.7938  -16.8867 S   0  0  2  0  0  0  0  0  0  0  0  0
    5.8923   -7.6444  -16.8206 C   0  0  0  0  0  0  0  0  0  0  0  0
    5.3834  -10.3158  -17.2959 C   0  0  0  0  0  0  0  0  0  0  0  0
    6.3376  -10.6761  -16.1649 C   0  0  1  0  0  0  0  0  0  0  0  0
    5.6920  -10.7306  -14.9017 O   0  0  0  0  0  0  0  0  0  0  0  0
    6.9466  -12.0440  -16.3177 C   0  0  1  0  0  0  0  0  0  0  0  0
    7.9903  -12.0056  -17.2478 O   0  0  0  0  0  0  0  0  0  0  0  0
    7.4205  -12.2975  -14.9037 C   0  0  1  0  0  0  0  0  0  0  0  0
    8.6680  -11.6696  -14.6881 O   0  0  0  0  0  0  0  0  0  0  0  0
    6.3685  -11.6208  -14.0320 C   0  0  2  0  0  0  0  0  0  0  0  0
    5.4239  -12.5472  -13.3494 N   0  0  0  0  0  0  0  0  0  0  0  0
    4.9435  -12.3918  -12.0735 C   0  0  0  0  0  0  0  0  0  0  0  0
    4.1114  -13.4172  -11.7846 N   0  0  0  0  0  0  0  0  0  0  0  0
    4.0391  -14.2269  -12.8539 C   0  0  0  0  0  0  0  0  0  0  0  0
    3.3324  -15.3964  -13.0894 C   0  0  0  0  0  0  0  0  0  0  0  0
    2.5440  -15.9034  -12.1509 N   0  0  0  0  0  0  0  0  0  0  0  0
    3.4550  -16.0223  -14.3142 N   0  0  0  0  0  0  0  0  0  0  0  0
    4.2695  -15.4973  -15.3095 C   0  0  0  0  0  0  0  0  0  0  0  0
    4.9606  -14.3293  -15.0588 N   0  0  0  0  0  0  0  0  0  0  0  0
    4.8576  -13.7021  -13.8509 C   0  0  0  0  0  0  0  0  0  0  0  0
  2  3  1  6  0  0  0
  2  6  1  0  0  0  0
  2  1  1  0  0  0  0
  4  3  2  0  0  0  0
  5  3  1  0  0  0  0
  6  7  2  0  0  0  0
  8  7  1  6  0  0  0
  8  9  1  0  0  0  0
  8 10  1  0  0  0  0
 11 10  1  6  0  0  0
 11 13  1  0  0  0  0
 12 11  1  0  0  0  0
 12 17  1  0  0  0  0
 13 14  1  6  0  0  0
 13 15  1  0  0  0  0
 15 16  1  6  0  0  0
 17 18  1  6  0  0  0
 17 15  1  0  0  0  0
 18 19  1  0  0  0  0
 20 19  2  0  0  0  0
 21 27  2  0  0  0  0
 21 20  1  0  0  0  0
 22 21  1  0  0  0  0
 23 22  1  0  0  0  0
 24 22  2  0  0  0  0
 24 25  1  0  0  0  0
 25 26  2  0  0  0  0
 26 27  1  0  0  0  0
 27 18  1  0  0  0  0
M  END
>  <CHROM.1>
135.00060113,0.39534879,-48.38573203,167.75934016,53.15605233,-99.02345762
4.87820484,-10.78543738,-16.20294133,1.66023372,-0.16977986,-0.68371134

>  <Name>
lig.pdb

>  <RI>
0

>  <Rbt.Current_Directory>
/home/itssahil/PROJECTS/Mol_Feturizer/New_Systems/rnas/4b5r

>  <Rbt.Executable>
rbdock ($Id: //depot/dev/client3/rdock/2013.1/src/exe/rbdock.cxx#4 $)

>  <Rbt.Library>
libRbt.so (2013.1, Build901 2013/11/27)

>  <Rbt.Parameter_File>
/export/apps/rDock/src/rDock_2013.1_src/data/scripts/dock_solv.prm

>  <Rbt.Receptor>
prm/blind_docking_80.prm

>  <SCORE>
-13.139

>  <SCORE.INTER>
-12.3067

>  <SCORE.INTER.CONST>
1

>  <SCORE.INTER.POLAR>
0

>  <SCORE.INTER.ROT>
6

>  <SCORE.INTER.SOLV>
10.006

>  <SCORE.INTER.VDW>
-19.1398

>  <SCORE.INTER.norm>
-0.455804

>  <SCORE.INTRA>
-0.832325

>  <SCORE.INTRA.DIHEDRAL>
-3.22094

>  <SCORE.INTRA.DIHEDRAL.0>
10.2917

>  <SCORE.INTRA.POLAR>
0

>  <SCORE.INTRA.POLAR.0>
0

>  <SCORE.INTRA.REPUL>
0

>  <SCORE.INTRA.REPUL.0>
0

>  <SCORE.INTRA.SOLV>
-2.34777

>  <SCORE.INTRA.SOLV.lig_0>
-39.6315

>  <SCORE.INTRA.VDW>
1.95203

>  <SCORE.INTRA.VDW.0>
-4.02152

>  <SCORE.INTRA.norm>
-0.0308268

>  <SCORE.RESTR>
0

>  <SCORE.RESTR.CAVITY>
0

>  <SCORE.RESTR.norm>
0

>  <SCORE.SYSTEM>
0

>  <SCORE.SYSTEM.CONST>
0

>  <SCORE.SYSTEM.DIHEDRAL>
0

>  <SCORE.SYSTEM.SOLV>
0

>  <SCORE.SYSTEM.norm>
0

>  <SCORE.heavy>
27

>  <SCORE.norm>
-0.486631

>  <RMSD>
9.272

$$$$
lig.pdb
 OpenBabel11021811493D
libRbt.so/2013.1/901 2013/11/27
 27 29  0  0  0  0  0  0  0  0999 V2000
    8.8288  -13.5674  -13.5414 N   0  0  0  0  0  0  0  0  0  0  0  0
    8.4057  -12.3002  -14.2116 C   0  0  2  0  0  0  0  0  0  0  0  0
    7.1179  -11.7990  -13.5647 C   0  0  0  0  0  0  0  0  0  0  0  0
    6.0697  -11.8341  -14.1986 O   0  0  0  0  0  0  0  0  0  0  0  0
    7.0781  -11.3458  -12.4137 O   0  0  0  0  0  0  0  0  0  0  0  0
    8.2652  -12.4259  -15.7421 C   0  0  0  0  0  0  0  0  0  0  0  0
    8.9811  -11.3495  -16.5996 C   0  0  0  0  0  0  0  0  0  0  0  0
    8.8479  -11.4377  -18.4375 S   0  0  2  0  0  0  0  0  0  0  0  0
    8.8198   -9.6874  -18.8792 C   0  0  0  0  0  0  0  0  0  0  0  0
    7.1122  -11.8505  -18.7180 C   0  0  0  0  0  0  0  0  0  0  0  0
    6.9688  -13.3525  -18.9251 C   0  0  1  0  0  0  0  0  0  0  0  0
    7.2846  -14.0976  -17.7587 O   0  0  0  0  0  0  0  0  0  0  0  0
    5.5610  -13.7731  -19.2513 C   0  0  1  0  0  0  0  0  0  0  0  0
    5.2802  -13.5143  -20.5967 O   0  0  0  0  0  0  0  0  0  0  0  0
    5.6307  -15.2503  -18.9329 C   0  0  1  0  0  0  0  0  0  0  0  0
    6.1882  -15.9575  -20.0219 O   0  0  0  0  0  0  0  0  0  0  0  0
    6.5874  -15.3306  -17.7486 C   0  0  2  0  0  0  0  0  0  0  0  0
    5.9414  -15.5866  -16.4320 N   0  0  0  0  0  0  0  0  0  0  0  0
    4.7725  -15.0141  -15.9974 C   0  0  0  0  0  0  0  0  0  0  0  0
    4.4856  -15.4758  -14.7597 N   0  0  0  0  0  0  0  0  0  0  0  0
    5.4432  -16.3425  -14.3911 C   0  0  0  0  0  0  0  0  0  0  0  0
    5.6235  -17.0965  -13.2415 C   0  0  0  0  0  0  0  0  0  0  0  0
    4.7431  -17.0298  -12.2516 N   0  0  0  0  0  0  0  0  0  0  0  0
    6.7265  -17.9214  -13.1432 N   0  0  0  0  0  0  0  0  0  0  0  0
    7.6513  -18.0084  -14.1761 C   0  0  0  0  0  0  0  0  0  0  0  0
    7.4521  -17.2549  -15.3150 N   0  0  0  0  0  0  0  0  0  0  0  0
    6.3717  -16.4279  -15.4255 C   0  0  0  0  0  0  0  0  0  0  0  0
  2  3  1  1  0  0  0
  2  6  1  0  0  0  0
  2  1  1  0  0  0  0
  4  3  2  0  0  0  0
  5  3  1  0  0  0  0
  6  7  2  0  0  0  0
  8  7  1  1  0  0  0
  8  9  1  0  0  0  0
  8 10  1  0  0  0  0
 11 10  1  1  0  0  0
 11 13  1  0  0  0  0
 12 11  1  0  0  0  0
 12 17  1  0  0  0  0
 13 14  1  6  0  0  0
 13 15  1  0  0  0  0
 15 16  1  6  0  0  0
 17 18  1  1  0  0  0
 17 15  1  0  0  0  0
 18 19  1  0  0  0  0
 20 19  2  0  0  0  0
 21 27  2  0  0  0  0
 21 20  1  0  0  0  0
 22 21  1  0  0  0  0
 23 22  1  0  0  0  0
 24 22  2  0  0  0  0
 24 25  1  0  0  0  0
 25 26  2  0  0  0  0
 26 27  1  0  0  0  0
 27 18  1  0  0  0  0
M  END
>  <CHROM.1>
-110.53629425,-129.91464471,145.25734754,-96.91633722,66.16580990,78.18359832
6.84986188,-14.07473194,-16.26040513,-2.16304457,-1.14427836,-1.37231660

>  <Name>
lig.pdb

>  <RI>
0

>  <Rbt.Current_Directory>
/home/itssahil/PROJECTS/Mol_Feturizer/New_Systems/rnas/4b5r

>  <Rbt.Executable>
rbdock ($Id: //depot/dev/client3/rdock/2013.1/src/exe/rbdock.cxx#4 $)

>  <Rbt.Library>
libRbt.so (2013.1, Build901 2013/11/27)

>  <Rbt.Parameter_File>
/export/apps/rDock/src/rDock_2013.1_src/data/scripts/dock_solv.prm

>  <Rbt.Receptor>
prm/blind_docking_100.prm

>  <SCORE>
-12.7941

>  <SCORE.INTER>
-11.8925

>  <SCORE.INTER.CONST>
1

>  <SCORE.INTER.POLAR>
0

>  <SCORE.INTER.ROT>
6

>  <SCORE.INTER.SOLV>
13.3923

>  <SCORE.INTER.VDW>
-19.9924

>  <SCORE.INTER.norm>
-0.440462

>  <SCORE.INTRA>
-0.901599

>  <SCORE.INTRA.DIHEDRAL>
-1.13245

>  <SCORE.INTRA.DIHEDRAL.0>
10.2917

>  <SCORE.INTRA.POLAR>
0

>  <SCORE.INTRA.POLAR.0>
0

>  <SCORE.INTRA.REPUL>
0

>  <SCORE.INTRA.REPUL.0>
0

>  <SCORE.INTRA.SOLV>
-2.77466

>  <SCORE.INTRA.SOLV.lig_0>
-39.6315

>  <SCORE.INTRA.VDW>
1.05196

>  <SCORE.INTRA.VDW.0>
-4.02152

>  <SCORE.INTRA.norm>
-0.0333926

>  <SCORE.RESTR>
0

>  <SCORE.RESTR.CAVITY>
0

>  <SCORE.RESTR.norm>
0

>  <SCORE.SYSTEM>
0

>  <SCORE.SYSTEM.CONST>
0

>  <SCORE.SYSTEM.DIHEDRAL>
0

>  <SCORE.SYSTEM.SOLV>
0

>  <SCORE.SYSTEM.norm>
0

>  <SCORE.heavy>
27

>  <SCORE.norm>
-0.473855

>  <RMSD>
9.273

$$$$
lig.pdb
 OpenBabel11021811493D
libRbt.so/2013.1/901 2013/11/27
 27 29  0  0  0  0  0  0  0  0999 V2000
    2.0617  -14.9535   -8.5570 N   0  0  0  0  0  0  0  0  0  0  0  0
    0.9613  -14.9499   -9.5686 C   0  0  2  0  0  0  0  0  0  0  0  0
    0.0742  -16.1712   -9.3460 C   0  0  0  0  0  0  0  0  0  0  0  0
   -1.1439  -16.0528   -9.4079 O   0  0  0  0  0  0  0  0  0  0  0  0
    0.5301  -17.2944   -9.0963 O   0  0  0  0  0  0  0  0  0  0  0  0
    1.4595  -14.8632  -11.0254 C   0  0  0  0  0  0  0  0  0  0  0  0
    2.9945  -14.7826  -11.2345 C   0  0  0  0  0  0  0  0  0  0  0  0
    3.6572  -14.6703  -12.9526 S   0  0  2  0  0  0  0  0  0  0  0  0
    2.7716  -16.0164  -13.7670 C   0  0  0  0  0  0  0  0  0  0  0  0
    5.2965  -15.4174  -12.8250 C   0  0  0  0  0  0  0  0  0  0  0  0
    5.9384  -15.4852  -14.2045 C   0  0  1  0  0  0  0  0  0  0  0  0
    6.2562  -14.2025  -14.7230 O   0  0  0  0  0  0  0  0  0  0  0  0
    7.2563  -16.2123  -14.2087 C   0  0  1  0  0  0  0  0  0  0  0  0
    7.0441  -17.5945  -14.1889 O   0  0  0  0  0  0  0  0  0  0  0  0
    7.8417  -15.7202  -15.5138 C   0  0  1  0  0  0  0  0  0  0  0  0
    7.3239  -16.4706  -16.5935 O   0  0  0  0  0  0  0  0  0  0  0  0
    7.3445  -14.2833  -15.6261 C   0  0  2  0  0  0  0  0  0  0  0  0
    8.3679  -13.2382  -15.3494 N   0  0  0  0  0  0  0  0  0  0  0  0
    9.0391  -13.0798  -14.1631 C   0  0  0  0  0  0  0  0  0  0  0  0
    9.8900  -12.0349  -14.2707 N   0  0  0  0  0  0  0  0  0  0  0  0
    9.7867  -11.5215  -15.5076 C   0  0  0  0  0  0  0  0  0  0  0  0
   10.4317  -10.4659  -16.1338 C   0  0  0  0  0  0  0  0  0  0  0  0
   11.3460   -9.7586  -15.4833 N   0  0  0  0  0  0  0  0  0  0  0  0
   10.1149  -10.1648  -17.4437 N   0  0  0  0  0  0  0  0  0  0  0  0
    9.1664  -10.9032  -18.1401 C   0  0  0  0  0  0  0  0  0  0  0  0
    8.5391  -11.9539  -17.5021 N   0  0  0  0  0  0  0  0  0  0  0  0
    8.8340  -12.2601  -16.2050 C   0  0  0  0  0  0  0  0  0  0  0  0
  2  3  1  6  0  0  0
  2  6  1  0  0  0  0
  2  1  1  0  0  0  0
  4  3  2  0  0  0  0
  5  3  1  0  0  0  0
  6  7  2  0  0  0  0
  8  7  1  1  0  0  0
  8  9  1  0  0  0  0
  8 10  1  0  0  0  0
 11 10  1  1  0  0  0
 11 13  1  0  0  0  0
 12 11  1  0  0  0  0
 12 17  1  0  0  0  0
 13 14  1  6  0  0  0
 13 15  1  0  0  0  0
 15 16  1  6  0  0  0
 17 18  1  1  0  0  0
 17 15  1  0  0  0  0
 18 19  1  0  0  0  0
 20 19  2  0  0  0  0
 21 27  2  0  0  0  0
 21 20  1  0  0  0  0
 22 21  1  0  0  0  0
 23 22  1  0  0  0  0
 24 22  2  0  0  0  0
 24 25  1  0  0  0  0
 25 26  2  0  0  0  0
 26 27  1  0  0  0  0
 27 18  1  0  0  0  0
M  END
>  <CHROM.1>
137.37228979,-0.45090945,-49.28342778,176.06215508,67.95796788,58.55168567
5.85342630,-14.20385289,-13.74201369,3.00095163,-0.70206700,-2.77607769

>  <Name>
lig.pdb

>  <RI>
0

>  <Rbt.Current_Directory>
/home/itssahil/PROJECTS/Mol_Feturizer/New_Systems/rnas/4b5r

>  <Rbt.Executable>
rbdock ($Id: //depot/dev/client3/rdock/2013.1/src/exe/rbdock.cxx#4 $)

>  <Rbt.Library>
libRbt.so (2013.1, Build901 2013/11/27)

>  <Rbt.Parameter_File>
/export/apps/rDock/src/rDock_2013.1_src/data/scripts/dock_solv.prm

>  <Rbt.Receptor>
prm/blind_docking_40.prm

>  <SCORE>
-16.8142

>  <SCORE.INTER>
-15.844

>  <SCORE.INTER.CONST>
1

>  <SCORE.INTER.POLAR>
0

>  <SCORE.INTER.ROT>
6

>  <SCORE.INTER.SOLV>
13.8615

>  <SCORE.INTER.VDW>
-22.7831

>  <SCORE.INTER.norm>
-0.586815

>  <SCORE.INTRA>
-0.970247

>  <SCORE.INTRA.DIHEDRAL>
-3.17656

>  <SCORE.INTRA.DIHEDRAL.0>
10.2917

>  <SCORE.INTRA.POLAR>
0

>  <SCORE.INTRA.POLAR.0>
0

>  <SCORE.INTRA.REPUL>
0

>  <SCORE.INTRA.REPUL.0>
0

>  <SCORE.INTRA.SOLV>
-2.98369

>  <SCORE.INTRA.SOLV.lig_0>
-39.6315

>  <SCORE.INTRA.VDW>
2.10988

>  <SCORE.INTRA.VDW.0>
-4.02152

>  <SCORE.INTRA.norm>
-0.0359351

>  <SCORE.RESTR>
0

>  <SCORE.RESTR.CAVITY>
0

>  <SCORE.RESTR.norm>
0

>  <SCORE.SYSTEM>
0

>  <SCORE.SYSTEM.CONST>
0

>  <SCORE.SYSTEM.DIHEDRAL>
0

>  <SCORE.SYSTEM.SOLV>
0

>  <SCORE.SYSTEM.norm>
0

>  <SCORE.heavy>
27

>  <SCORE.norm>
-0.62275

>  <RMSD>
9.304

$$$$
lig.pdb
 OpenBabel11021811493D
libRbt.so/2013.1/901 2013/11/27
 27 29  0  0  0  0  0  0  0  0999 V2000
    4.0298   -7.2171  -18.9295 N   0  0  0  0  0  0  0  0  0  0  0  0
    3.4869   -8.3501  -18.1199 C   0  0  2  0  0  0  0  0  0  0  0  0
    2.1383   -7.9435  -17.5333 C   0  0  0  0  0  0  0  0  0  0  0  0
    1.2180   -8.7525  -17.5161 O   0  0  0  0  0  0  0  0  0  0  0  0
    1.9209   -6.8164  -17.0704 O   0  0  0  0  0  0  0  0  0  0  0  0
    4.4556   -8.8532  -17.0308 C   0  0  0  0  0  0  0  0  0  0  0  0
    4.8846  -10.3418  -17.1117 C   0  0  0  0  0  0  0  0  0  0  0  0
    6.0371  -11.0099  -15.8355 S   0  0  2  0  0  0  0  0  0  0  0  0
    7.6383  -10.5030  -16.4980 C   0  0  0  0  0  0  0  0  0  0  0  0
    6.1005  -12.7768  -16.2040 C   0  0  0  0  0  0  0  0  0  0  0  0
    6.7230  -13.5236  -15.0316 C   0  0  1  0  0  0  0  0  0  0  0  0
    6.1713  -14.8196  -14.8544 O   0  0  0  0  0  0  0  0  0  0  0  0
    8.1956  -13.7798  -15.2081 C   0  0  1  0  0  0  0  0  0  0  0  0
    8.9243  -12.6221  -14.9171 O   0  0  0  0  0  0  0  0  0  0  0  0
    8.4090  -14.8852  -14.1978 C   0  0  1  0  0  0  0  0  0  0  0  0
    8.5693  -14.3388  -12.9045 O   0  0  0  0  0  0  0  0  0  0  0  0
    7.1110  -15.6838  -14.2405 C   0  0  2  0  0  0  0  0  0  0  0  0
    7.1979  -16.9920  -14.9457 N   0  0  0  0  0  0  0  0  0  0  0  0
    7.5073  -18.1918  -14.3560 C   0  0  0  0  0  0  0  0  0  0  0  0
    7.4942  -19.1642  -15.2950 N   0  0  0  0  0  0  0  0  0  0  0  0
    7.1735  -18.6154  -16.4782 C   0  0  0  0  0  0  0  0  0  0  0  0
    7.0145  -19.1593  -17.7437 C   0  0  0  0  0  0  0  0  0  0  0  0
    7.1852  -20.4600  -17.9403 N   0  0  0  0  0  0  0  0  0  0  0  0
    6.6705  -18.3316  -18.7941 N   0  0  0  0  0  0  0  0  0  0  0  0
    6.4791  -16.9694  -18.6009 C   0  0  0  0  0  0  0  0  0  0  0  0
    6.6361  -16.4470  -17.3332 N   0  0  0  0  0  0  0  0  0  0  0  0
    6.9841  -17.2492  -16.2851 C   0  0  0  0  0  0  0  0  0  0  0  0
  2  3  1  1  0  0  0
  2  6  1  0  0  0  0
  2  1  1  0  0  0  0
  4  3  2  0  0  0  0
  5  3  1  0  0  0  0
  6  7  2  0  0  0  0
  8  7  1  6  0  0  0
  8  9  1  0  0  0  0
  8 10  1  0  0  0  0
 11 10  1  6  0  0  0
 11 13  1  0  0  0  0
 12 11  1  0  0  0  0
 12 17  1  0  0  0  0
 13 14  1  1  0  0  0
 13 15  1  0  0  0  0
 15 16  1  1  0  0  0
 17 18  1  6  0  0  0
 17 15  1  0  0  0  0
 18 19  1  0  0  0  0
 20 19  2  0  0  0  0
 21 27  2  0  0  0  0
 21 20  1  0  0  0  0
 22 21  1  0  0  0  0
 23 22  1  0  0  0  0
 24 22  2  0  0  0  0
 24 25  1  0  0  0  0
 25 26  2  0  0  0  0
 26 27  1  0  0  0  0
 27 18  1  0  0  0  0
M  END
>  <CHROM.1>
138.89951722,-120.73309710,-83.22707715,-165.55477721,146.46299717,-149.83332290
6.14130056,-13.61516212,-16.28138381,2.14555659,-0.81678214,0.31878798

>  <Name>
lig.pdb

>  <RI>
0

>  <Rbt.Current_Directory>
/home/itssahil/PROJECTS/Mol_Feturizer/New_Systems/rnas/4b5r

>  <Rbt.Executable>
rbdock ($Id: //depot/dev/client3/rdock/2013.1/src/exe/rbdock.cxx#4 $)

>  <Rbt.Library>
libRbt.so (2013.1, Build901 2013/11/27)

>  <Rbt.Parameter_File>
/export/apps/rDock/src/rDock_2013.1_src/data/scripts/dock_solv.prm

>  <Rbt.Receptor>
prm/blind_docking_40.prm

>  <SCORE>
-12.3183

>  <SCORE.INTER>
-13.1151

>  <SCORE.INTER.CONST>
1

>  <SCORE.INTER.POLAR>
0

>  <SCORE.INTER.ROT>
6

>  <SCORE.INTER.SOLV>
18.5426

>  <SCORE.INTER.VDW>
-22.5243

>  <SCORE.INTER.norm>
-0.485745

>  <SCORE.INTRA>
0.796825

>  <SCORE.INTRA.DIHEDRAL>
1.77651

>  <SCORE.INTRA.DIHEDRAL.0>
10.2917

>  <SCORE.INTRA.POLAR>
0

>  <SCORE.INTRA.POLAR.0>
0

>  <SCORE.INTRA.REPUL>
0

>  <SCORE.INTRA.REPUL.0>
0

>  <SCORE.INTRA.SOLV>
-2.48053

>  <SCORE.INTRA.SOLV.lig_0>
-39.6315

>  <SCORE.INTRA.VDW>
1.14883

>  <SCORE.INTRA.VDW.0>
-4.02152

>  <SCORE.INTRA.norm>
0.029512

>  <SCORE.RESTR>
0

>  <SCORE.RESTR.CAVITY>
0

>  <SCORE.RESTR.norm>
0

>  <SCORE.SYSTEM>
0

>  <SCORE.SYSTEM.CONST>
0

>  <SCORE.SYSTEM.DIHEDRAL>
0

>  <SCORE.SYSTEM.SOLV>
0

>  <SCORE.SYSTEM.norm>
0

>  <SCORE.heavy>
27

>  <SCORE.norm>
-0.456233

>  <RMSD>
9.402

$$$$
lig.pdb
 OpenBabel11021811493D
libRbt.so/2013.1/901 2013/11/27
 27 29  0  0  0  0  0  0  0  0999 V2000
    4.5839   -7.0952  -16.4613 N   0  0  0  0  0  0  0  0  0  0  0  0
    5.1341   -8.2418  -17.2465 C   0  0  2  0  0  0  0  0  0  0  0  0
    4.0255   -8.8308  -18.1139 C   0  0  0  0  0  0  0  0  0  0  0  0
    2.9049   -8.9827  -17.6419 O   0  0  0  0  0  0  0  0  0  0  0  0
    4.2049   -9.1741  -19.2895 O   0  0  0  0  0  0  0  0  0  0  0  0
    5.8127   -9.3193  -16.3768 C   0  0  0  0  0  0  0  0  0  0  0  0
    7.3464   -9.4848  -16.5408 C   0  0  0  0  0  0  0  0  0  0  0  0
    8.2198  -10.7607  -15.5345 S   0  0  2  0  0  0  0  0  0  0  0  0
    9.7754  -10.9250  -16.4359 C   0  0  0  0  0  0  0  0  0  0  0  0
    7.4209  -12.3055  -16.0214 C   0  0  0  0  0  0  0  0  0  0  0  0
    7.6021  -13.3454  -14.9235 C   0  0  1  0  0  0  0  0  0  0  0  0
    6.7406  -14.4626  -15.0815 O   0  0  0  0  0  0  0  0  0  0  0  0
    8.9794  -13.9521  -14.9048 C   0  0  1  0  0  0  0  0  0  0  0  0
    9.8824  -13.0787  -14.2902 O   0  0  0  0  0  0  0  0  0  0  0  0
    8.7211  -15.2044  -14.0966 C   0  0  1  0  0  0  0  0  0  0  0  0
    8.7382  -14.9050  -12.7156 O   0  0  0  0  0  0  0  0  0  0  0  0
    7.3095  -15.6200  -14.4956 C   0  0  2  0  0  0  0  0  0  0  0  0
    7.2316  -16.7936  -15.4081 N   0  0  0  0  0  0  0  0  0  0  0  0
    7.3626  -18.1052  -15.0264 C   0  0  0  0  0  0  0  0  0  0  0  0
    7.2361  -18.8985  -16.1136 N   0  0  0  0  0  0  0  0  0  0  0  0
    7.0170  -18.1236  -17.1886 C   0  0  0  0  0  0  0  0  0  0  0  0
    6.8108  -18.4246  -18.5263 C   0  0  0  0  0  0  0  0  0  0  0  0
    6.8066  -19.6861  -18.9362 N   0  0  0  0  0  0  0  0  0  0  0  0
    6.6040  -17.3959  -19.4239 N   0  0  0  0  0  0  0  0  0  0  0  0
    6.5962  -16.0709  -19.0070 C   0  0  0  0  0  0  0  0  0  0  0  0
    6.7974  -15.7910  -17.6706 N   0  0  0  0  0  0  0  0  0  0  0  0
    7.0117  -16.7950  -16.7710 C   0  0  0  0  0  0  0  0  0  0  0  0
  2  3  1  1  0  0  0
  2  6  1  0  0  0  0
  2  1  1  0  0  0  0
  4  3  2  0  0  0  0
  5  3  1  0  0  0  0
  6  7  2  0  0  0  0
  8  7  1  6  0  0  0
  8  9  1  0  0  0  0
  8 10  1  0  0  0  0
 11 10  1  6  0  0  0
 11 13  1  0  0  0  0
 12 11  1  0  0  0  0
 12 17  1  0  0  0  0
 13 14  1  1  0  0  0
 13 15  1  0  0  0  0
 15 16  1  1  0  0  0
 17 18  1  6  0  0  0
 17 15  1  0  0  0  0
 18 19  1  0  0  0  0
 20 19  2  0  0  0  0
 21 27  2  0  0  0  0
 21 20  1  0  0  0  0
 22 21  1  0  0  0  0
 23 22  1  0  0  0  0
 24 22  2  0  0  0  0
 24 25  1  0  0  0  0
 25 26  2  0  0  0  0
 26 27  1  0  0  0  0
 27 18  1  0  0  0  0
M  END
>  <CHROM.1>
-42.56545399,-113.07884310,162.58509834,-157.02745521,165.65602616,-161.89634899
6.98591914,-13.55588114,-16.38361829,1.89150932,-0.85196601,0.20445442

>  <Name>
lig.pdb

>  <RI>
0

>  <Rbt.Current_Directory>
/home/itssahil/PROJECTS/Mol_Feturizer/New_Systems/rnas/4b5r

>  <Rbt.Executable>
rbdock ($Id: //depot/dev/client3/rdock/2013.1/src/exe/rbdock.cxx#4 $)

>  <Rbt.Library>
libRbt.so (2013.1, Build901 2013/11/27)

>  <Rbt.Parameter_File>
/export/apps/rDock/src/rDock_2013.1_src/data/scripts/dock_solv.prm

>  <Rbt.Receptor>
prm/blind_docking_40.prm

>  <SCORE>
-12.748

>  <SCORE.INTER>
-12.6341

>  <SCORE.INTER.CONST>
1

>  <SCORE.INTER.POLAR>
0

>  <SCORE.INTER.ROT>
6

>  <SCORE.INTER.SOLV>
17.8076

>  <SCORE.INTER.VDW>
-21.9586

>  <SCORE.INTER.norm>
-0.46793

>  <SCORE.INTRA>
-0.113866

>  <SCORE.INTRA.DIHEDRAL>
-0.227159

>  <SCORE.INTRA.DIHEDRAL.0>
10.2917

>  <SCORE.INTRA.POLAR>
0

>  <SCORE.INTRA.POLAR.0>
0

>  <SCORE.INTRA.REPUL>
0

>  <SCORE.INTRA.REPUL.0>
0

>  <SCORE.INTRA.SOLV>
-2.33847

>  <SCORE.INTRA.SOLV.lig_0>
-39.6315

>  <SCORE.INTRA.VDW>
1.16895

>  <SCORE.INTRA.VDW.0>
-4.02152

>  <SCORE.INTRA.norm>
-0.00421726

>  <SCORE.RESTR>
0

>  <SCORE.RESTR.CAVITY>
0

>  <SCORE.RESTR.norm>
0

>  <SCORE.SYSTEM>
0

>  <SCORE.SYSTEM.CONST>
0

>  <SCORE.SYSTEM.DIHEDRAL>
0

>  <SCORE.SYSTEM.SOLV>
0

>  <SCORE.SYSTEM.norm>
0

>  <SCORE.heavy>
27

>  <SCORE.norm>
-0.472147

>  <RMSD>
9.444

$$$$
lig.pdb
 OpenBabel11021811493D
libRbt.so/2013.1/901 2013/11/27
 27 29  0  0  0  0  0  0  0  0999 V2000
    7.6127   -9.0823  -20.8475 N   0  0  0  0  0  0  0  0  0  0  0  0
    8.3884  -10.1368  -20.1261 C   0  0  2  0  0  0  0  0  0  0  0  0
    7.4659  -11.3124  -19.8178 C   0  0  0  0  0  0  0  0  0  0  0  0
    6.2514  -11.1574  -19.8693 O   0  0  0  0  0  0  0  0  0  0  0  0
    7.8891  -12.4333  -19.5076 O   0  0  0  0  0  0  0  0  0  0  0  0
    9.1025   -9.6231  -18.8596 C   0  0  0  0  0  0  0  0  0  0  0  0
    9.0253  -10.5255  -17.6001 C   0  0  0  0  0  0  0  0  0  0  0  0
    9.8527   -9.9668  -16.0488 S   0  0  2  0  0  0  0  0  0  0  0  0
   11.5918  -10.0219  -16.5304 C   0  0  0  0  0  0  0  0  0  0  0  0
    9.7854  -11.4235  -14.9833 C   0  0  0  0  0  0  0  0  0  0  0  0
    8.3476  -11.6755  -14.5488 C   0  0  1  0  0  0  0  0  0  0  0  0
    7.4431  -11.7035  -15.6426 O   0  0  0  0  0  0  0  0  0  0  0  0
    8.1553  -13.0139  -13.8877 C   0  0  1  0  0  0  0  0  0  0  0  0
    8.5960  -12.9640  -12.5614 O   0  0  0  0  0  0  0  0  0  0  0  0
    6.6558  -13.1719  -14.0095 C   0  0  1  0  0  0  0  0  0  0  0  0
    6.0059  -12.4670  -12.9714 O   0  0  0  0  0  0  0  0  0  0  0  0
    6.3194  -12.5119  -15.3421 C   0  0  2  0  0  0  0  0  0  0  0  0
    6.0071  -13.4541  -16.4516 N   0  0  0  0  0  0  0  0  0  0  0  0
    5.2508  -13.1550  -17.5569 C   0  0  0  0  0  0  0  0  0  0  0  0
    5.1769  -14.2455  -18.3524 N   0  0  0  0  0  0  0  0  0  0  0  0
    5.8789  -15.2402  -17.7851 C   0  0  0  0  0  0  0  0  0  0  0  0
    6.1322  -16.5444  -18.1821 C   0  0  0  0  0  0  0  0  0  0  0  0
    5.6388  -17.0049  -19.3240 N   0  0  0  0  0  0  0  0  0  0  0  0
    6.9088  -17.3545  -17.3776 N   0  0  0  0  0  0  0  0  0  0  0  0
    7.4399  -16.8824  -16.1839 C   0  0  0  0  0  0  0  0  0  0  0  0
    7.1819  -15.5798  -15.8082 N   0  0  0  0  0  0  0  0  0  0  0  0
    6.4094  -14.7677  -16.5872 C   0  0  0  0  0  0  0  0  0  0  0  0
  2  3  1  1  0  0  0
  2  6  1  0  0  0  0
  2  1  1  0  0  0  0
  4  3  2  0  0  0  0
  5  3  1  0  0  0  0
  6  7  2  0  0  0  0
  8  7  1  6  0  0  0
  8  9  1  0  0  0  0
  8 10  1  0  0  0  0
 11 10  1  6  0  0  0
 11 13  1  0  0  0  0
 12 11  1  0  0  0  0
 12 17  1  0  0  0  0
 13 14  1  1  0  0  0
 13 15  1  0  0  0  0
 15 16  1  1  0  0  0
 17 18  1  6  0  0  0
 17 15  1  0  0  0  0
 18 19  1  0  0  0  0
 20 19  2  0  0  0  0
 21 27  2  0  0  0  0
 21 20  1  0  0  0  0
 22 21  1  0  0  0  0
 23 22  1  0  0  0  0
 24 22  2  0  0  0  0
 24 25  1  0  0  0  0
 25 26  2  0  0  0  0
 26 27  1  0  0  0  0
 27 18  1  0  0  0  0
M  END
>  <CHROM.1>
-17.17339230,136.74932197,-66.43444825,-70.00919018,51.18904385,-84.57695047
7.55972338,-12.68746422,-16.84170925,0.42154033,-1.03561050,-1.18598904

>  <Name>
lig.pdb

>  <RI>
0

>  <Rbt.Current_Directory>
/home/itssahil/PROJECTS/Mol_Feturizer/New_Systems/rnas/4b5r

>  <Rbt.Executable>
rbdock ($Id: //depot/dev/client3/rdock/2013.1/src/exe/rbdock.cxx#4 $)

>  <Rbt.Library>
libRbt.so (2013.1, Build901 2013/11/27)

>  <Rbt.Parameter_File>
/export/apps/rDock/src/rDock_2013.1_src/data/scripts/dock_solv.prm

>  <Rbt.Receptor>
prm/blind_docking_60.prm

>  <SCORE>
-14.1569

>  <SCORE.INTER>
-12.877

>  <SCORE.INTER.CONST>
1

>  <SCORE.INTER.POLAR>
0

>  <SCORE.INTER.ROT>
6

>  <SCORE.INTER.SOLV>
17.1732

>  <SCORE.INTER.VDW>
-21.9091

>  <SCORE.INTER.norm>
-0.476925

>  <SCORE.INTRA>
-1.27993

>  <SCORE.INTRA.DIHEDRAL>
-2.3183

>  <SCORE.INTRA.DIHEDRAL.0>
10.2917

>  <SCORE.INTRA.POLAR>
0

>  <SCORE.INTRA.POLAR.0>
0

>  <SCORE.INTRA.REPUL>
0

>  <SCORE.INTRA.REPUL.0>
0

>  <SCORE.INTRA.SOLV>
-2.44491

>  <SCORE.INTRA.SOLV.lig_0>
-39.6315

>  <SCORE.INTRA.VDW>
1.10168

>  <SCORE.INTRA.VDW.0>
-4.02152

>  <SCORE.INTRA.norm>
-0.0474049

>  <SCORE.RESTR>
0

>  <SCORE.RESTR.CAVITY>
0

>  <SCORE.RESTR.norm>
0

>  <SCORE.SYSTEM>
0

>  <SCORE.SYSTEM.CONST>
0

>  <SCORE.SYSTEM.DIHEDRAL>
0

>  <SCORE.SYSTEM.SOLV>
0

>  <SCORE.SYSTEM.norm>
0

>  <SCORE.heavy>
27

>  <SCORE.norm>
-0.52433

>  <RMSD>
9.468

$$$$
lig.pdb
 OpenBabel11021811493D
libRbt.so/2013.1/901 2013/11/27
 27 29  0  0  0  0  0  0  0  0999 V2000
    2.8279  -16.2561  -11.7393 N   0  0  0  0  0  0  0  0  0  0  0  0
    3.6205  -17.4086  -12.2663 C   0  0  2  0  0  0  0  0  0  0  0  0
    3.2024  -18.6794  -11.5325 C   0  0  0  0  0  0  0  0  0  0  0  0
    2.3286  -19.3935  -12.0103 O   0  0  0  0  0  0  0  0  0  0  0  0
    3.7061  -19.0294  -10.4575 O   0  0  0  0  0  0  0  0  0  0  0  0
    5.1459  -17.1900  -12.2070 C   0  0  0  0  0  0  0  0  0  0  0  0
    5.8877  -17.0745  -13.5645 C   0  0  0  0  0  0  0  0  0  0  0  0
    7.7148  -16.8189  -13.5651 S   0  0  2  0  0  0  0  0  0  0  0  0
    7.8713  -15.3493  -12.5282 C   0  0  0  0  0  0  0  0  0  0  0  0
    8.0405  -16.0861  -15.1833 C   0  0  0  0  0  0  0  0  0  0  0  0
    6.9380  -15.0939  -15.5287 C   0  0  1  0  0  0  0  0  0  0  0  0
    7.1644  -13.8088  -14.9695 O   0  0  0  0  0  0  0  0  0  0  0  0
    6.8221  -14.8288  -17.0058 C   0  0  1  0  0  0  0  0  0  0  0  0
    6.1384  -15.8764  -17.6311 O   0  0  0  0  0  0  0  0  0  0  0  0
    6.0416  -13.5330  -16.9958 C   0  0  1  0  0  0  0  0  0  0  0  0
    4.6615  -13.7968  -16.8453 O   0  0  0  0  0  0  0  0  0  0  0  0
    6.5448  -12.8054  -15.7541 C   0  0  2  0  0  0  0  0  0  0  0  0
    7.4670  -11.6673  -16.0202 N   0  0  0  0  0  0  0  0  0  0  0  0
    8.8187  -11.7744  -16.2308 C   0  0  0  0  0  0  0  0  0  0  0  0
    9.3341  -10.5424  -16.4404 N   0  0  0  0  0  0  0  0  0  0  0  0
    8.3385   -9.6431  -16.3776 C   0  0  0  0  0  0  0  0  0  0  0  0
    8.3185   -8.2649  -16.5281 C   0  0  0  0  0  0  0  0  0  0  0  0
    9.4383   -7.6029  -16.7877 N   0  0  0  0  0  0  0  0  0  0  0  0
    7.1185   -7.5918  -16.4105 N   0  0  0  0  0  0  0  0  0  0  0  0
    5.9367   -8.2733  -16.1484 C   0  0  0  0  0  0  0  0  0  0  0  0
    5.9753   -9.6456  -16.0076 N   0  0  0  0  0  0  0  0  0  0  0  0
    7.1540  -10.3259  -16.1124 C   0  0  0  0  0  0  0  0  0  0  0  0
  2  3  1  1  0  0  0
  2  6  1  0  0  0  0
  2  1  1  0  0  0  0
  4  3  2  0  0  0  0
  5  3  1  0  0  0  0
  6  7  2  0  0  0  0
  8  7  1  6  0  0  0
  8  9  1  0  0  0  0
  8 10  1  0  0  0  0
 11 10  1  6  0  0  0
 11 13  1  0  0  0  0
 12 11  1  0  0  0  0
 12 17  1  0  0  0  0
 13 14  1  6  0  0  0
 13 15  1  0  0  0  0
 15 16  1  1  0  0  0
 17 18  1  6  0  0  0
 17 15  1  0  0  0  0
 18 19  1  0  0  0  0
 20 19  2  0  0  0  0
 21 27  2  0  0  0  0
 21 20  1  0  0  0  0
 22 21  1  0  0  0  0
 23 22  1  0  0  0  0
 24 22  2  0  0  0  0
 24 25  1  0  0  0  0
 25 26  2  0  0  0  0
 26 27  1  0  0  0  0
 27 18  1  0  0  0  0
M  END
>  <CHROM.1>
93.28927602,-113.33763230,-54.60814060,39.52919810,84.27689458,35.83581148
6.41260994,-13.89036759,-14.82957242,1.96422303,-0.48621828,2.87338224

>  <Name>
lig.pdb

>  <RI>
0

>  <Rbt.Current_Directory>
/home/itssahil/PROJECTS/Mol_Feturizer/New_Systems/rnas/4b5r

>  <Rbt.Executable>
rbdock ($Id: //depot/dev/client3/rdock/2013.1/src/exe/rbdock.cxx#4 $)

>  <Rbt.Library>
libRbt.so (2013.1, Build901 2013/11/27)

>  <Rbt.Parameter_File>
/export/apps/rDock/src/rDock_2013.1_src/data/scripts/dock_solv.prm

>  <Rbt.Receptor>
prm/blind_docking_40.prm

>  <SCORE>
-8.50121

>  <SCORE.INTER>
-8.76618

>  <SCORE.INTER.CONST>
1

>  <SCORE.INTER.POLAR>
0

>  <SCORE.INTER.ROT>
6

>  <SCORE.INTER.SOLV>
11.5748

>  <SCORE.INTER.VDW>
-17.3024

>  <SCORE.INTER.norm>
-0.324673

>  <SCORE.INTRA>
0.264973

>  <SCORE.INTRA.DIHEDRAL>
-0.938475

>  <SCORE.INTRA.DIHEDRAL.0>
10.2917

>  <SCORE.INTRA.POLAR>
0

>  <SCORE.INTRA.POLAR.0>
0

>  <SCORE.INTRA.REPUL>
0

>  <SCORE.INTRA.REPUL.0>
0

>  <SCORE.INTRA.SOLV>
-3.38122

>  <SCORE.INTRA.SOLV.lig_0>
-39.6315

>  <SCORE.INTRA.VDW>
2.42482

>  <SCORE.INTRA.VDW.0>
-4.02152

>  <SCORE.INTRA.norm>
0.00981382

>  <SCORE.RESTR>
0

>  <SCORE.RESTR.CAVITY>
0

>  <SCORE.RESTR.norm>
0

>  <SCORE.SYSTEM>
0

>  <SCORE.SYSTEM.CONST>
0

>  <SCORE.SYSTEM.DIHEDRAL>
0

>  <SCORE.SYSTEM.SOLV>
0

>  <SCORE.SYSTEM.norm>
0

>  <SCORE.heavy>
27

>  <SCORE.norm>
-0.31486

>  <RMSD>
9.524

$$$$
lig.pdb
 OpenBabel11021811493D
libRbt.so/2013.1/901 2013/11/27
 27 29  0  0  0  0  0  0  0  0999 V2000
    1.4929  -13.0067   -8.1976 N   0  0  0  0  0  0  0  0  0  0  0  0
    1.7008  -13.8783   -9.3939 C   0  0  2  0  0  0  0  0  0  0  0  0
    0.6639  -14.9976   -9.3826 C   0  0  0  0  0  0  0  0  0  0  0  0
    0.8899  -16.0370   -9.9912 O   0  0  0  0  0  0  0  0  0  0  0  0
   -0.4153  -14.9057   -8.7838 O   0  0  0  0  0  0  0  0  0  0  0  0
    3.1357  -14.4296   -9.5167 C   0  0  0  0  0  0  0  0  0  0  0  0
    4.0257  -13.8176  -10.6303 C   0  0  0  0  0  0  0  0  0  0  0  0
    5.7513  -14.4369  -10.8359 S   0  0  2  0  0  0  0  0  0  0  0  0
    6.3513  -14.3978   -9.1335 C   0  0  0  0  0  0  0  0  0  0  0  0
    6.6370  -13.0118  -11.5039 C   0  0  0  0  0  0  0  0  0  0  0  0
    6.2365  -12.7936  -12.9570 C   0  0  1  0  0  0  0  0  0  0  0  0
    6.8805  -11.6699  -13.5384 O   0  0  0  0  0  0  0  0  0  0  0  0
    6.6248  -13.9366  -13.8559 C   0  0  1  0  0  0  0  0  0  0  0  0
    5.7159  -14.9902  -13.7155 O   0  0  0  0  0  0  0  0  0  0  0  0
    6.5503  -13.2646  -15.2090 C   0  0  1  0  0  0  0  0  0  0  0  0
    5.2142  -13.2415  -15.6685 O   0  0  0  0  0  0  0  0  0  0  0  0
    7.0060  -11.8348  -14.9397 C   0  0  2  0  0  0  0  0  0  0  0  0
    8.3807  -11.5115  -15.4108 N   0  0  0  0  0  0  0  0  0  0  0  0
    9.5386  -11.7887  -14.7285 C   0  0  0  0  0  0  0  0  0  0  0  0
   10.5949  -11.3564  -15.4529 N   0  0  0  0  0  0  0  0  0  0  0  0
   10.1405  -10.8133  -16.5942 C   0  0  0  0  0  0  0  0  0  0  0  0
   10.7916  -10.2391  -17.6754 C   0  0  0  0  0  0  0  0  0  0  0  0
   12.1156  -10.1592  -17.6948 N   0  0  0  0  0  0  0  0  0  0  0  0
   10.0455   -9.7579  -18.7329 N   0  0  0  0  0  0  0  0  0  0  0  0
    8.6590   -9.8438  -18.7303 C   0  0  0  0  0  0  0  0  0  0  0  0
    8.0288  -10.4238  -17.6481 N   0  0  0  0  0  0  0  0  0  0  0  0
    8.7503  -10.8970  -16.5905 C   0  0  0  0  0  0  0  0  0  0  0  0
  2  3  1  1  0  0  0
  2  6  1  0  0  0  0
  2  1  1  0  0  0  0
  4  3  2  0  0  0  0
  5  3  1  0  0  0  0
  6  7  2  0  0  0  0
  8  7  1  1  0  0  0
  8  9  1  0  0  0  0
  8 10  1  0  0  0  0
 11 10  1  1  0  0  0
 11 13  1  0  0  0  0
 12 11  1  0  0  0  0
 12 17  1  0  0  0  0
 13 14  1  6  0  0  0
 13 15  1  0  0  0  0
 15 16  1  1  0  0  0
 17 18  1  1  0  0  0
 17 15  1  0  0  0  0
 18 19  1  0  0  0  0
 20 19  2  0  0  0  0
 21 27  2  0  0  0  0
 21 20  1  0  0  0  0
 22 21  1  0  0  0  0
 23 22  1  0  0  0  0
 24 22  2  0  0  0  0
 24 25  1  0  0  0  0
 25 26  2  0  0  0  0
 26 27  1  0  0  0  0
 27 18  1  0  0  0  0
M  END
>  <CHROM.1>
-156.93407508,-107.32660048,-48.00607447,-73.03470639,178.93724161,36.80022107
6.23962425,-12.78640060,-13.37973962,2.30283225,0.15175979,1.91155844

>  <Name>
lig.pdb

>  <RI>
0

>  <Rbt.Current_Directory>
/home/itssahil/PROJECTS/Mol_Feturizer/New_Systems/rnas/4b5r

>  <Rbt.Executable>
rbdock ($Id: //depot/dev/client3/rdock/2013.1/src/exe/rbdock.cxx#4 $)

>  <Rbt.Library>
libRbt.so (2013.1, Build901 2013/11/27)

>  <Rbt.Parameter_File>
/export/apps/rDock/src/rDock_2013.1_src/data/scripts/dock_solv.prm

>  <Rbt.Receptor>
prm/blind_docking_100.prm

>  <SCORE>
-12.5676

>  <SCORE.INTER>
-11.8178

>  <SCORE.INTER.CONST>
1

>  <SCORE.INTER.POLAR>
0

>  <SCORE.INTER.ROT>
6

>  <SCORE.INTER.SOLV>
17.034

>  <SCORE.INTER.VDW>
-21.1566

>  <SCORE.INTER.norm>
-0.437697

>  <SCORE.INTRA>
-0.749814

>  <SCORE.INTRA.DIHEDRAL>
-3.06469

>  <SCORE.INTRA.DIHEDRAL.0>
10.2917

>  <SCORE.INTRA.POLAR>
0

>  <SCORE.INTRA.POLAR.0>
0

>  <SCORE.INTRA.REPUL>
0

>  <SCORE.INTRA.REPUL.0>
0

>  <SCORE.INTRA.SOLV>
-2.98551

>  <SCORE.INTRA.SOLV.lig_0>
-39.6315

>  <SCORE.INTRA.VDW>
2.27528

>  <SCORE.INTRA.VDW.0>
-4.02152

>  <SCORE.INTRA.norm>
-0.0277709

>  <SCORE.RESTR>
0

>  <SCORE.RESTR.CAVITY>
0

>  <SCORE.RESTR.norm>
0

>  <SCORE.SYSTEM>
0

>  <SCORE.SYSTEM.CONST>
0

>  <SCORE.SYSTEM.DIHEDRAL>
0

>  <SCORE.SYSTEM.SOLV>
0

>  <SCORE.SYSTEM.norm>
0

>  <SCORE.heavy>
27

>  <SCORE.norm>
-0.465468

>  <RMSD>
9.526

$$$$
lig.pdb
 OpenBabel11021811493D
libRbt.so/2013.1/901 2013/11/27
 27 29  0  0  0  0  0  0  0  0999 V2000
    8.0370   -9.4027  -21.2562 N   0  0  0  0  0  0  0  0  0  0  0  0
    7.8749  -10.3538  -20.1146 C   0  0  2  0  0  0  0  0  0  0  0  0
    6.4324  -10.8500  -20.0789 C   0  0  0  0  0  0  0  0  0  0  0  0
    5.5509  -10.1151  -19.6494 O   0  0  0  0  0  0  0  0  0  0  0  0
    6.1021  -11.9791  -20.4636 O   0  0  0  0  0  0  0  0  0  0  0  0
    8.3126   -9.7709  -18.7558 C   0  0  0  0  0  0  0  0  0  0  0  0
    9.4058  -10.5523  -17.9805 C   0  0  0  0  0  0  0  0  0  0  0  0
    9.9705   -9.9128  -16.3448 S   0  0  2  0  0  0  0  0  0  0  0  0
   11.7638   -9.9325  -16.5520 C   0  0  0  0  0  0  0  0  0  0  0  0
    9.7754  -11.3313  -15.2440 C   0  0  0  0  0  0  0  0  0  0  0  0
    8.3029  -11.5171  -14.9023 C   0  0  1  0  0  0  0  0  0  0  0  0
    7.4924  -11.6922  -16.0545 O   0  0  0  0  0  0  0  0  0  0  0  0
    8.0368  -12.7516  -14.0834 C   0  0  1  0  0  0  0  0  0  0  0  0
    8.3661  -12.5215  -12.7438 O   0  0  0  0  0  0  0  0  0  0  0  0
    6.5505  -12.9203  -14.3089 C   0  0  1  0  0  0  0  0  0  0  0  0
    5.8266  -12.0778  -13.4353 O   0  0  0  0  0  0  0  0  0  0  0  0
    6.3360  -12.4485  -15.7427 C   0  0  2  0  0  0  0  0  0  0  0  0
    6.1035  -13.5330  -16.7356 N   0  0  0  0  0  0  0  0  0  0  0  0
    5.4101  -13.3962  -17.9118 C   0  0  0  0  0  0  0  0  0  0  0  0
    5.3991  -14.5819  -18.5610 N   0  0  0  0  0  0  0  0  0  0  0  0
    6.0802  -15.4792  -17.8296 C   0  0  0  0  0  0  0  0  0  0  0  0
    6.3752  -16.8179  -18.0377 C   0  0  0  0  0  0  0  0  0  0  0  0
    5.9571  -17.4332  -19.1360 N   0  0  0  0  0  0  0  0  0  0  0  0
    7.1140  -17.4998  -17.0913 N   0  0  0  0  0  0  0  0  0  0  0  0
    7.5666  -16.8656  -15.9412 C   0  0  0  0  0  0  0  0  0  0  0  0
    7.2682  -15.5312  -15.7541 N   0  0  0  0  0  0  0  0  0  0  0  0
    6.5318  -14.8440  -16.6753 C   0  0  0  0  0  0  0  0  0  0  0  0
  2  3  1  1  0  0  0
  2  6  1  0  0  0  0
  2  1  1  0  0  0  0
  4  3  2  0  0  0  0
  5  3  1  0  0  0  0
  6  7  2  0  0  0  0
  8  7  1  6  0  0  0
  8  9  1  0  0  0  0
  8 10  1  0  0  0  0
 11 10  1  6  0  0  0
 11 13  1  0  0  0  0
 12 11  1  0  0  0  0
 12 17  1  0  0  0  0
 13 14  1  1  0  0  0
 13 15  1  0  0  0  0
 15 16  1  1  0  0  0
 17 18  1  6  0  0  0
 17 15  1  0  0  0  0
 18 19  1  0  0  0  0
 20 19  2  0  0  0  0
 21 27  2  0  0  0  0
 21 20  1  0  0  0  0
 22 21  1  0  0  0  0
 23 22  1  0  0  0  0
 24 22  2  0  0  0  0
 24 25  1  0  0  0  0
 25 26  2  0  0  0  0
 26 27  1  0  0  0  0
 27 18  1  0  0  0  0
M  END
>  <CHROM.1>
-76.10680668,-122.96794590,-130.06593515,-76.18685200,57.57926728,-86.74803166
7.46348244,-12.62552192,-17.02505991,0.65572975,-1.03963530,-0.95310390

>  <Name>
lig.pdb

>  <RI>
0

>  <Rbt.Current_Directory>
/home/itssahil/PROJECTS/Mol_Feturizer/New_Systems/rnas/4b5r

>  <Rbt.Executable>
rbdock ($Id: //depot/dev/client3/rdock/2013.1/src/exe/rbdock.cxx#4 $)

>  <Rbt.Library>
libRbt.so (2013.1, Build901 2013/11/27)

>  <Rbt.Parameter_File>
/export/apps/rDock/src/rDock_2013.1_src/data/scripts/dock_solv.prm

>  <Rbt.Receptor>
prm/blind_docking_80.prm

>  <SCORE>
-13.7815

>  <SCORE.INTER>
-11.9442

>  <SCORE.INTER.CONST>
1

>  <SCORE.INTER.POLAR>
0

>  <SCORE.INTER.ROT>
6

>  <SCORE.INTER.SOLV>
17.5664

>  <SCORE.INTER.VDW>
-21.4183

>  <SCORE.INTER.norm>
-0.442378

>  <SCORE.INTRA>
-1.83724

>  <SCORE.INTRA.DIHEDRAL>
-1.44571

>  <SCORE.INTRA.DIHEDRAL.0>
10.2917

>  <SCORE.INTRA.POLAR>
0

>  <SCORE.INTRA.POLAR.0>
0

>  <SCORE.INTRA.REPUL>
0

>  <SCORE.INTRA.REPUL.0>
0

>  <SCORE.INTRA.SOLV>
-2.48146

>  <SCORE.INTRA.SOLV.lig_0>
-39.6315

>  <SCORE.INTRA.VDW>
0.126346

>  <SCORE.INTRA.VDW.0>
-4.02152

>  <SCORE.INTRA.norm>
-0.0680459

>  <SCORE.RESTR>
0

>  <SCORE.RESTR.CAVITY>
0

>  <SCORE.RESTR.norm>
0

>  <SCORE.SYSTEM>
0

>  <SCORE.SYSTEM.CONST>
0

>  <SCORE.SYSTEM.DIHEDRAL>
0

>  <SCORE.SYSTEM.SOLV>
0

>  <SCORE.SYSTEM.norm>
0

>  <SCORE.heavy>
27

>  <SCORE.norm>
-0.510424

>  <RMSD>
9.619

$$$$
lig.pdb
 OpenBabel11021811493D
libRbt.so/2013.1/901 2013/11/27
 27 29  0  0  0  0  0  0  0  0999 V2000
    6.0311   -7.9009  -18.4490 N   0  0  0  0  0  0  0  0  0  0  0  0
    4.9495   -8.9297  -18.5254 C   0  0  2  0  0  0  0  0  0  0  0  0
    4.2223   -8.9903  -17.1854 C   0  0  0  0  0  0  0  0  0  0  0  0
    3.0280   -8.7209  -17.1330 O   0  0  0  0  0  0  0  0  0  0  0  0
    4.7884   -9.2981  -16.1287 O   0  0  0  0  0  0  0  0  0  0  0  0
    5.4473  -10.3201  -18.9689 C   0  0  0  0  0  0  0  0  0  0  0  0
    6.7559  -10.3603  -19.8011 C   0  0  0  0  0  0  0  0  0  0  0  0
    7.4033  -11.9917  -20.3694 S   0  0  2  0  0  0  0  0  0  0  0  0
    7.5400  -11.7226  -22.1494 C   0  0  0  0  0  0  0  0  0  0  0  0
    5.9487  -13.0615  -20.3338 C   0  0  0  0  0  0  0  0  0  0  0  0
    6.2483  -14.3079  -19.5115 C   0  0  1  0  0  0  0  0  0  0  0  0
    6.8528  -14.0065  -18.2629 O   0  0  0  0  0  0  0  0  0  0  0  0
    5.0122  -15.0804  -19.1363 C   0  0  1  0  0  0  0  0  0  0  0  0
    4.5744  -15.8458  -20.2218 O   0  0  0  0  0  0  0  0  0  0  0  0
    5.5435  -15.9187  -17.9947 C   0  0  1  0  0  0  0  0  0  0  0  0
    6.2105  -17.0588  -18.4969 O   0  0  0  0  0  0  0  0  0  0  0  0
    6.5599  -15.0122  -17.3093 C   0  0  2  0  0  0  0  0  0  0  0  0
    6.1131  -14.4293  -16.0144 N   0  0  0  0  0  0  0  0  0  0  0  0
    6.7101  -13.3740  -15.3717 C   0  0  0  0  0  0  0  0  0  0  0  0
    6.0397  -13.1150  -14.2268 N   0  0  0  0  0  0  0  0  0  0  0  0
    5.0159  -13.9781  -14.1230 C   0  0  0  0  0  0  0  0  0  0  0  0
    4.0278  -14.1388  -13.1637 C   0  0  0  0  0  0  0  0  0  0  0  0
    3.9874  -13.3425  -12.1035 N   0  0  0  0  0  0  0  0  0  0  0  0
    3.0838  -15.1329  -13.3290 N   0  0  0  0  0  0  0  0  0  0  0  0
    3.1082  -15.9676  -14.4391 C   0  0  0  0  0  0  0  0  0  0  0  0
    4.0958  -15.7889  -15.3864 N   0  0  0  0  0  0  0  0  0  0  0  0
    5.0418  -14.8167  -15.2347 C   0  0  0  0  0  0  0  0  0  0  0  0
  2  3  1  1  0  0  0
  2  6  1  0  0  0  0
  2  1  1  0  0  0  0
  4  3  2  0  0  0  0
  5  3  1  0  0  0  0
  6  7  2  0  0  0  0
  8  7  1  1  0  0  0
  8  9  1  0  0  0  0
  8 10  1  0  0  0  0
 11 10  1  1  0  0  0
 11 13  1  0  0  0  0
 12 11  1  0  0  0  0
 12 17  1  0  0  0  0
 13 14  1  6  0  0  0
 13 15  1  0  0  0  0
 15 16  1  6  0  0  0
 17 18  1  1  0  0  0
 17 15  1  0  0  0  0
 18 19  1  0  0  0  0
 20 19  2  0  0  0  0
 21 27  2  0  0  0  0
 21 20  1  0  0  0  0
 22 21  1  0  0  0  0
 23 22  1  0  0  0  0
 24 22  2  0  0  0  0
 24 25  1  0  0  0  0
 25 26  2  0  0  0  0
 26 27  1  0  0  0  0
 27 18  1  0  0  0  0
M  END
>  <CHROM.1>
118.34728049,-24.20578553,125.07588733,-126.72156637,48.02850532,-45.19890041
5.45044844,-13.00207064,-17.37512025,0.80653601,1.19276317,-0.17692555

>  <Name>
lig.pdb

>  <RI>
0

>  <Rbt.Current_Directory>
/home/itssahil/PROJECTS/Mol_Feturizer/New_Systems/rnas/4b5r

>  <Rbt.Executable>
rbdock ($Id: //depot/dev/client3/rdock/2013.1/src/exe/rbdock.cxx#4 $)

>  <Rbt.Library>
libRbt.so (2013.1, Build901 2013/11/27)

>  <Rbt.Parameter_File>
/export/apps/rDock/src/rDock_2013.1_src/data/scripts/dock_solv.prm

>  <Rbt.Receptor>
prm/blind_docking_80.prm

>  <SCORE>
-7.98777

>  <SCORE.INTER>
-9.74781

>  <SCORE.INTER.CONST>
1

>  <SCORE.INTER.POLAR>
0

>  <SCORE.INTER.ROT>
6

>  <SCORE.INTER.SOLV>
14.4001

>  <SCORE.INTER.VDW>
-18.8986

>  <SCORE.INTER.norm>
-0.36103

>  <SCORE.INTRA>
1.76004

>  <SCORE.INTRA.DIHEDRAL>
2.39634

>  <SCORE.INTRA.DIHEDRAL.0>
10.2917

>  <SCORE.INTRA.POLAR>
0

>  <SCORE.INTRA.POLAR.0>
0

>  <SCORE.INTRA.REPUL>
0

>  <SCORE.INTRA.REPUL.0>
0

>  <SCORE.INTRA.SOLV>
-2.53546

>  <SCORE.INTRA.SOLV.lig_0>
-39.6315

>  <SCORE.INTRA.VDW>
1.8296

>  <SCORE.INTRA.VDW.0>
-4.02152

>  <SCORE.INTRA.norm>
0.0651867

>  <SCORE.RESTR>
0

>  <SCORE.RESTR.CAVITY>
0

>  <SCORE.RESTR.norm>
0

>  <SCORE.SYSTEM>
0

>  <SCORE.SYSTEM.CONST>
0

>  <SCORE.SYSTEM.DIHEDRAL>
0

>  <SCORE.SYSTEM.SOLV>
0

>  <SCORE.SYSTEM.norm>
0

>  <SCORE.heavy>
27

>  <SCORE.norm>
-0.295843

>  <RMSD>
9.646

$$$$
lig.pdb
 OpenBabel11021811493D
libRbt.so/2013.1/901 2013/11/27
 27 29  0  0  0  0  0  0  0  0999 V2000
    6.3082   -6.9407  -16.2977 N   0  0  0  0  0  0  0  0  0  0  0  0
    6.1293   -8.1120  -17.2088 C   0  0  2  0  0  0  0  0  0  0  0  0
    4.7231   -8.6757  -17.0274 C   0  0  0  0  0  0  0  0  0  0  0  0
    4.5675   -9.8854  -16.9084 O   0  0  0  0  0  0  0  0  0  0  0  0
    3.7129   -7.9612  -16.9991 O   0  0  0  0  0  0  0  0  0  0  0  0
    7.2080   -9.2006  -17.0374 C   0  0  0  0  0  0  0  0  0  0  0  0
    8.4073   -8.8558  -16.1158 C   0  0  0  0  0  0  0  0  0  0  0  0
    9.7367  -10.1116  -15.8725 S   0  0  2  0  0  0  0  0  0  0  0  0
   11.0385   -9.4678  -16.9451 C   0  0  0  0  0  0  0  0  0  0  0  0
    9.1851  -11.5125  -16.8701 C   0  0  0  0  0  0  0  0  0  0  0  0
    8.1666  -12.3306  -16.0873 C   0  0  1  0  0  0  0  0  0  0  0  0
    7.2322  -12.9895  -16.9287 O   0  0  0  0  0  0  0  0  0  0  0  0
    8.7890  -13.4486  -15.2948 C   0  0  1  0  0  0  0  0  0  0  0  0
    9.3582  -12.9475  -14.1197 O   0  0  0  0  0  0  0  0  0  0  0  0
    7.5780  -14.3195  -15.0433 C   0  0  1  0  0  0  0  0  0  0  0  0
    6.8447  -13.8274  -13.9401 O   0  0  0  0  0  0  0  0  0  0  0  0
    6.7381  -14.1620  -16.3059 C   0  0  2  0  0  0  0  0  0  0  0  0
    6.7639  -15.3286  -17.2304 N   0  0  0  0  0  0  0  0  0  0  0  0
    6.6215  -15.2635  -18.5937 C   0  0  0  0  0  0  0  0  0  0  0  0
    6.6971  -16.5114  -19.1079 N   0  0  0  0  0  0  0  0  0  0  0  0
    6.8944  -17.3798  -18.1024 C   0  0  0  0  0  0  0  0  0  0  0  0
    7.0502  -18.7574  -18.0797 C   0  0  0  0  0  0  0  0  0  0  0  0
    7.0175  -19.4541  -19.2080 N   0  0  0  0  0  0  0  0  0  0  0  0
    7.2458  -19.3931  -16.8696 N   0  0  0  0  0  0  0  0  0  0  0  0
    7.2919  -18.6751  -15.6813 C   0  0  0  0  0  0  0  0  0  0  0  0
    7.1407  -17.3040  -15.7243 N   0  0  0  0  0  0  0  0  0  0  0  0
    6.9381  -16.6602  -16.9108 C   0  0  0  0  0  0  0  0  0  0  0  0
  2  3  1  1  0  0  0
  2  6  1  0  0  0  0
  2  1  1  0  0  0  0
  4  3  2  0  0  0  0
  5  3  1  0  0  0  0
  6  7  2  0  0  0  0
  8  7  1  6  0  0  0
  8  9  1  0  0  0  0
  8 10  1  0  0  0  0
 11 10  1  6  0  0  0
 11 13  1  0  0  0  0
 12 11  1  0  0  0  0
 12 17  1  0  0  0  0
 13 14  1  1  0  0  0
 13 15  1  0  0  0  0
 15 16  1  1  0  0  0
 17 18  1  6  0  0  0
 17 15  1  0  0  0  0
 18 19  1  0  0  0  0
 20 19  2  0  0  0  0
 21 27  2  0  0  0  0
 21 20  1  0  0  0  0
 22 21  1  0  0  0  0
 23 22  1  0  0  0  0
 24 22  2  0  0  0  0
 24 25  1  0  0  0  0
 25 26  2  0  0  0  0
 26 27  1  0  0  0  0
 27 18  1  0  0  0  0
M  END
>  <CHROM.1>
-133.71720109,-8.15683041,102.64113273,-81.97679725,150.82332625,-30.49160371
7.35190901,-13.08165092,-16.61534176,1.57138146,-0.42576252,0.08824865

>  <Name>
lig.pdb

>  <RI>
0

>  <Rbt.Current_Directory>
/home/itssahil/PROJECTS/Mol_Feturizer/New_Systems/rnas/4b5r

>  <Rbt.Executable>
rbdock ($Id: //depot/dev/client3/rdock/2013.1/src/exe/rbdock.cxx#4 $)

>  <Rbt.Library>
libRbt.so (2013.1, Build901 2013/11/27)

>  <Rbt.Parameter_File>
/export/apps/rDock/src/rDock_2013.1_src/data/scripts/dock_solv.prm

>  <Rbt.Receptor>
prm/blind_docking_40.prm

>  <SCORE>
-10.9418

>  <SCORE.INTER>
-12.2788

>  <SCORE.INTER.CONST>
1

>  <SCORE.INTER.POLAR>
0

>  <SCORE.INTER.ROT>
6

>  <SCORE.INTER.SOLV>
16.6592

>  <SCORE.INTER.VDW>
-21.339

>  <SCORE.INTER.norm>
-0.454772

>  <SCORE.INTRA>
1.33705

>  <SCORE.INTRA.DIHEDRAL>
0.343044

>  <SCORE.INTRA.DIHEDRAL.0>
10.2917

>  <SCORE.INTRA.POLAR>
0

>  <SCORE.INTRA.POLAR.0>
0

>  <SCORE.INTRA.REPUL>
0

>  <SCORE.INTRA.REPUL.0>
0

>  <SCORE.INTRA.SOLV>
-2.18225

>  <SCORE.INTRA.SOLV.lig_0>
-39.6315

>  <SCORE.INTRA.VDW>
2.25665

>  <SCORE.INTRA.VDW.0>
-4.02152

>  <SCORE.INTRA.norm>
0.0495204

>  <SCORE.RESTR>
0

>  <SCORE.RESTR.CAVITY>
0

>  <SCORE.RESTR.norm>
0

>  <SCORE.SYSTEM>
0

>  <SCORE.SYSTEM.CONST>
0

>  <SCORE.SYSTEM.DIHEDRAL>
0

>  <SCORE.SYSTEM.SOLV>
0

>  <SCORE.SYSTEM.norm>
0

>  <SCORE.heavy>
27

>  <SCORE.norm>
-0.405252

>  <RMSD>
9.760

$$$$
lig.pdb
 OpenBabel11021811493D
libRbt.so/2013.1/901 2013/11/27
 27 29  0  0  0  0  0  0  0  0999 V2000
    6.9003   -8.2800  -20.3044 N   0  0  0  0  0  0  0  0  0  0  0  0
    7.6267   -9.3443  -21.0618 C   0  0  2  0  0  0  0  0  0  0  0  0
    6.8605   -9.6563  -22.3439 C   0  0  0  0  0  0  0  0  0  0  0  0
    7.3838  -10.3516  -23.2067 O   0  0  0  0  0  0  0  0  0  0  0  0
    5.7191   -9.2310  -22.5632 O   0  0  0  0  0  0  0  0  0  0  0  0
    7.8991  -10.6169  -20.2347 C   0  0  0  0  0  0  0  0  0  0  0  0
    6.9831  -11.8381  -20.5107 C   0  0  0  0  0  0  0  0  0  0  0  0
    7.2510  -13.3907  -19.5508 S   0  0  2  0  0  0  0  0  0  0  0  0
    6.2570  -14.5690  -20.4904 C   0  0  0  0  0  0  0  0  0  0  0  0
    6.1906  -13.1833  -18.1036 C   0  0  0  0  0  0  0  0  0  0  0  0
    6.6608  -11.9846  -17.2903 C   0  0  1  0  0  0  0  0  0  0  0  0
    5.9062  -11.8006  -16.1020 O   0  0  0  0  0  0  0  0  0  0  0  0
    8.0773  -12.1210  -16.8002 C   0  0  1  0  0  0  0  0  0  0  0  0
    8.9745  -11.8304  -17.8330 O   0  0  0  0  0  0  0  0  0  0  0  0
    8.0902  -11.0886  -15.6947 C   0  0  1  0  0  0  0  0  0  0  0  0
    8.3073   -9.8004  -16.2337 O   0  0  0  0  0  0  0  0  0  0  0  0
    6.6828  -11.1505  -15.1117 C   0  0  2  0  0  0  0  0  0  0  0  0
    6.5757  -11.8328  -13.7928 N   0  0  0  0  0  0  0  0  0  0  0  0
    5.7329  -11.4634  -12.7749 C   0  0  0  0  0  0  0  0  0  0  0  0
    5.9028  -12.3049  -11.7307 N   0  0  0  0  0  0  0  0  0  0  0  0
    6.8334  -13.2159  -12.0593 C   0  0  0  0  0  0  0  0  0  0  0  0
    7.3669  -14.2925  -11.3672 C   0  0  0  0  0  0  0  0  0  0  0  0
    6.9516  -14.5714  -10.1387 N   0  0  0  0  0  0  0  0  0  0  0  0
    8.3302  -15.0732  -11.9749 N   0  0  0  0  0  0  0  0  0  0  0  0
    8.7674  -14.7984  -13.2645 C   0  0  0  0  0  0  0  0  0  0  0  0
    8.2207  -13.7262  -13.9398 N   0  0  0  0  0  0  0  0  0  0  0  0
    7.2736  -12.9390  -13.3512 C   0  0  0  0  0  0  0  0  0  0  0  0
  2  3  1  6  0  0  0
  2  6  1  0  0  0  0
  2  1  1  0  0  0  0
  4  3  2  0  0  0  0
  5  3  1  0  0  0  0
  6  7  2  0  0  0  0
  8  7  1  6  0  0  0
  8  9  1  0  0  0  0
  8 10  1  0  0  0  0
 11 10  1  1  0  0  0
 11 13  1  0  0  0  0
 12 11  1  0  0  0  0
 12 17  1  0  0  0  0
 13 14  1  6  0  0  0
 13 15  1  0  0  0  0
 15 16  1  6  0  0  0
 17 18  1  1  0  0  0
 17 15  1  0  0  0  0
 18 19  1  0  0  0  0
 20 19  2  0  0  0  0
 21 27  2  0  0  0  0
 21 20  1  0  0  0  0
 22 21  1  0  0  0  0
 23 22  1  0  0  0  0
 24 22  2  0  0  0  0
 24 25  1  0  0  0  0
 25 26  2  0  0  0  0
 26 27  1  0  0  0  0
 27 18  1  0  0  0  0
M  END
>  <CHROM.1>
168.99826552,102.93179390,-166.94172976,-62.75620086,-177.28603243,-96.95297312
7.17513606,-12.05013603,-16.82830384,1.77640499,1.45493565,-1.46287718

>  <Name>
lig.pdb

>  <RI>
0

>  <Rbt.Current_Directory>
/home/itssahil/PROJECTS/Mol_Feturizer/New_Systems/rnas/4b5r

>  <Rbt.Executable>
rbdock ($Id: //depot/dev/client3/rdock/2013.1/src/exe/rbdock.cxx#4 $)

>  <Rbt.Library>
libRbt.so (2013.1, Build901 2013/11/27)

>  <Rbt.Parameter_File>
/export/apps/rDock/src/rDock_2013.1_src/data/scripts/dock_solv.prm

>  <Rbt.Receptor>
prm/blind_docking_40.prm

>  <SCORE>
-11.2495

>  <SCORE.INTER>
-10.8233

>  <SCORE.INTER.CONST>
1

>  <SCORE.INTER.POLAR>
0

>  <SCORE.INTER.ROT>
6

>  <SCORE.INTER.SOLV>
12.3635

>  <SCORE.INTER.VDW>
-18.9367

>  <SCORE.INTER.norm>
-0.400863

>  <SCORE.INTRA>
-0.426162

>  <SCORE.INTRA.DIHEDRAL>
-1.80933

>  <SCORE.INTRA.DIHEDRAL.0>
10.2917

>  <SCORE.INTRA.POLAR>
0

>  <SCORE.INTRA.POLAR.0>
0

>  <SCORE.INTRA.REPUL>
0

>  <SCORE.INTRA.REPUL.0>
0

>  <SCORE.INTRA.SOLV>
-1.9633

>  <SCORE.INTRA.SOLV.lig_0>
-39.6315

>  <SCORE.INTRA.VDW>
1.46015

>  <SCORE.INTRA.VDW.0>
-4.02152

>  <SCORE.INTRA.norm>
-0.0157838

>  <SCORE.RESTR>
0

>  <SCORE.RESTR.CAVITY>
0

>  <SCORE.RESTR.norm>
0

>  <SCORE.SYSTEM>
0

>  <SCORE.SYSTEM.CONST>
0

>  <SCORE.SYSTEM.DIHEDRAL>
0

>  <SCORE.SYSTEM.SOLV>
0

>  <SCORE.SYSTEM.norm>
0

>  <SCORE.heavy>
27

>  <SCORE.norm>
-0.416647

>  <RMSD>
9.780

$$$$
lig.pdb
 OpenBabel11021811493D
libRbt.so/2013.1/901 2013/11/27
 27 29  0  0  0  0  0  0  0  0999 V2000
    3.0234  -15.6767   -8.1361 N   0  0  0  0  0  0  0  0  0  0  0  0
    3.1309  -14.2151   -8.4293 C   0  0  2  0  0  0  0  0  0  0  0  0
    1.9555  -13.4882   -7.7825 C   0  0  0  0  0  0  0  0  0  0  0  0
    2.0353  -13.1308   -6.6131 O   0  0  0  0  0  0  0  0  0  0  0  0
    0.9047  -13.2412   -8.3880 O   0  0  0  0  0  0  0  0  0  0  0  0
    3.2456  -13.8917   -9.9326 C   0  0  0  0  0  0  0  0  0  0  0  0
    4.5286  -13.1498  -10.3911 C   0  0  0  0  0  0  0  0  0  0  0  0
    4.7262  -12.7267  -12.1759 S   0  0  2  0  0  0  0  0  0  0  0  0
    4.8820  -14.3654  -12.9175 C   0  0  0  0  0  0  0  0  0  0  0  0
    6.4416  -12.1745  -12.2939 C   0  0  0  0  0  0  0  0  0  0  0  0
    6.8802  -12.1700  -13.7524 C   0  0  1  0  0  0  0  0  0  0  0  0
    6.0076  -11.4191  -14.5831 O   0  0  0  0  0  0  0  0  0  0  0  0
    8.2234  -11.5248  -13.9643 C   0  0  1  0  0  0  0  0  0  0  0  0
    9.2452  -12.4123  -13.6119 O   0  0  0  0  0  0  0  0  0  0  0  0
    8.1666  -11.2446  -15.4497 C   0  0  1  0  0  0  0  0  0  0  0  0
    8.5110  -12.4057  -16.1779 O   0  0  0  0  0  0  0  0  0  0  0  0
    6.7013  -10.9135  -15.7099 C   0  0  2  0  0  0  0  0  0  0  0  0
    6.4106   -9.4706  -15.9331 N   0  0  0  0  0  0  0  0  0  0  0  0
    5.2132   -8.8532  -15.6720 C   0  0  0  0  0  0  0  0  0  0  0  0
    5.3098   -7.5437  -15.9935 N   0  0  0  0  0  0  0  0  0  0  0  0
    6.5501   -7.3029  -16.4490 C   0  0  0  0  0  0  0  0  0  0  0  0
    7.1689   -6.1453  -16.8959 C   0  0  0  0  0  0  0  0  0  0  0  0
    6.5050   -4.9971  -16.9199 N   0  0  0  0  0  0  0  0  0  0  0  0
    8.4852   -6.2018  -17.3092 N   0  0  0  0  0  0  0  0  0  0  0  0
    9.1954   -7.3953  -17.2804 C   0  0  0  0  0  0  0  0  0  0  0  0
    8.5647   -8.5359  -16.8270 N   0  0  0  0  0  0  0  0  0  0  0  0
    7.2615   -8.4999  -16.4225 C   0  0  0  0  0  0  0  0  0  0  0  0
  2  3  1  6  0  0  0
  2  6  1  0  0  0  0
  2  1  1  0  0  0  0
  4  3  2  0  0  0  0
  5  3  1  0  0  0  0
  6  7  2  0  0  0  0
  8  7  1  1  0  0  0
  8  9  1  0  0  0  0
  8 10  1  0  0  0  0
 11 10  1  1  0  0  0
 11 13  1  0  0  0  0
 12 11  1  0  0  0  0
 12 17  1  0  0  0  0
 13 14  1  6  0  0  0
 13 15  1  0  0  0  0
 15 16  1  6  0  0  0
 17 18  1  1  0  0  0
 17 15  1  0  0  0  0
 18 19  1  0  0  0  0
 20 19  2  0  0  0  0
 21 27  2  0  0  0  0
 21 20  1  0  0  0  0
 22 21  1  0  0  0  0
 23 22  1  0  0  0  0
 24 22  2  0  0  0  0
 24 25  1  0  0  0  0
 25 26  2  0  0  0  0
 26 27  1  0  0  0  0
 27 18  1  0  0  0  0
M  END
>  <CHROM.1>
85.89727985,-119.63220260,-66.83509984,163.79177929,53.76746308,-33.59247309
5.82570669,-11.02029560,-13.43410533,-2.16430540,0.68537834,-0.51317199

>  <Name>
lig.pdb

>  <RI>
0

>  <Rbt.Current_Directory>
/home/itssahil/PROJECTS/Mol_Feturizer/New_Systems/rnas/4b5r

>  <Rbt.Executable>
rbdock ($Id: //depot/dev/client3/rdock/2013.1/src/exe/rbdock.cxx#4 $)

>  <Rbt.Library>
libRbt.so (2013.1, Build901 2013/11/27)

>  <Rbt.Parameter_File>
/export/apps/rDock/src/rDock_2013.1_src/data/scripts/dock_solv.prm

>  <Rbt.Receptor>
prm/blind_docking_40.prm

>  <SCORE>
-15.0398

>  <SCORE.INTER>
-14.3511

>  <SCORE.INTER.CONST>
1

>  <SCORE.INTER.POLAR>
0

>  <SCORE.INTER.ROT>
6

>  <SCORE.INTER.SOLV>
10.4726

>  <SCORE.INTER.VDW>
-20.6583

>  <SCORE.INTER.norm>
-0.531523

>  <SCORE.INTRA>
-0.688665

>  <SCORE.INTRA.DIHEDRAL>
-2.79748

>  <SCORE.INTRA.DIHEDRAL.0>
10.2917

>  <SCORE.INTRA.POLAR>
0

>  <SCORE.INTRA.POLAR.0>
0

>  <SCORE.INTRA.REPUL>
0

>  <SCORE.INTRA.REPUL.0>
0

>  <SCORE.INTRA.SOLV>
-3.17602

>  <SCORE.INTRA.SOLV.lig_0>
-39.6315

>  <SCORE.INTRA.VDW>
2.29808

>  <SCORE.INTRA.VDW.0>
-4.02152

>  <SCORE.INTRA.norm>
-0.0255061

>  <SCORE.RESTR>
0

>  <SCORE.RESTR.CAVITY>
0

>  <SCORE.RESTR.norm>
0

>  <SCORE.SYSTEM>
0

>  <SCORE.SYSTEM.CONST>
0

>  <SCORE.SYSTEM.DIHEDRAL>
0

>  <SCORE.SYSTEM.SOLV>
0

>  <SCORE.SYSTEM.norm>
0

>  <SCORE.heavy>
27

>  <SCORE.norm>
-0.557029

>  <RMSD>
9.853

$$$$
lig.pdb
 OpenBabel11021811493D
libRbt.so/2013.1/901 2013/11/27
 27 29  0  0  0  0  0  0  0  0999 V2000
    7.9557   -8.9146  -20.8073 N   0  0  0  0  0  0  0  0  0  0  0  0
    7.2094   -9.2828  -19.5658 C   0  0  2  0  0  0  0  0  0  0  0  0
    5.8455   -8.5989  -19.5817 C   0  0  0  0  0  0  0  0  0  0  0  0
    5.7051   -7.5443  -20.1897 O   0  0  0  0  0  0  0  0  0  0  0  0
    4.8571   -9.0606  -18.9969 O   0  0  0  0  0  0  0  0  0  0  0  0
    7.9835   -8.9840  -18.2661 C   0  0  0  0  0  0  0  0  0  0  0  0
    8.6711  -10.1882  -17.5706 C   0  0  0  0  0  0  0  0  0  0  0  0
    9.6084   -9.9011  -16.0077 S   0  0  2  0  0  0  0  0  0  0  0  0
   11.3039  -10.2119  -16.5445 C   0  0  0  0  0  0  0  0  0  0  0  0
    9.3109  -11.4043  -15.0520 C   0  0  0  0  0  0  0  0  0  0  0  0
    7.8451  -11.4715  -14.6440 C   0  0  1  0  0  0  0  0  0  0  0  0
    6.9742  -11.6113  -15.7563 O   0  0  0  0  0  0  0  0  0  0  0  0
    7.5246  -12.6638  -13.7832 C   0  0  1  0  0  0  0  0  0  0  0  0
    7.9284  -12.4289  -12.4649 O   0  0  0  0  0  0  0  0  0  0  0  0
    6.0215  -12.7257  -13.9415 C   0  0  1  0  0  0  0  0  0  0  0  0
    5.4008  -11.8118  -13.0604 O   0  0  0  0  0  0  0  0  0  0  0  0
    5.7798  -12.2716  -15.3767 C   0  0  2  0  0  0  0  0  0  0  0  0
    5.4246  -13.3578  -16.3308 N   0  0  0  0  0  0  0  0  0  0  0  0
    4.8551  -14.5586  -15.9892 C   0  0  0  0  0  0  0  0  0  0  0  0
    4.6723  -15.2969  -17.1068 N   0  0  0  0  0  0  0  0  0  0  0  0
    5.1052  -14.5911  -18.1643 C   0  0  0  0  0  0  0  0  0  0  0  0
    5.1376  -14.8735  -19.5214 C   0  0  0  0  0  0  0  0  0  0  0  0
    4.6775  -16.0317  -19.9759 N   0  0  0  0  0  0  0  0  0  0  0  0
    5.6485  -13.9324  -20.3932 N   0  0  0  0  0  0  0  0  0  0  0  0
    6.1248  -12.7116  -19.9322 C   0  0  0  0  0  0  0  0  0  0  0  0
    6.0790  -12.4460  -18.5787 N   0  0  0  0  0  0  0  0  0  0  0  0
    5.5850  -13.3681  -17.7020 C   0  0  0  0  0  0  0  0  0  0  0  0
  2  3  1  1  0  0  0
  2  6  1  0  0  0  0
  2  1  1  0  0  0  0
  4  3  2  0  0  0  0
  5  3  1  0  0  0  0
  6  7  2  0  0  0  0
  8  7  1  6  0  0  0
  8  9  1  0  0  0  0
  8 10  1  0  0  0  0
 11 10  1  6  0  0  0
 11 13  1  0  0  0  0
 12 11  1  0  0  0  0
 12 17  1  0  0  0  0
 13 14  1  1  0  0  0
 13 15  1  0  0  0  0
 15 16  1  1  0  0  0
 17 18  1  6  0  0  0
 17 15  1  0  0  0  0
 18 19  1  0  0  0  0
 20 19  2  0  0  0  0
 21 27  2  0  0  0  0
 21 20  1  0  0  0  0
 22 21  1  0  0  0  0
 23 22  1  0  0  0  0
 24 22  2  0  0  0  0
 24 25  1  0  0  0  0
 25 26  2  0  0  0  0
 26 27  1  0  0  0  0
 27 18  1  0  0  0  0
M  END
>  <CHROM.1>
-27.60127165,-101.39193445,-111.94819077,-67.63855531,65.42741022,143.67489760
6.79542911,-11.71528193,-17.13017269,0.55563183,-0.92190331,-1.01533706

>  <Name>
lig.pdb

>  <RI>
0

>  <Rbt.Current_Directory>
/home/itssahil/PROJECTS/Mol_Feturizer/New_Systems/rnas/4b5r

>  <Rbt.Executable>
rbdock ($Id: //depot/dev/client3/rdock/2013.1/src/exe/rbdock.cxx#4 $)

>  <Rbt.Library>
libRbt.so (2013.1, Build901 2013/11/27)

>  <Rbt.Parameter_File>
/export/apps/rDock/src/rDock_2013.1_src/data/scripts/dock_solv.prm

>  <Rbt.Receptor>
prm/blind_docking_40.prm

>  <SCORE>
-11.6146

>  <SCORE.INTER>
-11.7509

>  <SCORE.INTER.CONST>
1

>  <SCORE.INTER.POLAR>
0

>  <SCORE.INTER.ROT>
6

>  <SCORE.INTER.SOLV>
15.2675

>  <SCORE.INTER.VDW>
-20.5231

>  <SCORE.INTER.norm>
-0.435218

>  <SCORE.INTRA>
0.136281

>  <SCORE.INTRA.DIHEDRAL>
-1.12174

>  <SCORE.INTRA.DIHEDRAL.0>
10.2917

>  <SCORE.INTRA.POLAR>
0

>  <SCORE.INTRA.POLAR.0>
0

>  <SCORE.INTRA.REPUL>
0.179353

>  <SCORE.INTRA.REPUL.0>
0

>  <SCORE.INTRA.SOLV>
-2.03367

>  <SCORE.INTRA.SOLV.lig_0>
-39.6315

>  <SCORE.INTRA.VDW>
0.817221

>  <SCORE.INTRA.VDW.0>
-4.02152

>  <SCORE.INTRA.norm>
0.00504744

>  <SCORE.RESTR>
0

>  <SCORE.RESTR.CAVITY>
0

>  <SCORE.RESTR.norm>
0

>  <SCORE.SYSTEM>
0

>  <SCORE.SYSTEM.CONST>
0

>  <SCORE.SYSTEM.DIHEDRAL>
0

>  <SCORE.SYSTEM.SOLV>
0

>  <SCORE.SYSTEM.norm>
0

>  <SCORE.heavy>
27

>  <SCORE.norm>
-0.430171

>  <RMSD>
9.897

$$$$
lig.pdb
 OpenBabel11021811493D
libRbt.so/2013.1/901 2013/11/27
 27 29  0  0  0  0  0  0  0  0999 V2000
    6.5694  -15.7787   -8.8350 N   0  0  0  0  0  0  0  0  0  0  0  0
    6.3917  -15.6311  -10.3117 C   0  0  2  0  0  0  0  0  0  0  0  0
    7.5617  -16.3021  -11.0251 C   0  0  0  0  0  0  0  0  0  0  0  0
    7.3604  -17.2958  -11.7134 O   0  0  0  0  0  0  0  0  0  0  0  0
    8.7254  -15.8897  -10.9385 O   0  0  0  0  0  0  0  0  0  0  0  0
    6.2043  -14.1707  -10.7701 C   0  0  0  0  0  0  0  0  0  0  0  0
    7.3163  -13.5742  -11.6726 C   0  0  0  0  0  0  0  0  0  0  0  0
    7.1571  -11.8297  -12.2510 S   0  0  2  0  0  0  0  0  0  0  0  0
    5.3927  -11.7345  -12.6216 C   0  0  0  0  0  0  0  0  0  0  0  0
    7.8191  -11.8772  -13.9307 C   0  0  0  0  0  0  0  0  0  0  0  0
    7.1843  -13.0280  -14.7002 C   0  0  1  0  0  0  0  0  0  0  0  0
    6.4579  -12.5895  -15.8383 O   0  0  0  0  0  0  0  0  0  0  0  0
    8.1944  -13.9899  -15.2659 C   0  0  1  0  0  0  0  0  0  0  0  0
    8.6527  -14.8517  -14.2643 O   0  0  0  0  0  0  0  0  0  0  0  0
    7.3566  -14.6893  -16.3134 C   0  0  1  0  0  0  0  0  0  0  0  0
    6.5856  -15.7124  -15.7169 O   0  0  0  0  0  0  0  0  0  0  0  0
    6.4214  -13.6013  -16.8290 C   0  0  2  0  0  0  0  0  0  0  0  0
    6.7597  -13.0648  -18.1759 N   0  0  0  0  0  0  0  0  0  0  0  0
    7.6611  -12.0610  -18.4264 C   0  0  0  0  0  0  0  0  0  0  0  0
    7.7145  -11.8346  -19.7580 N   0  0  0  0  0  0  0  0  0  0  0  0
    6.8706  -12.6799  -20.3723 C   0  0  0  0  0  0  0  0  0  0  0  0
    6.5543  -12.8715  -21.7086 C   0  0  0  0  0  0  0  0  0  0  0  0
    7.1370  -12.1372  -22.6471 N   0  0  0  0  0  0  0  0  0  0  0  0
    5.6307  -13.8397  -22.0500 N   0  0  0  0  0  0  0  0  0  0  0  0
    5.0200  -14.6225  -21.0785 C   0  0  0  0  0  0  0  0  0  0  0  0
    5.3518  -14.4213  -19.7541 N   0  0  0  0  0  0  0  0  0  0  0  0
    6.2564  -13.4631  -19.3982 C   0  0  0  0  0  0  0  0  0  0  0  0
  2  3  1  6  0  0  0
  2  6  1  0  0  0  0
  2  1  1  0  0  0  0
  4  3  2  0  0  0  0
  5  3  1  0  0  0  0
  6  7  2  0  0  0  0
  8  7  1  1  0  0  0
  8  9  1  0  0  0  0
  8 10  1  0  0  0  0
 11 10  1  6  0  0  0
 11 13  1  0  0  0  0
 12 11  1  0  0  0  0
 12 17  1  0  0  0  0
 13 14  1  1  0  0  0
 13 15  1  0  0  0  0
 15 16  1  1  0  0  0
 17 18  1  6  0  0  0
 17 15  1  0  0  0  0
 18 19  1  0  0  0  0
 20 19  2  0  0  0  0
 21 27  2  0  0  0  0
 21 20  1  0  0  0  0
 22 21  1  0  0  0  0
 23 22  1  0  0  0  0
 24 22  2  0  0  0  0
 24 25  1  0  0  0  0
 25 26  2  0  0  0  0
 26 27  1  0  0  0  0
 27 18  1  0  0  0  0
M  END
>  <CHROM.1>
113.88652708,115.08679975,-40.00295326,49.07871660,118.91727628,34.43968384
6.92770130,-13.77104130,-15.53500499,0.56473533,1.48306641,2.74383127

>  <Name>
lig.pdb

>  <RI>
0

>  <Rbt.Current_Directory>
/home/itssahil/PROJECTS/Mol_Feturizer/New_Systems/rnas/4b5r

>  <Rbt.Executable>
rbdock ($Id: //depot/dev/client3/rdock/2013.1/src/exe/rbdock.cxx#4 $)

>  <Rbt.Library>
libRbt.so (2013.1, Build901 2013/11/27)

>  <Rbt.Parameter_File>
/export/apps/rDock/src/rDock_2013.1_src/data/scripts/dock_solv.prm

>  <Rbt.Receptor>
prm/blind_docking_40.prm

>  <SCORE>
-8.16633

>  <SCORE.INTER>
-10.3562

>  <SCORE.INTER.CONST>
1

>  <SCORE.INTER.POLAR>
0

>  <SCORE.INTER.ROT>
6

>  <SCORE.INTER.SOLV>
10.7938

>  <SCORE.INTER.VDW>
-18.1021

>  <SCORE.INTER.norm>
-0.383565

>  <SCORE.INTRA>
2.18992

>  <SCORE.INTRA.DIHEDRAL>
1.81252

>  <SCORE.INTRA.DIHEDRAL.0>
10.2917

>  <SCORE.INTRA.POLAR>
0

>  <SCORE.INTRA.POLAR.0>
0

>  <SCORE.INTRA.REPUL>
0

>  <SCORE.INTRA.REPUL.0>
0

>  <SCORE.INTRA.SOLV>
-2.87204

>  <SCORE.INTRA.SOLV.lig_0>
-39.6315

>  <SCORE.INTRA.VDW>
2.71968

>  <SCORE.INTRA.VDW.0>
-4.02152

>  <SCORE.INTRA.norm>
0.081108

>  <SCORE.RESTR>
0

>  <SCORE.RESTR.CAVITY>
0

>  <SCORE.RESTR.norm>
0

>  <SCORE.SYSTEM>
0

>  <SCORE.SYSTEM.CONST>
0

>  <SCORE.SYSTEM.DIHEDRAL>
0

>  <SCORE.SYSTEM.SOLV>
0

>  <SCORE.SYSTEM.norm>
0

>  <SCORE.heavy>
27

>  <SCORE.norm>
-0.302457

>  <RMSD>
9.972

$$$$
lig.pdb
 OpenBabel11021811493D
libRbt.so/2013.1/901 2013/11/27
 27 29  0  0  0  0  0  0  0  0999 V2000
    6.4247   -6.1583  -17.1326 N   0  0  0  0  0  0  0  0  0  0  0  0
    7.7800   -6.7648  -16.9617 C   0  0  2  0  0  0  0  0  0  0  0  0
    8.7580   -6.0774  -17.9100 C   0  0  0  0  0  0  0  0  0  0  0  0
    9.8983   -5.8361  -17.5316 O   0  0  0  0  0  0  0  0  0  0  0  0
    8.4513   -5.7403  -19.0607 O   0  0  0  0  0  0  0  0  0  0  0  0
    7.7990   -8.2972  -17.1332 C   0  0  0  0  0  0  0  0  0  0  0  0
    8.3861   -8.8437  -18.4611 C   0  0  0  0  0  0  0  0  0  0  0  0
    8.4326  -10.6678  -18.7333 S   0  0  2  0  0  0  0  0  0  0  0  0
    7.9295  -10.7850  -20.4632 C   0  0  0  0  0  0  0  0  0  0  0  0
    6.9220  -11.2547  -17.9362 C   0  0  0  0  0  0  0  0  0  0  0  0
    7.0005  -12.7622  -17.7345 C   0  0  1  0  0  0  0  0  0  0  0  0
    7.9972  -13.1367  -16.7955 O   0  0  0  0  0  0  0  0  0  0  0  0
    5.7350  -13.3503  -17.1706 C   0  0  1  0  0  0  0  0  0  0  0  0
    4.7767  -13.4890  -18.1798 O   0  0  0  0  0  0  0  0  0  0  0  0
    6.2496  -14.6759  -16.6545 C   0  0  1  0  0  0  0  0  0  0  0  0
    6.3207  -15.6145  -17.7085 O   0  0  0  0  0  0  0  0  0  0  0  0
    7.6623  -14.3643  -16.1730 C   0  0  2  0  0  0  0  0  0  0  0  0
    7.8237  -14.2936  -14.6948 N   0  0  0  0  0  0  0  0  0  0  0  0
    8.7185  -15.0288  -13.9587 C   0  0  0  0  0  0  0  0  0  0  0  0
    8.5883  -14.7072  -12.6521 N   0  0  0  0  0  0  0  0  0  0  0  0
    7.6321  -13.7716  -12.5325 C   0  0  0  0  0  0  0  0  0  0  0  0
    7.1191  -13.1006  -11.4329 C   0  0  0  0  0  0  0  0  0  0  0  0
    7.5890  -13.3487  -10.2174 N   0  0  0  0  0  0  0  0  0  0  0  0
    6.1186  -12.1675  -11.6198 N   0  0  0  0  0  0  0  0  0  0  0  0
    5.6239  -11.8907  -12.8880 C   0  0  0  0  0  0  0  0  0  0  0  0
    6.1508  -12.5643  -13.9712 N   0  0  0  0  0  0  0  0  0  0  0  0
    7.1343  -13.4959  -13.8036 C   0  0  0  0  0  0  0  0  0  0  0  0
  2  3  1  6  0  0  0
  2  6  1  0  0  0  0
  2  1  1  0  0  0  0
  4  3  2  0  0  0  0
  5  3  1  0  0  0  0
  6  7  2  0  0  0  0
  8  7  1  1  0  0  0
  8  9  1  0  0  0  0
  8 10  1  0  0  0  0
 11 10  1  1  0  0  0
 11 13  1  0  0  0  0
 12 11  1  0  0  0  0
 12 17  1  0  0  0  0
 13 14  1  6  0  0  0
 13 15  1  0  0  0  0
 15 16  1  6  0  0  0
 17 18  1  1  0  0  0
 17 15  1  0  0  0  0
 18 19  1  0  0  0  0
 20 19  2  0  0  0  0
 21 27  2  0  0  0  0
 21 20  1  0  0  0  0
 22 21  1  0  0  0  0
 23 22  1  0  0  0  0
 24 22  2  0  0  0  0
 24 25  1  0  0  0  0
 25 26  2  0  0  0  0
 26 27  1  0  0  0  0
 27 18  1  0  0  0  0
M  END
>  <CHROM.1>
140.88361651,104.69802313,138.41855857,-164.35814020,67.01103193,-115.98836291
7.42229219,-11.49279573,-16.13091653,-0.75152140,1.38048174,1.70804140

>  <Name>
lig.pdb

>  <RI>
0

>  <Rbt.Current_Directory>
/home/itssahil/PROJECTS/Mol_Feturizer/New_Systems/rnas/4b5r

>  <Rbt.Executable>
rbdock ($Id: //depot/dev/client3/rdock/2013.1/src/exe/rbdock.cxx#4 $)

>  <Rbt.Library>
libRbt.so (2013.1, Build901 2013/11/27)

>  <Rbt.Parameter_File>
/export/apps/rDock/src/rDock_2013.1_src/data/scripts/dock_solv.prm

>  <Rbt.Receptor>
prm/blind_docking_60.prm

>  <SCORE>
-11.7973

>  <SCORE.INTER>
-11.1004

>  <SCORE.INTER.CONST>
1

>  <SCORE.INTER.POLAR>
0

>  <SCORE.INTER.ROT>
6

>  <SCORE.INTER.SOLV>
13.5502

>  <SCORE.INTER.VDW>
-19.517

>  <SCORE.INTER.norm>
-0.411126

>  <SCORE.INTRA>
-0.696943

>  <SCORE.INTRA.DIHEDRAL>
-1.48423

>  <SCORE.INTRA.DIHEDRAL.0>
10.2917

>  <SCORE.INTRA.POLAR>
0

>  <SCORE.INTRA.POLAR.0>
0

>  <SCORE.INTRA.REPUL>
0

>  <SCORE.INTRA.REPUL.0>
0

>  <SCORE.INTRA.SOLV>
-2.70754

>  <SCORE.INTRA.SOLV.lig_0>
-39.6315

>  <SCORE.INTRA.VDW>
1.39894

>  <SCORE.INTRA.VDW.0>
-4.02152

>  <SCORE.INTRA.norm>
-0.0258127

>  <SCORE.RESTR>
0

>  <SCORE.RESTR.CAVITY>
0

>  <SCORE.RESTR.norm>
0

>  <SCORE.SYSTEM>
0

>  <SCORE.SYSTEM.CONST>
0

>  <SCORE.SYSTEM.DIHEDRAL>
0

>  <SCORE.SYSTEM.SOLV>
0

>  <SCORE.SYSTEM.norm>
0

>  <SCORE.heavy>
27

>  <SCORE.norm>
-0.436939

>  <RMSD>
10.126

$$$$
lig.pdb
 OpenBabel11021811493D
libRbt.so/2013.1/901 2013/11/27
 27 29  0  0  0  0  0  0  0  0999 V2000
    9.8565   -8.6837  -16.6965 N   0  0  0  0  0  0  0  0  0  0  0  0
   10.4346  -10.0434  -16.9228 C   0  0  2  0  0  0  0  0  0  0  0  0
   11.9563   -9.9388  -16.9623 C   0  0  0  0  0  0  0  0  0  0  0  0
   12.5267   -9.8273  -18.0412 O   0  0  0  0  0  0  0  0  0  0  0  0
   12.6570   -9.9667  -15.9425 O   0  0  0  0  0  0  0  0  0  0  0  0
    9.8777  -10.7529  -18.1735 C   0  0  0  0  0  0  0  0  0  0  0  0
    8.7514  -10.0198  -18.9485 C   0  0  0  0  0  0  0  0  0  0  0  0
    8.0362  -10.8168  -20.4508 S   0  0  2  0  0  0  0  0  0  0  0  0
    7.3474   -9.3916  -21.3191 C   0  0  0  0  0  0  0  0  0  0  0  0
    6.5109  -11.5713  -19.8458 C   0  0  0  0  0  0  0  0  0  0  0  0
    6.8375  -12.8480  -19.0824 C   0  0  1  0  0  0  0  0  0  0  0  0
    7.4480  -12.5926  -17.8264 O   0  0  0  0  0  0  0  0  0  0  0  0
    5.6173  -13.6565  -18.7323 C   0  0  1  0  0  0  0  0  0  0  0  0
    5.1823  -14.3799  -19.8474 O   0  0  0  0  0  0  0  0  0  0  0  0
    6.1718  -14.5361  -17.6335 C   0  0  1  0  0  0  0  0  0  0  0  0
    6.8526  -15.6416  -18.1914 O   0  0  0  0  0  0  0  0  0  0  0  0
    7.1795  -13.6445  -16.9164 C   0  0  2  0  0  0  0  0  0  0  0  0
    6.7347  -13.1272  -15.5933 N   0  0  0  0  0  0  0  0  0  0  0  0
    7.2740  -12.0462  -14.9423 C   0  0  0  0  0  0  0  0  0  0  0  0
    6.6251  -11.8649  -13.7703 N   0  0  0  0  0  0  0  0  0  0  0  0
    5.6711  -12.8036  -13.6571 C   0  0  0  0  0  0  0  0  0  0  0  0
    4.7300  -13.0597  -12.6716 C   0  0  0  0  0  0  0  0  0  0  0  0
    4.6669  -12.2941  -11.5902 N   0  0  0  0  0  0  0  0  0  0  0  0
    3.8562  -14.1167  -12.8331 N   0  0  0  0  0  0  0  0  0  0  0  0
    3.9046  -14.9207  -13.9649 C   0  0  0  0  0  0  0  0  0  0  0  0
    4.8443  -14.6469  -14.9378 N   0  0  0  0  0  0  0  0  0  0  0  0
    5.7212  -13.6112  -14.7906 C   0  0  0  0  0  0  0  0  0  0  0  0
  2  3  1  6  0  0  0
  2  6  1  0  0  0  0
  2  1  1  0  0  0  0
  4  3  2  0  0  0  0
  5  3  1  0  0  0  0
  6  7  2  0  0  0  0
  8  7  1  1  0  0  0
  8  9  1  0  0  0  0
  8 10  1  0  0  0  0
 11 10  1  1  0  0  0
 11 13  1  0  0  0  0
 12 11  1  0  0  0  0
 12 17  1  0  0  0  0
 13 14  1  6  0  0  0
 13 15  1  0  0  0  0
 15 16  1  6  0  0  0
 17 18  1  1  0  0  0
 17 15  1  0  0  0  0
 18 19  1  0  0  0  0
 20 19  2  0  0  0  0
 21 27  2  0  0  0  0
 21 20  1  0  0  0  0
 22 21  1  0  0  0  0
 23 22  1  0  0  0  0
 24 22  2  0  0  0  0
 24 25  1  0  0  0  0
 25 26  2  0  0  0  0
 26 27  1  0  0  0  0
 27 18  1  0  0  0  0
M  END
>  <CHROM.1>
-94.81988355,-4.06901459,-157.82932886,-76.83531042,71.78307118,-41.45629322
7.38683250,-12.17623105,-16.92796950,-0.61365901,0.63713269,1.55552019

>  <Name>
lig.pdb

>  <RI>
0

>  <Rbt.Current_Directory>
/home/itssahil/PROJECTS/Mol_Feturizer/New_Systems/rnas/4b5r

>  <Rbt.Executable>
rbdock ($Id: //depot/dev/client3/rdock/2013.1/src/exe/rbdock.cxx#4 $)

>  <Rbt.Library>
libRbt.so (2013.1, Build901 2013/11/27)

>  <Rbt.Parameter_File>
/export/apps/rDock/src/rDock_2013.1_src/data/scripts/dock_solv.prm

>  <Rbt.Receptor>
prm/blind_docking_80.prm

>  <SCORE>
-13.9708

>  <SCORE.INTER>
-13.5474

>  <SCORE.INTER.CONST>
1

>  <SCORE.INTER.POLAR>
0

>  <SCORE.INTER.ROT>
6

>  <SCORE.INTER.SOLV>
16.3518

>  <SCORE.INTER.VDW>
-22.0822

>  <SCORE.INTER.norm>
-0.501755

>  <SCORE.INTRA>
-0.423434

>  <SCORE.INTRA.DIHEDRAL>
-1.40621

>  <SCORE.INTRA.DIHEDRAL.0>
10.2917

>  <SCORE.INTRA.POLAR>
0

>  <SCORE.INTRA.POLAR.0>
0

>  <SCORE.INTRA.REPUL>
0

>  <SCORE.INTRA.REPUL.0>
0

>  <SCORE.INTRA.SOLV>
-2.06469

>  <SCORE.INTRA.SOLV.lig_0>
-39.6315

>  <SCORE.INTRA.VDW>
1.31202

>  <SCORE.INTRA.VDW.0>
-4.02152

>  <SCORE.INTRA.norm>
-0.0156827

>  <SCORE.RESTR>
0

>  <SCORE.RESTR.CAVITY>
0

>  <SCORE.RESTR.norm>
0

>  <SCORE.SYSTEM>
0

>  <SCORE.SYSTEM.CONST>
0

>  <SCORE.SYSTEM.DIHEDRAL>
0

>  <SCORE.SYSTEM.SOLV>
0

>  <SCORE.SYSTEM.norm>
0

>  <SCORE.heavy>
27

>  <SCORE.norm>
-0.517438

>  <RMSD>
10.201

$$$$
lig.pdb
 OpenBabel11021811493D
libRbt.so/2013.1/901 2013/11/27
 27 29  0  0  0  0  0  0  0  0999 V2000
    0.2006   -7.8163  -18.3567 N   0  0  0  0  0  0  0  0  0  0  0  0
    1.6349   -7.8793  -18.7724 C   0  0  2  0  0  0  0  0  0  0  0  0
    1.7170   -8.3906  -20.2077 C   0  0  0  0  0  0  0  0  0  0  0  0
    2.8050   -8.7040  -20.6765 O   0  0  0  0  0  0  0  0  0  0  0  0
    0.7236   -8.5021  -20.9375 O   0  0  0  0  0  0  0  0  0  0  0  0
    2.5203   -8.7073  -17.8193 C   0  0  0  0  0  0  0  0  0  0  0  0
    3.8487   -8.0535  -17.3560 C   0  0  0  0  0  0  0  0  0  0  0  0
    4.9580   -8.9929  -16.2200 S   0  0  2  0  0  0  0  0  0  0  0  0
    6.5009   -8.0692  -16.3808 C   0  0  0  0  0  0  0  0  0  0  0  0
    5.3862  -10.4687  -17.1691 C   0  0  0  0  0  0  0  0  0  0  0  0
    6.3023  -11.3621  -16.3433 C   0  0  1  0  0  0  0  0  0  0  0  0
    5.8422  -12.7034  -16.2762 O   0  0  0  0  0  0  0  0  0  0  0  0
    7.6869  -11.4844  -16.9206 C   0  0  1  0  0  0  0  0  0  0  0  0
    8.4403  -10.3475  -16.6108 O   0  0  0  0  0  0  0  0  0  0  0  0
    8.1742  -12.7300  -16.2140 C   0  0  1  0  0  0  0  0  0  0  0  0
    8.6460  -12.4044  -14.9224 O   0  0  0  0  0  0  0  0  0  0  0  0
    6.9257  -13.5949  -16.0815 C   0  0  2  0  0  0  0  0  0  0  0  0
    6.8591  -14.7537  -17.0137 N   0  0  0  0  0  0  0  0  0  0  0  0
    6.6573  -14.6711  -18.3685 C   0  0  0  0  0  0  0  0  0  0  0  0
    6.6557  -15.9167  -18.8937 N   0  0  0  0  0  0  0  0  0  0  0  0
    6.8615  -16.8012  -17.9041 C   0  0  0  0  0  0  0  0  0  0  0  0
    6.9590  -18.1843  -17.8975 C   0  0  0  0  0  0  0  0  0  0  0  0
    6.8448  -18.8694  -19.0276 N   0  0  0  0  0  0  0  0  0  0  0  0
    7.1825  -18.8380  -16.7019 N   0  0  0  0  0  0  0  0  0  0  0  0
    7.3138  -18.1326  -15.5124 C   0  0  0  0  0  0  0  0  0  0  0  0
    7.2196  -16.7560  -15.5395 N   0  0  0  0  0  0  0  0  0  0  0  0
    6.9906  -16.0942  -16.7111 C   0  0  0  0  0  0  0  0  0  0  0  0
  2  3  1  6  0  0  0
  2  6  1  0  0  0  0
  2  1  1  0  0  0  0
  4  3  2  0  0  0  0
  5  3  1  0  0  0  0
  6  7  2  0  0  0  0
  8  7  1  6  0  0  0
  8  9  1  0  0  0  0
  8 10  1  0  0  0  0
 11 10  1  6  0  0  0
 11 13  1  0  0  0  0
 12 11  1  0  0  0  0
 12 17  1  0  0  0  0
 13 14  1  1  0  0  0
 13 15  1  0  0  0  0
 15 16  1  1  0  0  0
 17 18  1  6  0  0  0
 17 15  1  0  0  0  0
 18 19  1  0  0  0  0
 20 19  2  0  0  0  0
 21 27  2  0  0  0  0
 21 20  1  0  0  0  0
 22 21  1  0  0  0  0
 23 22  1  0  0  0  0
 24 22  2  0  0  0  0
 24 25  1  0  0  0  0
 25 26  2  0  0  0  0
 26 27  1  0  0  0  0
 27 18  1  0  0  0  0
M  END
>  <CHROM.1>
-169.31655358,-131.33506027,164.08235451,-179.47822527,128.47812668,48.77794232
5.58602874,-12.30428209,-17.38440705,2.20169450,-0.66476908,0.24027016

>  <Name>
lig.pdb

>  <RI>
0

>  <Rbt.Current_Directory>
/home/itssahil/PROJECTS/Mol_Feturizer/New_Systems/rnas/4b5r

>  <Rbt.Executable>
rbdock ($Id: //depot/dev/client3/rdock/2013.1/src/exe/rbdock.cxx#4 $)

>  <Rbt.Library>
libRbt.so (2013.1, Build901 2013/11/27)

>  <Rbt.Parameter_File>
/export/apps/rDock/src/rDock_2013.1_src/data/scripts/dock_solv.prm

>  <Rbt.Receptor>
prm/blind_docking_40.prm

>  <SCORE>
-10.4439

>  <SCORE.INTER>
-11.8163

>  <SCORE.INTER.CONST>
1

>  <SCORE.INTER.POLAR>
0

>  <SCORE.INTER.ROT>
6

>  <SCORE.INTER.SOLV>
16.0195

>  <SCORE.INTER.VDW>
-20.8174

>  <SCORE.INTER.norm>
-0.437642

>  <SCORE.INTRA>
1.37247

>  <SCORE.INTRA.DIHEDRAL>
2.15943

>  <SCORE.INTRA.DIHEDRAL.0>
10.2917

>  <SCORE.INTRA.POLAR>
0

>  <SCORE.INTRA.POLAR.0>
0

>  <SCORE.INTRA.REPUL>
0

>  <SCORE.INTRA.REPUL.0>
0

>  <SCORE.INTRA.SOLV>
-3.16666

>  <SCORE.INTRA.SOLV.lig_0>
-39.6315

>  <SCORE.INTRA.VDW>
1.87608

>  <SCORE.INTRA.VDW.0>
-4.02152

>  <SCORE.INTRA.norm>
0.0508321

>  <SCORE.RESTR>
0

>  <SCORE.RESTR.CAVITY>
0

>  <SCORE.RESTR.norm>
0

>  <SCORE.SYSTEM>
0

>  <SCORE.SYSTEM.CONST>
0

>  <SCORE.SYSTEM.DIHEDRAL>
0

>  <SCORE.SYSTEM.SOLV>
0

>  <SCORE.SYSTEM.norm>
0

>  <SCORE.heavy>
27

>  <SCORE.norm>
-0.386809

>  <RMSD>
10.269

$$$$
lig.pdb
 OpenBabel11021811493D
libRbt.so/2013.1/901 2013/11/27
 27 29  0  0  0  0  0  0  0  0999 V2000
    6.7418  -14.7327  -10.0595 N   0  0  0  0  0  0  0  0  0  0  0  0
    7.6991  -15.0414  -11.1651 C   0  0  2  0  0  0  0  0  0  0  0  0
    7.8897  -13.7943  -12.0233 C   0  0  0  0  0  0  0  0  0  0  0  0
    8.8189  -13.7456  -12.8209 O   0  0  0  0  0  0  0  0  0  0  0  0
    7.1436  -12.8095  -11.9501 O   0  0  0  0  0  0  0  0  0  0  0  0
    7.2921  -16.2626  -12.0140 C   0  0  0  0  0  0  0  0  0  0  0  0
    7.1315  -16.0302  -13.5394 C   0  0  0  0  0  0  0  0  0  0  0  0
    6.6398  -17.4483  -14.6121 S   0  0  2  0  0  0  0  0  0  0  0  0
    7.8717  -18.6868  -14.1560 C   0  0  0  0  0  0  0  0  0  0  0  0
    7.2637  -16.9839  -16.2421 C   0  0  0  0  0  0  0  0  0  0  0  0
    6.4202  -15.8505  -16.8108 C   0  0  1  0  0  0  0  0  0  0  0  0
    6.8427  -14.5738  -16.3562 O   0  0  0  0  0  0  0  0  0  0  0  0
    6.5041  -15.7453  -18.3099 C   0  0  1  0  0  0  0  0  0  0  0  0
    5.6896  -16.7127  -18.9071 O   0  0  0  0  0  0  0  0  0  0  0  0
    6.0005  -14.3342  -18.5186 C   0  0  1  0  0  0  0  0  0  0  0  0
    4.5875  -14.3147  -18.5081 O   0  0  0  0  0  0  0  0  0  0  0  0
    6.5151  -13.5720  -17.3026 C   0  0  2  0  0  0  0  0  0  0  0  0
    7.6672  -12.6668  -17.5666 N   0  0  0  0  0  0  0  0  0  0  0  0
    8.0684  -12.2344  -18.8056 C   0  0  0  0  0  0  0  0  0  0  0  0
    9.1441  -11.4276  -18.6671 N   0  0  0  0  0  0  0  0  0  0  0  0
    9.4391  -11.3242  -17.3609 C   0  0  0  0  0  0  0  0  0  0  0  0
   10.4248  -10.6241  -16.6821 C   0  0  0  0  0  0  0  0  0  0  0  0
   11.2973   -9.8794  -17.3483 N   0  0  0  0  0  0  0  0  0  0  0  0
   10.4827  -10.7070  -15.3049 N   0  0  0  0  0  0  0  0  0  0  0  0
    9.5697  -11.4752  -14.5937 C   0  0  0  0  0  0  0  0  0  0  0  0
    8.5921  -12.1604  -15.2861 N   0  0  0  0  0  0  0  0  0  0  0  0
    8.5254  -12.0964  -16.6479 C   0  0  0  0  0  0  0  0  0  0  0  0
  2  3  1  6  0  0  0
  2  6  1  0  0  0  0
  2  1  1  0  0  0  0
  4  3  2  0  0  0  0
  5  3  1  0  0  0  0
  6  7  2  0  0  0  0
  8  7  1  1  0  0  0
  8  9  1  0  0  0  0
  8 10  1  0  0  0  0
 11 10  1  1  0  0  0
 11 13  1  0  0  0  0
 12 11  1  0  0  0  0
 12 17  1  0  0  0  0
 13 14  1  6  0  0  0
 13 15  1  0  0  0  0
 15 16  1  1  0  0  0
 17 18  1  6  0  0  0
 17 15  1  0  0  0  0
 18 19  1  0  0  0  0
 20 19  2  0  0  0  0
 21 27  2  0  0  0  0
 21 20  1  0  0  0  0
 22 21  1  0  0  0  0
 23 22  1  0  0  0  0
 24 22  2  0  0  0  0
 24 25  1  0  0  0  0
 25 26  2  0  0  0  0
 26 27  1  0  0  0  0
 27 18  1  0  0  0  0
M  END
>  <CHROM.1>
165.94612362,123.32829536,-52.84367735,-71.75228666,84.40726030,135.93585503
7.69085742,-14.11394555,-15.56292241,-2.19952920,-1.01819863,-1.27183181

>  <Name>
lig.pdb

>  <RI>
0

>  <Rbt.Current_Directory>
/home/itssahil/PROJECTS/Mol_Feturizer/New_Systems/rnas/4b5r

>  <Rbt.Executable>
rbdock ($Id: //depot/dev/client3/rdock/2013.1/src/exe/rbdock.cxx#4 $)

>  <Rbt.Library>
libRbt.so (2013.1, Build901 2013/11/27)

>  <Rbt.Parameter_File>
/export/apps/rDock/src/rDock_2013.1_src/data/scripts/dock_solv.prm

>  <Rbt.Receptor>
prm/blind_docking_80.prm

>  <SCORE>
-12.5818

>  <SCORE.INTER>
-13.3934

>  <SCORE.INTER.CONST>
1

>  <SCORE.INTER.POLAR>
0

>  <SCORE.INTER.ROT>
6

>  <SCORE.INTER.SOLV>
15.2766

>  <SCORE.INTER.VDW>
-21.6212

>  <SCORE.INTER.norm>
-0.496052

>  <SCORE.INTRA>
0.811577

>  <SCORE.INTRA.DIHEDRAL>
-1.43309

>  <SCORE.INTRA.DIHEDRAL.0>
10.2917

>  <SCORE.INTRA.POLAR>
0

>  <SCORE.INTRA.POLAR.0>
0

>  <SCORE.INTRA.REPUL>
0.131594

>  <SCORE.INTRA.REPUL.0>
0

>  <SCORE.INTRA.SOLV>
-2.23067

>  <SCORE.INTRA.SOLV.lig_0>
-39.6315

>  <SCORE.INTRA.VDW>
1.98549

>  <SCORE.INTRA.VDW.0>
-4.02152

>  <SCORE.INTRA.norm>
0.0300584

>  <SCORE.RESTR>
0

>  <SCORE.RESTR.CAVITY>
0

>  <SCORE.RESTR.norm>
0

>  <SCORE.SYSTEM>
0

>  <SCORE.SYSTEM.CONST>
0

>  <SCORE.SYSTEM.DIHEDRAL>
0

>  <SCORE.SYSTEM.SOLV>
0

>  <SCORE.SYSTEM.norm>
0

>  <SCORE.heavy>
27

>  <SCORE.norm>
-0.465994

>  <RMSD>
10.354

$$$$
lig.pdb
 OpenBabel11021811493D
libRbt.so/2013.1/901 2013/11/27
 27 29  0  0  0  0  0  0  0  0999 V2000
    3.4650   -7.8535  -20.7436 N   0  0  0  0  0  0  0  0  0  0  0  0
    2.4789   -7.8708  -19.6206 C   0  0  2  0  0  0  0  0  0  0  0  0
    1.9937   -6.4478  -19.3600 C   0  0  0  0  0  0  0  0  0  0  0  0
    2.1911   -5.5784  -20.2007 O   0  0  0  0  0  0  0  0  0  0  0  0
    1.4051   -6.1198  -18.3218 O   0  0  0  0  0  0  0  0  0  0  0  0
    3.0139   -8.5364  -18.3366 C   0  0  0  0  0  0  0  0  0  0  0  0
    4.3573   -9.3030  -18.4555 C   0  0  0  0  0  0  0  0  0  0  0  0
    5.0504  -10.1282  -16.9581 S   0  0  2  0  0  0  0  0  0  0  0  0
    5.2558   -8.7264  -15.8391 C   0  0  0  0  0  0  0  0  0  0  0  0
    6.7773  -10.4234  -17.3970 C   0  0  0  0  0  0  0  0  0  0  0  0
    7.5166  -11.0131  -16.2032 C   0  0  1  0  0  0  0  0  0  0  0  0
    6.9126  -12.2034  -15.7199 O   0  0  0  0  0  0  0  0  0  0  0  0
    8.9261  -11.4299  -16.5273 C   0  0  1  0  0  0  0  0  0  0  0  0
    9.7655  -10.3116  -16.5532 O   0  0  0  0  0  0  0  0  0  0  0  0
    9.2139  -12.3615  -15.3707 C   0  0  1  0  0  0  0  0  0  0  0  0
    9.6014  -11.6194  -14.2323 O   0  0  0  0  0  0  0  0  0  0  0  0
    7.8738  -13.0328  -15.0915 C   0  0  2  0  0  0  0  0  0  0  0  0
    7.7674  -14.4446  -15.5517 N   0  0  0  0  0  0  0  0  0  0  0  0
    8.1785  -15.5437  -14.8405 C   0  0  0  0  0  0  0  0  0  0  0  0
    7.9280  -16.6587  -15.5627 N   0  0  0  0  0  0  0  0  0  0  0  0
    7.3547  -16.2999  -16.7231 C   0  0  0  0  0  0  0  0  0  0  0  0
    6.8961  -17.0398  -17.8024 C   0  0  0  0  0  0  0  0  0  0  0  0
    6.9887  -18.3631  -17.7953 N   0  0  0  0  0  0  0  0  0  0  0  0
    6.3369  -16.3828  -18.8804 N   0  0  0  0  0  0  0  0  0  0  0  0
    6.2248  -14.9983  -18.8971 C   0  0  0  0  0  0  0  0  0  0  0  0
    6.6814  -14.2791  -17.8114 N   0  0  0  0  0  0  0  0  0  0  0  0
    7.2446  -14.9117  -16.7410 C   0  0  0  0  0  0  0  0  0  0  0  0
  2  3  1  1  0  0  0
  2  6  1  0  0  0  0
  2  1  1  0  0  0  0
  4  3  2  0  0  0  0
  5  3  1  0  0  0  0
  6  7  2  0  0  0  0
  8  7  1  6  0  0  0
  8  9  1  0  0  0  0
  8 10  1  0  0  0  0
 11 10  1  6  0  0  0
 11 13  1  0  0  0  0
 12 11  1  0  0  0  0
 12 17  1  0  0  0  0
 13 14  1  1  0  0  0
 13 15  1  0  0  0  0
 15 16  1  1  0  0  0
 17 18  1  6  0  0  0
 17 15  1  0  0  0  0
 18 19  1  0  0  0  0
 20 19  2  0  0  0  0
 21 27  2  0  0  0  0
 21 20  1  0  0  0  0
 22 21  1  0  0  0  0
 23 22  1  0  0  0  0
 24 22  2  0  0  0  0
 24 25  1  0  0  0  0
 25 26  2  0  0  0  0
 26 27  1  0  0  0  0
 27 18  1  0  0  0  0
M  END
>  <CHROM.1>
15.66630287,-10.56130424,-60.00410563,175.70862921,56.29461825,-155.24401480
6.14030487,-11.73202024,-17.21541605,2.26940079,-0.68787664,0.19237871

>  <Name>
lig.pdb

>  <RI>
0

>  <Rbt.Current_Directory>
/home/itssahil/PROJECTS/Mol_Feturizer/New_Systems/rnas/4b5r

>  <Rbt.Executable>
rbdock ($Id: //depot/dev/client3/rdock/2013.1/src/exe/rbdock.cxx#4 $)

>  <Rbt.Library>
libRbt.so (2013.1, Build901 2013/11/27)

>  <Rbt.Parameter_File>
/export/apps/rDock/src/rDock_2013.1_src/data/scripts/dock_solv.prm

>  <Rbt.Receptor>
prm/blind_docking_40.prm

>  <SCORE>
-11.8906

>  <SCORE.INTER>
-11.0901

>  <SCORE.INTER.CONST>
1

>  <SCORE.INTER.POLAR>
0

>  <SCORE.INTER.ROT>
6

>  <SCORE.INTER.SOLV>
14.5153

>  <SCORE.INTER.VDW>
-19.8318

>  <SCORE.INTER.norm>
-0.410744

>  <SCORE.INTRA>
-0.80047

>  <SCORE.INTRA.DIHEDRAL>
-3.03476

>  <SCORE.INTRA.DIHEDRAL.0>
10.2917

>  <SCORE.INTRA.POLAR>
0

>  <SCORE.INTRA.POLAR.0>
0

>  <SCORE.INTRA.REPUL>
0

>  <SCORE.INTRA.REPUL.0>
0

>  <SCORE.INTRA.SOLV>
-2.10953

>  <SCORE.INTRA.SOLV.lig_0>
-39.6315

>  <SCORE.INTRA.VDW>
1.77168

>  <SCORE.INTRA.VDW.0>
-4.02152

>  <SCORE.INTRA.norm>
-0.029647

>  <SCORE.RESTR>
0

>  <SCORE.RESTR.CAVITY>
0

>  <SCORE.RESTR.norm>
0

>  <SCORE.SYSTEM>
0

>  <SCORE.SYSTEM.CONST>
0

>  <SCORE.SYSTEM.DIHEDRAL>
0

>  <SCORE.SYSTEM.SOLV>
0

>  <SCORE.SYSTEM.norm>
0

>  <SCORE.heavy>
27

>  <SCORE.norm>
-0.440391

>  <RMSD>
10.457

$$$$
lig.pdb
 OpenBabel11021811493D
libRbt.so/2013.1/901 2013/11/27
 27 29  0  0  0  0  0  0  0  0999 V2000
    6.6403   -5.3786  -17.2968 N   0  0  0  0  0  0  0  0  0  0  0  0
    6.1967   -6.6540  -16.6562 C   0  0  2  0  0  0  0  0  0  0  0  0
    5.2533   -6.3311  -15.5012 C   0  0  0  0  0  0  0  0  0  0  0  0
    4.5960   -5.2973  -15.5287 O   0  0  0  0  0  0  0  0  0  0  0  0
    5.1196   -7.0707  -14.5179 O   0  0  0  0  0  0  0  0  0  0  0  0
    7.3614   -7.5592  -16.2068 C   0  0  0  0  0  0  0  0  0  0  0  0
    7.3389   -9.0268  -16.7092 C   0  0  0  0  0  0  0  0  0  0  0  0
    8.6996  -10.1652  -16.2030 S   0  0  2  0  0  0  0  0  0  0  0  0
   10.0830   -9.5217  -17.1682 C   0  0  0  0  0  0  0  0  0  0  0  0
    8.3568  -11.6758  -17.1315 C   0  0  0  0  0  0  0  0  0  0  0  0
    7.1439  -12.3795  -16.5371 C   0  0  1  0  0  0  0  0  0  0  0  0
    6.5105  -13.2511  -17.4615 O   0  0  0  0  0  0  0  0  0  0  0  0
    7.4886  -13.2738  -15.3766 C   0  0  1  0  0  0  0  0  0  0  0  0
    7.6714  -12.5114  -14.2185 O   0  0  0  0  0  0  0  0  0  0  0  0
    6.2556  -14.1485  -15.3231 C   0  0  1  0  0  0  0  0  0  0  0  0
    5.2209  -13.4893  -14.6218 O   0  0  0  0  0  0  0  0  0  0  0  0
    5.8446  -14.3014  -16.7833 C   0  0  2  0  0  0  0  0  0  0  0  0
    6.1485  -15.6271  -17.3887 N   0  0  0  0  0  0  0  0  0  0  0  0
    6.8585  -16.6322  -16.7816 C   0  0  0  0  0  0  0  0  0  0  0  0
    6.9391  -17.6884  -17.6214 N   0  0  0  0  0  0  0  0  0  0  0  0
    6.2866  -17.3867  -18.7560 C   0  0  0  0  0  0  0  0  0  0  0  0
    6.0601  -18.1070  -19.9189 C   0  0  0  0  0  0  0  0  0  0  0  0
    6.5293  -19.3414  -20.0446 N   0  0  0  0  0  0  0  0  0  0  0  0
    5.3353  -17.5260  -20.9406 N   0  0  0  0  0  0  0  0  0  0  0  0
    4.8298  -16.2379  -20.8188 C   0  0  0  0  0  0  0  0  0  0  0  0
    5.0605  -15.5385  -19.6517 N   0  0  0  0  0  0  0  0  0  0  0  0
    5.7819  -16.0943  -18.6350 C   0  0  0  0  0  0  0  0  0  0  0  0
  2  3  1  1  0  0  0
  2  6  1  0  0  0  0
  2  1  1  0  0  0  0
  4  3  2  0  0  0  0
  5  3  1  0  0  0  0
  6  7  2  0  0  0  0
  8  7  1  6  0  0  0
  8  9  1  0  0  0  0
  8 10  1  0  0  0  0
 11 10  1  6  0  0  0
 11 13  1  0  0  0  0
 12 11  1  0  0  0  0
 12 17  1  0  0  0  0
 13 14  1  1  0  0  0
 13 15  1  0  0  0  0
 15 16  1  1  0  0  0
 17 18  1  6  0  0  0
 17 15  1  0  0  0  0
 18 19  1  0  0  0  0
 20 19  2  0  0  0  0
 21 27  2  0  0  0  0
 21 20  1  0  0  0  0
 22 21  1  0  0  0  0
 23 22  1  0  0  0  0
 24 22  2  0  0  0  0
 24 25  1  0  0  0  0
 25 26  2  0  0  0  0
 26 27  1  0  0  0  0
 27 18  1  0  0  0  0
M  END
>  <CHROM.1>
27.08844424,-126.98379324,-71.56182015,-72.55479063,157.57791482,113.15064034
6.60926369,-12.46306964,-17.07157248,1.48214145,-0.96692455,0.22295282

>  <Name>
lig.pdb

>  <RI>
0

>  <Rbt.Current_Directory>
/home/itssahil/PROJECTS/Mol_Feturizer/New_Systems/rnas/4b5r

>  <Rbt.Executable>
rbdock ($Id: //depot/dev/client3/rdock/2013.1/src/exe/rbdock.cxx#4 $)

>  <Rbt.Library>
libRbt.so (2013.1, Build901 2013/11/27)

>  <Rbt.Parameter_File>
/export/apps/rDock/src/rDock_2013.1_src/data/scripts/dock_solv.prm

>  <Rbt.Receptor>
prm/blind_docking_100.prm

>  <SCORE>
-11.4549

>  <SCORE.INTER>
-11.2718

>  <SCORE.INTER.CONST>
1

>  <SCORE.INTER.POLAR>
0

>  <SCORE.INTER.ROT>
6

>  <SCORE.INTER.SOLV>
13.0825

>  <SCORE.INTER.VDW>
-19.4753

>  <SCORE.INTER.norm>
-0.417473

>  <SCORE.INTRA>
-0.18319

>  <SCORE.INTRA.DIHEDRAL>
-1.24785

>  <SCORE.INTRA.DIHEDRAL.0>
10.2917

>  <SCORE.INTRA.POLAR>
0

>  <SCORE.INTRA.POLAR.0>
0

>  <SCORE.INTRA.REPUL>
0.00586151

>  <SCORE.INTRA.REPUL.0>
0

>  <SCORE.INTRA.SOLV>
-3.26856

>  <SCORE.INTRA.SOLV.lig_0>
-39.6315

>  <SCORE.INTRA.VDW>
2.04571

>  <SCORE.INTRA.VDW.0>
-4.02152

>  <SCORE.INTRA.norm>
-0.0067848

>  <SCORE.RESTR>
0

>  <SCORE.RESTR.CAVITY>
0

>  <SCORE.RESTR.norm>
0

>  <SCORE.SYSTEM>
0

>  <SCORE.SYSTEM.CONST>
0

>  <SCORE.SYSTEM.DIHEDRAL>
0

>  <SCORE.SYSTEM.SOLV>
0

>  <SCORE.SYSTEM.norm>
0

>  <SCORE.heavy>
27

>  <SCORE.norm>
-0.424257

>  <RMSD>
10.506

$$$$
lig.pdb
 OpenBabel11021811493D
libRbt.so/2013.1/901 2013/11/27
 27 29  0  0  0  0  0  0  0  0999 V2000
    7.9900  -12.9988  -12.2341 N   0  0  0  0  0  0  0  0  0  0  0  0
    6.8844  -12.0117  -12.4273 C   0  0  2  0  0  0  0  0  0  0  0  0
    5.6499  -12.4896  -11.6686 C   0  0  0  0  0  0  0  0  0  0  0  0
    5.7717  -13.3275  -10.7827 O   0  0  0  0  0  0  0  0  0  0  0  0
    4.5107  -12.0704  -11.9100 O   0  0  0  0  0  0  0  0  0  0  0  0
    6.5675  -11.7186  -13.9077 C   0  0  0  0  0  0  0  0  0  0  0  0
    6.3358  -12.9456  -14.8282 C   0  0  0  0  0  0  0  0  0  0  0  0
    5.9588  -12.6653  -16.6122 S   0  0  2  0  0  0  0  0  0  0  0  0
    5.1906  -14.2346  -17.0670 C   0  0  0  0  0  0  0  0  0  0  0  0
    7.5612  -12.8648  -17.4212 C   0  0  0  0  0  0  0  0  0  0  0  0
    8.3733  -11.5849  -17.2740 C   0  0  1  0  0  0  0  0  0  0  0  0
    7.6519  -10.4306  -17.6770 O   0  0  0  0  0  0  0  0  0  0  0  0
    8.7593  -11.2896  -15.8495 C   0  0  1  0  0  0  0  0  0  0  0  0
    9.8499  -12.0796  -15.4721 O   0  0  0  0  0  0  0  0  0  0  0  0
    9.0987   -9.8190  -15.9520 C   0  0  1  0  0  0  0  0  0  0  0  0
   10.4164   -9.6558  -16.4356 O   0  0  0  0  0  0  0  0  0  0  0  0
    8.1200   -9.2831  -16.9910 C   0  0  2  0  0  0  0  0  0  0  0  0
    6.9973   -8.4741  -16.4419 N   0  0  0  0  0  0  0  0  0  0  0  0
    5.8044   -8.9781  -15.9883 C   0  0  0  0  0  0  0  0  0  0  0  0
    5.0250   -7.9587  -15.5629 N   0  0  0  0  0  0  0  0  0  0  0  0
    5.6966   -6.8070  -15.7254 C   0  0  0  0  0  0  0  0  0  0  0  0
    5.3662   -5.4897  -15.4457 C   0  0  0  0  0  0  0  0  0  0  0  0
    4.1885   -5.1931  -14.9123 N   0  0  0  0  0  0  0  0  0  0  0  0
    6.2802   -4.4926  -15.7234 N   0  0  0  0  0  0  0  0  0  0  0  0
    7.5209   -4.7897  -16.2729 C   0  0  0  0  0  0  0  0  0  0  0  0
    7.8343   -6.1071  -16.5391 N   0  0  0  0  0  0  0  0  0  0  0  0
    6.9395   -7.1045  -16.2788 C   0  0  0  0  0  0  0  0  0  0  0  0
  2  3  1  6  0  0  0
  2  6  1  0  0  0  0
  2  1  1  0  0  0  0
  4  3  2  0  0  0  0
  5  3  1  0  0  0  0
  6  7  2  0  0  0  0
  8  7  1  1  0  0  0
  8  9  1  0  0  0  0
  8 10  1  0  0  0  0
 11 10  1  1  0  0  0
 11 13  1  0  0  0  0
 12 11  1  0  0  0  0
 12 17  1  0  0  0  0
 13 14  1  6  0  0  0
 13 15  1  0  0  0  0
 15 16  1  6  0  0  0
 17 18  1  1  0  0  0
 17 15  1  0  0  0  0
 18 19  1  0  0  0  0
 20 19  2  0  0  0  0
 21 27  2  0  0  0  0
 21 20  1  0  0  0  0
 22 21  1  0  0  0  0
 23 22  1  0  0  0  0
 24 22  2  0  0  0  0
 24 25  1  0  0  0  0
 25 26  2  0  0  0  0
 26 27  1  0  0  0  0
 27 18  1  0  0  0  0
M  END
>  <CHROM.1>
18.38718641,50.88696948,-159.71960963,-80.31211447,-51.30549258,32.66686926
6.87905770,-10.09598787,-15.36079887,1.55055890,-0.93503430,2.84585165

>  <Name>
lig.pdb

>  <RI>
0

>  <Rbt.Current_Directory>
/home/itssahil/PROJECTS/Mol_Feturizer/New_Systems/rnas/4b5r

>  <Rbt.Executable>
rbdock ($Id: //depot/dev/client3/rdock/2013.1/src/exe/rbdock.cxx#4 $)

>  <Rbt.Library>
libRbt.so (2013.1, Build901 2013/11/27)

>  <Rbt.Parameter_File>
/export/apps/rDock/src/rDock_2013.1_src/data/scripts/dock_solv.prm

>  <Rbt.Receptor>
prm/blind_docking_80.prm

>  <SCORE>
-12.5805

>  <SCORE.INTER>
-13.1754

>  <SCORE.INTER.CONST>
1

>  <SCORE.INTER.POLAR>
0

>  <SCORE.INTER.ROT>
6

>  <SCORE.INTER.SOLV>
12.6469

>  <SCORE.INTER.VDW>
-20.5992

>  <SCORE.INTER.norm>
-0.487978

>  <SCORE.INTRA>
0.594883

>  <SCORE.INTRA.DIHEDRAL>
1.07718

>  <SCORE.INTRA.DIHEDRAL.0>
10.2917

>  <SCORE.INTRA.POLAR>
0

>  <SCORE.INTRA.POLAR.0>
0

>  <SCORE.INTRA.REPUL>
0

>  <SCORE.INTRA.REPUL.0>
0

>  <SCORE.INTRA.SOLV>
-1.4557

>  <SCORE.INTRA.SOLV.lig_0>
-39.6315

>  <SCORE.INTRA.VDW>
0.784142

>  <SCORE.INTRA.VDW.0>
-4.02152

>  <SCORE.INTRA.norm>
0.0220327

>  <SCORE.RESTR>
0

>  <SCORE.RESTR.CAVITY>
0

>  <SCORE.RESTR.norm>
0

>  <SCORE.SYSTEM>
0

>  <SCORE.SYSTEM.CONST>
0

>  <SCORE.SYSTEM.DIHEDRAL>
0

>  <SCORE.SYSTEM.SOLV>
0

>  <SCORE.SYSTEM.norm>
0

>  <SCORE.heavy>
27

>  <SCORE.norm>
-0.465945

>  <RMSD>
10.568

$$$$
lig.pdb
 OpenBabel11021811493D
libRbt.so/2013.1/901 2013/11/27
 27 29  0  0  0  0  0  0  0  0999 V2000
    5.8882  -20.3825  -10.3523 N   0  0  0  0  0  0  0  0  0  0  0  0
    6.8009  -20.3921  -11.5359 C   0  0  2  0  0  0  0  0  0  0  0  0
    7.8813  -21.4487  -11.3248 C   0  0  0  0  0  0  0  0  0  0  0  0
    8.3664  -22.0193  -12.2948 O   0  0  0  0  0  0  0  0  0  0  0  0
    8.2965  -21.7684  -10.2035 O   0  0  0  0  0  0  0  0  0  0  0  0
    7.4070  -19.0122  -11.8620 C   0  0  0  0  0  0  0  0  0  0  0  0
    7.1361  -18.4487  -13.2818 C   0  0  0  0  0  0  0  0  0  0  0  0
    7.8380  -16.8051  -13.7394 S   0  0  2  0  0  0  0  0  0  0  0  0
    7.7892  -15.9409  -12.1550 C   0  0  0  0  0  0  0  0  0  0  0  0
    6.4699  -15.9783  -14.5798 C   0  0  0  0  0  0  0  0  0  0  0  0
    6.8748  -14.5555  -14.9421 C   0  0  1  0  0  0  0  0  0  0  0  0
    7.7127  -14.5006  -16.0868 O   0  0  0  0  0  0  0  0  0  0  0  0
    5.7048  -13.6829  -15.3096 C   0  0  1  0  0  0  0  0  0  0  0  0
    5.0450  -13.2501  -14.1550 O   0  0  0  0  0  0  0  0  0  0  0  0
    6.4111  -12.5648  -16.0441 C   0  0  1  0  0  0  0  0  0  0  0  0
    6.9323  -11.6294  -15.1220 O   0  0  0  0  0  0  0  0  0  0  0  0
    7.5688  -13.2588  -16.7530 C   0  0  2  0  0  0  0  0  0  0  0  0
    7.3932  -13.4388  -18.2203 N   0  0  0  0  0  0  0  0  0  0  0  0
    6.9515  -14.5853  -18.8315 C   0  0  0  0  0  0  0  0  0  0  0  0
    6.9145  -14.3895  -20.1685 N   0  0  0  0  0  0  0  0  0  0  0  0
    7.3158  -13.1348  -20.4309 C   0  0  0  0  0  0  0  0  0  0  0  0
    7.4512  -12.4300  -21.6172 C   0  0  0  0  0  0  0  0  0  0  0  0
    7.1542  -13.0043  -22.7754 N   0  0  0  0  0  0  0  0  0  0  0  0
    7.8928  -11.1223  -21.5770 N   0  0  0  0  0  0  0  0  0  0  0  0
    8.1982  -10.5052  -20.3705 C   0  0  0  0  0  0  0  0  0  0  0  0
    8.0517  -11.2207  -19.1996 N   0  0  0  0  0  0  0  0  0  0  0  0
    7.6244  -12.5169  -19.2215 C   0  0  0  0  0  0  0  0  0  0  0  0
  2  3  1  1  0  0  0
  2  6  1  0  0  0  0
  2  1  1  0  0  0  0
  4  3  2  0  0  0  0
  5  3  1  0  0  0  0
  6  7  2  0  0  0  0
  8  7  1  1  0  0  0
  8  9  1  0  0  0  0
  8 10  1  0  0  0  0
 11 10  1  6  0  0  0
 11 13  1  0  0  0  0
 12 11  1  0  0  0  0
 12 17  1  0  0  0  0
 13 14  1  1  0  0  0
 13 15  1  0  0  0  0
 15 16  1  1  0  0  0
 17 18  1  6  0  0  0
 17 15  1  0  0  0  0
 18 19  1  0  0  0  0
 20 19  2  0  0  0  0
 21 27  2  0  0  0  0
 21 20  1  0  0  0  0
 22 21  1  0  0  0  0
 23 22  1  0  0  0  0
 24 22  2  0  0  0  0
 24 25  1  0  0  0  0
 25 26  2  0  0  0  0
 26 27  1  0  0  0  0
 27 18  1  0  0  0  0
M  END
>  <CHROM.1>
149.74956130,-122.13453642,-32.82168585,176.30845820,77.78083642,21.84606522
7.25376949,-15.37569714,-15.79771689,1.55398728,-1.31434569,2.30353695

>  <Name>
lig.pdb

>  <RI>
0

>  <Rbt.Current_Directory>
/home/itssahil/PROJECTS/Mol_Feturizer/New_Systems/rnas/4b5r

>  <Rbt.Executable>
rbdock ($Id: //depot/dev/client3/rdock/2013.1/src/exe/rbdock.cxx#4 $)

>  <Rbt.Library>
libRbt.so (2013.1, Build901 2013/11/27)

>  <Rbt.Parameter_File>
/export/apps/rDock/src/rDock_2013.1_src/data/scripts/dock_solv.prm

>  <Rbt.Receptor>
prm/blind_docking_40.prm

>  <SCORE>
-9.41646

>  <SCORE.INTER>
-8.78377

>  <SCORE.INTER.CONST>
1

>  <SCORE.INTER.POLAR>
0

>  <SCORE.INTER.ROT>
6

>  <SCORE.INTER.SOLV>
11.72

>  <SCORE.INTER.VDW>
-17.3625

>  <SCORE.INTER.norm>
-0.325325

>  <SCORE.INTRA>
-0.632692

>  <SCORE.INTRA.DIHEDRAL>
-2.35014

>  <SCORE.INTRA.DIHEDRAL.0>
10.2917

>  <SCORE.INTRA.POLAR>
0

>  <SCORE.INTRA.POLAR.0>
0

>  <SCORE.INTRA.REPUL>
0

>  <SCORE.INTRA.REPUL.0>
0

>  <SCORE.INTRA.SOLV>
-3.37187

>  <SCORE.INTRA.SOLV.lig_0>
-39.6315

>  <SCORE.INTRA.VDW>
2.22831

>  <SCORE.INTRA.VDW.0>
-4.02152

>  <SCORE.INTRA.norm>
-0.023433

>  <SCORE.RESTR>
0

>  <SCORE.RESTR.CAVITY>
0

>  <SCORE.RESTR.norm>
0

>  <SCORE.SYSTEM>
0

>  <SCORE.SYSTEM.CONST>
0

>  <SCORE.SYSTEM.DIHEDRAL>
0

>  <SCORE.SYSTEM.SOLV>
0

>  <SCORE.SYSTEM.norm>
0

>  <SCORE.heavy>
27

>  <SCORE.norm>
-0.348758

>  <RMSD>
10.591

$$$$
lig.pdb
 OpenBabel11021811493D
libRbt.so/2013.1/901 2013/11/27
 27 29  0  0  0  0  0  0  0  0999 V2000
    2.2655   -7.0948  -19.4724 N   0  0  0  0  0  0  0  0  0  0  0  0
    1.7488   -8.2697  -18.7065 C   0  0  2  0  0  0  0  0  0  0  0  0
    0.3761   -7.9285  -18.1344 C   0  0  0  0  0  0  0  0  0  0  0  0
   -0.4834   -8.7992  -18.0653 O   0  0  0  0  0  0  0  0  0  0  0  0
    0.0792   -6.7955  -17.7343 O   0  0  0  0  0  0  0  0  0  0  0  0
    2.7150   -8.7703  -17.6139 C   0  0  0  0  0  0  0  0  0  0  0  0
    3.8805   -7.8231  -17.2254 C   0  0  0  0  0  0  0  0  0  0  0  0
    5.0769   -8.3638  -15.9293 S   0  0  2  0  0  0  0  0  0  0  0  0
    6.0069   -6.8431  -15.6431 C   0  0  0  0  0  0  0  0  0  0  0  0
    6.3093   -9.3049  -16.8551 C   0  0  0  0  0  0  0  0  0  0  0  0
    6.6681  -10.5723  -16.0905 C   0  0  1  0  0  0  0  0  0  0  0  0
    5.6408  -11.5507  -16.1418 O   0  0  0  0  0  0  0  0  0  0  0  0
    7.8703  -11.2821  -16.6528 C   0  0  1  0  0  0  0  0  0  0  0  0
    9.0440  -10.6445  -16.2381 O   0  0  0  0  0  0  0  0  0  0  0  0
    7.6934  -12.6552  -16.0432 C   0  0  1  0  0  0  0  0  0  0  0  0
    8.1932  -12.6693  -14.7214 O   0  0  0  0  0  0  0  0  0  0  0  0
    6.1822  -12.8524  -16.0031 C   0  0  2  0  0  0  0  0  0  0  0  0
    5.6403  -13.7857  -17.0285 N   0  0  0  0  0  0  0  0  0  0  0  0
    4.8491  -14.8764  -16.7691 C   0  0  0  0  0  0  0  0  0  0  0  0
    4.5446  -15.4910  -17.9340 N   0  0  0  0  0  0  0  0  0  0  0  0
    5.1175  -14.8118  -18.9413 C   0  0  0  0  0  0  0  0  0  0  0  0
    5.1139  -15.0048  -20.3143 C   0  0  0  0  0  0  0  0  0  0  0  0
    4.4488  -16.0219  -20.8462 N   0  0  0  0  0  0  0  0  0  0  0  0
    5.8055  -14.1224  -21.1203 N   0  0  0  0  0  0  0  0  0  0  0  0
    6.4983  -13.0475  -20.5777 C   0  0  0  0  0  0  0  0  0  0  0  0
    6.4857  -12.8681  -19.2094 N   0  0  0  0  0  0  0  0  0  0  0  0
    5.8142  -13.7356  -18.3971 C   0  0  0  0  0  0  0  0  0  0  0  0
  2  3  1  1  0  0  0
  2  6  1  0  0  0  0
  2  1  1  0  0  0  0
  4  3  2  0  0  0  0
  5  3  1  0  0  0  0
  6  7  2  0  0  0  0
  8  7  1  6  0  0  0
  8  9  1  0  0  0  0
  8 10  1  0  0  0  0
 11 10  1  6  0  0  0
 11 13  1  0  0  0  0
 12 11  1  0  0  0  0
 12 17  1  0  0  0  0
 13 14  1  1  0  0  0
 13 15  1  0  0  0  0
 15 16  1  1  0  0  0
 17 18  1  6  0  0  0
 17 15  1  0  0  0  0
 18 19  1  0  0  0  0
 20 19  2  0  0  0  0
 21 27  2  0  0  0  0
 21 20  1  0  0  0  0
 22 21  1  0  0  0  0
 23 22  1  0  0  0  0
 24 22  2  0  0  0  0
 24 25  1  0  0  0  0
 25 26  2  0  0  0  0
 26 27  1  0  0  0  0
 27 18  1  0  0  0  0
M  END
>  <CHROM.1>
144.41226265,14.41348355,-170.14914018,-137.08258831,73.56593360,-114.54054997
4.95303190,-11.12508702,-17.58597316,2.23506934,-0.51998503,0.47296570

>  <Name>
lig.pdb

>  <RI>
0

>  <Rbt.Current_Directory>
/home/itssahil/PROJECTS/Mol_Feturizer/New_Systems/rnas/4b5r

>  <Rbt.Executable>
rbdock ($Id: //depot/dev/client3/rdock/2013.1/src/exe/rbdock.cxx#4 $)

>  <Rbt.Library>
libRbt.so (2013.1, Build901 2013/11/27)

>  <Rbt.Parameter_File>
/export/apps/rDock/src/rDock_2013.1_src/data/scripts/dock_solv.prm

>  <Rbt.Receptor>
prm/blind_docking_80.prm

>  <SCORE>
-12.0297

>  <SCORE.INTER>
-13.1491

>  <SCORE.INTER.CONST>
1

>  <SCORE.INTER.POLAR>
0

>  <SCORE.INTER.ROT>
6

>  <SCORE.INTER.SOLV>
12.9074

>  <SCORE.INTER.VDW>
-20.6686

>  <SCORE.INTER.norm>
-0.487005

>  <SCORE.INTRA>
1.11947

>  <SCORE.INTRA.DIHEDRAL>
2.67482

>  <SCORE.INTRA.DIHEDRAL.0>
10.2917

>  <SCORE.INTRA.POLAR>
0

>  <SCORE.INTRA.POLAR.0>
0

>  <SCORE.INTRA.REPUL>
0

>  <SCORE.INTRA.REPUL.0>
0

>  <SCORE.INTRA.SOLV>
-2.32961

>  <SCORE.INTRA.SOLV.lig_0>
-39.6315

>  <SCORE.INTRA.VDW>
0.946865

>  <SCORE.INTRA.VDW.0>
-4.02152

>  <SCORE.INTRA.norm>
0.0414619

>  <SCORE.RESTR>
0

>  <SCORE.RESTR.CAVITY>
0

>  <SCORE.RESTR.norm>
0

>  <SCORE.SYSTEM>
0

>  <SCORE.SYSTEM.CONST>
0

>  <SCORE.SYSTEM.DIHEDRAL>
0

>  <SCORE.SYSTEM.SOLV>
0

>  <SCORE.SYSTEM.norm>
0

>  <SCORE.heavy>
27

>  <SCORE.norm>
-0.445543

>  <RMSD>
10.628

$$$$
lig.pdb
 OpenBabel11021811493D
libRbt.so/2013.1/901 2013/11/27
 27 29  0  0  0  0  0  0  0  0999 V2000
    2.3158   -7.4719  -19.8732 N   0  0  0  0  0  0  0  0  0  0  0  0
    2.2683   -8.4870  -18.7771 C   0  0  2  0  0  0  0  0  0  0  0  0
    1.2644   -8.0348  -17.7208 C   0  0  0  0  0  0  0  0  0  0  0  0
    1.2518   -6.8634  -17.3610 O   0  0  0  0  0  0  0  0  0  0  0  0
    0.4509   -8.8057  -17.1955 O   0  0  0  0  0  0  0  0  0  0  0  0
    3.6469   -8.7970  -18.1598 C   0  0  0  0  0  0  0  0  0  0  0  0
    4.0236   -8.0236  -16.8689 C   0  0  0  0  0  0  0  0  0  0  0  0
    5.6617   -8.3424  -16.0825 S   0  0  2  0  0  0  0  0  0  0  0  0
    6.3425   -6.6732  -15.9832 C   0  0  0  0  0  0  0  0  0  0  0  0
    6.6615   -8.9993  -17.4354 C   0  0  0  0  0  0  0  0  0  0  0  0
    8.0890   -9.2262  -16.9555 C   0  0  1  0  0  0  0  0  0  0  0  0
    8.1500  -10.0115  -15.7744 O   0  0  0  0  0  0  0  0  0  0  0  0
    8.9299   -9.9919  -17.9413 C   0  0  1  0  0  0  0  0  0  0  0  0
    9.3607   -9.1449  -18.9674 O   0  0  0  0  0  0  0  0  0  0  0  0
   10.0554  -10.4580  -17.0444 C   0  0  1  0  0  0  0  0  0  0  0  0
   11.0134   -9.4305  -16.8912 O   0  0  0  0  0  0  0  0  0  0  0  0
    9.3803  -10.7098  -15.7008 C   0  0  2  0  0  0  0  0  0  0  0  0
    9.1792  -12.1437  -15.3548 N   0  0  0  0  0  0  0  0  0  0  0  0
    9.8509  -12.8237  -14.3702 C   0  0  0  0  0  0  0  0  0  0  0  0
    9.4136  -14.1024  -14.3365 N   0  0  0  0  0  0  0  0  0  0  0  0
    8.4657  -14.2578  -15.2753 C   0  0  0  0  0  0  0  0  0  0  0  0
    7.6966  -15.3491  -15.6494 C   0  0  0  0  0  0  0  0  0  0  0  0
    7.8381  -16.5129  -15.0287 N   0  0  0  0  0  0  0  0  0  0  0  0
    6.7782  -15.2075  -16.6708 N   0  0  0  0  0  0  0  0  0  0  0  0
    6.6127  -13.9921  -17.3230 C   0  0  0  0  0  0  0  0  0  0  0  0
    7.3830  -12.9156  -16.9330 N   0  0  0  0  0  0  0  0  0  0  0  0
    8.3015  -13.0401  -15.9309 C   0  0  0  0  0  0  0  0  0  0  0  0
  2  3  1  1  0  0  0
  2  6  1  0  0  0  0
  2  1  1  0  0  0  0
  4  3  2  0  0  0  0
  5  3  1  0  0  0  0
  6  7  2  0  0  0  0
  8  7  1  6  0  0  0
  8  9  1  0  0  0  0
  8 10  1  0  0  0  0
 11 10  1  6  0  0  0
 11 13  1  0  0  0  0
 12 11  1  0  0  0  0
 12 17  1  0  0  0  0
 13 14  1  6  0  0  0
 13 15  1  0  0  0  0
 15 16  1  1  0  0  0
 17 18  1  6  0  0  0
 17 15  1  0  0  0  0
 18 19  1  0  0  0  0
 20 19  2  0  0  0  0
 21 27  2  0  0  0  0
 21 20  1  0  0  0  0
 22 21  1  0  0  0  0
 23 22  1  0  0  0  0
 24 22  2  0  0  0  0
 24 25  1  0  0  0  0
 25 26  2  0  0  0  0
 26 27  1  0  0  0  0
 27 18  1  0  0  0  0
M  END
>  <CHROM.1>
-43.62279756,95.83223502,125.84364748,176.19197443,52.58695515,-130.56105964
6.61487954,-10.53524477,-16.71279769,2.39383583,-0.11899070,-0.22112369

>  <Name>
lig.pdb

>  <RI>
0

>  <Rbt.Current_Directory>
/home/itssahil/PROJECTS/Mol_Feturizer/New_Systems/rnas/4b5r

>  <Rbt.Executable>
rbdock ($Id: //depot/dev/client3/rdock/2013.1/src/exe/rbdock.cxx#4 $)

>  <Rbt.Library>
libRbt.so (2013.1, Build901 2013/11/27)

>  <Rbt.Parameter_File>
/export/apps/rDock/src/rDock_2013.1_src/data/scripts/dock_solv.prm

>  <Rbt.Receptor>
prm/blind_docking_60.prm

>  <SCORE>
-13.8862

>  <SCORE.INTER>
-13.2901

>  <SCORE.INTER.CONST>
1

>  <SCORE.INTER.POLAR>
0

>  <SCORE.INTER.ROT>
6

>  <SCORE.INTER.SOLV>
13.8929

>  <SCORE.INTER.VDW>
-21.0911

>  <SCORE.INTER.norm>
-0.492227

>  <SCORE.INTRA>
-0.596092

>  <SCORE.INTRA.DIHEDRAL>
-2.27007

>  <SCORE.INTRA.DIHEDRAL.0>
10.2917

>  <SCORE.INTRA.POLAR>
0

>  <SCORE.INTRA.POLAR.0>
0

>  <SCORE.INTRA.REPUL>
0

>  <SCORE.INTRA.REPUL.0>
0

>  <SCORE.INTRA.SOLV>
-2.28777

>  <SCORE.INTRA.SOLV.lig_0>
-39.6315

>  <SCORE.INTRA.VDW>
1.68283

>  <SCORE.INTRA.VDW.0>
-4.02152

>  <SCORE.INTRA.norm>
-0.0220775

>  <SCORE.RESTR>
0

>  <SCORE.RESTR.CAVITY>
0

>  <SCORE.RESTR.norm>
0

>  <SCORE.SYSTEM>
0

>  <SCORE.SYSTEM.CONST>
0

>  <SCORE.SYSTEM.DIHEDRAL>
0

>  <SCORE.SYSTEM.SOLV>
0

>  <SCORE.SYSTEM.norm>
0

>  <SCORE.heavy>
27

>  <SCORE.norm>
-0.514305

>  <RMSD>
10.676

$$$$
lig.pdb
 OpenBabel11021811493D
libRbt.so/2013.1/901 2013/11/27
 27 29  0  0  0  0  0  0  0  0999 V2000
    8.2238  -10.4447  -17.8579 N   0  0  0  0  0  0  0  0  0  0  0  0
    7.3666  -10.2443  -19.0658 C   0  0  2  0  0  0  0  0  0  0  0  0
    6.0370   -9.6299  -18.6383 C   0  0  0  0  0  0  0  0  0  0  0  0
    5.8661   -8.4215  -18.7491 O   0  0  0  0  0  0  0  0  0  0  0  0
    5.1074  -10.3009  -18.1719 O   0  0  0  0  0  0  0  0  0  0  0  0
    7.1624  -11.5251  -19.8999 C   0  0  0  0  0  0  0  0  0  0  0  0
    7.6158  -11.4722  -21.3825 C   0  0  0  0  0  0  0  0  0  0  0  0
    7.3939  -12.9687  -22.4384 S   0  0  2  0  0  0  0  0  0  0  0  0
    6.8736  -12.2304  -24.0016 C   0  0  0  0  0  0  0  0  0  0  0  0
    5.8161  -13.6499  -21.8831 C   0  0  0  0  0  0  0  0  0  0  0  0
    6.0652  -14.7885  -20.9028 C   0  0  1  0  0  0  0  0  0  0  0  0
    6.6801  -14.3500  -19.7008 O   0  0  0  0  0  0  0  0  0  0  0  0
    4.7990  -15.4560  -20.4372 C   0  0  1  0  0  0  0  0  0  0  0  0
    4.3321  -16.3394  -21.4158 O   0  0  0  0  0  0  0  0  0  0  0  0
    5.2955  -16.1576  -19.1924 C   0  0  1  0  0  0  0  0  0  0  0  0
    5.9172  -17.3790  -19.5369 O   0  0  0  0  0  0  0  0  0  0  0  0
    6.3465  -15.2098  -18.6255 C   0  0  2  0  0  0  0  0  0  0  0  0
    5.9221  -14.4450  -17.4208 N   0  0  0  0  0  0  0  0  0  0  0  0
    5.5155  -13.1344  -17.4160 C   0  0  0  0  0  0  0  0  0  0  0  0
    5.2052  -12.7707  -16.1515 N   0  0  0  0  0  0  0  0  0  0  0  0
    5.3959  -13.8250  -15.3415 C   0  0  0  0  0  0  0  0  0  0  0  0
    5.2206  -13.9935  -13.9765 C   0  0  0  0  0  0  0  0  0  0  0  0
    4.7833  -12.9892  -13.2282 N   0  0  0  0  0  0  0  0  0  0  0  0
    5.5006  -15.2202  -13.4078 N   0  0  0  0  0  0  0  0  0  0  0  0
    5.9499  -16.2833  -14.1808 C   0  0  0  0  0  0  0  0  0  0  0  0
    6.1128  -16.0985  -15.5387 N   0  0  0  0  0  0  0  0  0  0  0  0
    5.8487  -14.8902  -16.1161 C   0  0  0  0  0  0  0  0  0  0  0  0
  2  3  1  1  0  0  0
  2  6  1  0  0  0  0
  2  1  1  0  0  0  0
  4  3  2  0  0  0  0
  5  3  1  0  0  0  0
  6  7  2  0  0  0  0
  8  7  1  1  0  0  0
  8  9  1  0  0  0  0
  8 10  1  0  0  0  0
 11 10  1  6  0  0  0
 11 13  1  0  0  0  0
 12 11  1  0  0  0  0
 12 17  1  0  0  0  0
 13 14  1  6  0  0  0
 13 15  1  0  0  0  0
 15 16  1  6  0  0  0
 17 18  1  1  0  0  0
 17 15  1  0  0  0  0
 18 19  1  0  0  0  0
 20 19  2  0  0  0  0
 21 27  2  0  0  0  0
 21 20  1  0  0  0  0
 22 21  1  0  0  0  0
 23 22  1  0  0  0  0
 24 22  2  0  0  0  0
 24 25  1  0  0  0  0
 25 26  2  0  0  0  0
 26 27  1  0  0  0  0
 27 18  1  0  0  0  0
M  END
>  <CHROM.1>
98.66562578,-121.60183352,140.43908403,-98.74879562,65.21350209,18.08725775
6.07100179,-13.45984153,-18.58879201,-0.58053611,1.36973466,0.88818542

>  <Name>
lig.pdb

>  <RI>
0

>  <Rbt.Current_Directory>
/home/itssahil/PROJECTS/Mol_Feturizer/New_Systems/rnas/4b5r

>  <Rbt.Executable>
rbdock ($Id: //depot/dev/client3/rdock/2013.1/src/exe/rbdock.cxx#4 $)

>  <Rbt.Library>
libRbt.so (2013.1, Build901 2013/11/27)

>  <Rbt.Parameter_File>
/export/apps/rDock/src/rDock_2013.1_src/data/scripts/dock_solv.prm

>  <Rbt.Receptor>
prm/blind_docking_40.prm

>  <SCORE>
-10.4472

>  <SCORE.INTER>
-9.24822

>  <SCORE.INTER.CONST>
1

>  <SCORE.INTER.POLAR>
0

>  <SCORE.INTER.ROT>
6

>  <SCORE.INTER.SOLV>
10.5474

>  <SCORE.INTER.VDW>
-17.2813

>  <SCORE.INTER.norm>
-0.342526

>  <SCORE.INTRA>
-1.19895

>  <SCORE.INTRA.DIHEDRAL>
-1.08823

>  <SCORE.INTRA.DIHEDRAL.0>
10.2917

>  <SCORE.INTRA.POLAR>
0

>  <SCORE.INTRA.POLAR.0>
0

>  <SCORE.INTRA.REPUL>
0.0174339

>  <SCORE.INTRA.REPUL.0>
0

>  <SCORE.INTRA.SOLV>
-2.55824

>  <SCORE.INTRA.SOLV.lig_0>
-39.6315

>  <SCORE.INTRA.VDW>
0.537115

>  <SCORE.INTRA.VDW.0>
-4.02152

>  <SCORE.INTRA.norm>
-0.0444055

>  <SCORE.RESTR>
0

>  <SCORE.RESTR.CAVITY>
0

>  <SCORE.RESTR.norm>
0

>  <SCORE.SYSTEM>
0

>  <SCORE.SYSTEM.CONST>
0

>  <SCORE.SYSTEM.DIHEDRAL>
0

>  <SCORE.SYSTEM.SOLV>
0

>  <SCORE.SYSTEM.norm>
0

>  <SCORE.heavy>
27

>  <SCORE.norm>
-0.386932

>  <RMSD>
10.738

$$$$
lig.pdb
 OpenBabel11021811493D
libRbt.so/2013.1/901 2013/11/27
 27 29  0  0  0  0  0  0  0  0999 V2000
    3.6483   -7.4854  -22.6157 N   0  0  0  0  0  0  0  0  0  0  0  0
    3.8851   -8.6901  -21.7633 C   0  0  2  0  0  0  0  0  0  0  0  0
    3.4784   -9.9391  -22.5398 C   0  0  0  0  0  0  0  0  0  0  0  0
    4.3219  -10.7878  -22.8042 O   0  0  0  0  0  0  0  0  0  0  0  0
    2.3204  -10.1398  -22.9278 O   0  0  0  0  0  0  0  0  0  0  0  0
    3.1921   -8.6215  -20.3875 C   0  0  0  0  0  0  0  0  0  0  0  0
    4.1155   -8.5222  -19.1449 C   0  0  0  0  0  0  0  0  0  0  0  0
    3.3508   -8.4432  -17.4679 S   0  0  2  0  0  0  0  0  0  0  0  0
    2.0770   -7.1877  -17.7136 C   0  0  0  0  0  0  0  0  0  0  0  0
    4.5404   -7.4857  -16.5035 C   0  0  0  0  0  0  0  0  0  0  0  0
    5.7419   -8.3563  -16.1601 C   0  0  1  0  0  0  0  0  0  0  0  0
    5.3720   -9.6739  -15.7829 O   0  0  0  0  0  0  0  0  0  0  0  0
    6.6747   -8.5627  -17.3231 C   0  0  1  0  0  0  0  0  0  0  0  0
    7.4835   -7.4352  -17.4980 O   0  0  0  0  0  0  0  0  0  0  0  0
    7.4434   -9.7772  -16.8515 C   0  0  1  0  0  0  0  0  0  0  0  0
    8.4808   -9.3870  -15.9749 O   0  0  0  0  0  0  0  0  0  0  0  0
    6.4149  -10.5883  -16.0712 C   0  0  2  0  0  0  0  0  0  0  0  0
    5.9061  -11.8007  -16.7694 N   0  0  0  0  0  0  0  0  0  0  0  0
    5.7616  -11.9318  -18.1277 C   0  0  0  0  0  0  0  0  0  0  0  0
    5.2761  -13.1624  -18.4056 N   0  0  0  0  0  0  0  0  0  0  0  0
    5.1129  -13.8311  -17.2522 C   0  0  0  0  0  0  0  0  0  0  0  0
    4.6613  -15.1125  -16.9754 C   0  0  0  0  0  0  0  0  0  0  0  0
    4.2954  -15.9215  -17.9610 N   0  0  0  0  0  0  0  0  0  0  0  0
    4.6033  -15.5372  -15.6628 N   0  0  0  0  0  0  0  0  0  0  0  0
    4.9924  -14.7041  -14.6215 C   0  0  0  0  0  0  0  0  0  0  0  0
    5.4447  -13.4341  -14.9169 N   0  0  0  0  0  0  0  0  0  0  0  0
    5.5006  -12.9950  -16.2081 C   0  0  0  0  0  0  0  0  0  0  0  0
  2  3  1  6  0  0  0
  2  6  1  0  0  0  0
  2  1  1  0  0  0  0
  4  3  2  0  0  0  0
  5  3  1  0  0  0  0
  6  7  2  0  0  0  0
  8  7  1  6  0  0  0
  8  9  1  0  0  0  0
  8 10  1  0  0  0  0
 11 10  1  6  0  0  0
 11 13  1  0  0  0  0
 12 11  1  0  0  0  0
 12 17  1  0  0  0  0
 13 14  1  1  0  0  0
 13 15  1  0  0  0  0
 15 16  1  1  0  0  0
 17 18  1  6  0  0  0
 17 15  1  0  0  0  0
 18 19  1  0  0  0  0
 20 19  2  0  0  0  0
 21 27  2  0  0  0  0
 21 20  1  0  0  0  0
 22 21  1  0  0  0  0
 23 22  1  0  0  0  0
 24 22  2  0  0  0  0
 24 25  1  0  0  0  0
 25 26  2  0  0  0  0
 26 27  1  0  0  0  0
 27 18  1  0  0  0  0
M  END
>  <CHROM.1>
117.76056628,-112.93944457,-47.38720008,-75.72248944,-41.42416890,87.87963334
4.89698429,-10.54736934,-18.01440510,2.15238568,-1.10784005,-0.20086019

>  <Name>
lig.pdb

>  <RI>
0

>  <Rbt.Current_Directory>
/home/itssahil/PROJECTS/Mol_Feturizer/New_Systems/rnas/4b5r

>  <Rbt.Executable>
rbdock ($Id: //depot/dev/client3/rdock/2013.1/src/exe/rbdock.cxx#4 $)

>  <Rbt.Library>
libRbt.so (2013.1, Build901 2013/11/27)

>  <Rbt.Parameter_File>
/export/apps/rDock/src/rDock_2013.1_src/data/scripts/dock_solv.prm

>  <Rbt.Receptor>
prm/blind_docking_80.prm

>  <SCORE>
-11.789

>  <SCORE.INTER>
-10.6743

>  <SCORE.INTER.CONST>
1

>  <SCORE.INTER.POLAR>
0

>  <SCORE.INTER.ROT>
6

>  <SCORE.INTER.SOLV>
14.5984

>  <SCORE.INTER.VDW>
-19.5823

>  <SCORE.INTER.norm>
-0.395343

>  <SCORE.INTRA>
-1.11473

>  <SCORE.INTRA.DIHEDRAL>
-2.05713

>  <SCORE.INTRA.DIHEDRAL.0>
10.2917

>  <SCORE.INTRA.POLAR>
0

>  <SCORE.INTRA.POLAR.0>
0

>  <SCORE.INTRA.REPUL>
0

>  <SCORE.INTRA.REPUL.0>
0

>  <SCORE.INTRA.SOLV>
-3.10047

>  <SCORE.INTRA.SOLV.lig_0>
-39.6315

>  <SCORE.INTRA.VDW>
1.46407

>  <SCORE.INTRA.VDW.0>
-4.02152

>  <SCORE.INTRA.norm>
-0.0412864

>  <SCORE.RESTR>
0

>  <SCORE.RESTR.CAVITY>
0

>  <SCORE.RESTR.norm>
0

>  <SCORE.SYSTEM>
0

>  <SCORE.SYSTEM.CONST>
0

>  <SCORE.SYSTEM.DIHEDRAL>
0

>  <SCORE.SYSTEM.SOLV>
0

>  <SCORE.SYSTEM.norm>
0

>  <SCORE.heavy>
27

>  <SCORE.norm>
-0.436629

>  <RMSD>
10.745

$$$$
lig.pdb
 OpenBabel11021811493D
libRbt.so/2013.1/901 2013/11/27
 27 29  0  0  0  0  0  0  0  0999 V2000
    2.6889   -7.5213  -21.0678 N   0  0  0  0  0  0  0  0  0  0  0  0
    2.1895   -6.9616  -19.7751 C   0  0  2  0  0  0  0  0  0  0  0  0
    2.5177   -5.4727  -19.7155 C   0  0  0  0  0  0  0  0  0  0  0  0
    2.5973   -4.9143  -18.6275 O   0  0  0  0  0  0  0  0  0  0  0  0
    2.7059   -4.7866  -20.7283 O   0  0  0  0  0  0  0  0  0  0  0  0
    2.7105   -7.7119  -18.5327 C   0  0  0  0  0  0  0  0  0  0  0  0
    3.8027   -8.7869  -18.7736 C   0  0  0  0  0  0  0  0  0  0  0  0
    4.4651   -9.7263  -17.3306 S   0  0  2  0  0  0  0  0  0  0  0  0
    5.0285   -8.3870  -16.2591 C   0  0  0  0  0  0  0  0  0  0  0  0
    6.0596  -10.3380  -17.9179 C   0  0  0  0  0  0  0  0  0  0  0  0
    6.7038  -11.2051  -16.8443 C   0  0  1  0  0  0  0  0  0  0  0  0
    6.0738  -12.4705  -16.7131 O   0  0  0  0  0  0  0  0  0  0  0  0
    8.1392  -11.5463  -17.1419 C   0  0  1  0  0  0  0  0  0  0  0  0
    8.9668  -10.4633  -16.8288 O   0  0  0  0  0  0  0  0  0  0  0  0
    8.3398  -12.7317  -16.2237 C   0  0  1  0  0  0  0  0  0  0  0  0
    8.6248  -12.2892  -14.9123 O   0  0  0  0  0  0  0  0  0  0  0  0
    6.9879  -13.4365  -16.2257 C   0  0  2  0  0  0  0  0  0  0  0  0
    6.9337  -14.6950  -17.0191 N   0  0  0  0  0  0  0  0  0  0  0  0
    6.7746  -14.7682  -18.3801 C   0  0  0  0  0  0  0  0  0  0  0  0
    6.7717  -16.0663  -18.7574 N   0  0  0  0  0  0  0  0  0  0  0  0
    6.9349  -16.8319  -17.6659 C   0  0  0  0  0  0  0  0  0  0  0  0
    7.0129  -18.2058  -17.4962 C   0  0  0  0  0  0  0  0  0  0  0  0
    6.9237  -19.0163  -18.5424 N   0  0  0  0  0  0  0  0  0  0  0  0
    7.1906  -18.7185  -16.2264 N   0  0  0  0  0  0  0  0  0  0  0  0
    7.2953  -17.8811  -15.1230 C   0  0  0  0  0  0  0  0  0  0  0  0
    7.2212  -16.5161  -15.3122 N   0  0  0  0  0  0  0  0  0  0  0  0
    7.0373  -15.9925  -16.5593 C   0  0  0  0  0  0  0  0  0  0  0  0
  2  3  1  1  0  0  0
  2  6  1  0  0  0  0
  2  1  1  0  0  0  0
  4  3  2  0  0  0  0
  5  3  1  0  0  0  0
  6  7  2  0  0  0  0
  8  7  1  6  0  0  0
  8  9  1  0  0  0  0
  8 10  1  0  0  0  0
 11 10  1  6  0  0  0
 11 13  1  0  0  0  0
 12 11  1  0  0  0  0
 12 17  1  0  0  0  0
 13 14  1  1  0  0  0
 13 15  1  0  0  0  0
 15 16  1  1  0  0  0
 17 18  1  6  0  0  0
 17 15  1  0  0  0  0
 18 19  1  0  0  0  0
 20 19  2  0  0  0  0
 21 27  2  0  0  0  0
 21 20  1  0  0  0  0
 22 21  1  0  0  0  0
 23 22  1  0  0  0  0
 24 22  2  0  0  0  0
 24 25  1  0  0  0  0
 25 26  2  0  0  0  0
 26 27  1  0  0  0  0
 27 18  1  0  0  0  0
M  END
>  <CHROM.1>
-156.77487948,8.01416048,-55.74890241,-177.09599438,73.29755229,38.50942834
5.80792934,-11.89578907,-17.56331438,2.10509705,-0.75389847,0.14983071

>  <Name>
lig.pdb

>  <RI>
0

>  <Rbt.Current_Directory>
/home/itssahil/PROJECTS/Mol_Feturizer/New_Systems/rnas/4b5r

>  <Rbt.Executable>
rbdock ($Id: //depot/dev/client3/rdock/2013.1/src/exe/rbdock.cxx#4 $)

>  <Rbt.Library>
libRbt.so (2013.1, Build901 2013/11/27)

>  <Rbt.Parameter_File>
/export/apps/rDock/src/rDock_2013.1_src/data/scripts/dock_solv.prm

>  <Rbt.Receptor>
prm/blind_docking_80.prm

>  <SCORE>
-11.0949

>  <SCORE.INTER>
-10.866

>  <SCORE.INTER.CONST>
1

>  <SCORE.INTER.POLAR>
0

>  <SCORE.INTER.ROT>
6

>  <SCORE.INTER.SOLV>
14.7774

>  <SCORE.INTER.VDW>
-19.7698

>  <SCORE.INTER.norm>
-0.402446

>  <SCORE.INTRA>
-0.228876

>  <SCORE.INTRA.DIHEDRAL>
-2.25554

>  <SCORE.INTRA.DIHEDRAL.0>
10.2917

>  <SCORE.INTRA.POLAR>
0

>  <SCORE.INTRA.POLAR.0>
0

>  <SCORE.INTRA.REPUL>
0

>  <SCORE.INTRA.REPUL.0>
0

>  <SCORE.INTRA.SOLV>
-2.74328

>  <SCORE.INTRA.SOLV.lig_0>
-39.6315

>  <SCORE.INTRA.VDW>
2.27054

>  <SCORE.INTRA.VDW.0>
-4.02152

>  <SCORE.INTRA.norm>
-0.0084769

>  <SCORE.RESTR>
0

>  <SCORE.RESTR.CAVITY>
0

>  <SCORE.RESTR.norm>
0

>  <SCORE.SYSTEM>
0

>  <SCORE.SYSTEM.CONST>
0

>  <SCORE.SYSTEM.DIHEDRAL>
0

>  <SCORE.SYSTEM.SOLV>
0

>  <SCORE.SYSTEM.norm>
0

>  <SCORE.heavy>
27

>  <SCORE.norm>
-0.410923

>  <RMSD>
10.786

$$$$
lig.pdb
 OpenBabel11021811493D
libRbt.so/2013.1/901 2013/11/27
 27 29  0  0  0  0  0  0  0  0999 V2000
    9.5544  -11.0606  -15.8947 N   0  0  0  0  0  0  0  0  0  0  0  0
   10.5846  -10.4593  -16.7954 C   0  0  2  0  0  0  0  0  0  0  0  0
   11.0534   -9.1337  -16.2028 C   0  0  0  0  0  0  0  0  0  0  0  0
   10.3756   -8.1257  -16.3651 O   0  0  0  0  0  0  0  0  0  0  0  0
   12.1048   -9.0213  -15.5596 O   0  0  0  0  0  0  0  0  0  0  0  0
   10.1134  -10.2982  -18.2548 C   0  0  0  0  0  0  0  0  0  0  0  0
    8.7516  -10.9431  -18.6238 C   0  0  0  0  0  0  0  0  0  0  0  0
    8.1323  -10.7931  -20.3551 S   0  0  2  0  0  0  0  0  0  0  0  0
    7.6212   -9.0622  -20.4042 C   0  0  0  0  0  0  0  0  0  0  0  0
    6.5115  -11.5877  -20.2966 C   0  0  0  0  0  0  0  0  0  0  0  0
    6.6835  -13.0964  -20.1791 C   0  0  1  0  0  0  0  0  0  0  0  0
    7.0390  -13.5053  -18.8669 O   0  0  0  0  0  0  0  0  0  0  0  0
    5.4183  -13.8601  -20.4643 C   0  0  1  0  0  0  0  0  0  0  0  0
    5.2076  -13.9454  -21.8442 O   0  0  0  0  0  0  0  0  0  0  0  0
    5.7489  -15.1934  -19.8308 C   0  0  1  0  0  0  0  0  0  0  0  0
    6.5247  -15.9746  -20.7167 O   0  0  0  0  0  0  0  0  0  0  0  0
    6.5988  -14.8286  -18.6187 C   0  0  2  0  0  0  0  0  0  0  0  0
    5.9061  -14.9408  -17.3057 N   0  0  0  0  0  0  0  0  0  0  0  0
    4.8935  -14.1231  -16.8708 C   0  0  0  0  0  0  0  0  0  0  0  0
    4.5049  -14.5159  -15.6370 N   0  0  0  0  0  0  0  0  0  0  0  0
    5.2420  -15.5775  -15.2714 C   0  0  0  0  0  0  0  0  0  0  0  0
    5.2435  -16.3595  -14.1264 C   0  0  0  0  0  0  0  0  0  0  0  0
    4.3962  -16.1027  -13.1386 N   0  0  0  0  0  0  0  0  0  0  0  0
    6.1329  -17.4113  -14.0303 N   0  0  0  0  0  0  0  0  0  0  0  0
    7.0192  -17.6976  -15.0610 C   0  0  0  0  0  0  0  0  0  0  0  0
    6.9990  -16.9119  -16.1954 N   0  0  0  0  0  0  0  0  0  0  0  0
    6.1323  -15.8631  -16.3036 C   0  0  0  0  0  0  0  0  0  0  0  0
  2  3  1  1  0  0  0
  2  6  1  0  0  0  0
  2  1  1  0  0  0  0
  4  3  2  0  0  0  0
  5  3  1  0  0  0  0
  6  7  2  0  0  0  0
  8  7  1  1  0  0  0
  8  9  1  0  0  0  0
  8 10  1  0  0  0  0
 11 10  1  1  0  0  0
 11 13  1  0  0  0  0
 12 11  1  0  0  0  0
 12 17  1  0  0  0  0
 13 14  1  6  0  0  0
 13 15  1  0  0  0  0
 15 16  1  6  0  0  0
 17 18  1  1  0  0  0
 17 15  1  0  0  0  0
 18 19  1  0  0  0  0
 20 19  2  0  0  0  0
 21 27  2  0  0  0  0
 21 20  1  0  0  0  0
 22 21  1  0  0  0  0
 23 22  1  0  0  0  0
 24 22  2  0  0  0  0
 24 25  1  0  0  0  0
 25 26  2  0  0  0  0
 26 27  1  0  0  0  0
 27 18  1  0  0  0  0
M  END
>  <CHROM.1>
-80.76339474,-8.08881953,-73.76898546,-72.83307105,76.84662421,50.19969829
7.27754710,-13.16780429,-17.71846219,-0.58916497,0.89247519,1.98515573

>  <Name>
lig.pdb

>  <RI>
0

>  <Rbt.Current_Directory>
/home/itssahil/PROJECTS/Mol_Feturizer/New_Systems/rnas/4b5r

>  <Rbt.Executable>
rbdock ($Id: //depot/dev/client3/rdock/2013.1/src/exe/rbdock.cxx#4 $)

>  <Rbt.Library>
libRbt.so (2013.1, Build901 2013/11/27)

>  <Rbt.Parameter_File>
/export/apps/rDock/src/rDock_2013.1_src/data/scripts/dock_solv.prm

>  <Rbt.Receptor>
prm/blind_docking_100.prm

>  <SCORE>
-15.1691

>  <SCORE.INTER>
-14.5854

>  <SCORE.INTER.CONST>
1

>  <SCORE.INTER.POLAR>
0

>  <SCORE.INTER.ROT>
6

>  <SCORE.INTER.SOLV>
16.6044

>  <SCORE.INTER.VDW>
-22.8584

>  <SCORE.INTER.norm>
-0.540201

>  <SCORE.INTRA>
-0.583714

>  <SCORE.INTRA.DIHEDRAL>
-1.751

>  <SCORE.INTRA.DIHEDRAL.0>
10.2917

>  <SCORE.INTRA.POLAR>
0

>  <SCORE.INTRA.POLAR.0>
0

>  <SCORE.INTRA.REPUL>
0

>  <SCORE.INTRA.REPUL.0>
0

>  <SCORE.INTRA.SOLV>
-2.69458

>  <SCORE.INTRA.SOLV.lig_0>
-39.6315

>  <SCORE.INTRA.VDW>
1.63908

>  <SCORE.INTRA.VDW.0>
-4.02152

>  <SCORE.INTRA.norm>
-0.021619

>  <SCORE.RESTR>
0

>  <SCORE.RESTR.CAVITY>
0

>  <SCORE.RESTR.norm>
0

>  <SCORE.SYSTEM>
0

>  <SCORE.SYSTEM.CONST>
0

>  <SCORE.SYSTEM.DIHEDRAL>
0

>  <SCORE.SYSTEM.SOLV>
0

>  <SCORE.SYSTEM.norm>
0

>  <SCORE.heavy>
27

>  <SCORE.norm>
-0.56182

>  <RMSD>
10.821

$$$$
lig.pdb
 OpenBabel11021811493D
libRbt.so/2013.1/901 2013/11/27
 27 29  0  0  0  0  0  0  0  0999 V2000
    2.0610   -8.3276  -19.6808 N   0  0  0  0  0  0  0  0  0  0  0  0
    2.0416   -8.4062  -18.1884 C   0  0  2  0  0  0  0  0  0  0  0  0
    1.4890   -7.0996  -17.6266 C   0  0  0  0  0  0  0  0  0  0  0  0
    1.8737   -6.0320  -18.0893 O   0  0  0  0  0  0  0  0  0  0  0  0
    0.6610   -7.0620  -16.7074 O   0  0  0  0  0  0  0  0  0  0  0  0
    3.4083   -8.7619  -17.5690 C   0  0  0  0  0  0  0  0  0  0  0  0
    4.2035   -7.5996  -16.9182 C   0  0  0  0  0  0  0  0  0  0  0  0
    5.8493   -7.9555  -16.1645 S   0  0  2  0  0  0  0  0  0  0  0  0
    6.6558   -6.3449  -16.2880 C   0  0  0  0  0  0  0  0  0  0  0  0
    6.7317   -8.8389  -17.4693 C   0  0  0  0  0  0  0  0  0  0  0  0
    8.1673   -9.0995  -17.0324 C   0  0  1  0  0  0  0  0  0  0  0  0
    8.2451   -9.8755  -15.8462 O   0  0  0  0  0  0  0  0  0  0  0  0
    8.9559   -9.8963  -18.0367 C   0  0  1  0  0  0  0  0  0  0  0  0
    9.3760   -9.0703  -19.0842 O   0  0  0  0  0  0  0  0  0  0  0  0
   10.0967  -10.3841  -17.1712 C   0  0  1  0  0  0  0  0  0  0  0  0
   11.0858   -9.3812  -17.0584 O   0  0  0  0  0  0  0  0  0  0  0  0
    9.4582  -10.6057  -15.8046 C   0  0  2  0  0  0  0  0  0  0  0  0
    9.2304  -12.0305  -15.4383 N   0  0  0  0  0  0  0  0  0  0  0  0
    9.8885  -12.7085  -14.4431 C   0  0  0  0  0  0  0  0  0  0  0  0
    9.4277  -13.9784  -14.3917 N   0  0  0  0  0  0  0  0  0  0  0  0
    8.4782  -14.1298  -15.3294 C   0  0  0  0  0  0  0  0  0  0  0  0
    7.6895  -15.2121  -15.6888 C   0  0  0  0  0  0  0  0  0  0  0  0
    7.8089  -16.3692  -15.0513 N   0  0  0  0  0  0  0  0  0  0  0  0
    6.7749  -15.0683  -16.7133 N   0  0  0  0  0  0  0  0  0  0  0  0
    6.6325  -13.8597  -17.3831 C   0  0  0  0  0  0  0  0  0  0  0  0
    7.4220  -12.7919  -17.0076 N   0  0  0  0  0  0  0  0  0  0  0  0
    8.3370  -12.9189  -16.0026 C   0  0  0  0  0  0  0  0  0  0  0  0
  2  3  1  1  0  0  0
  2  6  1  0  0  0  0
  2  1  1  0  0  0  0
  4  3  2  0  0  0  0
  5  3  1  0  0  0  0
  6  7  2  0  0  0  0
  8  7  1  6  0  0  0
  8  9  1  0  0  0  0
  8 10  1  0  0  0  0
 11 10  1  6  0  0  0
 11 13  1  0  0  0  0
 12 11  1  0  0  0  0
 12 17  1  0  0  0  0
 13 14  1  6  0  0  0
 13 15  1  0  0  0  0
 15 16  1  1  0  0  0
 17 18  1  6  0  0  0
 17 15  1  0  0  0  0
 18 19  1  0  0  0  0
 20 19  2  0  0  0  0
 21 27  2  0  0  0  0
 21 20  1  0  0  0  0
 22 21  1  0  0  0  0
 23 22  1  0  0  0  0
 24 22  2  0  0  0  0
 24 25  1  0  0  0  0
 25 26  2  0  0  0  0
 26 27  1  0  0  0  0
 27 18  1  0  0  0  0
M  END
>  <CHROM.1>
-44.29759285,103.58697681,154.26446752,175.16514553,59.63667114,-128.59991129
6.68792217,-10.29621092,-16.74236790,2.34712987,-0.09400325,-0.20021373

>  <Name>
lig.pdb

>  <RI>
0

>  <Rbt.Current_Directory>
/home/itssahil/PROJECTS/Mol_Feturizer/New_Systems/rnas/4b5r

>  <Rbt.Executable>
rbdock ($Id: //depot/dev/client3/rdock/2013.1/src/exe/rbdock.cxx#4 $)

>  <Rbt.Library>
libRbt.so (2013.1, Build901 2013/11/27)

>  <Rbt.Parameter_File>
/export/apps/rDock/src/rDock_2013.1_src/data/scripts/dock_solv.prm

>  <Rbt.Receptor>
prm/blind_docking_40.prm

>  <SCORE>
-13.3849

>  <SCORE.INTER>
-12.2649

>  <SCORE.INTER.CONST>
1

>  <SCORE.INTER.POLAR>
0

>  <SCORE.INTER.ROT>
6

>  <SCORE.INTER.SOLV>
15.0276

>  <SCORE.INTER.VDW>
-20.7858

>  <SCORE.INTER.norm>
-0.454254

>  <SCORE.INTRA>
-1.12006

>  <SCORE.INTRA.DIHEDRAL>
-2.98335

>  <SCORE.INTRA.DIHEDRAL.0>
10.2917

>  <SCORE.INTRA.POLAR>
0

>  <SCORE.INTRA.POLAR.0>
0

>  <SCORE.INTRA.REPUL>
0

>  <SCORE.INTRA.REPUL.0>
0

>  <SCORE.INTRA.SOLV>
-2.3621

>  <SCORE.INTRA.SOLV.lig_0>
-39.6315

>  <SCORE.INTRA.VDW>
1.55266

>  <SCORE.INTRA.VDW.0>
-4.02152

>  <SCORE.INTRA.norm>
-0.0414838

>  <SCORE.RESTR>
0

>  <SCORE.RESTR.CAVITY>
0

>  <SCORE.RESTR.norm>
0

>  <SCORE.SYSTEM>
0

>  <SCORE.SYSTEM.CONST>
0

>  <SCORE.SYSTEM.DIHEDRAL>
0

>  <SCORE.SYSTEM.SOLV>
0

>  <SCORE.SYSTEM.norm>
0

>  <SCORE.heavy>
27

>  <SCORE.norm>
-0.495738

>  <RMSD>
10.840

$$$$
lig.pdb
 OpenBabel11021811493D
libRbt.so/2013.1/901 2013/11/27
 27 29  0  0  0  0  0  0  0  0999 V2000
    3.5204   -6.8727  -20.9534 N   0  0  0  0  0  0  0  0  0  0  0  0
    3.3824   -8.2255  -20.3329 C   0  0  2  0  0  0  0  0  0  0  0  0
    2.3195   -8.1675  -19.2398 C   0  0  0  0  0  0  0  0  0  0  0  0
    1.1491   -7.9700  -19.5447 O   0  0  0  0  0  0  0  0  0  0  0  0
    2.5844   -8.3071  -18.0389 O   0  0  0  0  0  0  0  0  0  0  0  0
    4.7115   -8.8045  -19.8075 C   0  0  0  0  0  0  0  0  0  0  0  0
    5.9989   -8.0014  -20.1304 C   0  0  0  0  0  0  0  0  0  0  0  0
    7.6239   -8.6422  -19.5368 S   0  0  2  0  0  0  0  0  0  0  0  0
    8.0658   -9.7832  -20.8643 C   0  0  0  0  0  0  0  0  0  0  0  0
    7.1692   -9.8290  -18.2537 C   0  0  0  0  0  0  0  0  0  0  0  0
    8.3058   -9.9585  -17.2482 C   0  0  1  0  0  0  0  0  0  0  0  0
    7.9631  -10.7745  -16.1383 O   0  0  0  0  0  0  0  0  0  0  0  0
    9.5289  -10.6234  -17.8204 C   0  0  1  0  0  0  0  0  0  0  0  0
   10.2554   -9.7122  -18.5937 O   0  0  0  0  0  0  0  0  0  0  0  0
   10.2452  -11.0284  -16.5511 C   0  0  1  0  0  0  0  0  0  0  0  0
   10.9742   -9.9343  -16.0328 O   0  0  0  0  0  0  0  0  0  0  0  0
    9.1194  -11.3760  -15.5835 C   0  0  2  0  0  0  0  0  0  0  0  0
    8.9209  -12.8318  -15.3433 N   0  0  0  0  0  0  0  0  0  0  0  0
    9.6611  -13.6016  -14.4817 C   0  0  0  0  0  0  0  0  0  0  0  0
    9.2036  -14.8731  -14.5180 N   0  0  0  0  0  0  0  0  0  0  0  0
    8.1760  -14.9362  -15.3807 C   0  0  0  0  0  0  0  0  0  0  0  0
    7.3567  -15.9821  -15.7771 C   0  0  0  0  0  0  0  0  0  0  0  0
    7.5282  -17.1964  -15.2714 N   0  0  0  0  0  0  0  0  0  0  0  0
    6.3572  -15.7425  -16.6993 N   0  0  0  0  0  0  0  0  0  0  0  0
    6.1601  -14.4739  -17.2299 C   0  0  0  0  0  0  0  0  0  0  0  0
    6.9817  -13.4440  -16.8189 N   0  0  0  0  0  0  0  0  0  0  0  0
    7.9799  -13.6649  -15.9145 C   0  0  0  0  0  0  0  0  0  0  0  0
  2  3  1  1  0  0  0
  2  6  1  0  0  0  0
  2  1  1  0  0  0  0
  4  3  2  0  0  0  0
  5  3  1  0  0  0  0
  6  7  2  0  0  0  0
  8  7  1  6  0  0  0
  8  9  1  0  0  0  0
  8 10  1  0  0  0  0
 11 10  1  6  0  0  0
 11 13  1  0  0  0  0
 12 11  1  0  0  0  0
 12 17  1  0  0  0  0
 13 14  1  1  0  0  0
 13 15  1  0  0  0  0
 15 16  1  1  0  0  0
 17 18  1  6  0  0  0
 17 15  1  0  0  0  0
 18 19  1  0  0  0  0
 20 19  2  0  0  0  0
 21 27  2  0  0  0  0
 21 20  1  0  0  0  0
 22 21  1  0  0  0  0
 23 22  1  0  0  0  0
 24 22  2  0  0  0  0
 24 25  1  0  0  0  0
 25 26  2  0  0  0  0
 26 27  1  0  0  0  0
 27 18  1  0  0  0  0
M  END
>  <CHROM.1>
66.90560204,-6.64244203,85.50855317,-153.65495647,174.05400510,-159.62766918
7.10220799,-11.08625015,-17.60783912,2.12295229,-0.19036750,-0.48483670

>  <Name>
lig.pdb

>  <RI>
0

>  <Rbt.Current_Directory>
/home/itssahil/PROJECTS/Mol_Feturizer/New_Systems/rnas/4b5r

>  <Rbt.Executable>
rbdock ($Id: //depot/dev/client3/rdock/2013.1/src/exe/rbdock.cxx#4 $)

>  <Rbt.Library>
libRbt.so (2013.1, Build901 2013/11/27)

>  <Rbt.Parameter_File>
/export/apps/rDock/src/rDock_2013.1_src/data/scripts/dock_solv.prm

>  <Rbt.Receptor>
prm/blind_docking_60.prm

>  <SCORE>
-9.26841

>  <SCORE.INTER>
-10.563

>  <SCORE.INTER.CONST>
1

>  <SCORE.INTER.POLAR>
0

>  <SCORE.INTER.ROT>
6

>  <SCORE.INTER.SOLV>
12.2373

>  <SCORE.INTER.VDW>
-18.7211

>  <SCORE.INTER.norm>
-0.391223

>  <SCORE.INTRA>
1.29461

>  <SCORE.INTRA.DIHEDRAL>
0.566919

>  <SCORE.INTRA.DIHEDRAL.0>
10.2917

>  <SCORE.INTRA.POLAR>
0

>  <SCORE.INTRA.POLAR.0>
0

>  <SCORE.INTRA.REPUL>
0

>  <SCORE.INTRA.REPUL.0>
0

>  <SCORE.INTRA.SOLV>
-1.90912

>  <SCORE.INTRA.SOLV.lig_0>
-39.6315

>  <SCORE.INTRA.VDW>
1.96571

>  <SCORE.INTRA.VDW.0>
-4.02152

>  <SCORE.INTRA.norm>
0.0479484

>  <SCORE.RESTR>
0

>  <SCORE.RESTR.CAVITY>
0

>  <SCORE.RESTR.norm>
0

>  <SCORE.SYSTEM>
0

>  <SCORE.SYSTEM.CONST>
0

>  <SCORE.SYSTEM.DIHEDRAL>
0

>  <SCORE.SYSTEM.SOLV>
0

>  <SCORE.SYSTEM.norm>
0

>  <SCORE.heavy>
27

>  <SCORE.norm>
-0.343275

>  <RMSD>
10.860

$$$$
lig.pdb
 OpenBabel11021811493D
libRbt.so/2013.1/901 2013/11/27
 27 29  0  0  0  0  0  0  0  0999 V2000
    7.8057   -9.5644  -19.5770 N   0  0  0  0  0  0  0  0  0  0  0  0
    7.6982  -10.8900  -18.8948 C   0  0  2  0  0  0  0  0  0  0  0  0
    8.9719  -11.1445  -18.0943 C   0  0  0  0  0  0  0  0  0  0  0  0
    8.9145  -11.7961  -17.0580 O   0  0  0  0  0  0  0  0  0  0  0  0
   10.0793  -10.7143  -18.4415 O   0  0  0  0  0  0  0  0  0  0  0  0
    7.3829  -12.0561  -19.8532 C   0  0  0  0  0  0  0  0  0  0  0  0
    6.9009  -11.6776  -21.2784 C   0  0  0  0  0  0  0  0  0  0  0  0
    6.5003  -13.0250  -22.4731 S   0  0  2  0  0  0  0  0  0  0  0  0
    5.4651  -12.1503  -23.6659 C   0  0  0  0  0  0  0  0  0  0  0  0
    5.2335  -13.9875  -21.6184 C   0  0  0  0  0  0  0  0  0  0  0  0
    5.8911  -15.0981  -20.8098 C   0  0  1  0  0  0  0  0  0  0  0  0
    6.5140  -14.6181  -19.6279 O   0  0  0  0  0  0  0  0  0  0  0  0
    4.9113  -16.1251  -20.3093 C   0  0  1  0  0  0  0  0  0  0  0  0
    4.5740  -17.0108  -21.3378 O   0  0  0  0  0  0  0  0  0  0  0  0
    5.7243  -16.7733  -19.2105 C   0  0  1  0  0  0  0  0  0  0  0  0
    6.5960  -17.7423  -19.7565 O   0  0  0  0  0  0  0  0  0  0  0  0
    6.5527  -15.6293  -18.6367 C   0  0  2  0  0  0  0  0  0  0  0  0
    6.0958  -15.1210  -17.3141 N   0  0  0  0  0  0  0  0  0  0  0  0
    5.0923  -14.2055  -17.1199 C   0  0  0  0  0  0  0  0  0  0  0  0
    4.9484  -13.9791  -15.7950 N   0  0  0  0  0  0  0  0  0  0  0  0
    5.8348  -14.7382  -15.1301 C   0  0  0  0  0  0  0  0  0  0  0  0
    6.0976  -14.8931  -13.7775 C   0  0  0  0  0  0  0  0  0  0  0  0
    5.4003  -14.2126  -12.8772 N   0  0  0  0  0  0  0  0  0  0  0  0
    7.0889  -15.7682  -13.3799 N   0  0  0  0  0  0  0  0  0  0  0  0
    7.8204  -16.4944  -14.3112 C   0  0  0  0  0  0  0  0  0  0  0  0
    7.5406  -16.3315  -15.6528 N   0  0  0  0  0  0  0  0  0  0  0  0
    6.5698  -15.4644  -16.0638 C   0  0  0  0  0  0  0  0  0  0  0  0
  2  3  1  6  0  0  0
  2  6  1  0  0  0  0
  2  1  1  0  0  0  0
  4  3  2  0  0  0  0
  5  3  1  0  0  0  0
  6  7  2  0  0  0  0
  8  7  1  1  0  0  0
  8  9  1  0  0  0  0
  8 10  1  0  0  0  0
 11 10  1  1  0  0  0
 11 13  1  0  0  0  0
 12 11  1  0  0  0  0
 12 17  1  0  0  0  0
 13 14  1  6  0  0  0
 13 15  1  0  0  0  0
 15 16  1  6  0  0  0
 17 18  1  1  0  0  0
 17 15  1  0  0  0  0
 18 19  1  0  0  0  0
 20 19  2  0  0  0  0
 21 27  2  0  0  0  0
 21 20  1  0  0  0  0
 22 21  1  0  0  0  0
 23 22  1  0  0  0  0
 24 22  2  0  0  0  0
 24 25  1  0  0  0  0
 25 26  2  0  0  0  0
 26 27  1  0  0  0  0
 27 18  1  0  0  0  0
M  END
>  <CHROM.1>
148.31314935,-13.83435051,160.26130363,-90.98855914,75.08398308,36.34069469
6.60939476,-14.06615767,-18.49568525,-1.59078283,1.09349996,1.91738906

>  <Name>
lig.pdb

>  <RI>
0

>  <Rbt.Current_Directory>
/home/itssahil/PROJECTS/Mol_Feturizer/New_Systems/rnas/4b5r

>  <Rbt.Executable>
rbdock ($Id: //depot/dev/client3/rdock/2013.1/src/exe/rbdock.cxx#4 $)

>  <Rbt.Library>
libRbt.so (2013.1, Build901 2013/11/27)

>  <Rbt.Parameter_File>
/export/apps/rDock/src/rDock_2013.1_src/data/scripts/dock_solv.prm

>  <Rbt.Receptor>
prm/blind_docking_100.prm

>  <SCORE>
-10.9188

>  <SCORE.INTER>
-10.5333

>  <SCORE.INTER.CONST>
1

>  <SCORE.INTER.POLAR>
0

>  <SCORE.INTER.ROT>
6

>  <SCORE.INTER.SOLV>
12.9751

>  <SCORE.INTER.VDW>
-18.9472

>  <SCORE.INTER.norm>
-0.390121

>  <SCORE.INTRA>
-0.385533

>  <SCORE.INTRA.DIHEDRAL>
-0.772321

>  <SCORE.INTRA.DIHEDRAL.0>
10.2917

>  <SCORE.INTRA.POLAR>
0

>  <SCORE.INTRA.POLAR.0>
0

>  <SCORE.INTRA.REPUL>
0

>  <SCORE.INTRA.REPUL.0>
0

>  <SCORE.INTRA.SOLV>
-2.6761

>  <SCORE.INTRA.SOLV.lig_0>
-39.6315

>  <SCORE.INTRA.VDW>
1.33868

>  <SCORE.INTRA.VDW.0>
-4.02152

>  <SCORE.INTRA.norm>
-0.014279

>  <SCORE.RESTR>
0

>  <SCORE.RESTR.CAVITY>
0

>  <SCORE.RESTR.norm>
0

>  <SCORE.SYSTEM>
0

>  <SCORE.SYSTEM.CONST>
0

>  <SCORE.SYSTEM.DIHEDRAL>
0

>  <SCORE.SYSTEM.SOLV>
0

>  <SCORE.SYSTEM.norm>
0

>  <SCORE.heavy>
27

>  <SCORE.norm>
-0.4044

>  <RMSD>
10.868

$$$$
lig.pdb
 OpenBabel11021811493D
libRbt.so/2013.1/901 2013/11/27
 27 29  0  0  0  0  0  0  0  0999 V2000
    7.5524   -6.0963  -18.1672 N   0  0  0  0  0  0  0  0  0  0  0  0
    6.9681   -6.8444  -19.3217 C   0  0  2  0  0  0  0  0  0  0  0  0
    5.4762   -6.5378  -19.4119 C   0  0  0  0  0  0  0  0  0  0  0  0
    4.9838   -6.2442  -20.4950 O   0  0  0  0  0  0  0  0  0  0  0  0
    4.7253   -6.5657  -18.4284 O   0  0  0  0  0  0  0  0  0  0  0  0
    7.2380   -8.3620  -19.2768 C   0  0  0  0  0  0  0  0  0  0  0  0
    7.6936   -9.0295  -20.6010 C   0  0  0  0  0  0  0  0  0  0  0  0
    8.0271  -10.8438  -20.6181 S   0  0  2  0  0  0  0  0  0  0  0  0
    7.9199  -11.2113  -22.3825 C   0  0  0  0  0  0  0  0  0  0  0  0
    6.4689  -11.5672  -20.0610 C   0  0  0  0  0  0  0  0  0  0  0  0
    6.7231  -12.9555  -19.4888 C   0  0  1  0  0  0  0  0  0  0  0  0
    7.2467  -12.9154  -18.1698 O   0  0  0  0  0  0  0  0  0  0  0  0
    5.4702  -13.7786  -19.3543 C   0  0  1  0  0  0  0  0  0  0  0  0
    5.1053  -14.3072  -20.5967 O   0  0  0  0  0  0  0  0  0  0  0  0
    5.9334  -14.8329  -18.3735 C   0  0  1  0  0  0  0  0  0  0  0  0
    6.6368  -15.8538  -19.0518 O   0  0  0  0  0  0  0  0  0  0  0  0
    6.9000  -14.0900  -17.4579 C   0  0  2  0  0  0  0  0  0  0  0  0
    6.3699  -13.7757  -16.1027 N   0  0  0  0  0  0  0  0  0  0  0  0
    5.1445  -14.1623  -15.6211 C   0  0  0  0  0  0  0  0  0  0  0  0
    4.9989  -13.7028  -14.3582 N   0  0  0  0  0  0  0  0  0  0  0  0
    6.1114  -13.0342  -14.0128 C   0  0  0  0  0  0  0  0  0  0  0  0
    6.4812  -12.3832  -12.8457 C   0  0  0  0  0  0  0  0  0  0  0  0
    5.6583  -12.3529  -11.8058 N   0  0  0  0  0  0  0  0  0  0  0  0
    7.7181  -11.7730  -12.7778 N   0  0  0  0  0  0  0  0  0  0  0  0
    8.5938  -11.8052  -13.8557 C   0  0  0  0  0  0  0  0  0  0  0  0
    8.2106  -12.4629  -15.0069 N   0  0  0  0  0  0  0  0  0  0  0  0
    6.9884  -13.0642  -15.0942 C   0  0  0  0  0  0  0  0  0  0  0  0
  2  3  1  1  0  0  0
  2  6  1  0  0  0  0
  2  1  1  0  0  0  0
  4  3  2  0  0  0  0
  5  3  1  0  0  0  0
  6  7  2  0  0  0  0
  8  7  1  6  0  0  0
  8  9  1  0  0  0  0
  8 10  1  0  0  0  0
 11 10  1  1  0  0  0
 11 13  1  0  0  0  0
 12 11  1  0  0  0  0
 12 17  1  0  0  0  0
 13 14  1  6  0  0  0
 13 15  1  0  0  0  0
 15 16  1  6  0  0  0
 17 18  1  1  0  0  0
 17 15  1  0  0  0  0
 18 19  1  0  0  0  0
 20 19  2  0  0  0  0
 21 27  2  0  0  0  0
 21 20  1  0  0  0  0
 22 21  1  0  0  0  0
 23 22  1  0  0  0  0
 24 22  2  0  0  0  0
 24 25  1  0  0  0  0
 25 26  2  0  0  0  0
 26 27  1  0  0  0  0
 27 18  1  0  0  0  0
M  END
>  <CHROM.1>
132.79393772,-135.08327388,160.46588648,-157.25653676,78.54199269,123.17898288
6.62044735,-11.46157164,-17.74222687,0.62530711,1.55040782,0.15439152

>  <Name>
lig.pdb

>  <RI>
0

>  <Rbt.Current_Directory>
/home/itssahil/PROJECTS/Mol_Feturizer/New_Systems/rnas/4b5r

>  <Rbt.Executable>
rbdock ($Id: //depot/dev/client3/rdock/2013.1/src/exe/rbdock.cxx#4 $)

>  <Rbt.Library>
libRbt.so (2013.1, Build901 2013/11/27)

>  <Rbt.Parameter_File>
/export/apps/rDock/src/rDock_2013.1_src/data/scripts/dock_solv.prm

>  <Rbt.Receptor>
prm/blind_docking_100.prm

>  <SCORE>
-9.63209

>  <SCORE.INTER>
-10.1025

>  <SCORE.INTER.CONST>
1

>  <SCORE.INTER.POLAR>
0

>  <SCORE.INTER.ROT>
6

>  <SCORE.INTER.SOLV>
11.4406

>  <SCORE.INTER.VDW>
-18.1485

>  <SCORE.INTER.norm>
-0.374166

>  <SCORE.INTRA>
0.470392

>  <SCORE.INTRA.DIHEDRAL>
0.467086

>  <SCORE.INTRA.DIHEDRAL.0>
10.2917

>  <SCORE.INTRA.POLAR>
0

>  <SCORE.INTRA.POLAR.0>
0

>  <SCORE.INTRA.REPUL>
0.0420946

>  <SCORE.INTRA.REPUL.0>
0

>  <SCORE.INTRA.SOLV>
-3.42583

>  <SCORE.INTRA.SOLV.lig_0>
-39.6315

>  <SCORE.INTRA.VDW>
1.73929

>  <SCORE.INTRA.VDW.0>
-4.02152

>  <SCORE.INTRA.norm>
0.0174219

>  <SCORE.RESTR>
0

>  <SCORE.RESTR.CAVITY>
0

>  <SCORE.RESTR.norm>
0

>  <SCORE.SYSTEM>
0

>  <SCORE.SYSTEM.CONST>
0

>  <SCORE.SYSTEM.DIHEDRAL>
0

>  <SCORE.SYSTEM.SOLV>
0

>  <SCORE.SYSTEM.norm>
0

>  <SCORE.heavy>
27

>  <SCORE.norm>
-0.356744

>  <RMSD>
10.895

$$$$
lig.pdb
 OpenBabel11021811493D
libRbt.so/2013.1/901 2013/11/27
 27 29  0  0  0  0  0  0  0  0999 V2000
    6.3869   -6.4902  -17.0685 N   0  0  0  0  0  0  0  0  0  0  0  0
    7.8796   -6.5533  -17.0253 C   0  0  2  0  0  0  0  0  0  0  0  0
    8.4402   -6.0205  -18.3406 C   0  0  0  0  0  0  0  0  0  0  0  0
    8.9335   -4.8993  -18.3773 O   0  0  0  0  0  0  0  0  0  0  0  0
    8.4170   -6.6725  -19.3924 O   0  0  0  0  0  0  0  0  0  0  0  0
    8.4310   -7.9550  -16.6950 C   0  0  0  0  0  0  0  0  0  0  0  0
    9.9739   -8.0983  -16.6204 C   0  0  0  0  0  0  0  0  0  0  0  0
   10.7000   -9.7501  -16.2358 S   0  0  2  0  0  0  0  0  0  0  0  0
   12.1143   -9.7898  -17.3572 C   0  0  0  0  0  0  0  0  0  0  0  0
    9.6032  -10.9047  -17.0876 C   0  0  0  0  0  0  0  0  0  0  0  0
    8.3382  -11.1126  -16.2654 C   0  0  1  0  0  0  0  0  0  0  0  0
    7.1845  -11.2909  -17.0732 O   0  0  0  0  0  0  0  0  0  0  0  0
    8.3808  -12.3561  -15.4184 C   0  0  1  0  0  0  0  0  0  0  0  0
    9.1457  -12.1305  -14.2695 O   0  0  0  0  0  0  0  0  0  0  0  0
    6.9088  -12.5433  -15.1242 C   0  0  1  0  0  0  0  0  0  0  0  0
    6.5184  -11.7164  -14.0468 O   0  0  0  0  0  0  0  0  0  0  0  0
    6.2122  -12.0648  -16.3932 C   0  0  2  0  0  0  0  0  0  0  0  0
    5.6657  -13.1456  -17.2588 N   0  0  0  0  0  0  0  0  0  0  0  0
    4.7807  -14.1136  -16.8552 C   0  0  0  0  0  0  0  0  0  0  0  0
    4.5028  -14.9244  -17.9006 N   0  0  0  0  0  0  0  0  0  0  0  0
    5.1853  -14.4922  -18.9736 C   0  0  0  0  0  0  0  0  0  0  0  0
    5.2510  -14.9497  -20.2809 C   0  0  0  0  0  0  0  0  0  0  0  0
    4.5454  -16.0083  -20.6566 N   0  0  0  0  0  0  0  0  0  0  0  0
    6.0546  -14.2864  -21.1870 N   0  0  0  0  0  0  0  0  0  0  0  0
    6.7915  -13.1708  -20.8098 C   0  0  0  0  0  0  0  0  0  0  0  0
    6.7088  -12.7266  -19.5058 N   0  0  0  0  0  0  0  0  0  0  0  0
    5.9260  -13.3753  -18.5949 C   0  0  0  0  0  0  0  0  0  0  0  0
  2  3  1  6  0  0  0
  2  6  1  0  0  0  0
  2  1  1  0  0  0  0
  4  3  2  0  0  0  0
  5  3  1  0  0  0  0
  6  7  2  0  0  0  0
  8  7  1  6  0  0  0
  8  9  1  0  0  0  0
  8 10  1  0  0  0  0
 11 10  1  6  0  0  0
 11 13  1  0  0  0  0
 12 11  1  0  0  0  0
 12 17  1  0  0  0  0
 13 14  1  1  0  0  0
 13 15  1  0  0  0  0
 15 16  1  1  0  0  0
 17 18  1  6  0  0  0
 17 15  1  0  0  0  0
 18 19  1  0  0  0  0
 20 19  2  0  0  0  0
 21 27  2  0  0  0  0
 21 20  1  0  0  0  0
 22 21  1  0  0  0  0
 23 22  1  0  0  0  0
 24 22  2  0  0  0  0
 24 25  1  0  0  0  0
 25 26  2  0  0  0  0
 26 27  1  0  0  0  0
 27 18  1  0  0  0  0
M  END
>  <CHROM.1>
104.16217478,-179.50829766,139.81661404,-79.20803366,145.07723209,175.17414975
7.57379724,-11.03750556,-17.48627409,0.56530231,-0.98096784,-0.68207926

>  <Name>
lig.pdb

>  <RI>
0

>  <Rbt.Current_Directory>
/home/itssahil/PROJECTS/Mol_Feturizer/New_Systems/rnas/4b5r

>  <Rbt.Executable>
rbdock ($Id: //depot/dev/client3/rdock/2013.1/src/exe/rbdock.cxx#4 $)

>  <Rbt.Library>
libRbt.so (2013.1, Build901 2013/11/27)

>  <Rbt.Parameter_File>
/export/apps/rDock/src/rDock_2013.1_src/data/scripts/dock_solv.prm

>  <Rbt.Receptor>
prm/blind_docking_40.prm

>  <SCORE>
-15.2744

>  <SCORE.INTER>
-16.9676

>  <SCORE.INTER.CONST>
1

>  <SCORE.INTER.POLAR>
0

>  <SCORE.INTER.ROT>
6

>  <SCORE.INTER.SOLV>
13.6555

>  <SCORE.INTER.VDW>
-23.4636

>  <SCORE.INTER.norm>
-0.62843

>  <SCORE.INTRA>
1.69257

>  <SCORE.INTRA.DIHEDRAL>
2.79232

>  <SCORE.INTRA.DIHEDRAL.0>
10.2917

>  <SCORE.INTRA.POLAR>
0

>  <SCORE.INTRA.POLAR.0>
0

>  <SCORE.INTRA.REPUL>
0.156343

>  <SCORE.INTRA.REPUL.0>
0

>  <SCORE.INTRA.SOLV>
-3.01554

>  <SCORE.INTRA.SOLV.lig_0>
-39.6315

>  <SCORE.INTRA.VDW>
1.02246

>  <SCORE.INTRA.VDW.0>
-4.02152

>  <SCORE.INTRA.norm>
0.0626877

>  <SCORE.RESTR>
0.000654759

>  <SCORE.RESTR.CAVITY>
0.000654759

>  <SCORE.RESTR.norm>
2.42503e-05

>  <SCORE.SYSTEM>
0

>  <SCORE.SYSTEM.CONST>
0

>  <SCORE.SYSTEM.DIHEDRAL>
0

>  <SCORE.SYSTEM.SOLV>
0

>  <SCORE.SYSTEM.norm>
0

>  <SCORE.heavy>
27

>  <SCORE.norm>
-0.565718

>  <RMSD>
10.976

$$$$
lig.pdb
 OpenBabel11021811493D
libRbt.so/2013.1/901 2013/11/27
 27 29  0  0  0  0  0  0  0  0999 V2000
    2.5521   -6.8521  -20.0822 N   0  0  0  0  0  0  0  0  0  0  0  0
    3.9136   -6.3843  -20.4839 C   0  0  2  0  0  0  0  0  0  0  0  0
    3.8580   -5.8545  -21.9137 C   0  0  0  0  0  0  0  0  0  0  0  0
    4.2126   -4.7048  -22.1465 O   0  0  0  0  0  0  0  0  0  0  0  0
    3.4610   -6.5371  -22.8667 O   0  0  0  0  0  0  0  0  0  0  0  0
    5.0115   -7.4536  -20.3129 C   0  0  0  0  0  0  0  0  0  0  0  0
    5.6046   -8.0590  -21.6122 C   0  0  0  0  0  0  0  0  0  0  0  0
    6.9174   -9.3483  -21.4785 S   0  0  2  0  0  0  0  0  0  0  0  0
    6.7591  -10.1872  -23.0694 C   0  0  0  0  0  0  0  0  0  0  0  0
    6.1792  -10.5959  -20.4014 C   0  0  0  0  0  0  0  0  0  0  0  0
    6.0980  -10.0616  -18.9775 C   0  0  1  0  0  0  0  0  0  0  0  0
    5.1762  -10.7835  -18.1747 O   0  0  0  0  0  0  0  0  0  0  0  0
    7.3976  -10.1777  -18.2271 C   0  0  1  0  0  0  0  0  0  0  0  0
    8.2688   -9.1532  -18.6109 O   0  0  0  0  0  0  0  0  0  0  0  0
    6.9096  -10.0391  -16.8020 C   0  0  1  0  0  0  0  0  0  0  0  0
    6.7410   -8.6747  -16.4753 O   0  0  0  0  0  0  0  0  0  0  0  0
    5.5449  -10.7189  -16.8085 C   0  0  2  0  0  0  0  0  0  0  0  0
    5.5050  -12.0602  -16.1639 N   0  0  0  0  0  0  0  0  0  0  0  0
    5.2787  -13.2467  -16.8151 C   0  0  0  0  0  0  0  0  0  0  0  0
    5.3135  -14.2583  -15.9191 N   0  0  0  0  0  0  0  0  0  0  0  0
    5.5668  -13.7474  -14.7030 C   0  0  0  0  0  0  0  0  0  0  0  0
    5.7141  -14.3387  -13.4575 C   0  0  0  0  0  0  0  0  0  0  0  0
    5.6065  -15.6540  -13.3233 N   0  0  0  0  0  0  0  0  0  0  0  0
    5.9801  -13.5424  -12.3612 N   0  0  0  0  0  0  0  0  0  0  0  0
    6.1049  -12.1648  -12.4887 C   0  0  0  0  0  0  0  0  0  0  0  0
    5.9609  -11.5948  -13.7373 N   0  0  0  0  0  0  0  0  0  0  0  0
    5.6895  -12.3660  -14.8304 C   0  0  0  0  0  0  0  0  0  0  0  0
  2  3  1  6  0  0  0
  2  6  1  0  0  0  0
  2  1  1  0  0  0  0
  4  3  2  0  0  0  0
  5  3  1  0  0  0  0
  6  7  2  0  0  0  0
  8  7  1  6  0  0  0
  8  9  1  0  0  0  0
  8 10  1  0  0  0  0
 11 10  1  6  0  0  0
 11 13  1  0  0  0  0
 12 11  1  0  0  0  0
 12 17  1  0  0  0  0
 13 14  1  6  0  0  0
 13 15  1  0  0  0  0
 15 16  1  6  0  0  0
 17 18  1  6  0  0  0
 17 15  1  0  0  0  0
 18 19  1  0  0  0  0
 20 19  2  0  0  0  0
 21 27  2  0  0  0  0
 21 20  1  0  0  0  0
 22 21  1  0  0  0  0
 23 22  1  0  0  0  0
 24 22  2  0  0  0  0
 24 25  1  0  0  0  0
 25 26  2  0  0  0  0
 26 27  1  0  0  0  0
 27 18  1  0  0  0  0
M  END
>  <CHROM.1>
122.92719035,109.31445623,157.05419170,-71.22091574,161.53999621,6.34971056
5.67212153,-10.19769985,-18.11672691,1.74610402,0.98826309,-1.03468451

>  <Name>
lig.pdb

>  <RI>
0

>  <Rbt.Current_Directory>
/home/itssahil/PROJECTS/Mol_Feturizer/New_Systems/rnas/4b5r

>  <Rbt.Executable>
rbdock ($Id: //depot/dev/client3/rdock/2013.1/src/exe/rbdock.cxx#4 $)

>  <Rbt.Library>
libRbt.so (2013.1, Build901 2013/11/27)

>  <Rbt.Parameter_File>
/export/apps/rDock/src/rDock_2013.1_src/data/scripts/dock_solv.prm

>  <Rbt.Receptor>
prm/blind_docking_100.prm

>  <SCORE>
-8.98662

>  <SCORE.INTER>
-8.30859

>  <SCORE.INTER.CONST>
1

>  <SCORE.INTER.POLAR>
0

>  <SCORE.INTER.ROT>
6

>  <SCORE.INTER.SOLV>
7.76235

>  <SCORE.INTER.VDW>
-15.7265

>  <SCORE.INTER.norm>
-0.307726

>  <SCORE.INTRA>
-0.678031

>  <SCORE.INTRA.DIHEDRAL>
-2.04264

>  <SCORE.INTRA.DIHEDRAL.0>
10.2917

>  <SCORE.INTRA.POLAR>
0

>  <SCORE.INTRA.POLAR.0>
0

>  <SCORE.INTRA.REPUL>
0

>  <SCORE.INTRA.REPUL.0>
0

>  <SCORE.INTRA.SOLV>
-2.90883

>  <SCORE.INTRA.SOLV.lig_0>
-39.6315

>  <SCORE.INTRA.VDW>
1.79771

>  <SCORE.INTRA.VDW.0>
-4.02152

>  <SCORE.INTRA.norm>
-0.0251123

>  <SCORE.RESTR>
0

>  <SCORE.RESTR.CAVITY>
0

>  <SCORE.RESTR.norm>
0

>  <SCORE.SYSTEM>
0

>  <SCORE.SYSTEM.CONST>
0

>  <SCORE.SYSTEM.DIHEDRAL>
0

>  <SCORE.SYSTEM.SOLV>
0

>  <SCORE.SYSTEM.norm>
0

>  <SCORE.heavy>
27

>  <SCORE.norm>
-0.332838

>  <RMSD>
11.103

$$$$
lig.pdb
 OpenBabel11021811493D
libRbt.so/2013.1/901 2013/11/27
 27 29  0  0  0  0  0  0  0  0999 V2000
    7.2218  -11.5342  -13.0214 N   0  0  0  0  0  0  0  0  0  0  0  0
    6.1315  -12.2356  -12.2776 C   0  0  2  0  0  0  0  0  0  0  0  0
    6.7360  -12.9832  -11.0928 C   0  0  0  0  0  0  0  0  0  0  0  0
    6.0581  -13.1763  -10.0903 O   0  0  0  0  0  0  0  0  0  0  0  0
    7.8986  -13.4076  -11.0903 O   0  0  0  0  0  0  0  0  0  0  0  0
    5.2758  -13.1640  -13.1628 C   0  0  0  0  0  0  0  0  0  0  0  0
    5.7131  -13.3147  -14.6436 C   0  0  0  0  0  0  0  0  0  0  0  0
    4.7287  -14.4056  -15.7592 S   0  0  2  0  0  0  0  0  0  0  0  0
    4.5229  -15.8761  -14.7321 C   0  0  0  0  0  0  0  0  0  0  0  0
    5.9517  -15.0242  -16.9354 C   0  0  0  0  0  0  0  0  0  0  0  0
    5.9322  -14.1674  -18.1943 C   0  0  1  0  0  0  0  0  0  0  0  0
    6.2560  -12.8095  -17.9362 O   0  0  0  0  0  0  0  0  0  0  0  0
    6.9524  -14.5934  -19.2157 C   0  0  1  0  0  0  0  0  0  0  0  0
    6.4944  -15.7140  -19.9159 O   0  0  0  0  0  0  0  0  0  0  0  0
    7.0265  -13.3482  -20.0714 C   0  0  1  0  0  0  0  0  0  0  0  0
    5.9665  -13.3356  -21.0059 O   0  0  0  0  0  0  0  0  0  0  0  0
    6.8281  -12.2050  -19.0824 C   0  0  2  0  0  0  0  0  0  0  0  0
    8.0610  -11.4420  -18.7446 N   0  0  0  0  0  0  0  0  0  0  0  0
    8.6724  -10.5220  -19.5586 C   0  0  0  0  0  0  0  0  0  0  0  0
    9.7626  -10.0283  -18.9300 N   0  0  0  0  0  0  0  0  0  0  0  0
    9.8610  -10.6064  -17.7216 C   0  0  0  0  0  0  0  0  0  0  0  0
   10.7735  -10.4541  -16.6887 C   0  0  0  0  0  0  0  0  0  0  0  0
   11.7818   -9.6003  -16.8060 N   0  0  0  0  0  0  0  0  0  0  0  0
   10.6156  -11.1971  -15.5356 N   0  0  0  0  0  0  0  0  0  0  0  0
    9.5588  -12.0878  -15.3954 C   0  0  0  0  0  0  0  0  0  0  0  0
    8.6574  -12.2216  -16.4317 N   0  0  0  0  0  0  0  0  0  0  0  0
    8.8031  -11.5013  -17.5819 C   0  0  0  0  0  0  0  0  0  0  0  0
  2  3  1  1  0  0  0
  2  6  1  0  0  0  0
  2  1  1  0  0  0  0
  4  3  2  0  0  0  0
  5  3  1  0  0  0  0
  6  7  2  0  0  0  0
  8  7  1  1  0  0  0
  8  9  1  0  0  0  0
  8 10  1  0  0  0  0
 11 10  1  1  0  0  0
 11 13  1  0  0  0  0
 12 11  1  0  0  0  0
 12 17  1  0  0  0  0
 13 14  1  6  0  0  0
 13 15  1  0  0  0  0
 15 16  1  6  0  0  0
 17 18  1  1  0  0  0
 17 15  1  0  0  0  0
 18 19  1  0  0  0  0
 20 19  2  0  0  0  0
 21 27  2  0  0  0  0
 21 20  1  0  0  0  0
 22 21  1  0  0  0  0
 23 22  1  0  0  0  0
 24 22  2  0  0  0  0
 24 25  1  0  0  0  0
 25 26  2  0  0  0  0
 26 27  1  0  0  0  0
 27 18  1  0  0  0  0
M  END
>  <CHROM.1>
151.60707032,4.01320962,-46.32886774,-95.94399736,60.99616099,-165.02873579
7.31213543,-12.76630635,-16.31643556,-1.90537632,-0.70024109,-1.63241678

>  <Name>
lig.pdb

>  <RI>
0

>  <Rbt.Current_Directory>
/home/itssahil/PROJECTS/Mol_Feturizer/New_Systems/rnas/4b5r

>  <Rbt.Executable>
rbdock ($Id: //depot/dev/client3/rdock/2013.1/src/exe/rbdock.cxx#4 $)

>  <Rbt.Library>
libRbt.so (2013.1, Build901 2013/11/27)

>  <Rbt.Parameter_File>
/export/apps/rDock/src/rDock_2013.1_src/data/scripts/dock_solv.prm

>  <Rbt.Receptor>
prm/blind_docking_60.prm

>  <SCORE>
-14.7326

>  <SCORE.INTER>
-14.5171

>  <SCORE.INTER.CONST>
1

>  <SCORE.INTER.POLAR>
0

>  <SCORE.INTER.ROT>
6

>  <SCORE.INTER.SOLV>
16.6422

>  <SCORE.INTER.VDW>
-22.8255

>  <SCORE.INTER.norm>
-0.537671

>  <SCORE.INTRA>
-0.215443

>  <SCORE.INTRA.DIHEDRAL>
-1.47242

>  <SCORE.INTRA.DIHEDRAL.0>
10.2917

>  <SCORE.INTRA.POLAR>
0

>  <SCORE.INTRA.POLAR.0>
0

>  <SCORE.INTRA.REPUL>
0

>  <SCORE.INTRA.REPUL.0>
0

>  <SCORE.INTRA.SOLV>
-0.760986

>  <SCORE.INTRA.SOLV.lig_0>
-39.6315

>  <SCORE.INTRA.VDW>
0.901261

>  <SCORE.INTRA.VDW.0>
-4.02152

>  <SCORE.INTRA.norm>
-0.00797936

>  <SCORE.RESTR>
0

>  <SCORE.RESTR.CAVITY>
0

>  <SCORE.RESTR.norm>
0

>  <SCORE.SYSTEM>
0

>  <SCORE.SYSTEM.CONST>
0

>  <SCORE.SYSTEM.DIHEDRAL>
0

>  <SCORE.SYSTEM.SOLV>
0

>  <SCORE.SYSTEM.norm>
0

>  <SCORE.heavy>
27

>  <SCORE.norm>
-0.545651

>  <RMSD>
11.140

$$$$
lig.pdb
 OpenBabel11021811493D
libRbt.so/2013.1/901 2013/11/27
 27 29  0  0  0  0  0  0  0  0999 V2000
    7.9598  -13.0265  -12.6118 N   0  0  0  0  0  0  0  0  0  0  0  0
    7.6964  -11.8983  -13.5561 C   0  0  2  0  0  0  0  0  0  0  0  0
    6.2503  -11.9765  -14.0366 C   0  0  0  0  0  0  0  0  0  0  0  0
    5.8077  -11.0977  -14.7670 O   0  0  0  0  0  0  0  0  0  0  0  0
    5.4862  -12.8960  -13.7164 O   0  0  0  0  0  0  0  0  0  0  0  0
    8.6878  -11.8333  -14.7354 C   0  0  0  0  0  0  0  0  0  0  0  0
    8.6350  -10.5617  -15.6224 C   0  0  0  0  0  0  0  0  0  0  0  0
    9.7900  -10.4228  -17.0543 S   0  0  2  0  0  0  0  0  0  0  0  0
   11.3588  -10.1038  -16.2198 C   0  0  0  0  0  0  0  0  0  0  0  0
    9.4542   -8.7748  -17.7123 C   0  0  0  0  0  0  0  0  0  0  0  0
    8.2067   -8.8149  -18.5850 C   0  0  1  0  0  0  0  0  0  0  0  0
    8.3010   -9.7716  -19.6296 O   0  0  0  0  0  0  0  0  0  0  0  0
    6.9703   -9.2252  -17.8311 C   0  0  1  0  0  0  0  0  0  0  0  0
    6.4753   -8.1453  -17.0931 O   0  0  0  0  0  0  0  0  0  0  0  0
    6.0663   -9.6261  -18.9758 C   0  0  1  0  0  0  0  0  0  0  0  0
    5.4526   -8.4827  -19.5353 O   0  0  0  0  0  0  0  0  0  0  0  0
    7.0148  -10.2320  -20.0041 C   0  0  2  0  0  0  0  0  0  0  0  0
    6.9700  -11.7166  -20.1061 N   0  0  0  0  0  0  0  0  0  0  0  0
    6.9569  -12.4311  -21.2775 C   0  0  0  0  0  0  0  0  0  0  0  0
    6.9149  -13.7516  -20.9915 N   0  0  0  0  0  0  0  0  0  0  0  0
    6.9096  -13.9027  -19.6569 C   0  0  0  0  0  0  0  0  0  0  0  0
    6.8832  -15.0286  -18.8480 C   0  0  0  0  0  0  0  0  0  0  0  0
    6.8592  -16.2404  -19.3869 N   0  0  0  0  0  0  0  0  0  0  0  0
    6.8884  -14.8724  -17.4760 N   0  0  0  0  0  0  0  0  0  0  0  0
    6.9232  -13.6097  -16.8980 C   0  0  0  0  0  0  0  0  0  0  0  0
    6.9550  -12.5010  -17.7192 N   0  0  0  0  0  0  0  0  0  0  0  0
    6.9419  -12.6367  -19.0773 C   0  0  0  0  0  0  0  0  0  0  0  0
  2  3  1  6  0  0  0
  2  6  1  0  0  0  0
  2  1  1  0  0  0  0
  4  3  2  0  0  0  0
  5  3  1  0  0  0  0
  6  7  2  0  0  0  0
  8  7  1  1  0  0  0
  8  9  1  0  0  0  0
  8 10  1  0  0  0  0
 11 10  1  1  0  0  0
 11 13  1  0  0  0  0
 12 11  1  0  0  0  0
 12 17  1  0  0  0  0
 13 14  1  6  0  0  0
 13 15  1  0  0  0  0
 15 16  1  6  0  0  0
 17 18  1  1  0  0  0
 17 15  1  0  0  0  0
 18 19  1  0  0  0  0
 20 19  2  0  0  0  0
 21 27  2  0  0  0  0
 21 20  1  0  0  0  0
 22 21  1  0  0  0  0
 23 22  1  0  0  0  0
 24 22  2  0  0  0  0
 24 25  1  0  0  0  0
 25 26  2  0  0  0  0
 26 27  1  0  0  0  0
 27 18  1  0  0  0  0
M  END
>  <CHROM.1>
176.13130811,-169.92832365,-73.39324769,-80.61085988,-55.76161059,-104.51658933
7.46973166,-11.49535255,-17.47607466,1.08822208,1.28027400,1.96926416

>  <Name>
lig.pdb

>  <RI>
0

>  <Rbt.Current_Directory>
/home/itssahil/PROJECTS/Mol_Feturizer/New_Systems/rnas/4b5r

>  <Rbt.Executable>
rbdock ($Id: //depot/dev/client3/rdock/2013.1/src/exe/rbdock.cxx#4 $)

>  <Rbt.Library>
libRbt.so (2013.1, Build901 2013/11/27)

>  <Rbt.Parameter_File>
/export/apps/rDock/src/rDock_2013.1_src/data/scripts/dock_solv.prm

>  <Rbt.Receptor>
prm/blind_docking_60.prm

>  <SCORE>
-10.8684

>  <SCORE.INTER>
-9.61481

>  <SCORE.INTER.CONST>
1

>  <SCORE.INTER.POLAR>
0

>  <SCORE.INTER.ROT>
6

>  <SCORE.INTER.SOLV>
10.0165

>  <SCORE.INTER.VDW>
-17.3487

>  <SCORE.INTER.norm>
-0.356104

>  <SCORE.INTRA>
-1.25358

>  <SCORE.INTRA.DIHEDRAL>
0.0928351

>  <SCORE.INTRA.DIHEDRAL.0>
10.2917

>  <SCORE.INTRA.POLAR>
0

>  <SCORE.INTRA.POLAR.0>
0

>  <SCORE.INTRA.REPUL>
0

>  <SCORE.INTRA.REPUL.0>
0

>  <SCORE.INTRA.SOLV>
-1.02911

>  <SCORE.INTRA.SOLV.lig_0>
-39.6315

>  <SCORE.INTRA.VDW>
-0.785441

>  <SCORE.INTRA.VDW.0>
-4.02152

>  <SCORE.INTRA.norm>
-0.0464288

>  <SCORE.RESTR>
0

>  <SCORE.RESTR.CAVITY>
0

>  <SCORE.RESTR.norm>
0

>  <SCORE.SYSTEM>
0

>  <SCORE.SYSTEM.CONST>
0

>  <SCORE.SYSTEM.DIHEDRAL>
0

>  <SCORE.SYSTEM.SOLV>
0

>  <SCORE.SYSTEM.norm>
0

>  <SCORE.heavy>
27

>  <SCORE.norm>
-0.402533

>  <RMSD>
11.206

$$$$
lig.pdb
 OpenBabel11021811493D
libRbt.so/2013.1/901 2013/11/27
 27 29  0  0  0  0  0  0  0  0999 V2000
    3.8392   -7.5242  -22.6327 N   0  0  0  0  0  0  0  0  0  0  0  0
    4.0196   -8.8091  -21.8908 C   0  0  2  0  0  0  0  0  0  0  0  0
    3.5994   -9.9681  -22.7899 C   0  0  0  0  0  0  0  0  0  0  0  0
    4.4105  -10.8448  -23.0645 O   0  0  0  0  0  0  0  0  0  0  0  0
    2.4625  -10.0671  -23.2689 O   0  0  0  0  0  0  0  0  0  0  0  0
    3.2919   -8.8471  -20.5318 C   0  0  0  0  0  0  0  0  0  0  0  0
    4.1839   -8.8861  -19.2632 C   0  0  0  0  0  0  0  0  0  0  0  0
    3.3769   -8.9392  -17.6051 S   0  0  2  0  0  0  0  0  0  0  0  0
    2.1542   -7.6198  -17.7591 C   0  0  0  0  0  0  0  0  0  0  0  0
    4.5719   -8.1226  -16.5249 C   0  0  0  0  0  0  0  0  0  0  0  0
    5.7973   -9.0102  -16.3512 C   0  0  1  0  0  0  0  0  0  0  0  0
    5.4772  -10.3931  -16.3694 O   0  0  0  0  0  0  0  0  0  0  0  0
    6.8005   -8.8578  -17.4628 C   0  0  1  0  0  0  0  0  0  0  0  0
    7.5574   -7.6972  -17.2730 O   0  0  0  0  0  0  0  0  0  0  0  0
    7.6053  -10.1266  -17.2875 C   0  0  1  0  0  0  0  0  0  0  0  0
    8.5725   -9.9535  -16.2719 O   0  0  0  0  0  0  0  0  0  0  0  0
    6.5804  -11.1561  -16.8249 C   0  0  2  0  0  0  0  0  0  0  0  0
    6.1739  -12.1494  -17.8566 N   0  0  0  0  0  0  0  0  0  0  0  0
    6.3308  -11.9954  -19.2110 C   0  0  0  0  0  0  0  0  0  0  0  0
    5.8515  -13.0914  -19.8408 N   0  0  0  0  0  0  0  0  0  0  0  0
    5.3961  -13.9536  -18.9171 C   0  0  0  0  0  0  0  0  0  0  0  0
    4.8224  -15.2116  -19.0211 C   0  0  0  0  0  0  0  0  0  0  0  0
    4.6421  -15.7695  -20.2110 N   0  0  0  0  0  0  0  0  0  0  0  0
    4.4473  -15.8779  -17.8713 N   0  0  0  0  0  0  0  0  0  0  0  0
    4.6391  -15.3098  -16.6182 C   0  0  0  0  0  0  0  0  0  0  0  0
    5.2169  -14.0594  -16.5342 N   0  0  0  0  0  0  0  0  0  0  0  0
    5.5860  -13.3831  -17.6609 C   0  0  0  0  0  0  0  0  0  0  0  0
  2  3  1  6  0  0  0
  2  6  1  0  0  0  0
  2  1  1  0  0  0  0
  4  3  2  0  0  0  0
  5  3  1  0  0  0  0
  6  7  2  0  0  0  0
  8  7  1  6  0  0  0
  8  9  1  0  0  0  0
  8 10  1  0  0  0  0
 11 10  1  6  0  0  0
 11 13  1  0  0  0  0
 12 11  1  0  0  0  0
 12 17  1  0  0  0  0
 13 14  1  1  0  0  0
 13 15  1  0  0  0  0
 15 16  1  1  0  0  0
 17 18  1  6  0  0  0
 17 15  1  0  0  0  0
 18 19  1  0  0  0  0
 20 19  2  0  0  0  0
 21 27  2  0  0  0  0
 21 20  1  0  0  0  0
 22 21  1  0  0  0  0
 23 22  1  0  0  0  0
 24 22  2  0  0  0  0
 24 25  1  0  0  0  0
 25 26  2  0  0  0  0
 26 27  1  0  0  0  0
 27 18  1  0  0  0  0
M  END
>  <CHROM.1>
120.90740349,-112.73668681,-48.01570475,-70.07168140,-33.20896288,100.05938259
5.01384217,-10.85882016,-18.72193054,2.15329519,-1.09749498,0.10639604

>  <Name>
lig.pdb

>  <RI>
0

>  <Rbt.Current_Directory>
/home/itssahil/PROJECTS/Mol_Feturizer/New_Systems/rnas/4b5r

>  <Rbt.Executable>
rbdock ($Id: //depot/dev/client3/rdock/2013.1/src/exe/rbdock.cxx#4 $)

>  <Rbt.Library>
libRbt.so (2013.1, Build901 2013/11/27)

>  <Rbt.Parameter_File>
/export/apps/rDock/src/rDock_2013.1_src/data/scripts/dock_solv.prm

>  <Rbt.Receptor>
prm/blind_docking_60.prm

>  <SCORE>
-11.448

>  <SCORE.INTER>
-10.779

>  <SCORE.INTER.CONST>
1

>  <SCORE.INTER.POLAR>
0

>  <SCORE.INTER.ROT>
6

>  <SCORE.INTER.SOLV>
14.692

>  <SCORE.INTER.VDW>
-19.6833

>  <SCORE.INTER.norm>
-0.399222

>  <SCORE.INTRA>
-0.668999

>  <SCORE.INTRA.DIHEDRAL>
-1.17146

>  <SCORE.INTRA.DIHEDRAL.0>
10.2917

>  <SCORE.INTRA.POLAR>
0

>  <SCORE.INTRA.POLAR.0>
0

>  <SCORE.INTRA.REPUL>
0

>  <SCORE.INTRA.REPUL.0>
0

>  <SCORE.INTRA.SOLV>
-3.03198

>  <SCORE.INTRA.SOLV.lig_0>
-39.6315

>  <SCORE.INTRA.VDW>
1.43272

>  <SCORE.INTRA.VDW.0>
-4.02152

>  <SCORE.INTRA.norm>
-0.0247777

>  <SCORE.RESTR>
0

>  <SCORE.RESTR.CAVITY>
0

>  <SCORE.RESTR.norm>
0

>  <SCORE.SYSTEM>
0

>  <SCORE.SYSTEM.CONST>
0

>  <SCORE.SYSTEM.DIHEDRAL>
0

>  <SCORE.SYSTEM.SOLV>
0

>  <SCORE.SYSTEM.norm>
0

>  <SCORE.heavy>
27

>  <SCORE.norm>
-0.424

>  <RMSD>
11.277

$$$$
lig.pdb
 OpenBabel11021811493D
libRbt.so/2013.1/901 2013/11/27
 27 29  0  0  0  0  0  0  0  0999 V2000
    3.4253  -17.5992  -12.1288 N   0  0  0  0  0  0  0  0  0  0  0  0
    3.2882  -16.1109  -12.1386 C   0  0  2  0  0  0  0  0  0  0  0  0
    2.0193  -15.7312  -12.8961 C   0  0  0  0  0  0  0  0  0  0  0  0
    1.3253  -14.8072  -12.4882 O   0  0  0  0  0  0  0  0  0  0  0  0
    1.6456  -16.3227  -13.9171 O   0  0  0  0  0  0  0  0  0  0  0  0
    4.5263  -15.3784  -12.6940 C   0  0  0  0  0  0  0  0  0  0  0  0
    4.4191  -14.8230  -14.1385 C   0  0  0  0  0  0  0  0  0  0  0  0
    5.8671  -13.9416  -14.8663 S   0  0  2  0  0  0  0  0  0  0  0  0
    5.8768  -12.4135  -13.9049 C   0  0  0  0  0  0  0  0  0  0  0  0
    5.2348  -13.3100  -16.4358 C   0  0  0  0  0  0  0  0  0  0  0  0
    5.1804  -14.4375  -17.4582 C   0  0  1  0  0  0  0  0  0  0  0  0
    4.5554  -14.0456  -18.6711 O   0  0  0  0  0  0  0  0  0  0  0  0
    6.5423  -14.9101  -17.8907 C   0  0  1  0  0  0  0  0  0  0  0  0
    7.0900  -15.7549  -16.9200 O   0  0  0  0  0  0  0  0  0  0  0  0
    6.1927  -15.6294  -19.1747 C   0  0  1  0  0  0  0  0  0  0  0  0
    5.7324  -16.9352  -18.8918 O   0  0  0  0  0  0  0  0  0  0  0  0
    5.0430  -14.8144  -19.7564 C   0  0  2  0  0  0  0  0  0  0  0  0
    5.4021  -13.9579  -20.9199 N   0  0  0  0  0  0  0  0  0  0  0  0
    4.9075  -14.1000  -22.1919 C   0  0  0  0  0  0  0  0  0  0  0  0
    5.4505  -13.1517  -22.9877 N   0  0  0  0  0  0  0  0  0  0  0  0
    6.2798  -12.3947  -22.2506 C   0  0  0  0  0  0  0  0  0  0  0  0
    7.0683  -11.2990  -22.5673 C   0  0  0  0  0  0  0  0  0  0  0  0
    7.0834  -10.8195  -23.8040 N   0  0  0  0  0  0  0  0  0  0  0  0
    7.8318  -10.7105  -21.5787 N   0  0  0  0  0  0  0  0  0  0  0  0
    7.8182  -11.1962  -20.2773 C   0  0  0  0  0  0  0  0  0  0  0  0
    7.0227  -12.2839  -19.9796 N   0  0  0  0  0  0  0  0  0  0  0  0
    6.2681  -12.8831  -20.9464 C   0  0  0  0  0  0  0  0  0  0  0  0
  2  3  1  6  0  0  0
  2  6  1  0  0  0  0
  2  1  1  0  0  0  0
  4  3  2  0  0  0  0
  5  3  1  0  0  0  0
  6  7  2  0  0  0  0
  8  7  1  1  0  0  0
  8  9  1  0  0  0  0
  8 10  1  0  0  0  0
 11 10  1  1  0  0  0
 11 13  1  0  0  0  0
 12 11  1  0  0  0  0
 12 17  1  0  0  0  0
 13 14  1  1  0  0  0
 13 15  1  0  0  0  0
 15 16  1  1  0  0  0
 17 18  1  6  0  0  0
 17 15  1  0  0  0  0
 18 19  1  0  0  0  0
 20 19  2  0  0  0  0
 21 27  2  0  0  0  0
 21 20  1  0  0  0  0
 22 21  1  0  0  0  0
 23 22  1  0  0  0  0
 24 22  2  0  0  0  0
 24 25  1  0  0  0  0
 25 26  2  0  0  0  0
 26 27  1  0  0  0  0
 27 18  1  0  0  0  0
M  END
>  <CHROM.1>
141.03192723,103.30211549,-70.27937732,-77.62376670,173.51966671,-124.43367983
5.29342549,-14.10164752,-17.63150883,2.15609916,0.94550636,1.42912594

>  <Name>
lig.pdb

>  <RI>
0

>  <Rbt.Current_Directory>
/home/itssahil/PROJECTS/Mol_Feturizer/New_Systems/rnas/4b5r

>  <Rbt.Executable>
rbdock ($Id: //depot/dev/client3/rdock/2013.1/src/exe/rbdock.cxx#4 $)

>  <Rbt.Library>
libRbt.so (2013.1, Build901 2013/11/27)

>  <Rbt.Parameter_File>
/export/apps/rDock/src/rDock_2013.1_src/data/scripts/dock_solv.prm

>  <Rbt.Receptor>
prm/blind_docking_80.prm

>  <SCORE>
-12.7746

>  <SCORE.INTER>
-11.778

>  <SCORE.INTER.CONST>
1

>  <SCORE.INTER.POLAR>
0

>  <SCORE.INTER.ROT>
6

>  <SCORE.INTER.SOLV>
16.0183

>  <SCORE.INTER.VDW>
-20.7915

>  <SCORE.INTER.norm>
-0.436223

>  <SCORE.INTRA>
-0.99657

>  <SCORE.INTRA.DIHEDRAL>
-2.14064

>  <SCORE.INTRA.DIHEDRAL.0>
10.2917

>  <SCORE.INTRA.POLAR>
0

>  <SCORE.INTRA.POLAR.0>
0

>  <SCORE.INTRA.REPUL>
0

>  <SCORE.INTRA.REPUL.0>
0

>  <SCORE.INTRA.SOLV>
-2.39286

>  <SCORE.INTRA.SOLV.lig_0>
-39.6315

>  <SCORE.INTRA.VDW>
1.27018

>  <SCORE.INTRA.VDW.0>
-4.02152

>  <SCORE.INTRA.norm>
-0.03691

>  <SCORE.RESTR>
0

>  <SCORE.RESTR.CAVITY>
0

>  <SCORE.RESTR.norm>
0

>  <SCORE.SYSTEM>
0

>  <SCORE.SYSTEM.CONST>
0

>  <SCORE.SYSTEM.DIHEDRAL>
0

>  <SCORE.SYSTEM.SOLV>
0

>  <SCORE.SYSTEM.norm>
0

>  <SCORE.heavy>
27

>  <SCORE.norm>
-0.473133

>  <RMSD>
11.286

$$$$
lig.pdb
 OpenBabel11021811493D
libRbt.so/2013.1/901 2013/11/27
 27 29  0  0  0  0  0  0  0  0999 V2000
    7.7107   -8.8183  -19.0561 N   0  0  0  0  0  0  0  0  0  0  0  0
    7.1150   -9.2173  -20.3676 C   0  0  2  0  0  0  0  0  0  0  0  0
    5.7639   -8.5278  -20.5328 C   0  0  0  0  0  0  0  0  0  0  0  0
    5.5569   -7.8325  -21.5204 O   0  0  0  0  0  0  0  0  0  0  0  0
    4.8517   -8.6326  -19.7028 O   0  0  0  0  0  0  0  0  0  0  0  0
    7.0051  -10.7434  -20.5594 C   0  0  0  0  0  0  0  0  0  0  0  0
    7.5123  -11.3156  -21.9092 C   0  0  0  0  0  0  0  0  0  0  0  0
    7.4037  -13.1331  -22.2061 S   0  0  2  0  0  0  0  0  0  0  0  0
    6.6295  -13.1843  -23.8363 C   0  0  0  0  0  0  0  0  0  0  0  0
    6.0035  -13.6468  -21.1876 C   0  0  0  0  0  0  0  0  0  0  0  0
    6.2300  -15.0652  -20.6814 C   0  0  1  0  0  0  0  0  0  0  0  0
    7.1746  -15.1235  -19.6233 O   0  0  0  0  0  0  0  0  0  0  0  0
    4.9922  -15.6886  -20.0944 C   0  0  1  0  0  0  0  0  0  0  0  0
    4.1487  -16.1384  -21.1152 O   0  0  0  0  0  0  0  0  0  0  0  0
    5.6024  -16.8145  -19.2893 C   0  0  1  0  0  0  0  0  0  0  0  0
    5.8703  -17.9217  -20.1255 O   0  0  0  0  0  0  0  0  0  0  0  0
    6.9235  -16.2407  -18.7894 C   0  0  2  0  0  0  0  0  0  0  0  0
    6.9440  -15.8673  -17.3484 N   0  0  0  0  0  0  0  0  0  0  0  0
    6.7875  -14.5960  -16.8562 C   0  0  0  0  0  0  0  0  0  0  0  0
    6.8609  -14.6304  -15.5068 N   0  0  0  0  0  0  0  0  0  0  0  0
    7.0533  -15.9017  -15.1187 C   0  0  0  0  0  0  0  0  0  0  0  0
    7.1863  -16.4824  -13.8666 C   0  0  0  0  0  0  0  0  0  0  0  0
    7.1264  -15.7357  -12.7719 N   0  0  0  0  0  0  0  0  0  0  0  0
    7.3754  -17.8471  -13.7738 N   0  0  0  0  0  0  0  0  0  0  0  0
    7.4305  -18.6425  -14.9113 C   0  0  0  0  0  0  0  0  0  0  0  0
    7.2903  -18.0475  -16.1486 N   0  0  0  0  0  0  0  0  0  0  0  0
    7.1111  -16.6989  -16.2592 C   0  0  0  0  0  0  0  0  0  0  0  0
  2  3  1  1  0  0  0
  2  6  1  0  0  0  0
  2  1  1  0  0  0  0
  4  3  2  0  0  0  0
  5  3  1  0  0  0  0
  6  7  2  0  0  0  0
  8  7  1  1  0  0  0
  8  9  1  0  0  0  0
  8 10  1  0  0  0  0
 11 10  1  1  0  0  0
 11 13  1  0  0  0  0
 12 11  1  0  0  0  0
 12 17  1  0  0  0  0
 13 14  1  6  0  0  0
 13 15  1  0  0  0  0
 15 16  1  6  0  0  0
 17 18  1  1  0  0  0
 17 15  1  0  0  0  0
 18 19  1  0  0  0  0
 20 19  2  0  0  0  0
 21 27  2  0  0  0  0
 21 20  1  0  0  0  0
 22 21  1  0  0  0  0
 23 22  1  0  0  0  0
 24 22  2  0  0  0  0
 24 25  1  0  0  0  0
 25 26  2  0  0  0  0
 26 27  1  0  0  0  0
 27 18  1  0  0  0  0
M  END
>  <CHROM.1>
124.16416497,-132.34180151,130.74854547,-148.00375512,75.77489412,19.92515261
6.58611241,-14.08265286,-18.89021963,-2.04748463,1.42882796,2.90968685

>  <Name>
lig.pdb

>  <RI>
0

>  <Rbt.Current_Directory>
/home/itssahil/PROJECTS/Mol_Feturizer/New_Systems/rnas/4b5r

>  <Rbt.Executable>
rbdock ($Id: //depot/dev/client3/rdock/2013.1/src/exe/rbdock.cxx#4 $)

>  <Rbt.Library>
libRbt.so (2013.1, Build901 2013/11/27)

>  <Rbt.Parameter_File>
/export/apps/rDock/src/rDock_2013.1_src/data/scripts/dock_solv.prm

>  <Rbt.Receptor>
prm/blind_docking_40.prm

>  <SCORE>
-10.5101

>  <SCORE.INTER>
-10.8283

>  <SCORE.INTER.CONST>
1

>  <SCORE.INTER.POLAR>
0

>  <SCORE.INTER.ROT>
6

>  <SCORE.INTER.SOLV>
14.4309

>  <SCORE.INTER.VDW>
-19.6292

>  <SCORE.INTER.norm>
-0.40105

>  <SCORE.INTRA>
0.318282

>  <SCORE.INTRA.DIHEDRAL>
0.954145

>  <SCORE.INTRA.DIHEDRAL.0>
10.2917

>  <SCORE.INTRA.POLAR>
0

>  <SCORE.INTRA.POLAR.0>
0

>  <SCORE.INTRA.REPUL>
0

>  <SCORE.INTRA.REPUL.0>
0

>  <SCORE.INTRA.SOLV>
-3.51863

>  <SCORE.INTRA.SOLV.lig_0>
-39.6315

>  <SCORE.INTRA.VDW>
1.60052

>  <SCORE.INTRA.VDW.0>
-4.02152

>  <SCORE.INTRA.norm>
0.0117882

>  <SCORE.RESTR>
0

>  <SCORE.RESTR.CAVITY>
0

>  <SCORE.RESTR.norm>
0

>  <SCORE.SYSTEM>
0

>  <SCORE.SYSTEM.CONST>
0

>  <SCORE.SYSTEM.DIHEDRAL>
0

>  <SCORE.SYSTEM.SOLV>
0

>  <SCORE.SYSTEM.norm>
0

>  <SCORE.heavy>
27

>  <SCORE.norm>
-0.389262

>  <RMSD>
11.287

$$$$
lig.pdb
 OpenBabel11021811493D
libRbt.so/2013.1/901 2013/11/27
 27 29  0  0  0  0  0  0  0  0999 V2000
    7.1103  -17.8104  -13.2762 N   0  0  0  0  0  0  0  0  0  0  0  0
    6.9332  -17.6736  -14.7540 C   0  0  2  0  0  0  0  0  0  0  0  0
    7.5856  -18.8658  -15.4477 C   0  0  0  0  0  0  0  0  0  0  0  0
    8.4803  -19.4806  -14.8791 O   0  0  0  0  0  0  0  0  0  0  0  0
    7.2550  -19.2473  -16.5777 O   0  0  0  0  0  0  0  0  0  0  0  0
    7.4463  -16.3332  -15.3180 C   0  0  0  0  0  0  0  0  0  0  0  0
    8.1888  -15.3978  -14.3278 C   0  0  0  0  0  0  0  0  0  0  0  0
    8.8228  -13.7757  -14.9363 S   0  0  2  0  0  0  0  0  0  0  0  0
    8.8026  -12.7924  -13.4223 C   0  0  0  0  0  0  0  0  0  0  0  0
    7.4010  -13.0558  -15.7860 C   0  0  0  0  0  0  0  0  0  0  0  0
    7.6906  -11.6005  -16.1287 C   0  0  1  0  0  0  0  0  0  0  0  0
    8.5649  -11.4640  -17.2388 O   0  0  0  0  0  0  0  0  0  0  0  0
    6.4626  -10.8340  -16.5407 C   0  0  1  0  0  0  0  0  0  0  0  0
    5.7214  -10.4687  -15.4124 O   0  0  0  0  0  0  0  0  0  0  0  0
    7.0943   -9.6529  -17.2438 C   0  0  1  0  0  0  0  0  0  0  0  0
    7.4925   -8.6799  -16.2996 O   0  0  0  0  0  0  0  0  0  0  0  0
    8.3367  -10.2363  -17.9075 C   0  0  2  0  0  0  0  0  0  0  0  0
    8.2361  -10.4228  -19.3811 N   0  0  0  0  0  0  0  0  0  0  0  0
    8.5201   -9.4660  -20.3228 C   0  0  0  0  0  0  0  0  0  0  0  0
    8.3197   -9.9834  -21.5556 N   0  0  0  0  0  0  0  0  0  0  0  0
    7.9201  -11.2593  -21.4269 C   0  0  0  0  0  0  0  0  0  0  0  0
    7.5950  -12.2312  -22.3607 C   0  0  0  0  0  0  0  0  0  0  0  0
    7.6566  -11.9613  -23.6580 N   0  0  0  0  0  0  0  0  0  0  0  0
    7.2127  -13.4841  -21.9237 N   0  0  0  0  0  0  0  0  0  0  0  0
    7.1531  -13.7836  -20.5685 C   0  0  0  0  0  0  0  0  0  0  0  0
    7.4860  -12.8051  -19.6539 N   0  0  0  0  0  0  0  0  0  0  0  0
    7.8579  -11.5589  -20.0682 C   0  0  0  0  0  0  0  0  0  0  0  0
  2  3  1  6  0  0  0
  2  6  1  0  0  0  0
  2  1  1  0  0  0  0
  4  3  2  0  0  0  0
  5  3  1  0  0  0  0
  6  7  2  0  0  0  0
  8  7  1  1  0  0  0
  8  9  1  0  0  0  0
  8 10  1  0  0  0  0
 11 10  1  6  0  0  0
 11 13  1  0  0  0  0
 12 11  1  0  0  0  0
 12 17  1  0  0  0  0
 13 14  1  1  0  0  0
 13 15  1  0  0  0  0
 15 16  1  1  0  0  0
 17 18  1  6  0  0  0
 17 15  1  0  0  0  0
 18 19  1  0  0  0  0
 20 19  2  0  0  0  0
 21 27  2  0  0  0  0
 21 20  1  0  0  0  0
 22 21  1  0  0  0  0
 23 22  1  0  0  0  0
 24 22  2  0  0  0  0
 24 25  1  0  0  0  0
 25 26  2  0  0  0  0
 26 27  1  0  0  0  0
 27 18  1  0  0  0  0
M  END
>  <CHROM.1>
-23.70922505,6.01010148,152.72196851,169.78034424,76.12933000,-153.97148236
7.73282245,-13.17209983,-17.43846210,-1.66417639,-1.55901352,-0.79564778

>  <Name>
lig.pdb

>  <RI>
0

>  <Rbt.Current_Directory>
/home/itssahil/PROJECTS/Mol_Feturizer/New_Systems/rnas/4b5r

>  <Rbt.Executable>
rbdock ($Id: //depot/dev/client3/rdock/2013.1/src/exe/rbdock.cxx#4 $)

>  <Rbt.Library>
libRbt.so (2013.1, Build901 2013/11/27)

>  <Rbt.Parameter_File>
/export/apps/rDock/src/rDock_2013.1_src/data/scripts/dock_solv.prm

>  <Rbt.Receptor>
prm/blind_docking_60.prm

>  <SCORE>
-12.636

>  <SCORE.INTER>
-11.9995

>  <SCORE.INTER.CONST>
1

>  <SCORE.INTER.POLAR>
0

>  <SCORE.INTER.ROT>
6

>  <SCORE.INTER.SOLV>
16.9352

>  <SCORE.INTER.VDW>
-21.2448

>  <SCORE.INTER.norm>
-0.444428

>  <SCORE.INTRA>
-0.636472

>  <SCORE.INTRA.DIHEDRAL>
-2.49615

>  <SCORE.INTRA.DIHEDRAL.0>
10.2917

>  <SCORE.INTRA.POLAR>
0

>  <SCORE.INTRA.POLAR.0>
0

>  <SCORE.INTRA.REPUL>
0

>  <SCORE.INTRA.REPUL.0>
0

>  <SCORE.INTRA.SOLV>
-1.96346

>  <SCORE.INTRA.SOLV.lig_0>
-39.6315

>  <SCORE.INTRA.VDW>
1.59333

>  <SCORE.INTRA.VDW.0>
-4.02152

>  <SCORE.INTRA.norm>
-0.023573

>  <SCORE.RESTR>
0

>  <SCORE.RESTR.CAVITY>
0

>  <SCORE.RESTR.norm>
0

>  <SCORE.SYSTEM>
0

>  <SCORE.SYSTEM.CONST>
0

>  <SCORE.SYSTEM.DIHEDRAL>
0

>  <SCORE.SYSTEM.SOLV>
0

>  <SCORE.SYSTEM.norm>
0

>  <SCORE.heavy>
27

>  <SCORE.norm>
-0.468001

>  <RMSD>
11.372

$$$$
lig.pdb
 OpenBabel11021811493D
libRbt.so/2013.1/901 2013/11/27
 27 29  0  0  0  0  0  0  0  0999 V2000
    8.1452   -5.2165  -16.8833 N   0  0  0  0  0  0  0  0  0  0  0  0
    9.0192   -6.1475  -17.6600 C   0  0  2  0  0  0  0  0  0  0  0  0
    8.2465   -6.6656  -18.8695 C   0  0  0  0  0  0  0  0  0  0  0  0
    7.3323   -5.9954  -19.3350 O   0  0  0  0  0  0  0  0  0  0  0  0
    8.4971   -7.7500  -19.4109 O   0  0  0  0  0  0  0  0  0  0  0  0
    9.6002   -7.3002  -16.8164 C   0  0  0  0  0  0  0  0  0  0  0  0
   11.1405   -7.3233  -16.6329 C   0  0  0  0  0  0  0  0  0  0  0  0
   11.9015   -8.6793  -15.6401 S   0  0  2  0  0  0  0  0  0  0  0  0
   13.5801   -8.7110  -16.3041 C   0  0  0  0  0  0  0  0  0  0  0  0
   11.2452  -10.1810  -16.3991 C   0  0  0  0  0  0  0  0  0  0  0  0
    9.7968  -10.3807  -15.9730 C   0  0  1  0  0  0  0  0  0  0  0  0
    8.8793  -10.1537  -17.0323 O   0  0  0  0  0  0  0  0  0  0  0  0
    9.4982  -11.7888  -15.5332 C   0  0  1  0  0  0  0  0  0  0  0  0
    9.9585  -11.9939  -14.2285 O   0  0  0  0  0  0  0  0  0  0  0  0
    7.9892  -11.7996  -15.6389 C   0  0  1  0  0  0  0  0  0  0  0  0
    7.4159  -11.2231  -14.4831 O   0  0  0  0  0  0  0  0  0  0  0  0
    7.6940  -10.9044  -16.8372 C   0  0  2  0  0  0  0  0  0  0  0  0
    7.2874  -11.6226  -18.0762 N   0  0  0  0  0  0  0  0  0  0  0  0
    7.7672  -11.3653  -19.3358 C   0  0  0  0  0  0  0  0  0  0  0  0
    7.1793  -12.2070  -20.2152 N   0  0  0  0  0  0  0  0  0  0  0  0
    6.3354  -13.0087  -19.5450 C   0  0  0  0  0  0  0  0  0  0  0  0
    5.5043  -14.0386  -19.9586 C   0  0  0  0  0  0  0  0  0  0  0  0
    5.4536  -14.3859  -21.2378 N   0  0  0  0  0  0  0  0  0  0  0  0
    4.7359  -14.7013  -19.0221 N   0  0  0  0  0  0  0  0  0  0  0  0
    4.7863  -14.3545  -17.6779 C   0  0  0  0  0  0  0  0  0  0  0  0
    5.6238  -13.3307  -17.2841 N   0  0  0  0  0  0  0  0  0  0  0  0
    6.3840  -12.6594  -18.1977 C   0  0  0  0  0  0  0  0  0  0  0  0
  2  3  1  6  0  0  0
  2  6  1  0  0  0  0
  2  1  1  0  0  0  0
  4  3  2  0  0  0  0
  5  3  1  0  0  0  0
  6  7  2  0  0  0  0
  8  7  1  6  0  0  0
  8  9  1  0  0  0  0
  8 10  1  0  0  0  0
 11 10  1  6  0  0  0
 11 13  1  0  0  0  0
 12 11  1  0  0  0  0
 12 17  1  0  0  0  0
 13 14  1  1  0  0  0
 13 15  1  0  0  0  0
 15 16  1  1  0  0  0
 17 18  1  6  0  0  0
 17 15  1  0  0  0  0
 18 19  1  0  0  0  0
 20 19  2  0  0  0  0
 21 27  2  0  0  0  0
 21 20  1  0  0  0  0
 22 21  1  0  0  0  0
 23 22  1  0  0  0  0
 24 22  2  0  0  0  0
 24 25  1  0  0  0  0
 25 26  2  0  0  0  0
 26 27  1  0  0  0  0
 27 18  1  0  0  0  0
M  END
>  <CHROM.1>
25.65440086,-115.15383521,156.05752094,-75.79171618,109.19841710,-15.12514973
8.40008560,-10.38308266,-17.43747105,0.60233166,-0.74828230,-0.40619152

>  <Name>
lig.pdb

>  <RI>
0

>  <Rbt.Current_Directory>
/home/itssahil/PROJECTS/Mol_Feturizer/New_Systems/rnas/4b5r

>  <Rbt.Executable>
rbdock ($Id: //depot/dev/client3/rdock/2013.1/src/exe/rbdock.cxx#4 $)

>  <Rbt.Library>
libRbt.so (2013.1, Build901 2013/11/27)

>  <Rbt.Parameter_File>
/export/apps/rDock/src/rDock_2013.1_src/data/scripts/dock_solv.prm

>  <Rbt.Receptor>
prm/blind_docking_100.prm

>  <SCORE>
-18.6861

>  <SCORE.INTER>
-19.1885

>  <SCORE.INTER.CONST>
1

>  <SCORE.INTER.POLAR>
0

>  <SCORE.INTER.ROT>
6

>  <SCORE.INTER.SOLV>
17.6238

>  <SCORE.INTER.VDW>
-26.2669

>  <SCORE.INTER.norm>
-0.710686

>  <SCORE.INTRA>
0.502425

>  <SCORE.INTRA.DIHEDRAL>
1.66554

>  <SCORE.INTRA.DIHEDRAL.0>
10.2917

>  <SCORE.INTRA.POLAR>
0

>  <SCORE.INTRA.POLAR.0>
0

>  <SCORE.INTRA.REPUL>
0

>  <SCORE.INTRA.REPUL.0>
0

>  <SCORE.INTRA.SOLV>
-3.04485

>  <SCORE.INTRA.SOLV.lig_0>
-39.6315

>  <SCORE.INTRA.VDW>
1.19208

>  <SCORE.INTRA.VDW.0>
-4.02152

>  <SCORE.INTRA.norm>
0.0186083

>  <SCORE.RESTR>
0

>  <SCORE.RESTR.CAVITY>
0

>  <SCORE.RESTR.norm>
0

>  <SCORE.SYSTEM>
0

>  <SCORE.SYSTEM.CONST>
0

>  <SCORE.SYSTEM.DIHEDRAL>
0

>  <SCORE.SYSTEM.SOLV>
0

>  <SCORE.SYSTEM.norm>
0

>  <SCORE.heavy>
27

>  <SCORE.norm>
-0.692077

>  <RMSD>
11.384

$$$$
lig.pdb
 OpenBabel11021811493D
libRbt.so/2013.1/901 2013/11/27
 27 29  0  0  0  0  0  0  0  0999 V2000
    5.7525   -6.0341  -16.5245 N   0  0  0  0  0  0  0  0  0  0  0  0
    7.1810   -6.4652  -16.4383 C   0  0  2  0  0  0  0  0  0  0  0  0
    8.0216   -5.5977  -17.3705 C   0  0  0  0  0  0  0  0  0  0  0  0
    8.9838   -4.9853  -16.9223 O   0  0  0  0  0  0  0  0  0  0  0  0
    7.7738   -5.4747  -18.5769 O   0  0  0  0  0  0  0  0  0  0  0  0
    7.3920   -7.9682  -16.7111 C   0  0  0  0  0  0  0  0  0  0  0  0
    8.8282   -8.5192  -16.5101 C   0  0  0  0  0  0  0  0  0  0  0  0
    9.1509  -10.3080  -16.8258 S   0  0  2  0  0  0  0  0  0  0  0  0
   10.7208  -10.5460  -15.9665 C   0  0  0  0  0  0  0  0  0  0  0  0
    9.7316  -10.3393  -18.5356 C   0  0  0  0  0  0  0  0  0  0  0  0
    8.5675  -10.6489  -19.4675 C   0  0  1  0  0  0  0  0  0  0  0  0
    8.1327  -11.9967  -19.3696 O   0  0  0  0  0  0  0  0  0  0  0  0
    7.3316   -9.8480  -19.1565 C   0  0  1  0  0  0  0  0  0  0  0  0
    7.4560   -8.5521  -19.6675 O   0  0  0  0  0  0  0  0  0  0  0  0
    6.2807  -10.6692  -19.8703 C   0  0  1  0  0  0  0  0  0  0  0  0
    6.2554  -10.3399  -21.2443 O   0  0  0  0  0  0  0  0  0  0  0  0
    6.7632  -12.1070  -19.7146 C   0  0  2  0  0  0  0  0  0  0  0  0
    6.0097  -12.9215  -18.7221 N   0  0  0  0  0  0  0  0  0  0  0  0
    5.1460  -13.9434  -19.0267 C   0  0  0  0  0  0  0  0  0  0  0  0
    4.6444  -14.4568  -17.8812 N   0  0  0  0  0  0  0  0  0  0  0  0
    5.1752  -13.7908  -16.8425 C   0  0  0  0  0  0  0  0  0  0  0  0
    5.0102  -13.9201  -15.4719 C   0  0  0  0  0  0  0  0  0  0  0  0
    4.1988  -14.8466  -14.9792 N   0  0  0  0  0  0  0  0  0  0  0  0
    5.7054  -13.0774  -14.6274 N   0  0  0  0  0  0  0  0  0  0  0  0
    6.5658  -12.1091  -15.1292 C   0  0  0  0  0  0  0  0  0  0  0  0
    6.7217  -11.9992  -16.4960 N   0  0  0  0  0  0  0  0  0  0  0  0
    6.0360  -12.8184  -17.3456 C   0  0  0  0  0  0  0  0  0  0  0  0
  2  3  1  6  0  0  0
  2  6  1  0  0  0  0
  2  1  1  0  0  0  0
  4  3  2  0  0  0  0
  5  3  1  0  0  0  0
  6  7  2  0  0  0  0
  8  7  1  1  0  0  0
  8  9  1  0  0  0  0
  8 10  1  0  0  0  0
 11 10  1  1  0  0  0
 11 13  1  0  0  0  0
 12 11  1  0  0  0  0
 12 17  1  0  0  0  0
 13 14  1  6  0  0  0
 13 15  1  0  0  0  0
 15 16  1  6  0  0  0
 17 18  1  1  0  0  0
 17 15  1  0  0  0  0
 18 19  1  0  0  0  0
 20 19  2  0  0  0  0
 21 27  2  0  0  0  0
 21 20  1  0  0  0  0
 22 21  1  0  0  0  0
 23 22  1  0  0  0  0
 24 22  2  0  0  0  0
 24 25  1  0  0  0  0
 25 26  2  0  0  0  0
 26 27  1  0  0  0  0
 27 18  1  0  0  0  0
M  END
>  <CHROM.1>
124.52854651,-174.44779805,-162.38974169,-95.57116866,-71.41242446,-131.95328564
7.16358550,-10.44691050,-17.61467340,-0.01644100,1.20357321,1.51216013

>  <Name>
lig.pdb

>  <RI>
0

>  <Rbt.Current_Directory>
/home/itssahil/PROJECTS/Mol_Feturizer/New_Systems/rnas/4b5r

>  <Rbt.Executable>
rbdock ($Id: //depot/dev/client3/rdock/2013.1/src/exe/rbdock.cxx#4 $)

>  <Rbt.Library>
libRbt.so (2013.1, Build901 2013/11/27)

>  <Rbt.Parameter_File>
/export/apps/rDock/src/rDock_2013.1_src/data/scripts/dock_solv.prm

>  <Rbt.Receptor>
prm/blind_docking_40.prm

>  <SCORE>
-12.8112

>  <SCORE.INTER>
-13.1471

>  <SCORE.INTER.CONST>
1

>  <SCORE.INTER.POLAR>
0

>  <SCORE.INTER.ROT>
6

>  <SCORE.INTER.SOLV>
11.892

>  <SCORE.INTER.VDW>
-20.3287

>  <SCORE.INTER.norm>
-0.486929

>  <SCORE.INTRA>
0.335888

>  <SCORE.INTRA.DIHEDRAL>
2.68775

>  <SCORE.INTRA.DIHEDRAL.0>
10.2917

>  <SCORE.INTRA.POLAR>
0

>  <SCORE.INTRA.POLAR.0>
0

>  <SCORE.INTRA.REPUL>
0

>  <SCORE.INTRA.REPUL.0>
0

>  <SCORE.INTRA.SOLV>
-1.51887

>  <SCORE.INTRA.SOLV.lig_0>
-39.6315

>  <SCORE.INTRA.VDW>
-0.248549

>  <SCORE.INTRA.VDW.0>
-4.02152

>  <SCORE.INTRA.norm>
0.0124403

>  <SCORE.RESTR>
0

>  <SCORE.RESTR.CAVITY>
0

>  <SCORE.RESTR.norm>
0

>  <SCORE.SYSTEM>
0

>  <SCORE.SYSTEM.CONST>
0

>  <SCORE.SYSTEM.DIHEDRAL>
0

>  <SCORE.SYSTEM.SOLV>
0

>  <SCORE.SYSTEM.norm>
0

>  <SCORE.heavy>
27

>  <SCORE.norm>
-0.474489

>  <RMSD>
11.401

$$$$
lig.pdb
 OpenBabel11021811493D
libRbt.so/2013.1/901 2013/11/27
 27 29  0  0  0  0  0  0  0  0999 V2000
    4.7586  -16.9688  -13.8907 N   0  0  0  0  0  0  0  0  0  0  0  0
    4.1575  -15.6017  -13.9509 C   0  0  2  0  0  0  0  0  0  0  0  0
    2.6813  -15.6882  -13.5748 C   0  0  0  0  0  0  0  0  0  0  0  0
    2.2857  -15.1446  -12.5502 O   0  0  0  0  0  0  0  0  0  0  0  0
    1.8489  -16.2947  -14.2613 O   0  0  0  0  0  0  0  0  0  0  0  0
    4.3616  -14.8943  -15.3058 C   0  0  0  0  0  0  0  0  0  0  0  0
    5.2664  -13.6342  -15.3060 C   0  0  0  0  0  0  0  0  0  0  0  0
    5.5470  -12.7364  -16.8931 S   0  0  2  0  0  0  0  0  0  0  0  0
    5.9768  -14.0946  -18.0021 C   0  0  0  0  0  0  0  0  0  0  0  0
    7.1782  -11.9918  -16.6769 C   0  0  0  0  0  0  0  0  0  0  0  0
    7.3569  -10.8504  -17.6693 C   0  0  1  0  0  0  0  0  0  0  0  0
    6.3952   -9.8205  -17.4966 O   0  0  0  0  0  0  0  0  0  0  0  0
    8.6758  -10.1401  -17.5228 C   0  0  1  0  0  0  0  0  0  0  0  0
    9.6940  -10.8853  -18.1261 O   0  0  0  0  0  0  0  0  0  0  0  0
    8.3775   -8.8464  -18.2479 C   0  0  1  0  0  0  0  0  0  0  0  0
    8.5275   -9.0236  -19.6418 O   0  0  0  0  0  0  0  0  0  0  0  0
    6.9093   -8.5766  -17.9382 C   0  0  2  0  0  0  0  0  0  0  0  0
    6.6623   -7.4954  -16.9451 N   0  0  0  0  0  0  0  0  0  0  0  0
    5.7151   -7.5312  -15.9529 C   0  0  0  0  0  0  0  0  0  0  0  0
    5.7739   -6.3830  -15.2417 N   0  0  0  0  0  0  0  0  0  0  0  0
    6.7475   -5.6107  -15.7512 C   0  0  0  0  0  0  0  0  0  0  0  0
    7.2236   -4.3580  -15.3955 C   0  0  0  0  0  0  0  0  0  0  0  0
    6.6918   -3.7053  -14.3705 N   0  0  0  0  0  0  0  0  0  0  0  0
    8.2614   -3.8021  -16.1172 N   0  0  0  0  0  0  0  0  0  0  0  0
    8.8342   -4.4785  -17.1868 C   0  0  0  0  0  0  0  0  0  0  0  0
    8.3509   -5.7268  -17.5224 N   0  0  0  0  0  0  0  0  0  0  0  0
    7.3202   -6.2877  -16.8251 C   0  0  0  0  0  0  0  0  0  0  0  0
  2  3  1  6  0  0  0
  2  6  1  0  0  0  0
  2  1  1  0  0  0  0
  4  3  2  0  0  0  0
  5  3  1  0  0  0  0
  6  7  2  0  0  0  0
  8  7  1  1  0  0  0
  8  9  1  0  0  0  0
  8 10  1  0  0  0  0
 11 10  1  1  0  0  0
 11 13  1  0  0  0  0
 12 11  1  0  0  0  0
 12 17  1  0  0  0  0
 13 14  1  6  0  0  0
 13 15  1  0  0  0  0
 15 16  1  6  0  0  0
 17 18  1  1  0  0  0
 17 15  1  0  0  0  0
 18 19  1  0  0  0  0
 20 19  2  0  0  0  0
 21 27  2  0  0  0  0
 21 20  1  0  0  0  0
 22 21  1  0  0  0  0
 23 22  1  0  0  0  0
 24 22  2  0  0  0  0
 24 25  1  0  0  0  0
 25 26  2  0  0  0  0
 26 27  1  0  0  0  0
 27 18  1  0  0  0  0
M  END
>  <CHROM.1>
114.47086887,-113.62025712,-48.49668158,-160.73617142,60.49803900,-20.03374581
6.30220529,-10.24460254,-16.28519979,2.14280633,-0.83120907,-2.90802039

>  <Name>
lig.pdb

>  <RI>
0

>  <Rbt.Current_Directory>
/home/itssahil/PROJECTS/Mol_Feturizer/New_Systems/rnas/4b5r

>  <Rbt.Executable>
rbdock ($Id: //depot/dev/client3/rdock/2013.1/src/exe/rbdock.cxx#4 $)

>  <Rbt.Library>
libRbt.so (2013.1, Build901 2013/11/27)

>  <Rbt.Parameter_File>
/export/apps/rDock/src/rDock_2013.1_src/data/scripts/dock_solv.prm

>  <Rbt.Receptor>
prm/blind_docking_100.prm

>  <SCORE>
-13.452

>  <SCORE.INTER>
-12.8914

>  <SCORE.INTER.CONST>
1

>  <SCORE.INTER.POLAR>
0

>  <SCORE.INTER.ROT>
6

>  <SCORE.INTER.SOLV>
15.5589

>  <SCORE.INTER.VDW>
-21.3806

>  <SCORE.INTER.norm>
-0.477461

>  <SCORE.INTRA>
-0.560602

>  <SCORE.INTRA.DIHEDRAL>
-1.53997

>  <SCORE.INTRA.DIHEDRAL.0>
10.2917

>  <SCORE.INTRA.POLAR>
0

>  <SCORE.INTRA.POLAR.0>
0

>  <SCORE.INTRA.REPUL>
0

>  <SCORE.INTRA.REPUL.0>
0

>  <SCORE.INTRA.SOLV>
-3.23111

>  <SCORE.INTRA.SOLV.lig_0>
-39.6315

>  <SCORE.INTRA.VDW>
1.82494

>  <SCORE.INTRA.VDW.0>
-4.02152

>  <SCORE.INTRA.norm>
-0.020763

>  <SCORE.RESTR>
0

>  <SCORE.RESTR.CAVITY>
0

>  <SCORE.RESTR.norm>
0

>  <SCORE.SYSTEM>
0

>  <SCORE.SYSTEM.CONST>
0

>  <SCORE.SYSTEM.DIHEDRAL>
0

>  <SCORE.SYSTEM.SOLV>
0

>  <SCORE.SYSTEM.norm>
0

>  <SCORE.heavy>
27

>  <SCORE.norm>
-0.498224

>  <RMSD>
11.423

$$$$
lig.pdb
 OpenBabel11021811493D
libRbt.so/2013.1/901 2013/11/27
 27 29  0  0  0  0  0  0  0  0999 V2000
    3.5110   -7.5043  -20.0028 N   0  0  0  0  0  0  0  0  0  0  0  0
    4.7608   -6.9878  -20.6394 C   0  0  2  0  0  0  0  0  0  0  0  0
    4.3884   -6.1062  -21.8279 C   0  0  0  0  0  0  0  0  0  0  0  0
    3.7324   -6.5787  -22.7488 O   0  0  0  0  0  0  0  0  0  0  0  0
    4.7255   -4.9184  -21.9133 O   0  0  0  0  0  0  0  0  0  0  0  0
    5.7559   -8.0958  -21.0393 C   0  0  0  0  0  0  0  0  0  0  0  0
    7.0440   -8.2192  -20.1838 C   0  0  0  0  0  0  0  0  0  0  0  0
    8.2799   -9.5201  -20.6125 S   0  0  2  0  0  0  0  0  0  0  0  0
    7.5015  -10.2957  -22.0450 C   0  0  0  0  0  0  0  0  0  0  0  0
    7.9906  -10.8044  -19.3760 C   0  0  0  0  0  0  0  0  0  0  0  0
    8.5945  -10.3797  -18.0439 C   0  0  1  0  0  0  0  0  0  0  0  0
    7.9426  -10.9769  -16.9332 O   0  0  0  0  0  0  0  0  0  0  0  0
   10.0317  -10.7977  -17.8858 C   0  0  1  0  0  0  0  0  0  0  0  0
   10.8672   -9.9281  -18.5942 O   0  0  0  0  0  0  0  0  0  0  0  0
   10.1915  -10.6840  -16.3859 C   0  0  1  0  0  0  0  0  0  0  0  0
   10.4497   -9.3427  -16.0238 O   0  0  0  0  0  0  0  0  0  0  0  0
    8.8297  -11.0920  -15.8349 C   0  0  2  0  0  0  0  0  0  0  0  0
    8.7768  -12.4490  -15.2249 N   0  0  0  0  0  0  0  0  0  0  0  0
    9.3602  -12.8072  -14.0356 C   0  0  0  0  0  0  0  0  0  0  0  0
    9.1082  -14.1130  -13.7933 N   0  0  0  0  0  0  0  0  0  0  0  0
    8.3655  -14.6019  -14.8000 C   0  0  0  0  0  0  0  0  0  0  0  0
    7.8329  -15.8598  -15.0377 C   0  0  0  0  0  0  0  0  0  0  0  0
    8.0293  -16.8452  -14.1716 N   0  0  0  0  0  0  0  0  0  0  0  0
    7.0911  -16.0717  -16.1829 N   0  0  0  0  0  0  0  0  0  0  0  0
    6.8693  -15.0464  -17.0937 C   0  0  0  0  0  0  0  0  0  0  0  0
    7.4025  -13.7996  -16.8372 N   0  0  0  0  0  0  0  0  0  0  0  0
    8.1452  -13.5748  -15.7143 C   0  0  0  0  0  0  0  0  0  0  0  0
  2  3  1  6  0  0  0
  2  6  1  0  0  0  0
  2  1  1  0  0  0  0
  4  3  2  0  0  0  0
  5  3  1  0  0  0  0
  6  7  2  0  0  0  0
  8  7  1  1  0  0  0
  8  9  1  0  0  0  0
  8 10  1  0  0  0  0
 11 10  1  6  0  0  0
 11 13  1  0  0  0  0
 12 11  1  0  0  0  0
 12 17  1  0  0  0  0
 13 14  1  6  0  0  0
 13 15  1  0  0  0  0
 15 16  1  6  0  0  0
 17 18  1  6  0  0  0
 17 15  1  0  0  0  0
 18 19  1  0  0  0  0
 20 19  2  0  0  0  0
 21 27  2  0  0  0  0
 21 20  1  0  0  0  0
 22 21  1  0  0  0  0
 23 22  1  0  0  0  0
 24 22  2  0  0  0  0
 24 25  1  0  0  0  0
 25 26  2  0  0  0  0
 26 27  1  0  0  0  0
 27 18  1  0  0  0  0
M  END
>  <CHROM.1>
-59.09120685,-107.88851257,0.34338258,-76.50876492,153.64140211,-169.61166622
7.64415504,-10.85735843,-18.08075330,1.92404861,-0.43537936,-0.56350483

>  <Name>
lig.pdb

>  <RI>
0

>  <Rbt.Current_Directory>
/home/itssahil/PROJECTS/Mol_Feturizer/New_Systems/rnas/4b5r

>  <Rbt.Executable>
rbdock ($Id: //depot/dev/client3/rdock/2013.1/src/exe/rbdock.cxx#4 $)

>  <Rbt.Library>
libRbt.so (2013.1, Build901 2013/11/27)

>  <Rbt.Parameter_File>
/export/apps/rDock/src/rDock_2013.1_src/data/scripts/dock_solv.prm

>  <Rbt.Receptor>
prm/blind_docking_40.prm

>  <SCORE>
-13.204

>  <SCORE.INTER>
-13.8522

>  <SCORE.INTER.CONST>
1

>  <SCORE.INTER.POLAR>
0

>  <SCORE.INTER.ROT>
6

>  <SCORE.INTER.SOLV>
13.055

>  <SCORE.INTER.VDW>
-21.1865

>  <SCORE.INTER.norm>
-0.513045

>  <SCORE.INTRA>
0.648199

>  <SCORE.INTRA.DIHEDRAL>
-0.211428

>  <SCORE.INTRA.DIHEDRAL.0>
10.2917

>  <SCORE.INTRA.POLAR>
0

>  <SCORE.INTRA.POLAR.0>
0

>  <SCORE.INTRA.REPUL>
0

>  <SCORE.INTRA.REPUL.0>
0

>  <SCORE.INTRA.SOLV>
-2.57876

>  <SCORE.INTRA.SOLV.lig_0>
-39.6315

>  <SCORE.INTRA.VDW>
2.04329

>  <SCORE.INTRA.VDW.0>
-4.02152

>  <SCORE.INTRA.norm>
0.0240074

>  <SCORE.RESTR>
0

>  <SCORE.RESTR.CAVITY>
0

>  <SCORE.RESTR.norm>
0

>  <SCORE.SYSTEM>
0

>  <SCORE.SYSTEM.CONST>
0

>  <SCORE.SYSTEM.DIHEDRAL>
0

>  <SCORE.SYSTEM.SOLV>
0

>  <SCORE.SYSTEM.norm>
0

>  <SCORE.heavy>
27

>  <SCORE.norm>
-0.489038

>  <RMSD>
11.439

$$$$
lig.pdb
 OpenBabel11021811493D
libRbt.so/2013.1/901 2013/11/27
 27 29  0  0  0  0  0  0  0  0999 V2000
   -0.5312   -8.1593  -17.7077 N   0  0  0  0  0  0  0  0  0  0  0  0
    0.7977   -7.7653  -18.2669 C   0  0  2  0  0  0  0  0  0  0  0  0
    0.7006   -7.7028  -19.7884 C   0  0  0  0  0  0  0  0  0  0  0  0
   -0.2932   -8.1491  -20.3495 O   0  0  0  0  0  0  0  0  0  0  0  0
    1.5927   -7.2204  -20.4979 O   0  0  0  0  0  0  0  0  0  0  0  0
    1.9573   -8.6707  -17.8050 C   0  0  0  0  0  0  0  0  0  0  0  0
    3.1867   -7.9641  -17.1759 C   0  0  0  0  0  0  0  0  0  0  0  0
    4.6120   -8.9885  -16.6080 S   0  0  2  0  0  0  0  0  0  0  0  0
    5.8757   -7.7272  -16.3399 C   0  0  0  0  0  0  0  0  0  0  0  0
    5.2378   -9.7276  -18.1324 C   0  0  0  0  0  0  0  0  0  0  0  0
    6.5934  -10.3711  -17.8720 C   0  0  1  0  0  0  0  0  0  0  0  0
    6.4982  -11.5436  -17.0774 O   0  0  0  0  0  0  0  0  0  0  0  0
    7.2761  -10.8415  -19.1282 C   0  0  1  0  0  0  0  0  0  0  0  0
    7.8652   -9.7598  -19.7905 O   0  0  0  0  0  0  0  0  0  0  0  0
    8.2878  -11.8065  -18.5508 C   0  0  1  0  0  0  0  0  0  0  0  0
    9.4243  -11.1035  -18.0912 O   0  0  0  0  0  0  0  0  0  0  0  0
    7.5716  -12.4251  -17.3554 C   0  0  2  0  0  0  0  0  0  0  0  0
    7.0981  -13.8220  -17.5574 N   0  0  0  0  0  0  0  0  0  0  0  0
    6.5129  -14.6078  -16.5966 C   0  0  0  0  0  0  0  0  0  0  0  0
    6.2110  -15.8120  -17.1316 N   0  0  0  0  0  0  0  0  0  0  0  0
    6.5827  -15.8148  -18.4222 C   0  0  0  0  0  0  0  0  0  0  0  0
    6.4931  -16.7793  -19.4143 C   0  0  0  0  0  0  0  0  0  0  0  0
    5.9533  -17.9622  -19.1519 N   0  0  0  0  0  0  0  0  0  0  0  0
    6.9667  -16.4907  -20.6789 N   0  0  0  0  0  0  0  0  0  0  0  0
    7.5256  -15.2528  -20.9703 C   0  0  0  0  0  0  0  0  0  0  0  0
    7.6009  -14.3033  -19.9716 N   0  0  0  0  0  0  0  0  0  0  0  0
    7.1453  -14.5746  -18.7138 C   0  0  0  0  0  0  0  0  0  0  0  0
  2  3  1  6  0  0  0
  2  6  1  0  0  0  0
  2  1  1  0  0  0  0
  4  3  2  0  0  0  0
  5  3  1  0  0  0  0
  6  7  2  0  0  0  0
  8  7  1  6  0  0  0
  8  9  1  0  0  0  0
  8 10  1  0  0  0  0
 11 10  1  6  0  0  0
 11 13  1  0  0  0  0
 12 11  1  0  0  0  0
 12 17  1  0  0  0  0
 13 14  1  1  0  0  0
 13 15  1  0  0  0  0
 15 16  1  1  0  0  0
 17 18  1  6  0  0  0
 17 15  1  0  0  0  0
 18 19  1  0  0  0  0
 20 19  2  0  0  0  0
 21 27  2  0  0  0  0
 21 20  1  0  0  0  0
 22 21  1  0  0  0  0
 23 22  1  0  0  0  0
 24 22  2  0  0  0  0
 24 25  1  0  0  0  0
 25 26  2  0  0  0  0
 26 27  1  0  0  0  0
 27 18  1  0  0  0  0
M  END
>  <CHROM.1>
-10.88344720,-127.00587339,167.43568447,168.16979122,70.68129040,-65.21679166
5.31775058,-11.46229750,-18.40604647,2.24430474,-0.27631833,0.26773776

>  <Name>
lig.pdb

>  <RI>
0

>  <Rbt.Current_Directory>
/home/itssahil/PROJECTS/Mol_Feturizer/New_Systems/rnas/4b5r

>  <Rbt.Executable>
rbdock ($Id: //depot/dev/client3/rdock/2013.1/src/exe/rbdock.cxx#4 $)

>  <Rbt.Library>
libRbt.so (2013.1, Build901 2013/11/27)

>  <Rbt.Parameter_File>
/export/apps/rDock/src/rDock_2013.1_src/data/scripts/dock_solv.prm

>  <Rbt.Receptor>
prm/blind_docking_100.prm

>  <SCORE>
-11.512

>  <SCORE.INTER>
-10.5671

>  <SCORE.INTER.CONST>
1

>  <SCORE.INTER.POLAR>
0

>  <SCORE.INTER.ROT>
6

>  <SCORE.INTER.SOLV>
16.4401

>  <SCORE.INTER.VDW>
-20.1247

>  <SCORE.INTER.norm>
-0.391374

>  <SCORE.INTRA>
-0.944865

>  <SCORE.INTRA.DIHEDRAL>
-2.63702

>  <SCORE.INTRA.DIHEDRAL.0>
10.2917

>  <SCORE.INTRA.POLAR>
0

>  <SCORE.INTRA.POLAR.0>
0

>  <SCORE.INTRA.REPUL>
0

>  <SCORE.INTRA.REPUL.0>
0

>  <SCORE.INTRA.SOLV>
-3.01086

>  <SCORE.INTRA.SOLV.lig_0>
-39.6315

>  <SCORE.INTRA.VDW>
1.87908

>  <SCORE.INTRA.VDW.0>
-4.02152

>  <SCORE.INTRA.norm>
-0.034995

>  <SCORE.RESTR>
0

>  <SCORE.RESTR.CAVITY>
0

>  <SCORE.RESTR.norm>
0

>  <SCORE.SYSTEM>
0

>  <SCORE.SYSTEM.CONST>
0

>  <SCORE.SYSTEM.DIHEDRAL>
0

>  <SCORE.SYSTEM.SOLV>
0

>  <SCORE.SYSTEM.norm>
0

>  <SCORE.heavy>
27

>  <SCORE.norm>
-0.426369

>  <RMSD>
11.471

$$$$
lig.pdb
 OpenBabel11021811493D
libRbt.so/2013.1/901 2013/11/27
 27 29  0  0  0  0  0  0  0  0999 V2000
    6.0729   -7.4739  -18.8584 N   0  0  0  0  0  0  0  0  0  0  0  0
    5.4143   -8.7218  -19.3514 C   0  0  2  0  0  0  0  0  0  0  0  0
    4.4993   -9.2685  -18.2596 C   0  0  0  0  0  0  0  0  0  0  0  0
    4.9896   -9.7432  -17.2417 O   0  0  0  0  0  0  0  0  0  0  0  0
    3.2652   -9.2616  -18.3534 O   0  0  0  0  0  0  0  0  0  0  0  0
    6.4073   -9.7898  -19.8527 C   0  0  0  0  0  0  0  0  0  0  0  0
    6.4348  -10.0548  -21.3810 C   0  0  0  0  0  0  0  0  0  0  0  0
    7.5955  -11.3249  -22.0466 S   0  0  2  0  0  0  0  0  0  0  0  0
    7.4158  -11.0774  -23.8259 C   0  0  0  0  0  0  0  0  0  0  0  0
    6.6834  -12.8726  -21.8606 C   0  0  0  0  0  0  0  0  0  0  0  0
    6.3488  -13.0979  -20.3920 C   0  0  1  0  0  0  0  0  0  0  0  0
    5.5803  -14.2727  -20.1807 O   0  0  0  0  0  0  0  0  0  0  0  0
    7.5671  -13.3048  -19.5327 C   0  0  1  0  0  0  0  0  0  0  0  0
    8.1740  -12.0762  -19.2534 O   0  0  0  0  0  0  0  0  0  0  0  0
    6.9426  -13.9489  -18.3147 C   0  0  1  0  0  0  0  0  0  0  0  0
    6.4018  -12.9590  -17.4635 O   0  0  0  0  0  0  0  0  0  0  0  0
    5.8044  -14.7903  -18.8813 C   0  0  2  0  0  0  0  0  0  0  0  0
    6.0576  -16.2570  -18.9095 N   0  0  0  0  0  0  0  0  0  0  0  0
    5.8889  -17.0702  -20.0019 C   0  0  0  0  0  0  0  0  0  0  0  0
    6.2123  -18.3387  -19.6650 N   0  0  0  0  0  0  0  0  0  0  0  0
    6.5951  -18.3578  -18.3777 C   0  0  0  0  0  0  0  0  0  0  0  0
    7.0299  -19.3827  -17.5512 C   0  0  0  0  0  0  0  0  0  0  0  0
    7.1272  -20.6217  -18.0149 N   0  0  0  0  0  0  0  0  0  0  0  0
    7.3658  -19.0962  -16.2429 N   0  0  0  0  0  0  0  0  0  0  0  0
    7.2779  -17.8017  -15.7468 C   0  0  0  0  0  0  0  0  0  0  0  0
    6.8487  -16.7936  -16.5859 N   0  0  0  0  0  0  0  0  0  0  0  0
    6.5046  -17.0604  -17.8796 C   0  0  0  0  0  0  0  0  0  0  0  0
  2  3  1  1  0  0  0
  2  6  1  0  0  0  0
  2  1  1  0  0  0  0
  4  3  2  0  0  0  0
  5  3  1  0  0  0  0
  6  7  2  0  0  0  0
  8  7  1  1  0  0  0
  8  9  1  0  0  0  0
  8 10  1  0  0  0  0
 11 10  1  6  0  0  0
 11 13  1  0  0  0  0
 12 11  1  0  0  0  0
 12 17  1  0  0  0  0
 13 14  1  1  0  0  0
 13 15  1  0  0  0  0
 15 16  1  1  0  0  0
 17 18  1  6  0  0  0
 17 15  1  0  0  0  0
 18 19  1  0  0  0  0
 20 19  2  0  0  0  0
 21 27  2  0  0  0  0
 21 20  1  0  0  0  0
 22 21  1  0  0  0  0
 23 22  1  0  0  0  0
 24 22  2  0  0  0  0
 24 25  1  0  0  0  0
 25 26  2  0  0  0  0
 26 27  1  0  0  0  0
 27 18  1  0  0  0  0
M  END
>  <CHROM.1>
-69.46837721,-109.95032756,-172.18067588,-59.57029712,177.49562180,-9.99135734
6.43280820,-13.67222846,-19.19161318,1.83801355,1.21588884,-0.50836209

>  <Name>
lig.pdb

>  <RI>
0

>  <Rbt.Current_Directory>
/home/itssahil/PROJECTS/Mol_Feturizer/New_Systems/rnas/4b5r

>  <Rbt.Executable>
rbdock ($Id: //depot/dev/client3/rdock/2013.1/src/exe/rbdock.cxx#4 $)

>  <Rbt.Library>
libRbt.so (2013.1, Build901 2013/11/27)

>  <Rbt.Parameter_File>
/export/apps/rDock/src/rDock_2013.1_src/data/scripts/dock_solv.prm

>  <Rbt.Receptor>
prm/blind_docking_40.prm

>  <SCORE>
-14.0828

>  <SCORE.INTER>
-12.9542

>  <SCORE.INTER.CONST>
1

>  <SCORE.INTER.POLAR>
0

>  <SCORE.INTER.ROT>
6

>  <SCORE.INTER.SOLV>
18.3594

>  <SCORE.INTER.VDW>
-22.3559

>  <SCORE.INTER.norm>
-0.479787

>  <SCORE.INTRA>
-1.12853

>  <SCORE.INTRA.DIHEDRAL>
-2.16968

>  <SCORE.INTRA.DIHEDRAL.0>
10.2917

>  <SCORE.INTRA.POLAR>
0

>  <SCORE.INTRA.POLAR.0>
0

>  <SCORE.INTRA.REPUL>
0

>  <SCORE.INTRA.REPUL.0>
0

>  <SCORE.INTRA.SOLV>
-2.1987

>  <SCORE.INTRA.SOLV.lig_0>
-39.6315

>  <SCORE.INTRA.VDW>
1.05566

>  <SCORE.INTRA.VDW.0>
-4.02152

>  <SCORE.INTRA.norm>
-0.0417973

>  <SCORE.RESTR>
0

>  <SCORE.RESTR.CAVITY>
0

>  <SCORE.RESTR.norm>
0

>  <SCORE.SYSTEM>
0

>  <SCORE.SYSTEM.CONST>
0

>  <SCORE.SYSTEM.DIHEDRAL>
0

>  <SCORE.SYSTEM.SOLV>
0

>  <SCORE.SYSTEM.norm>
0

>  <SCORE.heavy>
27

>  <SCORE.norm>
-0.521584

>  <RMSD>
11.502

$$$$
lig.pdb
 OpenBabel11021811493D
libRbt.so/2013.1/901 2013/11/27
 27 29  0  0  0  0  0  0  0  0999 V2000
    4.5605  -13.3814  -22.4279 N   0  0  0  0  0  0  0  0  0  0  0  0
    5.8619  -12.6870  -22.1863 C   0  0  2  0  0  0  0  0  0  0  0  0
    6.8135  -12.9945  -23.3387 C   0  0  0  0  0  0  0  0  0  0  0  0
    7.9353  -12.5012  -23.3442 O   0  0  0  0  0  0  0  0  0  0  0  0
    6.5030  -13.7256  -24.2878 O   0  0  0  0  0  0  0  0  0  0  0  0
    6.4948  -13.0157  -20.8191 C   0  0  0  0  0  0  0  0  0  0  0  0
    5.6858  -13.9504  -19.8820 C   0  0  0  0  0  0  0  0  0  0  0  0
    6.3830  -14.3786  -18.2285 S   0  0  2  0  0  0  0  0  0  0  0  0
    5.1170  -15.4923  -17.5832 C   0  0  0  0  0  0  0  0  0  0  0  0
    6.0379  -12.9138  -17.2299 C   0  0  0  0  0  0  0  0  0  0  0  0
    7.0484  -12.8168  -16.0947 C   0  0  1  0  0  0  0  0  0  0  0  0
    8.2985  -12.2946  -16.5190 O   0  0  0  0  0  0  0  0  0  0  0  0
    6.6190  -11.8784  -14.9990 C   0  0  1  0  0  0  0  0  0  0  0  0
    5.6799  -12.5019  -14.1712 O   0  0  0  0  0  0  0  0  0  0  0  0
    7.9431  -11.6286  -14.3115 C   0  0  1  0  0  0  0  0  0  0  0  0
    8.2335  -12.6824  -13.4159 O   0  0  0  0  0  0  0  0  0  0  0  0
    8.9610  -11.6487  -15.4464 C   0  0  2  0  0  0  0  0  0  0  0  0
    9.4855  -10.3143  -15.8472 N   0  0  0  0  0  0  0  0  0  0  0  0
   10.8120   -9.9679  -15.9037 C   0  0  0  0  0  0  0  0  0  0  0  0
   10.9180   -8.6819  -16.3067 N   0  0  0  0  0  0  0  0  0  0  0  0
    9.6846   -8.1947  -16.5198 C   0  0  0  0  0  0  0  0  0  0  0  0
    9.2347   -6.9540  -16.9448 C   0  0  0  0  0  0  0  0  0  0  0  0
   10.0993   -5.9878  -17.2254 N   0  0  0  0  0  0  0  0  0  0  0  0
    7.8772   -6.7392  -17.0782 N   0  0  0  0  0  0  0  0  0  0  0  0
    6.9610   -7.7449  -16.7973 C   0  0  0  0  0  0  0  0  0  0  0  0
    7.4278   -8.9751  -16.3810 N   0  0  0  0  0  0  0  0  0  0  0  0
    8.7659   -9.2021  -16.2357 C   0  0  0  0  0  0  0  0  0  0  0  0
  2  3  1  6  0  0  0
  2  6  1  0  0  0  0
  2  1  1  0  0  0  0
  4  3  2  0  0  0  0
  5  3  1  0  0  0  0
  6  7  2  0  0  0  0
  8  7  1  6  0  0  0
  8  9  1  0  0  0  0
  8 10  1  0  0  0  0
 11 10  1  6  0  0  0
 11 13  1  0  0  0  0
 12 11  1  0  0  0  0
 12 17  1  0  0  0  0
 13 14  1  1  0  0  0
 13 15  1  0  0  0  0
 15 16  1  1  0  0  0
 17 18  1  6  0  0  0
 17 15  1  0  0  0  0
 18 19  1  0  0  0  0
 20 19  2  0  0  0  0
 21 27  2  0  0  0  0
 21 20  1  0  0  0  0
 22 21  1  0  0  0  0
 23 22  1  0  0  0  0
 24 22  2  0  0  0  0
 24 25  1  0  0  0  0
 25 26  2  0  0  0  0
 26 27  1  0  0  0  0
 27 18  1  0  0  0  0
M  END
>  <CHROM.1>
178.88440352,-2.44639022,-178.38726608,-154.34060591,79.06049810,-115.16784742
7.52304137,-11.45498924,-17.79473290,-2.44403388,1.09266450,1.73294404

>  <Name>
lig.pdb

>  <RI>
0

>  <Rbt.Current_Directory>
/home/itssahil/PROJECTS/Mol_Feturizer/New_Systems/rnas/4b5r

>  <Rbt.Executable>
rbdock ($Id: //depot/dev/client3/rdock/2013.1/src/exe/rbdock.cxx#4 $)

>  <Rbt.Library>
libRbt.so (2013.1, Build901 2013/11/27)

>  <Rbt.Parameter_File>
/export/apps/rDock/src/rDock_2013.1_src/data/scripts/dock_solv.prm

>  <Rbt.Receptor>
prm/blind_docking_80.prm

>  <SCORE>
-13.9419

>  <SCORE.INTER>
-14.618

>  <SCORE.INTER.CONST>
1

>  <SCORE.INTER.POLAR>
0

>  <SCORE.INTER.ROT>
6

>  <SCORE.INTER.SOLV>
15.7009

>  <SCORE.INTER.VDW>
-22.579

>  <SCORE.INTER.norm>
-0.541406

>  <SCORE.INTRA>
0.676041

>  <SCORE.INTRA.DIHEDRAL>
1.05782

>  <SCORE.INTRA.DIHEDRAL.0>
10.2917

>  <SCORE.INTRA.POLAR>
0

>  <SCORE.INTRA.POLAR.0>
0

>  <SCORE.INTRA.REPUL>
0

>  <SCORE.INTRA.REPUL.0>
0

>  <SCORE.INTRA.SOLV>
-2.22401

>  <SCORE.INTRA.SOLV.lig_0>
-39.6315

>  <SCORE.INTRA.VDW>
1.25914

>  <SCORE.INTRA.VDW.0>
-4.02152

>  <SCORE.INTRA.norm>
0.0250386

>  <SCORE.RESTR>
0

>  <SCORE.RESTR.CAVITY>
0

>  <SCORE.RESTR.norm>
0

>  <SCORE.SYSTEM>
0

>  <SCORE.SYSTEM.CONST>
0

>  <SCORE.SYSTEM.DIHEDRAL>
0

>  <SCORE.SYSTEM.SOLV>
0

>  <SCORE.SYSTEM.norm>
0

>  <SCORE.heavy>
27

>  <SCORE.norm>
-0.516368

>  <RMSD>
11.532

$$$$
lig.pdb
 OpenBabel11021811493D
libRbt.so/2013.1/901 2013/11/27
 27 29  0  0  0  0  0  0  0  0999 V2000
    8.0688  -11.8418  -13.1539 N   0  0  0  0  0  0  0  0  0  0  0  0
    7.9637  -12.1047  -14.6215 C   0  0  2  0  0  0  0  0  0  0  0  0
    8.5920  -13.4600  -14.9324 C   0  0  0  0  0  0  0  0  0  0  0  0
    7.9437  -14.3006  -15.5446 O   0  0  0  0  0  0  0  0  0  0  0  0
    9.7417  -13.7610  -14.5869 O   0  0  0  0  0  0  0  0  0  0  0  0
    8.5611  -10.9837  -15.4959 C   0  0  0  0  0  0  0  0  0  0  0  0
    9.6088  -11.4100  -16.5576 C   0  0  0  0  0  0  0  0  0  0  0  0
   10.3678  -10.1172  -17.6328 S   0  0  2  0  0  0  0  0  0  0  0  0
   11.0582   -8.9891  -16.4039 C   0  0  0  0  0  0  0  0  0  0  0  0
    8.9531   -9.1389  -18.1837 C   0  0  0  0  0  0  0  0  0  0  0  0
    8.5625   -9.5518  -19.5966 C   0  0  1  0  0  0  0  0  0  0  0  0
    8.5723  -10.9599  -19.7768 O   0  0  0  0  0  0  0  0  0  0  0  0
    7.1588   -9.1513  -19.9633 C   0  0  1  0  0  0  0  0  0  0  0  0
    7.1171   -7.7943  -20.2990 O   0  0  0  0  0  0  0  0  0  0  0  0
    6.9085  -10.0629  -21.1443 C   0  0  1  0  0  0  0  0  0  0  0  0
    7.4678   -9.5061  -22.3165 O   0  0  0  0  0  0  0  0  0  0  0  0
    7.6632  -11.3405  -20.7943 C   0  0  2  0  0  0  0  0  0  0  0  0
    6.8076  -12.4821  -20.3688 N   0  0  0  0  0  0  0  0  0  0  0  0
    6.4566  -13.5478  -21.1588 C   0  0  0  0  0  0  0  0  0  0  0  0
    5.6757  -14.3903  -20.4462 N   0  0  0  0  0  0  0  0  0  0  0  0
    5.5236  -13.8924  -19.2081 C   0  0  0  0  0  0  0  0  0  0  0  0
    4.8385  -14.3573  -18.0958 C   0  0  0  0  0  0  0  0  0  0  0  0
    4.1725  -15.5032  -18.1498 N   0  0  0  0  0  0  0  0  0  0  0  0
    4.8638  -13.6163  -16.9310 N   0  0  0  0  0  0  0  0  0  0  0  0
    5.5652  -12.4194  -16.8574 C   0  0  0  0  0  0  0  0  0  0  0  0
    6.2458  -11.9756  -17.9729 N   0  0  0  0  0  0  0  0  0  0  0  0
    6.2247  -12.6912  -19.1350 C   0  0  0  0  0  0  0  0  0  0  0  0
  2  3  1  1  0  0  0
  2  6  1  0  0  0  0
  2  1  1  0  0  0  0
  4  3  2  0  0  0  0
  5  3  1  0  0  0  0
  6  7  2  0  0  0  0
  8  7  1  1  0  0  0
  8  9  1  0  0  0  0
  8 10  1  0  0  0  0
 11 10  1  1  0  0  0
 11 13  1  0  0  0  0
 12 11  1  0  0  0  0
 12 17  1  0  0  0  0
 13 14  1  6  0  0  0
 13 15  1  0  0  0  0
 15 16  1  6  0  0  0
 17 18  1  1  0  0  0
 17 15  1  0  0  0  0
 18 19  1  0  0  0  0
 20 19  2  0  0  0  0
 21 27  2  0  0  0  0
 21 20  1  0  0  0  0
 22 21  1  0  0  0  0
 23 22  1  0  0  0  0
 24 22  2  0  0  0  0
 24 25  1  0  0  0  0
 25 26  2  0  0  0  0
 26 27  1  0  0  0  0
 27 18  1  0  0  0  0
M  END
>  <CHROM.1>
126.32684231,126.99818832,56.33095216,-100.44770399,43.17810029,-139.05505400
7.61618784,-11.70528033,-18.10372192,-1.32869740,-0.79984760,-0.99697889

>  <Name>
lig.pdb

>  <RI>
0

>  <Rbt.Current_Directory>
/home/itssahil/PROJECTS/Mol_Feturizer/New_Systems/rnas/4b5r

>  <Rbt.Executable>
rbdock ($Id: //depot/dev/client3/rdock/2013.1/src/exe/rbdock.cxx#4 $)

>  <Rbt.Library>
libRbt.so (2013.1, Build901 2013/11/27)

>  <Rbt.Parameter_File>
/export/apps/rDock/src/rDock_2013.1_src/data/scripts/dock_solv.prm

>  <Rbt.Receptor>
prm/blind_docking_100.prm

>  <SCORE>
-13.9697

>  <SCORE.INTER>
-14.3715

>  <SCORE.INTER.CONST>
1

>  <SCORE.INTER.POLAR>
0

>  <SCORE.INTER.ROT>
6

>  <SCORE.INTER.SOLV>
19.3131

>  <SCORE.INTER.VDW>
-23.6187

>  <SCORE.INTER.norm>
-0.532279

>  <SCORE.INTRA>
0.401875

>  <SCORE.INTRA.DIHEDRAL>
1.80062

>  <SCORE.INTRA.DIHEDRAL.0>
10.2917

>  <SCORE.INTRA.POLAR>
0

>  <SCORE.INTRA.POLAR.0>
0

>  <SCORE.INTRA.REPUL>
0

>  <SCORE.INTRA.REPUL.0>
0

>  <SCORE.INTRA.SOLV>
-1.28821

>  <SCORE.INTRA.SOLV.lig_0>
-39.6315

>  <SCORE.INTRA.VDW>
0.14567

>  <SCORE.INTRA.VDW.0>
-4.02152

>  <SCORE.INTRA.norm>
0.0148843

>  <SCORE.RESTR>
0

>  <SCORE.RESTR.CAVITY>
0

>  <SCORE.RESTR.norm>
0

>  <SCORE.SYSTEM>
0

>  <SCORE.SYSTEM.CONST>
0

>  <SCORE.SYSTEM.DIHEDRAL>
0

>  <SCORE.SYSTEM.SOLV>
0

>  <SCORE.SYSTEM.norm>
0

>  <SCORE.heavy>
27

>  <SCORE.norm>
-0.517395

>  <RMSD>
11.599

$$$$
lig.pdb
 OpenBabel11021811493D
libRbt.so/2013.1/901 2013/11/27
 27 29  0  0  0  0  0  0  0  0999 V2000
   -3.0126   -6.8995  -15.9103 N   0  0  0  0  0  0  0  0  0  0  0  0
   -2.3660   -7.3844  -17.1676 C   0  0  2  0  0  0  0  0  0  0  0  0
   -2.9619   -8.7372  -17.5459 C   0  0  0  0  0  0  0  0  0  0  0  0
   -2.9275   -9.1075  -18.7136 O   0  0  0  0  0  0  0  0  0  0  0  0
   -3.4924   -9.4908  -16.7198 O   0  0  0  0  0  0  0  0  0  0  0  0
   -0.8268   -7.4390  -17.0914 C   0  0  0  0  0  0  0  0  0  0  0  0
   -0.0459   -6.6661  -18.1866 C   0  0  0  0  0  0  0  0  0  0  0  0
    1.7985   -6.6957  -18.1575 S   0  0  2  0  0  0  0  0  0  0  0  0
    2.1878   -6.4905  -19.9084 C   0  0  0  0  0  0  0  0  0  0  0  0
    2.1920   -8.4474  -17.9611 C   0  0  0  0  0  0  0  0  0  0  0  0
    3.5908   -8.5969  -17.3775 C   0  0  1  0  0  0  0  0  0  0  0  0
    3.9354   -9.9506  -17.1244 O   0  0  0  0  0  0  0  0  0  0  0  0
    4.6737   -8.1169  -18.3061 C   0  0  1  0  0  0  0  0  0  0  0  0
    4.7572   -6.7214  -18.2683 O   0  0  0  0  0  0  0  0  0  0  0  0
    5.8809   -8.8004  -17.7030 C   0  0  1  0  0  0  0  0  0  0  0  0
    6.3671   -8.0526  -16.6070 O   0  0  0  0  0  0  0  0  0  0  0  0
    5.3387  -10.1309  -17.1929 C   0  0  2  0  0  0  0  0  0  0  0  0
    5.7014  -11.3172  -18.0160 N   0  0  0  0  0  0  0  0  0  0  0  0
    6.3169  -11.2739  -19.2417 C   0  0  0  0  0  0  0  0  0  0  0  0
    6.4922  -12.5353  -19.6951 N   0  0  0  0  0  0  0  0  0  0  0  0
    6.0089  -13.3922  -18.7806 C   0  0  0  0  0  0  0  0  0  0  0  0
    5.9484  -14.7769  -18.7434 C   0  0  0  0  0  0  0  0  0  0  0  0
    6.4317  -15.4960  -19.7479 N   0  0  0  0  0  0  0  0  0  0  0  0
    5.3850  -15.3972  -17.6458 N   0  0  0  0  0  0  0  0  0  0  0  0
    4.8838  -14.6570  -16.5825 C   0  0  0  0  0  0  0  0  0  0  0  0
    4.9581  -13.2799  -16.6348 N   0  0  0  0  0  0  0  0  0  0  0  0
    5.5041  -12.6502  -17.7157 C   0  0  0  0  0  0  0  0  0  0  0  0
  2  3  1  1  0  0  0
  2  6  1  0  0  0  0
  2  1  1  0  0  0  0
  4  3  2  0  0  0  0
  5  3  1  0  0  0  0
  6  7  2  0  0  0  0
  8  7  1  6  0  0  0
  8  9  1  0  0  0  0
  8 10  1  0  0  0  0
 11 10  1  6  0  0  0
 11 13  1  0  0  0  0
 12 11  1  0  0  0  0
 12 17  1  0  0  0  0
 13 14  1  1  0  0  0
 13 15  1  0  0  0  0
 15 16  1  1  0  0  0
 17 18  1  6  0  0  0
 17 15  1  0  0  0  0
 18 19  1  0  0  0  0
 20 19  2  0  0  0  0
 21 27  2  0  0  0  0
 21 20  1  0  0  0  0
 22 21  1  0  0  0  0
 23 22  1  0  0  0  0
 24 22  2  0  0  0  0
 24 25  1  0  0  0  0
 25 26  2  0  0  0  0
 26 27  1  0  0  0  0
 27 18  1  0  0  0  0
M  END
>  <CHROM.1>
155.88894699,-125.01136091,151.51393180,-157.68658819,176.58255753,110.86006758
2.95757601,-9.86230384,-17.88636189,2.49915119,0.11028684,-0.02106336

>  <Name>
lig.pdb

>  <RI>
0

>  <Rbt.Current_Directory>
/home/itssahil/PROJECTS/Mol_Feturizer/New_Systems/rnas/4b5r

>  <Rbt.Executable>
rbdock ($Id: //depot/dev/client3/rdock/2013.1/src/exe/rbdock.cxx#4 $)

>  <Rbt.Library>
libRbt.so (2013.1, Build901 2013/11/27)

>  <Rbt.Parameter_File>
/export/apps/rDock/src/rDock_2013.1_src/data/scripts/dock_solv.prm

>  <Rbt.Receptor>
prm/blind_docking_60.prm

>  <SCORE>
-9.71985

>  <SCORE.INTER>
-9.92827

>  <SCORE.INTER.CONST>
1

>  <SCORE.INTER.POLAR>
0

>  <SCORE.INTER.ROT>
6

>  <SCORE.INTER.SOLV>
13.0537

>  <SCORE.INTER.VDW>
-18.5701

>  <SCORE.INTER.norm>
-0.367714

>  <SCORE.INTRA>
0.208421

>  <SCORE.INTRA.DIHEDRAL>
-1.18228

>  <SCORE.INTRA.DIHEDRAL.0>
10.2917

>  <SCORE.INTRA.POLAR>
0

>  <SCORE.INTRA.POLAR.0>
0

>  <SCORE.INTRA.REPUL>
0.00216829

>  <SCORE.INTRA.REPUL.0>
0

>  <SCORE.INTRA.SOLV>
-2.94968

>  <SCORE.INTRA.SOLV.lig_0>
-39.6315

>  <SCORE.INTRA.VDW>
2.26356

>  <SCORE.INTRA.VDW.0>
-4.02152

>  <SCORE.INTRA.norm>
0.00771929

>  <SCORE.RESTR>
0

>  <SCORE.RESTR.CAVITY>
0

>  <SCORE.RESTR.norm>
0

>  <SCORE.SYSTEM>
0

>  <SCORE.SYSTEM.CONST>
0

>  <SCORE.SYSTEM.DIHEDRAL>
0

>  <SCORE.SYSTEM.SOLV>
0

>  <SCORE.SYSTEM.norm>
0

>  <SCORE.heavy>
27

>  <SCORE.norm>
-0.359994

>  <RMSD>
11.619

$$$$
lig.pdb
 OpenBabel11021811493D
libRbt.so/2013.1/901 2013/11/27
 27 29  0  0  0  0  0  0  0  0999 V2000
    6.0916   -8.5909  -21.3047 N   0  0  0  0  0  0  0  0  0  0  0  0
    5.6850   -7.5657  -20.2959 C   0  0  2  0  0  0  0  0  0  0  0  0
    4.9001   -6.4602  -20.9958 C   0  0  0  0  0  0  0  0  0  0  0  0
    4.3346   -6.6989  -22.0564 O   0  0  0  0  0  0  0  0  0  0  0  0
    4.8081   -5.3126  -20.5415 O   0  0  0  0  0  0  0  0  0  0  0  0
    6.8636   -7.0000  -19.4781 C   0  0  0  0  0  0  0  0  0  0  0  0
    6.8081   -7.2035  -17.9412 C   0  0  0  0  0  0  0  0  0  0  0  0
    8.1836   -6.5452  -16.9027 S   0  0  2  0  0  0  0  0  0  0  0  0
    8.7714   -5.1713  -17.9157 C   0  0  0  0  0  0  0  0  0  0  0  0
    9.5249   -7.7228  -17.1785 C   0  0  0  0  0  0  0  0  0  0  0  0
    9.2938   -8.9704  -16.3361 C   0  0  1  0  0  0  0  0  0  0  0  0
    8.1007   -9.6543  -16.6884 O   0  0  0  0  0  0  0  0  0  0  0  0
   10.3693  -10.0089  -16.5097 C   0  0  1  0  0  0  0  0  0  0  0  0
   11.5007   -9.6600  -15.7654 O   0  0  0  0  0  0  0  0  0  0  0  0
    9.6618  -11.2345  -15.9751 C   0  0  1  0  0  0  0  0  0  0  0  0
    9.7379  -11.2643  -14.5644 O   0  0  0  0  0  0  0  0  0  0  0  0
    8.2080  -11.0346  -16.3885 C   0  0  2  0  0  0  0  0  0  0  0  0
    7.7530  -11.8816  -17.5251 N   0  0  0  0  0  0  0  0  0  0  0  0
    8.3114  -11.8935  -18.7785 C   0  0  0  0  0  0  0  0  0  0  0  0
    7.6463  -12.7802  -19.5522 N   0  0  0  0  0  0  0  0  0  0  0  0
    6.6744  -13.3472  -18.8186 C   0  0  0  0  0  0  0  0  0  0  0  0
    5.7247  -14.3119  -19.1186 C   0  0  0  0  0  0  0  0  0  0  0  0
    5.6749  -14.8491  -20.3304 N   0  0  0  0  0  0  0  0  0  0  0  0
    4.8367  -14.7102  -18.1390 N   0  0  0  0  0  0  0  0  0  0  0  0
    4.8837  -14.1632  -16.8630 C   0  0  0  0  0  0  0  0  0  0  0  0
    5.8396  -13.2085  -16.5814 N   0  0  0  0  0  0  0  0  0  0  0  0
    6.7198  -12.7970  -17.5400 C   0  0  0  0  0  0  0  0  0  0  0  0
  2  3  1  6  0  0  0
  2  6  1  0  0  0  0
  2  1  1  0  0  0  0
  4  3  2  0  0  0  0
  5  3  1  0  0  0  0
  6  7  2  0  0  0  0
  8  7  1  6  0  0  0
  8  9  1  0  0  0  0
  8 10  1  0  0  0  0
 11 10  1  6  0  0  0
 11 13  1  0  0  0  0
 12 11  1  0  0  0  0
 12 17  1  0  0  0  0
 13 14  1  1  0  0  0
 13 15  1  0  0  0  0
 15 16  1  1  0  0  0
 17 18  1  6  0  0  0
 17 15  1  0  0  0  0
 18 19  1  0  0  0  0
 20 19  2  0  0  0  0
 21 27  2  0  0  0  0
 21 20  1  0  0  0  0
 22 21  1  0  0  0  0
 23 22  1  0  0  0  0
 24 22  2  0  0  0  0
 24 25  1  0  0  0  0
 25 26  2  0  0  0  0
 26 27  1  0  0  0  0
 27 18  1  0  0  0  0
M  END
>  <CHROM.1>
23.51679441,-119.89688430,27.09082050,-79.08192245,62.45251221,60.99334493
7.36346666,-9.90152247,-18.07941803,1.57083835,-0.75918958,-0.20593762

>  <Name>
lig.pdb

>  <RI>
0

>  <Rbt.Current_Directory>
/home/itssahil/PROJECTS/Mol_Feturizer/New_Systems/rnas/4b5r

>  <Rbt.Executable>
rbdock ($Id: //depot/dev/client3/rdock/2013.1/src/exe/rbdock.cxx#4 $)

>  <Rbt.Library>
libRbt.so (2013.1, Build901 2013/11/27)

>  <Rbt.Parameter_File>
/export/apps/rDock/src/rDock_2013.1_src/data/scripts/dock_solv.prm

>  <Rbt.Receptor>
prm/blind_docking_40.prm

>  <SCORE>
-12.704

>  <SCORE.INTER>
-12.2543

>  <SCORE.INTER.CONST>
1

>  <SCORE.INTER.POLAR>
0

>  <SCORE.INTER.ROT>
6

>  <SCORE.INTER.SOLV>
13.2746

>  <SCORE.INTER.VDW>
-20.1944

>  <SCORE.INTER.norm>
-0.453864

>  <SCORE.INTRA>
-0.449678

>  <SCORE.INTRA.DIHEDRAL>
-1.62249

>  <SCORE.INTRA.DIHEDRAL.0>
10.2917

>  <SCORE.INTRA.POLAR>
0

>  <SCORE.INTRA.POLAR.0>
0

>  <SCORE.INTRA.REPUL>
0

>  <SCORE.INTRA.REPUL.0>
0

>  <SCORE.INTRA.SOLV>
-3.45103

>  <SCORE.INTRA.SOLV.lig_0>
-39.6315

>  <SCORE.INTRA.VDW>
2.08708

>  <SCORE.INTRA.VDW.0>
-4.02152

>  <SCORE.INTRA.norm>
-0.0166547

>  <SCORE.RESTR>
0

>  <SCORE.RESTR.CAVITY>
0

>  <SCORE.RESTR.norm>
0

>  <SCORE.SYSTEM>
0

>  <SCORE.SYSTEM.CONST>
0

>  <SCORE.SYSTEM.DIHEDRAL>
0

>  <SCORE.SYSTEM.SOLV>
0

>  <SCORE.SYSTEM.norm>
0

>  <SCORE.heavy>
27

>  <SCORE.norm>
-0.470519

>  <RMSD>
11.620

$$$$
lig.pdb
 OpenBabel11021811493D
libRbt.so/2013.1/901 2013/11/27
 27 29  0  0  0  0  0  0  0  0999 V2000
    5.5799   -9.8306  -23.3238 N   0  0  0  0  0  0  0  0  0  0  0  0
    7.0689   -9.9313  -23.2418 C   0  0  2  0  0  0  0  0  0  0  0  0
    7.5278  -11.1748  -23.9978 C   0  0  0  0  0  0  0  0  0  0  0  0
    7.2981  -12.2846  -23.5317 O   0  0  0  0  0  0  0  0  0  0  0  0
    8.1356  -11.1186  -25.0744 O   0  0  0  0  0  0  0  0  0  0  0  0
    7.6129   -9.9063  -21.7991 C   0  0  0  0  0  0  0  0  0  0  0  0
    6.9635   -8.8878  -20.8258 C   0  0  0  0  0  0  0  0  0  0  0  0
    7.5722   -8.8015  -19.0863 S   0  0  2  0  0  0  0  0  0  0  0  0
    8.0887   -7.0753  -18.9726 C   0  0  0  0  0  0  0  0  0  0  0  0
    9.1906   -9.5994  -19.1628 C   0  0  0  0  0  0  0  0  0  0  0  0
    9.8492   -9.5569  -17.7902 C   0  0  1  0  0  0  0  0  0  0  0  0
    9.0203  -10.0925  -16.7697 O   0  0  0  0  0  0  0  0  0  0  0  0
   11.1023  -10.3867  -17.7093 C   0  0  1  0  0  0  0  0  0  0  0  0
   12.1722   -9.7022  -18.2947 O   0  0  0  0  0  0  0  0  0  0  0  0
   11.2416  -10.5355  -16.2104 C   0  0  1  0  0  0  0  0  0  0  0  0
   11.8599   -9.3890  -15.6625 O   0  0  0  0  0  0  0  0  0  0  0  0
    9.8037  -10.6099  -15.7089 C   0  0  2  0  0  0  0  0  0  0  0  0
    9.3478  -11.9666  -15.2993 N   0  0  0  0  0  0  0  0  0  0  0  0
    9.7067  -12.6075  -14.1402 C   0  0  0  0  0  0  0  0  0  0  0  0
    9.1065  -13.8180  -14.0984 N   0  0  0  0  0  0  0  0  0  0  0  0
    8.3600  -13.9666  -15.2050 C   0  0  0  0  0  0  0  0  0  0  0  0
    7.5467  -14.9988  -15.6472 C   0  0  0  0  0  0  0  0  0  0  0  0
    7.4023  -16.0974  -14.9180 N   0  0  0  0  0  0  0  0  0  0  0  0
    6.8850  -14.8661  -16.8519 N   0  0  0  0  0  0  0  0  0  0  0  0
    7.0195  -13.7172  -17.6212 C   0  0  0  0  0  0  0  0  0  0  0  0
    7.8287  -12.6980  -17.1620 N   0  0  0  0  0  0  0  0  0  0  0  0
    8.4967  -12.8159  -15.9775 C   0  0  0  0  0  0  0  0  0  0  0  0
  2  3  1  1  0  0  0
  2  6  1  0  0  0  0
  2  1  1  0  0  0  0
  4  3  2  0  0  0  0
  5  3  1  0  0  0  0
  6  7  2  0  0  0  0
  8  7  1  6  0  0  0
  8  9  1  0  0  0  0
  8 10  1  0  0  0  0
 11 10  1  6  0  0  0
 11 13  1  0  0  0  0
 12 11  1  0  0  0  0
 12 17  1  0  0  0  0
 13 14  1  1  0  0  0
 13 15  1  0  0  0  0
 15 16  1  1  0  0  0
 17 18  1  6  0  0  0
 17 15  1  0  0  0  0
 18 19  1  0  0  0  0
 20 19  2  0  0  0  0
 21 27  2  0  0  0  0
 21 20  1  0  0  0  0
 22 21  1  0  0  0  0
 23 22  1  0  0  0  0
 24 22  2  0  0  0  0
 24 25  1  0  0  0  0
 25 26  2  0  0  0  0
 26 27  1  0  0  0  0
 27 18  1  0  0  0  0
M  END
>  <CHROM.1>
-71.10172250,-42.01794706,121.76334173,177.86578081,53.51459735,-165.50319820
8.56946255,-11.17557375,-18.38879865,1.94263006,-0.95689492,-0.89767799

>  <Name>
lig.pdb

>  <RI>
0

>  <Rbt.Current_Directory>
/home/itssahil/PROJECTS/Mol_Feturizer/New_Systems/rnas/4b5r

>  <Rbt.Executable>
rbdock ($Id: //depot/dev/client3/rdock/2013.1/src/exe/rbdock.cxx#4 $)

>  <Rbt.Library>
libRbt.so (2013.1, Build901 2013/11/27)

>  <Rbt.Parameter_File>
/export/apps/rDock/src/rDock_2013.1_src/data/scripts/dock_solv.prm

>  <Rbt.Receptor>
prm/blind_docking_100.prm

>  <SCORE>
-17.1605

>  <SCORE.INTER>
-17.1837

>  <SCORE.INTER.CONST>
1

>  <SCORE.INTER.POLAR>
0

>  <SCORE.INTER.ROT>
6

>  <SCORE.INTER.SOLV>
14.2118

>  <SCORE.INTER.VDW>
-23.7931

>  <SCORE.INTER.norm>
-0.636435

>  <SCORE.INTRA>
0.0231959

>  <SCORE.INTRA.DIHEDRAL>
-1.00674

>  <SCORE.INTRA.DIHEDRAL.0>
10.2917

>  <SCORE.INTRA.POLAR>
0

>  <SCORE.INTRA.POLAR.0>
0

>  <SCORE.INTRA.REPUL>
0

>  <SCORE.INTRA.REPUL.0>
0

>  <SCORE.INTRA.SOLV>
-2.17552

>  <SCORE.INTRA.SOLV.lig_0>
-39.6315

>  <SCORE.INTRA.VDW>
1.61433

>  <SCORE.INTRA.VDW.0>
-4.02152

>  <SCORE.INTRA.norm>
0.000859107

>  <SCORE.RESTR>
0

>  <SCORE.RESTR.CAVITY>
0

>  <SCORE.RESTR.norm>
0

>  <SCORE.SYSTEM>
0

>  <SCORE.SYSTEM.CONST>
0

>  <SCORE.SYSTEM.DIHEDRAL>
0

>  <SCORE.SYSTEM.SOLV>
0

>  <SCORE.SYSTEM.norm>
0

>  <SCORE.heavy>
27

>  <SCORE.norm>
-0.635576

>  <RMSD>
11.693

$$$$
lig.pdb
 OpenBabel11021811493D
libRbt.so/2013.1/901 2013/11/27
 27 29  0  0  0  0  0  0  0  0999 V2000
    7.5515  -13.3196  -11.5074 N   0  0  0  0  0  0  0  0  0  0  0  0
    7.3215  -12.0887  -12.3236 C   0  0  2  0  0  0  0  0  0  0  0  0
    5.8248  -11.9270  -12.5724 C   0  0  0  0  0  0  0  0  0  0  0  0
    5.3835  -10.8366  -12.9159 O   0  0  0  0  0  0  0  0  0  0  0  0
    5.0184  -12.8562  -12.4375 O   0  0  0  0  0  0  0  0  0  0  0  0
    8.1261  -12.0582  -13.6387 C   0  0  0  0  0  0  0  0  0  0  0  0
    7.3178  -11.8537  -14.9469 C   0  0  0  0  0  0  0  0  0  0  0  0
    8.2186  -11.8139  -16.5564 S   0  0  2  0  0  0  0  0  0  0  0  0
    9.5380  -10.6343  -16.1996 C   0  0  0  0  0  0  0  0  0  0  0  0
    7.1673  -10.7869  -17.6061 C   0  0  0  0  0  0  0  0  0  0  0  0
    7.6239  -10.8975  -19.0548 C   0  0  1  0  0  0  0  0  0  0  0  0
    7.5054  -12.2167  -19.5658 O   0  0  0  0  0  0  0  0  0  0  0  0
    6.7968  -10.0689  -20.0007 C   0  0  1  0  0  0  0  0  0  0  0  0
    7.1859   -8.7273  -19.9324 O   0  0  0  0  0  0  0  0  0  0  0  0
    7.1451  -10.7216  -21.3202 C   0  0  1  0  0  0  0  0  0  0  0  0
    8.3706  -10.2131  -21.8065 O   0  0  0  0  0  0  0  0  0  0  0  0
    7.3242  -12.1947  -20.9705 C   0  0  2  0  0  0  0  0  0  0  0  0
    6.2085  -13.0841  -21.3953 N   0  0  0  0  0  0  0  0  0  0  0  0
    5.2030  -12.7363  -22.2620 C   0  0  0  0  0  0  0  0  0  0  0  0
    4.3682  -13.7880  -22.4181 N   0  0  0  0  0  0  0  0  0  0  0  0
    4.8213  -14.8110  -21.6749 C   0  0  0  0  0  0  0  0  0  0  0  0
    4.3531  -16.1022  -21.4851 C   0  0  0  0  0  0  0  0  0  0  0  0
    3.2574  -16.5160  -22.1078 N   0  0  0  0  0  0  0  0  0  0  0  0
    5.0448  -16.9528  -20.6455 N   0  0  0  0  0  0  0  0  0  0  0  0
    6.1990  -16.5359  -19.9946 C   0  0  0  0  0  0  0  0  0  0  0  0
    6.6530  -15.2490  -20.2004 N   0  0  0  0  0  0  0  0  0  0  0  0
    5.9771  -14.3924  -21.0204 C   0  0  0  0  0  0  0  0  0  0  0  0
  2  3  1  6  0  0  0
  2  6  1  0  0  0  0
  2  1  1  0  0  0  0
  4  3  2  0  0  0  0
  5  3  1  0  0  0  0
  6  7  2  0  0  0  0
  8  7  1  1  0  0  0
  8  9  1  0  0  0  0
  8 10  1  0  0  0  0
 11 10  1  1  0  0  0
 11 13  1  0  0  0  0
 12 11  1  0  0  0  0
 12 17  1  0  0  0  0
 13 14  1  6  0  0  0
 13 15  1  0  0  0  0
 15 16  1  1  0  0  0
 17 18  1  1  0  0  0
 17 15  1  0  0  0  0
 18 19  1  0  0  0  0
 20 19  2  0  0  0  0
 21 27  2  0  0  0  0
 21 20  1  0  0  0  0
 22 21  1  0  0  0  0
 23 22  1  0  0  0  0
 24 22  2  0  0  0  0
 24 25  1  0  0  0  0
 25 26  2  0  0  0  0
 26 27  1  0  0  0  0
 27 18  1  0  0  0  0
M  END
>  <CHROM.1>
161.56748384,124.94632625,-49.45842827,-168.10467914,62.56725278,132.30360196
6.60676007,-12.60676385,-18.25963916,1.20470230,1.06924136,1.62842971

>  <Name>
lig.pdb

>  <RI>
0

>  <Rbt.Current_Directory>
/home/itssahil/PROJECTS/Mol_Feturizer/New_Systems/rnas/4b5r

>  <Rbt.Executable>
rbdock ($Id: //depot/dev/client3/rdock/2013.1/src/exe/rbdock.cxx#4 $)

>  <Rbt.Library>
libRbt.so (2013.1, Build901 2013/11/27)

>  <Rbt.Parameter_File>
/export/apps/rDock/src/rDock_2013.1_src/data/scripts/dock_solv.prm

>  <Rbt.Receptor>
prm/blind_docking_80.prm

>  <SCORE>
-11.695

>  <SCORE.INTER>
-12.319

>  <SCORE.INTER.CONST>
1

>  <SCORE.INTER.POLAR>
0

>  <SCORE.INTER.ROT>
6

>  <SCORE.INTER.SOLV>
19.0398

>  <SCORE.INTER.VDW>
-22.1593

>  <SCORE.INTER.norm>
-0.456259

>  <SCORE.INTRA>
0.623992

>  <SCORE.INTRA.DIHEDRAL>
-2.28689

>  <SCORE.INTRA.DIHEDRAL.0>
10.2917

>  <SCORE.INTRA.POLAR>
0

>  <SCORE.INTRA.POLAR.0>
0

>  <SCORE.INTRA.REPUL>
0.0983823

>  <SCORE.INTRA.REPUL.0>
0

>  <SCORE.INTRA.SOLV>
-3.15621

>  <SCORE.INTRA.SOLV.lig_0>
-39.6315

>  <SCORE.INTRA.VDW>
2.85363

>  <SCORE.INTRA.VDW.0>
-4.02152

>  <SCORE.INTRA.norm>
0.0231108

>  <SCORE.RESTR>
0

>  <SCORE.RESTR.CAVITY>
0

>  <SCORE.RESTR.norm>
0

>  <SCORE.SYSTEM>
0

>  <SCORE.SYSTEM.CONST>
0

>  <SCORE.SYSTEM.DIHEDRAL>
0

>  <SCORE.SYSTEM.SOLV>
0

>  <SCORE.SYSTEM.norm>
0

>  <SCORE.heavy>
27

>  <SCORE.norm>
-0.433148

>  <RMSD>
11.772

$$$$
lig.pdb
 OpenBabel11021811493D
libRbt.so/2013.1/901 2013/11/27
 27 29  0  0  0  0  0  0  0  0999 V2000
    5.8666  -13.3053  -20.3959 N   0  0  0  0  0  0  0  0  0  0  0  0
    6.3450  -14.6580  -19.9773 C   0  0  2  0  0  0  0  0  0  0  0  0
    5.1713  -15.6327  -20.0022 C   0  0  0  0  0  0  0  0  0  0  0  0
    4.3490  -15.6119  -19.0939 O   0  0  0  0  0  0  0  0  0  0  0  0
    5.0072  -16.4616  -20.9065 O   0  0  0  0  0  0  0  0  0  0  0  0
    7.0656  -14.6658  -18.6140 C   0  0  0  0  0  0  0  0  0  0  0  0
    6.6475  -13.5713  -17.5972 C   0  0  0  0  0  0  0  0  0  0  0  0
    7.4751  -13.5200  -15.9492 S   0  0  2  0  0  0  0  0  0  0  0  0
    7.0447  -15.1412  -15.2814 C   0  0  0  0  0  0  0  0  0  0  0  0
    6.3808  -12.4813  -14.9566 C   0  0  0  0  0  0  0  0  0  0  0  0
    6.6844  -11.0131  -15.2244 C   0  0  1  0  0  0  0  0  0  0  0  0
    8.0738  -10.7252  -15.1783 O   0  0  0  0  0  0  0  0  0  0  0  0
    6.2688  -10.5642  -16.5996 C   0  0  1  0  0  0  0  0  0  0  0  0
    4.8899  -10.3330  -16.6347 O   0  0  0  0  0  0  0  0  0  0  0  0
    7.0865   -9.2992  -16.7387 C   0  0  1  0  0  0  0  0  0  0  0  0
    6.4340   -8.2241  -16.0943 O   0  0  0  0  0  0  0  0  0  0  0  0
    8.3810   -9.6097  -15.9955 C   0  0  2  0  0  0  0  0  0  0  0  0
    9.5602   -9.8729  -16.8652 N   0  0  0  0  0  0  0  0  0  0  0  0
    9.5423  -10.6057  -18.0253 C   0  0  0  0  0  0  0  0  0  0  0  0
   10.7876  -10.6358  -18.5504 N   0  0  0  0  0  0  0  0  0  0  0  0
   11.6071   -9.9287  -17.7551 C   0  0  0  0  0  0  0  0  0  0  0  0
   12.9604   -9.6380  -17.8365 C   0  0  0  0  0  0  0  0  0  0  0  0
   13.6832  -10.0913  -18.8522 N   0  0  0  0  0  0  0  0  0  0  0  0
   13.5439   -8.8664  -16.8512 N   0  0  0  0  0  0  0  0  0  0  0  0
   12.7971   -8.3769  -15.7871 C   0  0  0  0  0  0  0  0  0  0  0  0
   11.4503   -8.6718  -15.7261 N   0  0  0  0  0  0  0  0  0  0  0  0
   10.8589   -9.4400  -16.6869 C   0  0  0  0  0  0  0  0  0  0  0  0
  2  3  1  1  0  0  0
  2  6  1  0  0  0  0
  2  1  1  0  0  0  0
  4  3  2  0  0  0  0
  5  3  1  0  0  0  0
  6  7  2  0  0  0  0
  8  7  1  6  0  0  0
  8  9  1  0  0  0  0
  8 10  1  0  0  0  0
 11 10  1  6  0  0  0
 11 13  1  0  0  0  0
 12 11  1  0  0  0  0
 12 17  1  0  0  0  0
 13 14  1  1  0  0  0
 13 15  1  0  0  0  0
 15 16  1  1  0  0  0
 17 18  1  6  0  0  0
 17 15  1  0  0  0  0
 18 19  1  0  0  0  0
 20 19  2  0  0  0  0
 21 27  2  0  0  0  0
 21 20  1  0  0  0  0
 22 21  1  0  0  0  0
 23 22  1  0  0  0  0
 24 22  2  0  0  0  0
 24 25  1  0  0  0  0
 25 26  2  0  0  0  0
 26 27  1  0  0  0  0
 27 18  1  0  0  0  0
M  END
>  <CHROM.1>
-77.06447354,28.00912054,-60.44775771,-82.46264554,-47.39285107,78.64853745
8.23220002,-11.64854585,-17.26501401,-2.45895085,0.36918533,0.74098390

>  <Name>
lig.pdb

>  <RI>
0

>  <Rbt.Current_Directory>
/home/itssahil/PROJECTS/Mol_Feturizer/New_Systems/rnas/4b5r

>  <Rbt.Executable>
rbdock ($Id: //depot/dev/client3/rdock/2013.1/src/exe/rbdock.cxx#4 $)

>  <Rbt.Library>
libRbt.so (2013.1, Build901 2013/11/27)

>  <Rbt.Parameter_File>
/export/apps/rDock/src/rDock_2013.1_src/data/scripts/dock_solv.prm

>  <Rbt.Receptor>
prm/blind_docking_40.prm

>  <SCORE>
-12.7414

>  <SCORE.INTER>
-12.4097

>  <SCORE.INTER.CONST>
1

>  <SCORE.INTER.POLAR>
0

>  <SCORE.INTER.ROT>
6

>  <SCORE.INTER.SOLV>
18.1551

>  <SCORE.INTER.VDW>
-21.9248

>  <SCORE.INTER.norm>
-0.459617

>  <SCORE.INTRA>
-0.33171

>  <SCORE.INTRA.DIHEDRAL>
-0.887735

>  <SCORE.INTRA.DIHEDRAL.0>
10.2917

>  <SCORE.INTRA.POLAR>
0

>  <SCORE.INTRA.POLAR.0>
0

>  <SCORE.INTRA.REPUL>
0

>  <SCORE.INTRA.REPUL.0>
0

>  <SCORE.INTRA.SOLV>
-2.2717

>  <SCORE.INTRA.SOLV.lig_0>
-39.6315

>  <SCORE.INTRA.VDW>
1.24801

>  <SCORE.INTRA.VDW.0>
-4.02152

>  <SCORE.INTRA.norm>
-0.0122855

>  <SCORE.RESTR>
0

>  <SCORE.RESTR.CAVITY>
0

>  <SCORE.RESTR.norm>
0

>  <SCORE.SYSTEM>
0

>  <SCORE.SYSTEM.CONST>
0

>  <SCORE.SYSTEM.DIHEDRAL>
0

>  <SCORE.SYSTEM.SOLV>
0

>  <SCORE.SYSTEM.norm>
0

>  <SCORE.heavy>
27

>  <SCORE.norm>
-0.471902

>  <RMSD>
11.818

$$$$
lig.pdb
 OpenBabel11021811493D
libRbt.so/2013.1/901 2013/11/27
 27 29  0  0  0  0  0  0  0  0999 V2000
    9.3890  -13.2004  -14.2553 N   0  0  0  0  0  0  0  0  0  0  0  0
    8.4144  -12.0908  -14.4856 C   0  0  2  0  0  0  0  0  0  0  0  0
    7.0838  -12.6815  -14.9422 C   0  0  0  0  0  0  0  0  0  0  0  0
    6.0436  -12.0740  -14.7169 O   0  0  0  0  0  0  0  0  0  0  0  0
    6.9992  -13.7650  -15.5346 O   0  0  0  0  0  0  0  0  0  0  0  0
    8.9248  -11.0105  -15.4604 C   0  0  0  0  0  0  0  0  0  0  0  0
   10.3964  -11.1373  -15.9347 C   0  0  0  0  0  0  0  0  0  0  0  0
   11.0723   -9.8739  -17.0967 S   0  0  2  0  0  0  0  0  0  0  0  0
   11.9564   -8.7812  -15.9635 C   0  0  0  0  0  0  0  0  0  0  0  0
    9.6440   -8.8338  -17.4708 C   0  0  0  0  0  0  0  0  0  0  0  0
    9.1176   -9.1654  -18.8609 C   0  0  1  0  0  0  0  0  0  0  0  0
    9.1461  -10.5573  -19.1383 O   0  0  0  0  0  0  0  0  0  0  0  0
    7.6727   -8.7894  -19.0515 C   0  0  1  0  0  0  0  0  0  0  0  0
    7.5593   -7.4153  -19.2861 O   0  0  0  0  0  0  0  0  0  0  0  0
    7.3236   -9.6288  -20.2606 C   0  0  1  0  0  0  0  0  0  0  0  0
    7.7408   -8.9770  -21.4430 O   0  0  0  0  0  0  0  0  0  0  0  0
    8.1451  -10.9004  -20.0800 C   0  0  2  0  0  0  0  0  0  0  0  0
    7.3703  -12.0961  -19.6484 N   0  0  0  0  0  0  0  0  0  0  0  0
    7.3634  -12.6216  -18.3808 C   0  0  0  0  0  0  0  0  0  0  0  0
    6.5508  -13.7015  -18.3524 N   0  0  0  0  0  0  0  0  0  0  0  0
    6.0262  -13.8774  -19.5763 C   0  0  0  0  0  0  0  0  0  0  0  0
    5.1388  -14.8149  -20.0824 C   0  0  0  0  0  0  0  0  0  0  0  0
    4.6480  -15.7650  -19.2975 N   0  0  0  0  0  0  0  0  0  0  0  0
    4.7683  -14.7432  -21.4107 N   0  0  0  0  0  0  0  0  0  0  0  0
    5.2668  -13.7479  -22.2416 C   0  0  0  0  0  0  0  0  0  0  0  0
    6.1445  -12.8201  -21.7187 N   0  0  0  0  0  0  0  0  0  0  0  0
    6.5280  -12.8811  -20.4101 C   0  0  0  0  0  0  0  0  0  0  0  0
  2  3  1  6  0  0  0
  2  6  1  0  0  0  0
  2  1  1  0  0  0  0
  4  3  2  0  0  0  0
  5  3  1  0  0  0  0
  6  7  2  0  0  0  0
  8  7  1  1  0  0  0
  8  9  1  0  0  0  0
  8 10  1  0  0  0  0
 11 10  1  1  0  0  0
 11 13  1  0  0  0  0
 12 11  1  0  0  0  0
 12 17  1  0  0  0  0
 13 14  1  6  0  0  0
 13 15  1  0  0  0  0
 15 16  1  6  0  0  0
 17 18  1  1  0  0  0
 17 15  1  0  0  0  0
 18 19  1  0  0  0  0
 20 19  2  0  0  0  0
 21 27  2  0  0  0  0
 21 20  1  0  0  0  0
 22 21  1  0  0  0  0
 23 22  1  0  0  0  0
 24 22  2  0  0  0  0
 24 25  1  0  0  0  0
 25 26  2  0  0  0  0
 26 27  1  0  0  0  0
 27 18  1  0  0  0  0
M  END
>  <CHROM.1>
152.89378786,-6.33256121,98.51910732,-103.90549439,39.57145550,15.28109189
7.83188855,-11.55797365,-18.25758496,0.18479830,0.88587199,2.11577100

>  <Name>
lig.pdb

>  <RI>
0

>  <Rbt.Current_Directory>
/home/itssahil/PROJECTS/Mol_Feturizer/New_Systems/rnas/4b5r

>  <Rbt.Executable>
rbdock ($Id: //depot/dev/client3/rdock/2013.1/src/exe/rbdock.cxx#4 $)

>  <Rbt.Library>
libRbt.so (2013.1, Build901 2013/11/27)

>  <Rbt.Parameter_File>
/export/apps/rDock/src/rDock_2013.1_src/data/scripts/dock_solv.prm

>  <Rbt.Receptor>
prm/blind_docking_100.prm

>  <SCORE>
-13.7001

>  <SCORE.INTER>
-14.4443

>  <SCORE.INTER.CONST>
1

>  <SCORE.INTER.POLAR>
0

>  <SCORE.INTER.ROT>
6

>  <SCORE.INTER.SOLV>
17.431

>  <SCORE.INTER.VDW>
-23.0399

>  <SCORE.INTER.norm>
-0.534974

>  <SCORE.INTRA>
0.744165

>  <SCORE.INTRA.DIHEDRAL>
1.64854

>  <SCORE.INTRA.DIHEDRAL.0>
10.2917

>  <SCORE.INTRA.POLAR>
0

>  <SCORE.INTRA.POLAR.0>
0

>  <SCORE.INTRA.REPUL>
0

>  <SCORE.INTRA.REPUL.0>
0

>  <SCORE.INTRA.SOLV>
-2.42241

>  <SCORE.INTRA.SOLV.lig_0>
-39.6315

>  <SCORE.INTRA.VDW>
1.1311

>  <SCORE.INTRA.VDW.0>
-4.02152

>  <SCORE.INTRA.norm>
0.0275617

>  <SCORE.RESTR>
0

>  <SCORE.RESTR.CAVITY>
0

>  <SCORE.RESTR.norm>
0

>  <SCORE.SYSTEM>
0

>  <SCORE.SYSTEM.CONST>
0

>  <SCORE.SYSTEM.DIHEDRAL>
0

>  <SCORE.SYSTEM.SOLV>
0

>  <SCORE.SYSTEM.norm>
0

>  <SCORE.heavy>
27

>  <SCORE.norm>
-0.507412

>  <RMSD>
11.837

$$$$
lig.pdb
 OpenBabel11021811493D
libRbt.so/2013.1/901 2013/11/27
 27 29  0  0  0  0  0  0  0  0999 V2000
    7.0209  -16.4261  -14.6134 N   0  0  0  0  0  0  0  0  0  0  0  0
    7.7675  -15.3037  -15.2590 C   0  0  2  0  0  0  0  0  0  0  0  0
    8.8884  -14.8491  -14.3288 C   0  0  0  0  0  0  0  0  0  0  0  0
    9.9071  -14.3606  -14.8036 O   0  0  0  0  0  0  0  0  0  0  0  0
    8.8222  -14.9552  -13.0975 O   0  0  0  0  0  0  0  0  0  0  0  0
    6.8679  -14.1269  -15.6876 C   0  0  0  0  0  0  0  0  0  0  0  0
    6.8830  -13.7486  -17.1920 C   0  0  0  0  0  0  0  0  0  0  0  0
    5.8342  -12.3455  -17.7708 S   0  0  2  0  0  0  0  0  0  0  0  0
    6.6929  -11.8556  -19.2815 C   0  0  0  0  0  0  0  0  0  0  0  0
    6.3163  -10.9811  -16.6902 C   0  0  0  0  0  0  0  0  0  0  0  0
    5.2226   -9.9212  -16.6828 C   0  0  1  0  0  0  0  0  0  0  0  0
    5.4623   -8.8954  -15.7312 O   0  0  0  0  0  0  0  0  0  0  0  0
    5.1067   -9.1816  -17.9885 C   0  0  1  0  0  0  0  0  0  0  0  0
    4.4120   -9.9577  -18.9218 O   0  0  0  0  0  0  0  0  0  0  0  0
    4.3386   -7.9555  -17.5469 C   0  0  1  0  0  0  0  0  0  0  0  0
    2.9563   -8.2426  -17.4854 O   0  0  0  0  0  0  0  0  0  0  0  0
    4.8510   -7.6837  -16.1369 C   0  0  2  0  0  0  0  0  0  0  0  0
    5.7835   -6.5296  -16.0160 N   0  0  0  0  0  0  0  0  0  0  0  0
    5.5960   -5.4402  -15.2029 C   0  0  0  0  0  0  0  0  0  0  0  0
    6.6394   -4.5931  -15.3483 N   0  0  0  0  0  0  0  0  0  0  0  0
    7.5010   -5.1199  -16.2338 C   0  0  0  0  0  0  0  0  0  0  0  0
    8.7171   -4.6730  -16.7278 C   0  0  0  0  0  0  0  0  0  0  0  0
    9.2242   -3.5186  -16.3157 N   0  0  0  0  0  0  0  0  0  0  0  0
    9.3956   -5.4471  -17.6482 N   0  0  0  0  0  0  0  0  0  0  0  0
    8.8811   -6.6626  -18.0812 C   0  0  0  0  0  0  0  0  0  0  0  0
    7.6722   -7.0937  -17.5740 N   0  0  0  0  0  0  0  0  0  0  0  0
    6.9840   -6.3373  -16.6699 C   0  0  0  0  0  0  0  0  0  0  0  0
  2  3  1  1  0  0  0
  2  6  1  0  0  0  0
  2  1  1  0  0  0  0
  4  3  2  0  0  0  0
  5  3  1  0  0  0  0
  6  7  2  0  0  0  0
  8  7  1  1  0  0  0
  8  9  1  0  0  0  0
  8 10  1  0  0  0  0
 11 10  1  6  0  0  0
 11 13  1  0  0  0  0
 12 11  1  0  0  0  0
 12 17  1  0  0  0  0
 13 14  1  6  0  0  0
 13 15  1  0  0  0  0
 15 16  1  1  0  0  0
 17 18  1  6  0  0  0
 17 15  1  0  0  0  0
 18 19  1  0  0  0  0
 20 19  2  0  0  0  0
 21 27  2  0  0  0  0
 21 20  1  0  0  0  0
 22 21  1  0  0  0  0
 23 22  1  0  0  0  0
 24 22  2  0  0  0  0
 24 25  1  0  0  0  0
 25 26  2  0  0  0  0
 26 27  1  0  0  0  0
 27 18  1  0  0  0  0
M  END
>  <CHROM.1>
151.22010618,-121.40663069,156.45310413,-159.42701021,172.92374477,-117.88673251
6.73713370,-9.69724058,-16.54407607,-1.49835130,-0.50162187,-0.10178976

>  <Name>
lig.pdb

>  <RI>
0

>  <Rbt.Current_Directory>
/home/itssahil/PROJECTS/Mol_Feturizer/New_Systems/rnas/4b5r

>  <Rbt.Executable>
rbdock ($Id: //depot/dev/client3/rdock/2013.1/src/exe/rbdock.cxx#4 $)

>  <Rbt.Library>
libRbt.so (2013.1, Build901 2013/11/27)

>  <Rbt.Parameter_File>
/export/apps/rDock/src/rDock_2013.1_src/data/scripts/dock_solv.prm

>  <Rbt.Receptor>
prm/blind_docking_100.prm

>  <SCORE>
-12.7087

>  <SCORE.INTER>
-12.1523

>  <SCORE.INTER.CONST>
1

>  <SCORE.INTER.POLAR>
0

>  <SCORE.INTER.ROT>
6

>  <SCORE.INTER.SOLV>
15.6186

>  <SCORE.INTER.VDW>
-20.9077

>  <SCORE.INTER.norm>
-0.450084

>  <SCORE.INTRA>
-0.556452

>  <SCORE.INTRA.DIHEDRAL>
-1.20541

>  <SCORE.INTRA.DIHEDRAL.0>
10.2917

>  <SCORE.INTRA.POLAR>
0

>  <SCORE.INTRA.POLAR.0>
0

>  <SCORE.INTRA.REPUL>
0

>  <SCORE.INTRA.REPUL.0>
0

>  <SCORE.INTRA.SOLV>
-2.40451

>  <SCORE.INTRA.SOLV.lig_0>
-39.6315

>  <SCORE.INTRA.VDW>
1.24851

>  <SCORE.INTRA.VDW.0>
-4.02152

>  <SCORE.INTRA.norm>
-0.0206093

>  <SCORE.RESTR>
0

>  <SCORE.RESTR.CAVITY>
0

>  <SCORE.RESTR.norm>
0

>  <SCORE.SYSTEM>
0

>  <SCORE.SYSTEM.CONST>
0

>  <SCORE.SYSTEM.DIHEDRAL>
0

>  <SCORE.SYSTEM.SOLV>
0

>  <SCORE.SYSTEM.norm>
0

>  <SCORE.heavy>
27

>  <SCORE.norm>
-0.470693

>  <RMSD>
11.837

$$$$
lig.pdb
 OpenBabel11021811493D
libRbt.so/2013.1/901 2013/11/27
 27 29  0  0  0  0  0  0  0  0999 V2000
    5.7540  -17.0312  -12.8891 N   0  0  0  0  0  0  0  0  0  0  0  0
    6.9001  -17.0995  -13.8460 C   0  0  2  0  0  0  0  0  0  0  0  0
    7.6630  -18.4014  -13.6195 C   0  0  0  0  0  0  0  0  0  0  0  0
    8.2198  -18.9479  -14.5645 O   0  0  0  0  0  0  0  0  0  0  0  0
    7.7451  -18.9463  -12.5113 O   0  0  0  0  0  0  0  0  0  0  0  0
    7.8324  -15.8727  -13.7844 C   0  0  0  0  0  0  0  0  0  0  0  0
    7.8962  -14.9802  -15.0517 C   0  0  0  0  0  0  0  0  0  0  0  0
    8.9972  -13.4999  -15.0471 S   0  0  2  0  0  0  0  0  0  0  0  0
    8.4160  -12.6255  -13.5784 C   0  0  0  0  0  0  0  0  0  0  0  0
    8.2921  -12.4424  -16.3303 C   0  0  0  0  0  0  0  0  0  0  0  0
    9.3666  -11.5110  -16.8755 C   0  0  1  0  0  0  0  0  0  0  0  0
    9.0069  -10.9315  -18.1206 O   0  0  0  0  0  0  0  0  0  0  0  0
    9.6271  -10.3242  -15.9873 C   0  0  1  0  0  0  0  0  0  0  0  0
   10.4339  -10.6980  -14.9079 O   0  0  0  0  0  0  0  0  0  0  0  0
   10.3258   -9.3979  -16.9580 C   0  0  1  0  0  0  0  0  0  0  0  0
   11.6943   -9.7368  -17.0554 O   0  0  0  0  0  0  0  0  0  0  0  0
    9.6494   -9.6810  -18.2947 C   0  0  2  0  0  0  0  0  0  0  0  0
    8.6975   -8.6328  -18.7546 N   0  0  0  0  0  0  0  0  0  0  0  0
    7.7276   -8.8062  -19.7097 C   0  0  0  0  0  0  0  0  0  0  0  0
    7.0523   -7.6464  -19.8720 N   0  0  0  0  0  0  0  0  0  0  0  0
    7.5629   -6.7303  -19.0330 C   0  0  0  0  0  0  0  0  0  0  0  0
    7.2362   -5.4044  -18.7924 C   0  0  0  0  0  0  0  0  0  0  0  0
    6.2456   -4.8268  -19.4592 N   0  0  0  0  0  0  0  0  0  0  0  0
    7.9502   -4.6958  -17.8464 N   0  0  0  0  0  0  0  0  0  0  0  0
    8.9836   -5.2908  -17.1339 C   0  0  0  0  0  0  0  0  0  0  0  0
    9.2906   -6.6131  -17.3829 N   0  0  0  0  0  0  0  0  0  0  0  0
    8.6006   -7.3260  -18.3203 C   0  0  0  0  0  0  0  0  0  0  0  0
  2  3  1  1  0  0  0
  2  6  1  0  0  0  0
  2  1  1  0  0  0  0
  4  3  2  0  0  0  0
  5  3  1  0  0  0  0
  6  7  2  0  0  0  0
  8  7  1  1  0  0  0
  8  9  1  0  0  0  0
  8 10  1  0  0  0  0
 11 10  1  1  0  0  0
 11 13  1  0  0  0  0
 12 11  1  0  0  0  0
 12 17  1  0  0  0  0
 13 14  1  1  0  0  0
 13 15  1  0  0  0  0
 15 16  1  6  0  0  0
 17 18  1  1  0  0  0
 17 15  1  0  0  0  0
 18 19  1  0  0  0  0
 20 19  2  0  0  0  0
 21 27  2  0  0  0  0
 21 20  1  0  0  0  0
 22 21  1  0  0  0  0
 23 22  1  0  0  0  0
 24 22  2  0  0  0  0
 24 25  1  0  0  0  0
 25 26  2  0  0  0  0
 26 27  1  0  0  0  0
 27 18  1  0  0  0  0
M  END
>  <CHROM.1>
148.52949291,-115.14494622,-54.72467606,-155.34335678,163.07102403,-42.37810042
8.47297410,-11.25358849,-16.38887738,1.61816319,0.32987858,2.70031229

>  <Name>
lig.pdb

>  <RI>
0

>  <Rbt.Current_Directory>
/home/itssahil/PROJECTS/Mol_Feturizer/New_Systems/rnas/4b5r

>  <Rbt.Executable>
rbdock ($Id: //depot/dev/client3/rdock/2013.1/src/exe/rbdock.cxx#4 $)

>  <Rbt.Library>
libRbt.so (2013.1, Build901 2013/11/27)

>  <Rbt.Parameter_File>
/export/apps/rDock/src/rDock_2013.1_src/data/scripts/dock_solv.prm

>  <Rbt.Receptor>
prm/blind_docking_60.prm

>  <SCORE>
-14.5765

>  <SCORE.INTER>
-14.9919

>  <SCORE.INTER.CONST>
1

>  <SCORE.INTER.POLAR>
0

>  <SCORE.INTER.ROT>
6

>  <SCORE.INTER.SOLV>
15.5177

>  <SCORE.INTER.VDW>
-22.7672

>  <SCORE.INTER.norm>
-0.555256

>  <SCORE.INTRA>
0.415367

>  <SCORE.INTRA.DIHEDRAL>
0.0926264

>  <SCORE.INTRA.DIHEDRAL.0>
10.2917

>  <SCORE.INTRA.POLAR>
0

>  <SCORE.INTRA.POLAR.0>
0

>  <SCORE.INTRA.REPUL>
0

>  <SCORE.INTRA.REPUL.0>
0

>  <SCORE.INTRA.SOLV>
-2.70388

>  <SCORE.INTRA.SOLV.lig_0>
-39.6315

>  <SCORE.INTRA.VDW>
1.72099

>  <SCORE.INTRA.VDW.0>
-4.02152

>  <SCORE.INTRA.norm>
0.015384

>  <SCORE.RESTR>
0

>  <SCORE.RESTR.CAVITY>
0

>  <SCORE.RESTR.norm>
0

>  <SCORE.SYSTEM>
0

>  <SCORE.SYSTEM.CONST>
0

>  <SCORE.SYSTEM.DIHEDRAL>
0

>  <SCORE.SYSTEM.SOLV>
0

>  <SCORE.SYSTEM.norm>
0

>  <SCORE.heavy>
27

>  <SCORE.norm>
-0.539872

>  <RMSD>
11.889

$$$$
lig.pdb
 OpenBabel11021811493D
libRbt.so/2013.1/901 2013/11/27
 27 29  0  0  0  0  0  0  0  0999 V2000
    9.1428   -9.4995  -19.4095 N   0  0  0  0  0  0  0  0  0  0  0  0
    7.9551   -8.8270  -20.0188 C   0  0  2  0  0  0  0  0  0  0  0  0
    6.9024   -8.5973  -18.9384 C   0  0  0  0  0  0  0  0  0  0  0  0
    6.8001   -7.4919  -18.4194 O   0  0  0  0  0  0  0  0  0  0  0  0
    6.1362   -9.4878  -18.5488 O   0  0  0  0  0  0  0  0  0  0  0  0
    7.3733   -9.5782  -21.2333 C   0  0  0  0  0  0  0  0  0  0  0  0
    8.2587  -10.6891  -21.8566 C   0  0  0  0  0  0  0  0  0  0  0  0
    7.6250  -11.6225  -23.3163 S   0  0  2  0  0  0  0  0  0  0  0  0
    6.9864  -10.2850  -24.3473 C   0  0  0  0  0  0  0  0  0  0  0  0
    6.0680  -12.3240  -22.7285 C   0  0  0  0  0  0  0  0  0  0  0  0
    6.3490  -13.5533  -21.8745 C   0  0  1  0  0  0  0  0  0  0  0  0
    7.1839  -13.2671  -20.7626 O   0  0  0  0  0  0  0  0  0  0  0  0
    5.1090  -14.1379  -21.2531 C   0  0  1  0  0  0  0  0  0  0  0  0
    4.4090  -14.8966  -22.1966 O   0  0  0  0  0  0  0  0  0  0  0  0
    5.7184  -14.9763  -20.1512 C   0  0  1  0  0  0  0  0  0  0  0  0
    6.1520  -16.2183  -20.6673 O   0  0  0  0  0  0  0  0  0  0  0  0
    6.9353  -14.1743  -19.7035 C   0  0  2  0  0  0  0  0  0  0  0  0
    6.7824  -13.4704  -18.4006 N   0  0  0  0  0  0  0  0  0  0  0  0
    7.3370  -12.2554  -18.0857 C   0  0  0  0  0  0  0  0  0  0  0  0
    6.9896  -11.9231  -16.8222 N   0  0  0  0  0  0  0  0  0  0  0  0
    6.2137  -12.8972  -16.3191 C   0  0  0  0  0  0  0  0  0  0  0  0
    5.5902  -13.0487  -15.0899 C   0  0  0  0  0  0  0  0  0  0  0  0
    5.7131  -12.1142  -14.1565 N   0  0  0  0  0  0  0  0  0  0  0  0
    4.8356  -14.1805  -14.8525 N   0  0  0  0  0  0  0  0  0  0  0  0
    4.6904  -15.1626  -15.8242 C   0  0  0  0  0  0  0  0  0  0  0  0
    5.3136  -14.9916  -17.0436 N   0  0  0  0  0  0  0  0  0  0  0  0
    6.0701  -13.8830  -17.2923 C   0  0  0  0  0  0  0  0  0  0  0  0
  2  3  1  1  0  0  0
  2  6  1  0  0  0  0
  2  1  1  0  0  0  0
  4  3  2  0  0  0  0
  5  3  1  0  0  0  0
  6  7  2  0  0  0  0
  8  7  1  1  0  0  0
  8  9  1  0  0  0  0
  8 10  1  0  0  0  0
 11 10  1  1  0  0  0
 11 13  1  0  0  0  0
 12 11  1  0  0  0  0
 12 17  1  0  0  0  0
 13 14  1  6  0  0  0
 13 15  1  0  0  0  0
 15 16  1  6  0  0  0
 17 18  1  1  0  0  0
 17 15  1  0  0  0  0
 18 19  1  0  0  0  0
 20 19  2  0  0  0  0
 21 27  2  0  0  0  0
 21 20  1  0  0  0  0
 22 21  1  0  0  0  0
 23 22  1  0  0  0  0
 24 22  2  0  0  0  0
 24 25  1  0  0  0  0
 25 26  2  0  0  0  0
 26 27  1  0  0  0  0
 27 18  1  0  0  0  0
M  END
>  <CHROM.1>
99.66667611,-14.25410566,45.69147410,-78.79146803,58.02731060,-26.26666228
6.51629921,-12.31201143,-19.48889082,-0.77668948,1.23883737,1.21517273

>  <Name>
lig.pdb

>  <RI>
0

>  <Rbt.Current_Directory>
/home/itssahil/PROJECTS/Mol_Feturizer/New_Systems/rnas/4b5r

>  <Rbt.Executable>
rbdock ($Id: //depot/dev/client3/rdock/2013.1/src/exe/rbdock.cxx#4 $)

>  <Rbt.Library>
libRbt.so (2013.1, Build901 2013/11/27)

>  <Rbt.Parameter_File>
/export/apps/rDock/src/rDock_2013.1_src/data/scripts/dock_solv.prm

>  <Rbt.Receptor>
prm/blind_docking_40.prm

>  <SCORE>
-11.9764

>  <SCORE.INTER>
-11.4562

>  <SCORE.INTER.CONST>
1

>  <SCORE.INTER.POLAR>
0

>  <SCORE.INTER.ROT>
6

>  <SCORE.INTER.SOLV>
15.3264

>  <SCORE.INTER.VDW>
-20.3463

>  <SCORE.INTER.norm>
-0.424303

>  <SCORE.INTRA>
-0.520273

>  <SCORE.INTRA.DIHEDRAL>
-1.06174

>  <SCORE.INTRA.DIHEDRAL.0>
10.2917

>  <SCORE.INTRA.POLAR>
0

>  <SCORE.INTRA.POLAR.0>
0

>  <SCORE.INTRA.REPUL>
0

>  <SCORE.INTRA.REPUL.0>
0

>  <SCORE.INTRA.SOLV>
-1.65535

>  <SCORE.INTRA.SOLV.lig_0>
-39.6315

>  <SCORE.INTRA.VDW>
0.838275

>  <SCORE.INTRA.VDW.0>
-4.02152

>  <SCORE.INTRA.norm>
-0.0192694

>  <SCORE.RESTR>
0

>  <SCORE.RESTR.CAVITY>
0

>  <SCORE.RESTR.norm>
0

>  <SCORE.SYSTEM>
0

>  <SCORE.SYSTEM.CONST>
0

>  <SCORE.SYSTEM.DIHEDRAL>
0

>  <SCORE.SYSTEM.SOLV>
0

>  <SCORE.SYSTEM.norm>
0

>  <SCORE.heavy>
27

>  <SCORE.norm>
-0.443572

>  <RMSD>
11.914

$$$$
lig.pdb
 OpenBabel11021811493D
libRbt.so/2013.1/901 2013/11/27
 27 29  0  0  0  0  0  0  0  0999 V2000
    8.4750  -14.3999  -22.8388 N   0  0  0  0  0  0  0  0  0  0  0  0
    7.2270  -13.5903  -22.6947 C   0  0  2  0  0  0  0  0  0  0  0  0
    7.5138  -12.1515  -23.1141 C   0  0  0  0  0  0  0  0  0  0  0  0
    6.6412  -11.3002  -22.9894 O   0  0  0  0  0  0  0  0  0  0  0  0
    8.6005  -11.7950  -23.5871 O   0  0  0  0  0  0  0  0  0  0  0  0
    6.6015  -13.6614  -21.2870 C   0  0  0  0  0  0  0  0  0  0  0  0
    7.3161  -14.5681  -20.2507 C   0  0  0  0  0  0  0  0  0  0  0  0
    6.6161  -14.7033  -18.5491 S   0  0  2  0  0  0  0  0  0  0  0  0
    5.3714  -15.9913  -18.7750 C   0  0  0  0  0  0  0  0  0  0  0  0
    5.5397  -13.2592  -18.4169 C   0  0  0  0  0  0  0  0  0  0  0  0
    6.3619  -11.9887  -18.5881 C   0  0  1  0  0  0  0  0  0  0  0  0
    5.5742  -10.8780  -18.9897 O   0  0  0  0  0  0  0  0  0  0  0  0
    7.0109  -11.5274  -17.3109 C   0  0  1  0  0  0  0  0  0  0  0  0
    8.1553  -12.2878  -17.0499 O   0  0  0  0  0  0  0  0  0  0  0  0
    7.3211  -10.0885  -17.6600 C   0  0  1  0  0  0  0  0  0  0  0  0
    8.5224  -10.0151  -18.4005 O   0  0  0  0  0  0  0  0  0  0  0  0
    6.1615   -9.6646  -18.5545 C   0  0  2  0  0  0  0  0  0  0  0  0
    5.1617   -8.7698  -17.9096 N   0  0  0  0  0  0  0  0  0  0  0  0
    5.3182   -8.1508  -16.6949 C   0  0  0  0  0  0  0  0  0  0  0  0
    4.2151   -7.4175  -16.4251 N   0  0  0  0  0  0  0  0  0  0  0  0
    3.3532   -7.5448  -17.4473 C   0  0  0  0  0  0  0  0  0  0  0  0
    2.0977   -7.0038  -17.6788 C   0  0  0  0  0  0  0  0  0  0  0  0
    1.5445   -6.1898  -16.7894 N   0  0  0  0  0  0  0  0  0  0  0  0
    1.4341   -7.3180  -18.8483 N   0  0  0  0  0  0  0  0  0  0  0  0
    2.0056   -8.1613  -19.7928 C   0  0  0  0  0  0  0  0  0  0  0  0
    3.2584   -8.6855  -19.5476 N   0  0  0  0  0  0  0  0  0  0  0  0
    3.9250   -8.3922  -18.3931 C   0  0  0  0  0  0  0  0  0  0  0  0
  2  3  1  1  0  0  0
  2  6  1  0  0  0  0
  2  1  1  0  0  0  0
  4  3  2  0  0  0  0
  5  3  1  0  0  0  0
  6  7  2  0  0  0  0
  8  7  1  6  0  0  0
  8  9  1  0  0  0  0
  8 10  1  0  0  0  0
 11 10  1  1  0  0  0
 11 13  1  0  0  0  0
 12 11  1  0  0  0  0
 12 17  1  0  0  0  0
 13 14  1  6  0  0  0
 13 15  1  0  0  0  0
 15 16  1  6  0  0  0
 17 18  1  1  0  0  0
 17 15  1  0  0  0  0
 18 19  1  0  0  0  0
 20 19  2  0  0  0  0
 21 27  2  0  0  0  0
 21 20  1  0  0  0  0
 22 21  1  0  0  0  0
 23 22  1  0  0  0  0
 24 22  2  0  0  0  0
 24 25  1  0  0  0  0
 25 26  2  0  0  0  0
 26 27  1  0  0  0  0
 27 18  1  0  0  0  0
M  END
>  <CHROM.1>
-175.35913885,-1.42598414,84.62990459,-60.62417709,158.03571282,130.45671380
5.71497796,-10.96153352,-19.20169850,0.27392015,0.99615946,-1.41750242

>  <Name>
lig.pdb

>  <RI>
0

>  <Rbt.Current_Directory>
/home/itssahil/PROJECTS/Mol_Feturizer/New_Systems/rnas/4b5r

>  <Rbt.Executable>
rbdock ($Id: //depot/dev/client3/rdock/2013.1/src/exe/rbdock.cxx#4 $)

>  <Rbt.Library>
libRbt.so (2013.1, Build901 2013/11/27)

>  <Rbt.Parameter_File>
/export/apps/rDock/src/rDock_2013.1_src/data/scripts/dock_solv.prm

>  <Rbt.Receptor>
prm/blind_docking_100.prm

>  <SCORE>
-6.2096

>  <SCORE.INTER>
-7.36311

>  <SCORE.INTER.CONST>
1

>  <SCORE.INTER.POLAR>
0

>  <SCORE.INTER.ROT>
6

>  <SCORE.INTER.SOLV>
16.3274

>  <SCORE.INTER.VDW>
-17.9512

>  <SCORE.INTER.norm>
-0.272708

>  <SCORE.INTRA>
1.15351

>  <SCORE.INTRA.DIHEDRAL>
-0.546205

>  <SCORE.INTRA.DIHEDRAL.0>
10.2917

>  <SCORE.INTRA.POLAR>
0

>  <SCORE.INTRA.POLAR.0>
0

>  <SCORE.INTRA.REPUL>
0.0857077

>  <SCORE.INTRA.REPUL.0>
0

>  <SCORE.INTRA.SOLV>
-2.32097

>  <SCORE.INTRA.SOLV.lig_0>
-39.6315

>  <SCORE.INTRA.VDW>
2.15856

>  <SCORE.INTRA.VDW.0>
-4.02152

>  <SCORE.INTRA.norm>
0.0427225

>  <SCORE.RESTR>
0

>  <SCORE.RESTR.CAVITY>
0

>  <SCORE.RESTR.norm>
0

>  <SCORE.SYSTEM>
0

>  <SCORE.SYSTEM.CONST>
0

>  <SCORE.SYSTEM.DIHEDRAL>
0

>  <SCORE.SYSTEM.SOLV>
0

>  <SCORE.SYSTEM.norm>
0

>  <SCORE.heavy>
27

>  <SCORE.norm>
-0.229985

>  <RMSD>
11.946

$$$$
lig.pdb
 OpenBabel11021811493D
libRbt.so/2013.1/901 2013/11/27
 27 29  0  0  0  0  0  0  0  0999 V2000
    4.8873   -9.3447  -22.2118 N   0  0  0  0  0  0  0  0  0  0  0  0
    5.9193   -9.2802  -21.1325 C   0  0  2  0  0  0  0  0  0  0  0  0
    7.1320  -10.1062  -21.5510 C   0  0  0  0  0  0  0  0  0  0  0  0
    7.4906  -10.1025  -22.7228 O   0  0  0  0  0  0  0  0  0  0  0  0
    7.7805  -10.7963  -20.7541 O   0  0  0  0  0  0  0  0  0  0  0  0
    5.3923   -9.7008  -19.7457 C   0  0  0  0  0  0  0  0  0  0  0  0
    5.3826   -8.6102  -18.6425 C   0  0  0  0  0  0  0  0  0  0  0  0
    4.7705   -9.0487  -16.9583 S   0  0  2  0  0  0  0  0  0  0  0  0
    5.3647   -7.6488  -15.9853 C   0  0  0  0  0  0  0  0  0  0  0  0
    5.9282  -10.3189  -16.4032 C   0  0  0  0  0  0  0  0  0  0  0  0
    5.3127  -11.6974  -16.6037 C   0  0  1  0  0  0  0  0  0  0  0  0
    5.2429  -12.0710  -17.9715 O   0  0  0  0  0  0  0  0  0  0  0  0
    6.1149  -12.8015  -15.9690 C   0  0  1  0  0  0  0  0  0  0  0  0
    5.8726  -12.8430  -14.5922 O   0  0  0  0  0  0  0  0  0  0  0  0
    5.5653  -14.0035  -16.7049 C   0  0  1  0  0  0  0  0  0  0  0  0
    4.3530  -14.4244  -16.1133 O   0  0  0  0  0  0  0  0  0  0  0  0
    5.2763  -13.4806  -18.1076 C   0  0  2  0  0  0  0  0  0  0  0  0
    6.2455  -13.9096  -19.1530 N   0  0  0  0  0  0  0  0  0  0  0  0
    7.3256  -14.7298  -18.9444 C   0  0  0  0  0  0  0  0  0  0  0  0
    7.9814  -14.9060  -20.1133 N   0  0  0  0  0  0  0  0  0  0  0  0
    7.3393  -14.2215  -21.0742 C   0  0  0  0  0  0  0  0  0  0  0  0
    7.5816  -14.0735  -22.4313 C   0  0  0  0  0  0  0  0  0  0  0  0
    8.6166  -14.6802  -22.9973 N   0  0  0  0  0  0  0  0  0  0  0  0
    6.7291  -13.2925  -23.1864 N   0  0  0  0  0  0  0  0  0  0  0  0
    5.6360  -12.6592  -22.6088 C   0  0  0  0  0  0  0  0  0  0  0  0
    5.4075  -12.8229  -21.2576 N   0  0  0  0  0  0  0  0  0  0  0  0
    6.2448  -13.5845  -20.4947 C   0  0  0  0  0  0  0  0  0  0  0  0
  2  3  1  6  0  0  0
  2  6  1  0  0  0  0
  2  1  1  0  0  0  0
  4  3  2  0  0  0  0
  5  3  1  0  0  0  0
  6  7  2  0  0  0  0
  8  7  1  6  0  0  0
  8  9  1  0  0  0  0
  8 10  1  0  0  0  0
 11 10  1  6  0  0  0
 11 13  1  0  0  0  0
 12 11  1  0  0  0  0
 12 17  1  0  0  0  0
 13 14  1  1  0  0  0
 13 15  1  0  0  0  0
 15 16  1  1  0  0  0
 17 18  1  6  0  0  0
 17 15  1  0  0  0  0
 18 19  1  0  0  0  0
 20 19  2  0  0  0  0
 21 27  2  0  0  0  0
 21 20  1  0  0  0  0
 22 21  1  0  0  0  0
 23 22  1  0  0  0  0
 24 22  2  0  0  0  0
 24 25  1  0  0  0  0
 25 26  2  0  0  0  0
 26 27  1  0  0  0  0
 27 18  1  0  0  0  0
M  END
>  <CHROM.1>
37.76753376,-116.02593665,165.49546190,-99.42510384,71.73497986,120.52977570
6.10408598,-11.87699701,-19.25070517,0.24989791,1.26563964,-0.63881528

>  <Name>
lig.pdb

>  <RI>
0

>  <Rbt.Current_Directory>
/home/itssahil/PROJECTS/Mol_Feturizer/New_Systems/rnas/4b5r

>  <Rbt.Executable>
rbdock ($Id: //depot/dev/client3/rdock/2013.1/src/exe/rbdock.cxx#4 $)

>  <Rbt.Library>
libRbt.so (2013.1, Build901 2013/11/27)

>  <Rbt.Parameter_File>
/export/apps/rDock/src/rDock_2013.1_src/data/scripts/dock_solv.prm

>  <Rbt.Receptor>
prm/blind_docking_100.prm

>  <SCORE>
-10.9387

>  <SCORE.INTER>
-10.2258

>  <SCORE.INTER.CONST>
1

>  <SCORE.INTER.POLAR>
0

>  <SCORE.INTER.ROT>
6

>  <SCORE.INTER.SOLV>
15.1499

>  <SCORE.INTER.VDW>
-19.4672

>  <SCORE.INTER.norm>
-0.378735

>  <SCORE.INTRA>
-0.712892

>  <SCORE.INTRA.DIHEDRAL>
-0.304569

>  <SCORE.INTRA.DIHEDRAL.0>
10.2917

>  <SCORE.INTRA.POLAR>
0

>  <SCORE.INTRA.POLAR.0>
0

>  <SCORE.INTRA.REPUL>
0.0295135

>  <SCORE.INTRA.REPUL.0>
0

>  <SCORE.INTRA.SOLV>
-0.16803

>  <SCORE.INTRA.SOLV.lig_0>
-39.6315

>  <SCORE.INTRA.VDW>
-0.62416

>  <SCORE.INTRA.VDW.0>
-4.02152

>  <SCORE.INTRA.norm>
-0.0264034

>  <SCORE.RESTR>
0

>  <SCORE.RESTR.CAVITY>
0

>  <SCORE.RESTR.norm>
0

>  <SCORE.SYSTEM>
0

>  <SCORE.SYSTEM.CONST>
0

>  <SCORE.SYSTEM.DIHEDRAL>
0

>  <SCORE.SYSTEM.SOLV>
0

>  <SCORE.SYSTEM.norm>
0

>  <SCORE.heavy>
27

>  <SCORE.norm>
-0.405138

>  <RMSD>
12.042

$$$$
lig.pdb
 OpenBabel11021811493D
libRbt.so/2013.1/901 2013/11/27
 27 29  0  0  0  0  0  0  0  0999 V2000
    7.4801  -11.1405  -23.6800 N   0  0  0  0  0  0  0  0  0  0  0  0
    6.6374  -12.2558  -23.1509 C   0  0  2  0  0  0  0  0  0  0  0  0
    5.1652  -11.9053  -23.3462 C   0  0  0  0  0  0  0  0  0  0  0  0
    4.7375  -10.8364  -22.9265 O   0  0  0  0  0  0  0  0  0  0  0  0
    4.3654  -12.6615  -23.9123 O   0  0  0  0  0  0  0  0  0  0  0  0
    6.9475  -12.6255  -21.6864 C   0  0  0  0  0  0  0  0  0  0  0  0
    7.1312  -14.1332  -21.3709 C   0  0  0  0  0  0  0  0  0  0  0  0
    7.4978  -14.6448  -19.6367 S   0  0  2  0  0  0  0  0  0  0  0  0
    6.4850  -16.1311  -19.4798 C   0  0  0  0  0  0  0  0  0  0  0  0
    6.5172  -13.5013  -18.6405 C   0  0  0  0  0  0  0  0  0  0  0  0
    7.1716  -13.3167  -17.2777 C   0  0  1  0  0  0  0  0  0  0  0  0
    8.3437  -12.5180  -17.3381 O   0  0  0  0  0  0  0  0  0  0  0  0
    6.2930  -12.5934  -16.2926 C   0  0  1  0  0  0  0  0  0  0  0  0
    5.3374  -13.4685  -15.7663 O   0  0  0  0  0  0  0  0  0  0  0  0
    7.3207  -12.1539  -15.2732 C   0  0  1  0  0  0  0  0  0  0  0  0
    7.6032  -13.2113  -14.3793 O   0  0  0  0  0  0  0  0  0  0  0  0
    8.5658  -11.8611  -16.1029 C   0  0  2  0  0  0  0  0  0  0  0  0
    8.8706  -10.4166  -16.2950 N   0  0  0  0  0  0  0  0  0  0  0  0
    7.9401   -9.4319  -16.5129 C   0  0  0  0  0  0  0  0  0  0  0  0
    8.5727   -8.2441  -16.6410 N   0  0  0  0  0  0  0  0  0  0  0  0
    9.8937   -8.4429  -16.5009 C   0  0  0  0  0  0  0  0  0  0  0  0
   10.9740   -7.5743  -16.5334 C   0  0  0  0  0  0  0  0  0  0  0  0
   10.7846   -6.2765  -16.7321 N   0  0  0  0  0  0  0  0  0  0  0  0
   12.2473   -8.0762  -16.3504 N   0  0  0  0  0  0  0  0  0  0  0  0
   12.4595   -9.4315  -16.1318 C   0  0  0  0  0  0  0  0  0  0  0  0
   11.3715  -10.2798  -16.0969 N   0  0  0  0  0  0  0  0  0  0  0  0
   10.1067   -9.8020  -16.2842 C   0  0  0  0  0  0  0  0  0  0  0  0
  2  3  1  1  0  0  0
  2  6  1  0  0  0  0
  2  1  1  0  0  0  0
  4  3  2  0  0  0  0
  5  3  1  0  0  0  0
  6  7  2  0  0  0  0
  8  7  1  6  0  0  0
  8  9  1  0  0  0  0
  8 10  1  0  0  0  0
 11 10  1  6  0  0  0
 11 13  1  0  0  0  0
 12 11  1  0  0  0  0
 12 17  1  0  0  0  0
 13 14  1  1  0  0  0
 13 15  1  0  0  0  0
 15 16  1  1  0  0  0
 17 18  1  6  0  0  0
 17 15  1  0  0  0  0
 18 19  1  0  0  0  0
 20 19  2  0  0  0  0
 21 27  2  0  0  0  0
 21 20  1  0  0  0  0
 22 21  1  0  0  0  0
 23 22  1  0  0  0  0
 24 22  2  0  0  0  0
 24 25  1  0  0  0  0
 25 26  2  0  0  0  0
 26 27  1  0  0  0  0
 27 18  1  0  0  0  0
M  END
>  <CHROM.1>
-53.02678132,-132.23483436,139.82810811,-152.76517760,73.60359083,80.46541036
7.93578380,-11.58772050,-18.39292940,-2.71516480,0.96318914,2.04668081

>  <Name>
lig.pdb

>  <RI>
0

>  <Rbt.Current_Directory>
/home/itssahil/PROJECTS/Mol_Feturizer/New_Systems/rnas/4b5r

>  <Rbt.Executable>
rbdock ($Id: //depot/dev/client3/rdock/2013.1/src/exe/rbdock.cxx#4 $)

>  <Rbt.Library>
libRbt.so (2013.1, Build901 2013/11/27)

>  <Rbt.Parameter_File>
/export/apps/rDock/src/rDock_2013.1_src/data/scripts/dock_solv.prm

>  <Rbt.Receptor>
prm/blind_docking_40.prm

>  <SCORE>
-13.9083

>  <SCORE.INTER>
-13.8987

>  <SCORE.INTER.CONST>
1

>  <SCORE.INTER.POLAR>
0

>  <SCORE.INTER.ROT>
6

>  <SCORE.INTER.SOLV>
16.4527

>  <SCORE.INTER.VDW>
-22.3501

>  <SCORE.INTER.norm>
-0.514768

>  <SCORE.INTRA>
-0.00956215

>  <SCORE.INTRA.DIHEDRAL>
0.12715

>  <SCORE.INTRA.DIHEDRAL.0>
10.2917

>  <SCORE.INTRA.POLAR>
0

>  <SCORE.INTRA.POLAR.0>
0

>  <SCORE.INTRA.REPUL>
0

>  <SCORE.INTRA.REPUL.0>
0

>  <SCORE.INTRA.SOLV>
-3.49815

>  <SCORE.INTRA.SOLV.lig_0>
-39.6315

>  <SCORE.INTRA.VDW>
1.67594

>  <SCORE.INTRA.VDW.0>
-4.02152

>  <SCORE.INTRA.norm>
-0.000354154

>  <SCORE.RESTR>
0

>  <SCORE.RESTR.CAVITY>
0

>  <SCORE.RESTR.norm>
0

>  <SCORE.SYSTEM>
0

>  <SCORE.SYSTEM.CONST>
0

>  <SCORE.SYSTEM.DIHEDRAL>
0

>  <SCORE.SYSTEM.SOLV>
0

>  <SCORE.SYSTEM.norm>
0

>  <SCORE.heavy>
27

>  <SCORE.norm>
-0.515123

>  <RMSD>
12.097

$$$$
lig.pdb
 OpenBabel11021811493D
libRbt.so/2013.1/901 2013/11/27
 27 29  0  0  0  0  0  0  0  0999 V2000
    3.9839   -7.8282  -23.6963 N   0  0  0  0  0  0  0  0  0  0  0  0
    4.6367   -8.2031  -22.4051 C   0  0  2  0  0  0  0  0  0  0  0  0
    4.8965   -6.9389  -21.5912 C   0  0  0  0  0  0  0  0  0  0  0  0
    4.4692   -5.8629  -21.9930 O   0  0  0  0  0  0  0  0  0  0  0  0
    5.5328   -6.9439  -20.5296 O   0  0  0  0  0  0  0  0  0  0  0  0
    5.9176   -9.0438  -22.5797 C   0  0  0  0  0  0  0  0  0  0  0  0
    5.9592  -10.4122  -21.8502 C   0  0  0  0  0  0  0  0  0  0  0  0
    7.4654  -11.4652  -22.0120 S   0  0  2  0  0  0  0  0  0  0  0  0
    7.4976  -11.7737  -23.7905 C   0  0  0  0  0  0  0  0  0  0  0  0
    6.9155  -13.0847  -21.4318 C   0  0  0  0  0  0  0  0  0  0  0  0
    6.5528  -13.0049  -19.9548 C   0  0  1  0  0  0  0  0  0  0  0  0
    5.8797  -14.1667  -19.4938 O   0  0  0  0  0  0  0  0  0  0  0  0
    7.7551  -12.9039  -19.0550 C   0  0  1  0  0  0  0  0  0  0  0  0
    8.2464  -11.5945  -19.0524 O   0  0  0  0  0  0  0  0  0  0  0  0
    7.1474  -13.3125  -17.7313 C   0  0  1  0  0  0  0  0  0  0  0  0
    6.4969  -12.2099  -17.1329 O   0  0  0  0  0  0  0  0  0  0  0  0
    6.1038  -14.3581  -18.1083 C   0  0  2  0  0  0  0  0  0  0  0  0
    6.4809  -15.7652  -17.8012 N   0  0  0  0  0  0  0  0  0  0  0  0
    6.6654  -16.2802  -16.5428 C   0  0  0  0  0  0  0  0  0  0  0  0
    6.9991  -17.5864  -16.6424 N   0  0  0  0  0  0  0  0  0  0  0  0
    7.0248  -17.9260  -17.9416 C   0  0  0  0  0  0  0  0  0  0  0  0
    7.2946  -19.1242  -18.5850 C   0  0  0  0  0  0  0  0  0  0  0  0
    7.5947  -20.2090  -17.8830 N   0  0  0  0  0  0  0  0  0  0  0  0
    7.2408  -19.1752  -19.9639 N   0  0  0  0  0  0  0  0  0  0  0  0
    6.9184  -18.0495  -20.7112 C   0  0  0  0  0  0  0  0  0  0  0  0
    6.6473  -16.8672  -20.0530 N   0  0  0  0  0  0  0  0  0  0  0  0
    6.7041  -16.7968  -18.6910 C   0  0  0  0  0  0  0  0  0  0  0  0
  2  3  1  6  0  0  0
  2  6  1  0  0  0  0
  2  1  1  0  0  0  0
  4  3  2  0  0  0  0
  5  3  1  0  0  0  0
  6  7  2  0  0  0  0
  8  7  1  6  0  0  0
  8  9  1  0  0  0  0
  8 10  1  0  0  0  0
 11 10  1  6  0  0  0
 11 13  1  0  0  0  0
 12 11  1  0  0  0  0
 12 17  1  0  0  0  0
 13 14  1  1  0  0  0
 13 15  1  0  0  0  0
 15 16  1  6  0  0  0
 17 18  1  6  0  0  0
 17 15  1  0  0  0  0
 18 19  1  0  0  0  0
 20 19  2  0  0  0  0
 21 27  2  0  0  0  0
 21 20  1  0  0  0  0
 22 21  1  0  0  0  0
 23 22  1  0  0  0  0
 24 22  2  0  0  0  0
 24 25  1  0  0  0  0
 25 26  2  0  0  0  0
 26 27  1  0  0  0  0
 27 18  1  0  0  0  0
M  END
>  <CHROM.1>
6.16510215,-124.10247781,-61.57568332,-64.86697360,168.93775574,-175.01531958
6.52328608,-13.16663877,-20.01328215,-2.64366645,-1.39346620,1.70768491

>  <Name>
lig.pdb

>  <RI>
0

>  <Rbt.Current_Directory>
/home/itssahil/PROJECTS/Mol_Feturizer/New_Systems/rnas/4b5r

>  <Rbt.Executable>
rbdock ($Id: //depot/dev/client3/rdock/2013.1/src/exe/rbdock.cxx#4 $)

>  <Rbt.Library>
libRbt.so (2013.1, Build901 2013/11/27)

>  <Rbt.Parameter_File>
/export/apps/rDock/src/rDock_2013.1_src/data/scripts/dock_solv.prm

>  <Rbt.Receptor>
prm/blind_docking_60.prm

>  <SCORE>
-12.5845

>  <SCORE.INTER>
-11.5702

>  <SCORE.INTER.CONST>
1

>  <SCORE.INTER.POLAR>
0

>  <SCORE.INTER.ROT>
6

>  <SCORE.INTER.SOLV>
18.0706

>  <SCORE.INTER.VDW>
-21.337

>  <SCORE.INTER.norm>
-0.428527

>  <SCORE.INTRA>
-1.01425

>  <SCORE.INTRA.DIHEDRAL>
-2.7791

>  <SCORE.INTRA.DIHEDRAL.0>
10.2917

>  <SCORE.INTRA.POLAR>
0

>  <SCORE.INTRA.POLAR.0>
0

>  <SCORE.INTRA.REPUL>
0.0394786

>  <SCORE.INTRA.REPUL.0>
0

>  <SCORE.INTRA.SOLV>
-2.64564

>  <SCORE.INTRA.SOLV.lig_0>
-39.6315

>  <SCORE.INTRA.VDW>
1.50073

>  <SCORE.INTRA.VDW.0>
-4.02152

>  <SCORE.INTRA.norm>
-0.0375647

>  <SCORE.RESTR>
0

>  <SCORE.RESTR.CAVITY>
0

>  <SCORE.RESTR.norm>
0

>  <SCORE.SYSTEM>
0

>  <SCORE.SYSTEM.CONST>
0

>  <SCORE.SYSTEM.DIHEDRAL>
0

>  <SCORE.SYSTEM.SOLV>
0

>  <SCORE.SYSTEM.norm>
0

>  <SCORE.heavy>
27

>  <SCORE.norm>
-0.466092

>  <RMSD>
12.293

$$$$
lig.pdb
 OpenBabel11021811493D
libRbt.so/2013.1/901 2013/11/27
 27 29  0  0  0  0  0  0  0  0999 V2000
    8.6497  -13.8258  -12.8732 N   0  0  0  0  0  0  0  0  0  0  0  0
    7.9673  -12.6087  -13.4088 C   0  0  2  0  0  0  0  0  0  0  0  0
    7.1020  -11.9974  -12.3108 C   0  0  0  0  0  0  0  0  0  0  0  0
    7.3378  -12.2619  -11.1377 O   0  0  0  0  0  0  0  0  0  0  0  0
    6.1538  -11.2384  -12.5489 O   0  0  0  0  0  0  0  0  0  0  0  0
    7.1587  -12.8678  -14.6960 C   0  0  0  0  0  0  0  0  0  0  0  0
    7.5961  -12.0881  -15.9639 C   0  0  0  0  0  0  0  0  0  0  0  0
    6.6667  -12.3468  -17.5364 S   0  0  2  0  0  0  0  0  0  0  0  0
    5.5016  -10.9683  -17.4950 C   0  0  0  0  0  0  0  0  0  0  0  0
    5.5438  -13.7066  -17.1472 C   0  0  0  0  0  0  0  0  0  0  0  0
    5.4158  -14.6279  -18.3532 C   0  0  1  0  0  0  0  0  0  0  0  0
    4.7651  -14.0047  -19.4502 O   0  0  0  0  0  0  0  0  0  0  0  0
    6.7452  -15.0529  -18.9167 C   0  0  1  0  0  0  0  0  0  0  0  0
    7.2947  -16.0751  -18.1363 O   0  0  0  0  0  0  0  0  0  0  0  0
    6.3281  -15.5170  -20.2947 C   0  0  1  0  0  0  0  0  0  0  0  0
    5.8318  -16.8387  -20.2340 O   0  0  0  0  0  0  0  0  0  0  0  0
    5.1890  -14.5774  -20.6745 C   0  0  2  0  0  0  0  0  0  0  0  0
    5.5392  -13.5347  -21.6777 N   0  0  0  0  0  0  0  0  0  0  0  0
    5.0311  -13.4557  -22.9499 C   0  0  0  0  0  0  0  0  0  0  0  0
    5.5693  -12.3858  -23.5770 N   0  0  0  0  0  0  0  0  0  0  0  0
    6.4087  -11.7679  -22.7299 C   0  0  0  0  0  0  0  0  0  0  0  0
    7.1978  -10.6355  -22.8624 C   0  0  0  0  0  0  0  0  0  0  0  0
    7.2019   -9.9509  -23.9986 N   0  0  0  0  0  0  0  0  0  0  0  0
    7.9734  -10.2265  -21.7957 N   0  0  0  0  0  0  0  0  0  0  0  0
    7.9714  -10.9282  -20.5968 C   0  0  0  0  0  0  0  0  0  0  0  0
    7.1752  -12.0495  -20.4817 N   0  0  0  0  0  0  0  0  0  0  0  0
    6.4087  -12.4727  -21.5288 C   0  0  0  0  0  0  0  0  0  0  0  0
  2  3  1  1  0  0  0
  2  6  1  0  0  0  0
  2  1  1  0  0  0  0
  4  3  2  0  0  0  0
  5  3  1  0  0  0  0
  6  7  2  0  0  0  0
  8  7  1  1  0  0  0
  8  9  1  0  0  0  0
  8 10  1  0  0  0  0
 11 10  1  1  0  0  0
 11 13  1  0  0  0  0
 12 11  1  0  0  0  0
 12 17  1  0  0  0  0
 13 14  1  1  0  0  0
 13 15  1  0  0  0  0
 15 16  1  1  0  0  0
 17 18  1  6  0  0  0
 17 15  1  0  0  0  0
 18 19  1  0  0  0  0
 20 19  2  0  0  0  0
 21 27  2  0  0  0  0
 21 20  1  0  0  0  0
 22 21  1  0  0  0  0
 23 22  1  0  0  0  0
 24 22  2  0  0  0  0
 24 25  1  0  0  0  0
 25 26  2  0  0  0  0
 26 27  1  0  0  0  0
 27 18  1  0  0  0  0
M  END
>  <CHROM.1>
20.84980100,-118.69429068,95.81916580,-142.17855099,-66.83668337,-126.74063821
6.57112778,-12.89914033,-18.50953017,1.18570476,1.30110440,1.95371778

>  <Name>
lig.pdb

>  <RI>
0

>  <Rbt.Current_Directory>
/home/itssahil/PROJECTS/Mol_Feturizer/New_Systems/rnas/4b5r

>  <Rbt.Executable>
rbdock ($Id: //depot/dev/client3/rdock/2013.1/src/exe/rbdock.cxx#4 $)

>  <Rbt.Library>
libRbt.so (2013.1, Build901 2013/11/27)

>  <Rbt.Parameter_File>
/export/apps/rDock/src/rDock_2013.1_src/data/scripts/dock_solv.prm

>  <Rbt.Receptor>
prm/blind_docking_80.prm

>  <SCORE>
-11.2062

>  <SCORE.INTER>
-11.626

>  <SCORE.INTER.CONST>
1

>  <SCORE.INTER.POLAR>
0

>  <SCORE.INTER.ROT>
6

>  <SCORE.INTER.SOLV>
18.0622

>  <SCORE.INTER.VDW>
-21.3714

>  <SCORE.INTER.norm>
-0.430594

>  <SCORE.INTRA>
0.419852

>  <SCORE.INTRA.DIHEDRAL>
1.37584

>  <SCORE.INTRA.DIHEDRAL.0>
10.2917

>  <SCORE.INTRA.POLAR>
0

>  <SCORE.INTRA.POLAR.0>
0

>  <SCORE.INTRA.REPUL>
0

>  <SCORE.INTRA.REPUL.0>
0

>  <SCORE.INTRA.SOLV>
-2.0348

>  <SCORE.INTRA.SOLV.lig_0>
-39.6315

>  <SCORE.INTRA.VDW>
0.749335

>  <SCORE.INTRA.VDW.0>
-4.02152

>  <SCORE.INTRA.norm>
0.0155501

>  <SCORE.RESTR>
0

>  <SCORE.RESTR.CAVITY>
0

>  <SCORE.RESTR.norm>
0

>  <SCORE.SYSTEM>
0

>  <SCORE.SYSTEM.CONST>
0

>  <SCORE.SYSTEM.DIHEDRAL>
0

>  <SCORE.SYSTEM.SOLV>
0

>  <SCORE.SYSTEM.norm>
0

>  <SCORE.heavy>
27

>  <SCORE.norm>
-0.415043

>  <RMSD>
12.318

$$$$
lig.pdb
 OpenBabel11021811493D
libRbt.so/2013.1/901 2013/11/27
 27 29  0  0  0  0  0  0  0  0999 V2000
   15.2072   -8.5478  -22.3435 N   0  0  0  0  0  0  0  0  0  0  0  0
   15.3600   -9.1989  -21.0068 C   0  0  2  0  0  0  0  0  0  0  0  0
   15.5608  -10.6988  -21.2019 C   0  0  0  0  0  0  0  0  0  0  0  0
   14.6918  -11.3572  -21.7616 O   0  0  0  0  0  0  0  0  0  0  0  0
   16.5722  -11.2962  -20.8121 O   0  0  0  0  0  0  0  0  0  0  0  0
   14.2005   -8.8989  -20.0356 C   0  0  0  0  0  0  0  0  0  0  0  0
   14.5458   -8.8719  -18.5234 C   0  0  0  0  0  0  0  0  0  0  0  0
   13.2031   -8.5254  -17.3066 S   0  0  2  0  0  0  0  0  0  0  0  0
   14.0930   -8.6640  -15.7419 C   0  0  0  0  0  0  0  0  0  0  0  0
   12.2637  -10.0671  -17.2605 C   0  0  0  0  0  0  0  0  0  0  0  0
   10.7961   -9.7829  -17.5519 C   0  0  1  0  0  0  0  0  0  0  0  0
   10.0025  -10.9599  -17.5587 O   0  0  0  0  0  0  0  0  0  0  0  0
   10.1436   -8.9142  -16.5104 C   0  0  1  0  0  0  0  0  0  0  0  0
   10.4909   -7.5748  -16.7136 O   0  0  0  0  0  0  0  0  0  0  0  0
    8.6835   -9.1973  -16.7865 C   0  0  1  0  0  0  0  0  0  0  0  0
    8.2281   -8.4020  -17.8622 O   0  0  0  0  0  0  0  0  0  0  0  0
    8.6623  -10.6618  -17.2100 C   0  0  2  0  0  0  0  0  0  0  0  0
    8.1368  -11.6068  -16.1868 N   0  0  0  0  0  0  0  0  0  0  0  0
    8.6641  -11.7927  -14.9337 C   0  0  0  0  0  0  0  0  0  0  0  0
    7.9344  -12.7231  -14.2786 N   0  0  0  0  0  0  0  0  0  0  0  0
    6.9404  -13.1348  -15.0827 C   0  0  0  0  0  0  0  0  0  0  0  0
    5.9176  -14.0534  -14.9025 C   0  0  0  0  0  0  0  0  0  0  0  0
    5.8001  -14.7088  -13.7552 N   0  0  0  0  0  0  0  0  0  0  0  0
    5.0203  -14.2722  -15.9290 N   0  0  0  0  0  0  0  0  0  0  0  0
    5.1256  -13.5859  -17.1321 C   0  0  0  0  0  0  0  0  0  0  0  0
    6.1467  -12.6712  -17.2910 N   0  0  0  0  0  0  0  0  0  0  0  0
    7.0474  -12.4486  -16.2899 C   0  0  0  0  0  0  0  0  0  0  0  0
  2  3  1  6  0  0  0
  2  6  1  0  0  0  0
  2  1  1  0  0  0  0
  4  3  2  0  0  0  0
  5  3  1  0  0  0  0
  6  7  2  0  0  0  0
  8  7  1  6  0  0  0
  8  9  1  0  0  0  0
  8 10  1  0  0  0  0
 11 10  1  1  0  0  0
 11 13  1  0  0  0  0
 12 11  1  0  0  0  0
 12 17  1  0  0  0  0
 13 14  1  6  0  0  0
 13 15  1  0  0  0  0
 15 16  1  6  0  0  0
 17 18  1  1  0  0  0
 17 15  1  0  0  0  0
 18 19  1  0  0  0  0
 20 19  2  0  0  0  0
 21 27  2  0  0  0  0
 21 20  1  0  0  0  0
 22 21  1  0  0  0  0
 23 22  1  0  0  0  0
 24 22  2  0  0  0  0
 24 25  1  0  0  0  0
 25 26  2  0  0  0  0
 26 27  1  0  0  0  0
 27 18  1  0  0  0  0
M  END
>  <CHROM.1>
-60.21297467,-149.70439310,178.10120362,-125.46368766,178.76821372,59.84824818
10.55618998,-10.68255311,-17.51151577,-0.02247773,-0.59437448,-2.51336658

>  <Name>
lig.pdb

>  <RI>
0

>  <Rbt.Current_Directory>
/home/itssahil/PROJECTS/Mol_Feturizer/New_Systems/rnas/4b5r

>  <Rbt.Executable>
rbdock ($Id: //depot/dev/client3/rdock/2013.1/src/exe/rbdock.cxx#4 $)

>  <Rbt.Library>
libRbt.so (2013.1, Build901 2013/11/27)

>  <Rbt.Parameter_File>
/export/apps/rDock/src/rDock_2013.1_src/data/scripts/dock_solv.prm

>  <Rbt.Receptor>
prm/blind_docking_40.prm

>  <SCORE>
-9.15113

>  <SCORE.INTER>
-10.4679

>  <SCORE.INTER.CONST>
1

>  <SCORE.INTER.POLAR>
0

>  <SCORE.INTER.ROT>
6

>  <SCORE.INTER.SOLV>
22.9786

>  <SCORE.INTER.VDW>
-22.2381

>  <SCORE.INTER.norm>
-0.387699

>  <SCORE.INTRA>
1.31674

>  <SCORE.INTRA.DIHEDRAL>
2.78965

>  <SCORE.INTRA.DIHEDRAL.0>
10.2917

>  <SCORE.INTRA.POLAR>
0

>  <SCORE.INTRA.POLAR.0>
0

>  <SCORE.INTRA.REPUL>
0

>  <SCORE.INTRA.REPUL.0>
0

>  <SCORE.INTRA.SOLV>
-3.22781

>  <SCORE.INTRA.SOLV.lig_0>
-39.6315

>  <SCORE.INTRA.VDW>
1.53582

>  <SCORE.INTRA.VDW.0>
-4.02152

>  <SCORE.INTRA.norm>
0.0487681

>  <SCORE.RESTR>
0

>  <SCORE.RESTR.CAVITY>
0

>  <SCORE.RESTR.norm>
0

>  <SCORE.SYSTEM>
0

>  <SCORE.SYSTEM.CONST>
0

>  <SCORE.SYSTEM.DIHEDRAL>
0

>  <SCORE.SYSTEM.SOLV>
0

>  <SCORE.SYSTEM.norm>
0

>  <SCORE.heavy>
27

>  <SCORE.norm>
-0.338931

>  <RMSD>
12.402

$$$$
lig.pdb
 OpenBabel11021811493D
libRbt.so/2013.1/901 2013/11/27
 27 29  0  0  0  0  0  0  0  0999 V2000
   10.4711   -7.7605  -16.6989 N   0  0  0  0  0  0  0  0  0  0  0  0
   10.4467   -9.1939  -16.2762 C   0  0  2  0  0  0  0  0  0  0  0  0
   11.6924   -9.8937  -16.8115 C   0  0  0  0  0  0  0  0  0  0  0  0
   12.6832   -9.9943  -16.0973 O   0  0  0  0  0  0  0  0  0  0  0  0
   11.7564  -10.3690  -17.9525 O   0  0  0  0  0  0  0  0  0  0  0  0
    9.1565   -9.9365  -16.6787 C   0  0  0  0  0  0  0  0  0  0  0  0
    8.3302  -10.5728  -15.5303 C   0  0  0  0  0  0  0  0  0  0  0  0
    6.7788  -11.4816  -15.9436 S   0  0  2  0  0  0  0  0  0  0  0  0
    6.2086  -11.9810  -14.3051 C   0  0  0  0  0  0  0  0  0  0  0  0
    7.3702  -13.0734  -16.5587 C   0  0  0  0  0  0  0  0  0  0  0  0
    6.2256  -13.8221  -17.2286 C   0  0  1  0  0  0  0  0  0  0  0  0
    5.6336  -13.0826  -18.2860 O   0  0  0  0  0  0  0  0  0  0  0  0
    6.6616  -15.1042  -17.8856 C   0  0  1  0  0  0  0  0  0  0  0  0
    6.8177  -16.1089  -16.9252 O   0  0  0  0  0  0  0  0  0  0  0  0
    5.4959  -15.3500  -18.8177 C   0  0  1  0  0  0  0  0  0  0  0  0
    4.4342  -15.9665  -18.1179 O   0  0  0  0  0  0  0  0  0  0  0  0
    5.0612  -13.9528  -19.2460 C   0  0  2  0  0  0  0  0  0  0  0  0
    5.4442  -13.5704  -20.6328 N   0  0  0  0  0  0  0  0  0  0  0  0
    4.9092  -14.1028  -21.7788 C   0  0  0  0  0  0  0  0  0  0  0  0
    5.4908  -13.5217  -22.8518 N   0  0  0  0  0  0  0  0  0  0  0  0
    6.3851  -12.6176  -22.4194 C   0  0  0  0  0  0  0  0  0  0  0  0
    7.2333  -11.7520  -23.0930 C   0  0  0  0  0  0  0  0  0  0  0  0
    7.2472  -11.7243  -24.4191 N   0  0  0  0  0  0  0  0  0  0  0  0
    8.0577  -10.9157  -22.3665 N   0  0  0  0  0  0  0  0  0  0  0  0
    8.0466  -10.9271  -20.9774 C   0  0  0  0  0  0  0  0  0  0  0  0
    7.1914  -11.7914  -20.3244 N   0  0  0  0  0  0  0  0  0  0  0  0
    6.3758  -12.6308  -21.0268 C   0  0  0  0  0  0  0  0  0  0  0  0
  2  3  1  6  0  0  0
  2  6  1  0  0  0  0
  2  1  1  0  0  0  0
  4  3  2  0  0  0  0
  5  3  1  0  0  0  0
  6  7  2  0  0  0  0
  8  7  1  1  0  0  0
  8  9  1  0  0  0  0
  8 10  1  0  0  0  0
 11 10  1  6  0  0  0
 11 13  1  0  0  0  0
 12 11  1  0  0  0  0
 12 17  1  0  0  0  0
 13 14  1  1  0  0  0
 13 15  1  0  0  0  0
 15 16  1  1  0  0  0
 17 18  1  6  0  0  0
 17 15  1  0  0  0  0
 18 19  1  0  0  0  0
 20 19  2  0  0  0  0
 21 27  2  0  0  0  0
 21 20  1  0  0  0  0
 22 21  1  0  0  0  0
 23 22  1  0  0  0  0
 24 22  2  0  0  0  0
 24 25  1  0  0  0  0
 25 26  2  0  0  0  0
 26 27  1  0  0  0  0
 27 18  1  0  0  0  0
M  END
>  <CHROM.1>
94.80095688,-121.77682199,-179.07235624,-167.51672630,57.11872792,-170.69684388
7.45005627,-12.25557060,-18.65177114,-0.59580517,-0.77207662,-1.44188613

>  <Name>
lig.pdb

>  <RI>
0

>  <Rbt.Current_Directory>
/home/itssahil/PROJECTS/Mol_Feturizer/New_Systems/rnas/4b5r

>  <Rbt.Executable>
rbdock ($Id: //depot/dev/client3/rdock/2013.1/src/exe/rbdock.cxx#4 $)

>  <Rbt.Library>
libRbt.so (2013.1, Build901 2013/11/27)

>  <Rbt.Parameter_File>
/export/apps/rDock/src/rDock_2013.1_src/data/scripts/dock_solv.prm

>  <Rbt.Receptor>
prm/blind_docking_60.prm

>  <SCORE>
-13.7042

>  <SCORE.INTER>
-12.4258

>  <SCORE.INTER.CONST>
1

>  <SCORE.INTER.POLAR>
0

>  <SCORE.INTER.ROT>
6

>  <SCORE.INTER.SOLV>
19.7148

>  <SCORE.INTER.VDW>
-22.4555

>  <SCORE.INTER.norm>
-0.460215

>  <SCORE.INTRA>
-1.27834

>  <SCORE.INTRA.DIHEDRAL>
-1.648

>  <SCORE.INTRA.DIHEDRAL.0>
10.2917

>  <SCORE.INTRA.POLAR>
0

>  <SCORE.INTRA.POLAR.0>
0

>  <SCORE.INTRA.REPUL>
0

>  <SCORE.INTRA.REPUL.0>
0

>  <SCORE.INTRA.SOLV>
-2.96391

>  <SCORE.INTRA.SOLV.lig_0>
-39.6315

>  <SCORE.INTRA.VDW>
1.02761

>  <SCORE.INTRA.VDW.0>
-4.02152

>  <SCORE.INTRA.norm>
-0.047346

>  <SCORE.RESTR>
0

>  <SCORE.RESTR.CAVITY>
0

>  <SCORE.RESTR.norm>
0

>  <SCORE.SYSTEM>
0

>  <SCORE.SYSTEM.CONST>
0

>  <SCORE.SYSTEM.DIHEDRAL>
0

>  <SCORE.SYSTEM.SOLV>
0

>  <SCORE.SYSTEM.norm>
0

>  <SCORE.heavy>
27

>  <SCORE.norm>
-0.507561

>  <RMSD>
12.487

$$$$
lig.pdb
 OpenBabel11021811493D
libRbt.so/2013.1/901 2013/11/27
 27 29  0  0  0  0  0  0  0  0999 V2000
    4.0360   -8.1133  -18.2151 N   0  0  0  0  0  0  0  0  0  0  0  0
    2.9841   -7.2838  -18.8780 C   0  0  2  0  0  0  0  0  0  0  0  0
    1.6378   -7.5622  -18.2162 C   0  0  0  0  0  0  0  0  0  0  0  0
    1.4935   -8.5755  -17.5423 O   0  0  0  0  0  0  0  0  0  0  0  0
    0.6648   -6.8059  -18.3316 O   0  0  0  0  0  0  0  0  0  0  0  0
    2.9191   -7.4721  -20.4071 C   0  0  0  0  0  0  0  0  0  0  0  0
    3.6995   -8.6767  -20.9959 C   0  0  0  0  0  0  0  0  0  0  0  0
    3.6689   -8.9557  -22.8193 S   0  0  2  0  0  0  0  0  0  0  0  0
    1.9249   -8.6787  -23.1949 C   0  0  0  0  0  0  0  0  0  0  0  0
    3.7322  -10.7539  -22.9747 C   0  0  0  0  0  0  0  0  0  0  0  0
    5.1034  -11.2583  -22.5450 C   0  0  1  0  0  0  0  0  0  0  0  0
    5.4224  -10.9021  -21.2083 O   0  0  0  0  0  0  0  0  0  0  0  0
    5.2109  -12.7596  -22.5533 C   0  0  1  0  0  0  0  0  0  0  0  0
    5.3994  -13.2218  -23.8597 O   0  0  0  0  0  0  0  0  0  0  0  0
    6.4251  -12.9568  -21.6729 C   0  0  1  0  0  0  0  0  0  0  0  0
    7.6073  -12.7798  -22.4266 O   0  0  0  0  0  0  0  0  0  0  0  0
    6.3228  -11.8378  -20.6424 C   0  0  2  0  0  0  0  0  0  0  0  0
    5.8883  -12.2680  -19.2850 N   0  0  0  0  0  0  0  0  0  0  0  0
    5.7911  -11.4505  -18.1872 C   0  0  0  0  0  0  0  0  0  0  0  0
    5.3663  -12.1769  -17.1292 N   0  0  0  0  0  0  0  0  0  0  0  0
    5.1790  -13.4462  -17.5262 C   0  0  0  0  0  0  0  0  0  0  0  0
    4.7477  -14.5782  -16.8516 C   0  0  0  0  0  0  0  0  0  0  0  0
    4.4298  -14.5113  -15.5655 N   0  0  0  0  0  0  0  0  0  0  0  0
    4.6474  -15.7731  -17.5364 N   0  0  0  0  0  0  0  0  0  0  0  0
    4.9677  -15.8555  -18.8856 C   0  0  0  0  0  0  0  0  0  0  0  0
    5.3896  -14.7171  -19.5417 N   0  0  0  0  0  0  0  0  0  0  0  0
    5.5025  -13.5296  -18.8782 C   0  0  0  0  0  0  0  0  0  0  0  0
  2  3  1  1  0  0  0
  2  6  1  0  0  0  0
  2  1  1  0  0  0  0
  4  3  2  0  0  0  0
  5  3  1  0  0  0  0
  6  7  2  0  0  0  0
  8  7  1  1  0  0  0
  8  9  1  0  0  0  0
  8 10  1  0  0  0  0
 11 10  1  1  0  0  0
 11 13  1  0  0  0  0
 12 11  1  0  0  0  0
 12 17  1  0  0  0  0
 13 14  1  6  0  0  0
 13 15  1  0  0  0  0
 15 16  1  6  0  0  0
 17 18  1  1  0  0  0
 17 15  1  0  0  0  0
 18 19  1  0  0  0  0
 20 19  2  0  0  0  0
 21 27  2  0  0  0  0
 21 20  1  0  0  0  0
 22 21  1  0  0  0  0
 23 22  1  0  0  0  0
 24 22  2  0  0  0  0
 24 25  1  0  0  0  0
 25 26  2  0  0  0  0
 26 27  1  0  0  0  0
 27 18  1  0  0  0  0
M  END
>  <CHROM.1>
-18.06697603,12.83851216,-43.48130623,-69.33163765,58.60029215,-63.99407095
4.39433018,-11.21314655,-20.03948304,2.55302514,1.03255710,-1.12882472

>  <Name>
lig.pdb

>  <RI>
0

>  <Rbt.Current_Directory>
/home/itssahil/PROJECTS/Mol_Feturizer/New_Systems/rnas/4b5r

>  <Rbt.Executable>
rbdock ($Id: //depot/dev/client3/rdock/2013.1/src/exe/rbdock.cxx#4 $)

>  <Rbt.Library>
libRbt.so (2013.1, Build901 2013/11/27)

>  <Rbt.Parameter_File>
/export/apps/rDock/src/rDock_2013.1_src/data/scripts/dock_solv.prm

>  <Rbt.Receptor>
prm/blind_docking_80.prm

>  <SCORE>
-10.1179

>  <SCORE.INTER>
-9.67692

>  <SCORE.INTER.CONST>
1

>  <SCORE.INTER.POLAR>
0

>  <SCORE.INTER.ROT>
6

>  <SCORE.INTER.SOLV>
15.6007

>  <SCORE.INTER.VDW>
-19.2515

>  <SCORE.INTER.norm>
-0.358405

>  <SCORE.INTRA>
-0.441003

>  <SCORE.INTRA.DIHEDRAL>
-3.18442

>  <SCORE.INTRA.DIHEDRAL.0>
10.2917

>  <SCORE.INTRA.POLAR>
0

>  <SCORE.INTRA.POLAR.0>
0

>  <SCORE.INTRA.REPUL>
0

>  <SCORE.INTRA.REPUL.0>
0

>  <SCORE.INTRA.SOLV>
-1.57966

>  <SCORE.INTRA.SOLV.lig_0>
-39.6315

>  <SCORE.INTRA.VDW>
1.94104

>  <SCORE.INTRA.VDW.0>
-4.02152

>  <SCORE.INTRA.norm>
-0.0163335

>  <SCORE.RESTR>
0

>  <SCORE.RESTR.CAVITY>
0

>  <SCORE.RESTR.norm>
0

>  <SCORE.SYSTEM>
0

>  <SCORE.SYSTEM.CONST>
0

>  <SCORE.SYSTEM.DIHEDRAL>
0

>  <SCORE.SYSTEM.SOLV>
0

>  <SCORE.SYSTEM.norm>
0

>  <SCORE.heavy>
27

>  <SCORE.norm>
-0.374738

>  <RMSD>
12.546

$$$$
lig.pdb
 OpenBabel11021811493D
libRbt.so/2013.1/901 2013/11/27
 27 29  0  0  0  0  0  0  0  0999 V2000
    2.8966   -7.6410  -20.1829 N   0  0  0  0  0  0  0  0  0  0  0  0
    3.0048   -8.5567  -19.0066 C   0  0  2  0  0  0  0  0  0  0  0  0
    2.5907   -7.8023  -17.7466 C   0  0  0  0  0  0  0  0  0  0  0  0
    1.4606   -7.9517  -17.2967 O   0  0  0  0  0  0  0  0  0  0  0  0
    3.3496   -7.0294  -17.1480 O   0  0  0  0  0  0  0  0  0  0  0  0
    4.3950   -9.2061  -18.8530 C   0  0  0  0  0  0  0  0  0  0  0  0
    5.2968   -9.2315  -20.1150 C   0  0  0  0  0  0  0  0  0  0  0  0
    6.9703   -9.9999  -20.0016 S   0  0  2  0  0  0  0  0  0  0  0  0
    7.9762   -8.5930  -19.4836 C   0  0  0  0  0  0  0  0  0  0  0  0
    7.4947  -10.1313  -21.7248 C   0  0  0  0  0  0  0  0  0  0  0  0
    6.7922  -11.3094  -22.3867 C   0  0  1  0  0  0  0  0  0  0  0  0
    7.0545  -12.5407  -21.7306 O   0  0  0  0  0  0  0  0  0  0  0  0
    5.2917  -11.1969  -22.3557 C   0  0  1  0  0  0  0  0  0  0  0  0
    4.8537  -10.3175  -23.3510 O   0  0  0  0  0  0  0  0  0  0  0  0
    4.8991  -12.6340  -22.6187 C   0  0  1  0  0  0  0  0  0  0  0  0
    4.9384  -12.9037  -24.0053 O   0  0  0  0  0  0  0  0  0  0  0  0
    5.9849  -13.4490  -21.9249 C   0  0  2  0  0  0  0  0  0  0  0  0
    5.5714  -14.0932  -20.6481 N   0  0  0  0  0  0  0  0  0  0  0  0
    5.2012  -15.4069  -20.5060 C   0  0  0  0  0  0  0  0  0  0  0  0
    4.8914  -15.6432  -19.2116 N   0  0  0  0  0  0  0  0  0  0  0  0
    5.0633  -14.5083  -18.5140 C   0  0  0  0  0  0  0  0  0  0  0  0
    4.8984  -14.2079  -17.1705 C   0  0  0  0  0  0  0  0  0  0  0  0
    4.5001  -15.1435  -16.3186 N   0  0  0  0  0  0  0  0  0  0  0  0
    5.1597  -12.9255  -16.7301 N   0  0  0  0  0  0  0  0  0  0  0  0
    5.5867  -11.9384  -17.6093 C   0  0  0  0  0  0  0  0  0  0  0  0
    5.7508  -12.2576  -18.9418 N   0  0  0  0  0  0  0  0  0  0  0  0
    5.4890  -13.5180  -19.3958 C   0  0  0  0  0  0  0  0  0  0  0  0
  2  3  1  1  0  0  0
  2  6  1  0  0  0  0
  2  1  1  0  0  0  0
  4  3  2  0  0  0  0
  5  3  1  0  0  0  0
  6  7  2  0  0  0  0
  8  7  1  6  0  0  0
  8  9  1  0  0  0  0
  8 10  1  0  0  0  0
 11 10  1  1  0  0  0
 11 13  1  0  0  0  0
 12 11  1  0  0  0  0
 12 17  1  0  0  0  0
 13 14  1  6  0  0  0
 13 15  1  0  0  0  0
 15 16  1  6  0  0  0
 17 18  1  1  0  0  0
 17 15  1  0  0  0  0
 18 19  1  0  0  0  0
 20 19  2  0  0  0  0
 21 27  2  0  0  0  0
 21 20  1  0  0  0  0
 22 21  1  0  0  0  0
 23 22  1  0  0  0  0
 24 22  2  0  0  0  0
 24 25  1  0  0  0  0
 25 26  2  0  0  0  0
 26 27  1  0  0  0  0
 27 18  1  0  0  0  0
M  END
>  <CHROM.1>
99.48019773,-19.93435064,-88.77144262,-77.23923714,-58.50882253,-141.04725539
5.17309384,-11.35616663,-19.85969526,-2.39318430,-1.13875656,2.71298841

>  <Name>
lig.pdb

>  <RI>
0

>  <Rbt.Current_Directory>
/home/itssahil/PROJECTS/Mol_Feturizer/New_Systems/rnas/4b5r

>  <Rbt.Executable>
rbdock ($Id: //depot/dev/client3/rdock/2013.1/src/exe/rbdock.cxx#4 $)

>  <Rbt.Library>
libRbt.so (2013.1, Build901 2013/11/27)

>  <Rbt.Parameter_File>
/export/apps/rDock/src/rDock_2013.1_src/data/scripts/dock_solv.prm

>  <Rbt.Receptor>
prm/blind_docking_80.prm

>  <SCORE>
-13.1578

>  <SCORE.INTER>
-12.4503

>  <SCORE.INTER.CONST>
1

>  <SCORE.INTER.POLAR>
0

>  <SCORE.INTER.ROT>
6

>  <SCORE.INTER.SOLV>
16.2174

>  <SCORE.INTER.VDW>
-21.306

>  <SCORE.INTER.norm>
-0.461124

>  <SCORE.INTRA>
-0.707416

>  <SCORE.INTRA.DIHEDRAL>
-1.57207

>  <SCORE.INTRA.DIHEDRAL.0>
10.2917

>  <SCORE.INTRA.POLAR>
0

>  <SCORE.INTRA.POLAR.0>
0

>  <SCORE.INTRA.REPUL>
0

>  <SCORE.INTRA.REPUL.0>
0

>  <SCORE.INTRA.SOLV>
-1.05311

>  <SCORE.INTRA.SOLV.lig_0>
-39.6315

>  <SCORE.INTRA.VDW>
0.605176

>  <SCORE.INTRA.VDW.0>
-4.02152

>  <SCORE.INTRA.norm>
-0.0262006

>  <SCORE.RESTR>
0

>  <SCORE.RESTR.CAVITY>
0

>  <SCORE.RESTR.norm>
0

>  <SCORE.SYSTEM>
0

>  <SCORE.SYSTEM.CONST>
0

>  <SCORE.SYSTEM.DIHEDRAL>
0

>  <SCORE.SYSTEM.SOLV>
0

>  <SCORE.SYSTEM.norm>
0

>  <SCORE.heavy>
27

>  <SCORE.norm>
-0.487324

>  <RMSD>
12.573

$$$$
lig.pdb
 OpenBabel11021811493D
libRbt.so/2013.1/901 2013/11/27
 27 29  0  0  0  0  0  0  0  0999 V2000
    3.1686   -6.5602  -21.7655 N   0  0  0  0  0  0  0  0  0  0  0  0
    3.4232   -5.5559  -20.6883 C   0  0  2  0  0  0  0  0  0  0  0  0
    3.7897   -4.2198  -21.3277 C   0  0  0  0  0  0  0  0  0  0  0  0
    4.2807   -3.3340  -20.6377 O   0  0  0  0  0  0  0  0  0  0  0  0
    3.6084   -3.9788  -22.5281 O   0  0  0  0  0  0  0  0  0  0  0  0
    4.4796   -6.0058  -19.6590 C   0  0  0  0  0  0  0  0  0  0  0  0
    5.3315   -7.2479  -20.0305 C   0  0  0  0  0  0  0  0  0  0  0  0
    6.6091   -7.8432  -18.8402 S   0  0  2  0  0  0  0  0  0  0  0  0
    7.1804   -6.2891  -18.1207 C   0  0  0  0  0  0  0  0  0  0  0  0
    8.0241   -8.2293  -19.8941 C   0  0  0  0  0  0  0  0  0  0  0  0
    7.8958   -9.6509  -20.4252 C   0  0  1  0  0  0  0  0  0  0  0  0
    8.0949  -10.6307  -19.4175 O   0  0  0  0  0  0  0  0  0  0  0  0
    6.5243   -9.9601  -20.9627 C   0  0  1  0  0  0  0  0  0  0  0  0
    6.3755   -9.4190  -22.2437 O   0  0  0  0  0  0  0  0  0  0  0  0
    6.5575  -11.4725  -20.9573 C   0  0  1  0  0  0  0  0  0  0  0  0
    7.2147  -11.9494  -22.1138 O   0  0  0  0  0  0  0  0  0  0  0  0
    7.3954  -11.8216  -19.7323 C   0  0  2  0  0  0  0  0  0  0  0  0
    6.6246  -12.3318  -18.5653 N   0  0  0  0  0  0  0  0  0  0  0  0
    6.3497  -11.6208  -17.4243 C   0  0  0  0  0  0  0  0  0  0  0  0
    5.6312  -12.3955  -16.5810 N   0  0  0  0  0  0  0  0  0  0  0  0
    5.4299  -13.5903  -17.1605 C   0  0  0  0  0  0  0  0  0  0  0  0
    4.7577  -14.7275  -16.7390 C   0  0  0  0  0  0  0  0  0  0  0  0
    4.1599  -14.7523  -15.5551 N   0  0  0  0  0  0  0  0  0  0  0  0
    4.7134  -15.8301  -17.5691 N   0  0  0  0  0  0  0  0  0  0  0  0
    5.3267  -15.8147  -18.8154 C   0  0  0  0  0  0  0  0  0  0  0  0
    5.9860  -14.6719  -19.2202 N   0  0  0  0  0  0  0  0  0  0  0  0
    6.0469  -13.5758  -18.4089 C   0  0  0  0  0  0  0  0  0  0  0  0
  2  3  1  6  0  0  0
  2  6  1  0  0  0  0
  2  1  1  0  0  0  0
  4  3  2  0  0  0  0
  5  3  1  0  0  0  0
  6  7  2  0  0  0  0
  8  7  1  6  0  0  0
  8  9  1  0  0  0  0
  8 10  1  0  0  0  0
 11 10  1  1  0  0  0
 11 13  1  0  0  0  0
 12 11  1  0  0  0  0
 12 17  1  0  0  0  0
 13 14  1  6  0  0  0
 13 15  1  0  0  0  0
 15 16  1  6  0  0  0
 17 18  1  1  0  0  0
 17 15  1  0  0  0  0
 18 19  1  0  0  0  0
 20 19  2  0  0  0  0
 21 27  2  0  0  0  0
 21 20  1  0  0  0  0
 22 21  1  0  0  0  0
 23 22  1  0  0  0  0
 24 22  2  0  0  0  0
 24 25  1  0  0  0  0
 25 26  2  0  0  0  0
 26 27  1  0  0  0  0
 27 18  1  0  0  0  0
M  END
>  <CHROM.1>
-166.21851309,12.69094295,-34.46240219,-86.15482759,-70.74746722,14.21789040
5.79944401,-9.93154153,-19.48822496,1.72453884,0.84615759,-0.43799318

>  <Name>
lig.pdb

>  <RI>
0

>  <Rbt.Current_Directory>
/home/itssahil/PROJECTS/Mol_Feturizer/New_Systems/rnas/4b5r

>  <Rbt.Executable>
rbdock ($Id: //depot/dev/client3/rdock/2013.1/src/exe/rbdock.cxx#4 $)

>  <Rbt.Library>
libRbt.so (2013.1, Build901 2013/11/27)

>  <Rbt.Parameter_File>
/export/apps/rDock/src/rDock_2013.1_src/data/scripts/dock_solv.prm

>  <Rbt.Receptor>
prm/blind_docking_60.prm

>  <SCORE>
-10.4773

>  <SCORE.INTER>
-10.9821

>  <SCORE.INTER.CONST>
1

>  <SCORE.INTER.POLAR>
0

>  <SCORE.INTER.ROT>
6

>  <SCORE.INTER.SOLV>
12.2

>  <SCORE.INTER.VDW>
-18.9881

>  <SCORE.INTER.norm>
-0.406744

>  <SCORE.INTRA>
0.504804

>  <SCORE.INTRA.DIHEDRAL>
-1.85878

>  <SCORE.INTRA.DIHEDRAL.0>
10.2917

>  <SCORE.INTRA.POLAR>
0

>  <SCORE.INTRA.POLAR.0>
0

>  <SCORE.INTRA.REPUL>
0

>  <SCORE.INTRA.REPUL.0>
0

>  <SCORE.INTRA.SOLV>
-2.19691

>  <SCORE.INTRA.SOLV.lig_0>
-39.6315

>  <SCORE.INTRA.VDW>
2.53265

>  <SCORE.INTRA.VDW.0>
-4.02152

>  <SCORE.INTRA.norm>
0.0186965

>  <SCORE.RESTR>
0

>  <SCORE.RESTR.CAVITY>
0

>  <SCORE.RESTR.norm>
0

>  <SCORE.SYSTEM>
0

>  <SCORE.SYSTEM.CONST>
0

>  <SCORE.SYSTEM.DIHEDRAL>
0

>  <SCORE.SYSTEM.SOLV>
0

>  <SCORE.SYSTEM.norm>
0

>  <SCORE.heavy>
27

>  <SCORE.norm>
-0.388048

>  <RMSD>
12.682

$$$$
lig.pdb
 OpenBabel11021811493D
libRbt.so/2013.1/901 2013/11/27
 27 29  0  0  0  0  0  0  0  0999 V2000
    5.8657   -6.3955  -19.9112 N   0  0  0  0  0  0  0  0  0  0  0  0
    5.1251   -7.3077  -20.8350 C   0  0  2  0  0  0  0  0  0  0  0  0
    3.6398   -7.2723  -20.4873 C   0  0  0  0  0  0  0  0  0  0  0  0
    2.9528   -6.3307  -20.8655 O   0  0  0  0  0  0  0  0  0  0  0  0
    3.0846   -8.1594  -19.8265 O   0  0  0  0  0  0  0  0  0  0  0  0
    5.6735   -8.7488  -20.8538 C   0  0  0  0  0  0  0  0  0  0  0  0
    7.1458   -8.9414  -20.4045 C   0  0  0  0  0  0  0  0  0  0  0  0
    7.8664  -10.6397  -20.4096 S   0  0  2  0  0  0  0  0  0  0  0  0
    7.7477  -11.0741  -22.1580 C   0  0  0  0  0  0  0  0  0  0  0  0
    6.5361  -11.6673  -19.7493 C   0  0  0  0  0  0  0  0  0  0  0  0
    6.4630  -11.5030  -18.2370 C   0  0  1  0  0  0  0  0  0  0  0  0
    7.6694  -11.8754  -17.5879 O   0  0  0  0  0  0  0  0  0  0  0  0
    6.2476  -10.0769  -17.8066 C   0  0  1  0  0  0  0  0  0  0  0  0
    4.9018   -9.7267  -17.9558 O   0  0  0  0  0  0  0  0  0  0  0  0
    6.6841  -10.1536  -16.3602 C   0  0  1  0  0  0  0  0  0  0  0  0
    5.6302  -10.6474  -15.5588 O   0  0  0  0  0  0  0  0  0  0  0  0
    7.8191  -11.1715  -16.3679 C   0  0  2  0  0  0  0  0  0  0  0  0
    9.1846  -10.5948  -16.2294 N   0  0  0  0  0  0  0  0  0  0  0  0
   10.3098  -11.2965  -15.8760 C   0  0  0  0  0  0  0  0  0  0  0  0
   11.3675  -10.4550  -15.8497 N   0  0  0  0  0  0  0  0  0  0  0  0
   10.9472   -9.2250  -16.1881 C   0  0  0  0  0  0  0  0  0  0  0  0
   11.6155   -8.0177  -16.3231 C   0  0  0  0  0  0  0  0  0  0  0  0
   12.9216   -7.9465  -16.1025 N   0  0  0  0  0  0  0  0  0  0  0  0
   10.9061   -6.8932  -16.6957 N   0  0  0  0  0  0  0  0  0  0  0  0
    9.5399   -6.9551  -16.9393 C   0  0  0  0  0  0  0  0  0  0  0  0
    8.8928   -8.1668  -16.8055 N   0  0  0  0  0  0  0  0  0  0  0  0
    9.5770   -9.2865  -16.4299 C   0  0  0  0  0  0  0  0  0  0  0  0
  2  3  1  1  0  0  0
  2  6  1  0  0  0  0
  2  1  1  0  0  0  0
  4  3  2  0  0  0  0
  5  3  1  0  0  0  0
  6  7  2  0  0  0  0
  8  7  1  6  0  0  0
  8  9  1  0  0  0  0
  8 10  1  0  0  0  0
 11 10  1  6  0  0  0
 11 13  1  0  0  0  0
 12 11  1  0  0  0  0
 12 17  1  0  0  0  0
 13 14  1  1  0  0  0
 13 15  1  0  0  0  0
 15 16  1  1  0  0  0
 17 18  1  6  0  0  0
 17 15  1  0  0  0  0
 18 19  1  0  0  0  0
 20 19  2  0  0  0  0
 21 27  2  0  0  0  0
 21 20  1  0  0  0  0
 22 21  1  0  0  0  0
 23 22  1  0  0  0  0
 24 22  2  0  0  0  0
 24 25  1  0  0  0  0
 25 26  2  0  0  0  0
 26 27  1  0  0  0  0
 27 18  1  0  0  0  0
M  END
>  <CHROM.1>
78.63881825,-22.74131211,61.50776924,-77.37347738,-59.63842645,-77.87546173
7.56347539,-9.35862941,-18.24150945,-2.88986240,0.56433046,2.92693709

>  <Name>
lig.pdb

>  <RI>
0

>  <Rbt.Current_Directory>
/home/itssahil/PROJECTS/Mol_Feturizer/New_Systems/rnas/4b5r

>  <Rbt.Executable>
rbdock ($Id: //depot/dev/client3/rdock/2013.1/src/exe/rbdock.cxx#4 $)

>  <Rbt.Library>
libRbt.so (2013.1, Build901 2013/11/27)

>  <Rbt.Parameter_File>
/export/apps/rDock/src/rDock_2013.1_src/data/scripts/dock_solv.prm

>  <Rbt.Receptor>
prm/blind_docking_60.prm

>  <SCORE>
-12.3437

>  <SCORE.INTER>
-12.3403

>  <SCORE.INTER.CONST>
1

>  <SCORE.INTER.POLAR>
0

>  <SCORE.INTER.ROT>
6

>  <SCORE.INTER.SOLV>
15.1291

>  <SCORE.INTER.VDW>
-20.8699

>  <SCORE.INTER.norm>
-0.45705

>  <SCORE.INTRA>
-0.0033759

>  <SCORE.INTRA.DIHEDRAL>
-0.671659

>  <SCORE.INTRA.DIHEDRAL.0>
10.2917

>  <SCORE.INTRA.POLAR>
0

>  <SCORE.INTRA.POLAR.0>
0

>  <SCORE.INTRA.REPUL>
0

>  <SCORE.INTRA.REPUL.0>
0

>  <SCORE.INTRA.SOLV>
-1.10038

>  <SCORE.INTRA.SOLV.lig_0>
-39.6315

>  <SCORE.INTRA.VDW>
0.882642

>  <SCORE.INTRA.VDW.0>
-4.02152

>  <SCORE.INTRA.norm>
-0.000125034

>  <SCORE.RESTR>
0

>  <SCORE.RESTR.CAVITY>
0

>  <SCORE.RESTR.norm>
0

>  <SCORE.SYSTEM>
0

>  <SCORE.SYSTEM.CONST>
0

>  <SCORE.SYSTEM.DIHEDRAL>
0

>  <SCORE.SYSTEM.SOLV>
0

>  <SCORE.SYSTEM.norm>
0

>  <SCORE.heavy>
27

>  <SCORE.norm>
-0.457175

>  <RMSD>
12.711

$$$$
lig.pdb
 OpenBabel11021811493D
libRbt.so/2013.1/901 2013/11/27
 27 29  0  0  0  0  0  0  0  0999 V2000
    4.4526  -11.0363  -23.4596 N   0  0  0  0  0  0  0  0  0  0  0  0
    5.8645  -11.5258  -23.4863 C   0  0  2  0  0  0  0  0  0  0  0  0
    5.8636  -13.0465  -23.6113 C   0  0  0  0  0  0  0  0  0  0  0  0
    6.6528  -13.5908  -24.3745 O   0  0  0  0  0  0  0  0  0  0  0  0
    5.0889  -13.7711  -22.9736 O   0  0  0  0  0  0  0  0  0  0  0  0
    6.7074  -11.0515  -22.2853 C   0  0  0  0  0  0  0  0  0  0  0  0
    5.9292  -10.5879  -21.0260 C   0  0  0  0  0  0  0  0  0  0  0  0
    6.8770  -10.0019  -19.5557 S   0  0  2  0  0  0  0  0  0  0  0  0
    7.5959   -8.4683  -20.1806 C   0  0  0  0  0  0  0  0  0  0  0  0
    8.3481  -11.0494  -19.5538 C   0  0  0  0  0  0  0  0  0  0  0  0
    9.2470  -10.6699  -18.3844 C   0  0  1  0  0  0  0  0  0  0  0  0
    9.7150   -9.3322  -18.4667 O   0  0  0  0  0  0  0  0  0  0  0  0
    8.5431  -10.7245  -17.0552 C   0  0  1  0  0  0  0  0  0  0  0  0
    8.4496  -12.0481  -16.6134 O   0  0  0  0  0  0  0  0  0  0  0  0
    9.4744   -9.8817  -16.2121 C   0  0  1  0  0  0  0  0  0  0  0  0
   10.5659  -10.6602  -15.7655 O   0  0  0  0  0  0  0  0  0  0  0  0
    9.9870   -8.8170  -17.1755 C   0  0  2  0  0  0  0  0  0  0  0  0
    9.3995   -7.4619  -16.9889 N   0  0  0  0  0  0  0  0  0  0  0  0
   10.0721   -6.2767  -17.1501 C   0  0  0  0  0  0  0  0  0  0  0  0
    9.2287   -5.2502  -16.9005 N   0  0  0  0  0  0  0  0  0  0  0  0
    8.0217   -5.7509  -16.5898 C   0  0  0  0  0  0  0  0  0  0  0  0
    6.8184   -5.1441  -16.2638 C   0  0  0  0  0  0  0  0  0  0  0  0
    6.7245   -3.8216  -16.2223 N   0  0  0  0  0  0  0  0  0  0  0  0
    5.7188   -5.9331  -15.9894 N   0  0  0  0  0  0  0  0  0  0  0  0
    5.8003   -7.3190  -16.0386 C   0  0  0  0  0  0  0  0  0  0  0  0
    7.0049   -7.9049  -16.3705 N   0  0  0  0  0  0  0  0  0  0  0  0
    8.1040   -7.1404  -16.6366 C   0  0  0  0  0  0  0  0  0  0  0  0
  2  3  1  1  0  0  0
  2  6  1  0  0  0  0
  2  1  1  0  0  0  0
  4  3  2  0  0  0  0
  5  3  1  0  0  0  0
  6  7  2  0  0  0  0
  8  7  1  6  0  0  0
  8  9  1  0  0  0  0
  8 10  1  0  0  0  0
 11 10  1  6  0  0  0
 11 13  1  0  0  0  0
 12 11  1  0  0  0  0
 12 17  1  0  0  0  0
 13 14  1  1  0  0  0
 13 15  1  0  0  0  0
 15 16  1  6  0  0  0
 17 18  1  1  0  0  0
 17 15  1  0  0  0  0
 18 19  1  0  0  0  0
 20 19  2  0  0  0  0
 21 27  2  0  0  0  0
 21 20  1  0  0  0  0
 22 21  1  0  0  0  0
 23 22  1  0  0  0  0
 24 22  2  0  0  0  0
 24 25  1  0  0  0  0
 25 26  2  0  0  0  0
 26 27  1  0  0  0  0
 27 18  1  0  0  0  0
M  END
>  <CHROM.1>
137.24889855,20.28969325,67.87487014,179.54946057,-62.01197976,-96.62999407
7.61703908,-9.31784014,-18.79028494,1.91718375,0.76839833,-2.53609981

>  <Name>
lig.pdb

>  <RI>
0

>  <Rbt.Current_Directory>
/home/itssahil/PROJECTS/Mol_Feturizer/New_Systems/rnas/4b5r

>  <Rbt.Executable>
rbdock ($Id: //depot/dev/client3/rdock/2013.1/src/exe/rbdock.cxx#4 $)

>  <Rbt.Library>
libRbt.so (2013.1, Build901 2013/11/27)

>  <Rbt.Parameter_File>
/export/apps/rDock/src/rDock_2013.1_src/data/scripts/dock_solv.prm

>  <Rbt.Receptor>
prm/blind_docking_100.prm

>  <SCORE>
-13.8598

>  <SCORE.INTER>
-13.7107

>  <SCORE.INTER.CONST>
1

>  <SCORE.INTER.POLAR>
0

>  <SCORE.INTER.ROT>
6

>  <SCORE.INTER.SOLV>
14.575

>  <SCORE.INTER.VDW>
-21.5988

>  <SCORE.INTER.norm>
-0.507804

>  <SCORE.INTRA>
-0.149088

>  <SCORE.INTRA.DIHEDRAL>
-0.947159

>  <SCORE.INTRA.DIHEDRAL.0>
10.2917

>  <SCORE.INTRA.POLAR>
0

>  <SCORE.INTRA.POLAR.0>
0

>  <SCORE.INTRA.REPUL>
0

>  <SCORE.INTRA.REPUL.0>
0

>  <SCORE.INTRA.SOLV>
-1.79569

>  <SCORE.INTRA.SOLV.lig_0>
-39.6315

>  <SCORE.INTRA.VDW>
1.22234

>  <SCORE.INTRA.VDW.0>
-4.02152

>  <SCORE.INTRA.norm>
-0.00552177

>  <SCORE.RESTR>
0

>  <SCORE.RESTR.CAVITY>
0

>  <SCORE.RESTR.norm>
0

>  <SCORE.SYSTEM>
0

>  <SCORE.SYSTEM.CONST>
0

>  <SCORE.SYSTEM.DIHEDRAL>
0

>  <SCORE.SYSTEM.SOLV>
0

>  <SCORE.SYSTEM.norm>
0

>  <SCORE.heavy>
27

>  <SCORE.norm>
-0.513326

>  <RMSD>
12.769

$$$$
lig.pdb
 OpenBabel11021811493D
libRbt.so/2013.1/901 2013/11/27
 27 29  0  0  0  0  0  0  0  0999 V2000
    6.0407  -15.8199  -13.3862 N   0  0  0  0  0  0  0  0  0  0  0  0
    5.0235  -14.7249  -13.3986 C   0  0  2  0  0  0  0  0  0  0  0  0
    3.6354  -15.3346  -13.5708 C   0  0  0  0  0  0  0  0  0  0  0  0
    2.7935  -15.1782  -12.6942 O   0  0  0  0  0  0  0  0  0  0  0  0
    3.3122  -15.9954  -14.5661 O   0  0  0  0  0  0  0  0  0  0  0  0
    5.3023  -13.6323  -14.4504 C   0  0  0  0  0  0  0  0  0  0  0  0
    6.2797  -14.0007  -15.5973 C   0  0  0  0  0  0  0  0  0  0  0  0
    6.6620  -12.7367  -16.8857 S   0  0  2  0  0  0  0  0  0  0  0  0
    7.1223  -13.7797  -18.2856 C   0  0  0  0  0  0  0  0  0  0  0  0
    8.2941  -12.1265  -16.4107 C   0  0  0  0  0  0  0  0  0  0  0  0
    8.5755  -10.8083  -17.1197 C   0  0  1  0  0  0  0  0  0  0  0  0
    9.4996   -9.9943  -16.4133 O   0  0  0  0  0  0  0  0  0  0  0  0
    9.2130  -10.9877  -18.4713 C   0  0  1  0  0  0  0  0  0  0  0  0
    8.2457  -11.3427  -19.4169 O   0  0  0  0  0  0  0  0  0  0  0  0
    9.7834   -9.6048  -18.6960 C   0  0  1  0  0  0  0  0  0  0  0  0
    8.7806   -8.7380  -19.1861 O   0  0  0  0  0  0  0  0  0  0  0  0
   10.1993   -9.1434  -17.3037 C   0  0  2  0  0  0  0  0  0  0  0  0
   11.6652   -9.1619  -17.0446 N   0  0  0  0  0  0  0  0  0  0  0  0
   12.2591   -8.9259  -15.8303 C   0  0  0  0  0  0  0  0  0  0  0  0
   13.6004   -9.0253  -15.9655 N   0  0  0  0  0  0  0  0  0  0  0  0
   13.8827   -9.3298  -17.2428 C   0  0  0  0  0  0  0  0  0  0  0  0
   15.0814   -9.5511  -17.9037 C   0  0  0  0  0  0  0  0  0  0  0  0
   16.2319   -9.4757  -17.2478 N   0  0  0  0  0  0  0  0  0  0  0  0
   15.0617   -9.8567  -19.2501 N   0  0  0  0  0  0  0  0  0  0  0  0
   13.8637   -9.9485  -19.9473 C   0  0  0  0  0  0  0  0  0  0  0  0
   12.6804   -9.7307  -19.2714 N   0  0  0  0  0  0  0  0  0  0  0  0
   12.6818   -9.4193  -17.9424 C   0  0  0  0  0  0  0  0  0  0  0  0
  2  3  1  6  0  0  0
  2  6  1  0  0  0  0
  2  1  1  0  0  0  0
  4  3  2  0  0  0  0
  5  3  1  0  0  0  0
  6  7  2  0  0  0  0
  8  7  1  1  0  0  0
  8  9  1  0  0  0  0
  8 10  1  0  0  0  0
 11 10  1  1  0  0  0
 11 13  1  0  0  0  0
 12 11  1  0  0  0  0
 12 17  1  0  0  0  0
 13 14  1  6  0  0  0
 13 15  1  0  0  0  0
 15 16  1  1  0  0  0
 17 18  1  6  0  0  0
 17 15  1  0  0  0  0
 18 19  1  0  0  0  0
 20 19  2  0  0  0  0
 21 27  2  0  0  0  0
 21 20  1  0  0  0  0
 22 21  1  0  0  0  0
 23 22  1  0  0  0  0
 24 22  2  0  0  0  0
 24 25  1  0  0  0  0
 25 26  2  0  0  0  0
 26 27  1  0  0  0  0
 27 18  1  0  0  0  0
M  END
>  <CHROM.1>
118.61904453,18.08924085,-154.65263608,-163.43445027,154.31488484,-53.34488488
9.23579812,-11.52250433,-16.79914539,-2.61394920,-0.36852121,-1.14799362

>  <Name>
lig.pdb

>  <RI>
0

>  <Rbt.Current_Directory>
/home/itssahil/PROJECTS/Mol_Feturizer/New_Systems/rnas/4b5r

>  <Rbt.Executable>
rbdock ($Id: //depot/dev/client3/rdock/2013.1/src/exe/rbdock.cxx#4 $)

>  <Rbt.Library>
libRbt.so (2013.1, Build901 2013/11/27)

>  <Rbt.Parameter_File>
/export/apps/rDock/src/rDock_2013.1_src/data/scripts/dock_solv.prm

>  <Rbt.Receptor>
prm/blind_docking_60.prm

>  <SCORE>
-13.9517

>  <SCORE.INTER>
-15.7862

>  <SCORE.INTER.CONST>
1

>  <SCORE.INTER.POLAR>
0

>  <SCORE.INTER.ROT>
6

>  <SCORE.INTER.SOLV>
16.4217

>  <SCORE.INTER.VDW>
-23.598

>  <SCORE.INTER.norm>
-0.584673

>  <SCORE.INTRA>
1.83442

>  <SCORE.INTRA.DIHEDRAL>
2.08517

>  <SCORE.INTRA.DIHEDRAL.0>
10.2917

>  <SCORE.INTRA.POLAR>
0

>  <SCORE.INTRA.POLAR.0>
0

>  <SCORE.INTRA.REPUL>
0

>  <SCORE.INTRA.REPUL.0>
0

>  <SCORE.INTRA.SOLV>
-2.25388

>  <SCORE.INTRA.SOLV.lig_0>
-39.6315

>  <SCORE.INTRA.VDW>
1.91877

>  <SCORE.INTRA.VDW.0>
-4.02152

>  <SCORE.INTRA.norm>
0.0679415

>  <SCORE.RESTR>
0

>  <SCORE.RESTR.CAVITY>
0

>  <SCORE.RESTR.norm>
0

>  <SCORE.SYSTEM>
0

>  <SCORE.SYSTEM.CONST>
0

>  <SCORE.SYSTEM.DIHEDRAL>
0

>  <SCORE.SYSTEM.SOLV>
0

>  <SCORE.SYSTEM.norm>
0

>  <SCORE.heavy>
27

>  <SCORE.norm>
-0.516731

>  <RMSD>
12.794

$$$$
lig.pdb
 OpenBabel11021811493D
libRbt.so/2013.1/901 2013/11/27
 27 29  0  0  0  0  0  0  0  0999 V2000
    7.6762  -11.4003  -23.4957 N   0  0  0  0  0  0  0  0  0  0  0  0
    6.8032  -11.0355  -22.3386 C   0  0  2  0  0  0  0  0  0  0  0  0
    7.2375   -9.6781  -21.7937 C   0  0  0  0  0  0  0  0  0  0  0  0
    8.3859   -9.5266  -21.3938 O   0  0  0  0  0  0  0  0  0  0  0  0
    6.4740   -8.7061  -21.7290 O   0  0  0  0  0  0  0  0  0  0  0  0
    6.7609  -12.1086  -21.2320 C   0  0  0  0  0  0  0  0  0  0  0  0
    7.3423  -11.7097  -19.8502 C   0  0  0  0  0  0  0  0  0  0  0  0
    7.3286  -12.9492  -18.4838 S   0  0  2  0  0  0  0  0  0  0  0  0
    5.5696  -13.3404  -18.3725 C   0  0  0  0  0  0  0  0  0  0  0  0
    7.5116  -11.9425  -16.9956 C   0  0  0  0  0  0  0  0  0  0  0  0
    8.9431  -11.4328  -16.8935 C   0  0  1  0  0  0  0  0  0  0  0  0
    9.2023  -10.3513  -17.7758 O   0  0  0  0  0  0  0  0  0  0  0  0
    9.2781  -10.8780  -15.5350 C   0  0  1  0  0  0  0  0  0  0  0  0
    9.5365  -11.9204  -14.6392 O   0  0  0  0  0  0  0  0  0  0  0  0
   10.5070  -10.0594  -15.8638 C   0  0  1  0  0  0  0  0  0  0  0  0
   11.6494  -10.8903  -15.9036 O   0  0  0  0  0  0  0  0  0  0  0  0
   10.2340   -9.5256  -17.2656 C   0  0  2  0  0  0  0  0  0  0  0  0
    9.8683   -8.0840  -17.3315 N   0  0  0  0  0  0  0  0  0  0  0  0
   10.5535   -7.0633  -16.7220 C   0  0  0  0  0  0  0  0  0  0  0  0
    9.9395   -5.8906  -16.9965 N   0  0  0  0  0  0  0  0  0  0  0  0
    8.8757   -6.1349  -17.7792 C   0  0  0  0  0  0  0  0  0  0  0  0
    7.9266   -5.2987  -18.3471 C   0  0  0  0  0  0  0  0  0  0  0  0
    7.9830   -3.9884  -18.1480 N   0  0  0  0  0  0  0  0  0  0  0  0
    6.9268   -5.8460  -19.1266 N   0  0  0  0  0  0  0  0  0  0  0  0
    6.8612   -7.2153  -19.3515 C   0  0  0  0  0  0  0  0  0  0  0  0
    7.8180   -8.0312  -18.7828 N   0  0  0  0  0  0  0  0  0  0  0  0
    8.8083   -7.5079  -18.0026 C   0  0  0  0  0  0  0  0  0  0  0  0
  2  3  1  1  0  0  0
  2  6  1  0  0  0  0
  2  1  1  0  0  0  0
  4  3  2  0  0  0  0
  5  3  1  0  0  0  0
  6  7  2  0  0  0  0
  8  7  1  6  0  0  0
  8  9  1  0  0  0  0
  8 10  1  0  0  0  0
 11 10  1  1  0  0  0
 11 13  1  0  0  0  0
 12 11  1  0  0  0  0
 12 17  1  0  0  0  0
 13 14  1  1  0  0  0
 13 15  1  0  0  0  0
 15 16  1  6  0  0  0
 17 18  1  1  0  0  0
 17 15  1  0  0  0  0
 18 19  1  0  0  0  0
 20 19  2  0  0  0  0
 21 27  2  0  0  0  0
 21 20  1  0  0  0  0
 22 21  1  0  0  0  0
 23 22  1  0  0  0  0
 24 22  2  0  0  0  0
 24 25  1  0  0  0  0
 25 26  2  0  0  0  0
 26 27  1  0  0  0  0
 27 18  1  0  0  0  0
M  END
>  <CHROM.1>
-58.78366512,115.54737916,-57.40079095,-73.40336273,76.77970272,168.74042616
8.33044779,-9.58061976,-18.51056136,2.26241497,1.06047449,2.95915500

>  <Name>
lig.pdb

>  <RI>
0

>  <Rbt.Current_Directory>
/home/itssahil/PROJECTS/Mol_Feturizer/New_Systems/rnas/4b5r

>  <Rbt.Executable>
rbdock ($Id: //depot/dev/client3/rdock/2013.1/src/exe/rbdock.cxx#4 $)

>  <Rbt.Library>
libRbt.so (2013.1, Build901 2013/11/27)

>  <Rbt.Parameter_File>
/export/apps/rDock/src/rDock_2013.1_src/data/scripts/dock_solv.prm

>  <Rbt.Receptor>
prm/blind_docking_100.prm

>  <SCORE>
-14.1293

>  <SCORE.INTER>
-14.4208

>  <SCORE.INTER.CONST>
1

>  <SCORE.INTER.POLAR>
0

>  <SCORE.INTER.ROT>
6

>  <SCORE.INTER.SOLV>
17.0269

>  <SCORE.INTER.VDW>
-22.8895

>  <SCORE.INTER.norm>
-0.534103

>  <SCORE.INTRA>
0.291469

>  <SCORE.INTRA.DIHEDRAL>
-2.23105

>  <SCORE.INTRA.DIHEDRAL.0>
10.2917

>  <SCORE.INTRA.POLAR>
0

>  <SCORE.INTRA.POLAR.0>
0

>  <SCORE.INTRA.REPUL>
0.208945

>  <SCORE.INTRA.REPUL.0>
0

>  <SCORE.INTRA.SOLV>
-1.71133

>  <SCORE.INTRA.SOLV.lig_0>
-39.6315

>  <SCORE.INTRA.VDW>
1.21794

>  <SCORE.INTRA.VDW.0>
-4.02152

>  <SCORE.INTRA.norm>
0.0107951

>  <SCORE.RESTR>
0

>  <SCORE.RESTR.CAVITY>
0

>  <SCORE.RESTR.norm>
0

>  <SCORE.SYSTEM>
0

>  <SCORE.SYSTEM.CONST>
0

>  <SCORE.SYSTEM.DIHEDRAL>
0

>  <SCORE.SYSTEM.SOLV>
0

>  <SCORE.SYSTEM.norm>
0

>  <SCORE.heavy>
27

>  <SCORE.norm>
-0.523308

>  <RMSD>
12.907

$$$$
lig.pdb
 OpenBabel11021811493D
libRbt.so/2013.1/901 2013/11/27
 27 29  0  0  0  0  0  0  0  0999 V2000
    8.0928  -16.1604  -12.9419 N   0  0  0  0  0  0  0  0  0  0  0  0
    7.3033  -16.3284  -14.1998 C   0  0  2  0  0  0  0  0  0  0  0  0
    7.5729  -17.7147  -14.7773 C   0  0  0  0  0  0  0  0  0  0  0  0
    7.1087  -18.0146  -15.8711 O   0  0  0  0  0  0  0  0  0  0  0  0
    8.2441  -18.5690  -14.1845 O   0  0  0  0  0  0  0  0  0  0  0  0
    7.5518  -15.2176  -15.2401 C   0  0  0  0  0  0  0  0  0  0  0  0
    6.3831  -14.2314  -15.5011 C   0  0  0  0  0  0  0  0  0  0  0  0
    6.6119  -12.8826  -16.7387 S   0  0  2  0  0  0  0  0  0  0  0  0
    6.9069  -13.8277  -18.2484 C   0  0  0  0  0  0  0  0  0  0  0  0
    8.2878  -12.2912  -16.4171 C   0  0  0  0  0  0  0  0  0  0  0  0
    8.5189  -10.9782  -17.1535 C   0  0  1  0  0  0  0  0  0  0  0  0
    9.3770  -10.0975  -16.4440 O   0  0  0  0  0  0  0  0  0  0  0  0
    9.2043  -11.1573  -18.4814 C   0  0  1  0  0  0  0  0  0  0  0  0
    8.2855  -11.5884  -19.4437 O   0  0  0  0  0  0  0  0  0  0  0  0
    9.7063   -9.7517  -18.7276 C   0  0  1  0  0  0  0  0  0  0  0  0
    8.6734   -8.9535  -19.2689 O   0  0  0  0  0  0  0  0  0  0  0  0
   10.0560   -9.2329  -17.3373 C   0  0  2  0  0  0  0  0  0  0  0  0
   11.5126   -9.1652  -17.0371 N   0  0  0  0  0  0  0  0  0  0  0  0
   12.0573   -8.8427  -15.8197 C   0  0  0  0  0  0  0  0  0  0  0  0
   13.4054   -8.8805  -15.9127 N   0  0  0  0  0  0  0  0  0  0  0  0
   13.7406   -9.2301  -17.1654 C   0  0  0  0  0  0  0  0  0  0  0  0
   14.9681   -9.4215  -17.7812 C   0  0  0  0  0  0  0  0  0  0  0  0
   16.0932   -9.2574  -17.0981 N   0  0  0  0  0  0  0  0  0  0  0  0
   15.0040   -9.7907  -19.1113 N   0  0  0  0  0  0  0  0  0  0  0  0
   13.8334   -9.9755  -19.8362 C   0  0  0  0  0  0  0  0  0  0  0  0
   12.6210   -9.7861  -19.2048 N   0  0  0  0  0  0  0  0  0  0  0  0
   12.5672   -9.4129  -17.8929 C   0  0  0  0  0  0  0  0  0  0  0  0
  2  3  1  6  0  0  0
  2  6  1  0  0  0  0
  2  1  1  0  0  0  0
  4  3  2  0  0  0  0
  5  3  1  0  0  0  0
  6  7  2  0  0  0  0
  8  7  1  1  0  0  0
  8  9  1  0  0  0  0
  8 10  1  0  0  0  0
 11 10  1  1  0  0  0
 11 13  1  0  0  0  0
 12 11  1  0  0  0  0
 12 17  1  0  0  0  0
 13 14  1  6  0  0  0
 13 15  1  0  0  0  0
 15 16  1  1  0  0  0
 17 18  1  1  0  0  0
 17 15  1  0  0  0  0
 18 19  1  0  0  0  0
 20 19  2  0  0  0  0
 21 27  2  0  0  0  0
 21 20  1  0  0  0  0
 22 21  1  0  0  0  0
 23 22  1  0  0  0  0
 24 22  2  0  0  0  0
 24 25  1  0  0  0  0
 25 26  2  0  0  0  0
 26 27  1  0  0  0  0
 27 18  1  0  0  0  0
M  END
>  <CHROM.1>
-173.90324370,-110.57052022,61.33734781,-167.74526543,146.34646068,-54.59231516
9.89333997,-11.98339299,-16.95422863,-2.26831396,-0.22291886,-0.56161449

>  <Name>
lig.pdb

>  <RI>
0

>  <Rbt.Current_Directory>
/home/itssahil/PROJECTS/Mol_Feturizer/New_Systems/rnas/4b5r

>  <Rbt.Executable>
rbdock ($Id: //depot/dev/client3/rdock/2013.1/src/exe/rbdock.cxx#4 $)

>  <Rbt.Library>
libRbt.so (2013.1, Build901 2013/11/27)

>  <Rbt.Parameter_File>
/export/apps/rDock/src/rDock_2013.1_src/data/scripts/dock_solv.prm

>  <Rbt.Receptor>
prm/blind_docking_60.prm

>  <SCORE>
-13.5544

>  <SCORE.INTER>
-15.8689

>  <SCORE.INTER.CONST>
1

>  <SCORE.INTER.POLAR>
0

>  <SCORE.INTER.ROT>
6

>  <SCORE.INTER.SOLV>
20.8608

>  <SCORE.INTER.VDW>
-25.1329

>  <SCORE.INTER.norm>
-0.587738

>  <SCORE.INTRA>
2.3145

>  <SCORE.INTRA.DIHEDRAL>
2.61436

>  <SCORE.INTRA.DIHEDRAL.0>
10.2917

>  <SCORE.INTRA.POLAR>
0

>  <SCORE.INTRA.POLAR.0>
0

>  <SCORE.INTRA.REPUL>
0

>  <SCORE.INTRA.REPUL.0>
0

>  <SCORE.INTRA.SOLV>
-2.61346

>  <SCORE.INTRA.SOLV.lig_0>
-39.6315

>  <SCORE.INTRA.VDW>
2.31405

>  <SCORE.INTRA.VDW.0>
-4.02152

>  <SCORE.INTRA.norm>
0.085722

>  <SCORE.RESTR>
0

>  <SCORE.RESTR.CAVITY>
0

>  <SCORE.RESTR.norm>
0

>  <SCORE.SYSTEM>
0

>  <SCORE.SYSTEM.CONST>
0

>  <SCORE.SYSTEM.DIHEDRAL>
0

>  <SCORE.SYSTEM.SOLV>
0

>  <SCORE.SYSTEM.norm>
0

>  <SCORE.heavy>
27

>  <SCORE.norm>
-0.502016

>  <RMSD>
12.923

$$$$
lig.pdb
 OpenBabel11021811493D
libRbt.so/2013.1/901 2013/11/27
 27 29  0  0  0  0  0  0  0  0999 V2000
    5.4119   -7.8019  -21.1230 N   0  0  0  0  0  0  0  0  0  0  0  0
    5.1533   -6.7570  -20.0859 C   0  0  2  0  0  0  0  0  0  0  0  0
    4.4274   -5.5808  -20.7322 C   0  0  0  0  0  0  0  0  0  0  0  0
    3.6768   -4.8879  -20.0552 O   0  0  0  0  0  0  0  0  0  0  0  0
    4.5561   -5.2886  -21.9280 O   0  0  0  0  0  0  0  0  0  0  0  0
    6.4209   -6.3032  -19.3343 C   0  0  0  0  0  0  0  0  0  0  0  0
    6.5385   -6.7247  -17.8460 C   0  0  0  0  0  0  0  0  0  0  0  0
    8.0274   -6.2089  -16.8865 S   0  0  2  0  0  0  0  0  0  0  0  0
    8.5038   -4.6965  -17.7497 C   0  0  0  0  0  0  0  0  0  0  0  0
    9.3214   -7.3196  -17.4810 C   0  0  0  0  0  0  0  0  0  0  0  0
    9.2624   -8.6338  -16.7137 C   0  0  1  0  0  0  0  0  0  0  0  0
    8.1368   -9.4231  -17.0677 O   0  0  0  0  0  0  0  0  0  0  0  0
   10.4359   -9.5344  -16.9916 C   0  0  1  0  0  0  0  0  0  0  0  0
   11.5529   -9.1079  -16.2662 O   0  0  0  0  0  0  0  0  0  0  0  0
    9.8884  -10.8609  -16.5131 C   0  0  1  0  0  0  0  0  0  0  0  0
   10.0260  -10.9674  -15.1108 O   0  0  0  0  0  0  0  0  0  0  0  0
    8.4054  -10.7986  -16.8617 C   0  0  2  0  0  0  0  0  0  0  0  0
    7.9979  -11.6204  -18.0342 N   0  0  0  0  0  0  0  0  0  0  0  0
    7.5415  -12.9132  -17.9764 C   0  0  0  0  0  0  0  0  0  0  0  0
    7.2657  -13.3428  -19.2281 N   0  0  0  0  0  0  0  0  0  0  0  0
    7.5273  -12.3480  -20.0918 C   0  0  0  0  0  0  0  0  0  0  0  0
    7.4105  -12.2579  -21.4705 C   0  0  0  0  0  0  0  0  0  0  0  0
    6.9636  -13.2899  -22.1740 N   0  0  0  0  0  0  0  0  0  0  0  0
    7.7590  -11.0795  -22.1004 N   0  0  0  0  0  0  0  0  0  0  0  0
    8.2192   -9.9877  -21.3753 C   0  0  0  0  0  0  0  0  0  0  0  0
    8.3233  -10.0941  -20.0033 N   0  0  0  0  0  0  0  0  0  0  0  0
    7.9912  -11.2542  -19.3652 C   0  0  0  0  0  0  0  0  0  0  0  0
  2  3  1  6  0  0  0
  2  6  1  0  0  0  0
  2  1  1  0  0  0  0
  4  3  2  0  0  0  0
  5  3  1  0  0  0  0
  6  7  2  0  0  0  0
  8  7  1  6  0  0  0
  8  9  1  0  0  0  0
  8 10  1  0  0  0  0
 11 10  1  6  0  0  0
 11 13  1  0  0  0  0
 12 11  1  0  0  0  0
 12 17  1  0  0  0  0
 13 14  1  1  0  0  0
 13 15  1  0  0  0  0
 15 16  1  1  0  0  0
 17 18  1  6  0  0  0
 17 15  1  0  0  0  0
 18 19  1  0  0  0  0
 20 19  2  0  0  0  0
 21 27  2  0  0  0  0
 21 20  1  0  0  0  0
 22 21  1  0  0  0  0
 23 22  1  0  0  0  0
 24 22  2  0  0  0  0
 24 25  1  0  0  0  0
 25 26  2  0  0  0  0
 26 27  1  0  0  0  0
 27 18  1  0  0  0  0
M  END
>  <CHROM.1>
151.60441839,-110.15880369,27.24060736,-84.37155745,71.63187225,-148.17256236
7.68418014,-9.01892768,-18.77774537,2.38600922,-0.86714972,0.40147432

>  <Name>
lig.pdb

>  <RI>
0

>  <Rbt.Current_Directory>
/home/itssahil/PROJECTS/Mol_Feturizer/New_Systems/rnas/4b5r

>  <Rbt.Executable>
rbdock ($Id: //depot/dev/client3/rdock/2013.1/src/exe/rbdock.cxx#4 $)

>  <Rbt.Library>
libRbt.so (2013.1, Build901 2013/11/27)

>  <Rbt.Parameter_File>
/export/apps/rDock/src/rDock_2013.1_src/data/scripts/dock_solv.prm

>  <Rbt.Receptor>
prm/blind_docking_100.prm

>  <SCORE>
-12.269

>  <SCORE.INTER>
-12.2178

>  <SCORE.INTER.CONST>
1

>  <SCORE.INTER.POLAR>
0

>  <SCORE.INTER.ROT>
6

>  <SCORE.INTER.SOLV>
12.8425

>  <SCORE.INTER.VDW>
-20.0261

>  <SCORE.INTER.norm>
-0.452513

>  <SCORE.INTRA>
-0.05118

>  <SCORE.INTRA.DIHEDRAL>
-0.593417

>  <SCORE.INTRA.DIHEDRAL.0>
10.2917

>  <SCORE.INTRA.POLAR>
0

>  <SCORE.INTRA.POLAR.0>
0

>  <SCORE.INTRA.REPUL>
0

>  <SCORE.INTRA.REPUL.0>
0

>  <SCORE.INTRA.SOLV>
-1.36601

>  <SCORE.INTRA.SOLV.lig_0>
-39.6315

>  <SCORE.INTRA.VDW>
0.928535

>  <SCORE.INTRA.VDW.0>
-4.02152

>  <SCORE.INTRA.norm>
-0.00189556

>  <SCORE.RESTR>
0

>  <SCORE.RESTR.CAVITY>
0

>  <SCORE.RESTR.norm>
0

>  <SCORE.SYSTEM>
0

>  <SCORE.SYSTEM.CONST>
0

>  <SCORE.SYSTEM.DIHEDRAL>
0

>  <SCORE.SYSTEM.SOLV>
0

>  <SCORE.SYSTEM.norm>
0

>  <SCORE.heavy>
27

>  <SCORE.norm>
-0.454408

>  <RMSD>
12.941

$$$$
lig.pdb
 OpenBabel11021811493D
libRbt.so/2013.1/901 2013/11/27
 27 29  0  0  0  0  0  0  0  0999 V2000
   -0.5243   -5.7526  -13.7320 N   0  0  0  0  0  0  0  0  0  0  0  0
   -0.6995   -5.8267  -15.2146 C   0  0  2  0  0  0  0  0  0  0  0  0
   -0.6076   -4.4203  -15.7992 C   0  0  0  0  0  0  0  0  0  0  0  0
    0.4927   -3.9299  -16.0241 O   0  0  0  0  0  0  0  0  0  0  0  0
   -1.6054   -3.7351  -16.0576 O   0  0  0  0  0  0  0  0  0  0  0  0
   -1.9934   -6.5434  -15.6504 C   0  0  0  0  0  0  0  0  0  0  0  0
   -2.6752   -7.4551  -14.5966 C   0  0  0  0  0  0  0  0  0  0  0  0
   -4.2235   -8.3473  -15.0554 S   0  0  2  0  0  0  0  0  0  0  0  0
   -3.7702   -9.0530  -16.6541 C   0  0  0  0  0  0  0  0  0  0  0  0
   -5.3265   -7.0277  -15.6065 C   0  0  0  0  0  0  0  0  0  0  0  0
   -6.5226   -6.9333  -14.6685 C   0  0  1  0  0  0  0  0  0  0  0  0
   -7.1937   -8.1745  -14.5121 O   0  0  0  0  0  0  0  0  0  0  0  0
   -6.1438   -6.5488  -13.2635 C   0  0  1  0  0  0  0  0  0  0  0  0
   -5.9158   -5.1712  -13.1858 O   0  0  0  0  0  0  0  0  0  0  0  0
   -7.3801   -6.9892  -12.5113 C   0  0  1  0  0  0  0  0  0  0  0  0
   -8.3853   -6.0004  -12.6050 O   0  0  0  0  0  0  0  0  0  0  0  0
   -7.8427   -8.2374  -13.2546 C   0  0  2  0  0  0  0  0  0  0  0  0
   -7.5689   -9.5243  -12.5580 N   0  0  0  0  0  0  0  0  0  0  0  0
   -6.3666  -10.1856  -12.5573 C   0  0  0  0  0  0  0  0  0  0  0  0
   -6.4822  -11.3159  -11.8248 N   0  0  0  0  0  0  0  0  0  0  0  0
   -7.7346  -11.3917  -11.3455 C   0  0  0  0  0  0  0  0  0  0  0  0
   -8.3683  -12.3270  -10.5416 C   0  0  0  0  0  0  0  0  0  0  0  0
   -7.7076  -13.3896  -10.1015 N   0  0  0  0  0  0  0  0  0  0  0  0
   -9.6925  -12.1350  -10.2005 N   0  0  0  0  0  0  0  0  0  0  0  0
  -10.3939  -11.0219  -10.6463 C   0  0  0  0  0  0  0  0  0  0  0  0
   -9.7448  -10.0987  -11.4407 N   0  0  0  0  0  0  0  0  0  0  0  0
   -8.4385  -10.2770  -11.7944 C   0  0  0  0  0  0  0  0  0  0  0  0
  2  3  1  1  0  0  0
  2  6  1  0  0  0  0
  2  1  1  0  0  0  0
  4  3  2  0  0  0  0
  5  3  1  0  0  0  0
  6  7  2  0  0  0  0
  8  7  1  6  0  0  0
  8  9  1  0  0  0  0
  8 10  1  0  0  0  0
 11 10  1  6  0  0  0
 11 13  1  0  0  0  0
 12 11  1  0  0  0  0
 12 17  1  0  0  0  0
 13 14  1  6  0  0  0
 13 15  1  0  0  0  0
 15 16  1  6  0  0  0
 17 18  1  1  0  0  0
 17 15  1  0  0  0  0
 18 19  1  0  0  0  0
 20 19  2  0  0  0  0
 21 27  2  0  0  0  0
 21 20  1  0  0  0  0
 22 21  1  0  0  0  0
 23 22  1  0  0  0  0
 24 22  2  0  0  0  0
 24 25  1  0  0  0  0
 25 26  2  0  0  0  0
 26 27  1  0  0  0  0
 27 18  1  0  0  0  0
M  END
>  <CHROM.1>
82.69960952,-18.86560008,47.59793806,-115.69416266,-53.78005774,38.53126810
-5.54882559,-8.13394131,-13.51504823,-0.72328818,-0.33930937,2.85549405

>  <Name>
lig.pdb

>  <RI>
0

>  <Rbt.Current_Directory>
/home/itssahil/PROJECTS/Mol_Feturizer/New_Systems/rnas/4b5r

>  <Rbt.Executable>
rbdock ($Id: //depot/dev/client3/rdock/2013.1/src/exe/rbdock.cxx#4 $)

>  <Rbt.Library>
libRbt.so (2013.1, Build901 2013/11/27)

>  <Rbt.Parameter_File>
/export/apps/rDock/src/rDock_2013.1_src/data/scripts/dock_solv.prm

>  <Rbt.Receptor>
prm/blind_docking_20.prm

>  <SCORE>
-4.37602

>  <SCORE.INTER>
-6.06754

>  <SCORE.INTER.CONST>
1

>  <SCORE.INTER.POLAR>
0

>  <SCORE.INTER.ROT>
6

>  <SCORE.INTER.SOLV>
18.2488

>  <SCORE.INTER.VDW>
-17.7279

>  <SCORE.INTER.norm>
-0.224724

>  <SCORE.INTRA>
1.69152

>  <SCORE.INTRA.DIHEDRAL>
2.98926

>  <SCORE.INTRA.DIHEDRAL.0>
10.2917

>  <SCORE.INTRA.POLAR>
0

>  <SCORE.INTRA.POLAR.0>
0

>  <SCORE.INTRA.REPUL>
0

>  <SCORE.INTRA.REPUL.0>
0

>  <SCORE.INTRA.SOLV>
-2.66546

>  <SCORE.INTRA.SOLV.lig_0>
-39.6315

>  <SCORE.INTRA.VDW>
1.52962

>  <SCORE.INTRA.VDW.0>
-4.02152

>  <SCORE.INTRA.norm>
0.0626489

>  <SCORE.RESTR>
0

>  <SCORE.RESTR.CAVITY>
0

>  <SCORE.RESTR.norm>
0

>  <SCORE.SYSTEM>
0

>  <SCORE.SYSTEM.CONST>
0

>  <SCORE.SYSTEM.DIHEDRAL>
0

>  <SCORE.SYSTEM.SOLV>
0

>  <SCORE.SYSTEM.norm>
0

>  <SCORE.heavy>
27

>  <SCORE.norm>
-0.162075

>  <RMSD>
13.071

$$$$
lig.pdb
 OpenBabel11021811493D
libRbt.so/2013.1/901 2013/11/27
 27 29  0  0  0  0  0  0  0  0999 V2000
    9.7055   -7.3513  -17.0768 N   0  0  0  0  0  0  0  0  0  0  0  0
    8.7355   -6.7514  -18.0429 C   0  0  2  0  0  0  0  0  0  0  0  0
    8.7961   -5.2308  -17.9322 C   0  0  0  0  0  0  0  0  0  0  0  0
    9.0937   -4.7141  -16.8616 O   0  0  0  0  0  0  0  0  0  0  0  0
    8.5504   -4.4789  -18.8841 O   0  0  0  0  0  0  0  0  0  0  0  0
    7.2955   -7.2792  -17.8832 C   0  0  0  0  0  0  0  0  0  0  0  0
    7.1001   -8.5033  -16.9505 C   0  0  0  0  0  0  0  0  0  0  0  0
    5.4029   -9.1891  -16.7204 S   0  0  2  0  0  0  0  0  0  0  0  0
    5.7523  -10.9482  -16.5129 C   0  0  0  0  0  0  0  0  0  0  0  0
    4.7226   -9.2089  -18.3933 C   0  0  0  0  0  0  0  0  0  0  0  0
    5.8005   -9.6360  -19.3808 C   0  0  1  0  0  0  0  0  0  0  0  0
    6.0036  -11.0410  -19.3941 O   0  0  0  0  0  0  0  0  0  0  0  0
    5.4579   -9.3078  -20.8091 C   0  0  1  0  0  0  0  0  0  0  0  0
    5.6972   -7.9535  -21.0631 O   0  0  0  0  0  0  0  0  0  0  0  0
    6.4102  -10.2265  -21.5422 C   0  0  1  0  0  0  0  0  0  0  0  0
    7.6919   -9.6367  -21.6214 O   0  0  0  0  0  0  0  0  0  0  0  0
    6.4889  -11.4644  -20.6557 C   0  0  2  0  0  0  0  0  0  0  0  0
    5.7452  -12.6508  -21.1614 N   0  0  0  0  0  0  0  0  0  0  0  0
    5.0147  -12.6933  -22.3222 C   0  0  0  0  0  0  0  0  0  0  0  0
    4.4788  -13.9262  -22.4644 N   0  0  0  0  0  0  0  0  0  0  0  0
    4.8572  -14.6827  -21.4211 C   0  0  0  0  0  0  0  0  0  0  0  0
    4.5990  -16.0035  -21.0872 C   0  0  0  0  0  0  0  0  0  0  0  0
    3.8482  -16.7598  -21.8771 N   0  0  0  0  0  0  0  0  0  0  0  0
    5.1380  -16.5225  -19.9267 N   0  0  0  0  0  0  0  0  0  0  0  0
    5.9339  -15.7448  -19.0951 C   0  0  0  0  0  0  0  0  0  0  0  0
    6.1846  -14.4341  -19.4468 N   0  0  0  0  0  0  0  0  0  0  0  0
    5.6531  -13.9024  -20.5861 C   0  0  0  0  0  0  0  0  0  0  0  0
  2  3  1  1  0  0  0
  2  6  1  0  0  0  0
  2  1  1  0  0  0  0
  4  3  2  0  0  0  0
  5  3  1  0  0  0  0
  6  7  2  0  0  0  0
  8  7  1  6  0  0  0
  8  9  1  0  0  0  0
  8 10  1  0  0  0  0
 11 10  1  1  0  0  0
 11 13  1  0  0  0  0
 12 11  1  0  0  0  0
 12 17  1  0  0  0  0
 13 14  1  6  0  0  0
 13 15  1  0  0  0  0
 15 16  1  1  0  0  0
 17 18  1  6  0  0  0
 17 15  1  0  0  0  0
 18 19  1  0  0  0  0
 20 19  2  0  0  0  0
 21 27  2  0  0  0  0
 21 20  1  0  0  0  0
 22 21  1  0  0  0  0
 23 22  1  0  0  0  0
 24 22  2  0  0  0  0
 24 25  1  0  0  0  0
 25 26  2  0  0  0  0
 26 27  1  0  0  0  0
 27 18  1  0  0  0  0
M  END
>  <CHROM.1>
-29.62432885,-10.41215709,146.78453677,39.41993405,79.11404707,118.91938135
6.29004340,-10.57478277,-19.44046148,0.20635691,1.24374751,1.70412765

>  <Name>
lig.pdb

>  <RI>
0

>  <Rbt.Current_Directory>
/home/itssahil/PROJECTS/Mol_Feturizer/New_Systems/rnas/4b5r

>  <Rbt.Executable>
rbdock ($Id: //depot/dev/client3/rdock/2013.1/src/exe/rbdock.cxx#4 $)

>  <Rbt.Library>
libRbt.so (2013.1, Build901 2013/11/27)

>  <Rbt.Parameter_File>
/export/apps/rDock/src/rDock_2013.1_src/data/scripts/dock_solv.prm

>  <Rbt.Receptor>
prm/blind_docking_100.prm

>  <SCORE>
-11.3082

>  <SCORE.INTER>
-12.3178

>  <SCORE.INTER.CONST>
1

>  <SCORE.INTER.POLAR>
0

>  <SCORE.INTER.ROT>
6

>  <SCORE.INTER.SOLV>
18.3201

>  <SCORE.INTER.VDW>
-21.9186

>  <SCORE.INTER.norm>
-0.456217

>  <SCORE.INTRA>
1.00963

>  <SCORE.INTRA.DIHEDRAL>
-1.63899

>  <SCORE.INTRA.DIHEDRAL.0>
10.2917

>  <SCORE.INTRA.POLAR>
0

>  <SCORE.INTRA.POLAR.0>
0

>  <SCORE.INTRA.REPUL>
0.0228755

>  <SCORE.INTRA.REPUL.0>
0

>  <SCORE.INTRA.SOLV>
-2.20792

>  <SCORE.INTRA.SOLV.lig_0>
-39.6315

>  <SCORE.INTRA.VDW>
2.8187

>  <SCORE.INTRA.VDW.0>
-4.02152

>  <SCORE.INTRA.norm>
0.0373936

>  <SCORE.RESTR>
0

>  <SCORE.RESTR.CAVITY>
0

>  <SCORE.RESTR.norm>
0

>  <SCORE.SYSTEM>
0

>  <SCORE.SYSTEM.CONST>
0

>  <SCORE.SYSTEM.DIHEDRAL>
0

>  <SCORE.SYSTEM.SOLV>
0

>  <SCORE.SYSTEM.norm>
0

>  <SCORE.heavy>
27

>  <SCORE.norm>
-0.418823

>  <RMSD>
13.074

$$$$
lig.pdb
 OpenBabel11021811493D
libRbt.so/2013.1/901 2013/11/27
 27 29  0  0  0  0  0  0  0  0999 V2000
   -0.2347   -6.6928  -17.9463 N   0  0  0  0  0  0  0  0  0  0  0  0
   -0.5512   -5.5184  -17.0776 C   0  0  2  0  0  0  0  0  0  0  0  0
    0.6414   -5.2330  -16.1696 C   0  0  0  0  0  0  0  0  0  0  0  0
    1.5780   -4.5662  -16.5937 O   0  0  0  0  0  0  0  0  0  0  0  0
    0.7148   -5.6525  -15.0075 O   0  0  0  0  0  0  0  0  0  0  0  0
   -1.8570   -5.6772  -16.2731 C   0  0  0  0  0  0  0  0  0  0  0  0
   -2.1172   -7.0654  -15.6314 C   0  0  0  0  0  0  0  0  0  0  0  0
   -3.6645   -7.3249  -14.6607 S   0  0  2  0  0  0  0  0  0  0  0  0
   -4.3967   -8.7319  -15.5229 C   0  0  0  0  0  0  0  0  0  0  0  0
   -4.7564   -6.0092  -15.2425 C   0  0  0  0  0  0  0  0  0  0  0  0
   -6.0405   -6.0083  -14.4237 C   0  0  1  0  0  0  0  0  0  0  0  0
   -6.7012   -7.2647  -14.4421 O   0  0  0  0  0  0  0  0  0  0  0  0
   -5.8088   -5.7444  -12.9601 C   0  0  1  0  0  0  0  0  0  0  0  0
   -5.6145   -4.3767  -12.7420 O   0  0  0  0  0  0  0  0  0  0  0  0
   -7.1050   -6.2604  -12.3754 C   0  0  1  0  0  0  0  0  0  0  0  0
   -8.1138   -5.2768  -12.4835 O   0  0  0  0  0  0  0  0  0  0  0  0
   -7.4696   -7.4433  -13.2656 C   0  0  2  0  0  0  0  0  0  0  0  0
   -7.2425   -8.7834  -12.6583 N   0  0  0  0  0  0  0  0  0  0  0  0
   -6.0251   -9.4061  -12.5435 C   0  0  0  0  0  0  0  0  0  0  0  0
   -6.1950  -10.6054  -11.9432 N   0  0  0  0  0  0  0  0  0  0  0  0
   -7.4984  -10.7642  -11.6605 C   0  0  0  0  0  0  0  0  0  0  0  0
   -8.1991  -11.7916  -11.0473 C   0  0  0  0  0  0  0  0  0  0  0  0
   -7.5625  -12.8724  -10.6156 N   0  0  0  0  0  0  0  0  0  0  0  0
   -9.5654  -11.6727  -10.8865 N   0  0  0  0  0  0  0  0  0  0  0  0
  -10.2435  -10.5424  -11.3251 C   0  0  0  0  0  0  0  0  0  0  0  0
   -9.5284   -9.5276  -11.9278 N   0  0  0  0  0  0  0  0  0  0  0  0
   -8.1786   -9.6322  -12.1024 C   0  0  0  0  0  0  0  0  0  0  0  0
  2  3  1  1  0  0  0
  2  6  1  0  0  0  0
  2  1  1  0  0  0  0
  4  3  2  0  0  0  0
  5  3  1  0  0  0  0
  6  7  2  0  0  0  0
  8  7  1  6  0  0  0
  8  9  1  0  0  0  0
  8 10  1  0  0  0  0
 11 10  1  6  0  0  0
 11 13  1  0  0  0  0
 12 11  1  0  0  0  0
 12 17  1  0  0  0  0
 13 14  1  6  0  0  0
 13 15  1  0  0  0  0
 15 16  1  6  0  0  0
 17 18  1  1  0  0  0
 17 15  1  0  0  0  0
 18 19  1  0  0  0  0
 20 19  2  0  0  0  0
 21 27  2  0  0  0  0
 21 20  1  0  0  0  0
 22 21  1  0  0  0  0
 23 22  1  0  0  0  0
 24 22  2  0  0  0  0
 24 25  1  0  0  0  0
 25 26  2  0  0  0  0
 26 27  1  0  0  0  0
 27 18  1  0  0  0  0
M  END
>  <CHROM.1>
83.23163432,41.97989384,123.37733823,-174.38492374,-55.76217104,41.47700419
-5.12111400,-7.69895792,-13.76311495,-0.55025141,-0.43859249,2.95930174

>  <Name>
lig.pdb

>  <RI>
0

>  <Rbt.Current_Directory>
/home/itssahil/PROJECTS/Mol_Feturizer/New_Systems/rnas/4b5r

>  <Rbt.Executable>
rbdock ($Id: //depot/dev/client3/rdock/2013.1/src/exe/rbdock.cxx#4 $)

>  <Rbt.Library>
libRbt.so (2013.1, Build901 2013/11/27)

>  <Rbt.Parameter_File>
/export/apps/rDock/src/rDock_2013.1_src/data/scripts/dock_solv.prm

>  <Rbt.Receptor>
prm/blind_docking_20.prm

>  <SCORE>
-6.79706

>  <SCORE.INTER>
-6.89813

>  <SCORE.INTER.CONST>
1

>  <SCORE.INTER.POLAR>
0

>  <SCORE.INTER.ROT>
6

>  <SCORE.INTER.SOLV>
15.4714

>  <SCORE.INTER.VDW>
-17.3559

>  <SCORE.INTER.norm>
-0.255486

>  <SCORE.INTRA>
0.10107

>  <SCORE.INTRA.DIHEDRAL>
-0.608828

>  <SCORE.INTRA.DIHEDRAL.0>
10.2917

>  <SCORE.INTRA.POLAR>
0

>  <SCORE.INTRA.POLAR.0>
0

>  <SCORE.INTRA.REPUL>
0

>  <SCORE.INTRA.REPUL.0>
0

>  <SCORE.INTRA.SOLV>
-2.69743

>  <SCORE.INTRA.SOLV.lig_0>
-39.6315

>  <SCORE.INTRA.VDW>
1.7542

>  <SCORE.INTRA.VDW.0>
-4.02152

>  <SCORE.INTRA.norm>
0.00374334

>  <SCORE.RESTR>
0

>  <SCORE.RESTR.CAVITY>
0

>  <SCORE.RESTR.norm>
0

>  <SCORE.SYSTEM>
0

>  <SCORE.SYSTEM.CONST>
0

>  <SCORE.SYSTEM.DIHEDRAL>
0

>  <SCORE.SYSTEM.SOLV>
0

>  <SCORE.SYSTEM.norm>
0

>  <SCORE.heavy>
27

>  <SCORE.norm>
-0.251743

>  <RMSD>
13.102

$$$$
lig.pdb
 OpenBabel11021811493D
libRbt.so/2013.1/901 2013/11/27
 27 29  0  0  0  0  0  0  0  0999 V2000
    5.2138   -6.4627  -20.4847 N   0  0  0  0  0  0  0  0  0  0  0  0
    4.6753   -7.0283  -19.2103 C   0  0  2  0  0  0  0  0  0  0  0  0
    3.2629   -6.4967  -18.9854 C   0  0  0  0  0  0  0  0  0  0  0  0
    2.4352   -7.2005  -18.4185 O   0  0  0  0  0  0  0  0  0  0  0  0
    2.9024   -5.3727  -19.3577 O   0  0  0  0  0  0  0  0  0  0  0  0
    5.5821   -6.7764  -17.9888 C   0  0  0  0  0  0  0  0  0  0  0  0
    6.8577   -5.9271  -18.2297 C   0  0  0  0  0  0  0  0  0  0  0  0
    7.9897   -5.5935  -16.8117 S   0  0  2  0  0  0  0  0  0  0  0  0
    8.6174   -3.9538  -17.2323 C   0  0  0  0  0  0  0  0  0  0  0  0
    9.4502   -6.5856  -17.1918 C   0  0  0  0  0  0  0  0  0  0  0  0
    9.1465   -8.0587  -16.9525 C   0  0  1  0  0  0  0  0  0  0  0  0
    8.1214   -8.5504  -17.8026 O   0  0  0  0  0  0  0  0  0  0  0  0
   10.3175   -8.9588  -17.2420 C   0  0  1  0  0  0  0  0  0  0  0  0
   11.2252   -8.9258  -16.1786 O   0  0  0  0  0  0  0  0  0  0  0  0
    9.6162  -10.2917  -17.3827 C   0  0  1  0  0  0  0  0  0  0  0  0
    9.3840  -10.8568  -16.1084 O   0  0  0  0  0  0  0  0  0  0  0  0
    8.2764   -9.9415  -18.0205 C   0  0  2  0  0  0  0  0  0  0  0  0
    8.1542  -10.2894  -19.4628 N   0  0  0  0  0  0  0  0  0  0  0  0
    8.4036   -9.4364  -20.5083 C   0  0  0  0  0  0  0  0  0  0  0  0
    8.1920  -10.0886  -21.6734 N   0  0  0  0  0  0  0  0  0  0  0  0
    7.8192  -11.3494  -21.3990 C   0  0  0  0  0  0  0  0  0  0  0  0
    7.4968  -12.4229  -22.2152 C   0  0  0  0  0  0  0  0  0  0  0  0
    7.5310  -12.2951  -23.5351 N   0  0  0  0  0  0  0  0  0  0  0  0
    7.1462  -13.6270  -21.6372 N   0  0  0  0  0  0  0  0  0  0  0  0
    7.1156  -13.7778  -20.2566 C   0  0  0  0  0  0  0  0  0  0  0  0
    7.4453  -12.6998  -19.4605 N   0  0  0  0  0  0  0  0  0  0  0  0
    7.7861  -11.5000  -20.0149 C   0  0  0  0  0  0  0  0  0  0  0  0
  2  3  1  1  0  0  0
  2  6  1  0  0  0  0
  2  1  1  0  0  0  0
  4  3  2  0  0  0  0
  5  3  1  0  0  0  0
  6  7  2  0  0  0  0
  8  7  1  6  0  0  0
  8  9  1  0  0  0  0
  8 10  1  0  0  0  0
 11 10  1  6  0  0  0
 11 13  1  0  0  0  0
 12 11  1  0  0  0  0
 12 17  1  0  0  0  0
 13 14  1  1  0  0  0
 13 15  1  0  0  0  0
 15 16  1  1  0  0  0
 17 18  1  6  0  0  0
 17 15  1  0  0  0  0
 18 19  1  0  0  0  0
 20 19  2  0  0  0  0
 21 27  2  0  0  0  0
 21 20  1  0  0  0  0
 22 21  1  0  0  0  0
 23 22  1  0  0  0  0
 24 22  2  0  0  0  0
 24 25  1  0  0  0  0
 25 26  2  0  0  0  0
 26 27  1  0  0  0  0
 27 18  1  0  0  0  0
M  END
>  <CHROM.1>
147.55453352,3.10126349,-147.49096730,-73.77560502,62.78785340,25.05010928
7.43661817,-8.83334681,-18.86431572,1.79970333,-0.51418973,0.56298099

>  <Name>
lig.pdb

>  <RI>
0

>  <Rbt.Current_Directory>
/home/itssahil/PROJECTS/Mol_Feturizer/New_Systems/rnas/4b5r

>  <Rbt.Executable>
rbdock ($Id: //depot/dev/client3/rdock/2013.1/src/exe/rbdock.cxx#4 $)

>  <Rbt.Library>
libRbt.so (2013.1, Build901 2013/11/27)

>  <Rbt.Parameter_File>
/export/apps/rDock/src/rDock_2013.1_src/data/scripts/dock_solv.prm

>  <Rbt.Receptor>
prm/blind_docking_100.prm

>  <SCORE>
-11.7817

>  <SCORE.INTER>
-10.8024

>  <SCORE.INTER.CONST>
1

>  <SCORE.INTER.POLAR>
0

>  <SCORE.INTER.ROT>
6

>  <SCORE.INTER.SOLV>
13.1209

>  <SCORE.INTER.VDW>
-19.1752

>  <SCORE.INTER.norm>
-0.400089

>  <SCORE.INTRA>
-0.979328

>  <SCORE.INTRA.DIHEDRAL>
-1.71618

>  <SCORE.INTRA.DIHEDRAL.0>
10.2917

>  <SCORE.INTRA.POLAR>
0

>  <SCORE.INTRA.POLAR.0>
0

>  <SCORE.INTRA.REPUL>
0

>  <SCORE.INTRA.REPUL.0>
0

>  <SCORE.INTRA.SOLV>
-2.47547

>  <SCORE.INTRA.SOLV.lig_0>
-39.6315

>  <SCORE.INTRA.VDW>
1.1165

>  <SCORE.INTRA.VDW.0>
-4.02152

>  <SCORE.INTRA.norm>
-0.0362714

>  <SCORE.RESTR>
0

>  <SCORE.RESTR.CAVITY>
0

>  <SCORE.RESTR.norm>
0

>  <SCORE.SYSTEM>
0

>  <SCORE.SYSTEM.CONST>
0

>  <SCORE.SYSTEM.DIHEDRAL>
0

>  <SCORE.SYSTEM.SOLV>
0

>  <SCORE.SYSTEM.norm>
0

>  <SCORE.heavy>
27

>  <SCORE.norm>
-0.436361

>  <RMSD>
13.110

$$$$
lig.pdb
 OpenBabel11021811493D
libRbt.so/2013.1/901 2013/11/27
 27 29  0  0  0  0  0  0  0  0999 V2000
    3.4946   -5.3695  -19.8469 N   0  0  0  0  0  0  0  0  0  0  0  0
    4.3280   -6.0602  -20.8776 C   0  0  2  0  0  0  0  0  0  0  0  0
    3.4097   -6.7373  -21.8906 C   0  0  0  0  0  0  0  0  0  0  0  0
    2.5470   -7.5147  -21.4993 O   0  0  0  0  0  0  0  0  0  0  0  0
    3.4965   -6.5420  -23.1097 O   0  0  0  0  0  0  0  0  0  0  0  0
    5.3527   -7.0485  -20.2850 C   0  0  0  0  0  0  0  0  0  0  0  0
    5.5491   -8.3881  -21.0423 C   0  0  0  0  0  0  0  0  0  0  0  0
    6.7555   -9.6183  -20.3831 S   0  0  2  0  0  0  0  0  0  0  0  0
    8.0122   -8.5389  -19.6655 C   0  0  0  0  0  0  0  0  0  0  0  0
    7.6390  -10.1776  -21.8556 C   0  0  0  0  0  0  0  0  0  0  0  0
    6.9727  -11.4303  -22.4091 C   0  0  1  0  0  0  0  0  0  0  0  0
    7.1984  -12.5732  -21.5979 O   0  0  0  0  0  0  0  0  0  0  0  0
    5.4727  -11.3238  -22.4724 C   0  0  1  0  0  0  0  0  0  0  0  0
    5.0897  -10.5716  -23.5875 O   0  0  0  0  0  0  0  0  0  0  0  0
    5.0942  -12.7842  -22.5830 C   0  0  1  0  0  0  0  0  0  0  0  0
    5.2082  -13.2168  -23.9235 O   0  0  0  0  0  0  0  0  0  0  0  0
    6.1404  -13.5044  -21.7397 C   0  0  2  0  0  0  0  0  0  0  0  0
    5.6581  -13.9944  -20.4193 N   0  0  0  0  0  0  0  0  0  0  0  0
    5.1727  -15.2534  -20.1697 C   0  0  0  0  0  0  0  0  0  0  0  0
    4.8294  -15.3462  -18.8655 N   0  0  0  0  0  0  0  0  0  0  0  0
    5.0924  -14.1729  -18.2669 C   0  0  0  0  0  0  0  0  0  0  0  0
    4.9398  -13.7412  -16.9581 C   0  0  0  0  0  0  0  0  0  0  0  0
    4.4519  -14.5595  -16.0352 N   0  0  0  0  0  0  0  0  0  0  0  0
    5.3077  -12.4521  -16.6270 N   0  0  0  0  0  0  0  0  0  0  0  0
    5.8291  -11.5875  -17.5811 C   0  0  0  0  0  0  0  0  0  0  0  0
    5.9791  -12.0369  -18.8773 N   0  0  0  0  0  0  0  0  0  0  0  0
    5.6128  -13.3053  -19.2239 C   0  0  0  0  0  0  0  0  0  0  0  0
  2  3  1  6  0  0  0
  2  6  1  0  0  0  0
  2  1  1  0  0  0  0
  4  3  2  0  0  0  0
  5  3  1  0  0  0  0
  6  7  2  0  0  0  0
  8  7  1  6  0  0  0
  8  9  1  0  0  0  0
  8 10  1  0  0  0  0
 11 10  1  1  0  0  0
 11 13  1  0  0  0  0
 12 11  1  0  0  0  0
 12 17  1  0  0  0  0
 13 14  1  6  0  0  0
 13 15  1  0  0  0  0
 15 16  1  6  0  0  0
 17 18  1  1  0  0  0
 17 15  1  0  0  0  0
 18 19  1  0  0  0  0
 20 19  2  0  0  0  0
 21 27  2  0  0  0  0
 21 20  1  0  0  0  0
 22 21  1  0  0  0  0
 23 22  1  0  0  0  0
 24 22  2  0  0  0  0
 24 25  1  0  0  0  0
 25 26  2  0  0  0  0
 26 27  1  0  0  0  0
 27 18  1  0  0  0  0
M  END
>  <CHROM.1>
-54.18244815,139.89430577,-33.10720190,-93.33863463,-71.99666435,-146.93738388
5.41985997,-10.92050577,-20.50563112,2.24409913,1.36512230,-1.01747760

>  <Name>
lig.pdb

>  <RI>
0

>  <Rbt.Current_Directory>
/home/itssahil/PROJECTS/Mol_Feturizer/New_Systems/rnas/4b5r

>  <Rbt.Executable>
rbdock ($Id: //depot/dev/client3/rdock/2013.1/src/exe/rbdock.cxx#4 $)

>  <Rbt.Library>
libRbt.so (2013.1, Build901 2013/11/27)

>  <Rbt.Parameter_File>
/export/apps/rDock/src/rDock_2013.1_src/data/scripts/dock_solv.prm

>  <Rbt.Receptor>
prm/blind_docking_40.prm

>  <SCORE>
-11.4127

>  <SCORE.INTER>
-11.6481

>  <SCORE.INTER.CONST>
1

>  <SCORE.INTER.POLAR>
0

>  <SCORE.INTER.ROT>
6

>  <SCORE.INTER.SOLV>
12.6454

>  <SCORE.INTER.VDW>
-19.5806

>  <SCORE.INTER.norm>
-0.431413

>  <SCORE.INTRA>
0.235461

>  <SCORE.INTRA.DIHEDRAL>
-0.664093

>  <SCORE.INTRA.DIHEDRAL.0>
10.2917

>  <SCORE.INTRA.POLAR>
0

>  <SCORE.INTRA.POLAR.0>
0

>  <SCORE.INTRA.REPUL>
0

>  <SCORE.INTRA.REPUL.0>
0

>  <SCORE.INTRA.SOLV>
-1.72152

>  <SCORE.INTRA.SOLV.lig_0>
-39.6315

>  <SCORE.INTRA.VDW>
1.42827

>  <SCORE.INTRA.VDW.0>
-4.02152

>  <SCORE.INTRA.norm>
0.00872077

>  <SCORE.RESTR>
0

>  <SCORE.RESTR.CAVITY>
0

>  <SCORE.RESTR.norm>
0

>  <SCORE.SYSTEM>
0

>  <SCORE.SYSTEM.CONST>
0

>  <SCORE.SYSTEM.DIHEDRAL>
0

>  <SCORE.SYSTEM.SOLV>
0

>  <SCORE.SYSTEM.norm>
0

>  <SCORE.heavy>
27

>  <SCORE.norm>
-0.422692

>  <RMSD>
13.129

$$$$
lig.pdb
 OpenBabel11021811493D
libRbt.so/2013.1/901 2013/11/27
 27 29  0  0  0  0  0  0  0  0999 V2000
    3.6202   -9.2339  -26.7635 N   0  0  0  0  0  0  0  0  0  0  0  0
    4.7466   -8.3679  -26.2996 C   0  0  2  0  0  0  0  0  0  0  0  0
    5.2750   -7.5601  -27.4813 C   0  0  0  0  0  0  0  0  0  0  0  0
    6.1684   -8.0245  -28.1797 O   0  0  0  0  0  0  0  0  0  0  0  0
    4.8432   -6.4373  -27.7725 O   0  0  0  0  0  0  0  0  0  0  0  0
    5.8732   -9.1449  -25.5890 C   0  0  0  0  0  0  0  0  0  0  0  0
    5.8019   -9.2183  -24.0411 C   0  0  0  0  0  0  0  0  0  0  0  0
    7.1223  -10.1273  -23.1281 S   0  0  2  0  0  0  0  0  0  0  0  0
    7.3010  -11.6116  -24.1403 C   0  0  0  0  0  0  0  0  0  0  0  0
    6.2518  -10.8288  -21.7097 C   0  0  0  0  0  0  0  0  0  0  0  0
    6.4813   -9.9554  -20.4833 C   0  0  1  0  0  0  0  0  0  0  0  0
    5.5572  -10.2248  -19.4399 O   0  0  0  0  0  0  0  0  0  0  0  0
    7.8245  -10.1778  -19.8416 C   0  0  1  0  0  0  0  0  0  0  0  0
    8.8192   -9.5083  -20.5615 O   0  0  0  0  0  0  0  0  0  0  0  0
    7.5807   -9.5832  -18.4722 C   0  0  1  0  0  0  0  0  0  0  0  0
    7.7357   -8.1793  -18.5161 O   0  0  0  0  0  0  0  0  0  0  0  0
    6.1210   -9.9111  -18.1788 C   0  0  2  0  0  0  0  0  0  0  0  0
    5.9061  -11.0054  -17.1926 N   0  0  0  0  0  0  0  0  0  0  0  0
    6.0597  -10.8900  -15.8339 C   0  0  0  0  0  0  0  0  0  0  0  0
    5.7816  -12.0787  -15.2533 N   0  0  0  0  0  0  0  0  0  0  0  0
    5.4429  -12.9568  -16.2115 C   0  0  0  0  0  0  0  0  0  0  0  0
    5.0634  -14.2894  -16.1606 C   0  0  0  0  0  0  0  0  0  0  0  0
    4.9836  -14.9193  -14.9959 N   0  0  0  0  0  0  0  0  0  0  0  0
    4.7640  -14.9498  -17.3357 N   0  0  0  0  0  0  0  0  0  0  0  0
    4.8340  -14.3000  -18.5615 C   0  0  0  0  0  0  0  0  0  0  0  0
    5.2079  -12.9719  -18.5919 N   0  0  0  0  0  0  0  0  0  0  0  0
    5.5154  -12.3060  -17.4407 C   0  0  0  0  0  0  0  0  0  0  0  0
  2  3  1  6  0  0  0
  2  6  1  0  0  0  0
  2  1  1  0  0  0  0
  4  3  2  0  0  0  0
  5  3  1  0  0  0  0
  6  7  2  0  0  0  0
  8  7  1  6  0  0  0
  8  9  1  0  0  0  0
  8 10  1  0  0  0  0
 11 10  1  6  0  0  0
 11 13  1  0  0  0  0
 12 11  1  0  0  0  0
 12 17  1  0  0  0  0
 13 14  1  6  0  0  0
 13 15  1  0  0  0  0
 15 16  1  6  0  0  0
 17 18  1  1  0  0  0
 17 15  1  0  0  0  0
 18 19  1  0  0  0  0
 20 19  2  0  0  0  0
 21 27  2  0  0  0  0
 21 20  1  0  0  0  0
 22 21  1  0  0  0  0
 23 22  1  0  0  0  0
 24 22  2  0  0  0  0
 24 25  1  0  0  0  0
 25 26  2  0  0  0  0
 26 27  1  0  0  0  0
 27 18  1  0  0  0  0
M  END
>  <CHROM.1>
-89.41142188,-94.69118852,-43.58180394,-99.08751346,163.93110263,-164.60425003
6.03446488,-10.60414541,-20.87702611,1.57722366,-0.96613998,-1.14768127

>  <Name>
lig.pdb

>  <RI>
0

>  <Rbt.Current_Directory>
/home/itssahil/PROJECTS/Mol_Feturizer/New_Systems/rnas/4b5r

>  <Rbt.Executable>
rbdock ($Id: //depot/dev/client3/rdock/2013.1/src/exe/rbdock.cxx#4 $)

>  <Rbt.Library>
libRbt.so (2013.1, Build901 2013/11/27)

>  <Rbt.Parameter_File>
/export/apps/rDock/src/rDock_2013.1_src/data/scripts/dock_solv.prm

>  <Rbt.Receptor>
prm/blind_docking_100.prm

>  <SCORE>
-13.0204

>  <SCORE.INTER>
-13.7053

>  <SCORE.INTER.CONST>
1

>  <SCORE.INTER.POLAR>
0

>  <SCORE.INTER.ROT>
6

>  <SCORE.INTER.SOLV>
14.3704

>  <SCORE.INTER.VDW>
-21.527

>  <SCORE.INTER.norm>
-0.507602

>  <SCORE.INTRA>
0.68486

>  <SCORE.INTRA.DIHEDRAL>
0.726162

>  <SCORE.INTRA.DIHEDRAL.0>
10.2917

>  <SCORE.INTRA.POLAR>
0

>  <SCORE.INTRA.POLAR.0>
0

>  <SCORE.INTRA.REPUL>
0

>  <SCORE.INTRA.REPUL.0>
0

>  <SCORE.INTRA.SOLV>
-2.41004

>  <SCORE.INTRA.SOLV.lig_0>
-39.6315

>  <SCORE.INTRA.VDW>
1.5268

>  <SCORE.INTRA.VDW.0>
-4.02152

>  <SCORE.INTRA.norm>
0.0253652

>  <SCORE.RESTR>
0

>  <SCORE.RESTR.CAVITY>
0

>  <SCORE.RESTR.norm>
0

>  <SCORE.SYSTEM>
0

>  <SCORE.SYSTEM.CONST>
0

>  <SCORE.SYSTEM.DIHEDRAL>
0

>  <SCORE.SYSTEM.SOLV>
0

>  <SCORE.SYSTEM.norm>
0

>  <SCORE.heavy>
27

>  <SCORE.norm>
-0.482237

>  <RMSD>
13.141

$$$$
lig.pdb
 OpenBabel11021811493D
libRbt.so/2013.1/901 2013/11/27
 27 29  0  0  0  0  0  0  0  0999 V2000
    8.7461  -13.6656  -14.4858 N   0  0  0  0  0  0  0  0  0  0  0  0
    8.6073  -12.1784  -14.5411 C   0  0  2  0  0  0  0  0  0  0  0  0
    7.1358  -11.8208  -14.7282 C   0  0  0  0  0  0  0  0  0  0  0  0
    6.4261  -11.6472  -13.7444 O   0  0  0  0  0  0  0  0  0  0  0  0
    6.6117  -11.7002  -15.8430 O   0  0  0  0  0  0  0  0  0  0  0  0
    9.4977  -11.5124  -15.6094 C   0  0  0  0  0  0  0  0  0  0  0  0
    9.3503   -9.9780  -15.7833 C   0  0  0  0  0  0  0  0  0  0  0  0
   10.3817   -9.1192  -17.0491 S   0  0  2  0  0  0  0  0  0  0  0  0
   12.0054   -9.1361  -16.2598 C   0  0  0  0  0  0  0  0  0  0  0  0
    9.9560   -7.3774  -16.8331 C   0  0  0  0  0  0  0  0  0  0  0  0
    8.6829   -7.0604  -17.6064 C   0  0  1  0  0  0  0  0  0  0  0  0
    8.8324   -7.2483  -19.0056 O   0  0  0  0  0  0  0  0  0  0  0  0
    7.5310   -7.9585  -17.2432 C   0  0  1  0  0  0  0  0  0  0  0  0
    6.9571   -7.5423  -16.0376 O   0  0  0  0  0  0  0  0  0  0  0  0
    6.6254   -7.7462  -18.4362 C   0  0  1  0  0  0  0  0  0  0  0  0
    5.8704   -6.5633  -18.2702 O   0  0  0  0  0  0  0  0  0  0  0  0
    7.5871   -7.5599  -19.6045 C   0  0  2  0  0  0  0  0  0  0  0  0
    7.6953   -8.7252  -20.5246 N   0  0  0  0  0  0  0  0  0  0  0  0
    8.5842   -9.7619  -20.3903 C   0  0  0  0  0  0  0  0  0  0  0  0
    8.3991  -10.6391  -21.4020 N   0  0  0  0  0  0  0  0  0  0  0  0
    7.4011  -10.1920  -22.1819 C   0  0  0  0  0  0  0  0  0  0  0  0
    6.8131  -10.7069  -23.3272 C   0  0  0  0  0  0  0  0  0  0  0  0
    7.2351  -11.8558  -23.8386 N   0  0  0  0  0  0  0  0  0  0  0  0
    5.7796  -10.0123  -23.9241 N   0  0  0  0  0  0  0  0  0  0  0  0
    5.3211   -8.8130  -23.3940 C   0  0  0  0  0  0  0  0  0  0  0  0
    5.9148   -8.3191  -22.2502 N   0  0  0  0  0  0  0  0  0  0  0  0
    6.9430   -8.9884  -21.6519 C   0  0  0  0  0  0  0  0  0  0  0  0
  2  3  1  6  0  0  0
  2  6  1  0  0  0  0
  2  1  1  0  0  0  0
  4  3  2  0  0  0  0
  5  3  1  0  0  0  0
  6  7  2  0  0  0  0
  8  7  1  1  0  0  0
  8  9  1  0  0  0  0
  8 10  1  0  0  0  0
 11 10  1  1  0  0  0
 11 13  1  0  0  0  0
 12 11  1  0  0  0  0
 12 17  1  0  0  0  0
 13 14  1  1  0  0  0
 13 15  1  0  0  0  0
 15 16  1  1  0  0  0
 17 18  1  1  0  0  0
 17 15  1  0  0  0  0
 18 19  1  0  0  0  0
 20 19  2  0  0  0  0
 21 27  2  0  0  0  0
 21 20  1  0  0  0  0
 22 21  1  0  0  0  0
 23 22  1  0  0  0  0
 24 22  2  0  0  0  0
 24 25  1  0  0  0  0
 25 26  2  0  0  0  0
 26 27  1  0  0  0  0
 27 18  1  0  0  0  0
M  END
>  <CHROM.1>
90.25487210,176.62949186,-73.75999980,-83.64388456,-62.58726553,29.75146245
7.92988115,-9.50314609,-18.50765980,0.71868698,1.21375849,2.55067753

>  <Name>
lig.pdb

>  <RI>
0

>  <Rbt.Current_Directory>
/home/itssahil/PROJECTS/Mol_Feturizer/New_Systems/rnas/4b5r

>  <Rbt.Executable>
rbdock ($Id: //depot/dev/client3/rdock/2013.1/src/exe/rbdock.cxx#4 $)

>  <Rbt.Library>
libRbt.so (2013.1, Build901 2013/11/27)

>  <Rbt.Parameter_File>
/export/apps/rDock/src/rDock_2013.1_src/data/scripts/dock_solv.prm

>  <Rbt.Receptor>
prm/blind_docking_80.prm

>  <SCORE>
-14.7636

>  <SCORE.INTER>
-14.5519

>  <SCORE.INTER.CONST>
1

>  <SCORE.INTER.POLAR>
0

>  <SCORE.INTER.ROT>
6

>  <SCORE.INTER.SOLV>
14.9807

>  <SCORE.INTER.VDW>
-22.2948

>  <SCORE.INTER.norm>
-0.538958

>  <SCORE.INTRA>
-0.21171

>  <SCORE.INTRA.DIHEDRAL>
0.478105

>  <SCORE.INTRA.DIHEDRAL.0>
10.2917

>  <SCORE.INTRA.POLAR>
0

>  <SCORE.INTRA.POLAR.0>
0

>  <SCORE.INTRA.REPUL>
0

>  <SCORE.INTRA.REPUL.0>
0

>  <SCORE.INTRA.SOLV>
-3.24162

>  <SCORE.INTRA.SOLV.lig_0>
-39.6315

>  <SCORE.INTRA.VDW>
1.17005

>  <SCORE.INTRA.VDW.0>
-4.02152

>  <SCORE.INTRA.norm>
-0.00784112

>  <SCORE.RESTR>
0

>  <SCORE.RESTR.CAVITY>
0

>  <SCORE.RESTR.norm>
0

>  <SCORE.SYSTEM>
0

>  <SCORE.SYSTEM.CONST>
0

>  <SCORE.SYSTEM.DIHEDRAL>
0

>  <SCORE.SYSTEM.SOLV>
0

>  <SCORE.SYSTEM.norm>
0

>  <SCORE.heavy>
27

>  <SCORE.norm>
-0.546799

>  <RMSD>
13.169

$$$$
lig.pdb
 OpenBabel11021811493D
libRbt.so/2013.1/901 2013/11/27
 27 29  0  0  0  0  0  0  0  0999 V2000
    4.4161  -14.7579  -17.9662 N   0  0  0  0  0  0  0  0  0  0  0  0
    5.6617  -14.6660  -18.7872 C   0  0  2  0  0  0  0  0  0  0  0  0
    6.8693  -14.5997  -17.8568 C   0  0  0  0  0  0  0  0  0  0  0  0
    7.2788  -15.6245  -17.3240 O   0  0  0  0  0  0  0  0  0  0  0  0
    7.4638  -13.5440  -17.6040 O   0  0  0  0  0  0  0  0  0  0  0  0
    5.6536  -13.5006  -19.7969 C   0  0  0  0  0  0  0  0  0  0  0  0
    5.6806  -13.8799  -21.3009 C   0  0  0  0  0  0  0  0  0  0  0  0
    5.6790  -12.5333  -22.5619 S   0  0  2  0  0  0  0  0  0  0  0  0
    6.4345  -13.3648  -23.9752 C   0  0  0  0  0  0  0  0  0  0  0  0
    7.0552  -11.4780  -22.0578 C   0  0  0  0  0  0  0  0  0  0  0  0
    6.6292  -10.6040  -20.8856 C   0  0  1  0  0  0  0  0  0  0  0  0
    7.2104  -11.0156  -19.6576 O   0  0  0  0  0  0  0  0  0  0  0  0
    7.0646   -9.1702  -21.0277 C   0  0  1  0  0  0  0  0  0  0  0  0
    6.2107   -8.4919  -21.9034 O   0  0  0  0  0  0  0  0  0  0  0  0
    6.9427   -8.6989  -19.5955 C   0  0  1  0  0  0  0  0  0  0  0  0
    5.6023   -8.3556  -19.3081 O   0  0  0  0  0  0  0  0  0  0  0  0
    7.3294   -9.9196  -18.7681 C   0  0  2  0  0  0  0  0  0  0  0  0
    8.6813   -9.8588  -18.1478 N   0  0  0  0  0  0  0  0  0  0  0  0
    9.5281  -10.9263  -17.9852 C   0  0  0  0  0  0  0  0  0  0  0  0
   10.6652  -10.5039  -17.3884 N   0  0  0  0  0  0  0  0  0  0  0  0
   10.5713   -9.1818  -17.1708 C   0  0  0  0  0  0  0  0  0  0  0  0
   11.4471   -8.2673  -16.6058 C   0  0  0  0  0  0  0  0  0  0  0  0
   12.6338   -8.6613  -16.1630 N   0  0  0  0  0  0  0  0  0  0  0  0
   11.0710   -6.9417  -16.5159 N   0  0  0  0  0  0  0  0  0  0  0  0
    9.8354   -6.5133  -16.9843 C   0  0  0  0  0  0  0  0  0  0  0  0
    8.9794   -7.4370  -17.5487 N   0  0  0  0  0  0  0  0  0  0  0  0
    9.3315   -8.7527  -17.6380 C   0  0  0  0  0  0  0  0  0  0  0  0
  2  3  1  1  0  0  0
  2  6  1  0  0  0  0
  2  1  1  0  0  0  0
  4  3  2  0  0  0  0
  5  3  1  0  0  0  0
  6  7  2  0  0  0  0
  8  7  1  1  0  0  0
  8  9  1  0  0  0  0
  8 10  1  0  0  0  0
 11 10  1  6  0  0  0
 11 13  1  0  0  0  0
 12 11  1  0  0  0  0
 12 17  1  0  0  0  0
 13 14  1  6  0  0  0
 13 15  1  0  0  0  0
 15 16  1  1  0  0  0
 17 18  1  6  0  0  0
 17 15  1  0  0  0  0
 18 19  1  0  0  0  0
 20 19  2  0  0  0  0
 21 27  2  0  0  0  0
 21 20  1  0  0  0  0
 22 21  1  0  0  0  0
 23 22  1  0  0  0  0
 24 22  2  0  0  0  0
 24 25  1  0  0  0  0
 25 26  2  0  0  0  0
 26 27  1  0  0  0  0
 27 18  1  0  0  0  0
M  END
>  <CHROM.1>
77.84064232,-115.43137914,155.87816241,-78.26028071,107.01293562,-24.63403500
7.69810704,-10.90036465,-19.18895427,-2.77308782,-0.90752661,-0.50608438

>  <Name>
lig.pdb

>  <RI>
0

>  <Rbt.Current_Directory>
/home/itssahil/PROJECTS/Mol_Feturizer/New_Systems/rnas/4b5r

>  <Rbt.Executable>
rbdock ($Id: //depot/dev/client3/rdock/2013.1/src/exe/rbdock.cxx#4 $)

>  <Rbt.Library>
libRbt.so (2013.1, Build901 2013/11/27)

>  <Rbt.Parameter_File>
/export/apps/rDock/src/rDock_2013.1_src/data/scripts/dock_solv.prm

>  <Rbt.Receptor>
prm/blind_docking_60.prm

>  <SCORE>
-11.7469

>  <SCORE.INTER>
-11.8858

>  <SCORE.INTER.CONST>
1

>  <SCORE.INTER.POLAR>
0

>  <SCORE.INTER.ROT>
6

>  <SCORE.INTER.SOLV>
20.0136

>  <SCORE.INTER.VDW>
-22.195

>  <SCORE.INTER.norm>
-0.440213

>  <SCORE.INTRA>
0.138895

>  <SCORE.INTRA.DIHEDRAL>
1.60347

>  <SCORE.INTRA.DIHEDRAL.0>
10.2917

>  <SCORE.INTRA.POLAR>
0

>  <SCORE.INTRA.POLAR.0>
0

>  <SCORE.INTRA.REPUL>
0

>  <SCORE.INTRA.REPUL.0>
0

>  <SCORE.INTRA.SOLV>
-3.12998

>  <SCORE.INTRA.SOLV.lig_0>
-39.6315

>  <SCORE.INTRA.VDW>
0.902152

>  <SCORE.INTRA.VDW.0>
-4.02152

>  <SCORE.INTRA.norm>
0.00514426

>  <SCORE.RESTR>
0

>  <SCORE.RESTR.CAVITY>
0

>  <SCORE.RESTR.norm>
0

>  <SCORE.SYSTEM>
0

>  <SCORE.SYSTEM.CONST>
0

>  <SCORE.SYSTEM.DIHEDRAL>
0

>  <SCORE.SYSTEM.SOLV>
0

>  <SCORE.SYSTEM.norm>
0

>  <SCORE.heavy>
27

>  <SCORE.norm>
-0.435069

>  <RMSD>
13.176

$$$$
lig.pdb
 OpenBabel11021811493D
libRbt.so/2013.1/901 2013/11/27
 27 29  0  0  0  0  0  0  0  0999 V2000
    6.2134  -11.0927  -14.8812 N   0  0  0  0  0  0  0  0  0  0  0  0
    7.6357  -11.5436  -14.9692 C   0  0  2  0  0  0  0  0  0  0  0  0
    8.0928  -12.0253  -13.5955 C   0  0  0  0  0  0  0  0  0  0  0  0
    9.2186  -12.4906  -13.4619 O   0  0  0  0  0  0  0  0  0  0  0  0
    7.3699  -11.9740  -12.5922 O   0  0  0  0  0  0  0  0  0  0  0  0
    8.5886  -10.4780  -15.5475 C   0  0  0  0  0  0  0  0  0  0  0  0
    9.3263  -10.8415  -16.8629 C   0  0  0  0  0  0  0  0  0  0  0  0
   10.4862   -9.6138  -17.6050 S   0  0  2  0  0  0  0  0  0  0  0  0
   11.9567   -9.8474  -16.5841 C   0  0  0  0  0  0  0  0  0  0  0  0
    9.9081   -8.0333  -16.9495 C   0  0  0  0  0  0  0  0  0  0  0  0
    8.6857   -7.5699  -17.7307 C   0  0  1  0  0  0  0  0  0  0  0  0
    8.8547   -7.6951  -19.1347 O   0  0  0  0  0  0  0  0  0  0  0  0
    7.4545   -8.3859  -17.4417 C   0  0  1  0  0  0  0  0  0  0  0  0
    6.8865   -7.9876  -16.2273 O   0  0  0  0  0  0  0  0  0  0  0  0
    6.6003   -8.0353  -18.6399 C   0  0  1  0  0  0  0  0  0  0  0  0
    5.9418   -6.8036  -18.4249 O   0  0  0  0  0  0  0  0  0  0  0  0
    7.6035   -7.8686  -19.7758 C   0  0  2  0  0  0  0  0  0  0  0  0
    7.6383   -8.9884  -20.7561 N   0  0  0  0  0  0  0  0  0  0  0  0
    8.5190  -10.0404  -20.7277 C   0  0  0  0  0  0  0  0  0  0  0  0
    8.2595  -10.8646  -21.7673 N   0  0  0  0  0  0  0  0  0  0  0  0
    7.2219  -10.3685  -22.4610 C   0  0  0  0  0  0  0  0  0  0  0  0
    6.5572  -10.8198  -23.5911 C   0  0  0  0  0  0  0  0  0  0  0  0
    6.9305  -11.9468  -24.1828 N   0  0  0  0  0  0  0  0  0  0  0  0
    5.4989  -10.0852  -24.0883 N   0  0  0  0  0  0  0  0  0  0  0  0
    5.0910   -8.9084  -23.4732 C   0  0  0  0  0  0  0  0  0  0  0  0
    5.7610   -8.4780  -22.3461 N   0  0  0  0  0  0  0  0  0  0  0  0
    6.8145   -9.1874  -21.8459 C   0  0  0  0  0  0  0  0  0  0  0  0
  2  3  1  1  0  0  0
  2  6  1  0  0  0  0
  2  1  1  0  0  0  0
  4  3  2  0  0  0  0
  5  3  1  0  0  0  0
  6  7  2  0  0  0  0
  8  7  1  1  0  0  0
  8  9  1  0  0  0  0
  8 10  1  0  0  0  0
 11 10  1  1  0  0  0
 11 13  1  0  0  0  0
 12 11  1  0  0  0  0
 12 17  1  0  0  0  0
 13 14  1  1  0  0  0
 13 15  1  0  0  0  0
 15 16  1  1  0  0  0
 17 18  1  6  0  0  0
 17 15  1  0  0  0  0
 18 19  1  0  0  0  0
 20 19  2  0  0  0  0
 21 27  2  0  0  0  0
 21 20  1  0  0  0  0
 22 21  1  0  0  0  0
 23 22  1  0  0  0  0
 24 22  2  0  0  0  0
 24 25  1  0  0  0  0
 25 26  2  0  0  0  0
 26 27  1  0  0  0  0
 27 18  1  0  0  0  0
M  END
>  <CHROM.1>
177.03132272,-118.67033983,79.38512544,-78.97464376,-45.96639269,23.39834471
7.89287893,-9.68182474,-18.57506926,0.63469124,1.25557666,2.62266463

>  <Name>
lig.pdb

>  <RI>
0

>  <Rbt.Current_Directory>
/home/itssahil/PROJECTS/Mol_Feturizer/New_Systems/rnas/4b5r

>  <Rbt.Executable>
rbdock ($Id: //depot/dev/client3/rdock/2013.1/src/exe/rbdock.cxx#4 $)

>  <Rbt.Library>
libRbt.so (2013.1, Build901 2013/11/27)

>  <Rbt.Parameter_File>
/export/apps/rDock/src/rDock_2013.1_src/data/scripts/dock_solv.prm

>  <Rbt.Receptor>
prm/blind_docking_100.prm

>  <SCORE>
-13.9005

>  <SCORE.INTER>
-13.7313

>  <SCORE.INTER.CONST>
1

>  <SCORE.INTER.POLAR>
0

>  <SCORE.INTER.ROT>
6

>  <SCORE.INTER.SOLV>
15.6381

>  <SCORE.INTER.VDW>
-21.9669

>  <SCORE.INTER.norm>
-0.508568

>  <SCORE.INTRA>
-0.169192

>  <SCORE.INTRA.DIHEDRAL>
-1.02212

>  <SCORE.INTRA.DIHEDRAL.0>
10.2917

>  <SCORE.INTRA.POLAR>
0

>  <SCORE.INTRA.POLAR.0>
0

>  <SCORE.INTRA.REPUL>
0

>  <SCORE.INTRA.REPUL.0>
0

>  <SCORE.INTRA.SOLV>
-1.45244

>  <SCORE.INTRA.SOLV.lig_0>
-39.6315

>  <SCORE.INTRA.VDW>
1.06809

>  <SCORE.INTRA.VDW.0>
-4.02152

>  <SCORE.INTRA.norm>
-0.00626635

>  <SCORE.RESTR>
0

>  <SCORE.RESTR.CAVITY>
0

>  <SCORE.RESTR.norm>
0

>  <SCORE.SYSTEM>
0

>  <SCORE.SYSTEM.CONST>
0

>  <SCORE.SYSTEM.DIHEDRAL>
0

>  <SCORE.SYSTEM.SOLV>
0

>  <SCORE.SYSTEM.norm>
0

>  <SCORE.heavy>
27

>  <SCORE.norm>
-0.514834

>  <RMSD>
13.182

$$$$
lig.pdb
 OpenBabel11021811493D
libRbt.so/2013.1/901 2013/11/27
 27 29  0  0  0  0  0  0  0  0999 V2000
    7.8680  -11.7946  -14.1311 N   0  0  0  0  0  0  0  0  0  0  0  0
    8.2446  -12.4874  -15.4008 C   0  0  2  0  0  0  0  0  0  0  0  0
    8.7773  -13.8788  -15.0716 C   0  0  0  0  0  0  0  0  0  0  0  0
    9.9125  -14.0017  -14.6265 O   0  0  0  0  0  0  0  0  0  0  0  0
    8.1115  -14.9086  -15.2389 O   0  0  0  0  0  0  0  0  0  0  0  0
    9.2340  -11.6881  -16.2727 C   0  0  0  0  0  0  0  0  0  0  0  0
    9.2263  -10.1462  -16.1025 C   0  0  0  0  0  0  0  0  0  0  0  0
   10.3811   -9.1294  -17.1203 S   0  0  2  0  0  0  0  0  0  0  0  0
   11.8773   -9.1679  -16.1108 C   0  0  0  0  0  0  0  0  0  0  0  0
    9.8444   -7.4340  -16.8051 C   0  0  0  0  0  0  0  0  0  0  0  0
    8.5835   -7.1374  -17.6061 C   0  0  1  0  0  0  0  0  0  0  0  0
    8.7666   -7.3222  -19.0017 O   0  0  0  0  0  0  0  0  0  0  0  0
    7.4386   -8.0542  -17.2682 C   0  0  1  0  0  0  0  0  0  0  0  0
    6.8318   -7.6479  -16.0755 O   0  0  0  0  0  0  0  0  0  0  0  0
    6.5561   -7.8562  -18.4807 C   0  0  1  0  0  0  0  0  0  0  0  0
    5.7784   -6.6857  -18.3312 O   0  0  0  0  0  0  0  0  0  0  0  0
    7.5399   -7.6537  -19.6277 C   0  0  2  0  0  0  0  0  0  0  0  0
    7.6871   -8.8168  -20.5453 N   0  0  0  0  0  0  0  0  0  0  0  0
    8.5711   -9.8527  -20.3771 C   0  0  0  0  0  0  0  0  0  0  0  0
    8.4287  -10.7278  -21.3976 N   0  0  0  0  0  0  0  0  0  0  0  0
    7.4629  -10.2800  -22.2166 C   0  0  0  0  0  0  0  0  0  0  0  0
    6.9229  -10.7928  -23.3862 C   0  0  0  0  0  0  0  0  0  0  0  0
    7.3669  -11.9400  -23.8826 N   0  0  0  0  0  0  0  0  0  0  0  0
    5.9139  -10.0981  -24.0233 N   0  0  0  0  0  0  0  0  0  0  0  0
    5.4325   -8.9005  -23.5096 C   0  0  0  0  0  0  0  0  0  0  0  0
    5.9783   -8.4087  -22.3414 N   0  0  0  0  0  0  0  0  0  0  0  0
    6.9820   -9.0781  -21.7030 C   0  0  0  0  0  0  0  0  0  0  0  0
  2  3  1  1  0  0  0
  2  6  1  0  0  0  0
  2  1  1  0  0  0  0
  4  3  2  0  0  0  0
  5  3  1  0  0  0  0
  6  7  2  0  0  0  0
  8  7  1  1  0  0  0
  8  9  1  0  0  0  0
  8 10  1  0  0  0  0
 11 10  1  1  0  0  0
 11 13  1  0  0  0  0
 12 11  1  0  0  0  0
 12 17  1  0  0  0  0
 13 14  1  1  0  0  0
 13 15  1  0  0  0  0
 15 16  1  1  0  0  0
 17 18  1  1  0  0  0
 17 15  1  0  0  0  0
 18 19  1  0  0  0  0
 20 19  2  0  0  0  0
 21 27  2  0  0  0  0
 21 20  1  0  0  0  0
 22 21  1  0  0  0  0
 23 22  1  0  0  0  0
 24 22  2  0  0  0  0
 24 25  1  0  0  0  0
 25 26  2  0  0  0  0
 26 27  1  0  0  0  0
 27 18  1  0  0  0  0
M  END
>  <CHROM.1>
-76.63043949,-25.86071005,-85.98098213,-77.37933425,-57.89164230,31.14720472
8.11970061,-9.80797617,-18.60126987,0.22285237,1.23574712,-3.05082607

>  <Name>
lig.pdb

>  <RI>
0

>  <Rbt.Current_Directory>
/home/itssahil/PROJECTS/Mol_Feturizer/New_Systems/rnas/4b5r

>  <Rbt.Executable>
rbdock ($Id: //depot/dev/client3/rdock/2013.1/src/exe/rbdock.cxx#4 $)

>  <Rbt.Library>
libRbt.so (2013.1, Build901 2013/11/27)

>  <Rbt.Parameter_File>
/export/apps/rDock/src/rDock_2013.1_src/data/scripts/dock_solv.prm

>  <Rbt.Receptor>
prm/blind_docking_100.prm

>  <SCORE>
-14.4901

>  <SCORE.INTER>
-14.1381

>  <SCORE.INTER.CONST>
1

>  <SCORE.INTER.POLAR>
0

>  <SCORE.INTER.ROT>
6

>  <SCORE.INTER.SOLV>
15.7632

>  <SCORE.INTER.VDW>
-22.2798

>  <SCORE.INTER.norm>
-0.523633

>  <SCORE.INTRA>
-0.352019

>  <SCORE.INTRA.DIHEDRAL>
-1.20862

>  <SCORE.INTRA.DIHEDRAL.0>
10.2917

>  <SCORE.INTRA.POLAR>
0

>  <SCORE.INTRA.POLAR.0>
0

>  <SCORE.INTRA.REPUL>
0

>  <SCORE.INTRA.REPUL.0>
0

>  <SCORE.INTRA.SOLV>
-2.26536

>  <SCORE.INTRA.SOLV.lig_0>
-39.6315

>  <SCORE.INTRA.VDW>
1.38497

>  <SCORE.INTRA.VDW.0>
-4.02152

>  <SCORE.INTRA.norm>
-0.0130377

>  <SCORE.RESTR>
0

>  <SCORE.RESTR.CAVITY>
0

>  <SCORE.RESTR.norm>
0

>  <SCORE.SYSTEM>
0

>  <SCORE.SYSTEM.CONST>
0

>  <SCORE.SYSTEM.DIHEDRAL>
0

>  <SCORE.SYSTEM.SOLV>
0

>  <SCORE.SYSTEM.norm>
0

>  <SCORE.heavy>
27

>  <SCORE.norm>
-0.53667

>  <RMSD>
13.183

$$$$
lig.pdb
 OpenBabel11021811493D
libRbt.so/2013.1/901 2013/11/27
 27 29  0  0  0  0  0  0  0  0999 V2000
    2.8292   -7.7899  -22.3241 N   0  0  0  0  0  0  0  0  0  0  0  0
    3.2952   -7.1434  -21.0597 C   0  0  2  0  0  0  0  0  0  0  0  0
    3.5331   -5.6582  -21.3164 C   0  0  0  0  0  0  0  0  0  0  0  0
    4.3886   -5.3137  -22.1233 O   0  0  0  0  0  0  0  0  0  0  0  0
    2.8983   -4.7676  -20.7370 O   0  0  0  0  0  0  0  0  0  0  0  0
    4.5325   -7.8211  -20.4369 C   0  0  0  0  0  0  0  0  0  0  0  0
    5.1558   -9.0000  -21.2296 C   0  0  0  0  0  0  0  0  0  0  0  0
    6.6342   -9.8593  -20.5373 S   0  0  2  0  0  0  0  0  0  0  0  0
    7.6528   -8.4607  -20.0216 C   0  0  0  0  0  0  0  0  0  0  0  0
    7.5497  -10.3782  -22.0051 C   0  0  0  0  0  0  0  0  0  0  0  0
    6.9710  -11.6830  -22.5363 C   0  0  1  0  0  0  0  0  0  0  0  0
    7.2144  -12.7813  -21.6705 O   0  0  0  0  0  0  0  0  0  0  0  0
    5.4721  -11.6544  -22.6696 C   0  0  1  0  0  0  0  0  0  0  0  0
    5.1045  -10.9655  -23.8299 O   0  0  0  0  0  0  0  0  0  0  0  0
    5.1703  -13.1352  -22.7377 C   0  0  1  0  0  0  0  0  0  0  0  0
    5.3664  -13.6123  -24.0533 O   0  0  0  0  0  0  0  0  0  0  0  0
    6.2105  -13.7692  -21.8209 C   0  0  2  0  0  0  0  0  0  0  0  0
    5.6925  -14.2322  -20.5043 N   0  0  0  0  0  0  0  0  0  0  0  0
    5.1838  -15.4803  -20.2466 C   0  0  0  0  0  0  0  0  0  0  0  0
    4.8107  -15.5483  -18.9490 N   0  0  0  0  0  0  0  0  0  0  0  0
    5.0775  -14.3698  -18.3624 C   0  0  0  0  0  0  0  0  0  0  0  0
    4.9025  -13.9159  -17.0640 C   0  0  0  0  0  0  0  0  0  0  0  0
    4.3828  -14.7131  -16.1398 N   0  0  0  0  0  0  0  0  0  0  0  0
    5.2816  -12.6272  -16.7442 N   0  0  0  0  0  0  0  0  0  0  0  0
    5.8360  -11.7848  -17.6995 C   0  0  0  0  0  0  0  0  0  0  0  0
    6.0078  -12.2560  -18.9852 N   0  0  0  0  0  0  0  0  0  0  0  0
    5.6310  -13.5243  -19.3207 C   0  0  0  0  0  0  0  0  0  0  0  0
  2  3  1  6  0  0  0
  2  6  1  0  0  0  0
  2  1  1  0  0  0  0
  4  3  2  0  0  0  0
  5  3  1  0  0  0  0
  6  7  2  0  0  0  0
  8  7  1  6  0  0  0
  8  9  1  0  0  0  0
  8 10  1  0  0  0  0
 11 10  1  1  0  0  0
 11 13  1  0  0  0  0
 12 11  1  0  0  0  0
 12 17  1  0  0  0  0
 13 14  1  6  0  0  0
 13 15  1  0  0  0  0
 15 16  1  6  0  0  0
 17 18  1  1  0  0  0
 17 15  1  0  0  0  0
 18 19  1  0  0  0  0
 20 19  2  0  0  0  0
 21 27  2  0  0  0  0
 21 20  1  0  0  0  0
 22 21  1  0  0  0  0
 23 22  1  0  0  0  0
 24 22  2  0  0  0  0
 24 25  1  0  0  0  0
 25 26  2  0  0  0  0
 26 27  1  0  0  0  0
 27 18  1  0  0  0  0
M  END
>  <CHROM.1>
-62.52697784,3.28273627,-45.22053664,-82.74394808,-68.66303397,-151.05071220
5.35908946,-11.06614528,-20.62479029,-2.15348604,-1.29057774,2.28640711

>  <Name>
lig.pdb

>  <RI>
0

>  <Rbt.Current_Directory>
/home/itssahil/PROJECTS/Mol_Feturizer/New_Systems/rnas/4b5r

>  <Rbt.Executable>
rbdock ($Id: //depot/dev/client3/rdock/2013.1/src/exe/rbdock.cxx#4 $)

>  <Rbt.Library>
libRbt.so (2013.1, Build901 2013/11/27)

>  <Rbt.Parameter_File>
/export/apps/rDock/src/rDock_2013.1_src/data/scripts/dock_solv.prm

>  <Rbt.Receptor>
prm/blind_docking_40.prm

>  <SCORE>
-12.5564

>  <SCORE.INTER>
-11.8354

>  <SCORE.INTER.CONST>
1

>  <SCORE.INTER.POLAR>
0

>  <SCORE.INTER.ROT>
6

>  <SCORE.INTER.SOLV>
14.384

>  <SCORE.INTER.VDW>
-20.285

>  <SCORE.INTER.norm>
-0.43835

>  <SCORE.INTRA>
-0.720917

>  <SCORE.INTRA.DIHEDRAL>
-2.59687

>  <SCORE.INTRA.DIHEDRAL.0>
10.2917

>  <SCORE.INTRA.POLAR>
0

>  <SCORE.INTRA.POLAR.0>
0

>  <SCORE.INTRA.REPUL>
0

>  <SCORE.INTRA.REPUL.0>
0

>  <SCORE.INTRA.SOLV>
-0.943946

>  <SCORE.INTRA.SOLV.lig_0>
-39.6315

>  <SCORE.INTRA.VDW>
1.04949

>  <SCORE.INTRA.VDW.0>
-4.02152

>  <SCORE.INTRA.norm>
-0.0267006

>  <SCORE.RESTR>
0

>  <SCORE.RESTR.CAVITY>
0

>  <SCORE.RESTR.norm>
0

>  <SCORE.SYSTEM>
0

>  <SCORE.SYSTEM.CONST>
0

>  <SCORE.SYSTEM.DIHEDRAL>
0

>  <SCORE.SYSTEM.SOLV>
0

>  <SCORE.SYSTEM.norm>
0

>  <SCORE.heavy>
27

>  <SCORE.norm>
-0.46505

>  <RMSD>
13.245

$$$$
lig.pdb
 OpenBabel11021811493D
libRbt.so/2013.1/901 2013/11/27
 27 29  0  0  0  0  0  0  0  0999 V2000
   -0.6102   -4.8135  -16.3014 N   0  0  0  0  0  0  0  0  0  0  0  0
   -0.7736   -4.6168  -14.8288 C   0  0  2  0  0  0  0  0  0  0  0  0
    0.4641   -5.1500  -14.1133 C   0  0  0  0  0  0  0  0  0  0  0  0
    0.3413   -5.7153  -13.0330 O   0  0  0  0  0  0  0  0  0  0  0  0
    1.6070   -5.0341  -14.5741 O   0  0  0  0  0  0  0  0  0  0  0  0
   -2.0700   -5.2301  -14.2620 C   0  0  0  0  0  0  0  0  0  0  0  0
   -2.7562   -6.3263  -15.1187 C   0  0  0  0  0  0  0  0  0  0  0  0
   -4.3147   -7.0970  -14.5016 S   0  0  2  0  0  0  0  0  0  0  0  0
   -4.4518   -8.5397  -15.5782 C   0  0  0  0  0  0  0  0  0  0  0  0
   -5.6115   -6.0611  -15.2136 C   0  0  0  0  0  0  0  0  0  0  0  0
   -6.9478   -6.3910  -14.5617 C   0  0  1  0  0  0  0  0  0  0  0  0
   -7.2448   -7.7788  -14.5964 O   0  0  0  0  0  0  0  0  0  0  0  0
   -6.9916   -6.0496  -13.0965 C   0  0  1  0  0  0  0  0  0  0  0  0
   -7.1960   -4.6764  -12.9276 O   0  0  0  0  0  0  0  0  0  0  0  0
   -8.1717   -6.8846  -12.6511 C   0  0  1  0  0  0  0  0  0  0  0  0
   -9.3805   -6.2100  -12.9347 O   0  0  0  0  0  0  0  0  0  0  0  0
   -8.0888   -8.1370  -13.5166 C   0  0  2  0  0  0  0  0  0  0  0  0
   -7.5993   -9.3564  -12.8168 N   0  0  0  0  0  0  0  0  0  0  0  0
   -6.3220   -9.8527  -12.8878 C   0  0  0  0  0  0  0  0  0  0  0  0
   -6.2361  -10.9673  -12.1278 N   0  0  0  0  0  0  0  0  0  0  0  0
   -7.4322  -11.1945  -11.5606 C   0  0  0  0  0  0  0  0  0  0  0  0
   -7.8798  -12.1825  -10.6969 C   0  0  0  0  0  0  0  0  0  0  0  0
   -7.0549  -13.1358  -10.2841 N   0  0  0  0  0  0  0  0  0  0  0  0
   -9.1920  -12.1578  -10.2675 N   0  0  0  0  0  0  0  0  0  0  0  0
  -10.0642  -11.1601  -10.6840 C   0  0  0  0  0  0  0  0  0  0  0  0
   -9.5991  -10.1819  -11.5392 N   0  0  0  0  0  0  0  0  0  0  0  0
   -8.3074  -10.1958  -11.9802 C   0  0  0  0  0  0  0  0  0  0  0  0
  2  3  1  1  0  0  0
  2  6  1  0  0  0  0
  2  1  1  0  0  0  0
  4  3  2  0  0  0  0
  5  3  1  0  0  0  0
  6  7  2  0  0  0  0
  8  7  1  6  0  0  0
  8  9  1  0  0  0  0
  8 10  1  0  0  0  0
 11 10  1  1  0  0  0
 11 13  1  0  0  0  0
 12 11  1  0  0  0  0
 12 17  1  0  0  0  0
 13 14  1  6  0  0  0
 13 15  1  0  0  0  0
 15 16  1  6  0  0  0
 17 18  1  1  0  0  0
 17 15  1  0  0  0  0
 18 19  1  0  0  0  0
 20 19  2  0  0  0  0
 21 27  2  0  0  0  0
 21 20  1  0  0  0  0
 22 21  1  0  0  0  0
 23 22  1  0  0  0  0
 24 22  2  0  0  0  0
 24 25  1  0  0  0  0
 25 26  2  0  0  0  0
 26 27  1  0  0  0  0
 27 18  1  0  0  0  0
M  END
>  <CHROM.1>
-143.10901917,19.80634007,-165.84226184,-168.16016618,-52.37277462,19.16972940
-5.52241349,-7.85732969,-13.30187425,0.67779656,0.06587242,-0.46068613

>  <Name>
lig.pdb

>  <RI>
0

>  <Rbt.Current_Directory>
/home/itssahil/PROJECTS/Mol_Feturizer/New_Systems/rnas/4b5r

>  <Rbt.Executable>
rbdock ($Id: //depot/dev/client3/rdock/2013.1/src/exe/rbdock.cxx#4 $)

>  <Rbt.Library>
libRbt.so (2013.1, Build901 2013/11/27)

>  <Rbt.Parameter_File>
/export/apps/rDock/src/rDock_2013.1_src/data/scripts/dock_solv.prm

>  <Rbt.Receptor>
prm/blind_docking_20.prm

>  <SCORE>
-6.70762

>  <SCORE.INTER>
-7.20622

>  <SCORE.INTER.CONST>
1

>  <SCORE.INTER.POLAR>
0

>  <SCORE.INTER.ROT>
6

>  <SCORE.INTER.SOLV>
17.5584

>  <SCORE.INTER.VDW>
-18.2569

>  <SCORE.INTER.norm>
-0.266897

>  <SCORE.INTRA>
0.487226

>  <SCORE.INTRA.DIHEDRAL>
-0.404679

>  <SCORE.INTRA.DIHEDRAL.0>
10.2917

>  <SCORE.INTRA.POLAR>
0

>  <SCORE.INTRA.POLAR.0>
0

>  <SCORE.INTRA.REPUL>
0

>  <SCORE.INTRA.REPUL.0>
0

>  <SCORE.INTRA.SOLV>
-2.24507

>  <SCORE.INTRA.SOLV.lig_0>
-39.6315

>  <SCORE.INTRA.VDW>
1.8121

>  <SCORE.INTRA.VDW.0>
-4.02152

>  <SCORE.INTRA.norm>
0.0180454

>  <SCORE.RESTR>
0.0113739

>  <SCORE.RESTR.CAVITY>
0.0113739

>  <SCORE.RESTR.norm>
0.000421257

>  <SCORE.SYSTEM>
0

>  <SCORE.SYSTEM.CONST>
0

>  <SCORE.SYSTEM.DIHEDRAL>
0

>  <SCORE.SYSTEM.SOLV>
0

>  <SCORE.SYSTEM.norm>
0

>  <SCORE.heavy>
27

>  <SCORE.norm>
-0.24843

>  <RMSD>
13.278

$$$$
lig.pdb
 OpenBabel11021811493D
libRbt.so/2013.1/901 2013/11/27
 27 29  0  0  0  0  0  0  0  0999 V2000
    6.0055  -14.5566  -14.4884 N   0  0  0  0  0  0  0  0  0  0  0  0
    7.1725  -14.8545  -15.3736 C   0  0  2  0  0  0  0  0  0  0  0  0
    7.8998  -16.0866  -14.8434 C   0  0  0  0  0  0  0  0  0  0  0  0
    8.3945  -16.0609  -13.7225 O   0  0  0  0  0  0  0  0  0  0  0  0
    8.0224  -17.1277  -15.5015 O   0  0  0  0  0  0  0  0  0  0  0  0
    8.1307  -13.6605  -15.5581 C   0  0  0  0  0  0  0  0  0  0  0  0
    7.8040  -12.6748  -16.7106 C   0  0  0  0  0  0  0  0  0  0  0  0
    8.9140  -11.2281  -16.9903 S   0  0  2  0  0  0  0  0  0  0  0  0
    9.5581  -10.9438  -15.3278 C   0  0  0  0  0  0  0  0  0  0  0  0
    7.7719   -9.8348  -17.1169 C   0  0  0  0  0  0  0  0  0  0  0  0
    7.2017   -9.7650  -18.5273 C   0  0  1  0  0  0  0  0  0  0  0  0
    6.0850   -8.8936  -18.6228 O   0  0  0  0  0  0  0  0  0  0  0  0
    8.1763   -9.2134  -19.5329 C   0  0  1  0  0  0  0  0  0  0  0  0
    9.0958  -10.1998  -19.9039 O   0  0  0  0  0  0  0  0  0  0  0  0
    7.2342   -8.8290  -20.6522 C   0  0  1  0  0  0  0  0  0  0  0  0
    6.9262   -9.9610  -21.4401 O   0  0  0  0  0  0  0  0  0  0  0  0
    5.9713   -8.3678  -19.9332 C   0  0  2  0  0  0  0  0  0  0  0  0
    5.7560   -6.8948  -19.9183 N   0  0  0  0  0  0  0  0  0  0  0  0
    6.3562   -6.0144  -19.0537 C   0  0  0  0  0  0  0  0  0  0  0  0
    5.9291   -4.7616  -19.3286 N   0  0  0  0  0  0  0  0  0  0  0  0
    5.0710   -4.8164  -20.3605 C   0  0  0  0  0  0  0  0  0  0  0  0
    4.3630   -3.8335  -21.0351 C   0  0  0  0  0  0  0  0  0  0  0  0
    4.4801   -2.5606  -20.6806 N   0  0  0  0  0  0  0  0  0  0  0  0
    3.5404   -4.1955  -22.0835 N   0  0  0  0  0  0  0  0  0  0  0  0
    3.4157   -5.5235  -22.4717 C   0  0  0  0  0  0  0  0  0  0  0  0
    4.1326   -6.4872  -21.7921 N   0  0  0  0  0  0  0  0  0  0  0  0
    4.9440   -6.1480  -20.7481 C   0  0  0  0  0  0  0  0  0  0  0  0
  2  3  1  1  0  0  0
  2  6  1  0  0  0  0
  2  1  1  0  0  0  0
  4  3  2  0  0  0  0
  5  3  1  0  0  0  0
  6  7  2  0  0  0  0
  8  7  1  1  0  0  0
  8  9  1  0  0  0  0
  8 10  1  0  0  0  0
 11 10  1  1  0  0  0
 11 13  1  0  0  0  0
 12 11  1  0  0  0  0
 12 17  1  0  0  0  0
 13 14  1  6  0  0  0
 13 15  1  0  0  0  0
 15 16  1  6  0  0  0
 17 18  1  1  0  0  0
 17 15  1  0  0  0  0
 18 19  1  0  0  0  0
 20 19  2  0  0  0  0
 21 27  2  0  0  0  0
 21 20  1  0  0  0  0
 22 21  1  0  0  0  0
 23 22  1  0  0  0  0
 24 22  2  0  0  0  0
 24 25  1  0  0  0  0
 25 26  2  0  0  0  0
 26 27  1  0  0  0  0
 27 18  1  0  0  0  0
M  END
>  <CHROM.1>
-61.50656470,-87.76693408,-28.26020320,-81.95042949,166.79148475,38.49755061
6.76438245,-9.57889260,-18.46583682,1.20848538,0.64935608,2.82656631

>  <Name>
lig.pdb

>  <RI>
0

>  <Rbt.Current_Directory>
/home/itssahil/PROJECTS/Mol_Feturizer/New_Systems/rnas/4b5r

>  <Rbt.Executable>
rbdock ($Id: //depot/dev/client3/rdock/2013.1/src/exe/rbdock.cxx#4 $)

>  <Rbt.Library>
libRbt.so (2013.1, Build901 2013/11/27)

>  <Rbt.Parameter_File>
/export/apps/rDock/src/rDock_2013.1_src/data/scripts/dock_solv.prm

>  <Rbt.Receptor>
prm/blind_docking_40.prm

>  <SCORE>
-10.2705

>  <SCORE.INTER>
-10.4403

>  <SCORE.INTER.CONST>
1

>  <SCORE.INTER.POLAR>
0

>  <SCORE.INTER.ROT>
6

>  <SCORE.INTER.SOLV>
12.7632

>  <SCORE.INTER.VDW>
-18.8146

>  <SCORE.INTER.norm>
-0.386678

>  <SCORE.INTRA>
0.169824

>  <SCORE.INTRA.DIHEDRAL>
-0.758759

>  <SCORE.INTRA.DIHEDRAL.0>
10.2917

>  <SCORE.INTRA.POLAR>
0

>  <SCORE.INTRA.POLAR.0>
0

>  <SCORE.INTRA.REPUL>
0

>  <SCORE.INTRA.REPUL.0>
0

>  <SCORE.INTRA.SOLV>
-2.97943

>  <SCORE.INTRA.SOLV.lig_0>
-39.6315

>  <SCORE.INTRA.VDW>
2.03892

>  <SCORE.INTRA.VDW.0>
-4.02152

>  <SCORE.INTRA.norm>
0.00628976

>  <SCORE.RESTR>
0

>  <SCORE.RESTR.CAVITY>
0

>  <SCORE.RESTR.norm>
0

>  <SCORE.SYSTEM>
0

>  <SCORE.SYSTEM.CONST>
0

>  <SCORE.SYSTEM.DIHEDRAL>
0

>  <SCORE.SYSTEM.SOLV>
0

>  <SCORE.SYSTEM.norm>
0

>  <SCORE.heavy>
27

>  <SCORE.norm>
-0.380388

>  <RMSD>
13.293

$$$$
lig.pdb
 OpenBabel11021811493D
libRbt.so/2013.1/901 2013/11/27
 27 29  0  0  0  0  0  0  0  0999 V2000
    6.7485   -8.1705  -26.6819 N   0  0  0  0  0  0  0  0  0  0  0  0
    5.8807   -8.8576  -25.6774 C   0  0  2  0  0  0  0  0  0  0  0  0
    4.6591   -7.9882  -25.3949 C   0  0  0  0  0  0  0  0  0  0  0  0
    4.1471   -8.0086  -24.2817 O   0  0  0  0  0  0  0  0  0  0  0  0
    4.1464   -7.2543  -26.2494 O   0  0  0  0  0  0  0  0  0  0  0  0
    6.6203   -9.2430  -24.3804 C   0  0  0  0  0  0  0  0  0  0  0  0
    6.8034  -10.7587  -24.1052 C   0  0  0  0  0  0  0  0  0  0  0  0
    7.6741  -11.2885  -22.5674 S   0  0  2  0  0  0  0  0  0  0  0  0
    7.8293  -13.0668  -22.8381 C   0  0  0  0  0  0  0  0  0  0  0  0
    6.3700  -11.2832  -21.3179 C   0  0  0  0  0  0  0  0  0  0  0  0
    6.9587  -11.6429  -19.9601 C   0  0  1  0  0  0  0  0  0  0  0  0
    7.3403  -10.4997  -19.2098 O   0  0  0  0  0  0  0  0  0  0  0  0
    5.9828  -12.3543  -19.0619 C   0  0  1  0  0  0  0  0  0  0  0  0
    5.8847  -13.7007  -19.4274 O   0  0  0  0  0  0  0  0  0  0  0  0
    6.6436  -12.1511  -17.7164 C   0  0  1  0  0  0  0  0  0  0  0  0
    7.6596  -13.1139  -17.5223 O   0  0  0  0  0  0  0  0  0  0  0  0
    7.2828  -10.7709  -17.8207 C   0  0  2  0  0  0  0  0  0  0  0  0
    6.5769   -9.6909  -17.0780 N   0  0  0  0  0  0  0  0  0  0  0  0
    5.3771   -9.8298  -16.4267 C   0  0  0  0  0  0  0  0  0  0  0  0
    5.0382   -8.6482  -15.8642 N   0  0  0  0  0  0  0  0  0  0  0  0
    6.0015   -7.7517  -16.1330 C   0  0  0  0  0  0  0  0  0  0  0  0
    6.1521   -6.4167  -15.7902 C   0  0  0  0  0  0  0  0  0  0  0  0
    5.2312   -5.8051  -15.0570 N   0  0  0  0  0  0  0  0  0  0  0  0
    7.2747   -5.7346  -16.2158 N   0  0  0  0  0  0  0  0  0  0  0  0
    8.2518   -6.3650  -16.9759 C   0  0  0  0  0  0  0  0  0  0  0  0
    8.0873   -7.6957  -17.3025 N   0  0  0  0  0  0  0  0  0  0  0  0
    6.9798   -8.3830  -16.8972 C   0  0  0  0  0  0  0  0  0  0  0  0
  2  3  1  1  0  0  0
  2  6  1  0  0  0  0
  2  1  1  0  0  0  0
  4  3  2  0  0  0  0
  5  3  1  0  0  0  0
  6  7  2  0  0  0  0
  8  7  1  6  0  0  0
  8  9  1  0  0  0  0
  8 10  1  0  0  0  0
 11 10  1  6  0  0  0
 11 13  1  0  0  0  0
 12 11  1  0  0  0  0
 12 17  1  0  0  0  0
 13 14  1  6  0  0  0
 13 15  1  0  0  0  0
 15 16  1  6  0  0  0
 17 18  1  1  0  0  0
 17 15  1  0  0  0  0
 18 19  1  0  0  0  0
 20 19  2  0  0  0  0
 21 27  2  0  0  0  0
 21 20  1  0  0  0  0
 22 21  1  0  0  0  0
 23 22  1  0  0  0  0
 24 22  2  0  0  0  0
 24 25  1  0  0  0  0
 25 26  2  0  0  0  0
 26 27  1  0  0  0  0
 27 18  1  0  0  0  0
M  END
>  <CHROM.1>
-148.28126016,-112.96628850,-172.27718795,-177.35941049,92.91871741,113.85696963
6.48072618,-9.63893742,-20.11119521,1.87866073,1.34502476,-1.98570726

>  <Name>
lig.pdb

>  <RI>
0

>  <Rbt.Current_Directory>
/home/itssahil/PROJECTS/Mol_Feturizer/New_Systems/rnas/4b5r

>  <Rbt.Executable>
rbdock ($Id: //depot/dev/client3/rdock/2013.1/src/exe/rbdock.cxx#4 $)

>  <Rbt.Library>
libRbt.so (2013.1, Build901 2013/11/27)

>  <Rbt.Parameter_File>
/export/apps/rDock/src/rDock_2013.1_src/data/scripts/dock_solv.prm

>  <Rbt.Receptor>
prm/blind_docking_60.prm

>  <SCORE>
-9.83528

>  <SCORE.INTER>
-11.0303

>  <SCORE.INTER.CONST>
1

>  <SCORE.INTER.POLAR>
0

>  <SCORE.INTER.ROT>
6

>  <SCORE.INTER.SOLV>
16.1107

>  <SCORE.INTER.VDW>
-20.3238

>  <SCORE.INTER.norm>
-0.408531

>  <SCORE.INTRA>
1.19505

>  <SCORE.INTRA.DIHEDRAL>
0.868733

>  <SCORE.INTRA.DIHEDRAL.0>
10.2917

>  <SCORE.INTRA.POLAR>
0

>  <SCORE.INTRA.POLAR.0>
0

>  <SCORE.INTRA.REPUL>
0.00735693

>  <SCORE.INTRA.REPUL.0>
0

>  <SCORE.INTRA.SOLV>
-3.1506

>  <SCORE.INTRA.SOLV.lig_0>
-39.6315

>  <SCORE.INTRA.VDW>
2.2992

>  <SCORE.INTRA.VDW.0>
-4.02152

>  <SCORE.INTRA.norm>
0.0442611

>  <SCORE.RESTR>
0

>  <SCORE.RESTR.CAVITY>
0

>  <SCORE.RESTR.norm>
0

>  <SCORE.SYSTEM>
0

>  <SCORE.SYSTEM.CONST>
0

>  <SCORE.SYSTEM.DIHEDRAL>
0

>  <SCORE.SYSTEM.SOLV>
0

>  <SCORE.SYSTEM.norm>
0

>  <SCORE.heavy>
27

>  <SCORE.norm>
-0.36427

>  <RMSD>
13.322

$$$$
lig.pdb
 OpenBabel11021811493D
libRbt.so/2013.1/901 2013/11/27
 27 29  0  0  0  0  0  0  0  0999 V2000
    0.1195   -4.1606  -14.0791 N   0  0  0  0  0  0  0  0  0  0  0  0
   -0.3007   -5.3874  -14.8223 C   0  0  2  0  0  0  0  0  0  0  0  0
   -0.5068   -5.0347  -16.2924 C   0  0  0  0  0  0  0  0  0  0  0  0
   -0.2071   -5.8494  -17.1573 O   0  0  0  0  0  0  0  0  0  0  0  0
   -0.9647   -3.9461  -16.6629 O   0  0  0  0  0  0  0  0  0  0  0  0
   -1.5399   -6.0814  -14.2218 C   0  0  0  0  0  0  0  0  0  0  0  0
   -2.8426   -6.0341  -15.0629 C   0  0  0  0  0  0  0  0  0  0  0  0
   -4.3639   -6.8395  -14.3994 S   0  0  2  0  0  0  0  0  0  0  0  0
   -4.3907   -8.3822  -15.3369 C   0  0  0  0  0  0  0  0  0  0  0  0
   -5.7060   -5.9575  -15.2257 C   0  0  0  0  0  0  0  0  0  0  0  0
   -7.0361   -6.3284  -14.5831 C   0  0  1  0  0  0  0  0  0  0  0  0
   -7.2924   -7.7241  -14.6241 O   0  0  0  0  0  0  0  0  0  0  0  0
   -7.0986   -5.9934  -13.1170 C   0  0  1  0  0  0  0  0  0  0  0  0
   -7.3440   -4.6273  -12.9450 O   0  0  0  0  0  0  0  0  0  0  0  0
   -8.2566   -6.8639  -12.6816 C   0  0  1  0  0  0  0  0  0  0  0  0
   -9.4828   -6.2237  -12.9705 O   0  0  0  0  0  0  0  0  0  0  0  0
   -8.1321   -8.1104  -13.5506 C   0  0  2  0  0  0  0  0  0  0  0  0
   -7.6115   -9.3174  -12.8517 N   0  0  0  0  0  0  0  0  0  0  0  0
   -6.3258   -9.7894  -12.9352 C   0  0  0  0  0  0  0  0  0  0  0  0
   -6.2100  -10.8992  -12.1720 N   0  0  0  0  0  0  0  0  0  0  0  0
   -7.3952  -11.1470  -11.5906 C   0  0  0  0  0  0  0  0  0  0  0  0
   -7.8141  -12.1399  -10.7181 C   0  0  0  0  0  0  0  0  0  0  0  0
   -6.9665  -13.0755  -10.3110 N   0  0  0  0  0  0  0  0  0  0  0  0
   -9.1216  -12.1385  -10.2741 N   0  0  0  0  0  0  0  0  0  0  0  0
  -10.0174  -11.1594  -10.6846 C   0  0  0  0  0  0  0  0  0  0  0  0
   -9.5807  -10.1759  -11.5487 N   0  0  0  0  0  0  0  0  0  0  0  0
   -8.2940  -10.1668  -12.0040 C   0  0  0  0  0  0  0  0  0  0  0  0
  2  3  1  6  0  0  0
  2  6  1  0  0  0  0
  2  1  1  0  0  0  0
  4  3  2  0  0  0  0
  5  3  1  0  0  0  0
  6  7  2  0  0  0  0
  8  7  1  6  0  0  0
  8  9  1  0  0  0  0
  8 10  1  0  0  0  0
 11 10  1  1  0  0  0
 11 13  1  0  0  0  0
 12 11  1  0  0  0  0
 12 17  1  0  0  0  0
 13 14  1  6  0  0  0
 13 15  1  0  0  0  0
 15 16  1  6  0  0  0
 17 18  1  1  0  0  0
 17 15  1  0  0  0  0
 18 19  1  0  0  0  0
 20 19  2  0  0  0  0
 21 27  2  0  0  0  0
 21 20  1  0  0  0  0
 22 21  1  0  0  0  0
 23 22  1  0  0  0  0
 24 22  2  0  0  0  0
 24 25  1  0  0  0  0
 25 26  2  0  0  0  0
 26 27  1  0  0  0  0
 27 18  1  0  0  0  0
M  END
>  <CHROM.1>
144.17288492,111.51127663,-101.55805582,-169.23761441,-57.84668900,17.95412791
-5.63962997,-7.78270678,-13.53831630,-0.73836993,-0.22408981,2.73326036

>  <Name>
lig.pdb

>  <RI>
0

>  <Rbt.Current_Directory>
/home/itssahil/PROJECTS/Mol_Feturizer/New_Systems/rnas/4b5r

>  <Rbt.Executable>
rbdock ($Id: //depot/dev/client3/rdock/2013.1/src/exe/rbdock.cxx#4 $)

>  <Rbt.Library>
libRbt.so (2013.1, Build901 2013/11/27)

>  <Rbt.Parameter_File>
/export/apps/rDock/src/rDock_2013.1_src/data/scripts/dock_solv.prm

>  <Rbt.Receptor>
prm/blind_docking_20.prm

>  <SCORE>
-7.27418

>  <SCORE.INTER>
-7.20074

>  <SCORE.INTER.CONST>
1

>  <SCORE.INTER.POLAR>
0

>  <SCORE.INTER.ROT>
6

>  <SCORE.INTER.SOLV>
16.7008

>  <SCORE.INTER.VDW>
-17.9674

>  <SCORE.INTER.norm>
-0.266694

>  <SCORE.INTRA>
-0.0734391

>  <SCORE.INTRA.DIHEDRAL>
-0.963257

>  <SCORE.INTRA.DIHEDRAL.0>
10.2917

>  <SCORE.INTRA.POLAR>
0

>  <SCORE.INTRA.POLAR.0>
0

>  <SCORE.INTRA.REPUL>
0

>  <SCORE.INTRA.REPUL.0>
0

>  <SCORE.INTRA.SOLV>
-2.85119

>  <SCORE.INTRA.SOLV.lig_0>
-39.6315

>  <SCORE.INTRA.VDW>
1.83378

>  <SCORE.INTRA.VDW.0>
-4.02152

>  <SCORE.INTRA.norm>
-0.00271997

>  <SCORE.RESTR>
0

>  <SCORE.RESTR.CAVITY>
0

>  <SCORE.RESTR.norm>
0

>  <SCORE.SYSTEM>
0

>  <SCORE.SYSTEM.CONST>
0

>  <SCORE.SYSTEM.DIHEDRAL>
0

>  <SCORE.SYSTEM.SOLV>
0

>  <SCORE.SYSTEM.norm>
0

>  <SCORE.heavy>
27

>  <SCORE.norm>
-0.269414

>  <RMSD>
13.357

$$$$
lig.pdb
 OpenBabel11021811493D
libRbt.so/2013.1/901 2013/11/27
 27 29  0  0  0  0  0  0  0  0999 V2000
    4.5560   -8.0463  -24.3946 N   0  0  0  0  0  0  0  0  0  0  0  0
    4.2227   -8.6725  -23.0790 C   0  0  2  0  0  0  0  0  0  0  0  0
    4.1573   -7.5851  -22.0106 C   0  0  0  0  0  0  0  0  0  0  0  0
    3.0678   -7.2247  -21.5809 O   0  0  0  0  0  0  0  0  0  0  0  0
    5.1664   -7.0349  -21.5514 O   0  0  0  0  0  0  0  0  0  0  0  0
    5.1789   -9.8131  -22.6759 C   0  0  0  0  0  0  0  0  0  0  0  0
    6.5162   -9.9115  -23.4561 C   0  0  0  0  0  0  0  0  0  0  0  0
    7.7030  -11.2575  -23.0281 S   0  0  2  0  0  0  0  0  0  0  0  0
    6.8536  -12.7075  -23.6880 C   0  0  0  0  0  0  0  0  0  0  0  0
    7.4281  -11.5206  -21.2626 C   0  0  0  0  0  0  0  0  0  0  0  0
    8.2646  -10.5328  -20.4601 C   0  0  1  0  0  0  0  0  0  0  0  0
    7.8655   -9.1859  -20.6648 O   0  0  0  0  0  0  0  0  0  0  0  0
    8.1397  -10.7236  -18.9724 C   0  0  1  0  0  0  0  0  0  0  0  0
    8.9292  -11.8006  -18.5567 O   0  0  0  0  0  0  0  0  0  0  0  0
    8.6489   -9.3882  -18.4766 C   0  0  1  0  0  0  0  0  0  0  0  0
   10.0617   -9.3862  -18.4466 O   0  0  0  0  0  0  0  0  0  0  0  0
    8.1747   -8.3946  -19.5313 C   0  0  2  0  0  0  0  0  0  0  0  0
    7.0232   -7.5436  -19.1238 N   0  0  0  0  0  0  0  0  0  0  0  0
    6.9874   -6.1734  -19.1892 C   0  0  0  0  0  0  0  0  0  0  0  0
    5.7889   -5.7388  -18.7396 N   0  0  0  0  0  0  0  0  0  0  0  0
    5.0473   -6.8038  -18.3935 C   0  0  0  0  0  0  0  0  0  0  0  0
    3.7599   -6.9177  -17.8913 C   0  0  0  0  0  0  0  0  0  0  0  0
    3.0274   -5.8335  -17.6735 N   0  0  0  0  0  0  0  0  0  0  0  0
    3.2487   -8.1729  -17.6271 N   0  0  0  0  0  0  0  0  0  0  0  0
    4.0011   -9.3173  -17.8595 C   0  0  0  0  0  0  0  0  0  0  0  0
    5.2783   -9.1844  -18.3651 N   0  0  0  0  0  0  0  0  0  0  0  0
    5.8025   -7.9510  -18.6241 C   0  0  0  0  0  0  0  0  0  0  0  0
  2  3  1  1  0  0  0
  2  6  1  0  0  0  0
  2  1  1  0  0  0  0
  4  3  2  0  0  0  0
  5  3  1  0  0  0  0
  6  7  2  0  0  0  0
  8  7  1  6  0  0  0
  8  9  1  0  0  0  0
  8 10  1  0  0  0  0
 11 10  1  6  0  0  0
 11 13  1  0  0  0  0
 12 11  1  0  0  0  0
 12 17  1  0  0  0  0
 13 14  1  1  0  0  0
 13 15  1  0  0  0  0
 15 16  1  6  0  0  0
 17 18  1  1  0  0  0
 17 15  1  0  0  0  0
 18 19  1  0  0  0  0
 20 19  2  0  0  0  0
 21 27  2  0  0  0  0
 21 20  1  0  0  0  0
 22 21  1  0  0  0  0
 23 22  1  0  0  0  0
 24 22  2  0  0  0  0
 24 25  1  0  0  0  0
 25 26  2  0  0  0  0
 26 27  1  0  0  0  0
 27 18  1  0  0  0  0
M  END
>  <CHROM.1>
105.68820408,15.23674032,71.86314094,-85.18556052,65.08400164,-113.33495293
6.22232027,-8.92034739,-20.35126841,0.84154432,0.62537603,-1.99897894

>  <Name>
lig.pdb

>  <RI>
0

>  <Rbt.Current_Directory>
/home/itssahil/PROJECTS/Mol_Feturizer/New_Systems/rnas/4b5r

>  <Rbt.Executable>
rbdock ($Id: //depot/dev/client3/rdock/2013.1/src/exe/rbdock.cxx#4 $)

>  <Rbt.Library>
libRbt.so (2013.1, Build901 2013/11/27)

>  <Rbt.Parameter_File>
/export/apps/rDock/src/rDock_2013.1_src/data/scripts/dock_solv.prm

>  <Rbt.Receptor>
prm/blind_docking_100.prm

>  <SCORE>
-10.95

>  <SCORE.INTER>
-8.39551

>  <SCORE.INTER.CONST>
1

>  <SCORE.INTER.POLAR>
0

>  <SCORE.INTER.ROT>
6

>  <SCORE.INTER.SOLV>
13.748

>  <SCORE.INTER.VDW>
-17.7797

>  <SCORE.INTER.norm>
-0.310945

>  <SCORE.INTRA>
-2.55445

>  <SCORE.INTRA.DIHEDRAL>
-0.555446

>  <SCORE.INTRA.DIHEDRAL.0>
10.2917

>  <SCORE.INTRA.POLAR>
0

>  <SCORE.INTRA.POLAR.0>
0

>  <SCORE.INTRA.REPUL>
0

>  <SCORE.INTRA.REPUL.0>
0

>  <SCORE.INTRA.SOLV>
-1.93649

>  <SCORE.INTRA.SOLV.lig_0>
-39.6315

>  <SCORE.INTRA.VDW>
-1.30848

>  <SCORE.INTRA.VDW.0>
-4.02152

>  <SCORE.INTRA.norm>
-0.0946092

>  <SCORE.RESTR>
0

>  <SCORE.RESTR.CAVITY>
0

>  <SCORE.RESTR.norm>
0

>  <SCORE.SYSTEM>
0

>  <SCORE.SYSTEM.CONST>
0

>  <SCORE.SYSTEM.DIHEDRAL>
0

>  <SCORE.SYSTEM.SOLV>
0

>  <SCORE.SYSTEM.norm>
0

>  <SCORE.heavy>
27

>  <SCORE.norm>
-0.405554

>  <RMSD>
13.464

$$$$
lig.pdb
 OpenBabel11021811493D
libRbt.so/2013.1/901 2013/11/27
 27 29  0  0  0  0  0  0  0  0999 V2000
    5.0968  -14.9126  -14.0212 N   0  0  0  0  0  0  0  0  0  0  0  0
    5.4843  -15.6245  -15.2769 C   0  0  2  0  0  0  0  0  0  0  0  0
    6.6158  -16.6007  -14.9688 C   0  0  0  0  0  0  0  0  0  0  0  0
    7.3742  -16.3713  -14.0340 O   0  0  0  0  0  0  0  0  0  0  0  0
    6.8135  -17.6282  -15.6299 O   0  0  0  0  0  0  0  0  0  0  0  0
    5.8466  -14.6780  -16.4391 C   0  0  0  0  0  0  0  0  0  0  0  0
    5.0060  -14.8114  -17.7361 C   0  0  0  0  0  0  0  0  0  0  0  0
    5.3916  -13.7132  -19.1674 S   0  0  2  0  0  0  0  0  0  0  0  0
    5.7375  -14.9217  -20.4633 C   0  0  0  0  0  0  0  0  0  0  0  0
    7.0712  -13.1441  -18.8254 C   0  0  0  0  0  0  0  0  0  0  0  0
    7.4146  -11.9777  -19.7425 C   0  0  1  0  0  0  0  0  0  0  0  0
    7.3242  -12.3187  -21.1175 O   0  0  0  0  0  0  0  0  0  0  0  0
    6.4719  -10.8134  -19.5971 C   0  0  1  0  0  0  0  0  0  0  0  0
    6.7947  -10.0715  -18.4564 O   0  0  0  0  0  0  0  0  0  0  0  0
    6.7462  -10.0703  -20.8859 C   0  0  1  0  0  0  0  0  0  0  0  0
    7.9003   -9.2665  -20.7485 O   0  0  0  0  0  0  0  0  0  0  0  0
    7.0295  -11.1742  -21.8986 C   0  0  2  0  0  0  0  0  0  0  0  0
    5.9310  -11.4379  -22.8682 N   0  0  0  0  0  0  0  0  0  0  0  0
    5.3142  -12.6489  -23.0578 C   0  0  0  0  0  0  0  0  0  0  0  0
    4.3662  -12.5194  -24.0128 N   0  0  0  0  0  0  0  0  0  0  0  0
    4.3539  -11.2450  -24.4367 C   0  0  0  0  0  0  0  0  0  0  0  0
    3.5812  -10.5857  -25.3805 C   0  0  0  0  0  0  0  0  0  0  0  0
    2.6427  -11.2390  -26.0529 N   0  0  0  0  0  0  0  0  0  0  0  0
    3.7966   -9.2406  -25.6067 N   0  0  0  0  0  0  0  0  0  0  0  0
    4.7692   -8.5417  -24.9029 C   0  0  0  0  0  0  0  0  0  0  0  0
    5.5246   -9.2135  -23.9634 N   0  0  0  0  0  0  0  0  0  0  0  0
    5.3308  -10.5448  -23.7330 C   0  0  0  0  0  0  0  0  0  0  0  0
  2  3  1  1  0  0  0
  2  6  1  0  0  0  0
  2  1  1  0  0  0  0
  4  3  2  0  0  0  0
  5  3  1  0  0  0  0
  6  7  2  0  0  0  0
  8  7  1  1  0  0  0
  8  9  1  0  0  0  0
  8 10  1  0  0  0  0
 11 10  1  1  0  0  0
 11 13  1  0  0  0  0
 12 11  1  0  0  0  0
 12 17  1  0  0  0  0
 13 14  1  1  0  0  0
 13 15  1  0  0  0  0
 15 16  1  1  0  0  0
 17 18  1  1  0  0  0
 17 15  1  0  0  0  0
 18 19  1  0  0  0  0
 20 19  2  0  0  0  0
 21 27  2  0  0  0  0
 21 20  1  0  0  0  0
 22 21  1  0  0  0  0
 23 22  1  0  0  0  0
 24 22  2  0  0  0  0
 24 25  1  0  0  0  0
 25 26  2  0  0  0  0
 26 27  1  0  0  0  0
 27 18  1  0  0  0  0
M  END
>  <CHROM.1>
-27.19779035,-121.07676686,122.26152026,-166.81526326,-58.96333205,-3.51650991
5.79877814,-12.51090493,-20.33643537,-1.32090598,-0.92705111,-0.81796789

>  <Name>
lig.pdb

>  <RI>
0

>  <Rbt.Current_Directory>
/home/itssahil/PROJECTS/Mol_Feturizer/New_Systems/rnas/4b5r

>  <Rbt.Executable>
rbdock ($Id: //depot/dev/client3/rdock/2013.1/src/exe/rbdock.cxx#4 $)

>  <Rbt.Library>
libRbt.so (2013.1, Build901 2013/11/27)

>  <Rbt.Parameter_File>
/export/apps/rDock/src/rDock_2013.1_src/data/scripts/dock_solv.prm

>  <Rbt.Receptor>
prm/blind_docking_80.prm

>  <SCORE>
-10.3195

>  <SCORE.INTER>
-9.53944

>  <SCORE.INTER.CONST>
1

>  <SCORE.INTER.POLAR>
0

>  <SCORE.INTER.ROT>
6

>  <SCORE.INTER.SOLV>
11.3785

>  <SCORE.INTER.VDW>
-17.7524

>  <SCORE.INTER.norm>
-0.353313

>  <SCORE.INTRA>
-0.780064

>  <SCORE.INTRA.DIHEDRAL>
-2.12642

>  <SCORE.INTRA.DIHEDRAL.0>
10.2917

>  <SCORE.INTRA.POLAR>
0

>  <SCORE.INTRA.POLAR.0>
0

>  <SCORE.INTRA.REPUL>
0

>  <SCORE.INTRA.REPUL.0>
0

>  <SCORE.INTRA.SOLV>
-2.80645

>  <SCORE.INTRA.SOLV.lig_0>
-39.6315

>  <SCORE.INTRA.VDW>
1.68637

>  <SCORE.INTRA.VDW.0>
-4.02152

>  <SCORE.INTRA.norm>
-0.0288913

>  <SCORE.RESTR>
0

>  <SCORE.RESTR.CAVITY>
0

>  <SCORE.RESTR.norm>
0

>  <SCORE.SYSTEM>
0

>  <SCORE.SYSTEM.CONST>
0

>  <SCORE.SYSTEM.DIHEDRAL>
0

>  <SCORE.SYSTEM.SOLV>
0

>  <SCORE.SYSTEM.norm>
0

>  <SCORE.heavy>
27

>  <SCORE.norm>
-0.382204

>  <RMSD>
13.510

$$$$
lig.pdb
 OpenBabel11021811493D
libRbt.so/2013.1/901 2013/11/27
 27 29  0  0  0  0  0  0  0  0999 V2000
    6.9109  -13.2186  -20.2627 N   0  0  0  0  0  0  0  0  0  0  0  0
    7.5939  -13.0003  -18.9513 C   0  0  2  0  0  0  0  0  0  0  0  0
    6.8243  -13.7366  -17.8587 C   0  0  0  0  0  0  0  0  0  0  0  0
    5.6523  -14.0419  -18.0458 O   0  0  0  0  0  0  0  0  0  0  0  0
    7.3307  -14.0422  -16.7715 O   0  0  0  0  0  0  0  0  0  0  0  0
    7.8015  -11.5131  -18.6009 C   0  0  0  0  0  0  0  0  0  0  0  0
    9.2406  -11.0811  -18.2151 C   0  0  0  0  0  0  0  0  0  0  0  0
    9.5568   -9.3168  -17.7782 S   0  0  2  0  0  0  0  0  0  0  0  0
   10.7018   -9.4902  -16.3931 C   0  0  0  0  0  0  0  0  0  0  0  0
    8.0668   -8.8276  -16.8825 C   0  0  0  0  0  0  0  0  0  0  0  0
    7.7496   -7.3667  -17.1731 C   0  0  1  0  0  0  0  0  0  0  0  0
    7.6960   -7.0852  -18.5635 O   0  0  0  0  0  0  0  0  0  0  0  0
    6.3969   -6.9430  -16.6672 C   0  0  1  0  0  0  0  0  0  0  0  0
    6.4502   -6.7053  -15.2900 O   0  0  0  0  0  0  0  0  0  0  0  0
    6.1774   -5.6853  -17.4786 C   0  0  1  0  0  0  0  0  0  0  0  0
    6.8425   -4.5942  -16.8753 O   0  0  0  0  0  0  0  0  0  0  0  0
    6.8376   -5.9878  -18.8191 C   0  0  2  0  0  0  0  0  0  0  0  0
    5.8958   -6.2745  -19.9358 N   0  0  0  0  0  0  0  0  0  0  0  0
    5.7228   -7.4977  -20.5333 C   0  0  0  0  0  0  0  0  0  0  0  0
    4.7905   -7.3886  -21.5060 N   0  0  0  0  0  0  0  0  0  0  0  0
    4.3521   -6.1195  -21.5414 C   0  0  0  0  0  0  0  0  0  0  0  0
    3.4067   -5.4833  -22.3313 C   0  0  0  0  0  0  0  0  0  0  0  0
    2.7453   -6.1600  -23.2609 N   0  0  0  0  0  0  0  0  0  0  0  0
    3.1583   -4.1394  -22.1337 N   0  0  0  0  0  0  0  0  0  0  0  0
    3.8364   -3.4206  -21.1574 C   0  0  0  0  0  0  0  0  0  0  0  0
    4.7698   -4.0722  -20.3770 N   0  0  0  0  0  0  0  0  0  0  0  0
    5.0338   -5.3982  -20.5644 C   0  0  0  0  0  0  0  0  0  0  0  0
  2  3  1  1  0  0  0
  2  6  1  0  0  0  0
  2  1  1  0  0  0  0
  4  3  2  0  0  0  0
  5  3  1  0  0  0  0
  6  7  2  0  0  0  0
  8  7  1  1  0  0  0
  8  9  1  0  0  0  0
  8 10  1  0  0  0  0
 11 10  1  6  0  0  0
 11 13  1  0  0  0  0
 12 11  1  0  0  0  0
 12 17  1  0  0  0  0
 13 14  1  1  0  0  0
 13 15  1  0  0  0  0
 15 16  1  1  0  0  0
 17 18  1  6  0  0  0
 17 15  1  0  0  0  0
 18 19  1  0  0  0  0
 20 19  2  0  0  0  0
 21 27  2  0  0  0  0
 21 20  1  0  0  0  0
 22 21  1  0  0  0  0
 23 22  1  0  0  0  0
 24 22  2  0  0  0  0
 24 25  1  0  0  0  0
 25 26  2  0  0  0  0
 26 27  1  0  0  0  0
 27 18  1  0  0  0  0
M  END
>  <CHROM.1>
-20.71383770,-127.87347574,139.93505252,-145.84536996,52.36086637,8.86192303
6.54338812,-8.19601319,-18.89940755,0.87051016,0.86013402,-2.99536951

>  <Name>
lig.pdb

>  <RI>
0

>  <Rbt.Current_Directory>
/home/itssahil/PROJECTS/Mol_Feturizer/New_Systems/rnas/4b5r

>  <Rbt.Executable>
rbdock ($Id: //depot/dev/client3/rdock/2013.1/src/exe/rbdock.cxx#4 $)

>  <Rbt.Library>
libRbt.so (2013.1, Build901 2013/11/27)

>  <Rbt.Parameter_File>
/export/apps/rDock/src/rDock_2013.1_src/data/scripts/dock_solv.prm

>  <Rbt.Receptor>
prm/blind_docking_100.prm

>  <SCORE>
-11.9785

>  <SCORE.INTER>
-12.2161

>  <SCORE.INTER.CONST>
1

>  <SCORE.INTER.POLAR>
0

>  <SCORE.INTER.ROT>
6

>  <SCORE.INTER.SOLV>
14.5561

>  <SCORE.INTER.VDW>
-20.5961

>  <SCORE.INTER.norm>
-0.452447

>  <SCORE.INTRA>
0.23757

>  <SCORE.INTRA.DIHEDRAL>
0.280558

>  <SCORE.INTRA.DIHEDRAL.0>
10.2917

>  <SCORE.INTRA.POLAR>
0

>  <SCORE.INTRA.POLAR.0>
0

>  <SCORE.INTRA.REPUL>
0

>  <SCORE.INTRA.REPUL.0>
0

>  <SCORE.INTRA.SOLV>
-3.2869

>  <SCORE.INTRA.SOLV.lig_0>
-39.6315

>  <SCORE.INTRA.VDW>
1.74074

>  <SCORE.INTRA.VDW.0>
-4.02152

>  <SCORE.INTRA.norm>
0.00879888

>  <SCORE.RESTR>
0

>  <SCORE.RESTR.CAVITY>
0

>  <SCORE.RESTR.norm>
0

>  <SCORE.SYSTEM>
0

>  <SCORE.SYSTEM.CONST>
0

>  <SCORE.SYSTEM.DIHEDRAL>
0

>  <SCORE.SYSTEM.SOLV>
0

>  <SCORE.SYSTEM.norm>
0

>  <SCORE.heavy>
27

>  <SCORE.norm>
-0.443648

>  <RMSD>
13.515

$$$$
lig.pdb
 OpenBabel11021811493D
libRbt.so/2013.1/901 2013/11/27
 27 29  0  0  0  0  0  0  0  0999 V2000
   -0.8625   -6.3000  -17.1730 N   0  0  0  0  0  0  0  0  0  0  0  0
   -1.7938   -5.1801  -16.8372 C   0  0  2  0  0  0  0  0  0  0  0  0
   -1.0149   -4.0803  -16.1218 C   0  0  0  0  0  0  0  0  0  0  0  0
   -1.1242   -2.9193  -16.4985 O   0  0  0  0  0  0  0  0  0  0  0  0
   -0.2608   -4.3055  -15.1666 O   0  0  0  0  0  0  0  0  0  0  0  0
   -3.0298   -5.6236  -16.0289 C   0  0  0  0  0  0  0  0  0  0  0  0
   -3.3789   -7.1348  -16.0600 C   0  0  0  0  0  0  0  0  0  0  0  0
   -4.8495   -7.7314  -15.1194 S   0  0  2  0  0  0  0  0  0  0  0  0
   -5.3799   -9.1287  -16.1321 C   0  0  0  0  0  0  0  0  0  0  0  0
   -6.1381   -6.5398  -15.5454 C   0  0  0  0  0  0  0  0  0  0  0  0
   -7.3562   -6.7622  -14.6588 C   0  0  1  0  0  0  0  0  0  0  0  0
   -7.7315   -8.1290  -14.5786 O   0  0  0  0  0  0  0  0  0  0  0  0
   -7.1244   -6.3673  -13.2250 C   0  0  1  0  0  0  0  0  0  0  0  0
   -7.2196   -4.9789  -13.0862 O   0  0  0  0  0  0  0  0  0  0  0  0
   -8.2532   -7.1105  -12.5455 C   0  0  1  0  0  0  0  0  0  0  0  0
   -9.4536   -6.3718  -12.6471 O   0  0  0  0  0  0  0  0  0  0  0  0
   -8.3926   -8.3953  -13.3544 C   0  0  2  0  0  0  0  0  0  0  0  0
   -7.8569   -9.6176  -12.6945 N   0  0  0  0  0  0  0  0  0  0  0  0
   -6.5997  -10.1342  -12.8825 C   0  0  0  0  0  0  0  0  0  0  0  0
   -6.4585  -11.2450  -12.1253 N   0  0  0  0  0  0  0  0  0  0  0  0
   -7.5985  -11.4499  -11.4452 C   0  0  0  0  0  0  0  0  0  0  0  0
   -7.9766  -12.4251  -10.5350 C   0  0  0  0  0  0  0  0  0  0  0  0
   -7.1304  -13.3883  -10.1948 N   0  0  0  0  0  0  0  0  0  0  0  0
   -9.2415  -12.3771   -9.9831 N   0  0  0  0  0  0  0  0  0  0  0  0
  -10.1344  -11.3687  -10.3229 C   0  0  0  0  0  0  0  0  0  0  0  0
   -9.7382  -10.4035  -11.2262 N   0  0  0  0  0  0  0  0  0  0  0  0
   -8.4946  -10.4403  -11.7877 C   0  0  0  0  0  0  0  0  0  0  0  0
  2  3  1  1  0  0  0
  2  6  1  0  0  0  0
  2  1  1  0  0  0  0
  4  3  2  0  0  0  0
  5  3  1  0  0  0  0
  6  7  2  0  0  0  0
  8  7  1  6  0  0  0
  8  9  1  0  0  0  0
  8 10  1  0  0  0  0
 11 10  1  6  0  0  0
 11 13  1  0  0  0  0
 12 11  1  0  0  0  0
 12 17  1  0  0  0  0
 13 14  1  6  0  0  0
 13 15  1  0  0  0  0
 15 16  1  6  0  0  0
 17 18  1  1  0  0  0
 17 15  1  0  0  0  0
 18 19  1  0  0  0  0
 20 19  2  0  0  0  0
 21 27  2  0  0  0  0
 21 20  1  0  0  0  0
 22 21  1  0  0  0  0
 23 22  1  0  0  0  0
 24 22  2  0  0  0  0
 24 25  1  0  0  0  0
 25 26  2  0  0  0  0
 26 27  1  0  0  0  0
 27 18  1  0  0  0  0
M  END
>  <CHROM.1>
130.59654326,-18.63869607,149.02196733,-170.44684161,-47.26721095,24.70984104
-6.00593449,-8.04005894,-13.73932532,-0.80802440,-0.37061713,2.78815108

>  <Name>
lig.pdb

>  <RI>
0

>  <Rbt.Current_Directory>
/home/itssahil/PROJECTS/Mol_Feturizer/New_Systems/rnas/4b5r

>  <Rbt.Executable>
rbdock ($Id: //depot/dev/client3/rdock/2013.1/src/exe/rbdock.cxx#4 $)

>  <Rbt.Library>
libRbt.so (2013.1, Build901 2013/11/27)

>  <Rbt.Parameter_File>
/export/apps/rDock/src/rDock_2013.1_src/data/scripts/dock_solv.prm

>  <Rbt.Receptor>
prm/blind_docking_20.prm

>  <SCORE>
-5.29009

>  <SCORE.INTER>
-4.82088

>  <SCORE.INTER.CONST>
1

>  <SCORE.INTER.POLAR>
0

>  <SCORE.INTER.ROT>
6

>  <SCORE.INTER.SOLV>
16.3883

>  <SCORE.INTER.VDW>
-16.2767

>  <SCORE.INTER.norm>
-0.178551

>  <SCORE.INTRA>
-0.469207

>  <SCORE.INTRA.DIHEDRAL>
-1.48638

>  <SCORE.INTRA.DIHEDRAL.0>
10.2917

>  <SCORE.INTRA.POLAR>
0

>  <SCORE.INTRA.POLAR.0>
0

>  <SCORE.INTRA.REPUL>
0

>  <SCORE.INTRA.REPUL.0>
0

>  <SCORE.INTRA.SOLV>
-2.54064

>  <SCORE.INTRA.SOLV.lig_0>
-39.6315

>  <SCORE.INTRA.VDW>
1.5443

>  <SCORE.INTRA.VDW.0>
-4.02152

>  <SCORE.INTRA.norm>
-0.017378

>  <SCORE.RESTR>
0

>  <SCORE.RESTR.CAVITY>
0

>  <SCORE.RESTR.norm>
0

>  <SCORE.SYSTEM>
0

>  <SCORE.SYSTEM.CONST>
0

>  <SCORE.SYSTEM.DIHEDRAL>
0

>  <SCORE.SYSTEM.SOLV>
0

>  <SCORE.SYSTEM.norm>
0

>  <SCORE.heavy>
27

>  <SCORE.norm>
-0.195929

>  <RMSD>
13.568

$$$$
lig.pdb
 OpenBabel11021811493D
libRbt.so/2013.1/901 2013/11/27
 27 29  0  0  0  0  0  0  0  0999 V2000
    6.4949  -12.5314  -16.4756 N   0  0  0  0  0  0  0  0  0  0  0  0
    5.2332  -13.3329  -16.4700 C   0  0  2  0  0  0  0  0  0  0  0  0
    5.2793  -14.3287  -15.3148 C   0  0  0  0  0  0  0  0  0  0  0  0
    6.3630  -14.6918  -14.8726 O   0  0  0  0  0  0  0  0  0  0  0  0
    4.2599  -14.8011  -14.7958 O   0  0  0  0  0  0  0  0  0  0  0  0
    4.9357  -14.0291  -17.8133 C   0  0  0  0  0  0  0  0  0  0  0  0
    5.6514  -13.4618  -19.0672 C   0  0  0  0  0  0  0  0  0  0  0  0
    5.3344  -14.2445  -20.7074 S   0  0  2  0  0  0  0  0  0  0  0  0
    5.9472  -15.9199  -20.4294 C   0  0  0  0  0  0  0  0  0  0  0  0
    6.6637  -13.6028  -21.7482 C   0  0  0  0  0  0  0  0  0  0  0  0
    6.3262  -12.1870  -22.1969 C   0  0  1  0  0  0  0  0  0  0  0  0
    6.1915  -11.2862  -21.1080 O   0  0  0  0  0  0  0  0  0  0  0  0
    7.3997  -11.5647  -23.0488 C   0  0  1  0  0  0  0  0  0  0  0  0
    7.3166  -12.0489  -24.3583 O   0  0  0  0  0  0  0  0  0  0  0  0
    7.0341  -10.1015  -22.9326 C   0  0  1  0  0  0  0  0  0  0  0  0
    6.0027   -9.7832  -23.8445 O   0  0  0  0  0  0  0  0  0  0  0  0
    6.4987   -9.9636  -21.5117 C   0  0  2  0  0  0  0  0  0  0  0  0
    7.4203   -9.2955  -20.5523 N   0  0  0  0  0  0  0  0  0  0  0  0
    8.6172   -9.8056  -20.1162 C   0  0  0  0  0  0  0  0  0  0  0  0
    9.1845   -8.9318  -19.2547 N   0  0  0  0  0  0  0  0  0  0  0  0
    8.3798   -7.8633  -19.1336 C   0  0  0  0  0  0  0  0  0  0  0  0
    8.4904   -6.6939  -18.3968 C   0  0  0  0  0  0  0  0  0  0  0  0
    9.5527   -6.4822  -17.6312 N   0  0  0  0  0  0  0  0  0  0  0  0
    7.4847   -5.7509  -18.4750 N   0  0  0  0  0  0  0  0  0  0  0  0
    6.3712   -5.9551  -19.2801 C   0  0  0  0  0  0  0  0  0  0  0  0
    6.2814   -7.1225  -20.0107 N   0  0  0  0  0  0  0  0  0  0  0  0
    7.2622   -8.0690  -19.9387 C   0  0  0  0  0  0  0  0  0  0  0  0
  2  3  1  1  0  0  0
  2  6  1  0  0  0  0
  2  1  1  0  0  0  0
  4  3  2  0  0  0  0
  5  3  1  0  0  0  0
  6  7  2  0  0  0  0
  8  7  1  1  0  0  0
  8  9  1  0  0  0  0
  8 10  1  0  0  0  0
 11 10  1  1  0  0  0
 11 13  1  0  0  0  0
 12 11  1  0  0  0  0
 12 17  1  0  0  0  0
 13 14  1  6  0  0  0
 13 15  1  0  0  0  0
 15 16  1  6  0  0  0
 17 18  1  1  0  0  0
 17 15  1  0  0  0  0
 18 19  1  0  0  0  0
 20 19  2  0  0  0  0
 21 27  2  0  0  0  0
 21 20  1  0  0  0  0
 22 21  1  0  0  0  0
 23 22  1  0  0  0  0
 24 22  2  0  0  0  0
 24 25  1  0  0  0  0
 25 26  2  0  0  0  0
 26 27  1  0  0  0  0
 27 18  1  0  0  0  0
M  END
>  <CHROM.1>
-24.54816682,-19.81944415,-61.94220035,-79.06197733,61.39319893,52.45389259
6.64860841,-11.12139758,-19.68215259,-2.91381497,-1.26232077,-1.69962528

>  <Name>
lig.pdb

>  <RI>
0

>  <Rbt.Current_Directory>
/home/itssahil/PROJECTS/Mol_Feturizer/New_Systems/rnas/4b5r

>  <Rbt.Executable>
rbdock ($Id: //depot/dev/client3/rdock/2013.1/src/exe/rbdock.cxx#4 $)

>  <Rbt.Library>
libRbt.so (2013.1, Build901 2013/11/27)

>  <Rbt.Parameter_File>
/export/apps/rDock/src/rDock_2013.1_src/data/scripts/dock_solv.prm

>  <Rbt.Receptor>
prm/blind_docking_40.prm

>  <SCORE>
-15.3451

>  <SCORE.INTER>
-14.5467

>  <SCORE.INTER.CONST>
1

>  <SCORE.INTER.POLAR>
0

>  <SCORE.INTER.ROT>
6

>  <SCORE.INTER.SOLV>
14.7829

>  <SCORE.INTER.VDW>
-22.2254

>  <SCORE.INTER.norm>
-0.538766

>  <SCORE.INTRA>
-0.798468

>  <SCORE.INTRA.DIHEDRAL>
-2.22231

>  <SCORE.INTRA.DIHEDRAL.0>
10.2917

>  <SCORE.INTRA.POLAR>
0

>  <SCORE.INTRA.POLAR.0>
0

>  <SCORE.INTRA.REPUL>
0

>  <SCORE.INTRA.REPUL.0>
0

>  <SCORE.INTRA.SOLV>
-2.73332

>  <SCORE.INTRA.SOLV.lig_0>
-39.6315

>  <SCORE.INTRA.VDW>
1.67935

>  <SCORE.INTRA.VDW.0>
-4.02152

>  <SCORE.INTRA.norm>
-0.0295729

>  <SCORE.RESTR>
0

>  <SCORE.RESTR.CAVITY>
0

>  <SCORE.RESTR.norm>
0

>  <SCORE.SYSTEM>
0

>  <SCORE.SYSTEM.CONST>
0

>  <SCORE.SYSTEM.DIHEDRAL>
0

>  <SCORE.SYSTEM.SOLV>
0

>  <SCORE.SYSTEM.norm>
0

>  <SCORE.heavy>
27

>  <SCORE.norm>
-0.568338

>  <RMSD>
13.575

$$$$
lig.pdb
 OpenBabel11021811493D
libRbt.so/2013.1/901 2013/11/27
 27 29  0  0  0  0  0  0  0  0999 V2000
    3.2652   -6.4663  -20.3416 N   0  0  0  0  0  0  0  0  0  0  0  0
    4.6224   -7.0630  -20.5308 C   0  0  2  0  0  0  0  0  0  0  0  0
    5.6626   -6.1531  -19.8839 C   0  0  0  0  0  0  0  0  0  0  0  0
    6.7084   -6.6340  -19.4634 O   0  0  0  0  0  0  0  0  0  0  0  0
    5.4989   -4.9331  -19.7551 O   0  0  0  0  0  0  0  0  0  0  0  0
    4.9656   -7.3670  -22.0031 C   0  0  0  0  0  0  0  0  0  0  0  0
    5.4672   -8.8001  -22.3213 C   0  0  0  0  0  0  0  0  0  0  0  0
    5.9015   -9.2284  -24.0624 S   0  0  2  0  0  0  0  0  0  0  0  0
    4.4867   -8.5564  -24.9604 C   0  0  0  0  0  0  0  0  0  0  0  0
    5.5234  -10.9909  -24.1731 C   0  0  0  0  0  0  0  0  0  0  0  0
    6.6412  -11.7973  -23.5254 C   0  0  1  0  0  0  0  0  0  0  0  0
    6.8897  -11.4069  -22.1833 O   0  0  0  0  0  0  0  0  0  0  0  0
    6.3277  -13.2658  -23.4214 C   0  0  1  0  0  0  0  0  0  0  0  0
    6.5303  -13.8903  -24.6563 O   0  0  0  0  0  0  0  0  0  0  0  0
    7.3289  -13.6906  -22.3700 C   0  0  1  0  0  0  0  0  0  0  0  0
    8.5927  -13.9123  -22.9622 O   0  0  0  0  0  0  0  0  0  0  0  0
    7.4229  -12.4874  -21.4384 C   0  0  2  0  0  0  0  0  0  0  0  0
    6.7319  -12.6474  -20.1295 N   0  0  0  0  0  0  0  0  0  0  0  0
    6.5357  -11.6489  -19.2090 C   0  0  0  0  0  0  0  0  0  0  0  0
    5.8746  -12.1521  -18.1426 N   0  0  0  0  0  0  0  0  0  0  0  0
    5.6329  -13.4550  -18.3618 C   0  0  0  0  0  0  0  0  0  0  0  0
    4.9890  -14.4222  -17.6052 C   0  0  0  0  0  0  0  0  0  0  0  0
    4.4725  -14.1139  -16.4229 N   0  0  0  0  0  0  0  0  0  0  0  0
    4.8872  -15.7072  -18.1003 N   0  0  0  0  0  0  0  0  0  0  0  0
    5.4150  -16.0417  -19.3409 C   0  0  0  0  0  0  0  0  0  0  0  0
    6.0472  -15.0644  -20.0823 N   0  0  0  0  0  0  0  0  0  0  0  0
    6.1643  -13.7911  -19.6045 C   0  0  0  0  0  0  0  0  0  0  0  0
  2  3  1  6  0  0  0
  2  6  1  0  0  0  0
  2  1  1  0  0  0  0
  4  3  2  0  0  0  0
  5  3  1  0  0  0  0
  6  7  2  0  0  0  0
  8  7  1  1  0  0  0
  8  9  1  0  0  0  0
  8 10  1  0  0  0  0
 11 10  1  1  0  0  0
 11 13  1  0  0  0  0
 12 11  1  0  0  0  0
 12 17  1  0  0  0  0
 13 14  1  6  0  0  0
 13 15  1  0  0  0  0
 15 16  1  6  0  0  0
 17 18  1  1  0  0  0
 17 15  1  0  0  0  0
 18 19  1  0  0  0  0
 20 19  2  0  0  0  0
 21 27  2  0  0  0  0
 21 20  1  0  0  0  0
 22 21  1  0  0  0  0
 23 22  1  0  0  0  0
 24 22  2  0  0  0  0
 24 25  1  0  0  0  0
 25 26  2  0  0  0  0
 26 27  1  0  0  0  0
 27 18  1  0  0  0  0
M  END
>  <CHROM.1>
152.13881311,-128.36448747,-46.40960344,-78.34300748,55.46171023,-51.72669332
5.89656202,-11.17421627,-21.13344073,1.98470139,1.32975715,-0.65470705

>  <Name>
lig.pdb

>  <RI>
0

>  <Rbt.Current_Directory>
/home/itssahil/PROJECTS/Mol_Feturizer/New_Systems/rnas/4b5r

>  <Rbt.Executable>
rbdock ($Id: //depot/dev/client3/rdock/2013.1/src/exe/rbdock.cxx#4 $)

>  <Rbt.Library>
libRbt.so (2013.1, Build901 2013/11/27)

>  <Rbt.Parameter_File>
/export/apps/rDock/src/rDock_2013.1_src/data/scripts/dock_solv.prm

>  <Rbt.Receptor>
prm/blind_docking_80.prm

>  <SCORE>
-11.1493

>  <SCORE.INTER>
-9.80942

>  <SCORE.INTER.CONST>
1

>  <SCORE.INTER.POLAR>
0

>  <SCORE.INTER.ROT>
6

>  <SCORE.INTER.SOLV>
14.5528

>  <SCORE.INTER.VDW>
-18.9906

>  <SCORE.INTER.norm>
-0.363312

>  <SCORE.INTRA>
-1.33993

>  <SCORE.INTRA.DIHEDRAL>
-2.98385

>  <SCORE.INTRA.DIHEDRAL.0>
10.2917

>  <SCORE.INTRA.POLAR>
0

>  <SCORE.INTRA.POLAR.0>
0

>  <SCORE.INTRA.REPUL>
0

>  <SCORE.INTRA.REPUL.0>
0

>  <SCORE.INTRA.SOLV>
-2.95953

>  <SCORE.INTRA.SOLV.lig_0>
-39.6315

>  <SCORE.INTRA.VDW>
1.63177

>  <SCORE.INTRA.VDW.0>
-4.02152

>  <SCORE.INTRA.norm>
-0.0496269

>  <SCORE.RESTR>
0

>  <SCORE.RESTR.CAVITY>
0

>  <SCORE.RESTR.norm>
0

>  <SCORE.SYSTEM>
0

>  <SCORE.SYSTEM.CONST>
0

>  <SCORE.SYSTEM.DIHEDRAL>
0

>  <SCORE.SYSTEM.SOLV>
0

>  <SCORE.SYSTEM.norm>
0

>  <SCORE.heavy>
27

>  <SCORE.norm>
-0.412939

>  <RMSD>
13.612

$$$$
lig.pdb
 OpenBabel11021811493D
libRbt.so/2013.1/901 2013/11/27
 27 29  0  0  0  0  0  0  0  0999 V2000
    6.5775  -13.5939  -24.2585 N   0  0  0  0  0  0  0  0  0  0  0  0
    6.5669  -12.5063  -23.2333 C   0  0  2  0  0  0  0  0  0  0  0  0
    7.3693  -11.3188  -23.7568 C   0  0  0  0  0  0  0  0  0  0  0  0
    8.5508  -11.4679  -24.0458 O   0  0  0  0  0  0  0  0  0  0  0  0
    6.8805  -10.1911  -23.9020 O   0  0  0  0  0  0  0  0  0  0  0  0
    7.0579  -12.9601  -21.8438 C   0  0  0  0  0  0  0  0  0  0  0  0
    6.0705  -12.7789  -20.6611 C   0  0  0  0  0  0  0  0  0  0  0  0
    6.5977  -13.2954  -18.9702 S   0  0  2  0  0  0  0  0  0  0  0  0
    5.5502  -14.7396  -18.6938 C   0  0  0  0  0  0  0  0  0  0  0  0
    5.7726  -12.1088  -17.8873 C   0  0  0  0  0  0  0  0  0  0  0  0
    6.5283  -10.7866  -17.9042 C   0  0  1  0  0  0  0  0  0  0  0  0
    6.7258  -10.2869  -19.2182 O   0  0  0  0  0  0  0  0  0  0  0  0
    5.7934   -9.6761  -17.2028 C   0  0  1  0  0  0  0  0  0  0  0  0
    5.9446   -9.7976  -15.8178 O   0  0  0  0  0  0  0  0  0  0  0  0
    6.5031   -8.4683  -17.7738 C   0  0  1  0  0  0  0  0  0  0  0  0
    7.7070   -8.2339  -17.0719 O   0  0  0  0  0  0  0  0  0  0  0  0
    6.8355   -8.8746  -19.2051 C   0  0  2  0  0  0  0  0  0  0  0  0
    5.9844   -8.2470  -20.2530 N   0  0  0  0  0  0  0  0  0  0  0  0
    5.5838   -8.8527  -21.4172 C   0  0  0  0  0  0  0  0  0  0  0  0
    4.8231   -7.9899  -22.1274 N   0  0  0  0  0  0  0  0  0  0  0  0
    4.7183   -6.8415  -21.4388 C   0  0  0  0  0  0  0  0  0  0  0  0
    4.0544   -5.6538  -21.7056 C   0  0  0  0  0  0  0  0  0  0  0  0
    3.3559   -5.5134  -22.8246 N   0  0  0  0  0  0  0  0  0  0  0  0
    4.1244   -4.6227  -20.7899 N   0  0  0  0  0  0  0  0  0  0  0  0
    4.8442   -4.7593  -19.6096 C   0  0  0  0  0  0  0  0  0  0  0  0
    5.4936   -5.9509  -19.3587 N   0  0  0  0  0  0  0  0  0  0  0  0
    5.4419   -6.9775  -20.2567 C   0  0  0  0  0  0  0  0  0  0  0  0
  2  3  1  6  0  0  0
  2  6  1  0  0  0  0
  2  1  1  0  0  0  0
  4  3  2  0  0  0  0
  5  3  1  0  0  0  0
  6  7  2  0  0  0  0
  8  7  1  6  0  0  0
  8  9  1  0  0  0  0
  8 10  1  0  0  0  0
 11 10  1  6  0  0  0
 11 13  1  0  0  0  0
 12 11  1  0  0  0  0
 12 17  1  0  0  0  0
 13 14  1  1  0  0  0
 13 15  1  0  0  0  0
 15 16  1  1  0  0  0
 17 18  1  6  0  0  0
 17 15  1  0  0  0  0
 18 19  1  0  0  0  0
 20 19  2  0  0  0  0
 21 27  2  0  0  0  0
 21 20  1  0  0  0  0
 22 21  1  0  0  0  0
 23 22  1  0  0  0  0
 24 22  2  0  0  0  0
 24 25  1  0  0  0  0
 25 26  2  0  0  0  0
 26 27  1  0  0  0  0
 27 18  1  0  0  0  0
M  END
>  <CHROM.1>
-59.38546830,-121.85814564,-110.22602496,-77.97469812,53.48972212,-25.54951180
6.04440922,-9.72819447,-20.31828263,0.06170234,1.31204557,-1.57166715

>  <Name>
lig.pdb

>  <RI>
0

>  <Rbt.Current_Directory>
/home/itssahil/PROJECTS/Mol_Feturizer/New_Systems/rnas/4b5r

>  <Rbt.Executable>
rbdock ($Id: //depot/dev/client3/rdock/2013.1/src/exe/rbdock.cxx#4 $)

>  <Rbt.Library>
libRbt.so (2013.1, Build901 2013/11/27)

>  <Rbt.Parameter_File>
/export/apps/rDock/src/rDock_2013.1_src/data/scripts/dock_solv.prm

>  <Rbt.Receptor>
prm/blind_docking_100.prm

>  <SCORE>
-8.58703

>  <SCORE.INTER>
-7.13005

>  <SCORE.INTER.CONST>
1

>  <SCORE.INTER.POLAR>
0

>  <SCORE.INTER.ROT>
6

>  <SCORE.INTER.SOLV>
16.3772

>  <SCORE.INTER.VDW>
-17.8124

>  <SCORE.INTER.norm>
-0.264076

>  <SCORE.INTRA>
-1.45698

>  <SCORE.INTRA.DIHEDRAL>
-1.46003

>  <SCORE.INTRA.DIHEDRAL.0>
10.2917

>  <SCORE.INTRA.POLAR>
0

>  <SCORE.INTRA.POLAR.0>
0

>  <SCORE.INTRA.REPUL>
0

>  <SCORE.INTRA.REPUL.0>
0

>  <SCORE.INTRA.SOLV>
-2.91659

>  <SCORE.INTRA.SOLV.lig_0>
-39.6315

>  <SCORE.INTRA.VDW>
0.731334

>  <SCORE.INTRA.VDW.0>
-4.02152

>  <SCORE.INTRA.norm>
-0.0539621

>  <SCORE.RESTR>
0

>  <SCORE.RESTR.CAVITY>
0

>  <SCORE.RESTR.norm>
0

>  <SCORE.SYSTEM>
0

>  <SCORE.SYSTEM.CONST>
0

>  <SCORE.SYSTEM.DIHEDRAL>
0

>  <SCORE.SYSTEM.SOLV>
0

>  <SCORE.SYSTEM.norm>
0

>  <SCORE.heavy>
27

>  <SCORE.norm>
-0.318038

>  <RMSD>
13.631

$$$$
lig.pdb
 OpenBabel11021811493D
libRbt.so/2013.1/901 2013/11/27
 27 29  0  0  0  0  0  0  0  0999 V2000
    3.9510   -9.0296  -27.3906 N   0  0  0  0  0  0  0  0  0  0  0  0
    3.6291   -8.1264  -26.2441 C   0  0  2  0  0  0  0  0  0  0  0  0
    3.6401   -6.6799  -26.7294 C   0  0  0  0  0  0  0  0  0  0  0  0
    2.9255   -5.8516  -26.1773 O   0  0  0  0  0  0  0  0  0  0  0  0
    4.3427   -6.2945  -27.6727 O   0  0  0  0  0  0  0  0  0  0  0  0
    4.5474   -8.3261  -25.0215 C   0  0  0  0  0  0  0  0  0  0  0  0
    5.6791   -9.3777  -25.1628 C   0  0  0  0  0  0  0  0  0  0  0  0
    6.8097   -9.6706  -23.7347 S   0  0  2  0  0  0  0  0  0  0  0  0
    7.4008  -11.3407  -24.0822 C   0  0  0  0  0  0  0  0  0  0  0  0
    5.6840  -10.0241  -22.3674 C   0  0  0  0  0  0  0  0  0  0  0  0
    6.3460   -9.6504  -21.0477 C   0  0  1  0  0  0  0  0  0  0  0  0
    5.5193   -9.9211  -19.9258 O   0  0  0  0  0  0  0  0  0  0  0  0
    7.5987  -10.4372  -20.7706 C   0  0  1  0  0  0  0  0  0  0  0  0
    8.6676   -9.9165  -21.5071 O   0  0  0  0  0  0  0  0  0  0  0  0
    7.7417  -10.2177  -19.2807 C   0  0  1  0  0  0  0  0  0  0  0  0
    8.3621   -8.9732  -19.0291 O   0  0  0  0  0  0  0  0  0  0  0  0
    6.3050  -10.1663  -18.7729 C   0  0  2  0  0  0  0  0  0  0  0  0
    5.8493  -11.3824  -18.0451 N   0  0  0  0  0  0  0  0  0  0  0  0
    5.5827  -11.4487  -16.7006 C   0  0  0  0  0  0  0  0  0  0  0  0
    5.1926  -12.7045  -16.3870 N   0  0  0  0  0  0  0  0  0  0  0  0
    5.1941  -13.4475  -17.5059 C   0  0  0  0  0  0  0  0  0  0  0  0
    4.8724  -14.7755  -17.7414 C   0  0  0  0  0  0  0  0  0  0  0  0
    4.4726  -15.5549  -16.7453 N   0  0  0  0  0  0  0  0  0  0  0  0
    4.9676  -15.2740  -19.0257 N   0  0  0  0  0  0  0  0  0  0  0  0
    5.3756  -14.4666  -20.0799 C   0  0  0  0  0  0  0  0  0  0  0  0
    5.6860  -13.1459  -19.8272 N   0  0  0  0  0  0  0  0  0  0  0  0
    5.6055  -12.6389  -18.5625 C   0  0  0  0  0  0  0  0  0  0  0  0
  2  3  1  6  0  0  0
  2  6  1  0  0  0  0
  2  1  1  0  0  0  0
  4  3  2  0  0  0  0
  5  3  1  0  0  0  0
  6  7  2  0  0  0  0
  8  7  1  6  0  0  0
  8  9  1  0  0  0  0
  8 10  1  0  0  0  0
 11 10  1  6  0  0  0
 11 13  1  0  0  0  0
 12 11  1  0  0  0  0
 12 17  1  0  0  0  0
 13 14  1  6  0  0  0
 13 15  1  0  0  0  0
 15 16  1  6  0  0  0
 17 18  1  6  0  0  0
 17 15  1  0  0  0  0
 18 19  1  0  0  0  0
 20 19  2  0  0  0  0
 21 27  2  0  0  0  0
 21 20  1  0  0  0  0
 22 21  1  0  0  0  0
 23 22  1  0  0  0  0
 24 22  2  0  0  0  0
 24 25  1  0  0  0  0
 25 26  2  0  0  0  0
 26 27  1  0  0  0  0
 27 18  1  0  0  0  0
M  END
>  <CHROM.1>
150.90524606,1.87379483,156.65826255,-153.50069420,-179.18068217,-129.70304033
5.70651275,-10.57403235,-21.49588120,1.72535098,-0.78883796,-0.87656744

>  <Name>
lig.pdb

>  <RI>
0

>  <Rbt.Current_Directory>
/home/itssahil/PROJECTS/Mol_Feturizer/New_Systems/rnas/4b5r

>  <Rbt.Executable>
rbdock ($Id: //depot/dev/client3/rdock/2013.1/src/exe/rbdock.cxx#4 $)

>  <Rbt.Library>
libRbt.so (2013.1, Build901 2013/11/27)

>  <Rbt.Parameter_File>
/export/apps/rDock/src/rDock_2013.1_src/data/scripts/dock_solv.prm

>  <Rbt.Receptor>
prm/blind_docking_100.prm

>  <SCORE>
-13.4077

>  <SCORE.INTER>
-13.5815

>  <SCORE.INTER.CONST>
1

>  <SCORE.INTER.POLAR>
0

>  <SCORE.INTER.ROT>
6

>  <SCORE.INTER.SOLV>
17.7695

>  <SCORE.INTER.VDW>
-22.5775

>  <SCORE.INTER.norm>
-0.503019

>  <SCORE.INTRA>
0.173767

>  <SCORE.INTRA.DIHEDRAL>
-0.699461

>  <SCORE.INTRA.DIHEDRAL.0>
10.2917

>  <SCORE.INTRA.POLAR>
0

>  <SCORE.INTRA.POLAR.0>
0

>  <SCORE.INTRA.REPUL>
0

>  <SCORE.INTRA.REPUL.0>
0

>  <SCORE.INTRA.SOLV>
-1.83049

>  <SCORE.INTRA.SOLV.lig_0>
-39.6315

>  <SCORE.INTRA.VDW>
1.43874

>  <SCORE.INTRA.VDW.0>
-4.02152

>  <SCORE.INTRA.norm>
0.00643583

>  <SCORE.RESTR>
0

>  <SCORE.RESTR.CAVITY>
0

>  <SCORE.RESTR.norm>
0

>  <SCORE.SYSTEM>
0

>  <SCORE.SYSTEM.CONST>
0

>  <SCORE.SYSTEM.DIHEDRAL>
0

>  <SCORE.SYSTEM.SOLV>
0

>  <SCORE.SYSTEM.norm>
0

>  <SCORE.heavy>
27

>  <SCORE.norm>
-0.496583

>  <RMSD>
13.651

$$$$
lig.pdb
 OpenBabel11021811493D
libRbt.so/2013.1/901 2013/11/27
 27 29  0  0  0  0  0  0  0  0999 V2000
   -2.5897   -7.7500  -15.0729 N   0  0  0  0  0  0  0  0  0  0  0  0
   -3.4144   -6.8909  -15.9762 C   0  0  2  0  0  0  0  0  0  0  0  0
   -2.5367   -6.3738  -17.1121 C   0  0  0  0  0  0  0  0  0  0  0  0
   -3.0242   -6.2046  -18.2237 O   0  0  0  0  0  0  0  0  0  0  0  0
   -1.3347   -6.1169  -16.9671 O   0  0  0  0  0  0  0  0  0  0  0  0
   -4.1401   -5.7425  -15.2464 C   0  0  0  0  0  0  0  0  0  0  0  0
   -5.6562   -5.9334  -14.9787 C   0  0  0  0  0  0  0  0  0  0  0  0
   -6.5863   -4.5944  -14.1153 S   0  0  2  0  0  0  0  0  0  0  0  0
   -5.3127   -3.9153  -13.0307 C   0  0  0  0  0  0  0  0  0  0  0  0
   -7.5801   -5.4845  -12.8981 C   0  0  0  0  0  0  0  0  0  0  0  0
   -8.1253   -6.7645  -13.5177 C   0  0  1  0  0  0  0  0  0  0  0  0
   -7.2186   -7.8518  -13.4125 O   0  0  0  0  0  0  0  0  0  0  0  0
   -9.3708   -7.2668  -12.8383 C   0  0  1  0  0  0  0  0  0  0  0  0
  -10.4820   -6.5325  -13.2650 O   0  0  0  0  0  0  0  0  0  0  0  0
   -9.3889   -8.7021  -13.3157 C   0  0  1  0  0  0  0  0  0  0  0  0
   -9.9565   -8.7787  -14.6075 O   0  0  0  0  0  0  0  0  0  0  0  0
   -7.9155   -9.0850  -13.3988 C   0  0  2  0  0  0  0  0  0  0  0  0
   -7.4331   -9.9775  -12.3094 N   0  0  0  0  0  0  0  0  0  0  0  0
   -6.3074   -9.7686  -11.5529 C   0  0  0  0  0  0  0  0  0  0  0  0
   -6.1786  -10.7765  -10.6612 N   0  0  0  0  0  0  0  0  0  0  0  0
   -7.2052  -11.6274  -10.8225 C   0  0  0  0  0  0  0  0  0  0  0  0
   -7.5526  -12.8007  -10.1704 C   0  0  0  0  0  0  0  0  0  0  0  0
   -6.8010  -13.2651   -9.1810 N   0  0  0  0  0  0  0  0  0  0  0  0
   -8.6928  -13.4754  -10.5597 N   0  0  0  0  0  0  0  0  0  0  0  0
   -9.4944  -12.9955  -11.5877 C   0  0  0  0  0  0  0  0  0  0  0  0
   -9.1358  -11.8229  -12.2212 N   0  0  0  0  0  0  0  0  0  0  0  0
   -8.0075  -11.1477  -11.8549 C   0  0  0  0  0  0  0  0  0  0  0  0
  2  3  1  6  0  0  0
  2  6  1  0  0  0  0
  2  1  1  0  0  0  0
  4  3  2  0  0  0  0
  5  3  1  0  0  0  0
  6  7  2  0  0  0  0
  8  7  1  6  0  0  0
  8  9  1  0  0  0  0
  8 10  1  0  0  0  0
 11 10  1  1  0  0  0
 11 13  1  0  0  0  0
 12 11  1  0  0  0  0
 12 17  1  0  0  0  0
 13 14  1  6  0  0  0
 13 15  1  0  0  0  0
 15 16  1  6  0  0  0
 17 18  1  1  0  0  0
 17 15  1  0  0  0  0
 18 19  1  0  0  0  0
 20 19  2  0  0  0  0
 21 27  2  0  0  0  0
 21 20  1  0  0  0  0
 22 21  1  0  0  0  0
 23 22  1  0  0  0  0
 24 22  2  0  0  0  0
 24 25  1  0  0  0  0
 25 26  2  0  0  0  0
 26 27  1  0  0  0  0
 27 18  1  0  0  0  0
M  END
>  <CHROM.1>
146.51462483,-102.96224160,-31.89359040,-40.17912344,86.45563250,-10.98275859
-6.70174265,-8.31613130,-13.39033642,-1.01841942,-0.35103442,2.69616081

>  <Name>
lig.pdb

>  <RI>
0

>  <Rbt.Current_Directory>
/home/itssahil/PROJECTS/Mol_Feturizer/New_Systems/rnas/4b5r

>  <Rbt.Executable>
rbdock ($Id: //depot/dev/client3/rdock/2013.1/src/exe/rbdock.cxx#4 $)

>  <Rbt.Library>
libRbt.so (2013.1, Build901 2013/11/27)

>  <Rbt.Parameter_File>
/export/apps/rDock/src/rDock_2013.1_src/data/scripts/dock_solv.prm

>  <Rbt.Receptor>
prm/blind_docking_20.prm

>  <SCORE>
-5.82797

>  <SCORE.INTER>
-7.22629

>  <SCORE.INTER.CONST>
1

>  <SCORE.INTER.POLAR>
0

>  <SCORE.INTER.ROT>
6

>  <SCORE.INTER.SOLV>
17.2123

>  <SCORE.INTER.VDW>
-18.1549

>  <SCORE.INTER.norm>
-0.26764

>  <SCORE.INTRA>
1.39626

>  <SCORE.INTRA.DIHEDRAL>
1.09454

>  <SCORE.INTRA.DIHEDRAL.0>
10.2917

>  <SCORE.INTRA.POLAR>
0

>  <SCORE.INTRA.POLAR.0>
0

>  <SCORE.INTRA.REPUL>
0

>  <SCORE.INTRA.REPUL.0>
0

>  <SCORE.INTRA.SOLV>
-3.04504

>  <SCORE.INTRA.SOLV.lig_0>
-39.6315

>  <SCORE.INTRA.VDW>
2.37151

>  <SCORE.INTRA.VDW.0>
-4.02152

>  <SCORE.INTRA.norm>
0.0517134

>  <SCORE.RESTR>
0.00204966

>  <SCORE.RESTR.CAVITY>
0.00204966

>  <SCORE.RESTR.norm>
7.59132e-05

>  <SCORE.SYSTEM>
0

>  <SCORE.SYSTEM.CONST>
0

>  <SCORE.SYSTEM.DIHEDRAL>
0

>  <SCORE.SYSTEM.SOLV>
0

>  <SCORE.SYSTEM.norm>
0

>  <SCORE.heavy>
27

>  <SCORE.norm>
-0.215851

>  <RMSD>
13.654

$$$$
lig.pdb
 OpenBabel11021811493D
libRbt.so/2013.1/901 2013/11/27
 27 29  0  0  0  0  0  0  0  0999 V2000
    3.2149   -5.6921  -21.3218 N   0  0  0  0  0  0  0  0  0  0  0  0
    3.1245   -6.6314  -22.4809 C   0  0  2  0  0  0  0  0  0  0  0  0
    1.7550   -7.3041  -22.4730 C   0  0  0  0  0  0  0  0  0  0  0  0
    1.6769   -8.5179  -22.6223 O   0  0  0  0  0  0  0  0  0  0  0  0
    0.6996   -6.6745  -22.3260 O   0  0  0  0  0  0  0  0  0  0  0  0
    4.2683   -7.6643  -22.5319 C   0  0  0  0  0  0  0  0  0  0  0  0
    5.0208   -7.8066  -23.8810 C   0  0  0  0  0  0  0  0  0  0  0  0
    6.3960   -9.0293  -24.0122 S   0  0  2  0  0  0  0  0  0  0  0  0
    6.6593   -9.0824  -25.7975 C   0  0  0  0  0  0  0  0  0  0  0  0
    5.5736  -10.6200  -23.7779 C   0  0  0  0  0  0  0  0  0  0  0  0
    6.5756  -11.6449  -23.2629 C   0  0  1  0  0  0  0  0  0  0  0  0
    6.9795  -11.3903  -21.9260 O   0  0  0  0  0  0  0  0  0  0  0  0
    6.0189  -13.0423  -23.2113 C   0  0  1  0  0  0  0  0  0  0  0  0
    6.0246  -13.6108  -24.4891 O   0  0  0  0  0  0  0  0  0  0  0  0
    7.0004  -13.6983  -22.2654 C   0  0  1  0  0  0  0  0  0  0  0  0
    8.1627  -14.0926  -22.9659 O   0  0  0  0  0  0  0  0  0  0  0  0
    7.3661  -12.5916  -21.2827 C   0  0  2  0  0  0  0  0  0  0  0  0
    6.7490  -12.7165  -19.9337 N   0  0  0  0  0  0  0  0  0  0  0  0
    6.7498  -11.7418  -18.9678 C   0  0  0  0  0  0  0  0  0  0  0  0
    6.1003  -12.2000  -17.8744 N   0  0  0  0  0  0  0  0  0  0  0  0
    5.6727  -13.4493  -18.1200 C   0  0  0  0  0  0  0  0  0  0  0  0
    4.9575  -14.3558  -17.3524 C   0  0  0  0  0  0  0  0  0  0  0  0
    4.5669  -14.0342  -16.1262 N   0  0  0  0  0  0  0  0  0  0  0  0
    4.6521  -15.5938  -17.8824 N   0  0  0  0  0  0  0  0  0  0  0  0
    5.0464  -15.9404  -19.1686 C   0  0  0  0  0  0  0  0  0  0  0  0
    5.7524  -15.0229  -19.9197 N   0  0  0  0  0  0  0  0  0  0  0  0
    6.0701  -13.7978  -19.4085 C   0  0  0  0  0  0  0  0  0  0  0  0
  2  3  1  1  0  0  0
  2  6  1  0  0  0  0
  2  1  1  0  0  0  0
  4  3  2  0  0  0  0
  5  3  1  0  0  0  0
  6  7  2  0  0  0  0
  8  7  1  6  0  0  0
  8  9  1  0  0  0  0
  8 10  1  0  0  0  0
 11 10  1  1  0  0  0
 11 13  1  0  0  0  0
 12 11  1  0  0  0  0
 12 17  1  0  0  0  0
 13 14  1  6  0  0  0
 13 15  1  0  0  0  0
 15 16  1  6  0  0  0
 17 18  1  1  0  0  0
 17 15  1  0  0  0  0
 18 19  1  0  0  0  0
 20 19  2  0  0  0  0
 21 27  2  0  0  0  0
 21 20  1  0  0  0  0
 22 21  1  0  0  0  0
 23 22  1  0  0  0  0
 24 22  2  0  0  0  0
 24 25  1  0  0  0  0
 25 26  2  0  0  0  0
 26 27  1  0  0  0  0
 27 18  1  0  0  0  0
M  END
>  <CHROM.1>
-132.88606239,-129.66234519,167.52434278,-155.56646140,70.14557036,-49.13032589
5.33488630,-11.26334760,-21.51403677,1.98029622,0.83438195,-0.86463619

>  <Name>
lig.pdb

>  <RI>
0

>  <Rbt.Current_Directory>
/home/itssahil/PROJECTS/Mol_Feturizer/New_Systems/rnas/4b5r

>  <Rbt.Executable>
rbdock ($Id: //depot/dev/client3/rdock/2013.1/src/exe/rbdock.cxx#4 $)

>  <Rbt.Library>
libRbt.so (2013.1, Build901 2013/11/27)

>  <Rbt.Parameter_File>
/export/apps/rDock/src/rDock_2013.1_src/data/scripts/dock_solv.prm

>  <Rbt.Receptor>
prm/blind_docking_100.prm

>  <SCORE>
-10.9796

>  <SCORE.INTER>
-11.2944

>  <SCORE.INTER.CONST>
1

>  <SCORE.INTER.POLAR>
0

>  <SCORE.INTER.ROT>
6

>  <SCORE.INTER.SOLV>
16.2949

>  <SCORE.INTER.VDW>
-20.5613

>  <SCORE.INTER.norm>
-0.418312

>  <SCORE.INTRA>
0.314865

>  <SCORE.INTRA.DIHEDRAL>
-0.209527

>  <SCORE.INTRA.DIHEDRAL.0>
10.2917

>  <SCORE.INTRA.POLAR>
0

>  <SCORE.INTRA.POLAR.0>
0

>  <SCORE.INTRA.REPUL>
0

>  <SCORE.INTRA.REPUL.0>
0

>  <SCORE.INTRA.SOLV>
-2.98361

>  <SCORE.INTRA.SOLV.lig_0>
-39.6315

>  <SCORE.INTRA.VDW>
1.91143

>  <SCORE.INTRA.VDW.0>
-4.02152

>  <SCORE.INTRA.norm>
0.0116617

>  <SCORE.RESTR>
0

>  <SCORE.RESTR.CAVITY>
0

>  <SCORE.RESTR.norm>
0

>  <SCORE.SYSTEM>
0

>  <SCORE.SYSTEM.CONST>
0

>  <SCORE.SYSTEM.DIHEDRAL>
0

>  <SCORE.SYSTEM.SOLV>
0

>  <SCORE.SYSTEM.norm>
0

>  <SCORE.heavy>
27

>  <SCORE.norm>
-0.40665

>  <RMSD>
13.676

$$$$
lig.pdb
 OpenBabel11021811493D
libRbt.so/2013.1/901 2013/11/27
 27 29  0  0  0  0  0  0  0  0999 V2000
   -1.0930   -6.8137  -17.5756 N   0  0  0  0  0  0  0  0  0  0  0  0
   -0.8267   -8.0772  -18.3283 C   0  0  2  0  0  0  0  0  0  0  0  0
   -1.0466   -9.2677  -17.3996 C   0  0  0  0  0  0  0  0  0  0  0  0
   -2.1878   -9.6434  -17.1584 O   0  0  0  0  0  0  0  0  0  0  0  0
   -0.1147   -9.8809  -16.8635 O   0  0  0  0  0  0  0  0  0  0  0  0
    0.5638   -8.1206  -18.9936 C   0  0  0  0  0  0  0  0  0  0  0  0
    1.1961   -6.7574  -19.3789 C   0  0  0  0  0  0  0  0  0  0  0  0
    2.8557   -6.7383  -20.1845 S   0  0  2  0  0  0  0  0  0  0  0  0
    2.4829   -5.9278  -21.7541 C   0  0  0  0  0  0  0  0  0  0  0  0
    3.0671   -8.4367  -20.7613 C   0  0  0  0  0  0  0  0  0  0  0  0
    4.3505   -8.5467  -21.5739 C   0  0  1  0  0  0  0  0  0  0  0  0
    5.4779   -8.0231  -20.8883 O   0  0  0  0  0  0  0  0  0  0  0  0
    4.7402   -9.9691  -21.8746 C   0  0  1  0  0  0  0  0  0  0  0  0
    3.9730  -10.4653  -22.9334 O   0  0  0  0  0  0  0  0  0  0  0  0
    6.1989   -9.7886  -22.2322 C   0  0  1  0  0  0  0  0  0  0  0  0
    6.3231   -9.3770  -23.5783 O   0  0  0  0  0  0  0  0  0  0  0  0
    6.6673   -8.6575  -21.3234 C   0  0  2  0  0  0  0  0  0  0  0  0
    7.5166   -9.0806  -20.1762 N   0  0  0  0  0  0  0  0  0  0  0  0
    8.3726   -8.2649  -19.4799 C   0  0  0  0  0  0  0  0  0  0  0  0
    8.9774   -8.9831  -18.5074 N   0  0  0  0  0  0  0  0  0  0  0  0
    8.5209  -10.2453  -18.5577 C   0  0  0  0  0  0  0  0  0  0  0  0
    8.8012  -11.3674  -17.7929 C   0  0  0  0  0  0  0  0  0  0  0  0
    9.6691  -11.2965  -16.7923 N   0  0  0  0  0  0  0  0  0  0  0  0
    8.1613  -12.5564  -18.0819 N   0  0  0  0  0  0  0  0  0  0  0  0
    7.2429  -12.6426  -19.1206 C   0  0  0  0  0  0  0  0  0  0  0  0
    6.9725  -11.5139  -19.8671 N   0  0  0  0  0  0  0  0  0  0  0  0
    7.6021  -10.3325  -19.6007 C   0  0  0  0  0  0  0  0  0  0  0  0
  2  3  1  1  0  0  0
  2  6  1  0  0  0  0
  2  1  1  0  0  0  0
  4  3  2  0  0  0  0
  5  3  1  0  0  0  0
  6  7  2  0  0  0  0
  8  7  1  1  0  0  0
  8  9  1  0  0  0  0
  8 10  1  0  0  0  0
 11 10  1  1  0  0  0
 11 13  1  0  0  0  0
 12 11  1  0  0  0  0
 12 17  1  0  0  0  0
 13 14  1  6  0  0  0
 13 15  1  0  0  0  0
 15 16  1  6  0  0  0
 17 18  1  1  0  0  0
 17 15  1  0  0  0  0
 18 19  1  0  0  0  0
 20 19  2  0  0  0  0
 21 27  2  0  0  0  0
 21 20  1  0  0  0  0
 22 21  1  0  0  0  0
 23 22  1  0  0  0  0
 24 22  2  0  0  0  0
 24 25  1  0  0  0  0
 25 26  2  0  0  0  0
 26 27  1  0  0  0  0
 27 18  1  0  0  0  0
M  END
>  <CHROM.1>
78.25944044,-27.42686132,120.10862539,174.60218124,51.75742463,-81.51130435
4.45384345,-9.15221845,-19.71774619,3.09751978,0.30060089,-1.05053792

>  <Name>
lig.pdb

>  <RI>
0

>  <Rbt.Current_Directory>
/home/itssahil/PROJECTS/Mol_Feturizer/New_Systems/rnas/4b5r

>  <Rbt.Executable>
rbdock ($Id: //depot/dev/client3/rdock/2013.1/src/exe/rbdock.cxx#4 $)

>  <Rbt.Library>
libRbt.so (2013.1, Build901 2013/11/27)

>  <Rbt.Parameter_File>
/export/apps/rDock/src/rDock_2013.1_src/data/scripts/dock_solv.prm

>  <Rbt.Receptor>
prm/blind_docking_80.prm

>  <SCORE>
-9.83048

>  <SCORE.INTER>
-9.83894

>  <SCORE.INTER.CONST>
1

>  <SCORE.INTER.POLAR>
0

>  <SCORE.INTER.ROT>
6

>  <SCORE.INTER.SOLV>
13.7266

>  <SCORE.INTER.VDW>
-18.7348

>  <SCORE.INTER.norm>
-0.364405

>  <SCORE.INTRA>
0.00846049

>  <SCORE.INTRA.DIHEDRAL>
-1.89064

>  <SCORE.INTRA.DIHEDRAL.0>
10.2917

>  <SCORE.INTRA.POLAR>
0

>  <SCORE.INTRA.POLAR.0>
0

>  <SCORE.INTRA.REPUL>
0

>  <SCORE.INTRA.REPUL.0>
0

>  <SCORE.INTRA.SOLV>
-2.48903

>  <SCORE.INTRA.SOLV.lig_0>
-39.6315

>  <SCORE.INTRA.VDW>
2.1983

>  <SCORE.INTRA.VDW.0>
-4.02152

>  <SCORE.INTRA.norm>
0.000313352

>  <SCORE.RESTR>
0

>  <SCORE.RESTR.CAVITY>
0

>  <SCORE.RESTR.norm>
0

>  <SCORE.SYSTEM>
0

>  <SCORE.SYSTEM.CONST>
0

>  <SCORE.SYSTEM.DIHEDRAL>
0

>  <SCORE.SYSTEM.SOLV>
0

>  <SCORE.SYSTEM.norm>
0

>  <SCORE.heavy>
27

>  <SCORE.norm>
-0.364092

>  <RMSD>
13.704

$$$$
lig.pdb
 OpenBabel11021811493D
libRbt.so/2013.1/901 2013/11/27
 27 29  0  0  0  0  0  0  0  0999 V2000
    5.3171  -14.3390  -14.2834 N   0  0  0  0  0  0  0  0  0  0  0  0
    5.5903  -15.4648  -15.2279 C   0  0  2  0  0  0  0  0  0  0  0  0
    7.0959  -15.7009  -15.3013 C   0  0  0  0  0  0  0  0  0  0  0  0
    7.5314  -16.8453  -15.2509 O   0  0  0  0  0  0  0  0  0  0  0  0
    7.9149  -14.7789  -15.4058 O   0  0  0  0  0  0  0  0  0  0  0  0
    4.9745  -15.2627  -16.6271 C   0  0  0  0  0  0  0  0  0  0  0  0
    5.9531  -14.8990  -17.7745 C   0  0  0  0  0  0  0  0  0  0  0  0
    5.2809  -14.6370  -19.4725 S   0  0  2  0  0  0  0  0  0  0  0  0
    5.3841  -16.3033  -20.1598 C   0  0  0  0  0  0  0  0  0  0  0  0
    6.6501  -13.8578  -20.3556 C   0  0  0  0  0  0  0  0  0  0  0  0
    6.3447  -13.8222  -21.8473 C   0  0  1  0  0  0  0  0  0  0  0  0
    5.1773  -13.0726  -22.1483 O   0  0  0  0  0  0  0  0  0  0  0  0
    7.4223  -13.1512  -22.6559 C   0  0  1  0  0  0  0  0  0  0  0  0
    8.4953  -14.0270  -22.8497 O   0  0  0  0  0  0  0  0  0  0  0  0
    6.6660  -12.8478  -23.9304 C   0  0  1  0  0  0  0  0  0  0  0  0
    6.6321  -13.9908  -24.7605 O   0  0  0  0  0  0  0  0  0  0  0  0
    5.2502  -12.5371  -23.4576 C   0  0  2  0  0  0  0  0  0  0  0  0
    4.8783  -11.0958  -23.4840 N   0  0  0  0  0  0  0  0  0  0  0  0
    4.0712  -10.5021  -24.4216 C   0  0  0  0  0  0  0  0  0  0  0  0
    3.9506   -9.1867  -24.1343 N   0  0  0  0  0  0  0  0  0  0  0  0
    4.6580   -8.9223  -23.0235 C   0  0  0  0  0  0  0  0  0  0  0  0
    4.8605   -7.7536  -22.3054 C   0  0  0  0  0  0  0  0  0  0  0  0
    4.2945   -6.6198  -22.6974 N   0  0  0  0  0  0  0  0  0  0  0  0
    5.6528   -7.7865  -21.1750 N   0  0  0  0  0  0  0  0  0  0  0  0
    6.2438   -8.9687  -20.7476 C   0  0  0  0  0  0  0  0  0  0  0  0
    6.0261  -10.1231  -21.4718 N   0  0  0  0  0  0  0  0  0  0  0  0
    5.2526  -10.1070  -22.5964 C   0  0  0  0  0  0  0  0  0  0  0  0
  2  3  1  6  0  0  0
  2  6  1  0  0  0  0
  2  1  1  0  0  0  0
  4  3  2  0  0  0  0
  5  3  1  0  0  0  0
  6  7  2  0  0  0  0
  8  7  1  1  0  0  0
  8  9  1  0  0  0  0
  8 10  1  0  0  0  0
 11 10  1  1  0  0  0
 11 13  1  0  0  0  0
 12 11  1  0  0  0  0
 12 17  1  0  0  0  0
 13 14  1  6  0  0  0
 13 15  1  0  0  0  0
 15 16  1  6  0  0  0
 17 18  1  1  0  0  0
 17 15  1  0  0  0  0
 18 19  1  0  0  0  0
 20 19  2  0  0  0  0
 21 27  2  0  0  0  0
 21 20  1  0  0  0  0
 22 21  1  0  0  0  0
 23 22  1  0  0  0  0
 24 22  2  0  0  0  0
 24 25  1  0  0  0  0
 25 26  2  0  0  0  0
 26 27  1  0  0  0  0
 27 18  1  0  0  0  0
M  END
>  <CHROM.1>
134.96291020,105.98999798,-90.34206244,169.09012401,60.96867763,-136.63218551
5.85019282,-12.65475705,-20.57499902,1.00626223,-1.31233281,1.71282779

>  <Name>
lig.pdb

>  <RI>
0

>  <Rbt.Current_Directory>
/home/itssahil/PROJECTS/Mol_Feturizer/New_Systems/rnas/4b5r

>  <Rbt.Executable>
rbdock ($Id: //depot/dev/client3/rdock/2013.1/src/exe/rbdock.cxx#4 $)

>  <Rbt.Library>
libRbt.so (2013.1, Build901 2013/11/27)

>  <Rbt.Parameter_File>
/export/apps/rDock/src/rDock_2013.1_src/data/scripts/dock_solv.prm

>  <Rbt.Receptor>
prm/blind_docking_60.prm

>  <SCORE>
-11.0578

>  <SCORE.INTER>
-10.3236

>  <SCORE.INTER.CONST>
1

>  <SCORE.INTER.POLAR>
0

>  <SCORE.INTER.ROT>
6

>  <SCORE.INTER.SOLV>
13.5033

>  <SCORE.INTER.VDW>
-18.9835

>  <SCORE.INTER.norm>
-0.382356

>  <SCORE.INTRA>
-0.734144

>  <SCORE.INTRA.DIHEDRAL>
-2.06556

>  <SCORE.INTRA.DIHEDRAL.0>
10.2917

>  <SCORE.INTRA.POLAR>
0

>  <SCORE.INTRA.POLAR.0>
0

>  <SCORE.INTRA.REPUL>
0

>  <SCORE.INTRA.REPUL.0>
0

>  <SCORE.INTRA.SOLV>
-2.65128

>  <SCORE.INTRA.SOLV.lig_0>
-39.6315

>  <SCORE.INTRA.VDW>
1.62427

>  <SCORE.INTRA.VDW.0>
-4.02152

>  <SCORE.INTRA.norm>
-0.0271905

>  <SCORE.RESTR>
0

>  <SCORE.RESTR.CAVITY>
0

>  <SCORE.RESTR.norm>
0

>  <SCORE.SYSTEM>
0

>  <SCORE.SYSTEM.CONST>
0

>  <SCORE.SYSTEM.DIHEDRAL>
0

>  <SCORE.SYSTEM.SOLV>
0

>  <SCORE.SYSTEM.norm>
0

>  <SCORE.heavy>
27

>  <SCORE.norm>
-0.409546

>  <RMSD>
13.800

$$$$
lig.pdb
 OpenBabel11021811493D
libRbt.so/2013.1/901 2013/11/27
 27 29  0  0  0  0  0  0  0  0999 V2000
   16.5174   -9.4757  -18.6134 N   0  0  0  0  0  0  0  0  0  0  0  0
   15.2013   -9.9912  -19.0993 C   0  0  2  0  0  0  0  0  0  0  0  0
   15.1796   -9.9467  -20.6243 C   0  0  0  0  0  0  0  0  0  0  0  0
   15.6385   -8.9713  -21.2071 O   0  0  0  0  0  0  0  0  0  0  0  0
   14.7091  -10.8596  -21.3151 O   0  0  0  0  0  0  0  0  0  0  0  0
   13.9871   -9.2625  -18.4889 C   0  0  0  0  0  0  0  0  0  0  0  0
   12.7985  -10.1485  -18.0321 C   0  0  0  0  0  0  0  0  0  0  0  0
   11.3113   -9.3395  -17.2991 S   0  0  2  0  0  0  0  0  0  0  0  0
   11.8907   -8.9696  -15.6297 C   0  0  0  0  0  0  0  0  0  0  0  0
   10.2088  -10.7239  -16.9392 C   0  0  0  0  0  0  0  0  0  0  0  0
    8.7648  -10.3080  -17.1870 C   0  0  1  0  0  0  0  0  0  0  0  0
    8.5806   -9.7045  -18.4587 O   0  0  0  0  0  0  0  0  0  0  0  0
    7.8080  -11.4698  -17.1974 C   0  0  1  0  0  0  0  0  0  0  0  0
    7.5174  -11.8664  -15.8882 O   0  0  0  0  0  0  0  0  0  0  0  0
    6.6244  -10.8495  -17.9063 C   0  0  1  0  0  0  0  0  0  0  0  0
    5.8462  -10.1029  -16.9931 O   0  0  0  0  0  0  0  0  0  0  0  0
    7.2536   -9.8958  -18.9158 C   0  0  2  0  0  0  0  0  0  0  0  0
    7.2204  -10.3617  -20.3294 N   0  0  0  0  0  0  0  0  0  0  0  0
    7.2166   -9.5466  -21.4332 C   0  0  0  0  0  0  0  0  0  0  0  0
    7.1837  -10.3099  -22.5485 N   0  0  0  0  0  0  0  0  0  0  0  0
    7.1751  -11.6028  -22.1848 C   0  0  0  0  0  0  0  0  0  0  0  0
    7.1546  -12.7768  -22.9222 C   0  0  0  0  0  0  0  0  0  0  0  0
    7.1416  -12.7351  -24.2480 N   0  0  0  0  0  0  0  0  0  0  0  0
    7.1541  -13.9883  -22.2598 N   0  0  0  0  0  0  0  0  0  0  0  0
    7.1773  -14.0470  -20.8721 C   0  0  0  0  0  0  0  0  0  0  0  0
    7.2035  -12.8681  -20.1551 N   0  0  0  0  0  0  0  0  0  0  0  0
    7.1958  -11.6616  -20.7935 C   0  0  0  0  0  0  0  0  0  0  0  0
  2  3  1  6  0  0  0
  2  6  1  0  0  0  0
  2  1  1  0  0  0  0
  4  3  2  0  0  0  0
  5  3  1  0  0  0  0
  6  7  2  0  0  0  0
  8  7  1  6  0  0  0
  8  9  1  0  0  0  0
  8 10  1  0  0  0  0
 11 10  1  6  0  0  0
 11 13  1  0  0  0  0
 12 11  1  0  0  0  0
 12 17  1  0  0  0  0
 13 14  1  1  0  0  0
 13 15  1  0  0  0  0
 15 16  1  1  0  0  0
 17 18  1  6  0  0  0
 17 15  1  0  0  0  0
 18 19  1  0  0  0  0
 20 19  2  0  0  0  0
 21 27  2  0  0  0  0
 21 20  1  0  0  0  0
 22 21  1  0  0  0  0
 23 22  1  0  0  0  0
 24 22  2  0  0  0  0
 24 25  1  0  0  0  0
 25 26  2  0  0  0  0
 26 27  1  0  0  0  0
 27 18  1  0  0  0  0
M  END
>  <CHROM.1>
-41.97005095,-136.70143060,-77.42468478,-143.98374991,50.31377469,-87.60973848
9.80294829,-10.71146605,-19.37920951,-0.27191689,-0.21466509,-1.86109042

>  <Name>
lig.pdb

>  <RI>
0

>  <Rbt.Current_Directory>
/home/itssahil/PROJECTS/Mol_Feturizer/New_Systems/rnas/4b5r

>  <Rbt.Executable>
rbdock ($Id: //depot/dev/client3/rdock/2013.1/src/exe/rbdock.cxx#4 $)

>  <Rbt.Library>
libRbt.so (2013.1, Build901 2013/11/27)

>  <Rbt.Parameter_File>
/export/apps/rDock/src/rDock_2013.1_src/data/scripts/dock_solv.prm

>  <Rbt.Receptor>
prm/blind_docking_80.prm

>  <SCORE>
-15.0778

>  <SCORE.INTER>
-15.714

>  <SCORE.INTER.CONST>
1

>  <SCORE.INTER.POLAR>
0

>  <SCORE.INTER.ROT>
6

>  <SCORE.INTER.SOLV>
16.2192

>  <SCORE.INTER.VDW>
-23.4824

>  <SCORE.INTER.norm>
-0.581999

>  <SCORE.INTRA>
0.636179

>  <SCORE.INTRA.DIHEDRAL>
1.6517

>  <SCORE.INTRA.DIHEDRAL.0>
10.2917

>  <SCORE.INTRA.POLAR>
0

>  <SCORE.INTRA.POLAR.0>
0

>  <SCORE.INTRA.REPUL>
0

>  <SCORE.INTRA.REPUL.0>
0

>  <SCORE.INTRA.SOLV>
-2.94938

>  <SCORE.INTRA.SOLV.lig_0>
-39.6315

>  <SCORE.INTRA.VDW>
1.28502

>  <SCORE.INTRA.VDW.0>
-4.02152

>  <SCORE.INTRA.norm>
0.0235622

>  <SCORE.RESTR>
0

>  <SCORE.RESTR.CAVITY>
0

>  <SCORE.RESTR.norm>
0

>  <SCORE.SYSTEM>
0

>  <SCORE.SYSTEM.CONST>
0

>  <SCORE.SYSTEM.DIHEDRAL>
0

>  <SCORE.SYSTEM.SOLV>
0

>  <SCORE.SYSTEM.norm>
0

>  <SCORE.heavy>
27

>  <SCORE.norm>
-0.558436

>  <RMSD>
13.809

$$$$
lig.pdb
 OpenBabel11021811493D
libRbt.so/2013.1/901 2013/11/27
 27 29  0  0  0  0  0  0  0  0999 V2000
   -3.7894   -9.5478  -21.7450 N   0  0  0  0  0  0  0  0  0  0  0  0
   -2.8724  -10.5663  -22.3415 C   0  0  2  0  0  0  0  0  0  0  0  0
   -3.4982  -11.9499  -22.1925 C   0  0  0  0  0  0  0  0  0  0  0  0
   -4.6253  -12.0562  -21.7233 O   0  0  0  0  0  0  0  0  0  0  0  0
   -2.9131  -12.9895  -22.5223 O   0  0  0  0  0  0  0  0  0  0  0  0
   -1.4411  -10.5218  -21.7695 C   0  0  0  0  0  0  0  0  0  0  0  0
   -0.3132  -10.0910  -22.7436 C   0  0  0  0  0  0  0  0  0  0  0  0
    1.4235  -10.0229  -22.1250 S   0  0  2  0  0  0  0  0  0  0  0  0
    1.3544   -8.5977  -21.0189 C   0  0  0  0  0  0  0  0  0  0  0  0
    2.3367   -9.2952  -23.5028 C   0  0  0  0  0  0  0  0  0  0  0  0
    3.8326   -9.3842  -23.2311 C   0  0  1  0  0  0  0  0  0  0  0  0
    4.1903   -8.8541  -21.9637 O   0  0  0  0  0  0  0  0  0  0  0  0
    4.3428  -10.7995  -23.1869 C   0  0  1  0  0  0  0  0  0  0  0  0
    4.5024  -11.2950  -24.4849 O   0  0  0  0  0  0  0  0  0  0  0  0
    5.6554  -10.6000  -22.4621 C   0  0  1  0  0  0  0  0  0  0  0  0
    6.6528  -10.1754  -23.3687 O   0  0  0  0  0  0  0  0  0  0  0  0
    5.3688   -9.4718  -21.4775 C   0  0  2  0  0  0  0  0  0  0  0  0
    5.2224   -9.8953  -20.0578 N   0  0  0  0  0  0  0  0  0  0  0  0
    4.4491   -9.2628  -19.1171 C   0  0  0  0  0  0  0  0  0  0  0  0
    4.5543   -9.9207  -17.9409 N   0  0  0  0  0  0  0  0  0  0  0  0
    5.3742  -10.9714  -18.1075 C   0  0  0  0  0  0  0  0  0  0  0  0
    5.8071  -11.9610  -17.2381 C   0  0  0  0  0  0  0  0  0  0  0  0
    5.3950  -11.9723  -15.9772 N   0  0  0  0  0  0  0  0  0  0  0  0
    6.6664  -12.9369  -17.7026 N   0  0  0  0  0  0  0  0  0  0  0  0
    7.0983  -12.9429  -19.0229 C   0  0  0  0  0  0  0  0  0  0  0  0
    6.6523  -11.9532  -19.8751 N   0  0  0  0  0  0  0  0  0  0  0  0
    5.8093  -10.9760  -19.4305 C   0  0  0  0  0  0  0  0  0  0  0  0
  2  3  1  1  0  0  0
  2  6  1  0  0  0  0
  2  1  1  0  0  0  0
  4  3  2  0  0  0  0
  5  3  1  0  0  0  0
  6  7  2  0  0  0  0
  8  7  1  6  0  0  0
  8  9  1  0  0  0  0
  8 10  1  0  0  0  0
 11 10  1  1  0  0  0
 11 13  1  0  0  0  0
 12 11  1  0  0  0  0
 12 17  1  0  0  0  0
 13 14  1  6  0  0  0
 13 15  1  0  0  0  0
 15 16  1  6  0  0  0
 17 18  1  1  0  0  0
 17 15  1  0  0  0  0
 18 19  1  0  0  0  0
 20 19  2  0  0  0  0
 21 27  2  0  0  0  0
 21 20  1  0  0  0  0
 22 21  1  0  0  0  0
 23 22  1  0  0  0  0
 24 22  2  0  0  0  0
 24 25  1  0  0  0  0
 25 26  2  0  0  0  0
 26 27  1  0  0  0  0
 27 18  1  0  0  0  0
M  END
>  <CHROM.1>
4.54343565,-113.54362177,-70.27341501,-170.70029345,-52.16484663,-31.27723541
2.74553125,-10.66769382,-21.09428084,2.83596527,-0.08641690,-1.23574102

>  <Name>
lig.pdb

>  <RI>
0

>  <Rbt.Current_Directory>
/home/itssahil/PROJECTS/Mol_Feturizer/New_Systems/rnas/4b5r

>  <Rbt.Executable>
rbdock ($Id: //depot/dev/client3/rdock/2013.1/src/exe/rbdock.cxx#4 $)

>  <Rbt.Library>
libRbt.so (2013.1, Build901 2013/11/27)

>  <Rbt.Parameter_File>
/export/apps/rDock/src/rDock_2013.1_src/data/scripts/dock_solv.prm

>  <Rbt.Receptor>
prm/blind_docking_40.prm

>  <SCORE>
-11.0681

>  <SCORE.INTER>
-10.4879

>  <SCORE.INTER.CONST>
1

>  <SCORE.INTER.POLAR>
0

>  <SCORE.INTER.ROT>
6

>  <SCORE.INTER.SOLV>
12.0515

>  <SCORE.INTER.VDW>
-18.6091

>  <SCORE.INTER.norm>
-0.388442

>  <SCORE.INTRA>
-0.580165

>  <SCORE.INTRA.DIHEDRAL>
-1.90877

>  <SCORE.INTRA.DIHEDRAL.0>
10.2917

>  <SCORE.INTRA.POLAR>
0

>  <SCORE.INTRA.POLAR.0>
0

>  <SCORE.INTRA.REPUL>
0

>  <SCORE.INTRA.REPUL.0>
0

>  <SCORE.INTRA.SOLV>
-2.69662

>  <SCORE.INTRA.SOLV.lig_0>
-39.6315

>  <SCORE.INTRA.VDW>
1.72253

>  <SCORE.INTRA.VDW.0>
-4.02152

>  <SCORE.INTRA.norm>
-0.0214876

>  <SCORE.RESTR>
0

>  <SCORE.RESTR.CAVITY>
0

>  <SCORE.RESTR.norm>
0

>  <SCORE.SYSTEM>
0

>  <SCORE.SYSTEM.CONST>
0

>  <SCORE.SYSTEM.DIHEDRAL>
0

>  <SCORE.SYSTEM.SOLV>
0

>  <SCORE.SYSTEM.norm>
0

>  <SCORE.heavy>
27

>  <SCORE.norm>
-0.40993

>  <RMSD>
13.813

$$$$
lig.pdb
 OpenBabel11021811493D
libRbt.so/2013.1/901 2013/11/27
 27 29  0  0  0  0  0  0  0  0999 V2000
   -2.4722   -7.8448  -15.3948 N   0  0  0  0  0  0  0  0  0  0  0  0
   -3.9244   -7.9951  -15.0744 C   0  0  2  0  0  0  0  0  0  0  0  0
   -4.6907   -8.2961  -16.3590 C   0  0  0  0  0  0  0  0  0  0  0  0
   -4.5618   -7.5561  -17.3273 O   0  0  0  0  0  0  0  0  0  0  0  0
   -5.4537   -9.2639  -16.4735 O   0  0  0  0  0  0  0  0  0  0  0  0
   -4.5209   -6.7882  -14.3225 C   0  0  0  0  0  0  0  0  0  0  0  0
   -5.6802   -6.0326  -15.0235 C   0  0  0  0  0  0  0  0  0  0  0  0
   -6.4348   -4.5750  -14.1811 S   0  0  2  0  0  0  0  0  0  0  0  0
   -5.0197   -3.9107  -13.2781 C   0  0  0  0  0  0  0  0  0  0  0  0
   -7.3551   -5.3065  -12.8100 C   0  0  0  0  0  0  0  0  0  0  0  0
   -8.3071   -6.3703  -13.3404 C   0  0  1  0  0  0  0  0  0  0  0  0
   -7.6438   -7.5809  -13.6720 O   0  0  0  0  0  0  0  0  0  0  0  0
   -9.3438   -6.7914  -12.3338 C   0  0  1  0  0  0  0  0  0  0  0  0
  -10.3678   -5.8410  -12.2703 O   0  0  0  0  0  0  0  0  0  0  0  0
   -9.7917   -8.1078  -12.9293 C   0  0  1  0  0  0  0  0  0  0  0  0
  -10.7449   -7.8824  -13.9479 O   0  0  0  0  0  0  0  0  0  0  0  0
   -8.5257   -8.6831  -13.5544 C   0  0  2  0  0  0  0  0  0  0  0  0
   -7.9045   -9.8068  -12.8010 N   0  0  0  0  0  0  0  0  0  0  0  0
   -6.6254  -10.2703  -12.9798 C   0  0  0  0  0  0  0  0  0  0  0  0
   -6.4016  -11.2954  -12.1274 N   0  0  0  0  0  0  0  0  0  0  0  0
   -7.5099  -11.4962  -11.3956 C   0  0  0  0  0  0  0  0  0  0  0  0
   -7.8081  -12.3999  -10.3872 C   0  0  0  0  0  0  0  0  0  0  0  0
   -6.9000  -13.2797   -9.9859 N   0  0  0  0  0  0  0  0  0  0  0  0
   -9.0586  -12.3683   -9.8026 N   0  0  0  0  0  0  0  0  0  0  0  0
  -10.0159  -11.4461  -10.2063 C   0  0  0  0  0  0  0  0  0  0  0  0
   -9.6989  -10.5506  -11.2074 N   0  0  0  0  0  0  0  0  0  0  0  0
   -8.4705  -10.5733  -11.8020 C   0  0  0  0  0  0  0  0  0  0  0  0
  2  3  1  6  0  0  0
  2  6  1  0  0  0  0
  2  1  1  0  0  0  0
  4  3  2  0  0  0  0
  5  3  1  0  0  0  0
  6  7  2  0  0  0  0
  8  7  1  6  0  0  0
  8  9  1  0  0  0  0
  8 10  1  0  0  0  0
 11 10  1  1  0  0  0
 11 13  1  0  0  0  0
 12 11  1  0  0  0  0
 12 17  1  0  0  0  0
 13 14  1  6  0  0  0
 13 15  1  0  0  0  0
 15 16  1  6  0  0  0
 17 18  1  1  0  0  0
 17 15  1  0  0  0  0
 18 19  1  0  0  0  0
 20 19  2  0  0  0  0
 21 27  2  0  0  0  0
 21 20  1  0  0  0  0
 22 21  1  0  0  0  0
 23 22  1  0  0  0  0
 24 22  2  0  0  0  0
 24 25  1  0  0  0  0
 25 26  2  0  0  0  0
 26 27  1  0  0  0  0
 27 18  1  0  0  0  0
M  END
>  <CHROM.1>
-53.08158433,119.24024933,31.81707203,-54.26673883,76.70853566,-44.38444610
-7.19962019,-8.35016981,-13.24630571,-1.01114866,-0.54156223,2.79397439

>  <Name>
lig.pdb

>  <RI>
0

>  <Rbt.Current_Directory>
/home/itssahil/PROJECTS/Mol_Feturizer/New_Systems/rnas/4b5r

>  <Rbt.Executable>
rbdock ($Id: //depot/dev/client3/rdock/2013.1/src/exe/rbdock.cxx#4 $)

>  <Rbt.Library>
libRbt.so (2013.1, Build901 2013/11/27)

>  <Rbt.Parameter_File>
/export/apps/rDock/src/rDock_2013.1_src/data/scripts/dock_solv.prm

>  <Rbt.Receptor>
prm/blind_docking_20.prm

>  <SCORE>
-6.56696

>  <SCORE.INTER>
-7.1059

>  <SCORE.INTER.CONST>
1

>  <SCORE.INTER.POLAR>
0

>  <SCORE.INTER.ROT>
6

>  <SCORE.INTER.SOLV>
17.9932

>  <SCORE.INTER.VDW>
-18.335

>  <SCORE.INTER.norm>
-0.263181

>  <SCORE.INTRA>
0.538935

>  <SCORE.INTRA.DIHEDRAL>
-0.453121

>  <SCORE.INTRA.DIHEDRAL.0>
10.2917

>  <SCORE.INTRA.POLAR>
0

>  <SCORE.INTRA.POLAR.0>
0

>  <SCORE.INTRA.REPUL>
0

>  <SCORE.INTRA.REPUL.0>
0

>  <SCORE.INTRA.SOLV>
-2.49363

>  <SCORE.INTRA.SOLV.lig_0>
-39.6315

>  <SCORE.INTRA.VDW>
2.01231

>  <SCORE.INTRA.VDW.0>
-4.02152

>  <SCORE.INTRA.norm>
0.0199606

>  <SCORE.RESTR>
0

>  <SCORE.RESTR.CAVITY>
0

>  <SCORE.RESTR.norm>
0

>  <SCORE.SYSTEM>
0

>  <SCORE.SYSTEM.CONST>
0

>  <SCORE.SYSTEM.DIHEDRAL>
0

>  <SCORE.SYSTEM.SOLV>
0

>  <SCORE.SYSTEM.norm>
0

>  <SCORE.heavy>
27

>  <SCORE.norm>
-0.243221

>  <RMSD>
13.828

$$$$
lig.pdb
 OpenBabel11021811493D
libRbt.so/2013.1/901 2013/11/27
 27 29  0  0  0  0  0  0  0  0999 V2000
    8.4338  -10.5167  -19.4996 N   0  0  0  0  0  0  0  0  0  0  0  0
    8.1978   -9.0811  -19.8424 C   0  0  2  0  0  0  0  0  0  0  0  0
    7.8438   -8.3157  -18.5708 C   0  0  0  0  0  0  0  0  0  0  0  0
    8.3830   -8.6189  -17.5129 O   0  0  0  0  0  0  0  0  0  0  0  0
    7.0213   -7.3911  -18.5519 O   0  0  0  0  0  0  0  0  0  0  0  0
    7.1422   -8.8735  -20.9471 C   0  0  0  0  0  0  0  0  0  0  0  0
    6.9721  -10.0229  -21.9750 C   0  0  0  0  0  0  0  0  0  0  0  0
    5.7305   -9.8359  -23.3267 S   0  0  2  0  0  0  0  0  0  0  0  0
    6.7961   -9.5387  -24.7534 C   0  0  0  0  0  0  0  0  0  0  0  0
    5.0810   -8.1690  -23.0790 C   0  0  0  0  0  0  0  0  0  0  0  0
    3.7815   -8.2369  -22.2877 C   0  0  1  0  0  0  0  0  0  0  0  0
    3.8992   -9.0206  -21.1099 O   0  0  0  0  0  0  0  0  0  0  0  0
    3.3253   -6.8942  -21.7831 C   0  0  1  0  0  0  0  0  0  0  0  0
    2.7135   -6.1744  -22.8143 O   0  0  0  0  0  0  0  0  0  0  0  0
    2.3581   -7.3178  -20.6999 C   0  0  1  0  0  0  0  0  0  0  0  0
    1.1011   -7.6311  -21.2645 O   0  0  0  0  0  0  0  0  0  0  0  0
    2.9745   -8.5893  -20.1274 C   0  0  2  0  0  0  0  0  0  0  0  0
    3.6202   -8.4329  -18.7951 N   0  0  0  0  0  0  0  0  0  0  0  0
    4.2145   -9.4410  -18.0786 C   0  0  0  0  0  0  0  0  0  0  0  0
    4.6943   -8.9381  -16.9192 N   0  0  0  0  0  0  0  0  0  0  0  0
    4.4284   -7.6222  -16.8783 C   0  0  0  0  0  0  0  0  0  0  0  0
    4.7064   -6.6455  -15.9342 C   0  0  0  0  0  0  0  0  0  0  0  0
    5.3566   -6.9560  -14.8204 N   0  0  0  0  0  0  0  0  0  0  0  0
    4.3039   -5.3460  -16.1708 N   0  0  0  0  0  0  0  0  0  0  0  0
    3.6308   -5.0048  -17.3371 C   0  0  0  0  0  0  0  0  0  0  0  0
    3.3681   -5.9893  -18.2679 N   0  0  0  0  0  0  0  0  0  0  0  0
    3.7513   -7.2805  -18.0464 C   0  0  0  0  0  0  0  0  0  0  0  0
  2  3  1  1  0  0  0
  2  6  1  0  0  0  0
  2  1  1  0  0  0  0
  4  3  2  0  0  0  0
  5  3  1  0  0  0  0
  6  7  2  0  0  0  0
  8  7  1  1  0  0  0
  8  9  1  0  0  0  0
  8 10  1  0  0  0  0
 11 10  1  1  0  0  0
 11 13  1  0  0  0  0
 12 11  1  0  0  0  0
 12 17  1  0  0  0  0
 13 14  1  6  0  0  0
 13 15  1  0  0  0  0
 15 16  1  6  0  0  0
 17 18  1  1  0  0  0
 17 15  1  0  0  0  0
 18 19  1  0  0  0  0
 20 19  2  0  0  0  0
 21 27  2  0  0  0  0
 21 20  1  0  0  0  0
 22 21  1  0  0  0  0
 23 22  1  0  0  0  0
 24 22  2  0  0  0  0
 24 25  1  0  0  0  0
 25 26  2  0  0  0  0
 26 27  1  0  0  0  0
 27 18  1  0  0  0  0
M  END
>  <CHROM.1>
35.82039511,-27.84517570,106.30663526,-96.89267708,50.27796938,-61.84249380
4.98925876,-8.08607598,-19.83860971,-1.46624618,-0.44211512,1.28868445

>  <Name>
lig.pdb

>  <RI>
0

>  <Rbt.Current_Directory>
/home/itssahil/PROJECTS/Mol_Feturizer/New_Systems/rnas/4b5r

>  <Rbt.Executable>
rbdock ($Id: //depot/dev/client3/rdock/2013.1/src/exe/rbdock.cxx#4 $)

>  <Rbt.Library>
libRbt.so (2013.1, Build901 2013/11/27)

>  <Rbt.Parameter_File>
/export/apps/rDock/src/rDock_2013.1_src/data/scripts/dock_solv.prm

>  <Rbt.Receptor>
prm/blind_docking_80.prm

>  <SCORE>
-7.83325

>  <SCORE.INTER>
-7.21733

>  <SCORE.INTER.CONST>
1

>  <SCORE.INTER.POLAR>
0

>  <SCORE.INTER.ROT>
6

>  <SCORE.INTER.SOLV>
13.767

>  <SCORE.INTER.VDW>
-17.0006

>  <SCORE.INTER.norm>
-0.267308

>  <SCORE.INTRA>
-0.615926

>  <SCORE.INTRA.DIHEDRAL>
0.655825

>  <SCORE.INTRA.DIHEDRAL.0>
10.2917

>  <SCORE.INTRA.POLAR>
0

>  <SCORE.INTRA.POLAR.0>
0

>  <SCORE.INTRA.REPUL>
0

>  <SCORE.INTRA.REPUL.0>
0

>  <SCORE.INTRA.SOLV>
-2.16166

>  <SCORE.INTRA.SOLV.lig_0>
-39.6315

>  <SCORE.INTRA.VDW>
0.136993

>  <SCORE.INTRA.VDW.0>
-4.02152

>  <SCORE.INTRA.norm>
-0.0228121

>  <SCORE.RESTR>
0

>  <SCORE.RESTR.CAVITY>
0

>  <SCORE.RESTR.norm>
0

>  <SCORE.SYSTEM>
0

>  <SCORE.SYSTEM.CONST>
0

>  <SCORE.SYSTEM.DIHEDRAL>
0

>  <SCORE.SYSTEM.SOLV>
0

>  <SCORE.SYSTEM.norm>
0

>  <SCORE.heavy>
27

>  <SCORE.norm>
-0.29012

>  <RMSD>
13.842

$$$$
lig.pdb
 OpenBabel11021811493D
libRbt.so/2013.1/901 2013/11/27
 27 29  0  0  0  0  0  0  0  0999 V2000
    3.6732   -8.3053  -26.1183 N   0  0  0  0  0  0  0  0  0  0  0  0
    5.0479   -7.9016  -26.5439 C   0  0  2  0  0  0  0  0  0  0  0  0
    5.2446   -8.2693  -28.0116 C   0  0  0  0  0  0  0  0  0  0  0  0
    4.4201   -7.9048  -28.8418 O   0  0  0  0  0  0  0  0  0  0  0  0
    6.2088   -8.9333  -28.4131 O   0  0  0  0  0  0  0  0  0  0  0  0
    6.1668   -8.4807  -25.6547 C   0  0  0  0  0  0  0  0  0  0  0  0
    5.7217   -9.3629  -24.4588 C   0  0  0  0  0  0  0  0  0  0  0  0
    7.0100  -10.0819  -23.3511 S   0  0  2  0  0  0  0  0  0  0  0  0
    7.8840  -11.1820  -24.4848 C   0  0  0  0  0  0  0  0  0  0  0  0
    6.1013  -11.3040  -22.3804 C   0  0  0  0  0  0  0  0  0  0  0  0
    6.6753  -11.3702  -20.9713 C   0  0  1  0  0  0  0  0  0  0  0  0
    6.4525  -10.1777  -20.2340 O   0  0  0  0  0  0  0  0  0  0  0  0
    6.0424  -12.4413  -20.1243 C   0  0  1  0  0  0  0  0  0  0  0  0
    6.5768  -13.6919  -20.4502 O   0  0  0  0  0  0  0  0  0  0  0  0
    6.4343  -11.9704  -18.7411 C   0  0  1  0  0  0  0  0  0  0  0  0
    7.7507  -12.3866  -18.4397 O   0  0  0  0  0  0  0  0  0  0  0  0
    6.4072  -10.4496  -18.8445 C   0  0  2  0  0  0  0  0  0  0  0  0
    5.2402   -9.7936  -18.1933 N   0  0  0  0  0  0  0  0  0  0  0  0
    5.0841   -9.6130  -16.8420 C   0  0  0  0  0  0  0  0  0  0  0  0
    3.9103   -8.9835  -16.6111 N   0  0  0  0  0  0  0  0  0  0  0  0
    3.3101   -8.7468  -17.7891 C   0  0  0  0  0  0  0  0  0  0  0  0
    2.1118   -8.1303  -18.1157 C   0  0  0  0  0  0  0  0  0  0  0  0
    1.3283   -7.6417  -17.1633 N   0  0  0  0  0  0  0  0  0  0  0  0
    1.7480   -8.0262  -19.4436 N   0  0  0  0  0  0  0  0  0  0  0  0
    2.5632   -8.5247  -20.4519 C   0  0  0  0  0  0  0  0  0  0  0  0
    3.7549   -9.1298  -20.1079 N   0  0  0  0  0  0  0  0  0  0  0  0
    4.1262   -9.2488  -18.7998 C   0  0  0  0  0  0  0  0  0  0  0  0
  2  3  1  6  0  0  0
  2  6  1  0  0  0  0
  2  1  1  0  0  0  0
  4  3  2  0  0  0  0
  5  3  1  0  0  0  0
  6  7  2  0  0  0  0
  8  7  1  6  0  0  0
  8  9  1  0  0  0  0
  8 10  1  0  0  0  0
 11 10  1  6  0  0  0
 11 13  1  0  0  0  0
 12 11  1  0  0  0  0
 12 17  1  0  0  0  0
 13 14  1  6  0  0  0
 13 15  1  0  0  0  0
 15 16  1  6  0  0  0
 17 18  1  6  0  0  0
 17 15  1  0  0  0  0
 18 19  1  0  0  0  0
 20 19  2  0  0  0  0
 21 27  2  0  0  0  0
 21 20  1  0  0  0  0
 22 21  1  0  0  0  0
 23 22  1  0  0  0  0
 24 22  2  0  0  0  0
 24 25  1  0  0  0  0
 25 26  2  0  0  0  0
 26 27  1  0  0  0  0
 27 18  1  0  0  0  0
M  END
>  <CHROM.1>
51.91334433,-0.86558922,-64.25049743,-145.74949433,66.96444707,-164.49656782
5.21850045,-9.76595378,-21.62485624,1.38731434,0.71363706,-1.34160094

>  <Name>
lig.pdb

>  <RI>
0

>  <Rbt.Current_Directory>
/home/itssahil/PROJECTS/Mol_Feturizer/New_Systems/rnas/4b5r

>  <Rbt.Executable>
rbdock ($Id: //depot/dev/client3/rdock/2013.1/src/exe/rbdock.cxx#4 $)

>  <Rbt.Library>
libRbt.so (2013.1, Build901 2013/11/27)

>  <Rbt.Parameter_File>
/export/apps/rDock/src/rDock_2013.1_src/data/scripts/dock_solv.prm

>  <Rbt.Receptor>
prm/blind_docking_60.prm

>  <SCORE>
-12.2448

>  <SCORE.INTER>
-12.9863

>  <SCORE.INTER.CONST>
1

>  <SCORE.INTER.POLAR>
0

>  <SCORE.INTER.ROT>
6

>  <SCORE.INTER.SOLV>
15.9372

>  <SCORE.INTER.VDW>
-21.5699

>  <SCORE.INTER.norm>
-0.480974

>  <SCORE.INTRA>
0.741511

>  <SCORE.INTRA.DIHEDRAL>
0.485497

>  <SCORE.INTRA.DIHEDRAL.0>
10.2917

>  <SCORE.INTRA.POLAR>
0

>  <SCORE.INTRA.POLAR.0>
0

>  <SCORE.INTRA.REPUL>
0

>  <SCORE.INTRA.REPUL.0>
0

>  <SCORE.INTRA.SOLV>
-2.30404

>  <SCORE.INTRA.SOLV.lig_0>
-39.6315

>  <SCORE.INTRA.VDW>
1.65078

>  <SCORE.INTRA.VDW.0>
-4.02152

>  <SCORE.INTRA.norm>
0.0274634

>  <SCORE.RESTR>
0

>  <SCORE.RESTR.CAVITY>
0

>  <SCORE.RESTR.norm>
0

>  <SCORE.SYSTEM>
0

>  <SCORE.SYSTEM.CONST>
0

>  <SCORE.SYSTEM.DIHEDRAL>
0

>  <SCORE.SYSTEM.SOLV>
0

>  <SCORE.SYSTEM.norm>
0

>  <SCORE.heavy>
27

>  <SCORE.norm>
-0.453511

>  <RMSD>
13.956

$$$$
lig.pdb
 OpenBabel11021811493D
libRbt.so/2013.1/901 2013/11/27
 27 29  0  0  0  0  0  0  0  0999 V2000
   -1.3390   -9.0959  -21.3721 N   0  0  0  0  0  0  0  0  0  0  0  0
   -1.1459   -9.9721  -22.5675 C   0  0  2  0  0  0  0  0  0  0  0  0
   -1.1634  -11.4321  -22.1246 C   0  0  0  0  0  0  0  0  0  0  0  0
   -2.0436  -12.1784  -22.5369 O   0  0  0  0  0  0  0  0  0  0  0  0
   -0.3218  -11.9085  -21.3521 O   0  0  0  0  0  0  0  0  0  0  0  0
    0.1193   -9.6373  -23.3830 C   0  0  0  0  0  0  0  0  0  0  0  0
    1.4283   -9.4151  -22.5808 C   0  0  0  0  0  0  0  0  0  0  0  0
    2.9774   -9.0048  -23.4950 S   0  0  2  0  0  0  0  0  0  0  0  0
    2.8782  -10.1397  -24.8956 C   0  0  0  0  0  0  0  0  0  0  0  0
    4.2680   -9.8219  -22.5315 C   0  0  0  0  0  0  0  0  0  0  0  0
    4.4240   -9.1243  -21.1867 C   0  0  1  0  0  0  0  0  0  0  0  0
    5.2564   -9.8450  -20.2906 O   0  0  0  0  0  0  0  0  0  0  0  0
    5.0886   -7.7780  -21.2922 C   0  0  1  0  0  0  0  0  0  0  0  0
    4.1699   -6.8205  -21.7342 O   0  0  0  0  0  0  0  0  0  0  0  0
    5.5213   -7.5678  -19.8580 C   0  0  1  0  0  0  0  0  0  0  0  0
    4.4422   -7.0734  -19.0911 O   0  0  0  0  0  0  0  0  0  0  0  0
    5.8767   -8.9671  -19.3680 C   0  0  2  0  0  0  0  0  0  0  0  0
    7.3347   -9.2405  -19.2433 N   0  0  0  0  0  0  0  0  0  0  0  0
    8.2476   -9.1561  -20.2643 C   0  0  0  0  0  0  0  0  0  0  0  0
    9.4739   -9.4712  -19.7904 N   0  0  0  0  0  0  0  0  0  0  0  0
    9.3705   -9.7488  -18.4804 C   0  0  0  0  0  0  0  0  0  0  0  0
   10.3114  -10.1129  -17.5293 C   0  0  0  0  0  0  0  0  0  0  0  0
   11.5886  -10.2395  -17.8645 N   0  0  0  0  0  0  0  0  0  0  0  0
    9.9034  -10.3357  -16.2290 N   0  0  0  0  0  0  0  0  0  0  0  0
    8.5708  -10.1974  -15.8619 C   0  0  0  0  0  0  0  0  0  0  0  0
    7.6496   -9.8286  -16.8210 N   0  0  0  0  0  0  0  0  0  0  0  0
    8.0341   -9.6126  -18.1127 C   0  0  0  0  0  0  0  0  0  0  0  0
  2  3  1  1  0  0  0
  2  6  1  0  0  0  0
  2  1  1  0  0  0  0
  4  3  2  0  0  0  0
  5  3  1  0  0  0  0
  6  7  2  0  0  0  0
  8  7  1  1  0  0  0
  8  9  1  0  0  0  0
  8 10  1  0  0  0  0
 11 10  1  6  0  0  0
 11 13  1  0  0  0  0
 12 11  1  0  0  0  0
 12 17  1  0  0  0  0
 13 14  1  1  0  0  0
 13 15  1  0  0  0  0
 15 16  1  1  0  0  0
 17 18  1  6  0  0  0
 17 15  1  0  0  0  0
 18 19  1  0  0  0  0
 20 19  2  0  0  0  0
 21 27  2  0  0  0  0
 21 20  1  0  0  0  0
 22 21  1  0  0  0  0
 23 22  1  0  0  0  0
 24 22  2  0  0  0  0
 24 25  1  0  0  0  0
 25 26  2  0  0  0  0
 26 27  1  0  0  0  0
 27 18  1  0  0  0  0
M  END
>  <CHROM.1>
116.89656985,45.88722916,-42.36149039,-68.93732279,169.99584288,60.89744248
4.66947414,-9.51888535,-20.55694585,2.75805723,-0.30799048,-1.04362071

>  <Name>
lig.pdb

>  <RI>
0

>  <Rbt.Current_Directory>
/home/itssahil/PROJECTS/Mol_Feturizer/New_Systems/rnas/4b5r

>  <Rbt.Executable>
rbdock ($Id: //depot/dev/client3/rdock/2013.1/src/exe/rbdock.cxx#4 $)

>  <Rbt.Library>
libRbt.so (2013.1, Build901 2013/11/27)

>  <Rbt.Parameter_File>
/export/apps/rDock/src/rDock_2013.1_src/data/scripts/dock_solv.prm

>  <Rbt.Receptor>
prm/blind_docking_100.prm

>  <SCORE>
-9.95112

>  <SCORE.INTER>
-9.675

>  <SCORE.INTER.CONST>
1

>  <SCORE.INTER.POLAR>
0

>  <SCORE.INTER.ROT>
6

>  <SCORE.INTER.SOLV>
15.2192

>  <SCORE.INTER.VDW>
-19.1231

>  <SCORE.INTER.norm>
-0.358333

>  <SCORE.INTRA>
-0.276116

>  <SCORE.INTRA.DIHEDRAL>
-0.840551

>  <SCORE.INTRA.DIHEDRAL.0>
10.2917

>  <SCORE.INTRA.POLAR>
0

>  <SCORE.INTRA.POLAR.0>
0

>  <SCORE.INTRA.REPUL>
0

>  <SCORE.INTRA.REPUL.0>
0

>  <SCORE.INTRA.SOLV>
-2.92063

>  <SCORE.INTRA.SOLV.lig_0>
-39.6315

>  <SCORE.INTRA.VDW>
1.60448

>  <SCORE.INTRA.VDW.0>
-4.02152

>  <SCORE.INTRA.norm>
-0.0102265

>  <SCORE.RESTR>
0

>  <SCORE.RESTR.CAVITY>
0

>  <SCORE.RESTR.norm>
0

>  <SCORE.SYSTEM>
0

>  <SCORE.SYSTEM.CONST>
0

>  <SCORE.SYSTEM.DIHEDRAL>
0

>  <SCORE.SYSTEM.SOLV>
0

>  <SCORE.SYSTEM.norm>
0

>  <SCORE.heavy>
27

>  <SCORE.norm>
-0.36856

>  <RMSD>
14.012

$$$$
lig.pdb
 OpenBabel11021811493D
libRbt.so/2013.1/901 2013/11/27
 27 29  0  0  0  0  0  0  0  0999 V2000
    5.7548  -14.6302  -19.9457 N   0  0  0  0  0  0  0  0  0  0  0  0
    6.8887  -14.1659  -19.0897 C   0  0  2  0  0  0  0  0  0  0  0  0
    6.4545  -14.1941  -17.6272 C   0  0  0  0  0  0  0  0  0  0  0  0
    5.3866  -13.6873  -17.3038 O   0  0  0  0  0  0  0  0  0  0  0  0
    7.1405  -14.7073  -16.7340 O   0  0  0  0  0  0  0  0  0  0  0  0
    7.4453  -12.7859  -19.4941 C   0  0  0  0  0  0  0  0  0  0  0  0
    8.2750  -12.0272  -18.4251 C   0  0  0  0  0  0  0  0  0  0  0  0
    8.9647  -10.3677  -18.8419 S   0  0  2  0  0  0  0  0  0  0  0  0
    9.5998   -9.8309  -17.2394 C   0  0  0  0  0  0  0  0  0  0  0  0
    7.5008   -9.3163  -18.9572 C   0  0  0  0  0  0  0  0  0  0  0  0
    6.6655   -9.7296  -20.1617 C   0  0  1  0  0  0  0  0  0  0  0  0
    5.4106   -9.0677  -20.2095 O   0  0  0  0  0  0  0  0  0  0  0  0
    7.3087   -9.3782  -21.4763 C   0  0  1  0  0  0  0  0  0  0  0  0
    8.3045  -10.3089  -21.7896 O   0  0  0  0  0  0  0  0  0  0  0  0
    6.1133   -9.4542  -22.4003 C   0  0  1  0  0  0  0  0  0  0  0  0
    5.8725  -10.7950  -22.7759 O   0  0  0  0  0  0  0  0  0  0  0  0
    4.9505   -8.9632  -21.5452 C   0  0  2  0  0  0  0  0  0  0  0  0
    4.4749   -7.5874  -21.8571 N   0  0  0  0  0  0  0  0  0  0  0  0
    3.7401   -7.2335  -22.9606 C   0  0  0  0  0  0  0  0  0  0  0  0
    3.4862   -5.9064  -22.9178 N   0  0  0  0  0  0  0  0  0  0  0  0
    4.0361   -5.3990  -21.8024 C   0  0  0  0  0  0  0  0  0  0  0  0
    4.0629   -4.1153  -21.2791 C   0  0  0  0  0  0  0  0  0  0  0  0
    3.4615   -3.1193  -21.9162 N   0  0  0  0  0  0  0  0  0  0  0  0
    4.7175   -3.8884  -20.0846 N   0  0  0  0  0  0  0  0  0  0  0  0
    5.3432   -4.9238  -19.4018 C   0  0  0  0  0  0  0  0  0  0  0  0
    5.3010   -6.1959  -19.9352 N   0  0  0  0  0  0  0  0  0  0  0  0
    4.6656   -6.4365  -21.1191 C   0  0  0  0  0  0  0  0  0  0  0  0
  2  3  1  1  0  0  0
  2  6  1  0  0  0  0
  2  1  1  0  0  0  0
  4  3  2  0  0  0  0
  5  3  1  0  0  0  0
  6  7  2  0  0  0  0
  8  7  1  1  0  0  0
  8  9  1  0  0  0  0
  8 10  1  0  0  0  0
 11 10  1  1  0  0  0
 11 13  1  0  0  0  0
 12 11  1  0  0  0  0
 12 17  1  0  0  0  0
 13 14  1  6  0  0  0
 13 15  1  0  0  0  0
 15 16  1  1  0  0  0
 17 18  1  6  0  0  0
 17 15  1  0  0  0  0
 18 19  1  0  0  0  0
 20 19  2  0  0  0  0
 21 27  2  0  0  0  0
 21 20  1  0  0  0  0
 22 21  1  0  0  0  0
 23 22  1  0  0  0  0
 24 22  2  0  0  0  0
 24 25  1  0  0  0  0
 25 26  2  0  0  0  0
 26 27  1  0  0  0  0
 27 18  1  0  0  0  0
M  END
>  <CHROM.1>
-48.66493059,160.62854769,171.93502037,-67.52838699,171.95353148,-166.59566472
6.15078822,-9.33237894,-20.17276554,1.03347191,0.85555172,-3.09469545

>  <Name>
lig.pdb

>  <RI>
0

>  <Rbt.Current_Directory>
/home/itssahil/PROJECTS/Mol_Feturizer/New_Systems/rnas/4b5r

>  <Rbt.Executable>
rbdock ($Id: //depot/dev/client3/rdock/2013.1/src/exe/rbdock.cxx#4 $)

>  <Rbt.Library>
libRbt.so (2013.1, Build901 2013/11/27)

>  <Rbt.Parameter_File>
/export/apps/rDock/src/rDock_2013.1_src/data/scripts/dock_solv.prm

>  <Rbt.Receptor>
prm/blind_docking_80.prm

>  <SCORE>
-12.7896

>  <SCORE.INTER>
-12.0349

>  <SCORE.INTER.CONST>
1

>  <SCORE.INTER.POLAR>
0

>  <SCORE.INTER.ROT>
6

>  <SCORE.INTER.SOLV>
13.4174

>  <SCORE.INTER.VDW>
-20.0958

>  <SCORE.INTER.norm>
-0.445739

>  <SCORE.INTRA>
-0.75461

>  <SCORE.INTRA.DIHEDRAL>
-0.800208

>  <SCORE.INTRA.DIHEDRAL.0>
10.2917

>  <SCORE.INTRA.POLAR>
0

>  <SCORE.INTRA.POLAR.0>
0

>  <SCORE.INTRA.REPUL>
0

>  <SCORE.INTRA.REPUL.0>
0

>  <SCORE.INTRA.SOLV>
-2.28592

>  <SCORE.INTRA.SOLV.lig_0>
-39.6315

>  <SCORE.INTRA.VDW>
0.788455

>  <SCORE.INTRA.VDW.0>
-4.02152

>  <SCORE.INTRA.norm>
-0.0279485

>  <SCORE.RESTR>
0

>  <SCORE.RESTR.CAVITY>
0

>  <SCORE.RESTR.norm>
0

>  <SCORE.SYSTEM>
0

>  <SCORE.SYSTEM.CONST>
0

>  <SCORE.SYSTEM.DIHEDRAL>
0

>  <SCORE.SYSTEM.SOLV>
0

>  <SCORE.SYSTEM.norm>
0

>  <SCORE.heavy>
27

>  <SCORE.norm>
-0.473687

>  <RMSD>
14.111

$$$$
lig.pdb
 OpenBabel11021811493D
libRbt.so/2013.1/901 2013/11/27
 27 29  0  0  0  0  0  0  0  0999 V2000
    1.2733   -9.8894  -23.1522 N   0  0  0  0  0  0  0  0  0  0  0  0
    1.7713   -9.2658  -21.8884 C   0  0  2  0  0  0  0  0  0  0  0  0
    0.8111   -8.1578  -21.4660 C   0  0  0  0  0  0  0  0  0  0  0  0
    0.5409   -8.0118  -20.2796 O   0  0  0  0  0  0  0  0  0  0  0  0
    0.2774   -7.3885  -22.2754 O   0  0  0  0  0  0  0  0  0  0  0  0
    3.2248   -8.7588  -21.9787 C   0  0  0  0  0  0  0  0  0  0  0  0
    4.0118   -9.1212  -23.2655 C   0  0  0  0  0  0  0  0  0  0  0  0
    5.7582   -8.5511  -23.4348 S   0  0  2  0  0  0  0  0  0  0  0  0
    6.1837   -9.1812  -25.0723 C   0  0  0  0  0  0  0  0  0  0  0  0
    6.6856   -9.7140  -22.4104 C   0  0  0  0  0  0  0  0  0  0  0  0
    6.3279   -9.5055  -20.9448 C   0  0  1  0  0  0  0  0  0  0  0  0
    7.0305  -10.3854  -20.0803 O   0  0  0  0  0  0  0  0  0  0  0  0
    6.6897   -8.1357  -20.4366 C   0  0  1  0  0  0  0  0  0  0  0  0
    5.7355   -7.2007  -20.8502 O   0  0  0  0  0  0  0  0  0  0  0  0
    6.6739   -8.3794  -18.9438 C   0  0  1  0  0  0  0  0  0  0  0  0
    5.3508   -8.3086  -18.4526 O   0  0  0  0  0  0  0  0  0  0  0  0
    7.1814   -9.8093  -18.7950 C   0  0  2  0  0  0  0  0  0  0  0  0
    8.5787   -9.9343  -18.2967 N   0  0  0  0  0  0  0  0  0  0  0  0
    9.3469  -11.0692  -18.3661 C   0  0  0  0  0  0  0  0  0  0  0  0
   10.5579  -10.8194  -17.8197 N   0  0  0  0  0  0  0  0  0  0  0  0
   10.5883   -9.5416  -17.4069 C   0  0  0  0  0  0  0  0  0  0  0  0
   11.5768   -8.7838  -16.7977 C   0  0  0  0  0  0  0  0  0  0  0  0
   12.7592   -9.3196  -16.5248 N   0  0  0  0  0  0  0  0  0  0  0  0
   11.3171   -7.4642  -16.4849 N   0  0  0  0  0  0  0  0  0  0  0  0
   10.0868   -6.8874  -16.7737 C   0  0  0  0  0  0  0  0  0  0  0  0
    9.1172   -7.6556  -17.3855 N   0  0  0  0  0  0  0  0  0  0  0  0
    9.3540   -8.9640  -17.6941 C   0  0  0  0  0  0  0  0  0  0  0  0
  2  3  1  6  0  0  0
  2  6  1  0  0  0  0
  2  1  1  0  0  0  0
  4  3  2  0  0  0  0
  5  3  1  0  0  0  0
  6  7  2  0  0  0  0
  8  7  1  1  0  0  0
  8  9  1  0  0  0  0
  8 10  1  0  0  0  0
 11 10  1  6  0  0  0
 11 13  1  0  0  0  0
 12 11  1  0  0  0  0
 12 17  1  0  0  0  0
 13 14  1  1  0  0  0
 13 15  1  0  0  0  0
 15 16  1  6  0  0  0
 17 18  1  6  0  0  0
 17 15  1  0  0  0  0
 18 19  1  0  0  0  0
 20 19  2  0  0  0  0
 21 27  2  0  0  0  0
 21 20  1  0  0  0  0
 22 21  1  0  0  0  0
 23 22  1  0  0  0  0
 24 22  2  0  0  0  0
 24 25  1  0  0  0  0
 25 26  2  0  0  0  0
 26 27  1  0  0  0  0
 27 18  1  0  0  0  0
M  END
>  <CHROM.1>
140.40166060,-7.64717616,-178.69881480,-67.67839748,-179.63533451,-45.00510843
6.49011099,-8.86348494,-20.11490341,-2.61179318,-0.20792446,1.30824635

>  <Name>
lig.pdb

>  <RI>
0

>  <Rbt.Current_Directory>
/home/itssahil/PROJECTS/Mol_Feturizer/New_Systems/rnas/4b5r

>  <Rbt.Executable>
rbdock ($Id: //depot/dev/client3/rdock/2013.1/src/exe/rbdock.cxx#4 $)

>  <Rbt.Library>
libRbt.so (2013.1, Build901 2013/11/27)

>  <Rbt.Parameter_File>
/export/apps/rDock/src/rDock_2013.1_src/data/scripts/dock_solv.prm

>  <Rbt.Receptor>
prm/blind_docking_100.prm

>  <SCORE>
-10.9068

>  <SCORE.INTER>
-10.0924

>  <SCORE.INTER.CONST>
1

>  <SCORE.INTER.POLAR>
0

>  <SCORE.INTER.ROT>
6

>  <SCORE.INTER.SOLV>
14.951

>  <SCORE.INTER.VDW>
-19.3119

>  <SCORE.INTER.norm>
-0.373794

>  <SCORE.INTRA>
-0.814375

>  <SCORE.INTRA.DIHEDRAL>
-2.70194

>  <SCORE.INTRA.DIHEDRAL.0>
10.2917

>  <SCORE.INTRA.POLAR>
0

>  <SCORE.INTRA.POLAR.0>
0

>  <SCORE.INTRA.REPUL>
0

>  <SCORE.INTRA.REPUL.0>
0

>  <SCORE.INTRA.SOLV>
-1.9467

>  <SCORE.INTRA.SOLV.lig_0>
-39.6315

>  <SCORE.INTRA.VDW>
1.50994

>  <SCORE.INTRA.VDW.0>
-4.02152

>  <SCORE.INTRA.norm>
-0.0301621

>  <SCORE.RESTR>
0

>  <SCORE.RESTR.CAVITY>
0

>  <SCORE.RESTR.norm>
0

>  <SCORE.SYSTEM>
0

>  <SCORE.SYSTEM.CONST>
0

>  <SCORE.SYSTEM.DIHEDRAL>
0

>  <SCORE.SYSTEM.SOLV>
0

>  <SCORE.SYSTEM.norm>
0

>  <SCORE.heavy>
27

>  <SCORE.norm>
-0.403956

>  <RMSD>
14.145

$$$$
lig.pdb
 OpenBabel11021811493D
libRbt.so/2013.1/901 2013/11/27
 27 29  0  0  0  0  0  0  0  0999 V2000
    5.6331   -8.8034  -26.2465 N   0  0  0  0  0  0  0  0  0  0  0  0
    4.6992   -9.5517  -25.3510 C   0  0  2  0  0  0  0  0  0  0  0  0
    3.6111   -8.6021  -24.8587 C   0  0  0  0  0  0  0  0  0  0  0  0
    3.9220   -7.4972  -24.4294 O   0  0  0  0  0  0  0  0  0  0  0  0
    2.4094   -8.8980  -24.8659 O   0  0  0  0  0  0  0  0  0  0  0  0
    5.4037  -10.2691  -24.1819 C   0  0  0  0  0  0  0  0  0  0  0  0
    6.9544  -10.2964  -24.2124 C   0  0  0  0  0  0  0  0  0  0  0  0
    7.8599  -11.1443  -22.8468 S   0  0  2  0  0  0  0  0  0  0  0  0
    7.2956  -12.8476  -23.0462 C   0  0  0  0  0  0  0  0  0  0  0  0
    6.9274  -10.6853  -21.3699 C   0  0  0  0  0  0  0  0  0  0  0  0
    7.6418  -11.2054  -20.1295 C   0  0  1  0  0  0  0  0  0  0  0  0
    8.7991  -10.4487  -19.8078 O   0  0  0  0  0  0  0  0  0  0  0  0
    6.8004  -11.1241  -18.8843 C   0  0  1  0  0  0  0  0  0  0  0  0
    5.8820  -12.1784  -18.8536 O   0  0  0  0  0  0  0  0  0  0  0  0
    7.8682  -11.2359  -17.8187 C   0  0  1  0  0  0  0  0  0  0  0  0
    8.2061  -12.5918  -17.6080 O   0  0  0  0  0  0  0  0  0  0  0  0
    9.0694  -10.5138  -18.4189 C   0  0  2  0  0  0  0  0  0  0  0  0
    9.3456   -9.1668  -17.8483 N   0  0  0  0  0  0  0  0  0  0  0  0
   10.2972   -8.8870  -16.9002 C   0  0  0  0  0  0  0  0  0  0  0  0
   10.2685   -7.5650  -16.6192 N   0  0  0  0  0  0  0  0  0  0  0  0
    9.3217   -6.9850  -17.3751 C   0  0  0  0  0  0  0  0  0  0  0  0
    8.8942   -5.6706  -17.4846 C   0  0  0  0  0  0  0  0  0  0  0  0
    9.4582   -4.7193  -16.7520 N   0  0  0  0  0  0  0  0  0  0  0  0
    7.8794   -5.3639  -18.3693 N   0  0  0  0  0  0  0  0  0  0  0  0
    7.2864   -6.3483  -19.1497 C   0  0  0  0  0  0  0  0  0  0  0  0
    7.7291   -7.6501  -19.0312 N   0  0  0  0  0  0  0  0  0  0  0  0
    8.7254   -7.9723  -18.1556 C   0  0  0  0  0  0  0  0  0  0  0  0
  2  3  1  1  0  0  0
  2  6  1  0  0  0  0
  2  1  1  0  0  0  0
  4  3  2  0  0  0  0
  5  3  1  0  0  0  0
  6  7  2  0  0  0  0
  8  7  1  6  0  0  0
  8  9  1  0  0  0  0
  8 10  1  0  0  0  0
 11 10  1  6  0  0  0
 11 13  1  0  0  0  0
 12 11  1  0  0  0  0
 12 17  1  0  0  0  0
 13 14  1  6  0  0  0
 13 15  1  0  0  0  0
 15 16  1  6  0  0  0
 17 18  1  1  0  0  0
 17 15  1  0  0  0  0
 18 19  1  0  0  0  0
 20 19  2  0  0  0  0
 21 27  2  0  0  0  0
 21 20  1  0  0  0  0
 22 21  1  0  0  0  0
 23 22  1  0  0  0  0
 24 22  2  0  0  0  0
 24 25  1  0  0  0  0
 25 26  2  0  0  0  0
 26 27  1  0  0  0  0
 27 18  1  0  0  0  0
M  END
>  <CHROM.1>
-46.91073939,-8.73284834,62.96445915,-174.43739567,74.66225484,-140.71570830
7.32001521,-9.34378106,-20.54711422,2.78044751,1.02061992,-2.96229141

>  <Name>
lig.pdb

>  <RI>
0

>  <Rbt.Current_Directory>
/home/itssahil/PROJECTS/Mol_Feturizer/New_Systems/rnas/4b5r

>  <Rbt.Executable>
rbdock ($Id: //depot/dev/client3/rdock/2013.1/src/exe/rbdock.cxx#4 $)

>  <Rbt.Library>
libRbt.so (2013.1, Build901 2013/11/27)

>  <Rbt.Parameter_File>
/export/apps/rDock/src/rDock_2013.1_src/data/scripts/dock_solv.prm

>  <Rbt.Receptor>
prm/blind_docking_60.prm

>  <SCORE>
-13.316

>  <SCORE.INTER>
-13.4218

>  <SCORE.INTER.CONST>
1

>  <SCORE.INTER.POLAR>
0

>  <SCORE.INTER.ROT>
6

>  <SCORE.INTER.SOLV>
15.9771

>  <SCORE.INTER.VDW>
-21.8736

>  <SCORE.INTER.norm>
-0.497103

>  <SCORE.INTRA>
0.105811

>  <SCORE.INTRA.DIHEDRAL>
-0.420727

>  <SCORE.INTRA.DIHEDRAL.0>
10.2917

>  <SCORE.INTRA.POLAR>
0

>  <SCORE.INTRA.POLAR.0>
0

>  <SCORE.INTRA.REPUL>
0

>  <SCORE.INTRA.REPUL.0>
0

>  <SCORE.INTRA.SOLV>
-1.99588

>  <SCORE.INTRA.SOLV.lig_0>
-39.6315

>  <SCORE.INTRA.VDW>
1.31411

>  <SCORE.INTRA.VDW.0>
-4.02152

>  <SCORE.INTRA.norm>
0.00391894

>  <SCORE.RESTR>
0

>  <SCORE.RESTR.CAVITY>
0

>  <SCORE.RESTR.norm>
0

>  <SCORE.SYSTEM>
0

>  <SCORE.SYSTEM.CONST>
0

>  <SCORE.SYSTEM.DIHEDRAL>
0

>  <SCORE.SYSTEM.SOLV>
0

>  <SCORE.SYSTEM.norm>
0

>  <SCORE.heavy>
27

>  <SCORE.norm>
-0.493184

>  <RMSD>
14.195

$$$$
lig.pdb
 OpenBabel11021811493D
libRbt.so/2013.1/901 2013/11/27
 27 29  0  0  0  0  0  0  0  0999 V2000
    4.5119   -8.4177  -25.6072 N   0  0  0  0  0  0  0  0  0  0  0  0
    4.9601   -7.9141  -24.2732 C   0  0  2  0  0  0  0  0  0  0  0  0
    5.9542   -8.9044  -23.6738 C   0  0  0  0  0  0  0  0  0  0  0  0
    6.7911   -9.4328  -24.3963 O   0  0  0  0  0  0  0  0  0  0  0  0
    5.9552   -9.2106  -22.4746 O   0  0  0  0  0  0  0  0  0  0  0  0
    3.7998   -7.6114  -23.3037 C   0  0  0  0  0  0  0  0  0  0  0  0
    3.7332   -6.1749  -22.7217 C   0  0  0  0  0  0  0  0  0  0  0  0
    2.3735   -5.7479  -21.5502 S   0  0  2  0  0  0  0  0  0  0  0  0
    3.1585   -4.4752  -20.5386 C   0  0  0  0  0  0  0  0  0  0  0  0
    2.3800   -7.1188  -20.3744 C   0  0  0  0  0  0  0  0  0  0  0  0
    1.1954   -6.9874  -19.4263 C   0  0  1  0  0  0  0  0  0  0  0  0
   -0.0530   -7.0966  -20.0933 O   0  0  0  0  0  0  0  0  0  0  0  0
    1.1455   -8.0755  -18.3876 C   0  0  1  0  0  0  0  0  0  0  0  0
    2.0559   -7.8040  -17.3612 O   0  0  0  0  0  0  0  0  0  0  0  0
   -0.2971   -7.9715  -17.9443 C   0  0  1  0  0  0  0  0  0  0  0  0
   -0.4411   -6.9358  -16.9937 O   0  0  0  0  0  0  0  0  0  0  0  0
   -1.0492   -7.5866  -19.2135 C   0  0  2  0  0  0  0  0  0  0  0  0
   -1.8408   -8.6837  -19.8349 N   0  0  0  0  0  0  0  0  0  0  0  0
   -3.1726   -8.9262  -19.6104 C   0  0  0  0  0  0  0  0  0  0  0  0
   -3.5577   -9.9975  -20.3394 N   0  0  0  0  0  0  0  0  0  0  0  0
   -2.5010  -10.4454  -21.0372 C   0  0  0  0  0  0  0  0  0  0  0  0
   -2.3537  -11.4938  -21.9325 C   0  0  0  0  0  0  0  0  0  0  0  0
   -3.3881  -12.2677  -22.2340 N   0  0  0  0  0  0  0  0  0  0  0  0
   -1.1198  -11.7179  -22.5102 N   0  0  0  0  0  0  0  0  0  0  0  0
   -0.0304  -10.9095  -22.2111 C   0  0  0  0  0  0  0  0  0  0  0  0
   -0.1975   -9.8672  -21.3221 N   0  0  0  0  0  0  0  0  0  0  0  0
   -1.4081   -9.6365  -20.7354 C   0  0  0  0  0  0  0  0  0  0  0  0
  2  3  1  1  0  0  0
  2  6  1  0  0  0  0
  2  1  1  0  0  0  0
  4  3  2  0  0  0  0
  5  3  1  0  0  0  0
  6  7  2  0  0  0  0
  8  7  1  6  0  0  0
  8  9  1  0  0  0  0
  8 10  1  0  0  0  0
 11 10  1  6  0  0  0
 11 13  1  0  0  0  0
 12 11  1  0  0  0  0
 12 17  1  0  0  0  0
 13 14  1  1  0  0  0
 13 15  1  0  0  0  0
 15 16  1  1  0  0  0
 17 18  1  6  0  0  0
 17 15  1  0  0  0  0
 18 19  1  0  0  0  0
 20 19  2  0  0  0  0
 21 27  2  0  0  0  0
 21 20  1  0  0  0  0
 22 21  1  0  0  0  0
 23 22  1  0  0  0  0
 24 22  2  0  0  0  0
 24 25  1  0  0  0  0
 25 26  2  0  0  0  0
 26 27  1  0  0  0  0
 27 18  1  0  0  0  0
M  END
>  <CHROM.1>
40.16264702,-123.64820820,150.74459165,-173.55028488,64.03918201,-146.42078865
1.12137841,-8.39815542,-21.10421190,0.14686702,-0.46408657,-2.31127146

>  <Name>
lig.pdb

>  <RI>
0

>  <Rbt.Current_Directory>
/home/itssahil/PROJECTS/Mol_Feturizer/New_Systems/rnas/4b5r

>  <Rbt.Executable>
rbdock ($Id: //depot/dev/client3/rdock/2013.1/src/exe/rbdock.cxx#4 $)

>  <Rbt.Library>
libRbt.so (2013.1, Build901 2013/11/27)

>  <Rbt.Parameter_File>
/export/apps/rDock/src/rDock_2013.1_src/data/scripts/dock_solv.prm

>  <Rbt.Receptor>
prm/blind_docking_60.prm

>  <SCORE>
-14.6824

>  <SCORE.INTER>
-13.0663

>  <SCORE.INTER.CONST>
1

>  <SCORE.INTER.POLAR>
0

>  <SCORE.INTER.ROT>
6

>  <SCORE.INTER.SOLV>
17.4756

>  <SCORE.INTER.VDW>
-22.1361

>  <SCORE.INTER.norm>
-0.483937

>  <SCORE.INTRA>
-1.61611

>  <SCORE.INTRA.DIHEDRAL>
-2.83051

>  <SCORE.INTRA.DIHEDRAL.0>
10.2917

>  <SCORE.INTRA.POLAR>
0

>  <SCORE.INTRA.POLAR.0>
0

>  <SCORE.INTRA.REPUL>
0

>  <SCORE.INTRA.REPUL.0>
0

>  <SCORE.INTRA.SOLV>
-2.86291

>  <SCORE.INTRA.SOLV.lig_0>
-39.6315

>  <SCORE.INTRA.VDW>
1.2306

>  <SCORE.INTRA.VDW.0>
-4.02152

>  <SCORE.INTRA.norm>
-0.0598559

>  <SCORE.RESTR>
0

>  <SCORE.RESTR.CAVITY>
0

>  <SCORE.RESTR.norm>
0

>  <SCORE.SYSTEM>
0

>  <SCORE.SYSTEM.CONST>
0

>  <SCORE.SYSTEM.DIHEDRAL>
0

>  <SCORE.SYSTEM.SOLV>
0

>  <SCORE.SYSTEM.norm>
0

>  <SCORE.heavy>
27

>  <SCORE.norm>
-0.543793

>  <RMSD>
14.271

$$$$
lig.pdb
 OpenBabel11021811493D
libRbt.so/2013.1/901 2013/11/27
 27 29  0  0  0  0  0  0  0  0999 V2000
    7.1233  -10.4923  -22.9428 N   0  0  0  0  0  0  0  0  0  0  0  0
    6.5193   -9.4605  -22.0459 C   0  0  2  0  0  0  0  0  0  0  0  0
    7.4367   -9.2428  -20.8462 C   0  0  0  0  0  0  0  0  0  0  0  0
    8.0191  -10.1996  -20.3492 O   0  0  0  0  0  0  0  0  0  0  0  0
    7.6219   -8.1300  -20.3371 O   0  0  0  0  0  0  0  0  0  0  0  0
    5.0764   -9.7865  -21.6103 C   0  0  0  0  0  0  0  0  0  0  0  0
    4.0013   -8.7037  -21.8900 C   0  0  0  0  0  0  0  0  0  0  0  0
    2.2558   -9.0274  -21.3880 S   0  0  2  0  0  0  0  0  0  0  0  0
    1.4677   -9.3027  -22.9888 C   0  0  0  0  0  0  0  0  0  0  0  0
    1.6110   -7.3833  -21.0097 C   0  0  0  0  0  0  0  0  0  0  0  0
    0.2096   -7.5035  -20.4257 C   0  0  1  0  0  0  0  0  0  0  0  0
   -0.7185   -8.0629  -21.3428 O   0  0  0  0  0  0  0  0  0  0  0  0
    0.1410   -8.4241  -19.2369 C   0  0  1  0  0  0  0  0  0  0  0  0
    0.6113   -7.7704  -18.0934 O   0  0  0  0  0  0  0  0  0  0  0  0
   -1.3440   -8.7081  -19.1898 C   0  0  1  0  0  0  0  0  0  0  0  0
   -2.0199   -7.6586  -18.5274 O   0  0  0  0  0  0  0  0  0  0  0  0
   -1.7665   -8.7221  -20.6547 C   0  0  2  0  0  0  0  0  0  0  0  0
   -2.0328  -10.0727  -21.2215 N   0  0  0  0  0  0  0  0  0  0  0  0
   -1.0732  -10.9868  -21.5772 C   0  0  0  0  0  0  0  0  0  0  0  0
   -1.6752  -12.0998  -22.0530 N   0  0  0  0  0  0  0  0  0  0  0  0
   -3.0059  -11.9240  -22.0027 C   0  0  0  0  0  0  0  0  0  0  0  0
   -4.0668  -12.7448  -22.3540 C   0  0  0  0  0  0  0  0  0  0  0  0
   -3.8426  -13.9578  -22.8418 N   0  0  0  0  0  0  0  0  0  0  0  0
   -5.3581  -12.2862  -22.1839 N   0  0  0  0  0  0  0  0  0  0  0  0
   -5.6077  -11.0219  -21.6652 C   0  0  0  0  0  0  0  0  0  0  0  0
   -4.5392  -10.2215  -21.3158 N   0  0  0  0  0  0  0  0  0  0  0  0
   -3.2562  -10.6556  -21.4851 C   0  0  0  0  0  0  0  0  0  0  0  0
  2  3  1  1  0  0  0
  2  6  1  0  0  0  0
  2  1  1  0  0  0  0
  4  3  2  0  0  0  0
  5  3  1  0  0  0  0
  6  7  2  0  0  0  0
  8  7  1  6  0  0  0
  8  9  1  0  0  0  0
  8 10  1  0  0  0  0
 11 10  1  6  0  0  0
 11 13  1  0  0  0  0
 12 11  1  0  0  0  0
 12 17  1  0  0  0  0
 13 14  1  1  0  0  0
 13 15  1  0  0  0  0
 15 16  1  1  0  0  0
 17 18  1  6  0  0  0
 17 15  1  0  0  0  0
 18 19  1  0  0  0  0
 20 19  2  0  0  0  0
 21 27  2  0  0  0  0
 21 20  1  0  0  0  0
 22 21  1  0  0  0  0
 23 22  1  0  0  0  0
 24 22  2  0  0  0  0
 24 25  1  0  0  0  0
 25 26  2  0  0  0  0
 26 27  1  0  0  0  0
 27 18  1  0  0  0  0
M  END
>  <CHROM.1>
-37.84091344,-125.33381868,-107.63912564,-173.69425156,-63.30937542,43.84786382
0.59941793,-9.70928285,-21.14309329,-0.17343006,-0.08814468,-2.50321895

>  <Name>
lig.pdb

>  <RI>
0

>  <Rbt.Current_Directory>
/home/itssahil/PROJECTS/Mol_Feturizer/New_Systems/rnas/4b5r

>  <Rbt.Executable>
rbdock ($Id: //depot/dev/client3/rdock/2013.1/src/exe/rbdock.cxx#4 $)

>  <Rbt.Library>
libRbt.so (2013.1, Build901 2013/11/27)

>  <Rbt.Parameter_File>
/export/apps/rDock/src/rDock_2013.1_src/data/scripts/dock_solv.prm

>  <Rbt.Receptor>
prm/blind_docking_100.prm

>  <SCORE>
-14.3105

>  <SCORE.INTER>
-13.6458

>  <SCORE.INTER.CONST>
1

>  <SCORE.INTER.POLAR>
0

>  <SCORE.INTER.ROT>
6

>  <SCORE.INTER.SOLV>
15.4174

>  <SCORE.INTER.VDW>
-21.8364

>  <SCORE.INTER.norm>
-0.505402

>  <SCORE.INTRA>
-0.664676

>  <SCORE.INTRA.DIHEDRAL>
-1.27131

>  <SCORE.INTRA.DIHEDRAL.0>
10.2917

>  <SCORE.INTRA.POLAR>
0

>  <SCORE.INTRA.POLAR.0>
0

>  <SCORE.INTRA.REPUL>
0

>  <SCORE.INTRA.REPUL.0>
0

>  <SCORE.INTRA.SOLV>
-3.0153

>  <SCORE.INTRA.SOLV.lig_0>
-39.6315

>  <SCORE.INTRA.VDW>
1.47863

>  <SCORE.INTRA.VDW.0>
-4.02152

>  <SCORE.INTRA.norm>
-0.0246176

>  <SCORE.RESTR>
0

>  <SCORE.RESTR.CAVITY>
0

>  <SCORE.RESTR.norm>
0

>  <SCORE.SYSTEM>
0

>  <SCORE.SYSTEM.CONST>
0

>  <SCORE.SYSTEM.DIHEDRAL>
0

>  <SCORE.SYSTEM.SOLV>
0

>  <SCORE.SYSTEM.norm>
0

>  <SCORE.heavy>
27

>  <SCORE.norm>
-0.530019

>  <RMSD>
14.323

$$$$
lig.pdb
 OpenBabel11021811493D
libRbt.so/2013.1/901 2013/11/27
 27 29  0  0  0  0  0  0  0  0999 V2000
    6.5321  -10.3526  -24.0669 N   0  0  0  0  0  0  0  0  0  0  0  0
    6.5032   -9.2683  -23.0386 C   0  0  2  0  0  0  0  0  0  0  0  0
    7.2862   -9.7235  -21.8106 C   0  0  0  0  0  0  0  0  0  0  0  0
    7.3846  -10.9203  -21.5659 O   0  0  0  0  0  0  0  0  0  0  0  0
    7.8325   -8.9314  -21.0322 O   0  0  0  0  0  0  0  0  0  0  0  0
    5.0803   -8.8029  -22.6689 C   0  0  0  0  0  0  0  0  0  0  0  0
    4.7469   -7.3090  -22.9215 C   0  0  0  0  0  0  0  0  0  0  0  0
    3.0639   -6.6850  -22.4951 S   0  0  2  0  0  0  0  0  0  0  0  0
    3.4408   -5.0310  -21.8774 C   0  0  0  0  0  0  0  0  0  0  0  0
    2.6863   -7.5139  -20.9356 C   0  0  0  0  0  0  0  0  0  0  0  0
    1.2102   -7.3371  -20.6047 C   0  0  1  0  0  0  0  0  0  0  0  0
    0.3579   -7.8686  -21.6078 O   0  0  0  0  0  0  0  0  0  0  0  0
    0.7929   -8.0644  -19.3547 C   0  0  1  0  0  0  0  0  0  0  0  0
    1.1807   -7.3395  -18.2233 O   0  0  0  0  0  0  0  0  0  0  0  0
   -0.7070   -8.1089  -19.5460 C   0  0  1  0  0  0  0  0  0  0  0  0
   -1.2869   -6.8876  -19.1348 O   0  0  0  0  0  0  0  0  0  0  0  0
   -0.8855   -8.2591  -21.0526 C   0  0  2  0  0  0  0  0  0  0  0  0
   -1.2887   -9.6180  -21.5078 N   0  0  0  0  0  0  0  0  0  0  0  0
   -0.4393  -10.5694  -22.0141 C   0  0  0  0  0  0  0  0  0  0  0  0
   -1.1481  -11.6785  -22.3219 N   0  0  0  0  0  0  0  0  0  0  0  0
   -2.4380  -11.4636  -22.0152 C   0  0  0  0  0  0  0  0  0  0  0  0
   -3.5653  -12.2641  -22.1203 C   0  0  0  0  0  0  0  0  0  0  0  0
   -3.4692  -13.4971  -22.5999 N   0  0  0  0  0  0  0  0  0  0  0  0
   -4.7866  -11.7640  -21.7139 N   0  0  0  0  0  0  0  0  0  0  0  0
   -4.9003  -10.4782  -21.2007 C   0  0  0  0  0  0  0  0  0  0  0  0
   -3.7663   -9.6983  -21.0983 N   0  0  0  0  0  0  0  0  0  0  0  0
   -2.5525  -10.1736  -21.5031 C   0  0  0  0  0  0  0  0  0  0  0  0
  2  3  1  1  0  0  0
  2  6  1  0  0  0  0
  2  1  1  0  0  0  0
  4  3  2  0  0  0  0
  5  3  1  0  0  0  0
  6  7  2  0  0  0  0
  8  7  1  1  0  0  0
  8  9  1  0  0  0  0
  8 10  1  0  0  0  0
 11 10  1  6  0  0  0
 11 13  1  0  0  0  0
 12 11  1  0  0  0  0
 12 17  1  0  0  0  0
 13 14  1  1  0  0  0
 13 15  1  0  0  0  0
 15 16  1  6  0  0  0
 17 18  1  1  0  0  0
 17 15  1  0  0  0  0
 18 19  1  0  0  0  0
 20 19  2  0  0  0  0
 21 27  2  0  0  0  0
 21 20  1  0  0  0  0
 22 21  1  0  0  0  0
 23 22  1  0  0  0  0
 24 22  2  0  0  0  0
 24 25  1  0  0  0  0
 25 26  2  0  0  0  0
 26 27  1  0  0  0  0
 27 18  1  0  0  0  0
M  END
>  <CHROM.1>
-26.73498385,-120.08689431,143.07454183,-167.77949935,59.38393631,20.46708006
1.17142098,-9.07203397,-21.49524966,-0.17563765,-0.16494169,-2.71551845

>  <Name>
lig.pdb

>  <RI>
0

>  <Rbt.Current_Directory>
/home/itssahil/PROJECTS/Mol_Feturizer/New_Systems/rnas/4b5r

>  <Rbt.Executable>
rbdock ($Id: //depot/dev/client3/rdock/2013.1/src/exe/rbdock.cxx#4 $)

>  <Rbt.Library>
libRbt.so (2013.1, Build901 2013/11/27)

>  <Rbt.Parameter_File>
/export/apps/rDock/src/rDock_2013.1_src/data/scripts/dock_solv.prm

>  <Rbt.Receptor>
prm/blind_docking_40.prm

>  <SCORE>
-15.6891

>  <SCORE.INTER>
-14.5307

>  <SCORE.INTER.CONST>
1

>  <SCORE.INTER.POLAR>
0

>  <SCORE.INTER.ROT>
6

>  <SCORE.INTER.SOLV>
15.1834

>  <SCORE.INTER.VDW>
-22.3482

>  <SCORE.INTER.norm>
-0.538173

>  <SCORE.INTRA>
-1.1584

>  <SCORE.INTRA.DIHEDRAL>
-2.39679

>  <SCORE.INTRA.DIHEDRAL.0>
10.2917

>  <SCORE.INTRA.POLAR>
0

>  <SCORE.INTRA.POLAR.0>
0

>  <SCORE.INTRA.REPUL>
0

>  <SCORE.INTRA.REPUL.0>
0

>  <SCORE.INTRA.SOLV>
-3.33048

>  <SCORE.INTRA.SOLV.lig_0>
-39.6315

>  <SCORE.INTRA.VDW>
1.70524

>  <SCORE.INTRA.VDW.0>
-4.02152

>  <SCORE.INTRA.norm>
-0.0429037

>  <SCORE.RESTR>
0

>  <SCORE.RESTR.CAVITY>
0

>  <SCORE.RESTR.norm>
0

>  <SCORE.SYSTEM>
0

>  <SCORE.SYSTEM.CONST>
0

>  <SCORE.SYSTEM.DIHEDRAL>
0

>  <SCORE.SYSTEM.SOLV>
0

>  <SCORE.SYSTEM.norm>
0

>  <SCORE.heavy>
27

>  <SCORE.norm>
-0.581077

>  <RMSD>
14.574

$$$$
lig.pdb
 OpenBabel11021811493D
libRbt.so/2013.1/901 2013/11/27
 27 29  0  0  0  0  0  0  0  0999 V2000
   -6.9724  -14.4731   -9.8857 N   0  0  0  0  0  0  0  0  0  0  0  0
   -7.2329  -13.0292   -9.6005 C   0  0  2  0  0  0  0  0  0  0  0  0
   -8.7157  -12.8401   -9.2946 C   0  0  0  0  0  0  0  0  0  0  0  0
   -9.5156  -13.7097   -9.6198 O   0  0  0  0  0  0  0  0  0  0  0  0
   -9.1606  -11.8329   -8.7294 O   0  0  0  0  0  0  0  0  0  0  0  0
   -6.7544  -12.0809  -10.7183 C   0  0  0  0  0  0  0  0  0  0  0  0
   -7.8037  -11.6757  -11.7867 C   0  0  0  0  0  0  0  0  0  0  0  0
   -7.2951  -10.5484  -13.1556 S   0  0  2  0  0  0  0  0  0  0  0  0
   -6.1675   -9.4293  -12.2981 C   0  0  0  0  0  0  0  0  0  0  0  0
   -8.7177   -9.4538  -13.3549 C   0  0  0  0  0  0  0  0  0  0  0  0
   -8.6202   -8.7226  -14.6873 C   0  0  1  0  0  0  0  0  0  0  0  0
   -7.4068   -7.9989  -14.8259 O   0  0  0  0  0  0  0  0  0  0  0  0
   -8.6240   -9.6501  -15.8727 C   0  0  1  0  0  0  0  0  0  0  0  0
   -9.9278  -10.0741  -16.1486 O   0  0  0  0  0  0  0  0  0  0  0  0
   -8.0574   -8.7401  -16.9401 C   0  0  1  0  0  0  0  0  0  0  0  0
   -9.0766   -7.9167  -17.4695 O   0  0  0  0  0  0  0  0  0  0  0  0
   -7.0552   -7.8682  -16.1918 C   0  0  2  0  0  0  0  0  0  0  0  0
   -5.6249   -8.2076  -16.4267 N   0  0  0  0  0  0  0  0  0  0  0  0
   -4.8413   -8.9626  -15.5907 C   0  0  0  0  0  0  0  0  0  0  0  0
   -3.6011   -9.0664  -16.1185 N   0  0  0  0  0  0  0  0  0  0  0  0
   -3.5724   -8.3997  -17.2841 C   0  0  0  0  0  0  0  0  0  0  0  0
   -2.5671   -8.2016  -18.2183 C   0  0  0  0  0  0  0  0  0  0  0  0
   -1.3637   -8.7264  -18.0291 N   0  0  0  0  0  0  0  0  0  0  0  0
   -2.8363   -7.4572  -19.3498 N   0  0  0  0  0  0  0  0  0  0  0  0
   -4.0947   -6.9099  -19.5655 C   0  0  0  0  0  0  0  0  0  0  0  0
   -5.0843   -7.1225  -18.6274 N   0  0  0  0  0  0  0  0  0  0  0  0
   -4.8333   -7.8488  -17.4993 C   0  0  0  0  0  0  0  0  0  0  0  0
  2  3  1  6  0  0  0
  2  6  1  0  0  0  0
  2  1  1  0  0  0  0
  4  3  2  0  0  0  0
  5  3  1  0  0  0  0
  6  7  2  0  0  0  0
  8  7  1  1  0  0  0
  8  9  1  0  0  0  0
  8 10  1  0  0  0  0
 11 10  1  1  0  0  0
 11 13  1  0  0  0  0
 12 11  1  0  0  0  0
 12 17  1  0  0  0  0
 13 14  1  6  0  0  0
 13 15  1  0  0  0  0
 15 16  1  1  0  0  0
 17 18  1  1  0  0  0
 17 15  1  0  0  0  0
 18 19  1  0  0  0  0
 20 19  2  0  0  0  0
 21 27  2  0  0  0  0
 21 20  1  0  0  0  0
 22 21  1  0  0  0  0
 23 22  1  0  0  0  0
 24 22  2  0  0  0  0
 24 25  1  0  0  0  0
 25 26  2  0  0  0  0
 26 27  1  0  0  0  0
 27 18  1  0  0  0  0
M  END
>  <CHROM.1>
-17.52502365,94.06423920,-37.11917325,-164.30420650,-56.21532099,20.53084533
-6.62175290,-9.72664103,-14.58743771,-1.98361134,0.09459789,-0.99541483

>  <Name>
lig.pdb

>  <RI>
0

>  <Rbt.Current_Directory>
/home/itssahil/PROJECTS/Mol_Feturizer/New_Systems/rnas/4b5r

>  <Rbt.Executable>
rbdock ($Id: //depot/dev/client3/rdock/2013.1/src/exe/rbdock.cxx#4 $)

>  <Rbt.Library>
libRbt.so (2013.1, Build901 2013/11/27)

>  <Rbt.Parameter_File>
/export/apps/rDock/src/rDock_2013.1_src/data/scripts/dock_solv.prm

>  <Rbt.Receptor>
prm/blind_docking_40.prm

>  <SCORE>
-9.15202

>  <SCORE.INTER>
-9.31772

>  <SCORE.INTER.CONST>
1

>  <SCORE.INTER.POLAR>
0

>  <SCORE.INTER.ROT>
6

>  <SCORE.INTER.SOLV>
14.6729

>  <SCORE.INTER.VDW>
-18.7028

>  <SCORE.INTER.norm>
-0.345101

>  <SCORE.INTRA>
0.165696

>  <SCORE.INTRA.DIHEDRAL>
-0.963681

>  <SCORE.INTRA.DIHEDRAL.0>
10.2917

>  <SCORE.INTRA.POLAR>
0

>  <SCORE.INTRA.POLAR.0>
0

>  <SCORE.INTRA.REPUL>
0

>  <SCORE.INTRA.REPUL.0>
0

>  <SCORE.INTRA.SOLV>
-2.62792

>  <SCORE.INTRA.SOLV.lig_0>
-39.6315

>  <SCORE.INTRA.VDW>
1.9615

>  <SCORE.INTRA.VDW.0>
-4.02152

>  <SCORE.INTRA.norm>
0.00613688

>  <SCORE.RESTR>
0

>  <SCORE.RESTR.CAVITY>
0

>  <SCORE.RESTR.norm>
0

>  <SCORE.SYSTEM>
0

>  <SCORE.SYSTEM.CONST>
0

>  <SCORE.SYSTEM.DIHEDRAL>
0

>  <SCORE.SYSTEM.SOLV>
0

>  <SCORE.SYSTEM.norm>
0

>  <SCORE.heavy>
27

>  <SCORE.norm>
-0.338964

>  <RMSD>
14.607

$$$$
lig.pdb
 OpenBabel11021811493D
libRbt.so/2013.1/901 2013/11/27
 27 29  0  0  0  0  0  0  0  0999 V2000
    5.5072   -8.8542  -18.1120 N   0  0  0  0  0  0  0  0  0  0  0  0
    6.7453   -8.5021  -18.8718 C   0  0  2  0  0  0  0  0  0  0  0  0
    7.6833   -7.7154  -17.9612 C   0  0  0  0  0  0  0  0  0  0  0  0
    8.5713   -7.0303  -18.4550 O   0  0  0  0  0  0  0  0  0  0  0  0
    7.5949   -7.7383  -16.7269 O   0  0  0  0  0  0  0  0  0  0  0  0
    6.4702   -7.7545  -20.1921 C   0  0  0  0  0  0  0  0  0  0  0  0
    5.0103   -7.2933  -20.4421 C   0  0  0  0  0  0  0  0  0  0  0  0
    4.6114   -6.3990  -22.0056 S   0  0  2  0  0  0  0  0  0  0  0  0
    2.9590   -5.7671  -21.6455 C   0  0  0  0  0  0  0  0  0  0  0  0
    4.1866   -7.7245  -23.1564 C   0  0  0  0  0  0  0  0  0  0  0  0
    5.4256   -8.5559  -23.4617 C   0  0  1  0  0  0  0  0  0  0  0  0
    5.7237   -9.4896  -22.4347 O   0  0  0  0  0  0  0  0  0  0  0  0
    5.2769   -9.4092  -24.6926 C   0  0  1  0  0  0  0  0  0  0  0  0
    5.4583   -8.6330  -25.8417 O   0  0  0  0  0  0  0  0  0  0  0  0
    6.3878  -10.4120  -24.4721 C   0  0  1  0  0  0  0  0  0  0  0  0
    7.6239   -9.8694  -24.8901 O   0  0  0  0  0  0  0  0  0  0  0  0
    6.4184  -10.6066  -22.9603 C   0  0  2  0  0  0  0  0  0  0  0  0
    5.8405  -11.8909  -22.4777 N   0  0  0  0  0  0  0  0  0  0  0  0
    4.8349  -12.5902  -23.0963 C   0  0  0  0  0  0  0  0  0  0  0  0
    4.5655  -13.7056  -22.3818 N   0  0  0  0  0  0  0  0  0  0  0  0
    5.3847  -13.7435  -21.3181 C   0  0  0  0  0  0  0  0  0  0  0  0
    5.5305  -14.6602  -20.2880 C   0  0  0  0  0  0  0  0  0  0  0  0
    4.7697  -15.7459  -20.2446 N   0  0  0  0  0  0  0  0  0  0  0  0
    6.4810  -14.4317  -19.3127 N   0  0  0  0  0  0  0  0  0  0  0  0
    7.2911  -13.3040  -19.3509 C   0  0  0  0  0  0  0  0  0  0  0  0
    7.1355  -12.4058  -20.3871 N   0  0  0  0  0  0  0  0  0  0  0  0
    6.1953  -12.6116  -21.3550 C   0  0  0  0  0  0  0  0  0  0  0  0
  2  3  1  1  0  0  0
  2  6  1  0  0  0  0
  2  1  1  0  0  0  0
  4  3  2  0  0  0  0
  5  3  1  0  0  0  0
  6  7  2  0  0  0  0
  8  7  1  1  0  0  0
  8  9  1  0  0  0  0
  8 10  1  0  0  0  0
 11 10  1  1  0  0  0
 11 13  1  0  0  0  0
 12 11  1  0  0  0  0
 12 17  1  0  0  0  0
 13 14  1  6  0  0  0
 13 15  1  0  0  0  0
 15 16  1  1  0  0  0
 17 18  1  6  0  0  0
 17 15  1  0  0  0  0
 18 19  1  0  0  0  0
 20 19  2  0  0  0  0
 21 27  2  0  0  0  0
 21 20  1  0  0  0  0
 22 21  1  0  0  0  0
 23 22  1  0  0  0  0
 24 22  2  0  0  0  0
 24 25  1  0  0  0  0
 25 26  2  0  0  0  0
 26 27  1  0  0  0  0
 27 18  1  0  0  0  0
M  END
>  <CHROM.1>
-160.59843952,8.73472659,-167.47129134,-67.51980045,79.56779915,89.70592445
5.86622487,-9.99013859,-21.40162056,-1.70628961,1.28852657,-3.01856354

>  <Name>
lig.pdb

>  <RI>
0

>  <Rbt.Current_Directory>
/home/itssahil/PROJECTS/Mol_Feturizer/New_Systems/rnas/4b5r

>  <Rbt.Executable>
rbdock ($Id: //depot/dev/client3/rdock/2013.1/src/exe/rbdock.cxx#4 $)

>  <Rbt.Library>
libRbt.so (2013.1, Build901 2013/11/27)

>  <Rbt.Parameter_File>
/export/apps/rDock/src/rDock_2013.1_src/data/scripts/dock_solv.prm

>  <Rbt.Receptor>
prm/blind_docking_80.prm

>  <SCORE>
-10.8454

>  <SCORE.INTER>
-10.7353

>  <SCORE.INTER.CONST>
1

>  <SCORE.INTER.POLAR>
0

>  <SCORE.INTER.ROT>
6

>  <SCORE.INTER.SOLV>
10.0763

>  <SCORE.INTER.VDW>
-18.1156

>  <SCORE.INTER.norm>
-0.397604

>  <SCORE.INTRA>
-0.110064

>  <SCORE.INTRA.DIHEDRAL>
-1.03266

>  <SCORE.INTRA.DIHEDRAL.0>
10.2917

>  <SCORE.INTRA.POLAR>
0

>  <SCORE.INTRA.POLAR.0>
0

>  <SCORE.INTRA.REPUL>
0

>  <SCORE.INTRA.REPUL.0>
0

>  <SCORE.INTRA.SOLV>
-2.44692

>  <SCORE.INTRA.SOLV.lig_0>
-39.6315

>  <SCORE.INTRA.VDW>
1.62973

>  <SCORE.INTRA.VDW.0>
-4.02152

>  <SCORE.INTRA.norm>
-0.00407645

>  <SCORE.RESTR>
0

>  <SCORE.RESTR.CAVITY>
0

>  <SCORE.RESTR.norm>
0

>  <SCORE.SYSTEM>
0

>  <SCORE.SYSTEM.CONST>
0

>  <SCORE.SYSTEM.DIHEDRAL>
0

>  <SCORE.SYSTEM.SOLV>
0

>  <SCORE.SYSTEM.norm>
0

>  <SCORE.heavy>
27

>  <SCORE.norm>
-0.40168

>  <RMSD>
14.611

$$$$
lig.pdb
 OpenBabel11021811493D
libRbt.so/2013.1/901 2013/11/27
 27 29  0  0  0  0  0  0  0  0999 V2000
    3.8600   -4.3652  -18.9751 N   0  0  0  0  0  0  0  0  0  0  0  0
    4.4994   -4.5942  -20.3066 C   0  0  2  0  0  0  0  0  0  0  0  0
    3.4408   -4.4651  -21.3978 C   0  0  0  0  0  0  0  0  0  0  0  0
    2.4820   -5.2282  -21.4031 O   0  0  0  0  0  0  0  0  0  0  0  0
    3.5049   -3.6171  -22.2971 O   0  0  0  0  0  0  0  0  0  0  0  0
    5.2624   -5.9306  -20.4057 C   0  0  0  0  0  0  0  0  0  0  0  0
    6.4455   -6.1335  -19.4231 C   0  0  0  0  0  0  0  0  0  0  0  0
    7.4049   -7.7077  -19.4931 S   0  0  2  0  0  0  0  0  0  0  0  0
    6.0820   -8.9356  -19.4545 C   0  0  0  0  0  0  0  0  0  0  0  0
    8.0410   -7.8923  -17.8129 C   0  0  0  0  0  0  0  0  0  0  0  0
    8.6910   -9.2609  -17.6576 C   0  0  1  0  0  0  0  0  0  0  0  0
    9.9484   -9.3459  -18.3110 O   0  0  0  0  0  0  0  0  0  0  0  0
    9.0040   -9.6083  -16.2269 C   0  0  1  0  0  0  0  0  0  0  0  0
    7.8449  -10.0331  -15.5696 O   0  0  0  0  0  0  0  0  0  0  0  0
   10.0146  -10.7164  -16.4241 C   0  0  1  0  0  0  0  0  0  0  0  0
    9.3532  -11.9409  -16.6692 O   0  0  0  0  0  0  0  0  0  0  0  0
   10.7768  -10.3056  -17.6790 C   0  0  2  0  0  0  0  0  0  0  0  0
   12.1477   -9.7768  -17.4397 N   0  0  0  0  0  0  0  0  0  0  0  0
   12.6246   -9.3257  -16.2347 C   0  0  0  0  0  0  0  0  0  0  0  0
   13.9056   -8.9219  -16.3876 N   0  0  0  0  0  0  0  0  0  0  0  0
   14.2670   -9.1123  -17.6671 C   0  0  0  0  0  0  0  0  0  0  0  0
   15.4551   -8.8796  -18.3430 C   0  0  0  0  0  0  0  0  0  0  0  0
   16.5026   -8.3767  -17.7031 N   0  0  0  0  0  0  0  0  0  0  0  0
   15.5358   -9.1837  -19.6875 N   0  0  0  0  0  0  0  0  0  0  0  0
   14.4498   -9.7199  -20.3680 C   0  0  0  0  0  0  0  0  0  0  0  0
   13.2774   -9.9499  -19.6772 N   0  0  0  0  0  0  0  0  0  0  0  0
   13.1776   -9.6475  -18.3499 C   0  0  0  0  0  0  0  0  0  0  0  0
  2  3  1  6  0  0  0
  2  6  1  0  0  0  0
  2  1  1  0  0  0  0
  4  3  2  0  0  0  0
  5  3  1  0  0  0  0
  6  7  2  0  0  0  0
  8  7  1  1  0  0  0
  8  9  1  0  0  0  0
  8 10  1  0  0  0  0
 11 10  1  1  0  0  0
 11 13  1  0  0  0  0
 12 11  1  0  0  0  0
 12 17  1  0  0  0  0
 13 14  1  6  0  0  0
 13 15  1  0  0  0  0
 15 16  1  6  0  0  0
 17 18  1  1  0  0  0
 17 15  1  0  0  0  0
 18 19  1  0  0  0  0
 20 19  2  0  0  0  0
 21 27  2  0  0  0  0
 21 20  1  0  0  0  0
 22 21  1  0  0  0  0
 23 22  1  0  0  0  0
 24 22  2  0  0  0  0
 24 25  1  0  0  0  0
 25 26  2  0  0  0  0
 26 27  1  0  0  0  0
 27 18  1  0  0  0  0
M  END
>  <CHROM.1>
-61.12883597,-60.82259484,-49.88903777,171.73599689,73.97929261,102.08264688
9.34127219,-8.23040949,-18.61972279,-2.67441043,-0.12171127,2.35285435

>  <Name>
lig.pdb

>  <RI>
0

>  <Rbt.Current_Directory>
/home/itssahil/PROJECTS/Mol_Feturizer/New_Systems/rnas/4b5r

>  <Rbt.Executable>
rbdock ($Id: //depot/dev/client3/rdock/2013.1/src/exe/rbdock.cxx#4 $)

>  <Rbt.Library>
libRbt.so (2013.1, Build901 2013/11/27)

>  <Rbt.Parameter_File>
/export/apps/rDock/src/rDock_2013.1_src/data/scripts/dock_solv.prm

>  <Rbt.Receptor>
prm/blind_docking_80.prm

>  <SCORE>
-19.119

>  <SCORE.INTER>
-19.8909

>  <SCORE.INTER.CONST>
1

>  <SCORE.INTER.POLAR>
0

>  <SCORE.INTER.ROT>
6

>  <SCORE.INTER.SOLV>
20.209

>  <SCORE.INTER.VDW>
-27.597

>  <SCORE.INTER.norm>
-0.736702

>  <SCORE.INTRA>
0.771944

>  <SCORE.INTRA.DIHEDRAL>
-0.134656

>  <SCORE.INTRA.DIHEDRAL.0>
10.2917

>  <SCORE.INTRA.POLAR>
0

>  <SCORE.INTRA.POLAR.0>
0

>  <SCORE.INTRA.REPUL>
0

>  <SCORE.INTRA.REPUL.0>
0

>  <SCORE.INTRA.SOLV>
-2.91301

>  <SCORE.INTRA.SOLV.lig_0>
-39.6315

>  <SCORE.INTRA.VDW>
2.29578

>  <SCORE.INTRA.VDW.0>
-4.02152

>  <SCORE.INTRA.norm>
0.0285905

>  <SCORE.RESTR>
0

>  <SCORE.RESTR.CAVITY>
0

>  <SCORE.RESTR.norm>
0

>  <SCORE.SYSTEM>
0

>  <SCORE.SYSTEM.CONST>
0

>  <SCORE.SYSTEM.DIHEDRAL>
0

>  <SCORE.SYSTEM.SOLV>
0

>  <SCORE.SYSTEM.norm>
0

>  <SCORE.heavy>
27

>  <SCORE.norm>
-0.708111

>  <RMSD>
14.718

$$$$
lig.pdb
 OpenBabel11021811493D
libRbt.so/2013.1/901 2013/11/27
 27 29  0  0  0  0  0  0  0  0999 V2000
    1.7484  -10.4567  -27.3334 N   0  0  0  0  0  0  0  0  0  0  0  0
    0.3638  -10.0776  -26.9170 C   0  0  2  0  0  0  0  0  0  0  0  0
   -0.0168   -8.7613  -27.5883 C   0  0  0  0  0  0  0  0  0  0  0  0
    0.8563   -8.0666  -28.0951 O   0  0  0  0  0  0  0  0  0  0  0  0
   -1.1827   -8.3495  -27.6436 O   0  0  0  0  0  0  0  0  0  0  0  0
    0.1717  -10.0161  -25.3883 C   0  0  0  0  0  0  0  0  0  0  0  0
    1.4511   -9.8304  -24.5309 C   0  0  0  0  0  0  0  0  0  0  0  0
    1.2926   -9.7552  -22.6944 S   0  0  2  0  0  0  0  0  0  0  0  0
   -0.4043   -9.1684  -22.5049 C   0  0  0  0  0  0  0  0  0  0  0  0
    2.1868   -8.2497  -22.2523 C   0  0  0  0  0  0  0  0  0  0  0  0
    2.0300   -7.9785  -20.7619 C   0  0  1  0  0  0  0  0  0  0  0  0
    2.5153   -9.0437  -19.9587 O   0  0  0  0  0  0  0  0  0  0  0  0
    2.8173   -6.7849  -20.2917 C   0  0  1  0  0  0  0  0  0  0  0  0
    2.1462   -5.6037  -20.6240 O   0  0  0  0  0  0  0  0  0  0  0  0
    2.8567   -7.0464  -18.8023 C   0  0  1  0  0  0  0  0  0  0  0  0
    1.6580   -6.6045  -18.1983 O   0  0  0  0  0  0  0  0  0  0  0  0
    2.9353   -8.5651  -18.6933 C   0  0  2  0  0  0  0  0  0  0  0  0
    4.2720   -9.1022  -18.3178 N   0  0  0  0  0  0  0  0  0  0  0  0
    4.5999   -9.6288  -17.0938 C   0  0  0  0  0  0  0  0  0  0  0  0
    5.8946  -10.0173  -17.1103 N   0  0  0  0  0  0  0  0  0  0  0  0
    6.4058   -9.7592  -18.3252 C   0  0  0  0  0  0  0  0  0  0  0  0
    7.6642   -9.9677  -18.8687 C   0  0  0  0  0  0  0  0  0  0  0  0
    8.6245  -10.5232  -18.1415 N   0  0  0  0  0  0  0  0  0  0  0  0
    7.9029   -9.5957  -20.1769 N   0  0  0  0  0  0  0  0  0  0  0  0
    6.9039   -9.0218  -20.9530 C   0  0  0  0  0  0  0  0  0  0  0  0
    5.6560   -8.8274  -20.3967 N   0  0  0  0  0  0  0  0  0  0  0  0
    5.4050   -9.1814  -19.1025 C   0  0  0  0  0  0  0  0  0  0  0  0
  2  3  1  6  0  0  0
  2  6  1  0  0  0  0
  2  1  1  0  0  0  0
  4  3  2  0  0  0  0
  5  3  1  0  0  0  0
  6  7  2  0  0  0  0
  8  7  1  6  0  0  0
  8  9  1  0  0  0  0
  8 10  1  0  0  0  0
 11 10  1  6  0  0  0
 11 13  1  0  0  0  0
 12 11  1  0  0  0  0
 12 17  1  0  0  0  0
 13 14  1  1  0  0  0
 13 15  1  0  0  0  0
 15 16  1  1  0  0  0
 17 18  1  6  0  0  0
 17 15  1  0  0  0  0
 18 19  1  0  0  0  0
 20 19  2  0  0  0  0
 21 27  2  0  0  0  0
 21 20  1  0  0  0  0
 22 21  1  0  0  0  0
 23 22  1  0  0  0  0
 24 22  2  0  0  0  0
 24 25  1  0  0  0  0
 25 26  2  0  0  0  0
 26 27  1  0  0  0  0
 27 18  1  0  0  0  0
M  END
>  <CHROM.1>
-15.29712240,21.59196841,-25.44769012,174.60660061,59.00537599,-133.75127293
3.04165653,-8.88629649,-21.61423919,-2.25102423,-0.42576410,1.25927710

>  <Name>
lig.pdb

>  <RI>
0

>  <Rbt.Current_Directory>
/home/itssahil/PROJECTS/Mol_Feturizer/New_Systems/rnas/4b5r

>  <Rbt.Executable>
rbdock ($Id: //depot/dev/client3/rdock/2013.1/src/exe/rbdock.cxx#4 $)

>  <Rbt.Library>
libRbt.so (2013.1, Build901 2013/11/27)

>  <Rbt.Parameter_File>
/export/apps/rDock/src/rDock_2013.1_src/data/scripts/dock_solv.prm

>  <Rbt.Receptor>
prm/blind_docking_80.prm

>  <SCORE>
-8.42973

>  <SCORE.INTER>
-8.12604

>  <SCORE.INTER.CONST>
1

>  <SCORE.INTER.POLAR>
0

>  <SCORE.INTER.ROT>
6

>  <SCORE.INTER.SOLV>
14.1876

>  <SCORE.INTER.VDW>
-17.7466

>  <SCORE.INTER.norm>
-0.300965

>  <SCORE.INTRA>
-0.303684

>  <SCORE.INTRA.DIHEDRAL>
-2.64057

>  <SCORE.INTRA.DIHEDRAL.0>
10.2917

>  <SCORE.INTRA.POLAR>
0

>  <SCORE.INTRA.POLAR.0>
0

>  <SCORE.INTRA.REPUL>
0

>  <SCORE.INTRA.REPUL.0>
0

>  <SCORE.INTRA.SOLV>
-1.99082

>  <SCORE.INTRA.SOLV.lig_0>
-39.6315

>  <SCORE.INTRA.VDW>
2.01201

>  <SCORE.INTRA.VDW.0>
-4.02152

>  <SCORE.INTRA.norm>
-0.0112476

>  <SCORE.RESTR>
0

>  <SCORE.RESTR.CAVITY>
0

>  <SCORE.RESTR.norm>
0

>  <SCORE.SYSTEM>
0

>  <SCORE.SYSTEM.CONST>
0

>  <SCORE.SYSTEM.DIHEDRAL>
0

>  <SCORE.SYSTEM.SOLV>
0

>  <SCORE.SYSTEM.norm>
0

>  <SCORE.heavy>
27

>  <SCORE.norm>
-0.312212

>  <RMSD>
14.828

$$$$
lig.pdb
 OpenBabel11021811493D
libRbt.so/2013.1/901 2013/11/27
 27 29  0  0  0  0  0  0  0  0999 V2000
    5.0534  -10.8484  -23.9461 N   0  0  0  0  0  0  0  0  0  0  0  0
    6.2491  -10.0057  -23.6390 C   0  0  2  0  0  0  0  0  0  0  0  0
    7.3656  -10.3460  -24.6218 C   0  0  0  0  0  0  0  0  0  0  0  0
    7.5810   -9.6035  -25.5726 O   0  0  0  0  0  0  0  0  0  0  0  0
    8.0740  -11.3545  -24.5087 O   0  0  0  0  0  0  0  0  0  0  0  0
    6.7233  -10.1131  -22.1757 C   0  0  0  0  0  0  0  0  0  0  0  0
    6.6196   -8.8286  -21.3122 C   0  0  0  0  0  0  0  0  0  0  0  0
    7.1762   -8.8866  -19.5543 S   0  0  2  0  0  0  0  0  0  0  0  0
    7.3988   -7.1322  -19.1907 C   0  0  0  0  0  0  0  0  0  0  0  0
    8.9052   -9.3949  -19.6730 C   0  0  0  0  0  0  0  0  0  0  0  0
    9.3667   -9.9607  -18.3364 C   0  0  1  0  0  0  0  0  0  0  0  0
   10.7165  -10.3995  -18.3657 O   0  0  0  0  0  0  0  0  0  0  0  0
    9.3414   -8.9468  -17.2243 C   0  0  1  0  0  0  0  0  0  0  0  0
    8.0347   -8.7796  -16.7545 O   0  0  0  0  0  0  0  0  0  0  0  0
   10.2531   -9.6140  -16.2183 C   0  0  1  0  0  0  0  0  0  0  0  0
    9.5355  -10.5779  -15.4748 O   0  0  0  0  0  0  0  0  0  0  0  0
   11.2951  -10.3246  -17.0748 C   0  0  2  0  0  0  0  0  0  0  0  0
   12.6338   -9.6741  -17.1088 N   0  0  0  0  0  0  0  0  0  0  0  0
   13.2154   -9.0014  -16.0638 C   0  0  0  0  0  0  0  0  0  0  0  0
   14.4275   -8.5441  -16.4501 N   0  0  0  0  0  0  0  0  0  0  0  0
   14.6425   -8.9169  -17.7225 C   0  0  0  0  0  0  0  0  0  0  0  0
   15.7127   -8.7198  -18.5817 C   0  0  0  0  0  0  0  0  0  0  0  0
   16.7836   -8.0507  -18.1755 N   0  0  0  0  0  0  0  0  0  0  0  0
   15.6520   -9.2338  -19.8619 N   0  0  0  0  0  0  0  0  0  0  0  0
   14.5409   -9.9447  -20.2975 C   0  0  0  0  0  0  0  0  0  0  0  0
   13.4879  -10.1358  -19.4262 N   0  0  0  0  0  0  0  0  0  0  0  0
   13.5275   -9.6276  -18.1600 C   0  0  0  0  0  0  0  0  0  0  0  0
  2  3  1  6  0  0  0
  2  6  1  0  0  0  0
  2  1  1  0  0  0  0
  4  3  2  0  0  0  0
  5  3  1  0  0  0  0
  6  7  2  0  0  0  0
  8  7  1  6  0  0  0
  8  9  1  0  0  0  0
  8 10  1  0  0  0  0
 11 10  1  6  0  0  0
 11 13  1  0  0  0  0
 12 11  1  0  0  0  0
 12 17  1  0  0  0  0
 13 14  1  1  0  0  0
 13 15  1  0  0  0  0
 15 16  1  6  0  0  0
 17 18  1  6  0  0  0
 17 15  1  0  0  0  0
 18 19  1  0  0  0  0
 20 19  2  0  0  0  0
 21 27  2  0  0  0  0
 21 20  1  0  0  0  0
 22 21  1  0  0  0  0
 23 22  1  0  0  0  0
 24 22  2  0  0  0  0
 24 25  1  0  0  0  0
 25 26  2  0  0  0  0
 26 27  1  0  0  0  0
 27 18  1  0  0  0  0
M  END
>  <CHROM.1>
101.32580770,-115.10112067,161.31999198,-160.03552979,179.11907454,153.63819322
10.29369146,-9.49736351,-19.48415565,-2.50740397,0.00956946,1.44841271

>  <Name>
lig.pdb

>  <RI>
0

>  <Rbt.Current_Directory>
/home/itssahil/PROJECTS/Mol_Feturizer/New_Systems/rnas/4b5r

>  <Rbt.Executable>
rbdock ($Id: //depot/dev/client3/rdock/2013.1/src/exe/rbdock.cxx#4 $)

>  <Rbt.Library>
libRbt.so (2013.1, Build901 2013/11/27)

>  <Rbt.Parameter_File>
/export/apps/rDock/src/rDock_2013.1_src/data/scripts/dock_solv.prm

>  <Rbt.Receptor>
prm/blind_docking_60.prm

>  <SCORE>
-20.7844

>  <SCORE.INTER>
-22.1528

>  <SCORE.INTER.CONST>
1

>  <SCORE.INTER.POLAR>
0

>  <SCORE.INTER.ROT>
6

>  <SCORE.INTER.SOLV>
22.6946

>  <SCORE.INTER.VDW>
-29.9334

>  <SCORE.INTER.norm>
-0.820474

>  <SCORE.INTRA>
1.36844

>  <SCORE.INTRA.DIHEDRAL>
-1.29308

>  <SCORE.INTRA.DIHEDRAL.0>
10.2917

>  <SCORE.INTRA.POLAR>
0

>  <SCORE.INTRA.POLAR.0>
0

>  <SCORE.INTRA.REPUL>
0.230364

>  <SCORE.INTRA.REPUL.0>
0

>  <SCORE.INTRA.SOLV>
-2.85663

>  <SCORE.INTRA.SOLV.lig_0>
-39.6315

>  <SCORE.INTRA.VDW>
2.29148

>  <SCORE.INTRA.VDW.0>
-4.02152

>  <SCORE.INTRA.norm>
0.0506829

>  <SCORE.RESTR>
0

>  <SCORE.RESTR.CAVITY>
0

>  <SCORE.RESTR.norm>
0

>  <SCORE.SYSTEM>
0

>  <SCORE.SYSTEM.CONST>
0

>  <SCORE.SYSTEM.DIHEDRAL>
0

>  <SCORE.SYSTEM.SOLV>
0

>  <SCORE.SYSTEM.norm>
0

>  <SCORE.heavy>
27

>  <SCORE.norm>
-0.769791

>  <RMSD>
14.875

$$$$
lig.pdb
 OpenBabel11021811493D
libRbt.so/2013.1/901 2013/11/27
 27 29  0  0  0  0  0  0  0  0999 V2000
    5.0375  -10.5937  -24.1334 N   0  0  0  0  0  0  0  0  0  0  0  0
    6.2603   -9.8043  -23.7932 C   0  0  2  0  0  0  0  0  0  0  0  0
    7.3666  -10.1435  -24.7878 C   0  0  0  0  0  0  0  0  0  0  0  0
    7.4446   -9.5211  -25.8405 O   0  0  0  0  0  0  0  0  0  0  0  0
    8.2010  -11.0347  -24.5843 O   0  0  0  0  0  0  0  0  0  0  0  0
    6.7279   -9.9843  -22.3348 C   0  0  0  0  0  0  0  0  0  0  0  0
    6.5565   -8.7649  -21.3912 C   0  0  0  0  0  0  0  0  0  0  0  0
    7.1018   -8.9110  -19.6349 S   0  0  2  0  0  0  0  0  0  0  0  0
    7.3523   -7.1788  -19.1921 C   0  0  0  0  0  0  0  0  0  0  0  0
    8.8224   -9.4436  -19.7674 C   0  0  0  0  0  0  0  0  0  0  0  0
    9.2824  -10.0288  -18.4387 C   0  0  1  0  0  0  0  0  0  0  0  0
   10.6317  -10.4688  -18.4733 O   0  0  0  0  0  0  0  0  0  0  0  0
    9.2575   -9.0307  -17.3124 C   0  0  1  0  0  0  0  0  0  0  0  0
    7.9508   -8.8685  -16.8411 O   0  0  0  0  0  0  0  0  0  0  0  0
   10.1677   -9.7131  -16.3153 C   0  0  1  0  0  0  0  0  0  0  0  0
    9.4484  -10.6866  -15.5860 O   0  0  0  0  0  0  0  0  0  0  0  0
   11.2095  -10.4128  -17.1811 C   0  0  2  0  0  0  0  0  0  0  0  0
   12.5489   -9.7636  -17.2051 N   0  0  0  0  0  0  0  0  0  0  0  0
   13.1322   -9.1094  -16.1492 C   0  0  0  0  0  0  0  0  0  0  0  0
   14.3446   -8.6472  -16.5286 N   0  0  0  0  0  0  0  0  0  0  0  0
   14.5582   -8.9987  -17.8072 C   0  0  0  0  0  0  0  0  0  0  0  0
   15.6281   -8.7885  -18.6637 C   0  0  0  0  0  0  0  0  0  0  0  0
   16.7002   -8.1277  -18.2471 N   0  0  0  0  0  0  0  0  0  0  0  0
   15.5659   -9.2805  -19.9524 N   0  0  0  0  0  0  0  0  0  0  0  0
   14.4536   -9.9826  -20.3991 C   0  0  0  0  0  0  0  0  0  0  0  0
   13.4008  -10.1871  -19.5305 N   0  0  0  0  0  0  0  0  0  0  0  0
   13.4420   -9.7004  -18.2559 C   0  0  0  0  0  0  0  0  0  0  0  0
  2  3  1  6  0  0  0
  2  6  1  0  0  0  0
  2  1  1  0  0  0  0
  4  3  2  0  0  0  0
  5  3  1  0  0  0  0
  6  7  2  0  0  0  0
  8  7  1  6  0  0  0
  8  9  1  0  0  0  0
  8 10  1  0  0  0  0
 11 10  1  6  0  0  0
 11 13  1  0  0  0  0
 12 11  1  0  0  0  0
 12 17  1  0  0  0  0
 13 14  1  1  0  0  0
 13 15  1  0  0  0  0
 15 16  1  6  0  0  0
 17 18  1  6  0  0  0
 17 15  1  0  0  0  0
 18 19  1  0  0  0  0
 20 19  2  0  0  0  0
 21 27  2  0  0  0  0
 21 20  1  0  0  0  0
 22 21  1  0  0  0  0
 23 22  1  0  0  0  0
 24 22  2  0  0  0  0
 24 25  1  0  0  0  0
 25 26  2  0  0  0  0
 26 27  1  0  0  0  0
 27 18  1  0  0  0  0
M  END
>  <CHROM.1>
87.44150161,-110.20384433,157.42957802,-162.14865432,-179.99540909,153.81613221
10.22976064,-9.50510547,-19.58899522,-2.49778122,0.00339646,1.48515859

>  <Name>
lig.pdb

>  <RI>
0

>  <Rbt.Current_Directory>
/home/itssahil/PROJECTS/Mol_Feturizer/New_Systems/rnas/4b5r

>  <Rbt.Executable>
rbdock ($Id: //depot/dev/client3/rdock/2013.1/src/exe/rbdock.cxx#4 $)

>  <Rbt.Library>
libRbt.so (2013.1, Build901 2013/11/27)

>  <Rbt.Parameter_File>
/export/apps/rDock/src/rDock_2013.1_src/data/scripts/dock_solv.prm

>  <Rbt.Receptor>
prm/blind_docking_40.prm

>  <SCORE>
-20.2687

>  <SCORE.INTER>
-21.9371

>  <SCORE.INTER.CONST>
1

>  <SCORE.INTER.POLAR>
0

>  <SCORE.INTER.ROT>
6

>  <SCORE.INTER.SOLV>
22.7418

>  <SCORE.INTER.VDW>
-29.8053

>  <SCORE.INTER.norm>
-0.812484

>  <SCORE.INTRA>
1.60521

>  <SCORE.INTRA.DIHEDRAL>
-1.47226

>  <SCORE.INTRA.DIHEDRAL.0>
10.2917

>  <SCORE.INTRA.POLAR>
0

>  <SCORE.INTRA.POLAR.0>
0

>  <SCORE.INTRA.REPUL>
0.230904

>  <SCORE.INTRA.REPUL.0>
0

>  <SCORE.INTRA.SOLV>
-2.82578

>  <SCORE.INTRA.SOLV.lig_0>
-39.6315

>  <SCORE.INTRA.VDW>
2.59971

>  <SCORE.INTRA.VDW.0>
-4.02152

>  <SCORE.INTRA.norm>
0.0594523

>  <SCORE.RESTR>
0.0631488

>  <SCORE.RESTR.CAVITY>
0.0631488

>  <SCORE.RESTR.norm>
0.00233884

>  <SCORE.SYSTEM>
0

>  <SCORE.SYSTEM.CONST>
0

>  <SCORE.SYSTEM.DIHEDRAL>
0

>  <SCORE.SYSTEM.SOLV>
0

>  <SCORE.SYSTEM.norm>
0

>  <SCORE.heavy>
27

>  <SCORE.norm>
-0.750692

>  <RMSD>
14.910

$$$$
lig.pdb
 OpenBabel11021811493D
libRbt.so/2013.1/901 2013/11/27
 27 29  0  0  0  0  0  0  0  0999 V2000
   14.6289   -2.1359   -5.8640 N   0  0  0  0  0  0  0  0  0  0  0  0
   14.5942   -1.7636   -7.3112 C   0  0  2  0  0  0  0  0  0  0  0  0
   13.9434   -0.3914   -7.4584 C   0  0  0  0  0  0  0  0  0  0  0  0
   13.8399    0.1122   -8.5708 O   0  0  0  0  0  0  0  0  0  0  0  0
   13.5117    0.2528   -6.4939 O   0  0  0  0  0  0  0  0  0  0  0  0
   13.9125   -2.8185   -8.2059 C   0  0  0  0  0  0  0  0  0  0  0  0
   13.7437   -4.2390   -7.6056 C   0  0  0  0  0  0  0  0  0  0  0  0
   12.9419   -5.5503   -8.6259 S   0  0  2  0  0  0  0  0  0  0  0  0
   11.5305   -5.9959   -7.5921 C   0  0  0  0  0  0  0  0  0  0  0  0
   13.9873   -6.9978   -8.3548 C   0  0  0  0  0  0  0  0  0  0  0  0
   14.2880   -7.1427   -6.8688 C   0  0  1  0  0  0  0  0  0  0  0  0
   13.7809   -8.3516   -6.3240 O   0  0  0  0  0  0  0  0  0  0  0  0
   15.7612   -7.2010   -6.5662 C   0  0  1  0  0  0  0  0  0  0  0  0
   16.3112   -5.9156   -6.5991 O   0  0  0  0  0  0  0  0  0  0  0  0
   15.7368   -7.8009   -5.1777 C   0  0  1  0  0  0  0  0  0  0  0  0
   15.4895   -6.7948   -4.2167 O   0  0  0  0  0  0  0  0  0  0  0  0
   14.5514   -8.7592   -5.2074 C   0  0  2  0  0  0  0  0  0  0  0  0
   14.9087  -10.2025   -5.2829 N   0  0  0  0  0  0  0  0  0  0  0  0
   15.1676  -10.8961   -6.4382 C   0  0  0  0  0  0  0  0  0  0  0  0
   15.4569  -12.1800   -6.1297 N   0  0  0  0  0  0  0  0  0  0  0  0
   15.3979  -12.3257   -4.7957 C   0  0  0  0  0  0  0  0  0  0  0  0
   15.6138  -13.4172   -3.9684 C   0  0  0  0  0  0  0  0  0  0  0  0
   15.9496  -14.5925   -4.4838 N   0  0  0  0  0  0  0  0  0  0  0  0
   15.4810  -13.2638   -2.6026 N   0  0  0  0  0  0  0  0  0  0  0  0
   15.1394  -12.0366   -2.0486 C   0  0  0  0  0  0  0  0  0  0  0  0
   14.9341  -10.9601   -2.8875 N   0  0  0  0  0  0  0  0  0  0  0  0
   15.0529  -11.0960   -4.2404 C   0  0  0  0  0  0  0  0  0  0  0  0
  2  3  1  1  0  0  0
  2  6  1  0  0  0  0
  2  1  1  0  0  0  0
  4  3  2  0  0  0  0
  5  3  1  0  0  0  0
  6  7  2  0  0  0  0
  8  7  1  1  0  0  0
  8  9  1  0  0  0  0
  8 10  1  0  0  0  0
 11 10  1  6  0  0  0
 11 13  1  0  0  0  0
 12 11  1  0  0  0  0
 12 17  1  0  0  0  0
 13 14  1  1  0  0  0
 13 15  1  0  0  0  0
 15 16  1  1  0  0  0
 17 18  1  6  0  0  0
 17 15  1  0  0  0  0
 18 19  1  0  0  0  0
 20 19  2  0  0  0  0
 21 27  2  0  0  0  0
 21 20  1  0  0  0  0
 22 21  1  0  0  0  0
 23 22  1  0  0  0  0
 24 22  2  0  0  0  0
 24 25  1  0  0  0  0
 25 26  2  0  0  0  0
 26 27  1  0  0  0  0
 27 18  1  0  0  0  0
M  END
>  <CHROM.1>
178.61779094,-17.28593726,-120.60094269,45.88434908,117.67962346,33.93084450
14.55506996,-7.29405255,-6.07685290,-1.91232441,1.13129467,3.12942033

>  <Name>
lig.pdb

>  <RI>
0

>  <Rbt.Current_Directory>
/home/itssahil/PROJECTS/Mol_Feturizer/New_Systems/rnas/4b5r

>  <Rbt.Executable>
rbdock ($Id: //depot/dev/client3/rdock/2013.1/src/exe/rbdock.cxx#4 $)

>  <Rbt.Library>
libRbt.so (2013.1, Build901 2013/11/27)

>  <Rbt.Parameter_File>
/export/apps/rDock/src/rDock_2013.1_src/data/scripts/dock_solv.prm

>  <Rbt.Receptor>
prm/blind_docking_100.prm

>  <SCORE>
-11.6596

>  <SCORE.INTER>
-14.6989

>  <SCORE.INTER.CONST>
1

>  <SCORE.INTER.POLAR>
0

>  <SCORE.INTER.ROT>
6

>  <SCORE.INTER.SOLV>
15.1572

>  <SCORE.INTER.VDW>
-22.4517

>  <SCORE.INTER.norm>
-0.544403

>  <SCORE.INTRA>
3.03931

>  <SCORE.INTRA.DIHEDRAL>
4.1118

>  <SCORE.INTRA.DIHEDRAL.0>
10.2917

>  <SCORE.INTRA.POLAR>
0

>  <SCORE.INTRA.POLAR.0>
0

>  <SCORE.INTRA.REPUL>
0

>  <SCORE.INTRA.REPUL.0>
0

>  <SCORE.INTRA.SOLV>
-2.44136

>  <SCORE.INTRA.SOLV.lig_0>
-39.6315

>  <SCORE.INTRA.VDW>
2.2041

>  <SCORE.INTRA.VDW.0>
-4.02152

>  <SCORE.INTRA.norm>
0.112567

>  <SCORE.RESTR>
0

>  <SCORE.RESTR.CAVITY>
0

>  <SCORE.RESTR.norm>
0

>  <SCORE.SYSTEM>
0

>  <SCORE.SYSTEM.CONST>
0

>  <SCORE.SYSTEM.DIHEDRAL>
0

>  <SCORE.SYSTEM.SOLV>
0

>  <SCORE.SYSTEM.norm>
0

>  <SCORE.heavy>
27

>  <SCORE.norm>
-0.431836

>  <RMSD>
15.207

$$$$
lig.pdb
 OpenBabel11021811493D
libRbt.so/2013.1/901 2013/11/27
 27 29  0  0  0  0  0  0  0  0999 V2000
   -6.3713  -10.0645  -24.3497 N   0  0  0  0  0  0  0  0  0  0  0  0
   -6.5002   -8.6621  -23.8492 C   0  0  2  0  0  0  0  0  0  0  0  0
   -6.1670   -7.6950  -24.9814 C   0  0  0  0  0  0  0  0  0  0  0  0
   -4.9952   -7.4875  -25.2739 O   0  0  0  0  0  0  0  0  0  0  0  0
   -7.0352   -7.0947  -25.6277 O   0  0  0  0  0  0  0  0  0  0  0  0
   -5.6616   -8.3753  -22.5872 C   0  0  0  0  0  0  0  0  0  0  0  0
   -6.4348   -7.9046  -21.3274 C   0  0  0  0  0  0  0  0  0  0  0  0
   -5.4910   -7.5379  -19.7853 S   0  0  2  0  0  0  0  0  0  0  0  0
   -6.6051   -6.3906  -18.9474 C   0  0  0  0  0  0  0  0  0  0  0  0
   -4.2169   -6.3806  -20.3323 C   0  0  0  0  0  0  0  0  0  0  0  0
   -3.1136   -6.2995  -19.2855 C   0  0  1  0  0  0  0  0  0  0  0  0
   -3.6066   -5.9658  -17.9967 O   0  0  0  0  0  0  0  0  0  0  0  0
   -2.4034   -7.6091  -19.0719 C   0  0  1  0  0  0  0  0  0  0  0  0
   -1.4778   -7.8282  -20.0972 O   0  0  0  0  0  0  0  0  0  0  0  0
   -1.7535   -7.3577  -17.7292 C   0  0  1  0  0  0  0  0  0  0  0  0
   -0.5523   -6.6328  -17.8976 O   0  0  0  0  0  0  0  0  0  0  0  0
   -2.7590   -6.4843  -16.9871 C   0  0  2  0  0  0  0  0  0  0  0  0
   -3.5331   -7.1791  -15.9221 N   0  0  0  0  0  0  0  0  0  0  0  0
   -3.4384   -8.5131  -15.6149 C   0  0  0  0  0  0  0  0  0  0  0  0
   -4.2833   -8.7954  -14.5981 N   0  0  0  0  0  0  0  0  0  0  0  0
   -4.9150   -7.6662  -14.2376 C   0  0  0  0  0  0  0  0  0  0  0  0
   -5.8604   -7.4008  -13.2586 C   0  0  0  0  0  0  0  0  0  0  0  0
   -6.2958   -8.3719  -12.4668 N   0  0  0  0  0  0  0  0  0  0  0  0
   -6.3376   -6.1131  -13.1146 N   0  0  0  0  0  0  0  0  0  0  0  0
   -5.8834   -5.0845  -13.9304 C   0  0  0  0  0  0  0  0  0  0  0  0
   -4.9380   -5.3666  -14.8954 N   0  0  0  0  0  0  0  0  0  0  0  0
   -4.4616   -6.6355  -15.0571 C   0  0  0  0  0  0  0  0  0  0  0  0
  2  3  1  6  0  0  0
  2  6  1  0  0  0  0
  2  1  1  0  0  0  0
  4  3  2  0  0  0  0
  5  3  1  0  0  0  0
  6  7  2  0  0  0  0
  8  7  1  6  0  0  0
  8  9  1  0  0  0  0
  8 10  1  0  0  0  0
 11 10  1  6  0  0  0
 11 13  1  0  0  0  0
 12 11  1  0  0  0  0
 12 17  1  0  0  0  0
 13 14  1  6  0  0  0
 13 15  1  0  0  0  0
 15 16  1  6  0  0  0
 17 18  1  1  0  0  0
 17 15  1  0  0  0  0
 18 19  1  0  0  0  0
 20 19  2  0  0  0  0
 21 27  2  0  0  0  0
 21 20  1  0  0  0  0
 22 21  1  0  0  0  0
 23 22  1  0  0  0  0
 24 22  2  0  0  0  0
 24 25  1  0  0  0  0
 25 26  2  0  0  0  0
 26 27  1  0  0  0  0
 27 18  1  0  0  0  0
M  END
>  <CHROM.1>
-78.42489392,-120.81058894,155.63043525,-163.29464557,-54.94875886,116.89582450
-4.64458729,-7.29114767,-18.64745438,1.68151549,-0.08002667,-1.66372796

>  <Name>
lig.pdb

>  <RI>
0

>  <Rbt.Current_Directory>
/home/itssahil/PROJECTS/Mol_Feturizer/New_Systems/rnas/4b5r

>  <Rbt.Executable>
rbdock ($Id: //depot/dev/client3/rdock/2013.1/src/exe/rbdock.cxx#4 $)

>  <Rbt.Library>
libRbt.so (2013.1, Build901 2013/11/27)

>  <Rbt.Parameter_File>
/export/apps/rDock/src/rDock_2013.1_src/data/scripts/dock_solv.prm

>  <Rbt.Receptor>
prm/blind_docking_80.prm

>  <SCORE>
-8.00679

>  <SCORE.INTER>
-7.27151

>  <SCORE.INTER.CONST>
1

>  <SCORE.INTER.POLAR>
0

>  <SCORE.INTER.ROT>
6

>  <SCORE.INTER.SOLV>
12.0988

>  <SCORE.INTER.VDW>
-16.4806

>  <SCORE.INTER.norm>
-0.269315

>  <SCORE.INTRA>
-0.735273

>  <SCORE.INTRA.DIHEDRAL>
-1.74104

>  <SCORE.INTRA.DIHEDRAL.0>
10.2917

>  <SCORE.INTRA.POLAR>
0

>  <SCORE.INTRA.POLAR.0>
0

>  <SCORE.INTRA.REPUL>
0.0156776

>  <SCORE.INTRA.REPUL.0>
0

>  <SCORE.INTRA.SOLV>
-2.90179

>  <SCORE.INTRA.SOLV.lig_0>
-39.6315

>  <SCORE.INTRA.VDW>
1.50775

>  <SCORE.INTRA.VDW.0>
-4.02152

>  <SCORE.INTRA.norm>
-0.0272323

>  <SCORE.RESTR>
0

>  <SCORE.RESTR.CAVITY>
0

>  <SCORE.RESTR.norm>
0

>  <SCORE.SYSTEM>
0

>  <SCORE.SYSTEM.CONST>
0

>  <SCORE.SYSTEM.DIHEDRAL>
0

>  <SCORE.SYSTEM.SOLV>
0

>  <SCORE.SYSTEM.norm>
0

>  <SCORE.heavy>
27

>  <SCORE.norm>
-0.296548

>  <RMSD>
15.216

$$$$
lig.pdb
 OpenBabel11021811493D
libRbt.so/2013.1/901 2013/11/27
 27 29  0  0  0  0  0  0  0  0999 V2000
   -1.7922   -8.8642  -22.0559 N   0  0  0  0  0  0  0  0  0  0  0  0
   -1.1069   -9.9771  -22.7809 C   0  0  2  0  0  0  0  0  0  0  0  0
   -1.4073  -11.2946  -22.0722 C   0  0  0  0  0  0  0  0  0  0  0  0
   -2.4880  -11.8442  -22.2505 O   0  0  0  0  0  0  0  0  0  0  0  0
   -0.6028  -11.8437  -21.3086 O   0  0  0  0  0  0  0  0  0  0  0  0
    0.4087   -9.7580  -22.9617 C   0  0  0  0  0  0  0  0  0  0  0  0
    0.9560   -9.8272  -24.4117 C   0  0  0  0  0  0  0  0  0  0  0  0
    2.7618   -9.5804  -24.6976 S   0  0  2  0  0  0  0  0  0  0  0  0
    3.0023  -10.4641  -26.2535 C   0  0  0  0  0  0  0  0  0  0  0  0
    3.5356  -10.7503  -23.5599 C   0  0  0  0  0  0  0  0  0  0  0  0
    5.0359  -10.8001  -23.8168 C   0  0  1  0  0  0  0  0  0  0  0  0
    5.7106   -9.6460  -23.3391 O   0  0  0  0  0  0  0  0  0  0  0  0
    5.7202  -11.9373  -23.1070 C   0  0  1  0  0  0  0  0  0  0  0  0
    5.5149  -13.1329  -23.8029 O   0  0  0  0  0  0  0  0  0  0  0  0
    7.1572  -11.4663  -23.1471 C   0  0  1  0  0  0  0  0  0  0  0  0
    7.7380  -11.7803  -24.3965 O   0  0  0  0  0  0  0  0  0  0  0  0
    7.0556   -9.9508  -23.0154 C   0  0  2  0  0  0  0  0  0  0  0  0
    7.4378   -9.4062  -21.6836 N   0  0  0  0  0  0  0  0  0  0  0  0
    8.5479   -9.7736  -20.9655 C   0  0  0  0  0  0  0  0  0  0  0  0
    8.5775   -9.0775  -19.8071 N   0  0  0  0  0  0  0  0  0  0  0  0
    7.5115   -8.2612  -19.7683 C   0  0  0  0  0  0  0  0  0  0  0  0
    7.0777   -7.3413  -18.8260 C   0  0  0  0  0  0  0  0  0  0  0  0
    7.7706   -7.1459  -17.7119 N   0  0  0  0  0  0  0  0  0  0  0  0
    5.9199   -6.6276  -19.0647 N   0  0  0  0  0  0  0  0  0  0  0  0
    5.1896   -6.8150  -20.2315 C   0  0  0  0  0  0  0  0  0  0  0  0
    5.6401   -7.7308  -21.1604 N   0  0  0  0  0  0  0  0  0  0  0  0
    6.7779   -8.4509  -20.9368 C   0  0  0  0  0  0  0  0  0  0  0  0
  2  3  1  1  0  0  0
  2  6  1  0  0  0  0
  2  1  1  0  0  0  0
  4  3  2  0  0  0  0
  5  3  1  0  0  0  0
  6  7  2  0  0  0  0
  8  7  1  1  0  0  0
  8  9  1  0  0  0  0
  8 10  1  0  0  0  0
 11 10  1  1  0  0  0
 11 13  1  0  0  0  0
 12 11  1  0  0  0  0
 12 17  1  0  0  0  0
 13 14  1  6  0  0  0
 13 15  1  0  0  0  0
 15 16  1  6  0  0  0
 17 18  1  1  0  0  0
 17 15  1  0  0  0  0
 18 19  1  0  0  0  0
 20 19  2  0  0  0  0
 21 27  2  0  0  0  0
 21 20  1  0  0  0  0
 22 21  1  0  0  0  0
 23 22  1  0  0  0  0
 24 22  2  0  0  0  0
 24 25  1  0  0  0  0
 25 26  2  0  0  0  0
 26 27  1  0  0  0  0
 27 18  1  0  0  0  0
M  END
>  <CHROM.1>
78.68670594,-124.87523944,155.15725642,172.27318201,73.91418847,164.78640962
4.23752719,-9.81545148,-22.29088585,2.76708088,-0.00665583,-2.21108499

>  <Name>
lig.pdb

>  <RI>
0

>  <Rbt.Current_Directory>
/home/itssahil/PROJECTS/Mol_Feturizer/New_Systems/rnas/4b5r

>  <Rbt.Executable>
rbdock ($Id: //depot/dev/client3/rdock/2013.1/src/exe/rbdock.cxx#4 $)

>  <Rbt.Library>
libRbt.so (2013.1, Build901 2013/11/27)

>  <Rbt.Parameter_File>
/export/apps/rDock/src/rDock_2013.1_src/data/scripts/dock_solv.prm

>  <Rbt.Receptor>
prm/blind_docking_60.prm

>  <SCORE>
-12.2541

>  <SCORE.INTER>
-12.2766

>  <SCORE.INTER.CONST>
1

>  <SCORE.INTER.POLAR>
0

>  <SCORE.INTER.ROT>
6

>  <SCORE.INTER.SOLV>
13.1853

>  <SCORE.INTER.VDW>
-20.1795

>  <SCORE.INTER.norm>
-0.454691

>  <SCORE.INTRA>
0.0225522

>  <SCORE.INTRA.DIHEDRAL>
-2.69279

>  <SCORE.INTRA.DIHEDRAL.0>
10.2917

>  <SCORE.INTRA.POLAR>
0

>  <SCORE.INTRA.POLAR.0>
0

>  <SCORE.INTRA.REPUL>
0.228622

>  <SCORE.INTRA.REPUL.0>
0

>  <SCORE.INTRA.SOLV>
-3.21654

>  <SCORE.INTRA.SOLV.lig_0>
-39.6315

>  <SCORE.INTRA.VDW>
1.8341

>  <SCORE.INTRA.VDW.0>
-4.02152

>  <SCORE.INTRA.norm>
0.000835266

>  <SCORE.RESTR>
0

>  <SCORE.RESTR.CAVITY>
0

>  <SCORE.RESTR.norm>
0

>  <SCORE.SYSTEM>
0

>  <SCORE.SYSTEM.CONST>
0

>  <SCORE.SYSTEM.DIHEDRAL>
0

>  <SCORE.SYSTEM.SOLV>
0

>  <SCORE.SYSTEM.norm>
0

>  <SCORE.heavy>
27

>  <SCORE.norm>
-0.453855

>  <RMSD>
15.272

$$$$
lig.pdb
 OpenBabel11021811493D
libRbt.so/2013.1/901 2013/11/27
 27 29  0  0  0  0  0  0  0  0999 V2000
    6.7512   -7.5313  -17.7838 N   0  0  0  0  0  0  0  0  0  0  0  0
    7.4823   -6.3183  -18.2613 C   0  0  2  0  0  0  0  0  0  0  0  0
    7.9292   -5.4974  -17.0552 C   0  0  0  0  0  0  0  0  0  0  0  0
    7.1942   -5.4088  -16.0786 O   0  0  0  0  0  0  0  0  0  0  0  0
    9.0132   -4.9015  -17.0141 O   0  0  0  0  0  0  0  0  0  0  0  0
    6.6802   -5.4672  -19.2664 C   0  0  0  0  0  0  0  0  0  0  0  0
    5.5098   -6.1726  -20.0006 C   0  0  0  0  0  0  0  0  0  0  0  0
    4.5134   -5.2132  -21.2213 S   0  0  2  0  0  0  0  0  0  0  0  0
    3.2957   -4.4229  -20.1480 C   0  0  0  0  0  0  0  0  0  0  0  0
    3.4690   -6.4667  -21.9957 C   0  0  0  0  0  0  0  0  0  0  0  0
    4.2543   -7.1894  -23.0822 C   0  0  1  0  0  0  0  0  0  0  0  0
    5.5146   -7.6573  -22.6260 O   0  0  0  0  0  0  0  0  0  0  0  0
    3.5675   -8.4322  -23.5813 C   0  0  1  0  0  0  0  0  0  0  0  0
    2.5497   -8.0929  -24.4784 O   0  0  0  0  0  0  0  0  0  0  0  0
    4.7271   -9.1452  -24.2412 C   0  0  1  0  0  0  0  0  0  0  0  0
    4.9376   -8.6331  -25.5413 O   0  0  0  0  0  0  0  0  0  0  0  0
    5.9264   -8.7908  -23.3692 C   0  0  2  0  0  0  0  0  0  0  0  0
    6.4068   -9.8855  -22.4820 N   0  0  0  0  0  0  0  0  0  0  0  0
    7.4510   -9.7885  -21.5969 C   0  0  0  0  0  0  0  0  0  0  0  0
    7.6051  -10.9714  -20.9610 N   0  0  0  0  0  0  0  0  0  0  0  0
    6.6739  -11.8273  -21.4131 C   0  0  0  0  0  0  0  0  0  0  0  0
    6.3875  -13.1454  -21.0920 C   0  0  0  0  0  0  0  0  0  0  0  0
    7.1039  -13.7827  -20.1754 N   0  0  0  0  0  0  0  0  0  0  0  0
    5.3442  -13.7834  -21.7334 N   0  0  0  0  0  0  0  0  0  0  0  0
    4.5795  -13.1252  -22.6883 C   0  0  0  0  0  0  0  0  0  0  0  0
    4.8759  -11.8117  -22.9905 N   0  0  0  0  0  0  0  0  0  0  0  0
    5.9089  -11.1684  -22.3723 C   0  0  0  0  0  0  0  0  0  0  0  0
  2  3  1  1  0  0  0
  2  6  1  0  0  0  0
  2  1  1  0  0  0  0
  4  3  2  0  0  0  0
  5  3  1  0  0  0  0
  6  7  2  0  0  0  0
  8  7  1  1  0  0  0
  8  9  1  0  0  0  0
  8 10  1  0  0  0  0
 11 10  1  1  0  0  0
 11 13  1  0  0  0  0
 12 11  1  0  0  0  0
 12 17  1  0  0  0  0
 13 14  1  6  0  0  0
 13 15  1  0  0  0  0
 15 16  1  6  0  0  0
 17 18  1  1  0  0  0
 17 15  1  0  0  0  0
 18 19  1  0  0  0  0
 20 19  2  0  0  0  0
 21 27  2  0  0  0  0
 21 20  1  0  0  0  0
 22 21  1  0  0  0  0
 23 22  1  0  0  0  0
 24 22  2  0  0  0  0
 24 25  1  0  0  0  0
 25 26  2  0  0  0  0
 26 27  1  0  0  0  0
 27 18  1  0  0  0  0
M  END
>  <CHROM.1>
-37.66371520,-20.17029523,-85.47555548,-81.68140739,50.55420789,-59.28246472
5.68704907,-8.44757009,-21.22868822,-1.29498185,0.94177201,-2.74498689

>  <Name>
lig.pdb

>  <RI>
0

>  <Rbt.Current_Directory>
/home/itssahil/PROJECTS/Mol_Feturizer/New_Systems/rnas/4b5r

>  <Rbt.Executable>
rbdock ($Id: //depot/dev/client3/rdock/2013.1/src/exe/rbdock.cxx#4 $)

>  <Rbt.Library>
libRbt.so (2013.1, Build901 2013/11/27)

>  <Rbt.Parameter_File>
/export/apps/rDock/src/rDock_2013.1_src/data/scripts/dock_solv.prm

>  <Rbt.Receptor>
prm/blind_docking_60.prm

>  <SCORE>
-10.932

>  <SCORE.INTER>
-10.8124

>  <SCORE.INTER.CONST>
1

>  <SCORE.INTER.POLAR>
0

>  <SCORE.INTER.ROT>
6

>  <SCORE.INTER.SOLV>
10.063

>  <SCORE.INTER.VDW>
-18.1626

>  <SCORE.INTER.norm>
-0.400458

>  <SCORE.INTRA>
-0.119622

>  <SCORE.INTRA.DIHEDRAL>
-1.0479

>  <SCORE.INTRA.DIHEDRAL.0>
10.2917

>  <SCORE.INTRA.POLAR>
0

>  <SCORE.INTRA.POLAR.0>
0

>  <SCORE.INTRA.REPUL>
0

>  <SCORE.INTRA.REPUL.0>
0

>  <SCORE.INTRA.SOLV>
-2.13471

>  <SCORE.INTRA.SOLV.lig_0>
-39.6315

>  <SCORE.INTRA.VDW>
1.47168

>  <SCORE.INTRA.VDW.0>
-4.02152

>  <SCORE.INTRA.norm>
-0.00443045

>  <SCORE.RESTR>
0

>  <SCORE.RESTR.CAVITY>
0

>  <SCORE.RESTR.norm>
0

>  <SCORE.SYSTEM>
0

>  <SCORE.SYSTEM.CONST>
0

>  <SCORE.SYSTEM.DIHEDRAL>
0

>  <SCORE.SYSTEM.SOLV>
0

>  <SCORE.SYSTEM.norm>
0

>  <SCORE.heavy>
27

>  <SCORE.norm>
-0.404889

>  <RMSD>
15.319

$$$$
lig.pdb
 OpenBabel11021811493D
libRbt.so/2013.1/901 2013/11/27
 27 29  0  0  0  0  0  0  0  0999 V2000
   -2.8760  -11.0634  -23.4736 N   0  0  0  0  0  0  0  0  0  0  0  0
   -1.3845  -11.1601  -23.4644 C   0  0  2  0  0  0  0  0  0  0  0  0
   -0.8918  -11.1435  -22.0204 C   0  0  0  0  0  0  0  0  0  0  0  0
   -1.5254  -10.5258  -21.1726 O   0  0  0  0  0  0  0  0  0  0  0  0
    0.1364  -11.7282  -21.6560 O   0  0  0  0  0  0  0  0  0  0  0  0
   -0.6885  -10.0811  -24.3182 C   0  0  0  0  0  0  0  0  0  0  0  0
    0.5216  -10.5406  -25.1733 C   0  0  0  0  0  0  0  0  0  0  0  0
    1.4038   -9.2981  -26.2132 S   0  0  2  0  0  0  0  0  0  0  0  0
    0.8226   -9.7361  -27.8654 C   0  0  0  0  0  0  0  0  0  0  0  0
    3.0896   -9.9398  -26.3031 C   0  0  0  0  0  0  0  0  0  0  0  0
    3.8662   -9.5178  -25.0628 C   0  0  1  0  0  0  0  0  0  0  0  0
    3.5727  -10.3258  -23.9331 O   0  0  0  0  0  0  0  0  0  0  0  0
    5.3567   -9.6517  -25.2242 C   0  0  1  0  0  0  0  0  0  0  0  0
    5.8600   -8.5754  -25.9619 O   0  0  0  0  0  0  0  0  0  0  0  0
    5.7960   -9.6364  -23.7767 C   0  0  1  0  0  0  0  0  0  0  0  0
    5.8776   -8.3063  -23.3065 O   0  0  0  0  0  0  0  0  0  0  0  0
    4.6712  -10.3541  -23.0391 C   0  0  2  0  0  0  0  0  0  0  0  0
    4.9884  -11.7411  -22.6010 N   0  0  0  0  0  0  0  0  0  0  0  0
    4.5388  -12.8869  -23.2078 C   0  0  0  0  0  0  0  0  0  0  0  0
    5.0237  -13.9601  -22.5441 N   0  0  0  0  0  0  0  0  0  0  0  0
    5.7850  -13.5280  -21.5254 C   0  0  0  0  0  0  0  0  0  0  0  0
    6.5124  -14.2020  -20.5562 C   0  0  0  0  0  0  0  0  0  0  0  0
    6.5341  -15.5282  -20.5362 N   0  0  0  0  0  0  0  0  0  0  0  0
    7.2180  -13.4759  -19.6173 N   0  0  0  0  0  0  0  0  0  0  0  0
    7.2120  -12.0868  -19.6323 C   0  0  0  0  0  0  0  0  0  0  0  0
    6.4870  -11.4335  -20.6080 N   0  0  0  0  0  0  0  0  0  0  0  0
    5.7771  -12.1354  -21.5388 C   0  0  0  0  0  0  0  0  0  0  0  0
  2  3  1  1  0  0  0
  2  6  1  0  0  0  0
  2  1  1  0  0  0  0
  4  3  2  0  0  0  0
  5  3  1  0  0  0  0
  6  7  2  0  0  0  0
  8  7  1  1  0  0  0
  8  9  1  0  0  0  0
  8 10  1  0  0  0  0
 11 10  1  6  0  0  0
 11 13  1  0  0  0  0
 12 11  1  0  0  0  0
 12 17  1  0  0  0  0
 13 14  1  6  0  0  0
 13 15  1  0  0  0  0
 15 16  1  1  0  0  0
 17 18  1  6  0  0  0
 17 15  1  0  0  0  0
 18 19  1  0  0  0  0
 20 19  2  0  0  0  0
 21 27  2  0  0  0  0
 21 20  1  0  0  0  0
 22 21  1  0  0  0  0
 23 22  1  0  0  0  0
 24 22  2  0  0  0  0
 24 25  1  0  0  0  0
 25 26  2  0  0  0  0
 26 27  1  0  0  0  0
 27 18  1  0  0  0  0
M  END
>  <CHROM.1>
-30.83678133,-138.59325623,-105.49619870,-83.23949080,79.38333801,15.69631090
3.33626679,-11.06117603,-23.30395703,2.53782181,-0.00592311,-0.92288953

>  <Name>
lig.pdb

>  <RI>
0

>  <Rbt.Current_Directory>
/home/itssahil/PROJECTS/Mol_Feturizer/New_Systems/rnas/4b5r

>  <Rbt.Executable>
rbdock ($Id: //depot/dev/client3/rdock/2013.1/src/exe/rbdock.cxx#4 $)

>  <Rbt.Library>
libRbt.so (2013.1, Build901 2013/11/27)

>  <Rbt.Parameter_File>
/export/apps/rDock/src/rDock_2013.1_src/data/scripts/dock_solv.prm

>  <Rbt.Receptor>
prm/blind_docking_60.prm

>  <SCORE>
-10.4916

>  <SCORE.INTER>
-10.392

>  <SCORE.INTER.CONST>
1

>  <SCORE.INTER.POLAR>
0

>  <SCORE.INTER.ROT>
6

>  <SCORE.INTER.SOLV>
13.8151

>  <SCORE.INTER.VDW>
-19.133

>  <SCORE.INTER.norm>
-0.384888

>  <SCORE.INTRA>
-0.0995884

>  <SCORE.INTRA.DIHEDRAL>
0.51563

>  <SCORE.INTRA.DIHEDRAL.0>
10.2917

>  <SCORE.INTRA.POLAR>
0

>  <SCORE.INTRA.POLAR.0>
0

>  <SCORE.INTRA.REPUL>
0

>  <SCORE.INTRA.REPUL.0>
0

>  <SCORE.INTRA.SOLV>
-3.36011

>  <SCORE.INTRA.SOLV.lig_0>
-39.6315

>  <SCORE.INTRA.VDW>
1.32265

>  <SCORE.INTRA.VDW.0>
-4.02152

>  <SCORE.INTRA.norm>
-0.00368846

>  <SCORE.RESTR>
0

>  <SCORE.RESTR.CAVITY>
0

>  <SCORE.RESTR.norm>
0

>  <SCORE.SYSTEM>
0

>  <SCORE.SYSTEM.CONST>
0

>  <SCORE.SYSTEM.DIHEDRAL>
0

>  <SCORE.SYSTEM.SOLV>
0

>  <SCORE.SYSTEM.norm>
0

>  <SCORE.heavy>
27

>  <SCORE.norm>
-0.388576

>  <RMSD>
15.539

$$$$
lig.pdb
 OpenBabel11021811493D
libRbt.so/2013.1/901 2013/11/27
 27 29  0  0  0  0  0  0  0  0999 V2000
    5.4582   -8.0755  -27.2576 N   0  0  0  0  0  0  0  0  0  0  0  0
    4.0188   -8.3327  -27.5677 C   0  0  2  0  0  0  0  0  0  0  0  0
    3.4411   -7.1233  -28.2970 C   0  0  0  0  0  0  0  0  0  0  0  0
    2.8683   -7.2807  -29.3688 O   0  0  0  0  0  0  0  0  0  0  0  0
    3.5277   -5.9701  -27.8560 O   0  0  0  0  0  0  0  0  0  0  0  0
    3.1770   -8.7109  -26.3322 C   0  0  0  0  0  0  0  0  0  0  0  0
    3.8543   -8.5396  -24.9471 C   0  0  0  0  0  0  0  0  0  0  0  0
    2.9047   -8.9802  -23.4280 S   0  0  2  0  0  0  0  0  0  0  0  0
    3.7036   -7.9362  -22.1906 C   0  0  0  0  0  0  0  0  0  0  0  0
    3.5821  -10.5862  -22.9548 C   0  0  0  0  0  0  0  0  0  0  0  0
    5.0446  -10.6694  -23.3716 C   0  0  1  0  0  0  0  0  0  0  0  0
    5.8814   -9.8196  -22.6016 O   0  0  0  0  0  0  0  0  0  0  0  0
    5.6395  -12.0376  -23.1728 C   0  0  1  0  0  0  0  0  0  0  0  0
    5.2475  -12.8889  -24.2108 O   0  0  0  0  0  0  0  0  0  0  0  0
    7.1152  -11.7065  -23.2018 C   0  0  1  0  0  0  0  0  0  0  0  0
    7.5661  -11.6078  -24.5374 O   0  0  0  0  0  0  0  0  0  0  0  0
    7.2009  -10.3320  -22.5476 C   0  0  2  0  0  0  0  0  0  0  0  0
    7.7368  -10.3267  -21.1587 N   0  0  0  0  0  0  0  0  0  0  0  0
    8.4017   -9.2811  -20.5691 C   0  0  0  0  0  0  0  0  0  0  0  0
    8.7412   -9.6262  -19.3070 N   0  0  0  0  0  0  0  0  0  0  0  0
    8.2998  -10.8721  -19.0682 C   0  0  0  0  0  0  0  0  0  0  0  0
    8.3724  -11.6863  -17.9482 C   0  0  0  0  0  0  0  0  0  0  0  0
    8.9671  -11.2550  -16.8437 N   0  0  0  0  0  0  0  0  0  0  0  0
    7.8129  -12.9479  -17.9953 N   0  0  0  0  0  0  0  0  0  0  0  0
    7.1787  -13.4088  -19.1420 C   0  0  0  0  0  0  0  0  0  0  0  0
    7.1112  -12.5820  -20.2450 N   0  0  0  0  0  0  0  0  0  0  0  0
    7.6661  -11.3352  -20.2186 C   0  0  0  0  0  0  0  0  0  0  0  0
  2  3  1  1  0  0  0
  2  6  1  0  0  0  0
  2  1  1  0  0  0  0
  4  3  2  0  0  0  0
  5  3  1  0  0  0  0
  6  7  2  0  0  0  0
  8  7  1  6  0  0  0
  8  9  1  0  0  0  0
  8 10  1  0  0  0  0
 11 10  1  1  0  0  0
 11 13  1  0  0  0  0
 12 11  1  0  0  0  0
 12 17  1  0  0  0  0
 13 14  1  6  0  0  0
 13 15  1  0  0  0  0
 15 16  1  6  0  0  0
 17 18  1  1  0  0  0
 17 15  1  0  0  0  0
 18 19  1  0  0  0  0
 20 19  2  0  0  0  0
 21 27  2  0  0  0  0
 21 20  1  0  0  0  0
 22 21  1  0  0  0  0
 23 22  1  0  0  0  0
 24 22  2  0  0  0  0
 24 25  1  0  0  0  0
 25 26  2  0  0  0  0
 26 27  1  0  0  0  0
 27 18  1  0  0  0  0
M  END
>  <CHROM.1>
126.78536905,10.01691369,-154.32265269,30.83285061,69.88799378,-88.37825611
5.75915690,-10.06277497,-22.94304764,-2.86610048,-1.08256234,0.75310929

>  <Name>
lig.pdb

>  <RI>
0

>  <Rbt.Current_Directory>
/home/itssahil/PROJECTS/Mol_Feturizer/New_Systems/rnas/4b5r

>  <Rbt.Executable>
rbdock ($Id: //depot/dev/client3/rdock/2013.1/src/exe/rbdock.cxx#4 $)

>  <Rbt.Library>
libRbt.so (2013.1, Build901 2013/11/27)

>  <Rbt.Parameter_File>
/export/apps/rDock/src/rDock_2013.1_src/data/scripts/dock_solv.prm

>  <Rbt.Receptor>
prm/blind_docking_80.prm

>  <SCORE>
-10.0665

>  <SCORE.INTER>
-10.8892

>  <SCORE.INTER.CONST>
1

>  <SCORE.INTER.POLAR>
0

>  <SCORE.INTER.ROT>
6

>  <SCORE.INTER.SOLV>
15.8302

>  <SCORE.INTER.VDW>
-20.1362

>  <SCORE.INTER.norm>
-0.403302

>  <SCORE.INTRA>
0.822656

>  <SCORE.INTRA.DIHEDRAL>
-0.244099

>  <SCORE.INTRA.DIHEDRAL.0>
10.2917

>  <SCORE.INTRA.POLAR>
0

>  <SCORE.INTRA.POLAR.0>
0

>  <SCORE.INTRA.REPUL>
0

>  <SCORE.INTRA.REPUL.0>
0

>  <SCORE.INTRA.SOLV>
-2.28479

>  <SCORE.INTRA.SOLV.lig_0>
-39.6315

>  <SCORE.INTRA.VDW>
2.0871

>  <SCORE.INTRA.VDW.0>
-4.02152

>  <SCORE.INTRA.norm>
0.0304688

>  <SCORE.RESTR>
0

>  <SCORE.RESTR.CAVITY>
0

>  <SCORE.RESTR.norm>
0

>  <SCORE.SYSTEM>
0

>  <SCORE.SYSTEM.CONST>
0

>  <SCORE.SYSTEM.DIHEDRAL>
0

>  <SCORE.SYSTEM.SOLV>
0

>  <SCORE.SYSTEM.norm>
0

>  <SCORE.heavy>
27

>  <SCORE.norm>
-0.372833

>  <RMSD>
15.654

$$$$
lig.pdb
 OpenBabel11021811493D
libRbt.so/2013.1/901 2013/11/27
 27 29  0  0  0  0  0  0  0  0999 V2000
   -8.3228  -13.6236  -10.1015 N   0  0  0  0  0  0  0  0  0  0  0  0
   -9.7182  -14.1059  -10.3342 C   0  0  2  0  0  0  0  0  0  0  0  0
   -9.7144  -15.6300  -10.4060 C   0  0  0  0  0  0  0  0  0  0  0  0
  -10.5942  -16.2642   -9.8354 O   0  0  0  0  0  0  0  0  0  0  0  0
   -8.8497  -16.2702  -11.0177 O   0  0  0  0  0  0  0  0  0  0  0  0
  -10.3930  -13.4771  -11.5700 C   0  0  0  0  0  0  0  0  0  0  0  0
  -10.7895  -14.4440  -12.7164 C   0  0  0  0  0  0  0  0  0  0  0  0
  -11.5950  -13.7560  -14.2268 S   0  0  2  0  0  0  0  0  0  0  0  0
  -11.7102  -15.2237  -15.2718 C   0  0  0  0  0  0  0  0  0  0  0  0
  -10.2517  -12.8888  -15.0667 C   0  0  0  0  0  0  0  0  0  0  0  0
   -9.9059  -11.6167  -14.3039 C   0  0  1  0  0  0  0  0  0  0  0  0
   -8.8298  -10.9020  -14.8926 O   0  0  0  0  0  0  0  0  0  0  0  0
  -11.0312  -10.6176  -14.2787 C   0  0  1  0  0  0  0  0  0  0  0  0
  -11.9825  -10.9872  -13.3225 O   0  0  0  0  0  0  0  0  0  0  0  0
  -10.2777   -9.3586  -13.9106 C   0  0  1  0  0  0  0  0  0  0  0  0
  -10.0782   -9.3015  -12.5128 O   0  0  0  0  0  0  0  0  0  0  0  0
   -8.9261   -9.5200  -14.5974 C   0  0  2  0  0  0  0  0  0  0  0  0
   -8.7323   -8.6829  -15.8132 N   0  0  0  0  0  0  0  0  0  0  0  0
   -9.7374   -8.2098  -16.6188 C   0  0  0  0  0  0  0  0  0  0  0  0
   -9.1964   -7.4883  -17.6259 N   0  0  0  0  0  0  0  0  0  0  0  0
   -7.8612   -7.4797  -17.4800 C   0  0  0  0  0  0  0  0  0  0  0  0
   -6.8481   -6.8889  -18.2196 C   0  0  0  0  0  0  0  0  0  0  0  0
   -7.1365   -6.1696  -19.2962 N   0  0  0  0  0  0  0  0  0  0  0  0
   -5.5372   -7.0534  -17.8180 N   0  0  0  0  0  0  0  0  0  0  0  0
   -5.2214   -7.7959  -16.6872 C   0  0  0  0  0  0  0  0  0  0  0  0
   -6.2435   -8.3716  -15.9604 N   0  0  0  0  0  0  0  0  0  0  0  0
   -7.5443   -8.2261  -16.3477 C   0  0  0  0  0  0  0  0  0  0  0  0
  2  3  1  6  0  0  0
  2  6  1  0  0  0  0
  2  1  1  0  0  0  0
  4  3  2  0  0  0  0
  5  3  1  0  0  0  0
  6  7  2  0  0  0  0
  8  7  1  1  0  0  0
  8  9  1  0  0  0  0
  8 10  1  0  0  0  0
 11 10  1  6  0  0  0
 11 13  1  0  0  0  0
 12 11  1  0  0  0  0
 12 17  1  0  0  0  0
 13 14  1  1  0  0  0
 13 15  1  0  0  0  0
 15 16  1  1  0  0  0
 17 18  1  6  0  0  0
 17 15  1  0  0  0  0
 18 19  1  0  0  0  0
 20 19  2  0  0  0  0
 21 27  2  0  0  0  0
 21 20  1  0  0  0  0
 22 21  1  0  0  0  0
 23 22  1  0  0  0  0
 24 22  2  0  0  0  0
 24 25  1  0  0  0  0
 25 26  2  0  0  0  0
 26 27  1  0  0  0  0
 27 18  1  0  0  0  0
M  END
>  <CHROM.1>
137.22371018,117.21863426,175.29379477,-72.38784965,178.44350756,93.80153156
-9.30693720,-11.11740631,-14.37929798,-1.91968414,-0.44584143,-0.81524757

>  <Name>
lig.pdb

>  <RI>
0

>  <Rbt.Current_Directory>
/home/itssahil/PROJECTS/Mol_Feturizer/New_Systems/rnas/4b5r

>  <Rbt.Executable>
rbdock ($Id: //depot/dev/client3/rdock/2013.1/src/exe/rbdock.cxx#4 $)

>  <Rbt.Library>
libRbt.so (2013.1, Build901 2013/11/27)

>  <Rbt.Parameter_File>
/export/apps/rDock/src/rDock_2013.1_src/data/scripts/dock_solv.prm

>  <Rbt.Receptor>
prm/blind_docking_100.prm

>  <SCORE>
-8.85251

>  <SCORE.INTER>
-7.96062

>  <SCORE.INTER.CONST>
1

>  <SCORE.INTER.POLAR>
0

>  <SCORE.INTER.ROT>
6

>  <SCORE.INTER.SOLV>
11.0981

>  <SCORE.INTER.VDW>
-16.6064

>  <SCORE.INTER.norm>
-0.294838

>  <SCORE.INTRA>
-0.891895

>  <SCORE.INTRA.DIHEDRAL>
-2.90475

>  <SCORE.INTRA.DIHEDRAL.0>
10.2917

>  <SCORE.INTRA.POLAR>
0

>  <SCORE.INTRA.POLAR.0>
0

>  <SCORE.INTRA.REPUL>
0

>  <SCORE.INTRA.REPUL.0>
0

>  <SCORE.INTRA.SOLV>
-2.85766

>  <SCORE.INTRA.SOLV.lig_0>
-39.6315

>  <SCORE.INTRA.VDW>
1.98931

>  <SCORE.INTRA.VDW.0>
-4.02152

>  <SCORE.INTRA.norm>
-0.0330331

>  <SCORE.RESTR>
0

>  <SCORE.RESTR.CAVITY>
0

>  <SCORE.RESTR.norm>
0

>  <SCORE.SYSTEM>
0

>  <SCORE.SYSTEM.CONST>
0

>  <SCORE.SYSTEM.DIHEDRAL>
0

>  <SCORE.SYSTEM.SOLV>
0

>  <SCORE.SYSTEM.norm>
0

>  <SCORE.heavy>
27

>  <SCORE.norm>
-0.327871

>  <RMSD>
15.807

$$$$
lig.pdb
 OpenBabel11021811493D
libRbt.so/2013.1/901 2013/11/27
 27 29  0  0  0  0  0  0  0  0999 V2000
   -4.1501   -7.4358  -14.8047 N   0  0  0  0  0  0  0  0  0  0  0  0
   -4.2896   -6.0249  -15.2779 C   0  0  2  0  0  0  0  0  0  0  0  0
   -4.6391   -5.1322  -14.0908 C   0  0  0  0  0  0  0  0  0  0  0  0
   -3.7507   -4.5102  -13.5200 O   0  0  0  0  0  0  0  0  0  0  0  0
   -5.7939   -5.0060  -13.6639 O   0  0  0  0  0  0  0  0  0  0  0  0
   -5.2945   -5.8562  -16.4352 C   0  0  0  0  0  0  0  0  0  0  0  0
   -6.1477   -7.0977  -16.8054 C   0  0  0  0  0  0  0  0  0  0  0  0
   -7.3650   -6.9658  -18.1854 S   0  0  2  0  0  0  0  0  0  0  0  0
   -8.6329   -8.1380  -17.6582 C   0  0  0  0  0  0  0  0  0  0  0  0
   -6.6029   -7.9195  -19.5164 C   0  0  0  0  0  0  0  0  0  0  0  0
   -5.6194   -7.0415  -20.2788 C   0  0  1  0  0  0  0  0  0  0  0  0
   -4.6802   -6.4048  -19.4257 O   0  0  0  0  0  0  0  0  0  0  0  0
   -4.7625   -7.8143  -21.2452 C   0  0  1  0  0  0  0  0  0  0  0  0
   -5.4840   -8.0967  -22.4096 O   0  0  0  0  0  0  0  0  0  0  0  0
   -3.6367   -6.8289  -21.4688 C   0  0  1  0  0  0  0  0  0  0  0  0
   -4.0143   -5.8688  -22.4345 O   0  0  0  0  0  0  0  0  0  0  0  0
   -3.4748   -6.1370  -20.1198 C   0  0  2  0  0  0  0  0  0  0  0  0
   -2.2824   -6.5577  -19.3342 N   0  0  0  0  0  0  0  0  0  0  0  0
   -2.1360   -6.4153  -17.9772 C   0  0  0  0  0  0  0  0  0  0  0  0
   -0.9321   -6.9059  -17.6068 N   0  0  0  0  0  0  0  0  0  0  0  0
   -0.3024   -7.3703  -18.6985 C   0  0  0  0  0  0  0  0  0  0  0  0
    0.9334   -7.9743  -18.8736 C   0  0  0  0  0  0  0  0  0  0  0  0
    1.7292   -8.1858  -17.8336 N   0  0  0  0  0  0  0  0  0  0  0  0
    1.3218   -8.3579  -20.1419 N   0  0  0  0  0  0  0  0  0  0  0  0
    0.4946   -8.1513  -21.2386 C   0  0  0  0  0  0  0  0  0  0  0  0
   -0.7342   -7.5540  -21.0440 N   0  0  0  0  0  0  0  0  0  0  0  0
   -1.1306   -7.1609  -19.7984 C   0  0  0  0  0  0  0  0  0  0  0  0
  2  3  1  1  0  0  0
  2  6  1  0  0  0  0
  2  1  1  0  0  0  0
  4  3  2  0  0  0  0
  5  3  1  0  0  0  0
  6  7  2  0  0  0  0
  8  7  1  1  0  0  0
  8  9  1  0  0  0  0
  8 10  1  0  0  0  0
 11 10  1  1  0  0  0
 11 13  1  0  0  0  0
 12 11  1  0  0  0  0
 12 17  1  0  0  0  0
 13 14  1  6  0  0  0
 13 15  1  0  0  0  0
 15 16  1  6  0  0  0
 17 18  1  1  0  0  0
 17 15  1  0  0  0  0
 18 19  1  0  0  0  0
 20 19  2  0  0  0  0
 21 27  2  0  0  0  0
 21 20  1  0  0  0  0
 22 21  1  0  0  0  0
 23 22  1  0  0  0  0
 24 22  2  0  0  0  0
 24 25  1  0  0  0  0
 25 26  2  0  0  0  0
 26 27  1  0  0  0  0
 27 18  1  0  0  0  0
M  END
>  <CHROM.1>
97.16872460,8.23771592,-149.65676520,-84.37948250,52.39333105,-39.17572497
-3.64892347,-6.90642250,-18.49381654,-2.49177646,0.05463473,-1.80833877

>  <Name>
lig.pdb

>  <RI>
0

>  <Rbt.Current_Directory>
/home/itssahil/PROJECTS/Mol_Feturizer/New_Systems/rnas/4b5r

>  <Rbt.Executable>
rbdock ($Id: //depot/dev/client3/rdock/2013.1/src/exe/rbdock.cxx#4 $)

>  <Rbt.Library>
libRbt.so (2013.1, Build901 2013/11/27)

>  <Rbt.Parameter_File>
/export/apps/rDock/src/rDock_2013.1_src/data/scripts/dock_solv.prm

>  <Rbt.Receptor>
prm/blind_docking_100.prm

>  <SCORE>
-9.27055

>  <SCORE.INTER>
-8.77495

>  <SCORE.INTER.CONST>
1

>  <SCORE.INTER.POLAR>
0

>  <SCORE.INTER.ROT>
6

>  <SCORE.INTER.SOLV>
15.7425

>  <SCORE.INTER.VDW>
-18.6975

>  <SCORE.INTER.norm>
-0.324998

>  <SCORE.INTRA>
-0.495599

>  <SCORE.INTRA.DIHEDRAL>
-0.862947

>  <SCORE.INTRA.DIHEDRAL.0>
10.2917

>  <SCORE.INTRA.POLAR>
0

>  <SCORE.INTRA.POLAR.0>
0

>  <SCORE.INTRA.REPUL>
0

>  <SCORE.INTRA.REPUL.0>
0

>  <SCORE.INTRA.SOLV>
-1.75991

>  <SCORE.INTRA.SOLV.lig_0>
-39.6315

>  <SCORE.INTRA.VDW>
0.815827

>  <SCORE.INTRA.VDW.0>
-4.02152

>  <SCORE.INTRA.norm>
-0.0183555

>  <SCORE.RESTR>
0

>  <SCORE.RESTR.CAVITY>
0

>  <SCORE.RESTR.norm>
0

>  <SCORE.SYSTEM>
0

>  <SCORE.SYSTEM.CONST>
0

>  <SCORE.SYSTEM.DIHEDRAL>
0

>  <SCORE.SYSTEM.SOLV>
0

>  <SCORE.SYSTEM.norm>
0

>  <SCORE.heavy>
27

>  <SCORE.norm>
-0.343354

>  <RMSD>
15.812

$$$$
lig.pdb
 OpenBabel11021811493D
libRbt.so/2013.1/901 2013/11/27
 27 29  0  0  0  0  0  0  0  0999 V2000
   -6.6050   -8.3733  -17.5749 N   0  0  0  0  0  0  0  0  0  0  0  0
   -6.0448   -7.1214  -18.1690 C   0  0  2  0  0  0  0  0  0  0  0  0
   -7.0792   -6.5077  -19.1078 C   0  0  0  0  0  0  0  0  0  0  0  0
   -7.3254   -7.0546  -20.1765 O   0  0  0  0  0  0  0  0  0  0  0  0
   -7.6895   -5.4641  -18.8428 O   0  0  0  0  0  0  0  0  0  0  0  0
   -4.6855   -7.3223  -18.8690 C   0  0  0  0  0  0  0  0  0  0  0  0
   -3.9636   -8.6721  -18.6174 C   0  0  0  0  0  0  0  0  0  0  0  0
   -2.3301   -8.9745  -19.4198 S   0  0  2  0  0  0  0  0  0  0  0  0
   -1.5198   -7.3767  -19.1963 C   0  0  0  0  0  0  0  0  0  0  0  0
   -2.7009   -8.8838  -21.1850 C   0  0  0  0  0  0  0  0  0  0  0  0
   -1.4134   -9.0182  -21.9875 C   0  0  1  0  0  0  0  0  0  0  0  0
   -0.6014   -7.8559  -21.9163 O   0  0  0  0  0  0  0  0  0  0  0  0
   -0.5153  -10.1167  -21.4855 C   0  0  1  0  0  0  0  0  0  0  0  0
   -0.9775  -11.3588  -21.9320 O   0  0  0  0  0  0  0  0  0  0  0  0
    0.7992   -9.7112  -22.1148 C   0  0  1  0  0  0  0  0  0  0  0  0
    0.8558  -10.1568  -23.4546 O   0  0  0  0  0  0  0  0  0  0  0  0
    0.7635   -8.1870  -22.1011 C   0  0  2  0  0  0  0  0  0  0  0  0
    1.6292   -7.5449  -21.0743 N   0  0  0  0  0  0  0  0  0  0  0  0
    1.7953   -7.9891  -19.7867 C   0  0  0  0  0  0  0  0  0  0  0  0
    2.6501   -7.1654  -19.1398 N   0  0  0  0  0  0  0  0  0  0  0  0
    3.0455   -6.2028  -19.9890 C   0  0  0  0  0  0  0  0  0  0  0  0
    3.9106   -5.1294  -19.8412 C   0  0  0  0  0  0  0  0  0  0  0  0
    4.5225   -4.9164  -18.6837 N   0  0  0  0  0  0  0  0  0  0  0  0
    4.1315   -4.2896  -20.9149 N   0  0  0  0  0  0  0  0  0  0  0  0
    3.5050   -4.5063  -22.1357 C   0  0  0  0  0  0  0  0  0  0  0  0
    2.6518   -5.5832  -22.2656 N   0  0  0  0  0  0  0  0  0  0  0  0
    2.4155   -6.4185  -21.2122 C   0  0  0  0  0  0  0  0  0  0  0  0
  2  3  1  6  0  0  0
  2  6  1  0  0  0  0
  2  1  1  0  0  0  0
  4  3  2  0  0  0  0
  5  3  1  0  0  0  0
  6  7  2  0  0  0  0
  8  7  1  1  0  0  0
  8  9  1  0  0  0  0
  8 10  1  0  0  0  0
 11 10  1  1  0  0  0
 11 13  1  0  0  0  0
 12 11  1  0  0  0  0
 12 17  1  0  0  0  0
 13 14  1  6  0  0  0
 13 15  1  0  0  0  0
 15 16  1  6  0  0  0
 17 18  1  1  0  0  0
 17 15  1  0  0  0  0
 18 19  1  0  0  0  0
 20 19  2  0  0  0  0
 21 27  2  0  0  0  0
 21 20  1  0  0  0  0
 22 21  1  0  0  0  0
 23 22  1  0  0  0  0
 24 22  2  0  0  0  0
 24 25  1  0  0  0  0
 25 26  2  0  0  0  0
 26 27  1  0  0  0  0
 27 18  1  0  0  0  0
M  END
>  <CHROM.1>
-71.26548887,-12.13382053,42.00565552,175.99155147,-72.93264709,79.07683629
-0.92470841,-7.58518121,-20.39091740,3.13234459,-0.23978216,-2.62007761

>  <Name>
lig.pdb

>  <RI>
0

>  <Rbt.Current_Directory>
/home/itssahil/PROJECTS/Mol_Feturizer/New_Systems/rnas/4b5r

>  <Rbt.Executable>
rbdock ($Id: //depot/dev/client3/rdock/2013.1/src/exe/rbdock.cxx#4 $)

>  <Rbt.Library>
libRbt.so (2013.1, Build901 2013/11/27)

>  <Rbt.Parameter_File>
/export/apps/rDock/src/rDock_2013.1_src/data/scripts/dock_solv.prm

>  <Rbt.Receptor>
prm/blind_docking_60.prm

>  <SCORE>
-9.20737

>  <SCORE.INTER>
-10.3675

>  <SCORE.INTER.CONST>
1

>  <SCORE.INTER.POLAR>
0

>  <SCORE.INTER.ROT>
6

>  <SCORE.INTER.SOLV>
13.6824

>  <SCORE.INTER.VDW>
-19.0725

>  <SCORE.INTER.norm>
-0.383982

>  <SCORE.INTRA>
1.16013

>  <SCORE.INTRA.DIHEDRAL>
-0.928023

>  <SCORE.INTRA.DIHEDRAL.0>
10.2917

>  <SCORE.INTRA.POLAR>
0

>  <SCORE.INTRA.POLAR.0>
0

>  <SCORE.INTRA.REPUL>
0

>  <SCORE.INTRA.REPUL.0>
0

>  <SCORE.INTRA.SOLV>
-2.28294

>  <SCORE.INTRA.SOLV.lig_0>
-39.6315

>  <SCORE.INTRA.VDW>
2.76561

>  <SCORE.INTRA.VDW.0>
-4.02152

>  <SCORE.INTRA.norm>
0.0429677

>  <SCORE.RESTR>
0

>  <SCORE.RESTR.CAVITY>
0

>  <SCORE.RESTR.norm>
0

>  <SCORE.SYSTEM>
0

>  <SCORE.SYSTEM.CONST>
0

>  <SCORE.SYSTEM.DIHEDRAL>
0

>  <SCORE.SYSTEM.SOLV>
0

>  <SCORE.SYSTEM.norm>
0

>  <SCORE.heavy>
27

>  <SCORE.norm>
-0.341014

>  <RMSD>
15.816

$$$$
lig.pdb
 OpenBabel11021811493D
libRbt.so/2013.1/901 2013/11/27
 27 29  0  0  0  0  0  0  0  0999 V2000
   13.9181   -4.8045   -8.8109 N   0  0  0  0  0  0  0  0  0  0  0  0
   13.5186   -6.1848   -8.3995 C   0  0  2  0  0  0  0  0  0  0  0  0
   12.4164   -6.0933   -7.3483 C   0  0  0  0  0  0  0  0  0  0  0  0
   11.3303   -6.6182   -7.5642 O   0  0  0  0  0  0  0  0  0  0  0  0
   12.5642   -5.5010   -6.2717 O   0  0  0  0  0  0  0  0  0  0  0  0
   14.6981   -7.0530   -7.9168 C   0  0  0  0  0  0  0  0  0  0  0  0
   14.4822   -7.8589   -6.6089 C   0  0  0  0  0  0  0  0  0  0  0  0
   15.8559   -8.9130   -5.9723 S   0  0  2  0  0  0  0  0  0  0  0  0
   15.1766  -10.5688   -6.2095 C   0  0  0  0  0  0  0  0  0  0  0  0
   15.7011   -8.7744   -4.1782 C   0  0  0  0  0  0  0  0  0  0  0  0
   16.2779   -7.4433   -3.7146 C   0  0  1  0  0  0  0  0  0  0  0  0
   15.7273   -6.3364   -4.4124 O   0  0  0  0  0  0  0  0  0  0  0  0
   15.9826   -7.1416   -2.2699 C   0  0  1  0  0  0  0  0  0  0  0  0
   16.8507   -7.8591   -1.4407 O   0  0  0  0  0  0  0  0  0  0  0  0
   16.2312   -5.6498   -2.2404 C   0  0  1  0  0  0  0  0  0  0  0  0
   17.6133   -5.3888   -2.1040 O   0  0  0  0  0  0  0  0  0  0  0  0
   15.7695   -5.1688   -3.6115 C   0  0  2  0  0  0  0  0  0  0  0  0
   14.4673   -4.4474   -3.6215 N   0  0  0  0  0  0  0  0  0  0  0  0
   13.2750   -4.9567   -3.1721 C   0  0  0  0  0  0  0  0  0  0  0  0
   12.3066   -4.0273   -3.3328 N   0  0  0  0  0  0  0  0  0  0  0  0
   12.8538   -2.9243   -3.8696 C   0  0  0  0  0  0  0  0  0  0  0  0
   12.3158   -1.6962   -4.2228 C   0  0  0  0  0  0  0  0  0  0  0  0
   11.0251   -1.4520   -4.0381 N   0  0  0  0  0  0  0  0  0  0  0  0
   13.1409   -0.7297   -4.7629 N   0  0  0  0  0  0  0  0  0  0  0  0
   14.4962   -0.9683   -4.9529 C   0  0  0  0  0  0  0  0  0  0  0  0
   15.0148   -2.1946   -4.5899 N   0  0  0  0  0  0  0  0  0  0  0  0
   14.2120   -3.1643   -4.0625 C   0  0  0  0  0  0  0  0  0  0  0  0
  2  3  1  1  0  0  0
  2  6  1  0  0  0  0
  2  1  1  0  0  0  0
  4  3  2  0  0  0  0
  5  3  1  0  0  0  0
  6  7  2  0  0  0  0
  8  7  1  6  0  0  0
  8  9  1  0  0  0  0
  8 10  1  0  0  0  0
 11 10  1  6  0  0  0
 11 13  1  0  0  0  0
 12 11  1  0  0  0  0
 12 17  1  0  0  0  0
 13 14  1  1  0  0  0
 13 15  1  0  0  0  0
 15 16  1  6  0  0  0
 17 18  1  1  0  0  0
 17 15  1  0  0  0  0
 18 19  1  0  0  0  0
 20 19  2  0  0  0  0
 21 27  2  0  0  0  0
 21 20  1  0  0  0  0
 22 21  1  0  0  0  0
 23 22  1  0  0  0  0
 24 22  2  0  0  0  0
 24 25  1  0  0  0  0
 25 26  2  0  0  0  0
 26 27  1  0  0  0  0
 27 18  1  0  0  0  0
M  END
>  <CHROM.1>
120.92557596,134.01068327,-112.04377577,-77.91878141,52.83939488,61.63348258
14.44012627,-5.56254363,-4.84941165,2.25412535,-0.88842798,0.64644616

>  <Name>
lig.pdb

>  <RI>
0

>  <Rbt.Current_Directory>
/home/itssahil/PROJECTS/Mol_Feturizer/New_Systems/rnas/4b5r

>  <Rbt.Executable>
rbdock ($Id: //depot/dev/client3/rdock/2013.1/src/exe/rbdock.cxx#4 $)

>  <Rbt.Library>
libRbt.so (2013.1, Build901 2013/11/27)

>  <Rbt.Parameter_File>
/export/apps/rDock/src/rDock_2013.1_src/data/scripts/dock_solv.prm

>  <Rbt.Receptor>
prm/blind_docking_20.prm

>  <SCORE>
-11.8196

>  <SCORE.INTER>
-10.3476

>  <SCORE.INTER.CONST>
1

>  <SCORE.INTER.POLAR>
0

>  <SCORE.INTER.ROT>
6

>  <SCORE.INTER.SOLV>
17.742

>  <SCORE.INTER.VDW>
-20.4124

>  <SCORE.INTER.norm>
-0.383244

>  <SCORE.INTRA>
-1.47203

>  <SCORE.INTRA.DIHEDRAL>
-1.0194

>  <SCORE.INTRA.DIHEDRAL.0>
10.2917

>  <SCORE.INTRA.POLAR>
0

>  <SCORE.INTRA.POLAR.0>
0

>  <SCORE.INTRA.REPUL>
0

>  <SCORE.INTRA.REPUL.0>
0

>  <SCORE.INTRA.SOLV>
-3.76484

>  <SCORE.INTRA.SOLV.lig_0>
-39.6315

>  <SCORE.INTRA.VDW>
0.92009

>  <SCORE.INTRA.VDW.0>
-4.02152

>  <SCORE.INTRA.norm>
-0.0545197

>  <SCORE.RESTR>
0

>  <SCORE.RESTR.CAVITY>
0

>  <SCORE.RESTR.norm>
0

>  <SCORE.SYSTEM>
0

>  <SCORE.SYSTEM.CONST>
0

>  <SCORE.SYSTEM.DIHEDRAL>
0

>  <SCORE.SYSTEM.SOLV>
0

>  <SCORE.SYSTEM.norm>
0

>  <SCORE.heavy>
27

>  <SCORE.norm>
-0.437764

>  <RMSD>
15.946

$$$$
lig.pdb
 OpenBabel11021811493D
libRbt.so/2013.1/901 2013/11/27
 27 29  0  0  0  0  0  0  0  0999 V2000
    3.3158   -8.8802  -22.5273 N   0  0  0  0  0  0  0  0  0  0  0  0
    2.7486   -9.7838  -23.5741 C   0  0  2  0  0  0  0  0  0  0  0  0
    3.1611   -9.2731  -24.9515 C   0  0  0  0  0  0  0  0  0  0  0  0
    2.4800   -9.5565  -25.9301 O   0  0  0  0  0  0  0  0  0  0  0  0
    4.1693   -8.5791  -25.1351 O   0  0  0  0  0  0  0  0  0  0  0  0
    1.2219   -9.9728  -23.4682 C   0  0  0  0  0  0  0  0  0  0  0  0
    0.5246   -9.3434  -22.2337 C   0  0  0  0  0  0  0  0  0  0  0  0
   -1.3000   -9.5381  -22.0425 S   0  0  2  0  0  0  0  0  0  0  0  0
   -1.5138   -9.2019  -20.2816 C   0  0  0  0  0  0  0  0  0  0  0  0
   -1.5381  -11.3284  -22.0420 C   0  0  0  0  0  0  0  0  0  0  0  0
   -3.0261  -11.6483  -22.0967 C   0  0  1  0  0  0  0  0  0  0  0  0
   -3.7491  -11.0709  -21.0200 O   0  0  0  0  0  0  0  0  0  0  0  0
   -3.7048  -11.0984  -23.3224 C   0  0  1  0  0  0  0  0  0  0  0  0
   -3.4416  -11.9156  -24.4264 O   0  0  0  0  0  0  0  0  0  0  0  0
   -5.1516  -11.1421  -22.8830 C   0  0  1  0  0  0  0  0  0  0  0  0
   -5.6774  -12.4408  -23.0666 O   0  0  0  0  0  0  0  0  0  0  0  0
   -5.0962  -10.8369  -21.3903 C   0  0  2  0  0  0  0  0  0  0  0  0
   -5.5417   -9.4685  -21.0091 N   0  0  0  0  0  0  0  0  0  0  0  0
   -5.2485   -8.3184  -21.6978 C   0  0  0  0  0  0  0  0  0  0  0  0
   -5.8158   -7.2662  -21.0665 N   0  0  0  0  0  0  0  0  0  0  0  0
   -6.4771   -7.7172  -19.9879 C   0  0  0  0  0  0  0  0  0  0  0  0
   -7.2274   -7.0695  -19.0183 C   0  0  0  0  0  0  0  0  0  0  0  0
   -7.3924   -5.7542  -19.0664 N   0  0  0  0  0  0  0  0  0  0  0  0
   -7.8049   -7.8111  -18.0068 N   0  0  0  0  0  0  0  0  0  0  0  0
   -7.6484   -9.1902  -17.9494 C   0  0  0  0  0  0  0  0  0  0  0  0
   -6.9031   -9.8181  -18.9265 N   0  0  0  0  0  0  0  0  0  0  0  0
   -6.3181   -9.0995  -19.9289 C   0  0  0  0  0  0  0  0  0  0  0  0
  2  3  1  6  0  0  0
  2  6  1  0  0  0  0
  2  1  1  0  0  0  0
  4  3  2  0  0  0  0
  5  3  1  0  0  0  0
  6  7  2  0  0  0  0
  8  7  1  1  0  0  0
  8  9  1  0  0  0  0
  8 10  1  0  0  0  0
 11 10  1  1  0  0  0
 11 13  1  0  0  0  0
 12 11  1  0  0  0  0
 12 17  1  0  0  0  0
 13 14  1  6  0  0  0
 13 15  1  0  0  0  0
 15 16  1  1  0  0  0
 17 18  1  6  0  0  0
 17 15  1  0  0  0  0
 18 19  1  0  0  0  0
 20 19  2  0  0  0  0
 21 27  2  0  0  0  0
 21 20  1  0  0  0  0
 22 21  1  0  0  0  0
 23 22  1  0  0  0  0
 24 22  2  0  0  0  0
 24 25  1  0  0  0  0
 25 26  2  0  0  0  0
 26 27  1  0  0  0  0
 27 18  1  0  0  0  0
M  END
>  <CHROM.1>
-155.59605619,-6.32795013,160.60152466,-171.69242269,-57.61185772,78.81103437
-2.92195025,-9.56437046,-21.81641775,-0.33505948,0.32947409,0.61064110

>  <Name>
lig.pdb

>  <RI>
0

>  <Rbt.Current_Directory>
/home/itssahil/PROJECTS/Mol_Feturizer/New_Systems/rnas/4b5r

>  <Rbt.Executable>
rbdock ($Id: //depot/dev/client3/rdock/2013.1/src/exe/rbdock.cxx#4 $)

>  <Rbt.Library>
libRbt.so (2013.1, Build901 2013/11/27)

>  <Rbt.Parameter_File>
/export/apps/rDock/src/rDock_2013.1_src/data/scripts/dock_solv.prm

>  <Rbt.Receptor>
prm/blind_docking_100.prm

>  <SCORE>
-11.7654

>  <SCORE.INTER>
-11.3851

>  <SCORE.INTER.CONST>
1

>  <SCORE.INTER.POLAR>
0

>  <SCORE.INTER.ROT>
6

>  <SCORE.INTER.SOLV>
14.1107

>  <SCORE.INTER.VDW>
-19.8937

>  <SCORE.INTER.norm>
-0.421671

>  <SCORE.INTRA>
-0.380309

>  <SCORE.INTRA.DIHEDRAL>
-2.52988

>  <SCORE.INTRA.DIHEDRAL.0>
10.2917

>  <SCORE.INTRA.POLAR>
0

>  <SCORE.INTRA.POLAR.0>
0

>  <SCORE.INTRA.REPUL>
0

>  <SCORE.INTRA.REPUL.0>
0

>  <SCORE.INTRA.SOLV>
-2.41993

>  <SCORE.INTRA.SOLV.lig_0>
-39.6315

>  <SCORE.INTRA.VDW>
2.09459

>  <SCORE.INTRA.VDW.0>
-4.02152

>  <SCORE.INTRA.norm>
-0.0140855

>  <SCORE.RESTR>
0

>  <SCORE.RESTR.CAVITY>
0

>  <SCORE.RESTR.norm>
0

>  <SCORE.SYSTEM>
0

>  <SCORE.SYSTEM.CONST>
0

>  <SCORE.SYSTEM.DIHEDRAL>
0

>  <SCORE.SYSTEM.SOLV>
0

>  <SCORE.SYSTEM.norm>
0

>  <SCORE.heavy>
27

>  <SCORE.norm>
-0.435756

>  <RMSD>
16.006

$$$$
lig.pdb
 OpenBabel11021811493D
libRbt.so/2013.1/901 2013/11/27
 27 29  0  0  0  0  0  0  0  0999 V2000
    1.0882   -9.1019  -27.9763 N   0  0  0  0  0  0  0  0  0  0  0  0
    2.2276   -8.1615  -28.2029 C   0  0  2  0  0  0  0  0  0  0  0  0
    2.4624   -8.0137  -29.7033 C   0  0  0  0  0  0  0  0  0  0  0  0
    2.0068   -8.8524  -30.4719 O   0  0  0  0  0  0  0  0  0  0  0  0
    3.1056   -7.0761  -30.1921 O   0  0  0  0  0  0  0  0  0  0  0  0
    3.5179   -8.5612  -27.4590 C   0  0  0  0  0  0  0  0  0  0  0  0
    4.1389   -7.4964  -26.5171 C   0  0  0  0  0  0  0  0  0  0  0  0
    5.6869   -7.9076  -25.6017 S   0  0  2  0  0  0  0  0  0  0  0  0
    6.7974   -8.3483  -26.9553 C   0  0  0  0  0  0  0  0  0  0  0  0
    5.3587   -9.5514  -24.9295 C   0  0  0  0  0  0  0  0  0  0  0  0
    6.4886   -9.9580  -23.9928 C   0  0  1  0  0  0  0  0  0  0  0  0
    6.5573   -9.1420  -22.8331 O   0  0  0  0  0  0  0  0  0  0  0  0
    6.3306  -11.3508  -23.4447 C   0  0  1  0  0  0  0  0  0  0  0  0
    6.7231  -12.2925  -24.4013 O   0  0  0  0  0  0  0  0  0  0  0  0
    7.2628  -11.2893  -22.2549 C   0  0  1  0  0  0  0  0  0  0  0  0
    8.5960  -11.5086  -22.6689 O   0  0  0  0  0  0  0  0  0  0  0  0
    7.1298   -9.8562  -21.7520 C   0  0  2  0  0  0  0  0  0  0  0  0
    6.3337   -9.6968  -20.5042 N   0  0  0  0  0  0  0  0  0  0  0  0
    6.8012   -9.9120  -19.2322 C   0  0  0  0  0  0  0  0  0  0  0  0
    5.8077   -9.6715  -18.3476 N   0  0  0  0  0  0  0  0  0  0  0  0
    4.7101   -9.2966  -19.0249 C   0  0  0  0  0  0  0  0  0  0  0  0
    3.4389   -8.9317  -18.6082 C   0  0  0  0  0  0  0  0  0  0  0  0
    3.1373   -8.9113  -17.3166 N   0  0  0  0  0  0  0  0  0  0  0  0
    2.4942   -8.5842  -19.5534 N   0  0  0  0  0  0  0  0  0  0  0  0
    2.7991   -8.5917  -20.9087 C   0  0  0  0  0  0  0  0  0  0  0  0
    4.0713   -8.9521  -21.3041 N   0  0  0  0  0  0  0  0  0  0  0  0
    5.0149   -9.3065  -20.3837 C   0  0  0  0  0  0  0  0  0  0  0  0
  2  3  1  6  0  0  0
  2  6  1  0  0  0  0
  2  1  1  0  0  0  0
  4  3  2  0  0  0  0
  5  3  1  0  0  0  0
  6  7  2  0  0  0  0
  8  7  1  6  0  0  0
  8  9  1  0  0  0  0
  8 10  1  0  0  0  0
 11 10  1  6  0  0  0
 11 13  1  0  0  0  0
 12 11  1  0  0  0  0
 12 17  1  0  0  0  0
 13 14  1  6  0  0  0
 13 15  1  0  0  0  0
 15 16  1  6  0  0  0
 17 18  1  1  0  0  0
 17 15  1  0  0  0  0
 18 19  1  0  0  0  0
 20 19  2  0  0  0  0
 21 27  2  0  0  0  0
 21 20  1  0  0  0  0
 22 21  1  0  0  0  0
 23 22  1  0  0  0  0
 24 22  2  0  0  0  0
 24 25  1  0  0  0  0
 25 26  2  0  0  0  0
 26 27  1  0  0  0  0
 27 18  1  0  0  0  0
M  END
>  <CHROM.1>
-18.29659991,-124.58790600,56.55684294,-172.86331541,65.70079586,-159.58404145
4.88845252,-9.22202791,-23.70090530,1.81524232,0.42594120,-1.52029344

>  <Name>
lig.pdb

>  <RI>
0

>  <Rbt.Current_Directory>
/home/itssahil/PROJECTS/Mol_Feturizer/New_Systems/rnas/4b5r

>  <Rbt.Executable>
rbdock ($Id: //depot/dev/client3/rdock/2013.1/src/exe/rbdock.cxx#4 $)

>  <Rbt.Library>
libRbt.so (2013.1, Build901 2013/11/27)

>  <Rbt.Parameter_File>
/export/apps/rDock/src/rDock_2013.1_src/data/scripts/dock_solv.prm

>  <Rbt.Receptor>
prm/blind_docking_80.prm

>  <SCORE>
-14.8192

>  <SCORE.INTER>
-14.2162

>  <SCORE.INTER.CONST>
1

>  <SCORE.INTER.POLAR>
0

>  <SCORE.INTER.ROT>
6

>  <SCORE.INTER.SOLV>
17.5406

>  <SCORE.INTER.VDW>
-22.9243

>  <SCORE.INTER.norm>
-0.526526

>  <SCORE.INTRA>
-0.602944

>  <SCORE.INTRA.DIHEDRAL>
-0.960552

>  <SCORE.INTRA.DIHEDRAL.0>
10.2917

>  <SCORE.INTRA.POLAR>
0

>  <SCORE.INTRA.POLAR.0>
0

>  <SCORE.INTRA.REPUL>
0

>  <SCORE.INTRA.REPUL.0>
0

>  <SCORE.INTRA.SOLV>
-2.79527

>  <SCORE.INTRA.SOLV.lig_0>
-39.6315

>  <SCORE.INTRA.VDW>
1.27497

>  <SCORE.INTRA.VDW.0>
-4.02152

>  <SCORE.INTRA.norm>
-0.0223312

>  <SCORE.RESTR>
0

>  <SCORE.RESTR.CAVITY>
0

>  <SCORE.RESTR.norm>
0

>  <SCORE.SYSTEM>
0

>  <SCORE.SYSTEM.CONST>
0

>  <SCORE.SYSTEM.DIHEDRAL>
0

>  <SCORE.SYSTEM.SOLV>
0

>  <SCORE.SYSTEM.norm>
0

>  <SCORE.heavy>
27

>  <SCORE.norm>
-0.548858

>  <RMSD>
16.036

$$$$
lig.pdb
 OpenBabel11021811493D
libRbt.so/2013.1/901 2013/11/27
 27 29  0  0  0  0  0  0  0  0999 V2000
    1.9075  -10.8897  -29.1045 N   0  0  0  0  0  0  0  0  0  0  0  0
    2.3633  -10.6356  -27.7039 C   0  0  2  0  0  0  0  0  0  0  0  0
    1.2396   -9.9536  -26.9291 C   0  0  0  0  0  0  0  0  0  0  0  0
    0.8816  -10.4152  -25.8518 O   0  0  0  0  0  0  0  0  0  0  0  0
    0.6573   -8.9429  -27.3429 O   0  0  0  0  0  0  0  0  0  0  0  0
    3.6821   -9.8413  -27.6161 C   0  0  0  0  0  0  0  0  0  0  0  0
    3.6541   -8.5315  -26.7853 C   0  0  0  0  0  0  0  0  0  0  0  0
    5.1968   -7.5296  -26.6450 S   0  0  2  0  0  0  0  0  0  0  0  0
    6.3839   -8.5758  -27.5142 C   0  0  0  0  0  0  0  0  0  0  0  0
    5.7321   -7.8104  -24.9431 C   0  0  0  0  0  0  0  0  0  0  0  0
    5.7316   -9.3039  -24.6447 C   0  0  1  0  0  0  0  0  0  0  0  0
    6.9343   -9.7384  -24.0282 O   0  0  0  0  0  0  0  0  0  0  0  0
    4.6593   -9.7121  -23.6705 C   0  0  1  0  0  0  0  0  0  0  0  0
    3.4238   -9.7949  -24.3206 O   0  0  0  0  0  0  0  0  0  0  0  0
    5.1864  -11.0579  -23.2240 C   0  0  1  0  0  0  0  0  0  0  0  0
    4.8361  -12.0542  -24.1629 O   0  0  0  0  0  0  0  0  0  0  0  0
    6.7011  -10.8841  -23.2285 C   0  0  2  0  0  0  0  0  0  0  0  0
    7.3250  -10.7524  -21.8833 N   0  0  0  0  0  0  0  0  0  0  0  0
    7.9412   -9.6248  -21.4018 C   0  0  0  0  0  0  0  0  0  0  0  0
    8.3896   -9.8646  -20.1492 N   0  0  0  0  0  0  0  0  0  0  0  0
    8.0663  -11.1234  -19.8103 C   0  0  0  0  0  0  0  0  0  0  0  0
    8.2776  -11.8592  -18.6542 C   0  0  0  0  0  0  0  0  0  0  0  0
    8.9071  -11.3166  -17.6203 N   0  0  0  0  0  0  0  0  0  0  0  0
    7.8194  -13.1603  -18.5907 N   0  0  0  0  0  0  0  0  0  0  0  0
    7.1502  -13.7380  -19.6622 C   0  0  0  0  0  0  0  0  0  0  0  0
    6.9441  -12.9883  -20.8024 N   0  0  0  0  0  0  0  0  0  0  0  0
    7.3976  -11.7035  -20.8854 C   0  0  0  0  0  0  0  0  0  0  0  0
  2  3  1  1  0  0  0
  2  6  1  0  0  0  0
  2  1  1  0  0  0  0
  4  3  2  0  0  0  0
  5  3  1  0  0  0  0
  6  7  2  0  0  0  0
  8  7  1  1  0  0  0
  8  9  1  0  0  0  0
  8 10  1  0  0  0  0
 11 10  1  1  0  0  0
 11 13  1  0  0  0  0
 12 11  1  0  0  0  0
 12 17  1  0  0  0  0
 13 14  1  6  0  0  0
 13 15  1  0  0  0  0
 15 16  1  6  0  0  0
 17 18  1  1  0  0  0
 17 15  1  0  0  0  0
 18 19  1  0  0  0  0
 20 19  2  0  0  0  0
 21 27  2  0  0  0  0
 21 20  1  0  0  0  0
 22 21  1  0  0  0  0
 23 22  1  0  0  0  0
 24 22  2  0  0  0  0
 24 25  1  0  0  0  0
 25 26  2  0  0  0  0
 26 27  1  0  0  0  0
 27 18  1  0  0  0  0
M  END
>  <CHROM.1>
128.27842934,124.15584405,-4.32871362,49.26309215,131.71139032,6.04717220
5.38440225,-10.27804511,-23.81715765,2.27198327,-0.57140812,-0.83635320

>  <Name>
lig.pdb

>  <RI>
0

>  <Rbt.Current_Directory>
/home/itssahil/PROJECTS/Mol_Feturizer/New_Systems/rnas/4b5r

>  <Rbt.Executable>
rbdock ($Id: //depot/dev/client3/rdock/2013.1/src/exe/rbdock.cxx#4 $)

>  <Rbt.Library>
libRbt.so (2013.1, Build901 2013/11/27)

>  <Rbt.Parameter_File>
/export/apps/rDock/src/rDock_2013.1_src/data/scripts/dock_solv.prm

>  <Rbt.Receptor>
prm/blind_docking_100.prm

>  <SCORE>
-9.50106

>  <SCORE.INTER>
-12.5735

>  <SCORE.INTER.CONST>
1

>  <SCORE.INTER.POLAR>
0

>  <SCORE.INTER.ROT>
6

>  <SCORE.INTER.SOLV>
13.3489

>  <SCORE.INTER.VDW>
-20.4319

>  <SCORE.INTER.norm>
-0.465685

>  <SCORE.INTRA>
3.07243

>  <SCORE.INTRA.DIHEDRAL>
1.88123

>  <SCORE.INTRA.DIHEDRAL.0>
10.2917

>  <SCORE.INTRA.POLAR>
0

>  <SCORE.INTRA.POLAR.0>
0

>  <SCORE.INTRA.REPUL>
0

>  <SCORE.INTRA.REPUL.0>
0

>  <SCORE.INTRA.SOLV>
-2.13709

>  <SCORE.INTRA.SOLV.lig_0>
-39.6315

>  <SCORE.INTRA.VDW>
3.20036

>  <SCORE.INTRA.VDW.0>
-4.02152

>  <SCORE.INTRA.norm>
0.113794

>  <SCORE.RESTR>
0

>  <SCORE.RESTR.CAVITY>
0

>  <SCORE.RESTR.norm>
0

>  <SCORE.SYSTEM>
0

>  <SCORE.SYSTEM.CONST>
0

>  <SCORE.SYSTEM.DIHEDRAL>
0

>  <SCORE.SYSTEM.SOLV>
0

>  <SCORE.SYSTEM.norm>
0

>  <SCORE.heavy>
27

>  <SCORE.norm>
-0.351891

>  <RMSD>
16.085

$$$$
lig.pdb
 OpenBabel11021811493D
libRbt.so/2013.1/901 2013/11/27
 27 29  0  0  0  0  0  0  0  0999 V2000
    0.5992  -10.4339  -28.8292 N   0  0  0  0  0  0  0  0  0  0  0  0
    2.0347  -10.6109  -28.4522 C   0  0  2  0  0  0  0  0  0  0  0  0
    2.2818  -12.0749  -28.1003 C   0  0  0  0  0  0  0  0  0  0  0  0
    2.5344  -12.8766  -28.9920 O   0  0  0  0  0  0  0  0  0  0  0  0
    2.2342  -12.5027  -26.9399 O   0  0  0  0  0  0  0  0  0  0  0  0
    2.5005   -9.6658  -27.3263 C   0  0  0  0  0  0  0  0  0  0  0  0
    3.7734   -8.8237  -27.6037 C   0  0  0  0  0  0  0  0  0  0  0  0
    4.3887   -7.6774  -26.2957 S   0  0  2  0  0  0  0  0  0  0  0  0
    6.1338   -7.5350  -26.7360 C   0  0  0  0  0  0  0  0  0  0  0  0
    4.5277   -8.7331  -24.8370 C   0  0  0  0  0  0  0  0  0  0  0  0
    4.4603   -7.8797  -23.5775 C   0  0  1  0  0  0  0  0  0  0  0  0
    3.1512   -7.3989  -23.3126 O   0  0  0  0  0  0  0  0  0  0  0  0
    4.8255   -8.6374  -22.3292 C   0  0  1  0  0  0  0  0  0  0  0  0
    6.2151   -8.7585  -22.2283 O   0  0  0  0  0  0  0  0  0  0  0  0
    4.2298   -7.7349  -21.2714 C   0  0  1  0  0  0  0  0  0  0  0  0
    5.1123   -6.6682  -20.9880 O   0  0  0  0  0  0  0  0  0  0  0  0
    2.9712   -7.1757  -21.9253 C   0  0  2  0  0  0  0  0  0  0  0  0
    1.6927   -7.7603  -21.4354 N   0  0  0  0  0  0  0  0  0  0  0  0
    1.0518   -7.4057  -20.2750 C   0  0  0  0  0  0  0  0  0  0  0  0
   -0.0772   -8.1387  -20.1498 N   0  0  0  0  0  0  0  0  0  0  0  0
   -0.1812   -8.9535  -21.2125 C   0  0  0  0  0  0  0  0  0  0  0  0
   -1.1374   -9.8886  -21.5780 C   0  0  0  0  0  0  0  0  0  0  0  0
   -2.1959  -10.1010  -20.8073 N   0  0  0  0  0  0  0  0  0  0  0  0
   -0.9770  -10.5906  -22.7563 N   0  0  0  0  0  0  0  0  0  0  0  0
    0.1215  -10.3715  -23.5779 C   0  0  0  0  0  0  0  0  0  0  0  0
    1.0598   -9.4326  -23.2005 N   0  0  0  0  0  0  0  0  0  0  0  0
    0.9214   -8.7357  -22.0350 C   0  0  0  0  0  0  0  0  0  0  0  0
  2  3  1  1  0  0  0
  2  6  1  0  0  0  0
  2  1  1  0  0  0  0
  4  3  2  0  0  0  0
  5  3  1  0  0  0  0
  6  7  2  0  0  0  0
  8  7  1  6  0  0  0
  8  9  1  0  0  0  0
  8 10  1  0  0  0  0
 11 10  1  6  0  0  0
 11 13  1  0  0  0  0
 12 11  1  0  0  0  0
 12 17  1  0  0  0  0
 13 14  1  1  0  0  0
 13 15  1  0  0  0  0
 15 16  1  6  0  0  0
 17 18  1  1  0  0  0
 17 15  1  0  0  0  0
 18 19  1  0  0  0  0
 20 19  2  0  0  0  0
 21 27  2  0  0  0  0
 21 20  1  0  0  0  0
 22 21  1  0  0  0  0
 23 22  1  0  0  0  0
 24 22  2  0  0  0  0
 24 25  1  0  0  0  0
 25 26  2  0  0  0  0
 26 27  1  0  0  0  0
 27 18  1  0  0  0  0
M  END
>  <CHROM.1>
85.14416162,-127.50812413,156.01030724,-156.71806189,73.41831622,-160.45026339
2.47588739,-9.06740168,-24.09678597,1.32910772,-0.45519995,-1.99444776

>  <Name>
lig.pdb

>  <RI>
0

>  <Rbt.Current_Directory>
/home/itssahil/PROJECTS/Mol_Feturizer/New_Systems/rnas/4b5r

>  <Rbt.Executable>
rbdock ($Id: //depot/dev/client3/rdock/2013.1/src/exe/rbdock.cxx#4 $)

>  <Rbt.Library>
libRbt.so (2013.1, Build901 2013/11/27)

>  <Rbt.Parameter_File>
/export/apps/rDock/src/rDock_2013.1_src/data/scripts/dock_solv.prm

>  <Rbt.Receptor>
prm/blind_docking_100.prm

>  <SCORE>
-9.51111

>  <SCORE.INTER>
-8.7536

>  <SCORE.INTER.CONST>
1

>  <SCORE.INTER.POLAR>
0

>  <SCORE.INTER.ROT>
6

>  <SCORE.INTER.SOLV>
9.87564

>  <SCORE.INTER.VDW>
-16.7276

>  <SCORE.INTER.norm>
-0.324207

>  <SCORE.INTRA>
-0.757513

>  <SCORE.INTRA.DIHEDRAL>
-0.384696

>  <SCORE.INTRA.DIHEDRAL.0>
10.2917

>  <SCORE.INTRA.POLAR>
0

>  <SCORE.INTRA.POLAR.0>
0

>  <SCORE.INTRA.REPUL>
0

>  <SCORE.INTRA.REPUL.0>
0

>  <SCORE.INTRA.SOLV>
-2.975

>  <SCORE.INTRA.SOLV.lig_0>
-39.6315

>  <SCORE.INTRA.VDW>
0.922335

>  <SCORE.INTRA.VDW.0>
-4.02152

>  <SCORE.INTRA.norm>
-0.028056

>  <SCORE.RESTR>
0

>  <SCORE.RESTR.CAVITY>
0

>  <SCORE.RESTR.norm>
0

>  <SCORE.SYSTEM>
0

>  <SCORE.SYSTEM.CONST>
0

>  <SCORE.SYSTEM.DIHEDRAL>
0

>  <SCORE.SYSTEM.SOLV>
0

>  <SCORE.SYSTEM.norm>
0

>  <SCORE.heavy>
27

>  <SCORE.norm>
-0.352263

>  <RMSD>
16.114

$$$$
lig.pdb
 OpenBabel11021811493D
libRbt.so/2013.1/901 2013/11/27
 27 29  0  0  0  0  0  0  0  0999 V2000
   16.0726  -10.2819   -4.9533 N   0  0  0  0  0  0  0  0  0  0  0  0
   16.0381   -8.8388   -5.3410 C   0  0  2  0  0  0  0  0  0  0  0  0
   16.1919   -7.9813   -4.0884 C   0  0  0  0  0  0  0  0  0  0  0  0
   16.9148   -8.3668   -3.1770 O   0  0  0  0  0  0  0  0  0  0  0  0
   15.6094   -6.8993   -3.9409 O   0  0  0  0  0  0  0  0  0  0  0  0
   14.7876   -8.4453   -6.1530 C   0  0  0  0  0  0  0  0  0  0  0  0
   14.9764   -7.3565   -7.2418 C   0  0  0  0  0  0  0  0  0  0  0  0
   13.5189   -6.8345   -8.2452 S   0  0  2  0  0  0  0  0  0  0  0  0
   14.0058   -5.1694   -8.7451 C   0  0  0  0  0  0  0  0  0  0  0  0
   12.2723   -6.4275   -7.0034 C   0  0  0  0  0  0  0  0  0  0  0  0
   12.9551   -5.9642   -5.7233 C   0  0  1  0  0  0  0  0  0  0  0  0
   13.7624   -4.8131   -5.9204 O   0  0  0  0  0  0  0  0  0  0  0  0
   11.9836   -5.5442   -4.6532 C   0  0  1  0  0  0  0  0  0  0  0  0
   11.4517   -6.6701   -4.0165 O   0  0  0  0  0  0  0  0  0  0  0  0
   12.8905   -4.7290   -3.7581 C   0  0  1  0  0  0  0  0  0  0  0  0
   13.6129   -5.5802   -2.8917 O   0  0  0  0  0  0  0  0  0  0  0  0
   13.8647   -4.0628   -4.7233 C   0  0  2  0  0  0  0  0  0  0  0  0
   13.6252   -2.6128   -4.9607 N   0  0  0  0  0  0  0  0  0  0  0  0
   14.3101   -1.5869   -4.3594 C   0  0  0  0  0  0  0  0  0  0  0  0
   13.8289   -0.4072   -4.8113 N   0  0  0  0  0  0  0  0  0  0  0  0
   12.8520   -0.6530   -5.6996 C   0  0  0  0  0  0  0  0  0  0  0  0
   12.0482    0.1872   -6.4550 C   0  0  0  0  0  0  0  0  0  0  0  0
   12.1838    1.5037   -6.3650 N   0  0  0  0  0  0  0  0  0  0  0  0
   11.1102   -0.3635   -7.3057 N   0  0  0  0  0  0  0  0  0  0  0  0
   10.9639   -1.7404   -7.4171 C   0  0  0  0  0  0  0  0  0  0  0  0
   11.7768   -2.5608   -6.6618 N   0  0  0  0  0  0  0  0  0  0  0  0
   12.7035   -2.0333   -5.8096 C   0  0  0  0  0  0  0  0  0  0  0  0
  2  3  1  1  0  0  0
  2  6  1  0  0  0  0
  2  1  1  0  0  0  0
  4  3  2  0  0  0  0
  5  3  1  0  0  0  0
  6  7  2  0  0  0  0
  8  7  1  1  0  0  0
  8  9  1  0  0  0  0
  8 10  1  0  0  0  0
 11 10  1  6  0  0  0
 11 13  1  0  0  0  0
 12 11  1  0  0  0  0
 12 17  1  0  0  0  0
 13 14  1  1  0  0  0
 13 15  1  0  0  0  0
 15 16  1  1  0  0  0
 17 18  1  6  0  0  0
 17 15  1  0  0  0  0
 18 19  1  0  0  0  0
 20 19  2  0  0  0  0
 21 27  2  0  0  0  0
 21 20  1  0  0  0  0
 22 21  1  0  0  0  0
 23 22  1  0  0  0  0
 24 22  2  0  0  0  0
 24 25  1  0  0  0  0
 25 26  2  0  0  0  0
 26 27  1  0  0  0  0
 27 18  1  0  0  0  0
M  END
>  <CHROM.1>
35.19346190,-145.76722191,155.18340482,28.46335678,59.96645664,-140.93278260
13.58463086,-4.77681776,-5.66598940,-0.70809799,-1.07176110,0.65812548

>  <Name>
lig.pdb

>  <RI>
0

>  <Rbt.Current_Directory>
/home/itssahil/PROJECTS/Mol_Feturizer/New_Systems/rnas/4b5r

>  <Rbt.Executable>
rbdock ($Id: //depot/dev/client3/rdock/2013.1/src/exe/rbdock.cxx#4 $)

>  <Rbt.Library>
libRbt.so (2013.1, Build901 2013/11/27)

>  <Rbt.Parameter_File>
/export/apps/rDock/src/rDock_2013.1_src/data/scripts/dock_solv.prm

>  <Rbt.Receptor>
prm/blind_docking_20.prm

>  <SCORE>
-8.6253

>  <SCORE.INTER>
-8.06723

>  <SCORE.INTER.CONST>
1

>  <SCORE.INTER.POLAR>
0

>  <SCORE.INTER.ROT>
6

>  <SCORE.INTER.SOLV>
11.1387

>  <SCORE.INTER.VDW>
-16.6911

>  <SCORE.INTER.norm>
-0.298786

>  <SCORE.INTRA>
-0.55919

>  <SCORE.INTRA.DIHEDRAL>
-0.942121

>  <SCORE.INTRA.DIHEDRAL.0>
10.2917

>  <SCORE.INTRA.POLAR>
0

>  <SCORE.INTRA.POLAR.0>
0

>  <SCORE.INTRA.REPUL>
0

>  <SCORE.INTRA.REPUL.0>
0

>  <SCORE.INTRA.SOLV>
-2.51521

>  <SCORE.INTRA.SOLV.lig_0>
-39.6315

>  <SCORE.INTRA.VDW>
1.16948

>  <SCORE.INTRA.VDW.0>
-4.02152

>  <SCORE.INTRA.norm>
-0.0207107

>  <SCORE.RESTR>
0.00111843

>  <SCORE.RESTR.CAVITY>
0.00111843

>  <SCORE.RESTR.norm>
4.14235e-05

>  <SCORE.SYSTEM>
0

>  <SCORE.SYSTEM.CONST>
0

>  <SCORE.SYSTEM.DIHEDRAL>
0

>  <SCORE.SYSTEM.SOLV>
0

>  <SCORE.SYSTEM.norm>
0

>  <SCORE.heavy>
27

>  <SCORE.norm>
-0.319456

>  <RMSD>
16.134

$$$$
lig.pdb
 OpenBabel11021811493D
libRbt.so/2013.1/901 2013/11/27
 27 29  0  0  0  0  0  0  0  0999 V2000
  -10.4015   -9.4387  -12.7427 N   0  0  0  0  0  0  0  0  0  0  0  0
   -9.6060   -8.1883  -12.9361 C   0  0  2  0  0  0  0  0  0  0  0  0
  -10.5576   -6.9982  -13.0161 C   0  0  0  0  0  0  0  0  0  0  0  0
  -10.7655   -6.3223  -12.0154 O   0  0  0  0  0  0  0  0  0  0  0  0
  -11.1448   -6.6782  -14.0575 O   0  0  0  0  0  0  0  0  0  0  0  0
   -8.6538   -8.2411  -14.1479 C   0  0  0  0  0  0  0  0  0  0  0  0
   -7.1426   -8.0452  -13.8573 C   0  0  0  0  0  0  0  0  0  0  0  0
   -5.9493   -8.0906  -15.2636 S   0  0  2  0  0  0  0  0  0  0  0  0
   -5.0770   -6.5252  -15.0440 C   0  0  0  0  0  0  0  0  0  0  0  0
   -6.9662   -7.6743  -16.6969 C   0  0  0  0  0  0  0  0  0  0  0  0
   -6.0705   -7.3045  -17.8717 C   0  0  1  0  0  0  0  0  0  0  0  0
   -5.2131   -8.3670  -18.2608 O   0  0  0  0  0  0  0  0  0  0  0  0
   -6.8403   -6.9852  -19.1251 C   0  0  1  0  0  0  0  0  0  0  0  0
   -7.3602   -5.6889  -19.0541 O   0  0  0  0  0  0  0  0  0  0  0  0
   -5.7520   -7.1322  -20.1654 C   0  0  1  0  0  0  0  0  0  0  0  0
   -4.9800   -5.9505  -20.2330 O   0  0  0  0  0  0  0  0  0  0  0  0
   -4.8795   -8.2637  -19.6336 C   0  0  2  0  0  0  0  0  0  0  0  0
   -5.0370   -9.5660  -20.3375 N   0  0  0  0  0  0  0  0  0  0  0  0
   -6.2223  -10.2351  -20.5119 C   0  0  0  0  0  0  0  0  0  0  0  0
   -5.9901  -11.3789  -21.1938 N   0  0  0  0  0  0  0  0  0  0  0  0
   -4.6780  -11.4561  -21.4704 C   0  0  0  0  0  0  0  0  0  0  0  0
   -3.9236  -12.4031  -22.1461 C   0  0  0  0  0  0  0  0  0  0  0  0
   -4.5040  -13.4787  -22.6617 N   0  0  0  0  0  0  0  0  0  0  0  0
   -2.5630  -12.2094  -22.2806 N   0  0  0  0  0  0  0  0  0  0  0  0
   -1.9435  -11.0830  -21.7541 C   0  0  0  0  0  0  0  0  0  0  0  0
   -2.7116  -10.1484  -21.0899 N   0  0  0  0  0  0  0  0  0  0  0  0
   -4.0564  -10.3281  -20.9404 C   0  0  0  0  0  0  0  0  0  0  0  0
  2  3  1  6  0  0  0
  2  6  1  0  0  0  0
  2  1  1  0  0  0  0
  4  3  2  0  0  0  0
  5  3  1  0  0  0  0
  6  7  2  0  0  0  0
  8  7  1  1  0  0  0
  8  9  1  0  0  0  0
  8 10  1  0  0  0  0
 11 10  1  1  0  0  0
 11 13  1  0  0  0  0
 12 11  1  0  0  0  0
 12 17  1  0  0  0  0
 13 14  1  1  0  0  0
 13 15  1  0  0  0  0
 15 16  1  1  0  0  0
 17 18  1  6  0  0  0
 17 15  1  0  0  0  0
 18 19  1  0  0  0  0
 20 19  2  0  0  0  0
 21 27  2  0  0  0  0
 21 20  1  0  0  0  0
 22 21  1  0  0  0  0
 23 22  1  0  0  0  0
 24 22  2  0  0  0  0
 24 25  1  0  0  0  0
 25 26  2  0  0  0  0
 26 27  1  0  0  0  0
 27 18  1  0  0  0  0
M  END
>  <CHROM.1>
97.27031325,-120.83508594,126.23243325,164.83900260,60.73248737,64.25191749
-6.29051736,-8.70467239,-17.89956605,2.65495701,0.93561564,0.15700490

>  <Name>
lig.pdb

>  <RI>
0

>  <Rbt.Current_Directory>
/home/itssahil/PROJECTS/Mol_Feturizer/New_Systems/rnas/4b5r

>  <Rbt.Executable>
rbdock ($Id: //depot/dev/client3/rdock/2013.1/src/exe/rbdock.cxx#4 $)

>  <Rbt.Library>
libRbt.so (2013.1, Build901 2013/11/27)

>  <Rbt.Parameter_File>
/export/apps/rDock/src/rDock_2013.1_src/data/scripts/dock_solv.prm

>  <Rbt.Receptor>
prm/blind_docking_60.prm

>  <SCORE>
-14.8201

>  <SCORE.INTER>
-13.6874

>  <SCORE.INTER.CONST>
1

>  <SCORE.INTER.POLAR>
0

>  <SCORE.INTER.ROT>
6

>  <SCORE.INTER.SOLV>
15.5091

>  <SCORE.INTER.VDW>
-21.8946

>  <SCORE.INTER.norm>
-0.50694

>  <SCORE.INTRA>
-1.13272

>  <SCORE.INTRA.DIHEDRAL>
-3.24033

>  <SCORE.INTRA.DIHEDRAL.0>
10.2917

>  <SCORE.INTRA.POLAR>
0

>  <SCORE.INTRA.POLAR.0>
0

>  <SCORE.INTRA.REPUL>
0

>  <SCORE.INTRA.REPUL.0>
0

>  <SCORE.INTRA.SOLV>
-3.59558

>  <SCORE.INTRA.SOLV.lig_0>
-39.6315

>  <SCORE.INTRA.VDW>
2.28523

>  <SCORE.INTRA.VDW.0>
-4.02152

>  <SCORE.INTRA.norm>
-0.0419527

>  <SCORE.RESTR>
0

>  <SCORE.RESTR.CAVITY>
0

>  <SCORE.RESTR.norm>
0

>  <SCORE.SYSTEM>
0

>  <SCORE.SYSTEM.CONST>
0

>  <SCORE.SYSTEM.DIHEDRAL>
0

>  <SCORE.SYSTEM.SOLV>
0

>  <SCORE.SYSTEM.norm>
0

>  <SCORE.heavy>
27

>  <SCORE.norm>
-0.548893

>  <RMSD>
16.147

$$$$
lig.pdb
 OpenBabel11021811493D
libRbt.so/2013.1/901 2013/11/27
 27 29  0  0  0  0  0  0  0  0999 V2000
    0.1132   -9.1282  -28.0774 N   0  0  0  0  0  0  0  0  0  0  0  0
    1.3208   -8.3028  -28.3843 C   0  0  2  0  0  0  0  0  0  0  0  0
    1.6461   -8.4267  -29.8699 C   0  0  0  0  0  0  0  0  0  0  0  0
    0.8683   -9.0150  -30.6120 O   0  0  0  0  0  0  0  0  0  0  0  0
    2.6764   -7.9594  -30.3719 O   0  0  0  0  0  0  0  0  0  0  0  0
    2.5406   -8.6377  -27.5023 C   0  0  0  0  0  0  0  0  0  0  0  0
    3.3753   -7.4386  -26.9809 C   0  0  0  0  0  0  0  0  0  0  0  0
    4.8518   -7.7698  -25.9255 S   0  0  2  0  0  0  0  0  0  0  0  0
    6.0409   -8.3615  -27.1484 C   0  0  0  0  0  0  0  0  0  0  0  0
    4.4500   -9.3309  -25.1111 C   0  0  0  0  0  0  0  0  0  0  0  0
    5.3596   -9.5301  -23.9059 C   0  0  1  0  0  0  0  0  0  0  0  0
    4.7559  -10.3162  -22.8896 O   0  0  0  0  0  0  0  0  0  0  0  0
    6.6240  -10.2770  -24.2361 C   0  0  1  0  0  0  0  0  0  0  0  0
    7.5445   -9.4196  -24.8471 O   0  0  0  0  0  0  0  0  0  0  0  0
    7.0531  -10.7221  -22.8555 C   0  0  1  0  0  0  0  0  0  0  0  0
    7.7383   -9.6759  -22.1975 O   0  0  0  0  0  0  0  0  0  0  0  0
    5.7410  -10.9899  -22.1266 C   0  0  2  0  0  0  0  0  0  0  0  0
    5.4046  -12.4281  -21.9408 N   0  0  0  0  0  0  0  0  0  0  0  0
    4.5840  -13.1628  -22.7592 C   0  0  0  0  0  0  0  0  0  0  0  0
    4.5065  -14.4281  -22.2896 N   0  0  0  0  0  0  0  0  0  0  0  0
    5.2690  -14.5257  -21.1882 C   0  0  0  0  0  0  0  0  0  0  0  0
    5.5452  -15.5862  -20.3387 C   0  0  0  0  0  0  0  0  0  0  0  0
    5.0104  -16.7796  -20.5609 N   0  0  0  0  0  0  0  0  0  0  0  0
    6.3880  -15.3858  -19.2634 N   0  0  0  0  0  0  0  0  0  0  0  0
    6.9626  -14.1439  -19.0242 C   0  0  0  0  0  0  0  0  0  0  0  0
    6.6806  -13.1018  -19.8839 N   0  0  0  0  0  0  0  0  0  0  0  0
    5.8431  -13.2801  -20.9469 C   0  0  0  0  0  0  0  0  0  0  0  0
  2  3  1  6  0  0  0
  2  6  1  0  0  0  0
  2  1  1  0  0  0  0
  4  3  2  0  0  0  0
  5  3  1  0  0  0  0
  6  7  2  0  0  0  0
  8  7  1  6  0  0  0
  8  9  1  0  0  0  0
  8 10  1  0  0  0  0
 11 10  1  6  0  0  0
 11 13  1  0  0  0  0
 12 11  1  0  0  0  0
 12 17  1  0  0  0  0
 13 14  1  1  0  0  0
 13 15  1  0  0  0  0
 15 16  1  1  0  0  0
 17 18  1  6  0  0  0
 17 15  1  0  0  0  0
 18 19  1  0  0  0  0
 20 19  2  0  0  0  0
 21 27  2  0  0  0  0
 21 20  1  0  0  0  0
 22 21  1  0  0  0  0
 23 22  1  0  0  0  0
 24 22  2  0  0  0  0
 24 25  1  0  0  0  0
 25 26  2  0  0  0  0
 26 27  1  0  0  0  0
 27 18  1  0  0  0  0
M  END
>  <CHROM.1>
7.42106537,-138.43131817,74.94761291,-162.95906361,151.87636401,23.36191782
4.78185249,-10.81460335,-24.28351495,1.99811077,-0.63286808,-0.67908325

>  <Name>
lig.pdb

>  <RI>
0

>  <Rbt.Current_Directory>
/home/itssahil/PROJECTS/Mol_Feturizer/New_Systems/rnas/4b5r

>  <Rbt.Executable>
rbdock ($Id: //depot/dev/client3/rdock/2013.1/src/exe/rbdock.cxx#4 $)

>  <Rbt.Library>
libRbt.so (2013.1, Build901 2013/11/27)

>  <Rbt.Parameter_File>
/export/apps/rDock/src/rDock_2013.1_src/data/scripts/dock_solv.prm

>  <Rbt.Receptor>
prm/blind_docking_80.prm

>  <SCORE>
-12.5225

>  <SCORE.INTER>
-14.3317

>  <SCORE.INTER.CONST>
1

>  <SCORE.INTER.POLAR>
0

>  <SCORE.INTER.ROT>
6

>  <SCORE.INTER.SOLV>
15.7608

>  <SCORE.INTER.VDW>
-22.4081

>  <SCORE.INTER.norm>
-0.530805

>  <SCORE.INTRA>
1.80924

>  <SCORE.INTRA.DIHEDRAL>
2.53779

>  <SCORE.INTRA.DIHEDRAL.0>
10.2917

>  <SCORE.INTRA.POLAR>
0

>  <SCORE.INTRA.POLAR.0>
0

>  <SCORE.INTRA.REPUL>
0

>  <SCORE.INTRA.REPUL.0>
0

>  <SCORE.INTRA.SOLV>
-3.17642

>  <SCORE.INTRA.SOLV.lig_0>
-39.6315

>  <SCORE.INTRA.VDW>
2.12855

>  <SCORE.INTRA.VDW.0>
-4.02152

>  <SCORE.INTRA.norm>
0.0670087

>  <SCORE.RESTR>
0

>  <SCORE.RESTR.CAVITY>
0

>  <SCORE.RESTR.norm>
0

>  <SCORE.SYSTEM>
0

>  <SCORE.SYSTEM.CONST>
0

>  <SCORE.SYSTEM.DIHEDRAL>
0

>  <SCORE.SYSTEM.SOLV>
0

>  <SCORE.SYSTEM.norm>
0

>  <SCORE.heavy>
27

>  <SCORE.norm>
-0.463796

>  <RMSD>
16.154

$$$$
lig.pdb
 OpenBabel11021811493D
libRbt.so/2013.1/901 2013/11/27
 27 29  0  0  0  0  0  0  0  0999 V2000
   12.6253    0.8846   -9.5598 N   0  0  0  0  0  0  0  0  0  0  0  0
   13.8551    0.0649   -9.7833 C   0  0  2  0  0  0  0  0  0  0  0  0
   13.4723   -1.2231  -10.5062 C   0  0  0  0  0  0  0  0  0  0  0  0
   12.8851   -1.1619  -11.5801 O   0  0  0  0  0  0  0  0  0  0  0  0
   13.7244   -2.3468  -10.0528 O   0  0  0  0  0  0  0  0  0  0  0  0
   14.6532   -0.2184   -8.4947 C   0  0  0  0  0  0  0  0  0  0  0  0
   14.0676   -1.2836   -7.5308 C   0  0  0  0  0  0  0  0  0  0  0  0
   14.9696   -1.6659   -5.9676 S   0  0  2  0  0  0  0  0  0  0  0  0
   16.6536   -1.9021   -6.5741 C   0  0  0  0  0  0  0  0  0  0  0  0
   14.5239   -3.3831   -5.6294 C   0  0  0  0  0  0  0  0  0  0  0  0
   14.6649   -4.2099   -6.9006 C   0  0  1  0  0  0  0  0  0  0  0  0
   15.5738   -5.2902   -6.7517 O   0  0  0  0  0  0  0  0  0  0  0  0
   13.3810   -4.8742   -7.3197 C   0  0  1  0  0  0  0  0  0  0  0  0
   12.5467   -3.9509   -7.9579 O   0  0  0  0  0  0  0  0  0  0  0  0
   13.9108   -5.9400   -8.2533 C   0  0  1  0  0  0  0  0  0  0  0  0
   14.1481   -5.3916   -9.5339 O   0  0  0  0  0  0  0  0  0  0  0  0
   15.2433   -6.3475   -7.6346 C   0  0  2  0  0  0  0  0  0  0  0  0
   15.2398   -7.6640   -6.9395 N   0  0  0  0  0  0  0  0  0  0  0  0
   15.0924   -8.8834   -7.5512 C   0  0  0  0  0  0  0  0  0  0  0  0
   15.1389   -9.8578   -6.6154 N   0  0  0  0  0  0  0  0  0  0  0  0
   15.3225   -9.2902   -5.4120 C   0  0  0  0  0  0  0  0  0  0  0  0
   15.4489   -9.8266   -4.1397 C   0  0  0  0  0  0  0  0  0  0  0  0
   15.3960  -11.1395   -3.9577 N   0  0  0  0  0  0  0  0  0  0  0  0
   15.6367   -8.9780   -3.0666 N   0  0  0  0  0  0  0  0  0  0  0  0
   15.7037   -7.6018   -3.2438 C   0  0  0  0  0  0  0  0  0  0  0  0
   15.5816   -7.0866   -4.5182 N   0  0  0  0  0  0  0  0  0  0  0  0
   15.3872   -7.9103   -5.5892 C   0  0  0  0  0  0  0  0  0  0  0  0
  2  3  1  1  0  0  0
  2  6  1  0  0  0  0
  2  1  1  0  0  0  0
  4  3  2  0  0  0  0
  5  3  1  0  0  0  0
  6  7  2  0  0  0  0
  8  7  1  6  0  0  0
  8  9  1  0  0  0  0
  8 10  1  0  0  0  0
 11 10  1  1  0  0  0
 11 13  1  0  0  0  0
 12 11  1  0  0  0  0
 12 17  1  0  0  0  0
 13 14  1  6  0  0  0
 13 15  1  0  0  0  0
 15 16  1  6  0  0  0
 17 18  1  1  0  0  0
 17 15  1  0  0  0  0
 18 19  1  0  0  0  0
 20 19  2  0  0  0  0
 21 27  2  0  0  0  0
 21 20  1  0  0  0  0
 22 21  1  0  0  0  0
 23 22  1  0  0  0  0
 24 22  2  0  0  0  0
 24 25  1  0  0  0  0
 25 26  2  0  0  0  0
 26 27  1  0  0  0  0
 27 18  1  0  0  0  0
M  END
>  <CHROM.1>
56.63594421,75.28169906,-48.59479101,46.60564349,121.60934145,-172.97890924
14.62044110,-4.82784516,-7.08327577,-2.09417149,1.20931780,-3.12860518

>  <Name>
lig.pdb

>  <RI>
0

>  <Rbt.Current_Directory>
/home/itssahil/PROJECTS/Mol_Feturizer/New_Systems/rnas/4b5r

>  <Rbt.Executable>
rbdock ($Id: //depot/dev/client3/rdock/2013.1/src/exe/rbdock.cxx#4 $)

>  <Rbt.Library>
libRbt.so (2013.1, Build901 2013/11/27)

>  <Rbt.Parameter_File>
/export/apps/rDock/src/rDock_2013.1_src/data/scripts/dock_solv.prm

>  <Rbt.Receptor>
prm/blind_docking_20.prm

>  <SCORE>
-5.17958

>  <SCORE.INTER>
-8.07957

>  <SCORE.INTER.CONST>
1

>  <SCORE.INTER.POLAR>
0

>  <SCORE.INTER.ROT>
6

>  <SCORE.INTER.SOLV>
20.3045

>  <SCORE.INTER.VDW>
-19.7545

>  <SCORE.INTER.norm>
-0.299243

>  <SCORE.INTRA>
2.88709

>  <SCORE.INTRA.DIHEDRAL>
4.08491

>  <SCORE.INTRA.DIHEDRAL.0>
10.2917

>  <SCORE.INTRA.POLAR>
0

>  <SCORE.INTRA.POLAR.0>
0

>  <SCORE.INTRA.REPUL>
0.027608

>  <SCORE.INTRA.REPUL.0>
0

>  <SCORE.INTRA.SOLV>
-2.27733

>  <SCORE.INTRA.SOLV.lig_0>
-39.6315

>  <SCORE.INTRA.VDW>
1.84526

>  <SCORE.INTRA.VDW.0>
-4.02152

>  <SCORE.INTRA.norm>
0.106929

>  <SCORE.RESTR>
0.0129049

>  <SCORE.RESTR.CAVITY>
0.0129049

>  <SCORE.RESTR.norm>
0.00047796

>  <SCORE.SYSTEM>
0

>  <SCORE.SYSTEM.CONST>
0

>  <SCORE.SYSTEM.DIHEDRAL>
0

>  <SCORE.SYSTEM.SOLV>
0

>  <SCORE.SYSTEM.norm>
0

>  <SCORE.heavy>
27

>  <SCORE.norm>
-0.191836

>  <RMSD>
16.181

$$$$
lig.pdb
 OpenBabel11021811493D
libRbt.so/2013.1/901 2013/11/27
 27 29  0  0  0  0  0  0  0  0999 V2000
   13.7773    1.2211   -9.3041 N   0  0  0  0  0  0  0  0  0  0  0  0
   14.1448   -0.2245   -9.2086 C   0  0  2  0  0  0  0  0  0  0  0  0
   13.2018   -1.0388  -10.0894 C   0  0  0  0  0  0  0  0  0  0  0  0
   11.9925   -0.8581  -10.0088 O   0  0  0  0  0  0  0  0  0  0  0  0
   13.6029   -1.8915  -10.8919 O   0  0  0  0  0  0  0  0  0  0  0  0
   14.1818   -0.7601   -7.7630 C   0  0  0  0  0  0  0  0  0  0  0  0
   15.5362   -1.3281   -7.2635 C   0  0  0  0  0  0  0  0  0  0  0  0
   15.6476   -1.9911   -5.5455 S   0  0  2  0  0  0  0  0  0  0  0  0
   17.1396   -3.0026   -5.6477 C   0  0  0  0  0  0  0  0  0  0  0  0
   14.3977   -3.2944   -5.5115 C   0  0  0  0  0  0  0  0  0  0  0  0
   14.4594   -4.0985   -6.8034 C   0  0  1  0  0  0  0  0  0  0  0  0
   15.4057   -5.1550   -6.7448 O   0  0  0  0  0  0  0  0  0  0  0  0
   13.1644   -4.7922   -7.1308 C   0  0  1  0  0  0  0  0  0  0  0  0
   12.2578   -3.8834   -7.6857 O   0  0  0  0  0  0  0  0  0  0  0  0
   13.6466   -5.8292   -8.1210 C   0  0  1  0  0  0  0  0  0  0  0  0
   13.7668   -5.2560   -9.4070 O   0  0  0  0  0  0  0  0  0  0  0  0
   15.0345   -6.2083   -7.6163 C   0  0  2  0  0  0  0  0  0  0  0  0
   15.1213   -7.5342   -6.9451 N   0  0  0  0  0  0  0  0  0  0  0  0
   15.0180   -8.7496   -7.5737 C   0  0  0  0  0  0  0  0  0  0  0  0
   15.1446   -9.7353   -6.6573 N   0  0  0  0  0  0  0  0  0  0  0  0
   15.3366   -9.1785   -5.4502 C   0  0  0  0  0  0  0  0  0  0  0  0
   15.5310   -9.7281   -4.1922 C   0  0  0  0  0  0  0  0  0  0  0  0
   15.5520  -11.0448   -4.0322 N   0  0  0  0  0  0  0  0  0  0  0  0
   15.7085   -8.8884   -3.1104 N   0  0  0  0  0  0  0  0  0  0  0  0
   15.6984   -7.5079   -3.2649 C   0  0  0  0  0  0  0  0  0  0  0  0
   15.5093   -6.9792   -4.5256 N   0  0  0  0  0  0  0  0  0  0  0  0
   15.3240   -7.7945   -5.6046 C   0  0  0  0  0  0  0  0  0  0  0  0
  2  3  1  6  0  0  0
  2  6  1  0  0  0  0
  2  1  1  0  0  0  0
  4  3  2  0  0  0  0
  5  3  1  0  0  0  0
  6  7  2  0  0  0  0
  8  7  1  6  0  0  0
  8  9  1  0  0  0  0
  8 10  1  0  0  0  0
 11 10  1  1  0  0  0
 11 13  1  0  0  0  0
 12 11  1  0  0  0  0
 12 17  1  0  0  0  0
 13 14  1  6  0  0  0
 13 15  1  0  0  0  0
 15 16  1  6  0  0  0
 17 18  1  1  0  0  0
 17 15  1  0  0  0  0
 18 19  1  0  0  0  0
 20 19  2  0  0  0  0
 21 27  2  0  0  0  0
 21 20  1  0  0  0  0
 22 21  1  0  0  0  0
 23 22  1  0  0  0  0
 24 22  2  0  0  0  0
 24 25  1  0  0  0  0
 25 26  2  0  0  0  0
 26 27  1  0  0  0  0
 27 18  1  0  0  0  0
M  END
>  <CHROM.1>
-48.70077501,-119.97777163,161.30063555,42.28538301,86.48900435,-169.88383602
14.66035447,-4.80830166,-6.88394535,-1.95339589,1.06163012,3.02153565

>  <Name>
lig.pdb

>  <RI>
0

>  <Rbt.Current_Directory>
/home/itssahil/PROJECTS/Mol_Feturizer/New_Systems/rnas/4b5r

>  <Rbt.Executable>
rbdock ($Id: //depot/dev/client3/rdock/2013.1/src/exe/rbdock.cxx#4 $)

>  <Rbt.Library>
libRbt.so (2013.1, Build901 2013/11/27)

>  <Rbt.Parameter_File>
/export/apps/rDock/src/rDock_2013.1_src/data/scripts/dock_solv.prm

>  <Rbt.Receptor>
prm/blind_docking_20.prm

>  <SCORE>
-8.18666

>  <SCORE.INTER>
-7.72616

>  <SCORE.INTER.CONST>
1

>  <SCORE.INTER.POLAR>
0

>  <SCORE.INTER.ROT>
6

>  <SCORE.INTER.SOLV>
19.3592

>  <SCORE.INTER.VDW>
-19.2038

>  <SCORE.INTER.norm>
-0.286154

>  <SCORE.INTRA>
-0.460499

>  <SCORE.INTRA.DIHEDRAL>
-0.878369

>  <SCORE.INTRA.DIHEDRAL.0>
10.2917

>  <SCORE.INTRA.POLAR>
0

>  <SCORE.INTRA.POLAR.0>
0

>  <SCORE.INTRA.REPUL>
0

>  <SCORE.INTRA.REPUL.0>
0

>  <SCORE.INTRA.SOLV>
-2.15199

>  <SCORE.INTRA.SOLV.lig_0>
-39.6315

>  <SCORE.INTRA.VDW>
1.05468

>  <SCORE.INTRA.VDW.0>
-4.02152

>  <SCORE.INTRA.norm>
-0.0170555

>  <SCORE.RESTR>
0

>  <SCORE.RESTR.CAVITY>
0

>  <SCORE.RESTR.norm>
0

>  <SCORE.SYSTEM>
0

>  <SCORE.SYSTEM.CONST>
0

>  <SCORE.SYSTEM.DIHEDRAL>
0

>  <SCORE.SYSTEM.SOLV>
0

>  <SCORE.SYSTEM.norm>
0

>  <SCORE.heavy>
27

>  <SCORE.norm>
-0.30321

>  <RMSD>
16.242

$$$$
lig.pdb
 OpenBabel11021811493D
libRbt.so/2013.1/901 2013/11/27
 27 29  0  0  0  0  0  0  0  0999 V2000
   12.4181   -0.3123   -7.8094 N   0  0  0  0  0  0  0  0  0  0  0  0
   13.5114   -0.9783   -8.5809 C   0  0  2  0  0  0  0  0  0  0  0  0
   13.0175   -1.2725   -9.9943 C   0  0  0  0  0  0  0  0  0  0  0  0
   11.9123   -0.8746  -10.3435 O   0  0  0  0  0  0  0  0  0  0  0  0
   13.6860   -1.9083  -10.8193 O   0  0  0  0  0  0  0  0  0  0  0  0
   14.0715   -2.2416   -7.8967 C   0  0  0  0  0  0  0  0  0  0  0  0
   13.5861   -2.5258   -6.4509 C   0  0  0  0  0  0  0  0  0  0  0  0
   14.2228   -4.0177   -5.5720 S   0  0  2  0  0  0  0  0  0  0  0  0
   12.7256   -5.0168   -5.4312 C   0  0  0  0  0  0  0  0  0  0  0  0
   14.3829   -3.4658   -3.8599 C   0  0  0  0  0  0  0  0  0  0  0  0
   15.4579   -4.2829   -3.1556 C   0  0  1  0  0  0  0  0  0  0  0  0
   15.0180   -5.5899   -2.8188 O   0  0  0  0  0  0  0  0  0  0  0  0
   16.6744   -4.5209   -4.0093 C   0  0  1  0  0  0  0  0  0  0  0  0
   17.4845   -3.3809   -4.0223 O   0  0  0  0  0  0  0  0  0  0  0  0
   17.3029   -5.6874   -3.2796 C   0  0  1  0  0  0  0  0  0  0  0  0
   18.0576   -5.2237   -2.1785 O   0  0  0  0  0  0  0  0  0  0  0  0
   16.1125   -6.4872   -2.7621 C   0  0  2  0  0  0  0  0  0  0  0  0
   15.8296   -7.7476   -3.5022 N   0  0  0  0  0  0  0  0  0  0  0  0
   15.8169   -9.0046   -2.9521 C   0  0  0  0  0  0  0  0  0  0  0  0
   15.5231   -9.9073   -3.9145 N   0  0  0  0  0  0  0  0  0  0  0  0
   15.3374   -9.2550   -5.0738 C   0  0  0  0  0  0  0  0  0  0  0  0
   15.0116   -9.6956   -6.3476 C   0  0  0  0  0  0  0  0  0  0  0  0
   14.8219  -10.9874   -6.5816 N   0  0  0  0  0  0  0  0  0  0  0  0
   14.8813   -8.7728   -7.3665 N   0  0  0  0  0  0  0  0  0  0  0  0
   15.0677   -7.4161   -7.1336 C   0  0  0  0  0  0  0  0  0  0  0  0
   15.3857   -6.9958   -5.8582 N   0  0  0  0  0  0  0  0  0  0  0  0
   15.5266   -7.8951   -4.8410 C   0  0  0  0  0  0  0  0  0  0  0  0
  2  3  1  6  0  0  0
  2  6  1  0  0  0  0
  2  1  1  0  0  0  0
  4  3  2  0  0  0  0
  5  3  1  0  0  0  0
  6  7  2  0  0  0  0
  8  7  1  6  0  0  0
  8  9  1  0  0  0  0
  8 10  1  0  0  0  0
 11 10  1  6  0  0  0
 11 13  1  0  0  0  0
 12 11  1  0  0  0  0
 12 17  1  0  0  0  0
 13 14  1  1  0  0  0
 13 15  1  0  0  0  0
 15 16  1  1  0  0  0
 17 18  1  6  0  0  0
 17 15  1  0  0  0  0
 18 19  1  0  0  0  0
 20 19  2  0  0  0  0
 21 27  2  0  0  0  0
 21 20  1  0  0  0  0
 22 21  1  0  0  0  0
 23 22  1  0  0  0  0
 24 22  2  0  0  0  0
 24 25  1  0  0  0  0
 25 26  2  0  0  0  0
 26 27  1  0  0  0  0
 27 18  1  0  0  0  0
M  END
>  <CHROM.1>
5.09435988,-8.41002352,-113.17141770,-153.44103058,-75.76791956,-119.68844331
14.88565710,-5.25220639,-5.64880461,-2.35646109,1.10073642,-3.02510213

>  <Name>
lig.pdb

>  <RI>
0

>  <Rbt.Current_Directory>
/home/itssahil/PROJECTS/Mol_Feturizer/New_Systems/rnas/4b5r

>  <Rbt.Executable>
rbdock ($Id: //depot/dev/client3/rdock/2013.1/src/exe/rbdock.cxx#4 $)

>  <Rbt.Library>
libRbt.so (2013.1, Build901 2013/11/27)

>  <Rbt.Parameter_File>
/export/apps/rDock/src/rDock_2013.1_src/data/scripts/dock_solv.prm

>  <Rbt.Receptor>
prm/blind_docking_20.prm

>  <SCORE>
-2.17873

>  <SCORE.INTER>
-3.25628

>  <SCORE.INTER.CONST>
1

>  <SCORE.INTER.POLAR>
0

>  <SCORE.INTER.ROT>
6

>  <SCORE.INTER.SOLV>
14.8248

>  <SCORE.INTER.VDW>
-14.7124

>  <SCORE.INTER.norm>
-0.120603

>  <SCORE.INTRA>
1.07755

>  <SCORE.INTRA.DIHEDRAL>
1.80942

>  <SCORE.INTRA.DIHEDRAL.0>
10.2917

>  <SCORE.INTRA.POLAR>
0

>  <SCORE.INTRA.POLAR.0>
0

>  <SCORE.INTRA.REPUL>
0

>  <SCORE.INTRA.REPUL.0>
0

>  <SCORE.INTRA.SOLV>
-1.34472

>  <SCORE.INTRA.SOLV.lig_0>
-39.6315

>  <SCORE.INTRA.VDW>
0.8452

>  <SCORE.INTRA.VDW.0>
-4.02152

>  <SCORE.INTRA.norm>
0.0399093

>  <SCORE.RESTR>
0

>  <SCORE.RESTR.CAVITY>
0

>  <SCORE.RESTR.norm>
0

>  <SCORE.SYSTEM>
0

>  <SCORE.SYSTEM.CONST>
0

>  <SCORE.SYSTEM.DIHEDRAL>
0

>  <SCORE.SYSTEM.SOLV>
0

>  <SCORE.SYSTEM.norm>
0

>  <SCORE.heavy>
27

>  <SCORE.norm>
-0.0806938

>  <RMSD>
16.247

$$$$
lig.pdb
 OpenBabel11021811493D
libRbt.so/2013.1/901 2013/11/27
 27 29  0  0  0  0  0  0  0  0999 V2000
    8.1060   -1.9698   -9.4059 N   0  0  0  0  0  0  0  0  0  0  0  0
    9.0633   -0.8465   -9.6419 C   0  0  2  0  0  0  0  0  0  0  0  0
    8.7022   -0.1492  -10.9502 C   0  0  0  0  0  0  0  0  0  0  0  0
    8.4453   -0.8211  -11.9423 O   0  0  0  0  0  0  0  0  0  0  0  0
    8.6599    1.0825  -11.0641 O   0  0  0  0  0  0  0  0  0  0  0  0
   10.5435   -1.2778   -9.6137 C   0  0  0  0  0  0  0  0  0  0  0  0
   11.4997   -0.4340   -8.7303 C   0  0  0  0  0  0  0  0  0  0  0  0
   13.2853   -0.8921   -8.6569 S   0  0  2  0  0  0  0  0  0  0  0  0
   13.5639   -1.5171  -10.3276 C   0  0  0  0  0  0  0  0  0  0  0  0
   13.2865   -2.4507   -7.7444 C   0  0  0  0  0  0  0  0  0  0  0  0
   13.3160   -2.1693   -6.2479 C   0  0  1  0  0  0  0  0  0  0  0  0
   12.9322   -3.2949   -5.4726 O   0  0  0  0  0  0  0  0  0  0  0  0
   14.6906   -1.8312   -5.7365 C   0  0  1  0  0  0  0  0  0  0  0  0
   15.0039   -0.5022   -6.0392 O   0  0  0  0  0  0  0  0  0  0  0  0
   14.5043   -2.0746   -4.2551 C   0  0  1  0  0  0  0  0  0  0  0  0
   13.9050   -0.9479   -3.6480 O   0  0  0  0  0  0  0  0  0  0  0  0
   13.5323   -3.2474   -4.1904 C   0  0  2  0  0  0  0  0  0  0  0  0
   14.1434   -4.5535   -3.8202 N   0  0  0  0  0  0  0  0  0  0  0  0
   14.5982   -4.8905   -2.5702 C   0  0  0  0  0  0  0  0  0  0  0  0
   15.0872   -6.1504   -2.6006 N   0  0  0  0  0  0  0  0  0  0  0  0
   14.9483   -6.6358   -3.8452 C   0  0  0  0  0  0  0  0  0  0  0  0
   15.2719   -7.8613   -4.4075 C   0  0  0  0  0  0  0  0  0  0  0  0
   15.8275   -8.8120   -3.6680 N   0  0  0  0  0  0  0  0  0  0  0  0
   15.0029   -8.0811   -5.7440 N   0  0  0  0  0  0  0  0  0  0  0  0
   14.4125   -7.0979   -6.5279 C   0  0  0  0  0  0  0  0  0  0  0  0
   14.0922   -5.8866   -5.9493 N   0  0  0  0  0  0  0  0  0  0  0  0
   14.3587   -5.6493   -4.6318 C   0  0  0  0  0  0  0  0  0  0  0  0
  2  3  1  6  0  0  0
  2  6  1  0  0  0  0
  2  1  1  0  0  0  0
  4  3  2  0  0  0  0
  5  3  1  0  0  0  0
  6  7  2  0  0  0  0
  8  7  1  6  0  0  0
  8  9  1  0  0  0  0
  8 10  1  0  0  0  0
 11 10  1  6  0  0  0
 11 13  1  0  0  0  0
 12 11  1  0  0  0  0
 12 17  1  0  0  0  0
 13 14  1  1  0  0  0
 13 15  1  0  0  0  0
 15 16  1  1  0  0  0
 17 18  1  6  0  0  0
 17 15  1  0  0  0  0
 18 19  1  0  0  0  0
 20 19  2  0  0  0  0
 21 27  2  0  0  0  0
 21 20  1  0  0  0  0
 22 21  1  0  0  0  0
 23 22  1  0  0  0  0
 24 22  2  0  0  0  0
 24 25  1  0  0  0  0
 25 26  2  0  0  0  0
 26 27  1  0  0  0  0
 27 18  1  0  0  0  0
M  END
>  <CHROM.1>
-45.12804301,-130.65674405,33.36537933,-85.78603959,162.83181617,-168.54795756
12.97156143,-3.09607529,-6.72169566,2.52795965,-0.89311524,0.01266627

>  <Name>
lig.pdb

>  <RI>
0

>  <Rbt.Current_Directory>
/home/itssahil/PROJECTS/Mol_Feturizer/New_Systems/rnas/4b5r

>  <Rbt.Executable>
rbdock ($Id: //depot/dev/client3/rdock/2013.1/src/exe/rbdock.cxx#4 $)

>  <Rbt.Library>
libRbt.so (2013.1, Build901 2013/11/27)

>  <Rbt.Parameter_File>
/export/apps/rDock/src/rDock_2013.1_src/data/scripts/dock_solv.prm

>  <Rbt.Receptor>
prm/blind_docking_20.prm

>  <SCORE>
-4.04551

>  <SCORE.INTER>
-4.23645

>  <SCORE.INTER.CONST>
1

>  <SCORE.INTER.POLAR>
0

>  <SCORE.INTER.ROT>
6

>  <SCORE.INTER.SOLV>
13.5847

>  <SCORE.INTER.VDW>
-14.9525

>  <SCORE.INTER.norm>
-0.156906

>  <SCORE.INTRA>
0.190945

>  <SCORE.INTRA.DIHEDRAL>
0.164283

>  <SCORE.INTRA.DIHEDRAL.0>
10.2917

>  <SCORE.INTRA.POLAR>
0

>  <SCORE.INTRA.POLAR.0>
0

>  <SCORE.INTRA.REPUL>
0

>  <SCORE.INTRA.REPUL.0>
0

>  <SCORE.INTRA.SOLV>
-2.66092

>  <SCORE.INTRA.SOLV.lig_0>
-39.6315

>  <SCORE.INTRA.VDW>
1.43926

>  <SCORE.INTRA.VDW.0>
-4.02152

>  <SCORE.INTRA.norm>
0.00707202

>  <SCORE.RESTR>
0

>  <SCORE.RESTR.CAVITY>
0

>  <SCORE.RESTR.norm>
0

>  <SCORE.SYSTEM>
0

>  <SCORE.SYSTEM.CONST>
0

>  <SCORE.SYSTEM.DIHEDRAL>
0

>  <SCORE.SYSTEM.SOLV>
0

>  <SCORE.SYSTEM.norm>
0

>  <SCORE.heavy>
27

>  <SCORE.norm>
-0.149834

>  <RMSD>
16.285

$$$$
lig.pdb
 OpenBabel11021811493D
libRbt.so/2013.1/901 2013/11/27
 27 29  0  0  0  0  0  0  0  0999 V2000
   13.5459   -1.1292   -8.6798 N   0  0  0  0  0  0  0  0  0  0  0  0
   13.6246   -0.9517   -7.1978 C   0  0  2  0  0  0  0  0  0  0  0  0
   12.8995    0.3335   -6.8096 C   0  0  0  0  0  0  0  0  0  0  0  0
   12.7832    0.6278   -5.6257 O   0  0  0  0  0  0  0  0  0  0  0  0
   12.4095    1.1051   -7.6440 O   0  0  0  0  0  0  0  0  0  0  0  0
   15.0640   -0.9850   -6.6456 C   0  0  0  0  0  0  0  0  0  0  0  0
   15.4905   -2.2685   -5.8857 C   0  0  0  0  0  0  0  0  0  0  0  0
   17.1976   -2.3710   -5.1935 S   0  0  2  0  0  0  0  0  0  0  0  0
   18.1762   -1.6955   -6.5520 C   0  0  0  0  0  0  0  0  0  0  0  0
   17.6172   -4.1201   -5.3560 C   0  0  0  0  0  0  0  0  0  0  0  0
   16.7866   -4.9402   -4.3778 C   0  0  1  0  0  0  0  0  0  0  0  0
   15.4231   -4.5457   -4.3541 O   0  0  0  0  0  0  0  0  0  0  0  0
   16.7325   -6.4028   -4.7289 C   0  0  1  0  0  0  0  0  0  0  0  0
   17.9131   -7.0379   -4.3303 O   0  0  0  0  0  0  0  0  0  0  0  0
   15.5251   -6.8371   -3.9277 C   0  0  1  0  0  0  0  0  0  0  0  0
   15.8936   -7.0824   -2.5857 O   0  0  0  0  0  0  0  0  0  0  0  0
   14.5950   -5.6300   -3.9730 C   0  0  2  0  0  0  0  0  0  0  0  0
   13.4218   -5.7711   -4.8786 N   0  0  0  0  0  0  0  0  0  0  0  0
   12.1215   -5.9351   -4.4722 C   0  0  0  0  0  0  0  0  0  0  0  0
   11.3248   -6.0276   -5.5604 N   0  0  0  0  0  0  0  0  0  0  0  0
   12.0860   -5.9176   -6.6615 C   0  0  0  0  0  0  0  0  0  0  0  0
   11.7758   -5.9346   -8.0128 C   0  0  0  0  0  0  0  0  0  0  0  0
   10.5184   -6.0797   -8.4098 N   0  0  0  0  0  0  0  0  0  0  0  0
   12.7903   -5.7925   -8.9386 N   0  0  0  0  0  0  0  0  0  0  0  0
   14.1102   -5.6301   -8.5370 C   0  0  0  0  0  0  0  0  0  0  0  0
   14.3991   -5.6099   -7.1876 N   0  0  0  0  0  0  0  0  0  0  0  0
   13.4096   -5.7573   -6.2590 C   0  0  0  0  0  0  0  0  0  0  0  0
  2  3  1  6  0  0  0
  2  6  1  0  0  0  0
  2  1  1  0  0  0  0
  4  3  2  0  0  0  0
  5  3  1  0  0  0  0
  6  7  2  0  0  0  0
  8  7  1  6  0  0  0
  8  9  1  0  0  0  0
  8 10  1  0  0  0  0
 11 10  1  6  0  0  0
 11 13  1  0  0  0  0
 12 11  1  0  0  0  0
 12 17  1  0  0  0  0
 13 14  1  1  0  0  0
 13 15  1  0  0  0  0
 15 16  1  1  0  0  0
 17 18  1  6  0  0  0
 17 15  1  0  0  0  0
 18 19  1  0  0  0  0
 20 19  2  0  0  0  0
 21 27  2  0  0  0  0
 21 20  1  0  0  0  0
 22 21  1  0  0  0  0
 23 22  1  0  0  0  0
 24 22  2  0  0  0  0
 24 25  1  0  0  0  0
 25 26  2  0  0  0  0
 26 27  1  0  0  0  0
 27 18  1  0  0  0  0
M  END
>  <CHROM.1>
175.99244647,-105.68981542,-43.19527453,-70.00003648,44.14513565,-132.42139720
14.53676206,-4.04474516,-5.95602906,1.93947933,-0.48671331,-0.25226086

>  <Name>
lig.pdb

>  <RI>
0

>  <Rbt.Current_Directory>
/home/itssahil/PROJECTS/Mol_Feturizer/New_Systems/rnas/4b5r

>  <Rbt.Executable>
rbdock ($Id: //depot/dev/client3/rdock/2013.1/src/exe/rbdock.cxx#4 $)

>  <Rbt.Library>
libRbt.so (2013.1, Build901 2013/11/27)

>  <Rbt.Parameter_File>
/export/apps/rDock/src/rDock_2013.1_src/data/scripts/dock_solv.prm

>  <Rbt.Receptor>
prm/blind_docking_20.prm

>  <SCORE>
-11.9017

>  <SCORE.INTER>
-10.8481

>  <SCORE.INTER.CONST>
1

>  <SCORE.INTER.POLAR>
0

>  <SCORE.INTER.ROT>
6

>  <SCORE.INTER.SOLV>
15.7083

>  <SCORE.INTER.VDW>
-20.0681

>  <SCORE.INTER.norm>
-0.40178

>  <SCORE.INTRA>
-1.05362

>  <SCORE.INTRA.DIHEDRAL>
-2.2907

>  <SCORE.INTRA.DIHEDRAL.0>
10.2917

>  <SCORE.INTRA.POLAR>
0

>  <SCORE.INTRA.POLAR.0>
0

>  <SCORE.INTRA.REPUL>
0

>  <SCORE.INTRA.REPUL.0>
0

>  <SCORE.INTRA.SOLV>
-2.32655

>  <SCORE.INTRA.SOLV.lig_0>
-39.6315

>  <SCORE.INTRA.VDW>
1.255

>  <SCORE.INTRA.VDW.0>
-4.02152

>  <SCORE.INTRA.norm>
-0.0390231

>  <SCORE.RESTR>
0

>  <SCORE.RESTR.CAVITY>
0

>  <SCORE.RESTR.norm>
0

>  <SCORE.SYSTEM>
0

>  <SCORE.SYSTEM.CONST>
0

>  <SCORE.SYSTEM.DIHEDRAL>
0

>  <SCORE.SYSTEM.SOLV>
0

>  <SCORE.SYSTEM.norm>
0

>  <SCORE.heavy>
27

>  <SCORE.norm>
-0.440804

>  <RMSD>
16.375

$$$$
lig.pdb
 OpenBabel11021811493D
libRbt.so/2013.1/901 2013/11/27
 27 29  0  0  0  0  0  0  0  0999 V2000
   11.7164   -0.2345   -9.0110 N   0  0  0  0  0  0  0  0  0  0  0  0
   13.1214    0.1886   -8.7267 C   0  0  2  0  0  0  0  0  0  0  0  0
   14.0225   -0.2721   -9.8686 C   0  0  0  0  0  0  0  0  0  0  0  0
   14.9893    0.4096  -10.1884 O   0  0  0  0  0  0  0  0  0  0  0  0
   13.8203   -1.3153  -10.5032 O   0  0  0  0  0  0  0  0  0  0  0  0
   13.6464   -0.2868   -7.3569 C   0  0  0  0  0  0  0  0  0  0  0  0
   14.9393   -1.1440   -7.3641 C   0  0  0  0  0  0  0  0  0  0  0  0
   15.6176   -1.7509   -5.7594 S   0  0  2  0  0  0  0  0  0  0  0  0
   17.2333   -2.3766   -6.2669 C   0  0  0  0  0  0  0  0  0  0  0  0
   14.7536   -3.3151   -5.4977 C   0  0  0  0  0  0  0  0  0  0  0  0
   14.7835   -4.1385   -6.7785 C   0  0  1  0  0  0  0  0  0  0  0  0
   15.6575   -5.2538   -6.6909 O   0  0  0  0  0  0  0  0  0  0  0  0
   13.4514   -4.7505   -7.1196 C   0  0  1  0  0  0  0  0  0  0  0  0
   12.6154   -3.7918   -7.7010 O   0  0  0  0  0  0  0  0  0  0  0  0
   13.8807   -5.8298   -8.0887 C   0  0  1  0  0  0  0  0  0  0  0  0
   14.0591   -5.2826   -9.3794 O   0  0  0  0  0  0  0  0  0  0  0  0
   15.2323   -6.2919   -7.5558 C   0  0  2  0  0  0  0  0  0  0  0  0
   15.2211   -7.6117   -6.8671 N   0  0  0  0  0  0  0  0  0  0  0  0
   15.0309   -8.8246   -7.4802 C   0  0  0  0  0  0  0  0  0  0  0  0
   15.0837   -9.8047   -6.5507 N   0  0  0  0  0  0  0  0  0  0  0  0
   15.3131   -9.2475   -5.3504 C   0  0  0  0  0  0  0  0  0  0  0  0
   15.4645   -9.7932   -4.0847 C   0  0  0  0  0  0  0  0  0  0  0  0
   15.3894  -11.1056   -3.9076 N   0  0  0  0  0  0  0  0  0  0  0  0
   15.7004   -8.9544   -3.0135 N   0  0  0  0  0  0  0  0  0  0  0  0
   15.7911   -7.5790   -3.1859 C   0  0  0  0  0  0  0  0  0  0  0  0
   15.6435   -7.0546   -4.4539 N   0  0  0  0  0  0  0  0  0  0  0  0
   15.4016   -7.8683   -5.5227 C   0  0  0  0  0  0  0  0  0  0  0  0
  2  3  1  6  0  0  0
  2  6  1  0  0  0  0
  2  1  1  0  0  0  0
  4  3  2  0  0  0  0
  5  3  1  0  0  0  0
  6  7  2  0  0  0  0
  8  7  1  6  0  0  0
  8  9  1  0  0  0  0
  8 10  1  0  0  0  0
 11 10  1  1  0  0  0
 11 13  1  0  0  0  0
 12 11  1  0  0  0  0
 12 17  1  0  0  0  0
 13 14  1  6  0  0  0
 13 15  1  0  0  0  0
 15 16  1  6  0  0  0
 17 18  1  1  0  0  0
 17 15  1  0  0  0  0
 18 19  1  0  0  0  0
 20 19  2  0  0  0  0
 21 27  2  0  0  0  0
 21 20  1  0  0  0  0
 22 21  1  0  0  0  0
 23 22  1  0  0  0  0
 24 22  2  0  0  0  0
 24 25  1  0  0  0  0
 25 26  2  0  0  0  0
 26 27  1  0  0  0  0
 27 18  1  0  0  0  0
M  END
>  <CHROM.1>
146.82585370,123.00399989,-169.27026121,46.86364905,107.76236124,-170.80024968
14.76040300,-4.71050169,-6.83389017,1.92136989,-1.11324295,-0.10851337

>  <Name>
lig.pdb

>  <RI>
0

>  <Rbt.Current_Directory>
/home/itssahil/PROJECTS/Mol_Feturizer/New_Systems/rnas/4b5r

>  <Rbt.Executable>
rbdock ($Id: //depot/dev/client3/rdock/2013.1/src/exe/rbdock.cxx#4 $)

>  <Rbt.Library>
libRbt.so (2013.1, Build901 2013/11/27)

>  <Rbt.Parameter_File>
/export/apps/rDock/src/rDock_2013.1_src/data/scripts/dock_solv.prm

>  <Rbt.Receptor>
prm/blind_docking_20.prm

>  <SCORE>
-6.62669

>  <SCORE.INTER>
-8.71449

>  <SCORE.INTER.CONST>
1

>  <SCORE.INTER.POLAR>
0

>  <SCORE.INTER.ROT>
6

>  <SCORE.INTER.SOLV>
16.0367

>  <SCORE.INTER.VDW>
-18.7552

>  <SCORE.INTER.norm>
-0.322759

>  <SCORE.INTRA>
2.08781

>  <SCORE.INTRA.DIHEDRAL>
2.35055

>  <SCORE.INTRA.DIHEDRAL.0>
10.2917

>  <SCORE.INTRA.POLAR>
0

>  <SCORE.INTRA.POLAR.0>
0

>  <SCORE.INTRA.REPUL>
0.0312651

>  <SCORE.INTRA.REPUL.0>
0

>  <SCORE.INTRA.SOLV>
-2.03789

>  <SCORE.INTRA.SOLV.lig_0>
-39.6315

>  <SCORE.INTRA.VDW>
1.77515

>  <SCORE.INTRA.VDW.0>
-4.02152

>  <SCORE.INTRA.norm>
0.0773261

>  <SCORE.RESTR>
0

>  <SCORE.RESTR.CAVITY>
0

>  <SCORE.RESTR.norm>
0

>  <SCORE.SYSTEM>
0

>  <SCORE.SYSTEM.CONST>
0

>  <SCORE.SYSTEM.DIHEDRAL>
0

>  <SCORE.SYSTEM.SOLV>
0

>  <SCORE.SYSTEM.norm>
0

>  <SCORE.heavy>
27

>  <SCORE.norm>
-0.245433

>  <RMSD>
16.380

$$$$
lig.pdb
 OpenBabel11021811493D
libRbt.so/2013.1/901 2013/11/27
 27 29  0  0  0  0  0  0  0  0999 V2000
   15.7930   -9.6974   -3.5758 N   0  0  0  0  0  0  0  0  0  0  0  0
   15.6858   -8.3490   -4.2116 C   0  0  2  0  0  0  0  0  0  0  0  0
   15.6672   -7.2824   -3.1206 C   0  0  0  0  0  0  0  0  0  0  0  0
   16.0075   -7.5776   -1.9809 O   0  0  0  0  0  0  0  0  0  0  0  0
   15.3146   -6.1147   -3.3304 O   0  0  0  0  0  0  0  0  0  0  0  0
   14.4845   -8.2089   -5.1683 C   0  0  0  0  0  0  0  0  0  0  0  0
   14.7429   -7.4753   -6.5105 C   0  0  0  0  0  0  0  0  0  0  0  0
   13.3465   -7.2676   -7.6982 S   0  0  2  0  0  0  0  0  0  0  0  0
   13.9346   -5.8894   -8.7052 C   0  0  0  0  0  0  0  0  0  0  0  0
   12.0846   -6.4175   -6.7253 C   0  0  0  0  0  0  0  0  0  0  0  0
   12.7444   -5.6490   -5.5880 C   0  0  1  0  0  0  0  0  0  0  0  0
   13.7428   -4.7487   -6.0440 O   0  0  0  0  0  0  0  0  0  0  0  0
   11.7842   -4.7700   -4.8326 C   0  0  1  0  0  0  0  0  0  0  0  0
   11.0304   -5.5369   -3.9384 O   0  0  0  0  0  0  0  0  0  0  0  0
   12.7494   -3.8316   -4.1426 C   0  0  1  0  0  0  0  0  0  0  0  0
   13.2592   -4.4331   -2.9699 O   0  0  0  0  0  0  0  0  0  0  0  0
   13.8849   -3.6625   -5.1459 C   0  0  2  0  0  0  0  0  0  0  0  0
   13.9059   -2.3567   -5.8607 N   0  0  0  0  0  0  0  0  0  0  0  0
   14.8399   -1.3680   -5.6789 C   0  0  0  0  0  0  0  0  0  0  0  0
   14.5488   -0.3278   -6.4917 N   0  0  0  0  0  0  0  0  0  0  0  0
   13.4492   -0.6306   -7.2010 C   0  0  0  0  0  0  0  0  0  0  0  0
   12.7437    0.0691   -8.1682 C   0  0  0  0  0  0  0  0  0  0  0  0
   13.1413    1.2774   -8.5446 N   0  0  0  0  0  0  0  0  0  0  0  0
   11.6272   -0.5098   -8.7382 N   0  0  0  0  0  0  0  0  0  0  0  0
   11.2052   -1.7783   -8.3605 C   0  0  0  0  0  0  0  0  0  0  0  0
   11.9233   -2.4618   -7.4006 N   0  0  0  0  0  0  0  0  0  0  0  0
   13.0245   -1.9012   -6.8207 C   0  0  0  0  0  0  0  0  0  0  0  0
  2  3  1  1  0  0  0
  2  6  1  0  0  0  0
  2  1  1  0  0  0  0
  4  3  2  0  0  0  0
  5  3  1  0  0  0  0
  6  7  2  0  0  0  0
  8  7  1  1  0  0  0
  8  9  1  0  0  0  0
  8 10  1  0  0  0  0
 11 10  1  6  0  0  0
 11 13  1  0  0  0  0
 12 11  1  0  0  0  0
 12 17  1  0  0  0  0
 13 14  1  1  0  0  0
 13 15  1  0  0  0  0
 15 16  1  1  0  0  0
 17 18  1  6  0  0  0
 17 15  1  0  0  0  0
 18 19  1  0  0  0  0
 20 19  2  0  0  0  0
 21 27  2  0  0  0  0
 21 20  1  0  0  0  0
 22 21  1  0  0  0  0
 23 22  1  0  0  0  0
 24 22  2  0  0  0  0
 24 25  1  0  0  0  0
 25 26  2  0  0  0  0
 26 27  1  0  0  0  0
 27 18  1  0  0  0  0
M  END
>  <CHROM.1>
14.92545670,-137.39960221,159.21879059,24.74116324,55.22371595,-130.37072216
13.57504743,-4.52743415,-5.84903426,-0.89834564,-1.15432717,0.17180543

>  <Name>
lig.pdb

>  <RI>
0

>  <Rbt.Current_Directory>
/home/itssahil/PROJECTS/Mol_Feturizer/New_Systems/rnas/4b5r

>  <Rbt.Executable>
rbdock ($Id: //depot/dev/client3/rdock/2013.1/src/exe/rbdock.cxx#4 $)

>  <Rbt.Library>
libRbt.so (2013.1, Build901 2013/11/27)

>  <Rbt.Parameter_File>
/export/apps/rDock/src/rDock_2013.1_src/data/scripts/dock_solv.prm

>  <Rbt.Receptor>
prm/blind_docking_20.prm

>  <SCORE>
-6.56755

>  <SCORE.INTER>
-5.92179

>  <SCORE.INTER.CONST>
1

>  <SCORE.INTER.POLAR>
0

>  <SCORE.INTER.ROT>
6

>  <SCORE.INTER.SOLV>
14.0303

>  <SCORE.INTER.VDW>
-16.2246

>  <SCORE.INTER.norm>
-0.219325

>  <SCORE.INTRA>
-0.645766

>  <SCORE.INTRA.DIHEDRAL>
-0.888808

>  <SCORE.INTRA.DIHEDRAL.0>
10.2917

>  <SCORE.INTRA.POLAR>
0

>  <SCORE.INTRA.POLAR.0>
0

>  <SCORE.INTRA.REPUL>
0

>  <SCORE.INTRA.REPUL.0>
0

>  <SCORE.INTRA.SOLV>
-2.43564

>  <SCORE.INTRA.SOLV.lig_0>
-39.6315

>  <SCORE.INTRA.VDW>
1.01646

>  <SCORE.INTRA.VDW.0>
-4.02152

>  <SCORE.INTRA.norm>
-0.0239173

>  <SCORE.RESTR>
0

>  <SCORE.RESTR.CAVITY>
0

>  <SCORE.RESTR.norm>
0

>  <SCORE.SYSTEM>
0

>  <SCORE.SYSTEM.CONST>
0

>  <SCORE.SYSTEM.DIHEDRAL>
0

>  <SCORE.SYSTEM.SOLV>
0

>  <SCORE.SYSTEM.norm>
0

>  <SCORE.heavy>
27

>  <SCORE.norm>
-0.243243

>  <RMSD>
16.392

$$$$
lig.pdb
 OpenBabel11021811493D
libRbt.so/2013.1/901 2013/11/27
 27 29  0  0  0  0  0  0  0  0999 V2000
   12.2051   -5.8965   -7.4461 N   0  0  0  0  0  0  0  0  0  0  0  0
   12.3494   -4.4945   -7.9438 C   0  0  2  0  0  0  0  0  0  0  0  0
   13.4891   -4.4389   -8.9568 C   0  0  0  0  0  0  0  0  0  0  0  0
   14.0125   -5.4802   -9.3355 O   0  0  0  0  0  0  0  0  0  0  0  0
   13.9232   -3.3764   -9.4199 O   0  0  0  0  0  0  0  0  0  0  0  0
   12.5320   -3.4541   -6.8203 C   0  0  0  0  0  0  0  0  0  0  0  0
   12.7065   -4.0049   -5.3806 C   0  0  0  0  0  0  0  0  0  0  0  0
   12.9231   -2.8136   -3.9886 S   0  0  2  0  0  0  0  0  0  0  0  0
   11.3838   -1.8744   -4.0779 C   0  0  0  0  0  0  0  0  0  0  0  0
   14.0680   -1.5860   -4.6547 C   0  0  0  0  0  0  0  0  0  0  0  0
   15.4466   -2.2099   -4.8267 C   0  0  1  0  0  0  0  0  0  0  0  0
   15.7212   -3.2054   -3.8526 O   0  0  0  0  0  0  0  0  0  0  0  0
   15.6096   -2.9329   -6.1367 C   0  0  1  0  0  0  0  0  0  0  0  0
   15.8453   -2.0166   -7.1667 O   0  0  0  0  0  0  0  0  0  0  0  0
   16.8095   -3.8009   -5.8284 C   0  0  1  0  0  0  0  0  0  0  0  0
   18.0015   -3.0590   -5.9886 O   0  0  0  0  0  0  0  0  0  0  0  0
   16.6422   -4.1570   -4.3554 C   0  0  2  0  0  0  0  0  0  0  0  0
   16.1924   -5.5513   -4.0906 N   0  0  0  0  0  0  0  0  0  0  0  0
   15.9305   -6.0781   -2.8509 C   0  0  0  0  0  0  0  0  0  0  0  0
   15.5451   -7.3665   -2.9887 N   0  0  0  0  0  0  0  0  0  0  0  0
   15.5450   -7.6782   -4.2951 C   0  0  0  0  0  0  0  0  0  0  0  0
   15.2264   -8.8447   -4.9735 C   0  0  0  0  0  0  0  0  0  0  0  0
   14.8321   -9.9213   -4.3064 N   0  0  0  0  0  0  0  0  0  0  0  0
   15.3187   -8.8694   -6.3510 N   0  0  0  0  0  0  0  0  0  0  0  0
   15.7209   -7.7465   -7.0631 C   0  0  0  0  0  0  0  0  0  0  0  0
   16.0282   -6.5927   -6.3711 N   0  0  0  0  0  0  0  0  0  0  0  0
   15.9506   -6.5532   -5.0090 C   0  0  0  0  0  0  0  0  0  0  0  0
  2  3  1  6  0  0  0
  2  6  1  0  0  0  0
  2  1  1  0  0  0  0
  4  3  2  0  0  0  0
  5  3  1  0  0  0  0
  6  7  2  0  0  0  0
  8  7  1  6  0  0  0
  8  9  1  0  0  0  0
  8 10  1  0  0  0  0
 11 10  1  1  0  0  0
 11 13  1  0  0  0  0
 12 11  1  0  0  0  0
 12 17  1  0  0  0  0
 13 14  1  6  0  0  0
 13 15  1  0  0  0  0
 15 16  1  1  0  0  0
 17 18  1  6  0  0  0
 17 15  1  0  0  0  0
 18 19  1  0  0  0  0
 20 19  2  0  0  0  0
 21 27  2  0  0  0  0
 21 20  1  0  0  0  0
 22 21  1  0  0  0  0
 23 22  1  0  0  0  0
 24 22  2  0  0  0  0
 24 25  1  0  0  0  0
 25 26  2  0  0  0  0
 26 27  1  0  0  0  0
 27 18  1  0  0  0  0
M  END
>  <CHROM.1>
7.79365684,6.91123146,60.47877087,-69.35106920,-32.00840733,-58.12120778
14.72835892,-4.79165012,-5.67238893,2.29592415,-1.08476187,0.48923098

>  <Name>
lig.pdb

>  <RI>
0

>  <Rbt.Current_Directory>
/home/itssahil/PROJECTS/Mol_Feturizer/New_Systems/rnas/4b5r

>  <Rbt.Executable>
rbdock ($Id: //depot/dev/client3/rdock/2013.1/src/exe/rbdock.cxx#4 $)

>  <Rbt.Library>
libRbt.so (2013.1, Build901 2013/11/27)

>  <Rbt.Parameter_File>
/export/apps/rDock/src/rDock_2013.1_src/data/scripts/dock_solv.prm

>  <Rbt.Receptor>
prm/blind_docking_20.prm

>  <SCORE>
-6.58481

>  <SCORE.INTER>
-6.93899

>  <SCORE.INTER.CONST>
1

>  <SCORE.INTER.POLAR>
0

>  <SCORE.INTER.ROT>
6

>  <SCORE.INTER.SOLV>
14.7334

>  <SCORE.INTER.VDW>
-17.1371

>  <SCORE.INTER.norm>
-0.257

>  <SCORE.INTRA>
0.354176

>  <SCORE.INTRA.DIHEDRAL>
0.711017

>  <SCORE.INTRA.DIHEDRAL.0>
10.2917

>  <SCORE.INTRA.POLAR>
0

>  <SCORE.INTRA.POLAR.0>
0

>  <SCORE.INTRA.REPUL>
0

>  <SCORE.INTRA.REPUL.0>
0

>  <SCORE.INTRA.SOLV>
-0.516232

>  <SCORE.INTRA.SOLV.lig_0>
-39.6315

>  <SCORE.INTRA.VDW>
0.256784

>  <SCORE.INTRA.VDW.0>
-4.02152

>  <SCORE.INTRA.norm>
0.0131176

>  <SCORE.RESTR>
0

>  <SCORE.RESTR.CAVITY>
0

>  <SCORE.RESTR.norm>
0

>  <SCORE.SYSTEM>
0

>  <SCORE.SYSTEM.CONST>
0

>  <SCORE.SYSTEM.DIHEDRAL>
0

>  <SCORE.SYSTEM.SOLV>
0

>  <SCORE.SYSTEM.norm>
0

>  <SCORE.heavy>
27

>  <SCORE.norm>
-0.243882

>  <RMSD>
16.402

$$$$
lig.pdb
 OpenBabel11021811493D
libRbt.so/2013.1/901 2013/11/27
 27 29  0  0  0  0  0  0  0  0999 V2000
   13.7353   -4.4161   -9.2473 N   0  0  0  0  0  0  0  0  0  0  0  0
   12.9584   -5.6733   -9.0242 C   0  0  2  0  0  0  0  0  0  0  0  0
   11.6416   -5.3308   -8.3337 C   0  0  0  0  0  0  0  0  0  0  0  0
   11.5964   -4.3881   -7.5520 O   0  0  0  0  0  0  0  0  0  0  0  0
   10.5994   -5.9711   -8.5220 O   0  0  0  0  0  0  0  0  0  0  0  0
   13.7414   -6.7573   -8.2564 C   0  0  0  0  0  0  0  0  0  0  0  0
   15.1041   -6.3346   -7.6472 C   0  0  0  0  0  0  0  0  0  0  0  0
   16.0951   -7.5852   -6.7214 S   0  0  2  0  0  0  0  0  0  0  0  0
   15.3864   -9.1287   -7.3336 C   0  0  0  0  0  0  0  0  0  0  0  0
   15.3757   -7.5555   -5.0651 C   0  0  0  0  0  0  0  0  0  0  0  0
   16.0183   -6.4437   -4.2462 C   0  0  1  0  0  0  0  0  0  0  0  0
   15.9594   -5.1828   -4.8957 O   0  0  0  0  0  0  0  0  0  0  0  0
   15.3285   -6.2038   -2.9302 C   0  0  1  0  0  0  0  0  0  0  0  0
   15.7140   -7.1745   -2.0001 O   0  0  0  0  0  0  0  0  0  0  0  0
   15.8433   -4.8218   -2.5937 C   0  0  1  0  0  0  0  0  0  0  0  0
   17.1255   -4.9092   -2.0062 O   0  0  0  0  0  0  0  0  0  0  0  0
   15.9650   -4.1306   -3.9473 C   0  0  2  0  0  0  0  0  0  0  0  0
   14.9091   -3.1223   -4.2380 N   0  0  0  0  0  0  0  0  0  0  0  0
   13.8274   -2.8533   -3.4376 C   0  0  0  0  0  0  0  0  0  0  0  0
   13.0810   -1.8833   -4.0115 N   0  0  0  0  0  0  0  0  0  0  0  0
   13.6658   -1.5151   -5.1632 C   0  0  0  0  0  0  0  0  0  0  0  0
   13.3257   -0.5700   -6.1190 C   0  0  0  0  0  0  0  0  0  0  0  0
   12.2359    0.1715   -5.9699 N   0  0  0  0  0  0  0  0  0  0  0  0
   14.1382   -0.4064   -7.2234 N   0  0  0  0  0  0  0  0  0  0  0  0
   15.2875   -1.1692   -7.3875 C   0  0  0  0  0  0  0  0  0  0  0  0
   15.6130   -2.1008   -6.4229 N   0  0  0  0  0  0  0  0  0  0  0  0
   14.8168   -2.2815   -5.3290 C   0  0  0  0  0  0  0  0  0  0  0  0
  2  3  1  1  0  0  0
  2  6  1  0  0  0  0
  2  1  1  0  0  0  0
  4  3  2  0  0  0  0
  5  3  1  0  0  0  0
  6  7  2  0  0  0  0
  8  7  1  6  0  0  0
  8  9  1  0  0  0  0
  8 10  1  0  0  0  0
 11 10  1  6  0  0  0
 11 13  1  0  0  0  0
 12 11  1  0  0  0  0
 12 17  1  0  0  0  0
 13 14  1  1  0  0  0
 13 15  1  0  0  0  0
 15 16  1  6  0  0  0
 17 18  1  6  0  0  0
 17 15  1  0  0  0  0
 18 19  1  0  0  0  0
 20 19  2  0  0  0  0
 21 27  2  0  0  0  0
 21 20  1  0  0  0  0
 22 21  1  0  0  0  0
 23 22  1  0  0  0  0
 24 22  2  0  0  0  0
 24 25  1  0  0  0  0
 25 26  2  0  0  0  0
 26 27  1  0  0  0  0
 27 18  1  0  0  0  0
M  END
>  <CHROM.1>
-32.38917959,8.90951134,19.75916297,-85.13730392,53.39625127,114.91313669
14.49613421,-4.57879505,-5.78904540,2.36595031,-0.98882285,0.43738571

>  <Name>
lig.pdb

>  <RI>
0

>  <Rbt.Current_Directory>
/home/itssahil/PROJECTS/Mol_Feturizer/New_Systems/rnas/4b5r

>  <Rbt.Executable>
rbdock ($Id: //depot/dev/client3/rdock/2013.1/src/exe/rbdock.cxx#4 $)

>  <Rbt.Library>
libRbt.so (2013.1, Build901 2013/11/27)

>  <Rbt.Parameter_File>
/export/apps/rDock/src/rDock_2013.1_src/data/scripts/dock_solv.prm

>  <Rbt.Receptor>
prm/blind_docking_20.prm

>  <SCORE>
-9.58644

>  <SCORE.INTER>
-10.5464

>  <SCORE.INTER.CONST>
1

>  <SCORE.INTER.POLAR>
0

>  <SCORE.INTER.ROT>
6

>  <SCORE.INTER.SOLV>
20.2699

>  <SCORE.INTER.VDW>
-21.3876

>  <SCORE.INTER.norm>
-0.390607

>  <SCORE.INTRA>
0.959962

>  <SCORE.INTRA.DIHEDRAL>
-1.07263

>  <SCORE.INTRA.DIHEDRAL.0>
10.2917

>  <SCORE.INTRA.POLAR>
0

>  <SCORE.INTRA.POLAR.0>
0

>  <SCORE.INTRA.REPUL>
0.0099037

>  <SCORE.INTRA.REPUL.0>
0

>  <SCORE.INTRA.SOLV>
-1.87575

>  <SCORE.INTRA.SOLV.lig_0>
-39.6315

>  <SCORE.INTRA.VDW>
2.38463

>  <SCORE.INTRA.VDW.0>
-4.02152

>  <SCORE.INTRA.norm>
0.0355541

>  <SCORE.RESTR>
0

>  <SCORE.RESTR.CAVITY>
0

>  <SCORE.RESTR.norm>
0

>  <SCORE.SYSTEM>
0

>  <SCORE.SYSTEM.CONST>
0

>  <SCORE.SYSTEM.DIHEDRAL>
0

>  <SCORE.SYSTEM.SOLV>
0

>  <SCORE.SYSTEM.norm>
0

>  <SCORE.heavy>
27

>  <SCORE.norm>
-0.355053

>  <RMSD>
16.404

$$$$
lig.pdb
 OpenBabel11021811493D
libRbt.so/2013.1/901 2013/11/27
 27 29  0  0  0  0  0  0  0  0999 V2000
    6.3247  -14.5792  -21.1236 N   0  0  0  0  0  0  0  0  0  0  0  0
    6.6397  -13.3981  -20.2635 C   0  0  2  0  0  0  0  0  0  0  0  0
    6.1697  -13.6780  -18.8391 C   0  0  0  0  0  0  0  0  0  0  0  0
    6.9976  -13.8696  -17.9562 O   0  0  0  0  0  0  0  0  0  0  0  0
    4.9735  -13.7275  -18.5253 O   0  0  0  0  0  0  0  0  0  0  0  0
    6.0707  -12.0701  -20.8025 C   0  0  0  0  0  0  0  0  0  0  0  0
    7.0984  -11.0276  -21.3160 C   0  0  0  0  0  0  0  0  0  0  0  0
    6.4848   -9.4146  -21.9681 S   0  0  2  0  0  0  0  0  0  0  0  0
    6.4772   -8.4030  -20.4728 C   0  0  0  0  0  0  0  0  0  0  0  0
    4.7095   -9.6833  -22.1632 C   0  0  0  0  0  0  0  0  0  0  0  0
    4.0085   -8.3478  -22.3745 C   0  0  1  0  0  0  0  0  0  0  0  0
    4.3329   -7.7517  -23.6214 O   0  0  0  0  0  0  0  0  0  0  0  0
    2.5085   -8.4663  -22.4111 C   0  0  1  0  0  0  0  0  0  0  0  0
    2.0022   -8.5788  -21.1123 O   0  0  0  0  0  0  0  0  0  0  0  0
    2.1421   -7.1599  -23.0800 C   0  0  1  0  0  0  0  0  0  0  0  0
    2.1245   -6.1143  -22.1296 O   0  0  0  0  0  0  0  0  0  0  0  0
    3.2798   -6.9146  -24.0649 C   0  0  2  0  0  0  0  0  0  0  0  0
    2.9426   -7.1646  -25.4932 N   0  0  0  0  0  0  0  0  0  0  0  0
    3.1884   -6.2992  -26.5294 C   0  0  0  0  0  0  0  0  0  0  0  0
    2.7521   -6.8527  -27.6829 N   0  0  0  0  0  0  0  0  0  0  0  0
    2.2372   -8.0632  -27.4115 C   0  0  0  0  0  0  0  0  0  0  0  0
    1.6721   -9.0368  -28.2209 C   0  0  0  0  0  0  0  0  0  0  0  0
    1.5709   -8.8444  -29.5295 N   0  0  0  0  0  0  0  0  0  0  0  0
    1.2224  -10.2104  -27.6490 N   0  0  0  0  0  0  0  0  0  0  0  0
    1.3309  -10.4294  -26.2815 C   0  0  0  0  0  0  0  0  0  0  0  0
    1.9014   -9.4512  -25.4926 N   0  0  0  0  0  0  0  0  0  0  0  0
    2.3436   -8.2817  -26.0402 C   0  0  0  0  0  0  0  0  0  0  0  0
  2  3  1  1  0  0  0
  2  6  1  0  0  0  0
  2  1  1  0  0  0  0
  4  3  2  0  0  0  0
  5  3  1  0  0  0  0
  6  7  2  0  0  0  0
  8  7  1  1  0  0  0
  8  9  1  0  0  0  0
  8 10  1  0  0  0  0
 11 10  1  6  0  0  0
 11 13  1  0  0  0  0
 12 11  1  0  0  0  0
 12 17  1  0  0  0  0
 13 14  1  1  0  0  0
 13 15  1  0  0  0  0
 15 16  1  1  0  0  0
 17 18  1  6  0  0  0
 17 15  1  0  0  0  0
 18 19  1  0  0  0  0
 20 19  2  0  0  0  0
 21 27  2  0  0  0  0
 21 20  1  0  0  0  0
 22 21  1  0  0  0  0
 23 22  1  0  0  0  0
 24 22  2  0  0  0  0
 24 25  1  0  0  0  0
 25 26  2  0  0  0  0
 26 27  1  0  0  0  0
 27 18  1  0  0  0  0
M  END
>  <CHROM.1>
109.32131086,-111.47674146,90.23668869,166.42827801,68.25247394,-110.24052934
3.98003777,-9.55153513,-23.25684832,0.17046473,1.10264582,-2.75486611

>  <Name>
lig.pdb

>  <RI>
0

>  <Rbt.Current_Directory>
/home/itssahil/PROJECTS/Mol_Feturizer/New_Systems/rnas/4b5r

>  <Rbt.Executable>
rbdock ($Id: //depot/dev/client3/rdock/2013.1/src/exe/rbdock.cxx#4 $)

>  <Rbt.Library>
libRbt.so (2013.1, Build901 2013/11/27)

>  <Rbt.Parameter_File>
/export/apps/rDock/src/rDock_2013.1_src/data/scripts/dock_solv.prm

>  <Rbt.Receptor>
prm/blind_docking_80.prm

>  <SCORE>
-8.98684

>  <SCORE.INTER>
-8.24289

>  <SCORE.INTER.CONST>
1

>  <SCORE.INTER.POLAR>
0

>  <SCORE.INTER.ROT>
6

>  <SCORE.INTER.SOLV>
13.4938

>  <SCORE.INTER.VDW>
-17.5932

>  <SCORE.INTER.norm>
-0.305292

>  <SCORE.INTRA>
-0.743953

>  <SCORE.INTRA.DIHEDRAL>
-1.91893

>  <SCORE.INTRA.DIHEDRAL.0>
10.2917

>  <SCORE.INTRA.POLAR>
0

>  <SCORE.INTRA.POLAR.0>
0

>  <SCORE.INTRA.REPUL>
0

>  <SCORE.INTRA.REPUL.0>
0

>  <SCORE.INTRA.SOLV>
-2.86786

>  <SCORE.INTRA.SOLV.lig_0>
-39.6315

>  <SCORE.INTRA.VDW>
1.64944

>  <SCORE.INTRA.VDW.0>
-4.02152

>  <SCORE.INTRA.norm>
-0.0275538

>  <SCORE.RESTR>
0

>  <SCORE.RESTR.CAVITY>
0

>  <SCORE.RESTR.norm>
0

>  <SCORE.SYSTEM>
0

>  <SCORE.SYSTEM.CONST>
0

>  <SCORE.SYSTEM.DIHEDRAL>
0

>  <SCORE.SYSTEM.SOLV>
0

>  <SCORE.SYSTEM.norm>
0

>  <SCORE.heavy>
27

>  <SCORE.norm>
-0.332846

>  <RMSD>
16.408

$$$$
lig.pdb
 OpenBabel11021811493D
libRbt.so/2013.1/901 2013/11/27
 27 29  0  0  0  0  0  0  0  0999 V2000
   15.6712   -4.7855   -3.4732 N   0  0  0  0  0  0  0  0  0  0  0  0
   15.6112   -3.7309   -4.5307 C   0  0  2  0  0  0  0  0  0  0  0  0
   14.5401   -2.7102   -4.1579 C   0  0  0  0  0  0  0  0  0  0  0  0
   14.7873   -1.5135   -4.2502 O   0  0  0  0  0  0  0  0  0  0  0  0
   13.4158   -3.0349   -3.7548 O   0  0  0  0  0  0  0  0  0  0  0  0
   15.3978   -4.2902   -5.9518 C   0  0  0  0  0  0  0  0  0  0  0  0
   15.5440   -5.8246   -6.1274 C   0  0  0  0  0  0  0  0  0  0  0  0
   15.3079   -6.5584   -7.8035 S   0  0  2  0  0  0  0  0  0  0  0  0
   13.5142   -6.4649   -7.9861 C   0  0  0  0  0  0  0  0  0  0  0  0
   15.4932   -8.3324   -7.5202 C   0  0  0  0  0  0  0  0  0  0  0  0
   16.9532   -8.6566   -7.2328 C   0  0  1  0  0  0  0  0  0  0  0  0
   17.3434   -8.2986   -5.9156 O   0  0  0  0  0  0  0  0  0  0  0  0
   17.2593  -10.1281   -7.3120 C   0  0  1  0  0  0  0  0  0  0  0  0
   17.3868  -10.5225   -8.6477 O   0  0  0  0  0  0  0  0  0  0  0  0
   18.5647  -10.1825   -6.5497 C   0  0  1  0  0  0  0  0  0  0  0  0
   19.6382   -9.8239   -7.3958 O   0  0  0  0  0  0  0  0  0  0  0  0
   18.4091   -9.1181   -5.4692 C   0  0  2  0  0  0  0  0  0  0  0  0
   18.1627   -9.6425   -4.0979 N   0  0  0  0  0  0  0  0  0  0  0  0
   19.0284   -9.5316   -3.0390 C   0  0  0  0  0  0  0  0  0  0  0  0
   18.4786  -10.1194   -1.9529 N   0  0  0  0  0  0  0  0  0  0  0  0
   17.2702  -10.5999   -2.2891 C   0  0  0  0  0  0  0  0  0  0  0  0
   16.3005  -11.2719   -1.5608 C   0  0  0  0  0  0  0  0  0  0  0  0
   16.4952  -11.5443   -0.2773 N   0  0  0  0  0  0  0  0  0  0  0  0
   15.1283  -11.6479   -2.1864 N   0  0  0  0  0  0  0  0  0  0  0  0
   14.9069  -11.3606   -3.5273 C   0  0  0  0  0  0  0  0  0  0  0  0
   15.8812  -10.6858   -4.2345 N   0  0  0  0  0  0  0  0  0  0  0  0
   17.0493  -10.3141   -3.6341 C   0  0  0  0  0  0  0  0  0  0  0  0
  2  3  1  1  0  0  0
  2  6  1  0  0  0  0
  2  1  1  0  0  0  0
  4  3  2  0  0  0  0
  5  3  1  0  0  0  0
  6  7  2  0  0  0  0
  8  7  1  1  0  0  0
  8  9  1  0  0  0  0
  8 10  1  0  0  0  0
 11 10  1  1  0  0  0
 11 13  1  0  0  0  0
 12 11  1  0  0  0  0
 12 17  1  0  0  0  0
 13 14  1  6  0  0  0
 13 15  1  0  0  0  0
 15 16  1  6  0  0  0
 17 18  1  1  0  0  0
 17 15  1  0  0  0  0
 18 19  1  0  0  0  0
 20 19  2  0  0  0  0
 21 27  2  0  0  0  0
 21 20  1  0  0  0  0
 22 21  1  0  0  0  0
 23 22  1  0  0  0  0
 24 22  2  0  0  0  0
 24 25  1  0  0  0  0
 25 26  2  0  0  0  0
 26 27  1  0  0  0  0
 27 18  1  0  0  0  0
M  END
>  <CHROM.1>
134.16990806,-11.17091508,-74.47126016,-71.60624262,76.44292889,-127.09922586
16.36320278,-8.04608829,-5.04581626,2.63573940,1.16948627,-1.25963201

>  <Name>
lig.pdb

>  <RI>
0

>  <Rbt.Current_Directory>
/home/itssahil/PROJECTS/Mol_Feturizer/New_Systems/rnas/4b5r

>  <Rbt.Executable>
rbdock ($Id: //depot/dev/client3/rdock/2013.1/src/exe/rbdock.cxx#4 $)

>  <Rbt.Library>
libRbt.so (2013.1, Build901 2013/11/27)

>  <Rbt.Parameter_File>
/export/apps/rDock/src/rDock_2013.1_src/data/scripts/dock_solv.prm

>  <Rbt.Receptor>
prm/blind_docking_40.prm

>  <SCORE>
-11.2142

>  <SCORE.INTER>
-10.1497

>  <SCORE.INTER.CONST>
1

>  <SCORE.INTER.POLAR>
0

>  <SCORE.INTER.ROT>
6

>  <SCORE.INTER.SOLV>
14.8915

>  <SCORE.INTER.VDW>
-19.3303

>  <SCORE.INTER.norm>
-0.375916

>  <SCORE.INTRA>
-1.06451

>  <SCORE.INTRA.DIHEDRAL>
-1.7304

>  <SCORE.INTRA.DIHEDRAL.0>
10.2917

>  <SCORE.INTRA.POLAR>
0

>  <SCORE.INTRA.POLAR.0>
0

>  <SCORE.INTRA.REPUL>
0

>  <SCORE.INTRA.REPUL.0>
0

>  <SCORE.INTRA.SOLV>
-2.22956

>  <SCORE.INTRA.SOLV.lig_0>
-39.6315

>  <SCORE.INTRA.VDW>
0.915468

>  <SCORE.INTRA.VDW.0>
-4.02152

>  <SCORE.INTRA.norm>
-0.0394264

>  <SCORE.RESTR>
0

>  <SCORE.RESTR.CAVITY>
0

>  <SCORE.RESTR.norm>
0

>  <SCORE.SYSTEM>
0

>  <SCORE.SYSTEM.CONST>
0

>  <SCORE.SYSTEM.DIHEDRAL>
0

>  <SCORE.SYSTEM.SOLV>
0

>  <SCORE.SYSTEM.norm>
0

>  <SCORE.heavy>
27

>  <SCORE.norm>
-0.415342

>  <RMSD>
16.455

$$$$
lig.pdb
 OpenBabel11021811493D
libRbt.so/2013.1/901 2013/11/27
 27 29  0  0  0  0  0  0  0  0999 V2000
   11.7867   -0.7626   -8.5727 N   0  0  0  0  0  0  0  0  0  0  0  0
   12.8429    0.2948   -8.5535 C   0  0  2  0  0  0  0  0  0  0  0  0
   13.4104    0.4595   -9.9603 C   0  0  0  0  0  0  0  0  0  0  0  0
   13.6299   -0.5338  -10.6436 O   0  0  0  0  0  0  0  0  0  0  0  0
   13.6698    1.5646  -10.4535 O   0  0  0  0  0  0  0  0  0  0  0  0
   13.9542    0.0415   -7.5150 C   0  0  0  0  0  0  0  0  0  0  0  0
   13.7842   -1.1991   -6.5992 C   0  0  0  0  0  0  0  0  0  0  0  0
   15.0748   -1.5562   -5.3302 S   0  0  2  0  0  0  0  0  0  0  0  0
   16.5519   -1.7146   -6.3562 C   0  0  0  0  0  0  0  0  0  0  0  0
   14.7996   -3.2939   -4.9221 C   0  0  0  0  0  0  0  0  0  0  0  0
   14.6832   -4.1097   -6.2028 C   0  0  1  0  0  0  0  0  0  0  0  0
   15.5703   -5.2178   -6.2273 O   0  0  0  0  0  0  0  0  0  0  0  0
   13.3249   -4.7313   -6.3870 C   0  0  1  0  0  0  0  0  0  0  0  0
   12.4180   -3.7766   -6.8583 O   0  0  0  0  0  0  0  0  0  0  0  0
   13.6443   -5.8013   -7.4075 C   0  0  1  0  0  0  0  0  0  0  0  0
   13.6634   -5.2453   -8.7065 O   0  0  0  0  0  0  0  0  0  0  0  0
   15.0534   -6.2547   -7.0423 C   0  0  2  0  0  0  0  0  0  0  0  0
   15.1348   -7.5785   -6.3660 N   0  0  0  0  0  0  0  0  0  0  0  0
   14.9569   -8.7938   -6.9777 C   0  0  0  0  0  0  0  0  0  0  0  0
   15.1028   -9.7772   -6.0617 N   0  0  0  0  0  0  0  0  0  0  0  0
   15.3804   -9.2192   -4.8719 C   0  0  0  0  0  0  0  0  0  0  0  0
   15.6273   -9.7668   -3.6223 C   0  0  0  0  0  0  0  0  0  0  0  0
   15.6146  -11.0824   -3.4528 N   0  0  0  0  0  0  0  0  0  0  0  0
   15.8926   -8.9264   -2.5592 N   0  0  0  0  0  0  0  0  0  0  0  0
   15.9187   -7.5473   -2.7243 C   0  0  0  0  0  0  0  0  0  0  0  0
   15.6762   -7.0209   -3.9767 N   0  0  0  0  0  0  0  0  0  0  0  0
   15.4040   -7.8365   -5.0368 C   0  0  0  0  0  0  0  0  0  0  0  0
  2  3  1  6  0  0  0
  2  6  1  0  0  0  0
  2  1  1  0  0  0  0
  4  3  2  0  0  0  0
  5  3  1  0  0  0  0
  6  7  2  0  0  0  0
  8  7  1  6  0  0  0
  8  9  1  0  0  0  0
  8 10  1  0  0  0  0
 11 10  1  1  0  0  0
 11 13  1  0  0  0  0
 12 11  1  0  0  0  0
 12 17  1  0  0  0  0
 13 14  1  6  0  0  0
 13 15  1  0  0  0  0
 15 16  1  6  0  0  0
 17 18  1  1  0  0  0
 17 15  1  0  0  0  0
 18 19  1  0  0  0  0
 20 19  2  0  0  0  0
 21 27  2  0  0  0  0
 21 20  1  0  0  0  0
 22 21  1  0  0  0  0
 23 22  1  0  0  0  0
 24 22  2  0  0  0  0
 24 25  1  0  0  0  0
 25 26  2  0  0  0  0
 26 27  1  0  0  0  0
 27 18  1  0  0  0  0
M  END
>  <CHROM.1>
-41.52111527,-3.42209634,-58.26103416,48.41654125,126.93276891,-166.88869150
14.54888080,-4.55529241,-6.43321888,2.06341298,-1.15552908,0.00566337

>  <Name>
lig.pdb

>  <RI>
0

>  <Rbt.Current_Directory>
/home/itssahil/PROJECTS/Mol_Feturizer/New_Systems/rnas/4b5r

>  <Rbt.Executable>
rbdock ($Id: //depot/dev/client3/rdock/2013.1/src/exe/rbdock.cxx#4 $)

>  <Rbt.Library>
libRbt.so (2013.1, Build901 2013/11/27)

>  <Rbt.Parameter_File>
/export/apps/rDock/src/rDock_2013.1_src/data/scripts/dock_solv.prm

>  <Rbt.Receptor>
prm/blind_docking_20.prm

>  <SCORE>
-5.0435

>  <SCORE.INTER>
-7.26535

>  <SCORE.INTER.CONST>
1

>  <SCORE.INTER.POLAR>
0

>  <SCORE.INTER.ROT>
6

>  <SCORE.INTER.SOLV>
12.0907

>  <SCORE.INTER.VDW>
-16.4738

>  <SCORE.INTER.norm>
-0.269087

>  <SCORE.INTRA>
2.22185

>  <SCORE.INTRA.DIHEDRAL>
1.79678

>  <SCORE.INTRA.DIHEDRAL.0>
10.2917

>  <SCORE.INTRA.POLAR>
0

>  <SCORE.INTRA.POLAR.0>
0

>  <SCORE.INTRA.REPUL>
0

>  <SCORE.INTRA.REPUL.0>
0

>  <SCORE.INTRA.SOLV>
-1.08672

>  <SCORE.INTRA.SOLV.lig_0>
-39.6315

>  <SCORE.INTRA.VDW>
1.86682

>  <SCORE.INTRA.VDW.0>
-4.02152

>  <SCORE.INTRA.norm>
0.0822907

>  <SCORE.RESTR>
0

>  <SCORE.RESTR.CAVITY>
0

>  <SCORE.RESTR.norm>
0

>  <SCORE.SYSTEM>
0

>  <SCORE.SYSTEM.CONST>
0

>  <SCORE.SYSTEM.DIHEDRAL>
0

>  <SCORE.SYSTEM.SOLV>
0

>  <SCORE.SYSTEM.norm>
0

>  <SCORE.heavy>
27

>  <SCORE.norm>
-0.186796

>  <RMSD>
16.456

$$$$
lig.pdb
 OpenBabel11021811493D
libRbt.so/2013.1/901 2013/11/27
 27 29  0  0  0  0  0  0  0  0999 V2000
   14.1436   -0.3373  -10.7927 N   0  0  0  0  0  0  0  0  0  0  0  0
   13.2127   -1.2844  -10.1069 C   0  0  2  0  0  0  0  0  0  0  0  0
   11.8879   -0.5763   -9.8389 C   0  0  0  0  0  0  0  0  0  0  0  0
   11.1509   -0.2974  -10.7774 O   0  0  0  0  0  0  0  0  0  0  0  0
   11.5154   -0.2588   -8.7021 O   0  0  0  0  0  0  0  0  0  0  0  0
   13.7976   -1.9076   -8.8234 C   0  0  0  0  0  0  0  0  0  0  0  0
   13.6810   -3.4478   -8.6795 C   0  0  0  0  0  0  0  0  0  0  0  0
   14.3547   -4.2569   -7.1646 S   0  0  2  0  0  0  0  0  0  0  0  0
   12.8385   -4.7012   -6.2911 C   0  0  0  0  0  0  0  0  0  0  0  0
   14.8969   -2.8672   -6.1465 C   0  0  0  0  0  0  0  0  0  0  0  0
   15.8579   -3.3614   -5.0733 C   0  0  1  0  0  0  0  0  0  0  0  0
   15.2947   -4.3825   -4.2637 O   0  0  0  0  0  0  0  0  0  0  0  0
   17.1012   -3.9940   -5.6383 C   0  0  1  0  0  0  0  0  0  0  0  0
   17.9995   -3.0052   -6.0524 O   0  0  0  0  0  0  0  0  0  0  0  0
   17.5883   -4.7728   -4.4365 C   0  0  1  0  0  0  0  0  0  0  0  0
   18.3092   -3.9246   -3.5659 O   0  0  0  0  0  0  0  0  0  0  0  0
   16.3083   -5.2231   -3.7414 C   0  0  2  0  0  0  0  0  0  0  0  0
   15.9708   -6.6630   -3.9118 N   0  0  0  0  0  0  0  0  0  0  0  0
   15.8552   -7.5763   -2.8942 C   0  0  0  0  0  0  0  0  0  0  0  0
   15.5386   -8.7830   -3.4147 N   0  0  0  0  0  0  0  0  0  0  0  0
   15.4393   -8.6633   -4.7488 C   0  0  0  0  0  0  0  0  0  0  0  0
   15.1327   -9.5779   -5.7449 C   0  0  0  0  0  0  0  0  0  0  0  0
   14.8674  -10.8405   -5.4366 N   0  0  0  0  0  0  0  0  0  0  0  0
   15.1011   -9.1567   -7.0595 N   0  0  0  0  0  0  0  0  0  0  0  0
   15.3674   -7.8354   -7.3959 C   0  0  0  0  0  0  0  0  0  0  0  0
   15.6648   -6.9382   -6.3903 N   0  0  0  0  0  0  0  0  0  0  0  0
   15.7086   -7.3393   -5.0864 C   0  0  0  0  0  0  0  0  0  0  0  0
  2  3  1  1  0  0  0
  2  6  1  0  0  0  0
  2  1  1  0  0  0  0
  4  3  2  0  0  0  0
  5  3  1  0  0  0  0
  6  7  2  0  0  0  0
  8  7  1  6  0  0  0
  8  9  1  0  0  0  0
  8 10  1  0  0  0  0
 11 10  1  6  0  0  0
 11 13  1  0  0  0  0
 12 11  1  0  0  0  0
 12 17  1  0  0  0  0
 13 14  1  1  0  0  0
 13 15  1  0  0  0  0
 15 16  1  1  0  0  0
 17 18  1  6  0  0  0
 17 15  1  0  0  0  0
 18 19  1  0  0  0  0
 20 19  2  0  0  0  0
 21 27  2  0  0  0  0
 21 20  1  0  0  0  0
 22 21  1  0  0  0  0
 23 22  1  0  0  0  0
 24 22  2  0  0  0  0
 24 25  1  0  0  0  0
 25 26  2  0  0  0  0
 26 27  1  0  0  0  0
 27 18  1  0  0  0  0
M  END
>  <CHROM.1>
69.90460088,-131.11490861,107.38540544,-162.37540097,-56.40586888,-121.34589753
14.94564704,-4.77174138,-6.42265611,-2.10128214,0.80563338,2.92084503

>  <Name>
lig.pdb

>  <RI>
0

>  <Rbt.Current_Directory>
/home/itssahil/PROJECTS/Mol_Feturizer/New_Systems/rnas/4b5r

>  <Rbt.Executable>
rbdock ($Id: //depot/dev/client3/rdock/2013.1/src/exe/rbdock.cxx#4 $)

>  <Rbt.Library>
libRbt.so (2013.1, Build901 2013/11/27)

>  <Rbt.Parameter_File>
/export/apps/rDock/src/rDock_2013.1_src/data/scripts/dock_solv.prm

>  <Rbt.Receptor>
prm/blind_docking_20.prm

>  <SCORE>
-5.32582

>  <SCORE.INTER>
-4.10448

>  <SCORE.INTER.CONST>
1

>  <SCORE.INTER.POLAR>
0

>  <SCORE.INTER.ROT>
6

>  <SCORE.INTER.SOLV>
16.3541

>  <SCORE.INTER.VDW>
-15.7877

>  <SCORE.INTER.norm>
-0.152018

>  <SCORE.INTRA>
-1.22134

>  <SCORE.INTRA.DIHEDRAL>
-1.02356

>  <SCORE.INTRA.DIHEDRAL.0>
10.2917

>  <SCORE.INTRA.POLAR>
0

>  <SCORE.INTRA.POLAR.0>
0

>  <SCORE.INTRA.REPUL>
0

>  <SCORE.INTRA.REPUL.0>
0

>  <SCORE.INTRA.SOLV>
-2.20539

>  <SCORE.INTRA.SOLV.lig_0>
-39.6315

>  <SCORE.INTRA.VDW>
0.39313

>  <SCORE.INTRA.VDW.0>
-4.02152

>  <SCORE.INTRA.norm>
-0.0452349

>  <SCORE.RESTR>
0

>  <SCORE.RESTR.CAVITY>
0

>  <SCORE.RESTR.norm>
0

>  <SCORE.SYSTEM>
0

>  <SCORE.SYSTEM.CONST>
0

>  <SCORE.SYSTEM.DIHEDRAL>
0

>  <SCORE.SYSTEM.SOLV>
0

>  <SCORE.SYSTEM.norm>
0

>  <SCORE.heavy>
27

>  <SCORE.norm>
-0.197253

>  <RMSD>
16.458

$$$$
lig.pdb
 OpenBabel11021811493D
libRbt.so/2013.1/901 2013/11/27
 27 29  0  0  0  0  0  0  0  0999 V2000
   18.0724   -5.7520   -2.5198 N   0  0  0  0  0  0  0  0  0  0  0  0
   17.6692   -6.1624   -3.8992 C   0  0  2  0  0  0  0  0  0  0  0  0
   17.5788   -4.9219   -4.7830 C   0  0  0  0  0  0  0  0  0  0  0  0
   18.0847   -3.8719   -4.4045 O   0  0  0  0  0  0  0  0  0  0  0  0
   17.0058   -4.9206   -5.8801 O   0  0  0  0  0  0  0  0  0  0  0  0
   16.3700   -6.9918   -3.9439 C   0  0  0  0  0  0  0  0  0  0  0  0
   16.4839   -8.4384   -4.4925 C   0  0  0  0  0  0  0  0  0  0  0  0
   14.9657   -9.4830   -4.5791 S   0  0  2  0  0  0  0  0  0  0  0  0
   15.5403  -10.8677   -5.5849 C   0  0  0  0  0  0  0  0  0  0  0  0
   13.9337   -8.6323   -5.7929 C   0  0  0  0  0  0  0  0  0  0  0  0
   13.6210   -7.2243   -5.3040 C   0  0  1  0  0  0  0  0  0  0  0  0
   14.3844   -6.2315   -5.9727 O   0  0  0  0  0  0  0  0  0  0  0  0
   12.1953   -6.8134   -5.5563 C   0  0  1  0  0  0  0  0  0  0  0  0
   11.3525   -7.3833   -4.5967 O   0  0  0  0  0  0  0  0  0  0  0  0
   12.3114   -5.3107   -5.4270 C   0  0  1  0  0  0  0  0  0  0  0  0
   12.2716   -4.9345   -4.0654 O   0  0  0  0  0  0  0  0  0  0  0  0
   13.6936   -4.9949   -5.9876 C   0  0  2  0  0  0  0  0  0  0  0  0
   13.6989   -4.3781   -7.3425 N   0  0  0  0  0  0  0  0  0  0  0  0
   13.7099   -5.0686   -8.5283 C   0  0  0  0  0  0  0  0  0  0  0  0
   13.7112   -4.1885   -9.5544 N   0  0  0  0  0  0  0  0  0  0  0  0
   13.6924   -2.9428   -9.0526 C   0  0  0  0  0  0  0  0  0  0  0  0
   13.6757   -1.6957   -9.6586 C   0  0  0  0  0  0  0  0  0  0  0  0
   13.6743   -1.5934  -10.9811 N   0  0  0  0  0  0  0  0  0  0  0  0
   13.6542   -0.5634   -8.8686 N   0  0  0  0  0  0  0  0  0  0  0  0
   13.6457   -0.6558   -7.4826 C   0  0  0  0  0  0  0  0  0  0  0  0
   13.6567   -1.9057   -6.8975 N   0  0  0  0  0  0  0  0  0  0  0  0
   13.6864   -3.0354   -7.6631 C   0  0  0  0  0  0  0  0  0  0  0  0
  2  3  1  6  0  0  0
  2  6  1  0  0  0  0
  2  1  1  0  0  0  0
  4  3  2  0  0  0  0
  5  3  1  0  0  0  0
  6  7  2  0  0  0  0
  8  7  1  6  0  0  0
  8  9  1  0  0  0  0
  8 10  1  0  0  0  0
 11 10  1  6  0  0  0
 11 13  1  0  0  0  0
 12 11  1  0  0  0  0
 12 17  1  0  0  0  0
 13 14  1  1  0  0  0
 13 15  1  0  0  0  0
 15 16  1  1  0  0  0
 17 18  1  6  0  0  0
 17 15  1  0  0  0  0
 18 19  1  0  0  0  0
 20 19  2  0  0  0  0
 21 27  2  0  0  0  0
 21 20  1  0  0  0  0
 22 21  1  0  0  0  0
 23 22  1  0  0  0  0
 24 22  2  0  0  0  0
 24 25  1  0  0  0  0
 25 26  2  0  0  0  0
 26 27  1  0  0  0  0
 27 18  1  0  0  0  0
M  END
>  <CHROM.1>
15.20738185,-117.83691435,168.22264211,-60.63084853,103.91783864,31.33939685
14.55620811,-5.39806920,-6.12386600,-1.29721029,-0.48189574,-0.47715714

>  <Name>
lig.pdb

>  <RI>
0

>  <Rbt.Current_Directory>
/home/itssahil/PROJECTS/Mol_Feturizer/New_Systems/rnas/4b5r

>  <Rbt.Executable>
rbdock ($Id: //depot/dev/client3/rdock/2013.1/src/exe/rbdock.cxx#4 $)

>  <Rbt.Library>
libRbt.so (2013.1, Build901 2013/11/27)

>  <Rbt.Parameter_File>
/export/apps/rDock/src/rDock_2013.1_src/data/scripts/dock_solv.prm

>  <Rbt.Receptor>
prm/blind_docking_20.prm

>  <SCORE>
-6.91986

>  <SCORE.INTER>
-6.91361

>  <SCORE.INTER.CONST>
1

>  <SCORE.INTER.POLAR>
0

>  <SCORE.INTER.ROT>
6

>  <SCORE.INTER.SOLV>
16.9586

>  <SCORE.INTER.VDW>
-17.8619

>  <SCORE.INTER.norm>
-0.25606

>  <SCORE.INTRA>
-0.00624536

>  <SCORE.INTRA.DIHEDRAL>
1.4203

>  <SCORE.INTRA.DIHEDRAL.0>
10.2917

>  <SCORE.INTRA.POLAR>
0

>  <SCORE.INTRA.POLAR.0>
0

>  <SCORE.INTRA.REPUL>
0

>  <SCORE.INTRA.REPUL.0>
0

>  <SCORE.INTRA.SOLV>
-3.17727

>  <SCORE.INTRA.SOLV.lig_0>
-39.6315

>  <SCORE.INTRA.VDW>
0.872238

>  <SCORE.INTRA.VDW.0>
-4.02152

>  <SCORE.INTRA.norm>
-0.00023131

>  <SCORE.RESTR>
0

>  <SCORE.RESTR.CAVITY>
0

>  <SCORE.RESTR.norm>
0

>  <SCORE.SYSTEM>
0

>  <SCORE.SYSTEM.CONST>
0

>  <SCORE.SYSTEM.DIHEDRAL>
0

>  <SCORE.SYSTEM.SOLV>
0

>  <SCORE.SYSTEM.norm>
0

>  <SCORE.heavy>
27

>  <SCORE.norm>
-0.256291

>  <RMSD>
16.481

$$$$
lig.pdb
 OpenBabel11021811493D
libRbt.so/2013.1/901 2013/11/27
 27 29  0  0  0  0  0  0  0  0999 V2000
   15.7733   -6.0741   -1.9843 N   0  0  0  0  0  0  0  0  0  0  0  0
   15.6655   -5.2186   -3.2051 C   0  0  2  0  0  0  0  0  0  0  0  0
   14.5232   -4.2243   -3.0189 C   0  0  0  0  0  0  0  0  0  0  0  0
   14.6716   -3.0601   -3.3717 O   0  0  0  0  0  0  0  0  0  0  0  0
   13.4366   -4.5379   -2.5160 O   0  0  0  0  0  0  0  0  0  0  0  0
   15.5167   -6.0217   -4.5131 C   0  0  0  0  0  0  0  0  0  0  0  0
   14.7635   -7.3747   -4.4196 C   0  0  0  0  0  0  0  0  0  0  0  0
   14.5559   -8.3888   -5.9467 S   0  0  2  0  0  0  0  0  0  0  0  0
   16.1729   -9.1819   -6.0728 C   0  0  0  0  0  0  0  0  0  0  0  0
   14.7039   -7.1814   -7.2816 C   0  0  0  0  0  0  0  0  0  0  0  0
   13.3392   -6.5735   -7.5775 C   0  0  1  0  0  0  0  0  0  0  0  0
   12.8375   -5.8040   -6.4952 O   0  0  0  0  0  0  0  0  0  0  0  0
   13.3602   -5.6048   -8.7293 C   0  0  1  0  0  0  0  0  0  0  0  0
   13.3652   -6.2994   -9.9431 O   0  0  0  0  0  0  0  0  0  0  0  0
   12.0725   -4.8504   -8.4822 C   0  0  1  0  0  0  0  0  0  0  0  0
   10.9757   -5.5769   -8.9984 O   0  0  0  0  0  0  0  0  0  0  0  0
   11.9591   -4.7958   -6.9628 C   0  0  2  0  0  0  0  0  0  0  0  0
   12.2669   -3.4725   -6.3544 N   0  0  0  0  0  0  0  0  0  0  0  0
   12.1305   -3.1596   -5.0253 C   0  0  0  0  0  0  0  0  0  0  0  0
   12.5004   -1.8739   -4.8318 N   0  0  0  0  0  0  0  0  0  0  0  0
   12.8813   -1.3538   -6.0101 C   0  0  0  0  0  0  0  0  0  0  0  0
   13.3525   -0.0989   -6.3646 C   0  0  0  0  0  0  0  0  0  0  0  0
   13.4968    0.8468   -5.4457 N   0  0  0  0  0  0  0  0  0  0  0  0
   13.6751    0.1515   -7.6837 N   0  0  0  0  0  0  0  0  0  0  0  0
   13.5381   -0.8324   -8.6547 C   0  0  0  0  0  0  0  0  0  0  0  0
   13.0731   -2.0771   -8.2820 N   0  0  0  0  0  0  0  0  0  0  0  0
   12.7416   -2.3394   -6.9841 C   0  0  0  0  0  0  0  0  0  0  0  0
  2  3  1  1  0  0  0
  2  6  1  0  0  0  0
  2  1  1  0  0  0  0
  4  3  2  0  0  0  0
  5  3  1  0  0  0  0
  6  7  2  0  0  0  0
  8  7  1  1  0  0  0
  8  9  1  0  0  0  0
  8 10  1  0  0  0  0
 11 10  1  1  0  0  0
 11 13  1  0  0  0  0
 12 11  1  0  0  0  0
 12 17  1  0  0  0  0
 13 14  1  6  0  0  0
 13 15  1  0  0  0  0
 15 16  1  6  0  0  0
 17 18  1  1  0  0  0
 17 15  1  0  0  0  0
 18 19  1  0  0  0  0
 20 19  2  0  0  0  0
 21 27  2  0  0  0  0
 21 20  1  0  0  0  0
 22 21  1  0  0  0  0
 23 22  1  0  0  0  0
 24 22  2  0  0  0  0
 24 25  1  0  0  0  0
 25 26  2  0  0  0  0
 26 27  1  0  0  0  0
 27 18  1  0  0  0  0
M  END
>  <CHROM.1>
137.77369383,31.92461158,79.78838631,-87.68349186,65.53894070,-65.90996809
13.64727653,-4.51355196,-6.11701132,-0.85560444,-1.16250156,0.49738510

>  <Name>
lig.pdb

>  <RI>
0

>  <Rbt.Current_Directory>
/home/itssahil/PROJECTS/Mol_Feturizer/New_Systems/rnas/4b5r

>  <Rbt.Executable>
rbdock ($Id: //depot/dev/client3/rdock/2013.1/src/exe/rbdock.cxx#4 $)

>  <Rbt.Library>
libRbt.so (2013.1, Build901 2013/11/27)

>  <Rbt.Parameter_File>
/export/apps/rDock/src/rDock_2013.1_src/data/scripts/dock_solv.prm

>  <Rbt.Receptor>
prm/blind_docking_20.prm

>  <SCORE>
-5.13923

>  <SCORE.INTER>
-4.66205

>  <SCORE.INTER.CONST>
1

>  <SCORE.INTER.POLAR>
0

>  <SCORE.INTER.ROT>
6

>  <SCORE.INTER.SOLV>
18.0084

>  <SCORE.INTER.VDW>
-16.7108

>  <SCORE.INTER.norm>
-0.172669

>  <SCORE.INTRA>
-0.550093

>  <SCORE.INTRA.DIHEDRAL>
0.586803

>  <SCORE.INTRA.DIHEDRAL.0>
10.2917

>  <SCORE.INTRA.POLAR>
0

>  <SCORE.INTRA.POLAR.0>
0

>  <SCORE.INTRA.REPUL>
0

>  <SCORE.INTRA.REPUL.0>
0

>  <SCORE.INTRA.SOLV>
-1.61408

>  <SCORE.INTRA.SOLV.lig_0>
-39.6315

>  <SCORE.INTRA.VDW>
-0.0364545

>  <SCORE.INTRA.VDW.0>
-4.02152

>  <SCORE.INTRA.norm>
-0.0203738

>  <SCORE.RESTR>
0.0729215

>  <SCORE.RESTR.CAVITY>
0.0729215

>  <SCORE.RESTR.norm>
0.0027008

>  <SCORE.SYSTEM>
0

>  <SCORE.SYSTEM.CONST>
0

>  <SCORE.SYSTEM.DIHEDRAL>
0

>  <SCORE.SYSTEM.SOLV>
0

>  <SCORE.SYSTEM.norm>
0

>  <SCORE.heavy>
27

>  <SCORE.norm>
-0.190342

>  <RMSD>
16.502

$$$$
lig.pdb
 OpenBabel11021811493D
libRbt.so/2013.1/901 2013/11/27
 27 29  0  0  0  0  0  0  0  0999 V2000
   11.0762    0.2205   -6.6893 N   0  0  0  0  0  0  0  0  0  0  0  0
   12.4844    0.7069   -6.8099 C   0  0  2  0  0  0  0  0  0  0  0  0
   13.0126    0.3677   -8.2006 C   0  0  0  0  0  0  0  0  0  0  0  0
   12.4438   -0.4855   -8.8717 O   0  0  0  0  0  0  0  0  0  0  0  0
   14.0071    0.9163   -8.6923 O   0  0  0  0  0  0  0  0  0  0  0  0
   13.4181    0.1825   -5.7003 C   0  0  0  0  0  0  0  0  0  0  0  0
   14.4166   -0.9358   -6.0990 C   0  0  0  0  0  0  0  0  0  0  0  0
   15.5579   -1.6127   -4.8173 S   0  0  2  0  0  0  0  0  0  0  0  0
   16.5647   -2.7468   -5.7969 C   0  0  0  0  0  0  0  0  0  0  0  0
   14.5358   -2.8052   -3.9257 C   0  0  0  0  0  0  0  0  0  0  0  0
   13.6932   -3.5998   -4.9148 C   0  0  1  0  0  0  0  0  0  0  0  0
   14.4265   -4.6381   -5.5468 O   0  0  0  0  0  0  0  0  0  0  0  0
   12.5391   -4.3165   -4.2668 C   0  0  1  0  0  0  0  0  0  0  0  0
   11.4921   -3.4219   -4.0229 O   0  0  0  0  0  0  0  0  0  0  0  0
   12.2110   -5.3376   -5.3336 C   0  0  1  0  0  0  0  0  0  0  0  0
   11.4015   -4.7539   -6.3340 O   0  0  0  0  0  0  0  0  0  0  0  0
   13.5652   -5.6928   -5.9373 C   0  0  2  0  0  0  0  0  0  0  0  0
   14.1055   -7.0210   -5.5372 N   0  0  0  0  0  0  0  0  0  0  0  0
   14.0127   -8.1713   -6.2796 C   0  0  0  0  0  0  0  0  0  0  0  0
   14.6123   -9.1811   -5.6102 N   0  0  0  0  0  0  0  0  0  0  0  0
   15.0981   -8.7018   -4.4534 C   0  0  0  0  0  0  0  0  0  0  0  0
   15.7986   -9.3022   -3.4184 C   0  0  0  0  0  0  0  0  0  0  0  0
   16.1042  -10.5917   -3.4756 N   0  0  0  0  0  0  0  0  0  0  0  0
   16.1789   -8.5401   -2.3315 N   0  0  0  0  0  0  0  0  0  0  0  0
   15.8741   -7.1865   -2.2627 C   0  0  0  0  0  0  0  0  0  0  0  0
   15.1814   -6.6051   -3.3051 N   0  0  0  0  0  0  0  0  0  0  0  0
   14.7904   -7.3453   -4.3833 C   0  0  0  0  0  0  0  0  0  0  0  0
  2  3  1  6  0  0  0
  2  6  1  0  0  0  0
  2  1  1  0  0  0  0
  4  3  2  0  0  0  0
  5  3  1  0  0  0  0
  6  7  2  0  0  0  0
  8  7  1  6  0  0  0
  8  9  1  0  0  0  0
  8 10  1  0  0  0  0
 11 10  1  1  0  0  0
 11 13  1  0  0  0  0
 12 11  1  0  0  0  0
 12 17  1  0  0  0  0
 13 14  1  6  0  0  0
 13 15  1  0  0  0  0
 15 16  1  6  0  0  0
 17 18  1  1  0  0  0
 17 15  1  0  0  0  0
 18 19  1  0  0  0  0
 20 19  2  0  0  0  0
 21 27  2  0  0  0  0
 21 20  1  0  0  0  0
 22 21  1  0  0  0  0
 23 22  1  0  0  0  0
 24 22  2  0  0  0  0
 24 25  1  0  0  0  0
 25 26  2  0  0  0  0
 26 27  1  0  0  0  0
 27 18  1  0  0  0  0
M  END
>  <CHROM.1>
-18.14822999,105.00989547,-175.65491082,41.88697320,79.46290003,-142.40552715
14.06439776,-4.25765322,-5.31554015,1.84562186,-0.58904304,-0.19654269

>  <Name>
lig.pdb

>  <RI>
0

>  <Rbt.Current_Directory>
/home/itssahil/PROJECTS/Mol_Feturizer/New_Systems/rnas/4b5r

>  <Rbt.Executable>
rbdock ($Id: //depot/dev/client3/rdock/2013.1/src/exe/rbdock.cxx#4 $)

>  <Rbt.Library>
libRbt.so (2013.1, Build901 2013/11/27)

>  <Rbt.Parameter_File>
/export/apps/rDock/src/rDock_2013.1_src/data/scripts/dock_solv.prm

>  <Rbt.Receptor>
prm/blind_docking_20.prm

>  <SCORE>
-7.87865

>  <SCORE.INTER>
-8.61452

>  <SCORE.INTER.CONST>
1

>  <SCORE.INTER.POLAR>
0

>  <SCORE.INTER.ROT>
6

>  <SCORE.INTER.SOLV>
11.8159

>  <SCORE.INTER.VDW>
-17.2817

>  <SCORE.INTER.norm>
-0.319056

>  <SCORE.INTRA>
0.726899

>  <SCORE.INTRA.DIHEDRAL>
-0.771634

>  <SCORE.INTRA.DIHEDRAL.0>
10.2917

>  <SCORE.INTRA.POLAR>
0

>  <SCORE.INTRA.POLAR.0>
0

>  <SCORE.INTRA.REPUL>
0

>  <SCORE.INTRA.REPUL.0>
0

>  <SCORE.INTRA.SOLV>
-2.29721

>  <SCORE.INTRA.SOLV.lig_0>
-39.6315

>  <SCORE.INTRA.VDW>
2.26132

>  <SCORE.INTRA.VDW.0>
-4.02152

>  <SCORE.INTRA.norm>
0.0269222

>  <SCORE.RESTR>
0.00897272

>  <SCORE.RESTR.CAVITY>
0.00897272

>  <SCORE.RESTR.norm>
0.000332323

>  <SCORE.SYSTEM>
0

>  <SCORE.SYSTEM.CONST>
0

>  <SCORE.SYSTEM.DIHEDRAL>
0

>  <SCORE.SYSTEM.SOLV>
0

>  <SCORE.SYSTEM.norm>
0

>  <SCORE.heavy>
27

>  <SCORE.norm>
-0.291802

>  <RMSD>
16.507

$$$$
lig.pdb
 OpenBabel11021811493D
libRbt.so/2013.1/901 2013/11/27
 27 29  0  0  0  0  0  0  0  0999 V2000
   14.3006    0.4457   -9.9260 N   0  0  0  0  0  0  0  0  0  0  0  0
   13.3343   -0.4845   -9.2664 C   0  0  2  0  0  0  0  0  0  0  0  0
   11.9973   -0.4172   -9.9986 C   0  0  0  0  0  0  0  0  0  0  0  0
   11.8421    0.3984  -10.8999 O   0  0  0  0  0  0  0  0  0  0  0  0
   11.0425   -1.1539   -9.7201 O   0  0  0  0  0  0  0  0  0  0  0  0
   13.1704   -0.2367   -7.7533 C   0  0  0  0  0  0  0  0  0  0  0  0
   13.3471   -1.4645   -6.8217 C   0  0  0  0  0  0  0  0  0  0  0  0
   13.1578   -1.2386   -5.0006 S   0  0  2  0  0  0  0  0  0  0  0  0
   14.8671   -1.3938   -4.4405 C   0  0  0  0  0  0  0  0  0  0  0  0
   12.5083   -2.8282   -4.4408 C   0  0  0  0  0  0  0  0  0  0  0  0
   13.2020   -3.9585   -5.1896 C   0  0  1  0  0  0  0  0  0  0  0  0
   14.4662   -4.2871   -4.6336 O   0  0  0  0  0  0  0  0  0  0  0  0
   12.4393   -5.2552   -5.1421 C   0  0  1  0  0  0  0  0  0  0  0  0
   11.3871   -5.2293   -6.0630 O   0  0  0  0  0  0  0  0  0  0  0  0
   13.5307   -6.2340   -5.5152 C   0  0  1  0  0  0  0  0  0  0  0  0
   13.6883   -6.2761   -6.9189 O   0  0  0  0  0  0  0  0  0  0  0  0
   14.7902   -5.6414   -4.8932 C   0  0  2  0  0  0  0  0  0  0  0  0
   15.2757   -6.3353   -3.6688 N   0  0  0  0  0  0  0  0  0  0  0  0
   15.3617   -5.7732   -2.4200 C   0  0  0  0  0  0  0  0  0  0  0  0
   15.8424   -6.6915   -1.5521 N   0  0  0  0  0  0  0  0  0  0  0  0
   16.0600   -7.8385   -2.2162 C   0  0  0  0  0  0  0  0  0  0  0  0
   16.5314   -9.0762   -1.8059 C   0  0  0  0  0  0  0  0  0  0  0  0
   16.8591   -9.2814   -0.5370 N   0  0  0  0  0  0  0  0  0  0  0  0
   16.6493  -10.0930   -2.7327 N   0  0  0  0  0  0  0  0  0  0  0  0
   16.3007   -9.8951   -4.0628 C   0  0  0  0  0  0  0  0  0  0  0  0
   15.8279   -8.6581   -4.4514 N   0  0  0  0  0  0  0  0  0  0  0  0
   15.7130   -7.6394   -3.5502 C   0  0  0  0  0  0  0  0  0  0  0  0
  2  3  1  6  0  0  0
  2  6  1  0  0  0  0
  2  1  1  0  0  0  0
  4  3  2  0  0  0  0
  5  3  1  0  0  0  0
  6  7  2  0  0  0  0
  8  7  1  6  0  0  0
  8  9  1  0  0  0  0
  8 10  1  0  0  0  0
 11 10  1  1  0  0  0
 11 13  1  0  0  0  0
 12 11  1  0  0  0  0
 12 17  1  0  0  0  0
 13 14  1  6  0  0  0
 13 15  1  0  0  0  0
 15 16  1  6  0  0  0
 17 18  1  1  0  0  0
 17 15  1  0  0  0  0
 18 19  1  0  0  0  0
 20 19  2  0  0  0  0
 21 27  2  0  0  0  0
 21 20  1  0  0  0  0
 22 21  1  0  0  0  0
 23 22  1  0  0  0  0
 24 22  2  0  0  0  0
 24 25  1  0  0  0  0
 25 26  2  0  0  0  0
 26 27  1  0  0  0  0
 27 18  1  0  0  0  0
M  END
>  <CHROM.1>
-5.37930993,-127.96801579,-108.07271069,39.88593105,81.73748107,2.31282843
14.10100207,-4.45954126,-5.37247279,2.62539488,-1.18492238,0.36405381

>  <Name>
lig.pdb

>  <RI>
0

>  <Rbt.Current_Directory>
/home/itssahil/PROJECTS/Mol_Feturizer/New_Systems/rnas/4b5r

>  <Rbt.Executable>
rbdock ($Id: //depot/dev/client3/rdock/2013.1/src/exe/rbdock.cxx#4 $)

>  <Rbt.Library>
libRbt.so (2013.1, Build901 2013/11/27)

>  <Rbt.Parameter_File>
/export/apps/rDock/src/rDock_2013.1_src/data/scripts/dock_solv.prm

>  <Rbt.Receptor>
prm/blind_docking_20.prm

>  <SCORE>
-5.263

>  <SCORE.INTER>
-6.38612

>  <SCORE.INTER.CONST>
1

>  <SCORE.INTER.POLAR>
0

>  <SCORE.INTER.ROT>
6

>  <SCORE.INTER.SOLV>
10.4103

>  <SCORE.INTER.VDW>
-15.3275

>  <SCORE.INTER.norm>
-0.236523

>  <SCORE.INTRA>
1.11671

>  <SCORE.INTRA.DIHEDRAL>
0.150632

>  <SCORE.INTRA.DIHEDRAL.0>
10.2917

>  <SCORE.INTRA.POLAR>
0

>  <SCORE.INTRA.POLAR.0>
0

>  <SCORE.INTRA.REPUL>
0

>  <SCORE.INTRA.REPUL.0>
0

>  <SCORE.INTRA.SOLV>
-3.14333

>  <SCORE.INTRA.SOLV.lig_0>
-39.6315

>  <SCORE.INTRA.VDW>
2.61306

>  <SCORE.INTRA.VDW.0>
-4.02152

>  <SCORE.INTRA.norm>
0.0413595

>  <SCORE.RESTR>
0.00641476

>  <SCORE.RESTR.CAVITY>
0.00641476

>  <SCORE.RESTR.norm>
0.000237584

>  <SCORE.SYSTEM>
0

>  <SCORE.SYSTEM.CONST>
0

>  <SCORE.SYSTEM.DIHEDRAL>
0

>  <SCORE.SYSTEM.SOLV>
0

>  <SCORE.SYSTEM.norm>
0

>  <SCORE.heavy>
27

>  <SCORE.norm>
-0.194926

>  <RMSD>
16.549

$$$$
lig.pdb
 OpenBabel11021811493D
libRbt.so/2013.1/901 2013/11/27
 27 29  0  0  0  0  0  0  0  0999 V2000
   13.6919   -3.8075   -8.9494 N   0  0  0  0  0  0  0  0  0  0  0  0
   13.4964   -5.2678   -8.6980 C   0  0  2  0  0  0  0  0  0  0  0  0
   12.1406   -5.4828   -8.0318 C   0  0  0  0  0  0  0  0  0  0  0  0
   11.1474   -5.6626   -8.7268 O   0  0  0  0  0  0  0  0  0  0  0  0
   11.9891   -5.4796   -6.8035 O   0  0  0  0  0  0  0  0  0  0  0  0
   14.6392   -5.9158   -7.8905 C   0  0  0  0  0  0  0  0  0  0  0  0
   14.3760   -7.3360   -7.3247 C   0  0  0  0  0  0  0  0  0  0  0  0
   15.6995   -8.1661   -6.3436 S   0  0  2  0  0  0  0  0  0  0  0  0
   15.1565   -9.8872   -6.3931 C   0  0  0  0  0  0  0  0  0  0  0  0
   15.2774   -7.7626   -4.6345 C   0  0  0  0  0  0  0  0  0  0  0  0
   16.3200   -6.8133   -4.0588 C   0  0  1  0  0  0  0  0  0  0  0  0
   16.6016   -5.7222   -4.9222 O   0  0  0  0  0  0  0  0  0  0  0  0
   15.8787   -6.1556   -2.7789 C   0  0  1  0  0  0  0  0  0  0  0  0
   16.0257   -7.0412   -1.7065 O   0  0  0  0  0  0  0  0  0  0  0  0
   16.8385   -4.9879   -2.7204 C   0  0  1  0  0  0  0  0  0  0  0  0
   18.0780   -5.4027   -2.1832 O   0  0  0  0  0  0  0  0  0  0  0  0
   17.0378   -4.5969   -4.1805 C   0  0  2  0  0  0  0  0  0  0  0  0
   16.3352   -3.3540   -4.6023 N   0  0  0  0  0  0  0  0  0  0  0  0
   16.9073   -2.3147   -5.2918 C   0  0  0  0  0  0  0  0  0  0  0  0
   15.9766   -1.3575   -5.5043 N   0  0  0  0  0  0  0  0  0  0  0  0
   14.8122   -1.7639   -4.9723 C   0  0  0  0  0  0  0  0  0  0  0  0
   13.5575   -1.1762   -4.9203 C   0  0  0  0  0  0  0  0  0  0  0  0
   13.3514    0.0133   -5.4700 N   0  0  0  0  0  0  0  0  0  0  0  0
   12.5250   -1.8469   -4.2951 N   0  0  0  0  0  0  0  0  0  0  0  0
   12.7241   -3.0974   -3.7237 C   0  0  0  0  0  0  0  0  0  0  0  0
   13.9784   -3.6691   -3.7905 N   0  0  0  0  0  0  0  0  0  0  0  0
   15.0124   -3.0164   -4.3972 C   0  0  0  0  0  0  0  0  0  0  0  0
  2  3  1  1  0  0  0
  2  6  1  0  0  0  0
  2  1  1  0  0  0  0
  4  3  2  0  0  0  0
  5  3  1  0  0  0  0
  6  7  2  0  0  0  0
  8  7  1  6  0  0  0
  8  9  1  0  0  0  0
  8 10  1  0  0  0  0
 11 10  1  6  0  0  0
 11 13  1  0  0  0  0
 12 11  1  0  0  0  0
 12 17  1  0  0  0  0
 13 14  1  1  0  0  0
 13 15  1  0  0  0  0
 15 16  1  6  0  0  0
 17 18  1  6  0  0  0
 17 15  1  0  0  0  0
 18 19  1  0  0  0  0
 20 19  2  0  0  0  0
 21 27  2  0  0  0  0
 21 20  1  0  0  0  0
 22 21  1  0  0  0  0
 23 22  1  0  0  0  0
 24 22  2  0  0  0  0
 24 25  1  0  0  0  0
 25 26  2  0  0  0  0
 26 27  1  0  0  0  0
 27 18  1  0  0  0  0
M  END
>  <CHROM.1>
89.47980022,167.13322216,-162.45667138,-111.30876859,48.14014255,-109.52305101
14.84693776,-4.93692053,-5.34464547,2.01295606,-0.86030907,0.33992429

>  <Name>
lig.pdb

>  <RI>
0

>  <Rbt.Current_Directory>
/home/itssahil/PROJECTS/Mol_Feturizer/New_Systems/rnas/4b5r

>  <Rbt.Executable>
rbdock ($Id: //depot/dev/client3/rdock/2013.1/src/exe/rbdock.cxx#4 $)

>  <Rbt.Library>
libRbt.so (2013.1, Build901 2013/11/27)

>  <Rbt.Parameter_File>
/export/apps/rDock/src/rDock_2013.1_src/data/scripts/dock_solv.prm

>  <Rbt.Receptor>
prm/blind_docking_20.prm

>  <SCORE>
-8.34782

>  <SCORE.INTER>
-9.48297

>  <SCORE.INTER.CONST>
1

>  <SCORE.INTER.POLAR>
0

>  <SCORE.INTER.ROT>
6

>  <SCORE.INTER.SOLV>
20.4424

>  <SCORE.INTER.VDW>
-20.7361

>  <SCORE.INTER.norm>
-0.351221

>  <SCORE.INTRA>
1.13515

>  <SCORE.INTRA.DIHEDRAL>
4.22676

>  <SCORE.INTRA.DIHEDRAL.0>
10.2917

>  <SCORE.INTRA.POLAR>
0

>  <SCORE.INTRA.POLAR.0>
0

>  <SCORE.INTRA.REPUL>
0

>  <SCORE.INTRA.REPUL.0>
0

>  <SCORE.INTRA.SOLV>
-3.03055

>  <SCORE.INTRA.SOLV.lig_0>
-39.6315

>  <SCORE.INTRA.VDW>
0.537045

>  <SCORE.INTRA.VDW.0>
-4.02152

>  <SCORE.INTRA.norm>
0.0420426

>  <SCORE.RESTR>
0

>  <SCORE.RESTR.CAVITY>
0

>  <SCORE.RESTR.norm>
0

>  <SCORE.SYSTEM>
0

>  <SCORE.SYSTEM.CONST>
0

>  <SCORE.SYSTEM.DIHEDRAL>
0

>  <SCORE.SYSTEM.SOLV>
0

>  <SCORE.SYSTEM.norm>
0

>  <SCORE.heavy>
27

>  <SCORE.norm>
-0.309178

>  <RMSD>
16.553

$$$$
lig.pdb
 OpenBabel11021811493D
libRbt.so/2013.1/901 2013/11/27
 27 29  0  0  0  0  0  0  0  0999 V2000
    9.1669   -2.0725   -9.4228 N   0  0  0  0  0  0  0  0  0  0  0  0
    9.9188   -0.7886   -9.5659 C   0  0  2  0  0  0  0  0  0  0  0  0
    9.7107   -0.2424  -10.9753 C   0  0  0  0  0  0  0  0  0  0  0  0
   10.5827    0.4467  -11.4914 O   0  0  0  0  0  0  0  0  0  0  0  0
    8.6854   -0.4593  -11.6338 O   0  0  0  0  0  0  0  0  0  0  0  0
   11.4155   -0.9047   -9.2132 C   0  0  0  0  0  0  0  0  0  0  0  0
   11.9656    0.0986   -8.1656 C   0  0  0  0  0  0  0  0  0  0  0  0
   13.7497    0.0184   -7.7030 S   0  0  2  0  0  0  0  0  0  0  0  0
   14.5461    0.2153   -9.3112 C   0  0  0  0  0  0  0  0  0  0  0  0
   14.0396   -1.7436   -7.4331 C   0  0  0  0  0  0  0  0  0  0  0  0
   13.0961   -2.2597   -6.3546 C   0  0  1  0  0  0  0  0  0  0  0  0
   12.9642   -3.6731   -6.3748 O   0  0  0  0  0  0  0  0  0  0  0  0
   13.5739   -1.9622   -4.9587 C   0  0  1  0  0  0  0  0  0  0  0  0
   13.2977   -0.6316   -4.6283 O   0  0  0  0  0  0  0  0  0  0  0  0
   12.7517   -2.9538   -4.1656 C   0  0  1  0  0  0  0  0  0  0  0  0
   11.4588   -2.4350   -3.9284 O   0  0  0  0  0  0  0  0  0  0  0  0
   12.6384   -4.1636   -5.0864 C   0  0  2  0  0  0  0  0  0  0  0  0
   13.4890   -5.3256   -4.7089 N   0  0  0  0  0  0  0  0  0  0  0  0
   13.4587   -6.5590   -5.3095 C   0  0  0  0  0  0  0  0  0  0  0  0
   14.3634   -7.3662   -4.7115 N   0  0  0  0  0  0  0  0  0  0  0  0
   14.9832   -6.6736   -3.7418 C   0  0  0  0  0  0  0  0  0  0  0  0
   15.9850   -7.0180   -2.8472 C   0  0  0  0  0  0  0  0  0  0  0  0
   16.5070   -8.2374   -2.8628 N   0  0  0  0  0  0  0  0  0  0  0  0
   16.4360   -6.0747   -1.9453 N   0  0  0  0  0  0  0  0  0  0  0  0
   15.9052   -4.7912   -1.9242 C   0  0  0  0  0  0  0  0  0  0  0  0
   14.9128   -4.4650   -2.8261 N   0  0  0  0  0  0  0  0  0  0  0  0
   14.4493   -5.3875   -3.7190 C   0  0  0  0  0  0  0  0  0  0  0  0
  2  3  1  6  0  0  0
  2  6  1  0  0  0  0
  2  1  1  0  0  0  0
  4  3  2  0  0  0  0
  5  3  1  0  0  0  0
  6  7  2  0  0  0  0
  8  7  1  6  0  0  0
  8  9  1  0  0  0  0
  8 10  1  0  0  0  0
 11 10  1  6  0  0  0
 11 13  1  0  0  0  0
 12 11  1  0  0  0  0
 12 17  1  0  0  0  0
 13 14  1  1  0  0  0
 13 15  1  0  0  0  0
 15 16  1  6  0  0  0
 17 18  1  1  0  0  0
 17 15  1  0  0  0  0
 18 19  1  0  0  0  0
 20 19  2  0  0  0  0
 21 27  2  0  0  0  0
 21 20  1  0  0  0  0
 22 21  1  0  0  0  0
 23 22  1  0  0  0  0
 24 22  2  0  0  0  0
 24 25  1  0  0  0  0
 25 26  2  0  0  0  0
 26 27  1  0  0  0  0
 27 18  1  0  0  0  0
M  END
>  <CHROM.1>
-151.13713320,-126.67267918,56.70755414,-57.91919264,161.60768650,-67.07939891
13.09714982,-2.93742456,-6.24862339,2.22975297,-0.77525090,-0.36143130

>  <Name>
lig.pdb

>  <RI>
0

>  <Rbt.Current_Directory>
/home/itssahil/PROJECTS/Mol_Feturizer/New_Systems/rnas/4b5r

>  <Rbt.Executable>
rbdock ($Id: //depot/dev/client3/rdock/2013.1/src/exe/rbdock.cxx#4 $)

>  <Rbt.Library>
libRbt.so (2013.1, Build901 2013/11/27)

>  <Rbt.Parameter_File>
/export/apps/rDock/src/rDock_2013.1_src/data/scripts/dock_solv.prm

>  <Rbt.Receptor>
prm/blind_docking_20.prm

>  <SCORE>
-4.31926

>  <SCORE.INTER>
-4.41196

>  <SCORE.INTER.CONST>
1

>  <SCORE.INTER.POLAR>
0

>  <SCORE.INTER.ROT>
6

>  <SCORE.INTER.SOLV>
15.9648

>  <SCORE.INTER.VDW>
-15.8629

>  <SCORE.INTER.norm>
-0.163406

>  <SCORE.INTRA>
0.0927002

>  <SCORE.INTRA.DIHEDRAL>
-0.25126

>  <SCORE.INTRA.DIHEDRAL.0>
10.2917

>  <SCORE.INTRA.POLAR>
0

>  <SCORE.INTRA.POLAR.0>
0

>  <SCORE.INTRA.REPUL>
0

>  <SCORE.INTRA.REPUL.0>
0

>  <SCORE.INTRA.SOLV>
-2.62711

>  <SCORE.INTRA.SOLV.lig_0>
-39.6315

>  <SCORE.INTRA.VDW>
1.53188

>  <SCORE.INTRA.VDW.0>
-4.02152

>  <SCORE.INTRA.norm>
0.00343334

>  <SCORE.RESTR>
0

>  <SCORE.RESTR.CAVITY>
0

>  <SCORE.RESTR.norm>
0

>  <SCORE.SYSTEM>
0

>  <SCORE.SYSTEM.CONST>
0

>  <SCORE.SYSTEM.DIHEDRAL>
0

>  <SCORE.SYSTEM.SOLV>
0

>  <SCORE.SYSTEM.norm>
0

>  <SCORE.heavy>
27

>  <SCORE.norm>
-0.159973

>  <RMSD>
16.596

$$$$
lig.pdb
 OpenBabel11021811493D
libRbt.so/2013.1/901 2013/11/27
 27 29  0  0  0  0  0  0  0  0999 V2000
    2.8435   -7.1609  -20.1963 N   0  0  0  0  0  0  0  0  0  0  0  0
    4.0021   -6.3365  -20.6569 C   0  0  2  0  0  0  0  0  0  0  0  0
    3.6912   -5.7653  -22.0372 C   0  0  0  0  0  0  0  0  0  0  0  0
    3.3730   -6.5222  -22.9470 O   0  0  0  0  0  0  0  0  0  0  0  0
    3.7501   -4.5554  -22.2909 O   0  0  0  0  0  0  0  0  0  0  0  0
    5.3458   -7.0929  -20.6408 C   0  0  0  0  0  0  0  0  0  0  0  0
    5.4248   -8.3565  -19.7444 C   0  0  0  0  0  0  0  0  0  0  0  0
    7.0060   -9.3045  -19.6742 S   0  0  2  0  0  0  0  0  0  0  0  0
    8.1797   -8.0105  -19.2188 C   0  0  0  0  0  0  0  0  0  0  0  0
    7.4492   -9.5201  -21.4117 C   0  0  0  0  0  0  0  0  0  0  0  0
    6.4791  -10.4908  -22.0722 C   0  0  1  0  0  0  0  0  0  0  0  0
    5.2282   -9.8918  -22.3752 O   0  0  0  0  0  0  0  0  0  0  0  0
    6.9661  -11.0008  -23.4019 C   0  0  1  0  0  0  0  0  0  0  0  0
    7.9173  -12.0084  -23.2126 O   0  0  0  0  0  0  0  0  0  0  0  0
    5.6715  -11.5106  -23.9957 C   0  0  1  0  0  0  0  0  0  0  0  0
    5.3865  -12.8045  -23.5043 O   0  0  0  0  0  0  0  0  0  0  0  0
    4.6166  -10.5402  -23.4761 C   0  0  2  0  0  0  0  0  0  0  0  0
    4.1102   -9.5628  -24.4784 N   0  0  0  0  0  0  0  0  0  0  0  0
    2.8201   -9.1016  -24.5549 C   0  0  0  0  0  0  0  0  0  0  0  0
    2.7211   -8.2285  -25.5822 N   0  0  0  0  0  0  0  0  0  0  0  0
    3.9257   -8.1112  -26.1647 C   0  0  0  0  0  0  0  0  0  0  0  0
    4.3712   -7.3524  -27.2362 C   0  0  0  0  0  0  0  0  0  0  0  0
    3.5352   -6.5515  -27.8837 N   0  0  0  0  0  0  0  0  0  0  0  0
    5.6961   -7.4362  -27.6162 N   0  0  0  0  0  0  0  0  0  0  0  0
    6.5849   -8.2633  -26.9411 C   0  0  0  0  0  0  0  0  0  0  0  0
    6.1245   -9.0067  -25.8734 N   0  0  0  0  0  0  0  0  0  0  0  0
    4.8162   -8.9424  -25.4896 C   0  0  0  0  0  0  0  0  0  0  0  0
  2  3  1  6  0  0  0
  2  6  1  0  0  0  0
  2  1  1  0  0  0  0
  4  3  2  0  0  0  0
  5  3  1  0  0  0  0
  6  7  2  0  0  0  0
  8  7  1  6  0  0  0
  8  9  1  0  0  0  0
  8 10  1  0  0  0  0
 11 10  1  6  0  0  0
 11 13  1  0  0  0  0
 12 11  1  0  0  0  0
 12 17  1  0  0  0  0
 13 14  1  1  0  0  0
 13 15  1  0  0  0  0
 15 16  1  1  0  0  0
 17 18  1  6  0  0  0
 17 15  1  0  0  0  0
 18 19  1  0  0  0  0
 20 19  2  0  0  0  0
 21 27  2  0  0  0  0
 21 20  1  0  0  0  0
 22 21  1  0  0  0  0
 23 22  1  0  0  0  0
 24 22  2  0  0  0  0
 24 25  1  0  0  0  0
 25 26  2  0  0  0  0
 26 27  1  0  0  0  0
 27 18  1  0  0  0  0
M  END
>  <CHROM.1>
-54.73602150,-19.97847377,54.24679954,-69.92504888,77.30242661,-96.19259662
5.22251345,-8.69758118,-23.20990228,0.94744307,-0.98281385,1.20791879

>  <Name>
lig.pdb

>  <RI>
0

>  <Rbt.Current_Directory>
/home/itssahil/PROJECTS/Mol_Feturizer/New_Systems/rnas/4b5r

>  <Rbt.Executable>
rbdock ($Id: //depot/dev/client3/rdock/2013.1/src/exe/rbdock.cxx#4 $)

>  <Rbt.Library>
libRbt.so (2013.1, Build901 2013/11/27)

>  <Rbt.Parameter_File>
/export/apps/rDock/src/rDock_2013.1_src/data/scripts/dock_solv.prm

>  <Rbt.Receptor>
prm/blind_docking_80.prm

>  <SCORE>
-12.7803

>  <SCORE.INTER>
-12.242

>  <SCORE.INTER.CONST>
1

>  <SCORE.INTER.POLAR>
0

>  <SCORE.INTER.ROT>
6

>  <SCORE.INTER.SOLV>
11.4566

>  <SCORE.INTER.VDW>
-19.5802

>  <SCORE.INTER.norm>
-0.453407

>  <SCORE.INTRA>
-0.538256

>  <SCORE.INTRA.DIHEDRAL>
-0.0261694

>  <SCORE.INTRA.DIHEDRAL.0>
10.2917

>  <SCORE.INTRA.POLAR>
0

>  <SCORE.INTRA.POLAR.0>
0

>  <SCORE.INTRA.REPUL>
0

>  <SCORE.INTRA.REPUL.0>
0

>  <SCORE.INTRA.SOLV>
-1.29803

>  <SCORE.INTRA.SOLV.lig_0>
-39.6315

>  <SCORE.INTRA.VDW>
0.123842

>  <SCORE.INTRA.VDW.0>
-4.02152

>  <SCORE.INTRA.norm>
-0.0199354

>  <SCORE.RESTR>
0

>  <SCORE.RESTR.CAVITY>
0

>  <SCORE.RESTR.norm>
0

>  <SCORE.SYSTEM>
0

>  <SCORE.SYSTEM.CONST>
0

>  <SCORE.SYSTEM.DIHEDRAL>
0

>  <SCORE.SYSTEM.SOLV>
0

>  <SCORE.SYSTEM.norm>
0

>  <SCORE.heavy>
27

>  <SCORE.norm>
-0.473343

>  <RMSD>
16.602

$$$$
lig.pdb
 OpenBabel11021811493D
libRbt.so/2013.1/901 2013/11/27
 27 29  0  0  0  0  0  0  0  0999 V2000
   15.3427   -7.2888   -7.5561 N   0  0  0  0  0  0  0  0  0  0  0  0
   16.0303   -7.9265   -6.3922 C   0  0  2  0  0  0  0  0  0  0  0  0
   15.2004   -9.1129   -5.9106 C   0  0  0  0  0  0  0  0  0  0  0  0
   14.6184   -9.0462   -4.8342 O   0  0  0  0  0  0  0  0  0  0  0  0
   15.0872  -10.1600   -6.5607 O   0  0  0  0  0  0  0  0  0  0  0  0
   16.3446   -6.9454   -5.2448 C   0  0  0  0  0  0  0  0  0  0  0  0
   16.1363   -5.4367   -5.5397 C   0  0  0  0  0  0  0  0  0  0  0  0
   16.5002   -4.2086   -4.2120 S   0  0  2  0  0  0  0  0  0  0  0  0
   18.1359   -4.7440   -3.6670 C   0  0  0  0  0  0  0  0  0  0  0  0
   15.5099   -4.7861   -2.8164 C   0  0  0  0  0  0  0  0  0  0  0  0
   14.0652   -4.3370   -2.9914 C   0  0  1  0  0  0  0  0  0  0  0  0
   13.9458   -2.9320   -3.1555 O   0  0  0  0  0  0  0  0  0  0  0  0
   13.4161   -4.9006   -4.2269 C   0  0  1  0  0  0  0  0  0  0  0  0
   13.0258   -6.2251   -4.0047 O   0  0  0  0  0  0  0  0  0  0  0  0
   12.2456   -3.9550   -4.3826 C   0  0  1  0  0  0  0  0  0  0  0  0
   11.1843   -4.3504   -3.5375 O   0  0  0  0  0  0  0  0  0  0  0  0
   12.7861   -2.6123   -3.9035 C   0  0  2  0  0  0  0  0  0  0  0  0
   13.0808   -1.6296   -4.9822 N   0  0  0  0  0  0  0  0  0  0  0  0
   14.0289   -0.6399   -4.9161 C   0  0  0  0  0  0  0  0  0  0  0  0
   14.0209    0.0603   -6.0725 N   0  0  0  0  0  0  0  0  0  0  0  0
   13.0909   -0.4649   -6.8870 C   0  0  0  0  0  0  0  0  0  0  0  0
   12.6874   -0.1367   -8.1723 C   0  0  0  0  0  0  0  0  0  0  0  0
   13.2616    0.8694   -8.8185 N   0  0  0  0  0  0  0  0  0  0  0  0
   11.6858   -0.8737   -8.7725 N   0  0  0  0  0  0  0  0  0  0  0  0
   11.0824   -1.9360   -8.1112 C   0  0  0  0  0  0  0  0  0  0  0  0
   11.5013   -2.2514   -6.8346 N   0  0  0  0  0  0  0  0  0  0  0  0
   12.4842   -1.5282   -6.2231 C   0  0  0  0  0  0  0  0  0  0  0  0
  2  3  1  1  0  0  0
  2  6  1  0  0  0  0
  2  1  1  0  0  0  0
  4  3  2  0  0  0  0
  5  3  1  0  0  0  0
  6  7  2  0  0  0  0
  8  7  1  6  0  0  0
  8  9  1  0  0  0  0
  8 10  1  0  0  0  0
 11 10  1  6  0  0  0
 11 13  1  0  0  0  0
 12 11  1  0  0  0  0
 12 17  1  0  0  0  0
 13 14  1  1  0  0  0
 13 15  1  0  0  0  0
 15 16  1  1  0  0  0
 17 18  1  6  0  0  0
 17 15  1  0  0  0  0
 18 19  1  0  0  0  0
 20 19  2  0  0  0  0
 21 27  2  0  0  0  0
 21 20  1  0  0  0  0
 22 21  1  0  0  0  0
 23 22  1  0  0  0  0
 24 22  2  0  0  0  0
 24 25  1  0  0  0  0
 25 26  2  0  0  0  0
 26 27  1  0  0  0  0
 27 18  1  0  0  0  0
M  END
>  <CHROM.1>
-109.97079618,-9.96876400,48.91293504,-80.38922795,-55.72634958,-32.15733676
14.07442912,-4.07606863,-5.39901170,0.79612926,0.99831359,-2.69724057

>  <Name>
lig.pdb

>  <RI>
0

>  <Rbt.Current_Directory>
/home/itssahil/PROJECTS/Mol_Feturizer/New_Systems/rnas/4b5r

>  <Rbt.Executable>
rbdock ($Id: //depot/dev/client3/rdock/2013.1/src/exe/rbdock.cxx#4 $)

>  <Rbt.Library>
libRbt.so (2013.1, Build901 2013/11/27)

>  <Rbt.Parameter_File>
/export/apps/rDock/src/rDock_2013.1_src/data/scripts/dock_solv.prm

>  <Rbt.Receptor>
prm/blind_docking_20.prm

>  <SCORE>
-4.89378

>  <SCORE.INTER>
-5.32606

>  <SCORE.INTER.CONST>
1

>  <SCORE.INTER.POLAR>
0

>  <SCORE.INTER.ROT>
6

>  <SCORE.INTER.SOLV>
13.8141

>  <SCORE.INTER.VDW>
-15.7554

>  <SCORE.INTER.norm>
-0.197262

>  <SCORE.INTRA>
0.421187

>  <SCORE.INTRA.DIHEDRAL>
-1.04884

>  <SCORE.INTRA.DIHEDRAL.0>
10.2917

>  <SCORE.INTRA.POLAR>
0

>  <SCORE.INTRA.POLAR.0>
0

>  <SCORE.INTRA.REPUL>
0

>  <SCORE.INTRA.REPUL.0>
0

>  <SCORE.INTRA.SOLV>
-1.44089

>  <SCORE.INTRA.SOLV.lig_0>
-39.6315

>  <SCORE.INTRA.VDW>
1.66605

>  <SCORE.INTRA.VDW.0>
-4.02152

>  <SCORE.INTRA.norm>
0.0155995

>  <SCORE.RESTR>
0.0110952

>  <SCORE.RESTR.CAVITY>
0.0110952

>  <SCORE.RESTR.norm>
0.000410933

>  <SCORE.SYSTEM>
0

>  <SCORE.SYSTEM.CONST>
0

>  <SCORE.SYSTEM.DIHEDRAL>
0

>  <SCORE.SYSTEM.SOLV>
0

>  <SCORE.SYSTEM.norm>
0

>  <SCORE.heavy>
27

>  <SCORE.norm>
-0.181251

>  <RMSD>
16.648

$$$$
lig.pdb
 OpenBabel11021811493D
libRbt.so/2013.1/901 2013/11/27
 27 29  0  0  0  0  0  0  0  0999 V2000
   18.1064   -6.9529   -2.6825 N   0  0  0  0  0  0  0  0  0  0  0  0
   16.9282   -6.2313   -3.2525 C   0  0  2  0  0  0  0  0  0  0  0  0
   15.8564   -6.0957   -2.1750 C   0  0  0  0  0  0  0  0  0  0  0  0
   15.3653   -4.9965   -1.9459 O   0  0  0  0  0  0  0  0  0  0  0  0
   15.4541   -7.0554   -1.5050 O   0  0  0  0  0  0  0  0  0  0  0  0
   16.3691   -6.8758   -4.5370 C   0  0  0  0  0  0  0  0  0  0  0  0
   15.3473   -8.0283   -4.3519 C   0  0  0  0  0  0  0  0  0  0  0  0
   14.6442   -8.8475   -5.8479 S   0  0  2  0  0  0  0  0  0  0  0  0
   15.5848   -8.0518   -7.1676 C   0  0  0  0  0  0  0  0  0  0  0  0
   13.0510   -8.0269   -6.0720 C   0  0  0  0  0  0  0  0  0  0  0  0
   13.1072   -6.6257   -5.4781 C   0  0  1  0  0  0  0  0  0  0  0  0
   14.0276   -5.7822   -6.1541 O   0  0  0  0  0  0  0  0  0  0  0  0
   11.7998   -5.8871   -5.5797 C   0  0  1  0  0  0  0  0  0  0  0  0
   10.9209   -6.3239   -4.5833 O   0  0  0  0  0  0  0  0  0  0  0  0
   12.2677   -4.4631   -5.3759 C   0  0  1  0  0  0  0  0  0  0  0  0
   12.4151   -4.1915   -3.9970 O   0  0  0  0  0  0  0  0  0  0  0  0
   13.6407   -4.4245   -6.0376 C   0  0  2  0  0  0  0  0  0  0  0  0
   13.6889   -3.7242   -7.3504 N   0  0  0  0  0  0  0  0  0  0  0  0
   13.7119   -4.3390   -8.5770 C   0  0  0  0  0  0  0  0  0  0  0  0
   13.7541   -3.3965   -9.5451 N   0  0  0  0  0  0  0  0  0  0  0  0
   13.7500   -2.1846   -8.9661 C   0  0  0  0  0  0  0  0  0  0  0  0
   13.7725   -0.9019   -9.4922 C   0  0  0  0  0  0  0  0  0  0  0  0
   13.8026   -0.7168  -10.8054 N   0  0  0  0  0  0  0  0  0  0  0  0
   13.7570    0.1789   -8.6329 N   0  0  0  0  0  0  0  0  0  0  0  0
   13.7157   -0.0002   -7.2560 C   0  0  0  0  0  0  0  0  0  0  0  0
   13.6879   -1.2842   -6.7510 N   0  0  0  0  0  0  0  0  0  0  0  0
   13.7112   -2.3640   -7.5856 C   0  0  0  0  0  0  0  0  0  0  0  0
  2  3  1  1  0  0  0
  2  6  1  0  0  0  0
  2  1  1  0  0  0  0
  4  3  2  0  0  0  0
  5  3  1  0  0  0  0
  6  7  2  0  0  0  0
  8  7  1  1  0  0  0
  8  9  1  0  0  0  0
  8 10  1  0  0  0  0
 11 10  1  6  0  0  0
 11 13  1  0  0  0  0
 12 11  1  0  0  0  0
 12 17  1  0  0  0  0
 13 14  1  1  0  0  0
 13 15  1  0  0  0  0
 15 16  1  1  0  0  0
 17 18  1  6  0  0  0
 17 15  1  0  0  0  0
 18 19  1  0  0  0  0
 20 19  2  0  0  0  0
 21 27  2  0  0  0  0
 21 20  1  0  0  0  0
 22 21  1  0  0  0  0
 23 22  1  0  0  0  0
 24 22  2  0  0  0  0
 24 25  1  0  0  0  0
 25 26  2  0  0  0  0
 26 27  1  0  0  0  0
 27 18  1  0  0  0  0
M  END
>  <CHROM.1>
128.90153829,85.38922944,5.30097038,26.62012158,64.60844944,18.01438739,14.16886178
-4.97591394,-5.91255504,-0.98267725,-1.16288955,-0.15280123

>  <Name>
lig.pdb

>  <RI>
0

>  <Rbt.Current_Directory>
/home/itssahil/PROJECTS/Mol_Feturizer/New_Systems/rnas/4b5r

>  <Rbt.Executable>
rbdock ($Id: //depot/dev/client3/rdock/2013.1/src/exe/rbdock.cxx#4 $)

>  <Rbt.Library>
libRbt.so (2013.1, Build901 2013/11/27)

>  <Rbt.Parameter_File>
/export/apps/rDock/src/rDock_2013.1_src/data/scripts/dock_solv.prm

>  <Rbt.Receptor>
prm/blind_docking_20.prm

>  <SCORE>
-6.21718

>  <SCORE.INTER>
-8.04826

>  <SCORE.INTER.CONST>
1

>  <SCORE.INTER.POLAR>
0

>  <SCORE.INTER.ROT>
6

>  <SCORE.INTER.SOLV>
13.9127

>  <SCORE.INTER.VDW>
-17.6031

>  <SCORE.INTER.norm>
-0.298084

>  <SCORE.INTRA>
1.83107

>  <SCORE.INTRA.DIHEDRAL>
0.755999

>  <SCORE.INTRA.DIHEDRAL.0>
10.2917

>  <SCORE.INTRA.POLAR>
0

>  <SCORE.INTRA.POLAR.0>
0

>  <SCORE.INTRA.REPUL>
0

>  <SCORE.INTRA.REPUL.0>
0

>  <SCORE.INTRA.SOLV>
-2.66195

>  <SCORE.INTRA.SOLV.lig_0>
-39.6315

>  <SCORE.INTRA.VDW>
2.78405

>  <SCORE.INTRA.VDW.0>
-4.02152

>  <SCORE.INTRA.norm>
0.0678176

>  <SCORE.RESTR>
0

>  <SCORE.RESTR.CAVITY>
0

>  <SCORE.RESTR.norm>
0

>  <SCORE.SYSTEM>
0

>  <SCORE.SYSTEM.CONST>
0

>  <SCORE.SYSTEM.DIHEDRAL>
0

>  <SCORE.SYSTEM.SOLV>
0

>  <SCORE.SYSTEM.norm>
0

>  <SCORE.heavy>
27

>  <SCORE.norm>
-0.230266

>  <RMSD>
16.650

$$$$
lig.pdb
 OpenBabel11021811493D
libRbt.so/2013.1/901 2013/11/27
 27 29  0  0  0  0  0  0  0  0999 V2000
    3.8586   -5.1788  -20.0693 N   0  0  0  0  0  0  0  0  0  0  0  0
    4.1743   -6.3624  -20.9258 C   0  0  2  0  0  0  0  0  0  0  0  0
    2.8975   -6.8355  -21.6142 C   0  0  0  0  0  0  0  0  0  0  0  0
    2.7378   -8.0299  -21.8369 O   0  0  0  0  0  0  0  0  0  0  0  0
    2.0009   -6.0601  -21.9703 O   0  0  0  0  0  0  0  0  0  0  0  0
    4.8722   -7.5084  -20.1658 C   0  0  0  0  0  0  0  0  0  0  0  0
    6.2169   -8.0159  -20.7497 C   0  0  0  0  0  0  0  0  0  0  0  0
    7.1010   -9.3898  -19.8927 S   0  0  2  0  0  0  0  0  0  0  0  0
    8.3919   -8.4889  -19.0088 C   0  0  0  0  0  0  0  0  0  0  0  0
    8.0939  -10.1381  -21.2026 C   0  0  0  0  0  0  0  0  0  0  0  0
    7.1922  -10.9257  -22.1439 C   0  0  1  0  0  0  0  0  0  0  0  0
    6.2055  -10.1136  -22.7623 O   0  0  0  0  0  0  0  0  0  0  0  0
    7.9348  -11.5356  -23.3022 C   0  0  1  0  0  0  0  0  0  0  0  0
    8.5979  -12.6966  -22.8919 O   0  0  0  0  0  0  0  0  0  0  0  0
    6.7908  -11.8100  -24.2531 C   0  0  1  0  0  0  0  0  0  0  0  0
    6.1522  -13.0230  -23.9097 O   0  0  0  0  0  0  0  0  0  0  0  0
    5.8234  -10.6562  -24.0138 C   0  0  2  0  0  0  0  0  0  0  0  0
    5.8035   -9.6180  -25.0806 N   0  0  0  0  0  0  0  0  0  0  0  0
    6.9119   -9.0836  -25.6880 C   0  0  0  0  0  0  0  0  0  0  0  0
    6.5189   -8.1723  -26.6058 N   0  0  0  0  0  0  0  0  0  0  0  0
    5.1770   -8.1150  -26.6081 C   0  0  0  0  0  0  0  0  0  0  0  0
    4.2788   -7.3655  -27.3524 C   0  0  0  0  0  0  0  0  0  0  0  0
    4.7162   -6.5107  -28.2676 N   0  0  0  0  0  0  0  0  0  0  0  0
    2.9248   -7.5248  -27.1335 N   0  0  0  0  0  0  0  0  0  0  0  0
    2.4524   -8.4233  -26.1852 C   0  0  0  0  0  0  0  0  0  0  0  0
    3.3612   -9.1647  -25.4580 N   0  0  0  0  0  0  0  0  0  0  0  0
    4.7034   -9.0140  -25.6556 C   0  0  0  0  0  0  0  0  0  0  0  0
  2  3  1  1  0  0  0
  2  6  1  0  0  0  0
  2  1  1  0  0  0  0
  4  3  2  0  0  0  0
  5  3  1  0  0  0  0
  6  7  2  0  0  0  0
  8  7  1  6  0  0  0
  8  9  1  0  0  0  0
  8 10  1  0  0  0  0
 11 10  1  1  0  0  0
 11 13  1  0  0  0  0
 12 11  1  0  0  0  0
 12 17  1  0  0  0  0
 13 14  1  1  0  0  0
 13 15  1  0  0  0  0
 15 16  1  1  0  0  0
 17 18  1  6  0  0  0
 17 15  1  0  0  0  0
 18 19  1  0  0  0  0
 20 19  2  0  0  0  0
 21 27  2  0  0  0  0
 21 20  1  0  0  0  0
 22 21  1  0  0  0  0
 23 22  1  0  0  0  0
 24 22  2  0  0  0  0
 24 25  1  0  0  0  0
 25 26  2  0  0  0  0
 26 27  1  0  0  0  0
 27 18  1  0  0  0  0
M  END
>  <CHROM.1>
-146.69756784,-125.68670897,-101.85360567,-73.16910796,60.12236850,75.52325859
5.49692574,-8.94110532,-23.28238092,0.80733665,-0.81722241,1.29726393

>  <Name>
lig.pdb

>  <RI>
0

>  <Rbt.Current_Directory>
/home/itssahil/PROJECTS/Mol_Feturizer/New_Systems/rnas/4b5r

>  <Rbt.Executable>
rbdock ($Id: //depot/dev/client3/rdock/2013.1/src/exe/rbdock.cxx#4 $)

>  <Rbt.Library>
libRbt.so (2013.1, Build901 2013/11/27)

>  <Rbt.Parameter_File>
/export/apps/rDock/src/rDock_2013.1_src/data/scripts/dock_solv.prm

>  <Rbt.Receptor>
prm/blind_docking_80.prm

>  <SCORE>
-12.6771

>  <SCORE.INTER>
-11.6767

>  <SCORE.INTER.CONST>
1

>  <SCORE.INTER.POLAR>
0

>  <SCORE.INTER.ROT>
6

>  <SCORE.INTER.SOLV>
14.36

>  <SCORE.INTER.VDW>
-20.1711

>  <SCORE.INTER.norm>
-0.432469

>  <SCORE.INTRA>
-1.00046

>  <SCORE.INTRA.DIHEDRAL>
-1.96192

>  <SCORE.INTRA.DIHEDRAL.0>
10.2917

>  <SCORE.INTRA.POLAR>
0

>  <SCORE.INTRA.POLAR.0>
0

>  <SCORE.INTRA.REPUL>
0

>  <SCORE.INTRA.REPUL.0>
0

>  <SCORE.INTRA.SOLV>
-3.12487

>  <SCORE.INTRA.SOLV.lig_0>
-39.6315

>  <SCORE.INTRA.VDW>
1.54293

>  <SCORE.INTRA.VDW.0>
-4.02152

>  <SCORE.INTRA.norm>
-0.0370542

>  <SCORE.RESTR>
0

>  <SCORE.RESTR.CAVITY>
0

>  <SCORE.RESTR.norm>
0

>  <SCORE.SYSTEM>
0

>  <SCORE.SYSTEM.CONST>
0

>  <SCORE.SYSTEM.DIHEDRAL>
0

>  <SCORE.SYSTEM.SOLV>
0

>  <SCORE.SYSTEM.norm>
0

>  <SCORE.heavy>
27

>  <SCORE.norm>
-0.469524

>  <RMSD>
16.668

$$$$
lig.pdb
 OpenBabel11021811493D
libRbt.so/2013.1/901 2013/11/27
 27 29  0  0  0  0  0  0  0  0999 V2000
   16.0116  -10.2436   -3.8214 N   0  0  0  0  0  0  0  0  0  0  0  0
   15.8189   -8.8095   -4.1960 C   0  0  2  0  0  0  0  0  0  0  0  0
   15.8701   -7.9526   -2.9346 C   0  0  0  0  0  0  0  0  0  0  0  0
   16.4467   -8.3757   -1.9394 O   0  0  0  0  0  0  0  0  0  0  0  0
   15.3450   -6.8342   -2.8621 O   0  0  0  0  0  0  0  0  0  0  0  0
   14.5367   -8.5494   -5.0121 C   0  0  0  0  0  0  0  0  0  0  0  0
   14.7063   -7.7953   -6.3572 C   0  0  0  0  0  0  0  0  0  0  0  0
   13.2112   -7.4458   -7.3799 S   0  0  2  0  0  0  0  0  0  0  0  0
   13.8408   -6.1947   -8.5192 C   0  0  0  0  0  0  0  0  0  0  0  0
   12.1991   -6.4012   -6.3093 C   0  0  0  0  0  0  0  0  0  0  0  0
   13.0905   -5.6706   -5.3138 C   0  0  1  0  0  0  0  0  0  0  0  0
   14.2510   -5.1216   -5.9197 O   0  0  0  0  0  0  0  0  0  0  0  0
   12.4188   -4.4824   -4.6794 C   0  0  1  0  0  0  0  0  0  0  0  0
   11.5526   -4.9032   -3.6651 O   0  0  0  0  0  0  0  0  0  0  0  0
   13.6218   -3.7281   -4.1576 C   0  0  1  0  0  0  0  0  0  0  0  0
   14.0350   -4.2674   -2.9185 O   0  0  0  0  0  0  0  0  0  0  0  0
   14.7051   -3.9906   -5.1978 C   0  0  2  0  0  0  0  0  0  0  0  0
   15.0038   -2.8452   -6.1005 N   0  0  0  0  0  0  0  0  0  0  0  0
   16.1959   -2.1678   -6.1545 C   0  0  0  0  0  0  0  0  0  0  0  0
   16.1099   -1.1916   -7.0857 N   0  0  0  0  0  0  0  0  0  0  0  0
   14.8872   -1.2323   -7.6400 C   0  0  0  0  0  0  0  0  0  0  0  0
   14.2906   -0.4726   -8.6347 C   0  0  0  0  0  0  0  0  0  0  0  0
   14.9632    0.5076   -9.2233 N   0  0  0  0  0  0  0  0  0  0  0  0
   12.9913   -0.7532   -9.0086 N   0  0  0  0  0  0  0  0  0  0  0  0
   12.2785   -1.7829   -8.4075 C   0  0  0  0  0  0  0  0  0  0  0  0
   12.8908   -2.5320   -7.4234 N   0  0  0  0  0  0  0  0  0  0  0  0
   14.1716   -2.2630   -7.0356 C   0  0  0  0  0  0  0  0  0  0  0  0
  2  3  1  1  0  0  0
  2  6  1  0  0  0  0
  2  1  1  0  0  0  0
  4  3  2  0  0  0  0
  5  3  1  0  0  0  0
  6  7  2  0  0  0  0
  8  7  1  1  0  0  0
  8  9  1  0  0  0  0
  8 10  1  0  0  0  0
 11 10  1  6  0  0  0
 11 13  1  0  0  0  0
 12 11  1  0  0  0  0
 12 17  1  0  0  0  0
 13 14  1  1  0  0  0
 13 15  1  0  0  0  0
 15 16  1  1  0  0  0
 17 18  1  6  0  0  0
 17 15  1  0  0  0  0
 18 19  1  0  0  0  0
 20 19  2  0  0  0  0
 21 27  2  0  0  0  0
 21 20  1  0  0  0  0
 22 21  1  0  0  0  0
 23 22  1  0  0  0  0
 24 22  2  0  0  0  0
 24 25  1  0  0  0  0
 25 26  2  0  0  0  0
 26 27  1  0  0  0  0
 27 18  1  0  0  0  0
M  END
>  <CHROM.1>
22.95919472,-126.70715939,164.40239768,25.63489962,44.74058788,-125.38098955
14.21848963,-4.83470784,-5.85839929,1.33323275,1.07051238,2.82405160

>  <Name>
lig.pdb

>  <RI>
0

>  <Rbt.Current_Directory>
/home/itssahil/PROJECTS/Mol_Feturizer/New_Systems/rnas/4b5r

>  <Rbt.Executable>
rbdock ($Id: //depot/dev/client3/rdock/2013.1/src/exe/rbdock.cxx#4 $)

>  <Rbt.Library>
libRbt.so (2013.1, Build901 2013/11/27)

>  <Rbt.Parameter_File>
/export/apps/rDock/src/rDock_2013.1_src/data/scripts/dock_solv.prm

>  <Rbt.Receptor>
prm/blind_docking_20.prm

>  <SCORE>
-6.72714

>  <SCORE.INTER>
-6.90803

>  <SCORE.INTER.CONST>
1

>  <SCORE.INTER.POLAR>
0

>  <SCORE.INTER.ROT>
6

>  <SCORE.INTER.SOLV>
13.8716

>  <SCORE.INTER.VDW>
-16.8292

>  <SCORE.INTER.norm>
-0.255853

>  <SCORE.INTRA>
0.180886

>  <SCORE.INTRA.DIHEDRAL>
-0.590966

>  <SCORE.INTRA.DIHEDRAL.0>
10.2917

>  <SCORE.INTRA.POLAR>
0

>  <SCORE.INTRA.POLAR.0>
0

>  <SCORE.INTRA.REPUL>
0

>  <SCORE.INTRA.REPUL.0>
0

>  <SCORE.INTRA.SOLV>
-2.43637

>  <SCORE.INTRA.SOLV.lig_0>
-39.6315

>  <SCORE.INTRA.VDW>
1.69455

>  <SCORE.INTRA.VDW.0>
-4.02152

>  <SCORE.INTRA.norm>
0.0066995

>  <SCORE.RESTR>
0

>  <SCORE.RESTR.CAVITY>
0

>  <SCORE.RESTR.norm>
0

>  <SCORE.SYSTEM>
0

>  <SCORE.SYSTEM.CONST>
0

>  <SCORE.SYSTEM.DIHEDRAL>
0

>  <SCORE.SYSTEM.SOLV>
0

>  <SCORE.SYSTEM.norm>
0

>  <SCORE.heavy>
27

>  <SCORE.norm>
-0.249153

>  <RMSD>
16.700

$$$$
lig.pdb
 OpenBabel11021811493D
libRbt.so/2013.1/901 2013/11/27
 27 29  0  0  0  0  0  0  0  0999 V2000
   14.8145   -8.5234   -7.6477 N   0  0  0  0  0  0  0  0  0  0  0  0
   15.6413   -8.2375   -6.4358 C   0  0  2  0  0  0  0  0  0  0  0  0
   15.2158   -9.1739   -5.3087 C   0  0  0  0  0  0  0  0  0  0  0  0
   14.8469  -10.3118   -5.5750 O   0  0  0  0  0  0  0  0  0  0  0  0
   15.2193   -8.8352   -4.1183 O   0  0  0  0  0  0  0  0  0  0  0  0
   15.6052   -6.7601   -5.9957 C   0  0  0  0  0  0  0  0  0  0  0  0
   16.9738   -6.0634   -5.7763 C   0  0  0  0  0  0  0  0  0  0  0  0
   17.0019   -4.2976   -5.2428 S   0  0  2  0  0  0  0  0  0  0  0  0
   18.7087   -4.1199   -4.6817 C   0  0  0  0  0  0  0  0  0  0  0  0
   16.1575   -4.3229   -3.6465 C   0  0  0  0  0  0  0  0  0  0  0  0
   14.7245   -3.8359   -3.8162 C   0  0  1  0  0  0  0  0  0  0  0  0
   14.6196   -2.7533   -4.7284 O   0  0  0  0  0  0  0  0  0  0  0  0
   13.8083   -4.8823   -4.3917 C   0  0  1  0  0  0  0  0  0  0  0  0
   13.4306   -5.7911   -3.3981 O   0  0  0  0  0  0  0  0  0  0  0  0
   12.6637   -4.0171   -4.8710 C   0  0  1  0  0  0  0  0  0  0  0  0
   11.7946   -3.7204   -3.7970 O   0  0  0  0  0  0  0  0  0  0  0  0
   13.3383   -2.7299   -5.3320 C   0  0  2  0  0  0  0  0  0  0  0  0
   13.4286   -2.5587   -6.8081 N   0  0  0  0  0  0  0  0  0  0  0  0
   13.6733   -3.5639   -7.7096 C   0  0  0  0  0  0  0  0  0  0  0  0
   13.6853   -3.0467   -8.9585 N   0  0  0  0  0  0  0  0  0  0  0  0
   13.4441   -1.7277   -8.8803 C   0  0  0  0  0  0  0  0  0  0  0  0
   13.3397   -0.7417   -9.8496 C   0  0  0  0  0  0  0  0  0  0  0  0
   13.4861   -1.0452  -11.1325 N   0  0  0  0  0  0  0  0  0  0  0  0
   13.0755    0.5573   -9.4631 N   0  0  0  0  0  0  0  0  0  0  0  0
   12.9104    0.8877   -8.1239 C   0  0  0  0  0  0  0  0  0  0  0  0
   13.0121   -0.1081   -7.1739 N   0  0  0  0  0  0  0  0  0  0  0  0
   13.2810   -1.3960   -7.5376 C   0  0  0  0  0  0  0  0  0  0  0  0
  2  3  1  1  0  0  0
  2  6  1  0  0  0  0
  2  1  1  0  0  0  0
  4  3  2  0  0  0  0
  5  3  1  0  0  0  0
  6  7  2  0  0  0  0
  8  7  1  1  0  0  0
  8  9  1  0  0  0  0
  8 10  1  0  0  0  0
 11 10  1  6  0  0  0
 11 13  1  0  0  0  0
 12 11  1  0  0  0  0
 12 17  1  0  0  0  0
 13 14  1  1  0  0  0
 13 15  1  0  0  0  0
 15 16  1  1  0  0  0
 17 18  1  6  0  0  0
 17 15  1  0  0  0  0
 18 19  1  0  0  0  0
 20 19  2  0  0  0  0
 21 27  2  0  0  0  0
 21 20  1  0  0  0  0
 22 21  1  0  0  0  0
 23 22  1  0  0  0  0
 24 22  2  0  0  0  0
 24 25  1  0  0  0  0
 25 26  2  0  0  0  0
 26 27  1  0  0  0  0
 27 18  1  0  0  0  0
M  END
>  <CHROM.1>
33.96380744,-128.38458484,164.42991045,-101.35917334,-39.15529720,81.88454598
14.50134416,-4.19129554,-6.18516886,0.15874810,1.28506913,-2.20370980

>  <Name>
lig.pdb

>  <RI>
0

>  <Rbt.Current_Directory>
/home/itssahil/PROJECTS/Mol_Feturizer/New_Systems/rnas/4b5r

>  <Rbt.Executable>
rbdock ($Id: //depot/dev/client3/rdock/2013.1/src/exe/rbdock.cxx#4 $)

>  <Rbt.Library>
libRbt.so (2013.1, Build901 2013/11/27)

>  <Rbt.Parameter_File>
/export/apps/rDock/src/rDock_2013.1_src/data/scripts/dock_solv.prm

>  <Rbt.Receptor>
prm/blind_docking_20.prm

>  <SCORE>
-4.66582

>  <SCORE.INTER>
-4.61296

>  <SCORE.INTER.CONST>
1

>  <SCORE.INTER.POLAR>
0

>  <SCORE.INTER.ROT>
6

>  <SCORE.INTER.SOLV>
18.1965

>  <SCORE.INTER.VDW>
-16.7408

>  <SCORE.INTER.norm>
-0.170851

>  <SCORE.INTRA>
-0.060568

>  <SCORE.INTRA.DIHEDRAL>
0.884392

>  <SCORE.INTRA.DIHEDRAL.0>
10.2917

>  <SCORE.INTRA.POLAR>
0

>  <SCORE.INTRA.POLAR.0>
0

>  <SCORE.INTRA.REPUL>
0

>  <SCORE.INTRA.REPUL.0>
0

>  <SCORE.INTRA.SOLV>
-3.02361

>  <SCORE.INTRA.SOLV.lig_0>
-39.6315

>  <SCORE.INTRA.VDW>
1.00904

>  <SCORE.INTRA.VDW.0>
-4.02152

>  <SCORE.INTRA.norm>
-0.00224326

>  <SCORE.RESTR>
0.00770793

>  <SCORE.RESTR.CAVITY>
0.00770793

>  <SCORE.RESTR.norm>
0.000285479

>  <SCORE.SYSTEM>
0

>  <SCORE.SYSTEM.CONST>
0

>  <SCORE.SYSTEM.DIHEDRAL>
0

>  <SCORE.SYSTEM.SOLV>
0

>  <SCORE.SYSTEM.norm>
0

>  <SCORE.heavy>
27

>  <SCORE.norm>
-0.172808

>  <RMSD>
16.779

$$$$
lig.pdb
 OpenBabel11021811493D
libRbt.so/2013.1/901 2013/11/27
 27 29  0  0  0  0  0  0  0  0999 V2000
   16.8726   -6.7171   -2.1281 N   0  0  0  0  0  0  0  0  0  0  0  0
   16.1124   -7.8759   -2.6879 C   0  0  2  0  0  0  0  0  0  0  0  0
   16.7610   -9.1738   -2.2156 C   0  0  0  0  0  0  0  0  0  0  0  0
   16.9502  -10.0814   -3.0169 O   0  0  0  0  0  0  0  0  0  0  0  0
   17.1071   -9.3621   -1.0423 O   0  0  0  0  0  0  0  0  0  0  0  0
   15.9642   -7.8364   -4.2222 C   0  0  0  0  0  0  0  0  0  0  0  0
   14.6778   -8.4685   -4.8158 C   0  0  0  0  0  0  0  0  0  0  0  0
   14.4409   -8.4606   -6.6453 S   0  0  2  0  0  0  0  0  0  0  0  0
   15.9600   -9.2584   -7.2069 C   0  0  0  0  0  0  0  0  0  0  0  0
   14.8023   -6.7539   -7.1128 C   0  0  0  0  0  0  0  0  0  0  0  0
   13.9764   -5.8017   -6.2580 C   0  0  1  0  0  0  0  0  0  0  0  0
   14.4553   -4.4663   -6.3094 O   0  0  0  0  0  0  0  0  0  0  0  0
   12.5457   -5.6892   -6.7116 C   0  0  1  0  0  0  0  0  0  0  0  0
   11.8119   -6.7950   -6.2703 O   0  0  0  0  0  0  0  0  0  0  0  0
   12.1395   -4.3988   -6.0346 C   0  0  1  0  0  0  0  0  0  0  0  0
   11.7860   -4.6451   -4.6888 O   0  0  0  0  0  0  0  0  0  0  0  0
   13.4044   -3.5481   -6.0665 C   0  0  2  0  0  0  0  0  0  0  0  0
   13.3969   -2.4438   -7.0648 N   0  0  0  0  0  0  0  0  0  0  0  0
   13.8826   -2.5289   -8.3453 C   0  0  0  0  0  0  0  0  0  0  0  0
   13.7111   -1.3398   -8.9650 N   0  0  0  0  0  0  0  0  0  0  0  0
   13.1156   -0.4914   -8.1107 C   0  0  0  0  0  0  0  0  0  0  0  0
   12.7109    0.8284   -8.2405 C   0  0  0  0  0  0  0  0  0  0  0  0
   12.8953    1.4765   -9.3831 N   0  0  0  0  0  0  0  0  0  0  0  0
   12.1086    1.4566   -7.1684 N   0  0  0  0  0  0  0  0  0  0  0  0
   11.9005    0.7871   -5.9692 C   0  0  0  0  0  0  0  0  0  0  0  0
   12.3047   -0.5280   -5.8607 N   0  0  0  0  0  0  0  0  0  0  0  0
   12.9092   -1.1618   -6.9076 C   0  0  0  0  0  0  0  0  0  0  0  0
  2  3  1  6  0  0  0
  2  6  1  0  0  0  0
  2  1  1  0  0  0  0
  4  3  2  0  0  0  0
  5  3  1  0  0  0  0
  6  7  2  0  0  0  0
  8  7  1  1  0  0  0
  8  9  1  0  0  0  0
  8 10  1  0  0  0  0
 11 10  1  6  0  0  0
 11 13  1  0  0  0  0
 12 11  1  0  0  0  0
 12 17  1  0  0  0  0
 13 14  1  1  0  0  0
 13 15  1  0  0  0  0
 15 16  1  1  0  0  0
 17 18  1  6  0  0  0
 17 15  1  0  0  0  0
 18 19  1  0  0  0  0
 20 19  2  0  0  0  0
 21 27  2  0  0  0  0
 21 20  1  0  0  0  0
 22 21  1  0  0  0  0
 23 22  1  0  0  0  0
 24 22  2  0  0  0  0
 24 25  1  0  0  0  0
 25 26  2  0  0  0  0
 26 27  1  0  0  0  0
 27 18  1  0  0  0  0
M  END
>  <CHROM.1>
-134.79087997,-148.89191873,54.76989752,-51.99246433,164.18273152,26.86096695
14.06771366,-4.85379248,-5.89702761,-0.56432321,-1.16549715,0.54607473

>  <Name>
lig.pdb

>  <RI>
0

>  <Rbt.Current_Directory>
/home/itssahil/PROJECTS/Mol_Feturizer/New_Systems/rnas/4b5r

>  <Rbt.Executable>
rbdock ($Id: //depot/dev/client3/rdock/2013.1/src/exe/rbdock.cxx#4 $)

>  <Rbt.Library>
libRbt.so (2013.1, Build901 2013/11/27)

>  <Rbt.Parameter_File>
/export/apps/rDock/src/rDock_2013.1_src/data/scripts/dock_solv.prm

>  <Rbt.Receptor>
prm/blind_docking_20.prm

>  <SCORE>
-4.47895

>  <SCORE.INTER>
-5.2918

>  <SCORE.INTER.CONST>
1

>  <SCORE.INTER.POLAR>
0

>  <SCORE.INTER.ROT>
6

>  <SCORE.INTER.SOLV>
12.9202

>  <SCORE.INTER.VDW>
-15.4346

>  <SCORE.INTER.norm>
-0.195992

>  <SCORE.INTRA>
0.812843

>  <SCORE.INTRA.DIHEDRAL>
1.07221

>  <SCORE.INTRA.DIHEDRAL.0>
10.2917

>  <SCORE.INTRA.POLAR>
0

>  <SCORE.INTRA.POLAR.0>
0

>  <SCORE.INTRA.REPUL>
0

>  <SCORE.INTRA.REPUL.0>
0

>  <SCORE.INTRA.SOLV>
-2.96649

>  <SCORE.INTRA.SOLV.lig_0>
-39.6315

>  <SCORE.INTRA.VDW>
1.75998

>  <SCORE.INTRA.VDW.0>
-4.02152

>  <SCORE.INTRA.norm>
0.0301053

>  <SCORE.RESTR>
0

>  <SCORE.RESTR.CAVITY>
0

>  <SCORE.RESTR.norm>
0

>  <SCORE.SYSTEM>
0

>  <SCORE.SYSTEM.CONST>
0

>  <SCORE.SYSTEM.DIHEDRAL>
0

>  <SCORE.SYSTEM.SOLV>
0

>  <SCORE.SYSTEM.norm>
0

>  <SCORE.heavy>
27

>  <SCORE.norm>
-0.165887

>  <RMSD>
16.791

$$$$
lig.pdb
 OpenBabel11021811493D
libRbt.so/2013.1/901 2013/11/27
 27 29  0  0  0  0  0  0  0  0999 V2000
   14.5215   -8.4813   -6.4757 N   0  0  0  0  0  0  0  0  0  0  0  0
   13.7851   -7.1933   -6.2943 C   0  0  2  0  0  0  0  0  0  0  0  0
   13.2024   -6.7580   -7.6356 C   0  0  0  0  0  0  0  0  0  0  0  0
   12.0582   -6.3221   -7.6846 O   0  0  0  0  0  0  0  0  0  0  0  0
   13.8360   -6.8287   -8.6964 O   0  0  0  0  0  0  0  0  0  0  0  0
   14.6355   -6.0789   -5.6518 C   0  0  0  0  0  0  0  0  0  0  0  0
   14.8985   -4.8165   -6.5142 C   0  0  0  0  0  0  0  0  0  0  0  0
   15.9142   -3.4479   -5.8079 S   0  0  2  0  0  0  0  0  0  0  0  0
   17.5336   -4.2350   -5.6755 C   0  0  0  0  0  0  0  0  0  0  0  0
   15.4429   -3.4255   -4.0646 C   0  0  0  0  0  0  0  0  0  0  0  0
   14.1806   -2.5927   -3.8848 C   0  0  1  0  0  0  0  0  0  0  0  0
   14.2637   -1.3290   -4.5263 O   0  0  0  0  0  0  0  0  0  0  0  0
   12.9607   -3.2277   -4.4964 C   0  0  1  0  0  0  0  0  0  0  0  0
   12.4707   -4.2350   -3.6589 O   0  0  0  0  0  0  0  0  0  0  0  0
   12.0397   -2.0312   -4.5874 C   0  0  1  0  0  0  0  0  0  0  0  0
   11.4078   -1.8071   -3.3435 O   0  0  0  0  0  0  0  0  0  0  0  0
   12.9746   -0.8642   -4.8851 C   0  0  2  0  0  0  0  0  0  0  0  0
   12.9391   -0.3696   -6.2889 N   0  0  0  0  0  0  0  0  0  0  0  0
   12.6568    0.9183   -6.6691 C   0  0  0  0  0  0  0  0  0  0  0  0
   12.7149    1.0059   -8.0168 N   0  0  0  0  0  0  0  0  0  0  0  0
   13.0381   -0.1997   -8.5128 C   0  0  0  0  0  0  0  0  0  0  0  0
   13.2342   -0.6504   -9.8094 C   0  0  0  0  0  0  0  0  0  0  0  0
   13.1065    0.1817  -10.8345 N   0  0  0  0  0  0  0  0  0  0  0  0
   13.5700   -1.9733  -10.0190 N   0  0  0  0  0  0  0  0  0  0  0  0
   13.7166   -2.8534   -8.9542 C   0  0  0  0  0  0  0  0  0  0  0  0
   13.5230   -2.3853   -7.6705 N   0  0  0  0  0  0  0  0  0  0  0  0
   13.1826   -1.0827   -7.4456 C   0  0  0  0  0  0  0  0  0  0  0  0
  2  3  1  6  0  0  0
  2  6  1  0  0  0  0
  2  1  1  0  0  0  0
  4  3  2  0  0  0  0
  5  3  1  0  0  0  0
  6  7  2  0  0  0  0
  8  7  1  6  0  0  0
  8  9  1  0  0  0  0
  8 10  1  0  0  0  0
 11 10  1  6  0  0  0
 11 13  1  0  0  0  0
 12 11  1  0  0  0  0
 12 17  1  0  0  0  0
 13 14  1  1  0  0  0
 13 15  1  0  0  0  0
 15 16  1  1  0  0  0
 17 18  1  6  0  0  0
 17 15  1  0  0  0  0
 18 19  1  0  0  0  0
 20 19  2  0  0  0  0
 21 27  2  0  0  0  0
 21 20  1  0  0  0  0
 22 21  1  0  0  0  0
 23 22  1  0  0  0  0
 24 22  2  0  0  0  0
 24 25  1  0  0  0  0
 25 26  2  0  0  0  0
 26 27  1  0  0  0  0
 27 18  1  0  0  0  0
M  END
>  <CHROM.1>
136.90162215,116.85974937,66.67165012,-84.68736154,-48.99673850,-117.63565412
13.72933734,-3.06765037,-6.51443396,-0.01130397,1.35833789,-1.79302621

>  <Name>
lig.pdb

>  <RI>
0

>  <Rbt.Current_Directory>
/home/itssahil/PROJECTS/Mol_Feturizer/New_Systems/rnas/4b5r

>  <Rbt.Executable>
rbdock ($Id: //depot/dev/client3/rdock/2013.1/src/exe/rbdock.cxx#4 $)

>  <Rbt.Library>
libRbt.so (2013.1, Build901 2013/11/27)

>  <Rbt.Parameter_File>
/export/apps/rDock/src/rDock_2013.1_src/data/scripts/dock_solv.prm

>  <Rbt.Receptor>
prm/blind_docking_20.prm

>  <SCORE>
-11.1271

>  <SCORE.INTER>
-9.7999

>  <SCORE.INTER.CONST>
1

>  <SCORE.INTER.POLAR>
0

>  <SCORE.INTER.ROT>
6

>  <SCORE.INTER.SOLV>
17.1005

>  <SCORE.INTER.VDW>
-19.8334

>  <SCORE.INTER.norm>
-0.362959

>  <SCORE.INTRA>
-1.32724

>  <SCORE.INTRA.DIHEDRAL>
-0.578818

>  <SCORE.INTRA.DIHEDRAL.0>
10.2917

>  <SCORE.INTRA.POLAR>
0

>  <SCORE.INTRA.POLAR.0>
0

>  <SCORE.INTRA.REPUL>
0

>  <SCORE.INTRA.REPUL.0>
0

>  <SCORE.INTRA.SOLV>
-1.537

>  <SCORE.INTRA.SOLV.lig_0>
-39.6315

>  <SCORE.INTRA.VDW>
-0.269332

>  <SCORE.INTRA.VDW.0>
-4.02152

>  <SCORE.INTRA.norm>
-0.049157

>  <SCORE.RESTR>
0

>  <SCORE.RESTR.CAVITY>
0

>  <SCORE.RESTR.norm>
0

>  <SCORE.SYSTEM>
0

>  <SCORE.SYSTEM.CONST>
0

>  <SCORE.SYSTEM.DIHEDRAL>
0

>  <SCORE.SYSTEM.SOLV>
0

>  <SCORE.SYSTEM.norm>
0

>  <SCORE.heavy>
27

>  <SCORE.norm>
-0.412116

>  <RMSD>
16.805

$$$$
lig.pdb
 OpenBabel11021811493D
libRbt.so/2013.1/901 2013/11/27
 27 29  0  0  0  0  0  0  0  0999 V2000
   16.0758  -10.5822   -4.3724 N   0  0  0  0  0  0  0  0  0  0  0  0
   16.0544   -9.1244   -4.7016 C   0  0  2  0  0  0  0  0  0  0  0  0
   16.5237   -8.3309   -3.4857 C   0  0  0  0  0  0  0  0  0  0  0  0
   16.2188   -8.7110   -2.3614 O   0  0  0  0  0  0  0  0  0  0  0  0
   17.2045   -7.3015   -3.5790 O   0  0  0  0  0  0  0  0  0  0  0  0
   14.6893   -8.6258   -5.2173 C   0  0  0  0  0  0  0  0  0  0  0  0
   14.6702   -7.9762   -6.6259 C   0  0  0  0  0  0  0  0  0  0  0  0
   13.0704   -7.3524   -7.3003 S   0  0  2  0  0  0  0  0  0  0  0  0
   13.6406   -6.1829   -8.5519 C   0  0  0  0  0  0  0  0  0  0  0  0
   12.5004   -6.1936   -6.0377 C   0  0  0  0  0  0  0  0  0  0  0  0
   13.6909   -5.4444   -5.4538 C   0  0  1  0  0  0  0  0  0  0  0  0
   14.2402   -4.4999   -6.3602 O   0  0  0  0  0  0  0  0  0  0  0  0
   13.3362   -4.6202   -4.2453 C   0  0  1  0  0  0  0  0  0  0  0  0
   13.2386   -5.4387   -3.1156 O   0  0  0  0  0  0  0  0  0  0  0  0
   14.5180   -3.6772   -4.1948 C   0  0  1  0  0  0  0  0  0  0  0  0
   15.6130   -4.3022   -3.5566 O   0  0  0  0  0  0  0  0  0  0  0  0
   14.8679   -3.4407   -5.6598 C   0  0  2  0  0  0  0  0  0  0  0  0
   14.4670   -2.1117   -6.1975 N   0  0  0  0  0  0  0  0  0  0  0  0
   14.4145   -0.9465   -5.4746 C   0  0  0  0  0  0  0  0  0  0  0  0
   14.0114    0.0594   -6.2827 N   0  0  0  0  0  0  0  0  0  0  0  0
   13.8113   -0.4334   -7.5160 C   0  0  0  0  0  0  0  0  0  0  0  0
   13.4099    0.1620   -8.7022 C   0  0  0  0  0  0  0  0  0  0  0  0
   13.1485    1.4618   -8.7445 N   0  0  0  0  0  0  0  0  0  0  0  0
   13.2921   -0.6133   -9.8387 N   0  0  0  0  0  0  0  0  0  0  0  0
   13.5720   -1.9737   -9.8111 C   0  0  0  0  0  0  0  0  0  0  0  0
   13.9757   -2.5476   -8.6227 N   0  0  0  0  0  0  0  0  0  0  0  0
   14.0894   -1.7978   -7.4878 C   0  0  0  0  0  0  0  0  0  0  0  0
  2  3  1  1  0  0  0
  2  6  1  0  0  0  0
  2  1  1  0  0  0  0
  4  3  2  0  0  0  0
  5  3  1  0  0  0  0
  6  7  2  0  0  0  0
  8  7  1  1  0  0  0
  8  9  1  0  0  0  0
  8 10  1  0  0  0  0
 11 10  1  6  0  0  0
 11 13  1  0  0  0  0
 12 11  1  0  0  0  0
 12 17  1  0  0  0  0
 13 14  1  1  0  0  0
 13 15  1  0  0  0  0
 15 16  1  1  0  0  0
 17 18  1  6  0  0  0
 17 15  1  0  0  0  0
 18 19  1  0  0  0  0
 20 19  2  0  0  0  0
 21 27  2  0  0  0  0
 21 20  1  0  0  0  0
 22 21  1  0  0  0  0
 23 22  1  0  0  0  0
 24 22  2  0  0  0  0
 24 25  1  0  0  0  0
 25 26  2  0  0  0  0
 26 27  1  0  0  0  0
 27 18  1  0  0  0  0
M  END
>  <CHROM.1>
-36.29149133,-121.54326381,159.03036842,36.99173401,71.80795853,151.25734788
14.34138600,-4.66711280,-6.05456565,1.00975014,1.17782701,-3.06803557

>  <Name>
lig.pdb

>  <RI>
0

>  <Rbt.Current_Directory>
/home/itssahil/PROJECTS/Mol_Feturizer/New_Systems/rnas/4b5r

>  <Rbt.Executable>
rbdock ($Id: //depot/dev/client3/rdock/2013.1/src/exe/rbdock.cxx#4 $)

>  <Rbt.Library>
libRbt.so (2013.1, Build901 2013/11/27)

>  <Rbt.Parameter_File>
/export/apps/rDock/src/rDock_2013.1_src/data/scripts/dock_solv.prm

>  <Rbt.Receptor>
prm/blind_docking_20.prm

>  <SCORE>
-8.40815

>  <SCORE.INTER>
-9.07431

>  <SCORE.INTER.CONST>
1

>  <SCORE.INTER.POLAR>
0

>  <SCORE.INTER.ROT>
6

>  <SCORE.INTER.SOLV>
14.8335

>  <SCORE.INTER.VDW>
-18.594

>  <SCORE.INTER.norm>
-0.336086

>  <SCORE.INTRA>
0.666165

>  <SCORE.INTRA.DIHEDRAL>
-2.17634

>  <SCORE.INTRA.DIHEDRAL.0>
10.2917

>  <SCORE.INTRA.POLAR>
0

>  <SCORE.INTRA.POLAR.0>
0

>  <SCORE.INTRA.REPUL>
0.221655

>  <SCORE.INTRA.REPUL.0>
0

>  <SCORE.INTRA.SOLV>
-2.58087

>  <SCORE.INTRA.SOLV.lig_0>
-39.6315

>  <SCORE.INTRA.VDW>
1.9365

>  <SCORE.INTRA.VDW.0>
-4.02152

>  <SCORE.INTRA.norm>
0.0246728

>  <SCORE.RESTR>
0

>  <SCORE.RESTR.CAVITY>
0

>  <SCORE.RESTR.norm>
0

>  <SCORE.SYSTEM>
0

>  <SCORE.SYSTEM.CONST>
0

>  <SCORE.SYSTEM.DIHEDRAL>
0

>  <SCORE.SYSTEM.SOLV>
0

>  <SCORE.SYSTEM.norm>
0

>  <SCORE.heavy>
27

>  <SCORE.norm>
-0.311413

>  <RMSD>
16.809

$$$$
lig.pdb
 OpenBabel11021811493D
libRbt.so/2013.1/901 2013/11/27
 27 29  0  0  0  0  0  0  0  0999 V2000
   17.9852   -5.3266   -2.1546 N   0  0  0  0  0  0  0  0  0  0  0  0
   16.8174   -4.9283   -2.9982 C   0  0  2  0  0  0  0  0  0  0  0  0
   15.5277   -5.2387   -2.2444 C   0  0  0  0  0  0  0  0  0  0  0  0
   14.6593   -4.3789   -2.1526 O   0  0  0  0  0  0  0  0  0  0  0  0
   15.3120   -6.3324   -1.7067 O   0  0  0  0  0  0  0  0  0  0  0  0
   16.8243   -5.5618   -4.4041 C   0  0  0  0  0  0  0  0  0  0  0  0
   15.5475   -6.3342   -4.8280 C   0  0  0  0  0  0  0  0  0  0  0  0
   15.4923   -7.1221   -6.4952 S   0  0  2  0  0  0  0  0  0  0  0  0
   17.2286   -7.0479   -6.9843 C   0  0  0  0  0  0  0  0  0  0  0  0
   14.8212   -5.8238   -7.5563 C   0  0  0  0  0  0  0  0  0  0  0  0
   13.3296   -5.6651   -7.2924 C   0  0  1  0  0  0  0  0  0  0  0  0
   13.0593   -4.9260   -6.1109 O   0  0  0  0  0  0  0  0  0  0  0  0
   12.6168   -4.8943   -8.3708 C   0  0  1  0  0  0  0  0  0  0  0  0
   12.3804   -5.7181   -9.4760 O   0  0  0  0  0  0  0  0  0  0  0  0
   11.3509   -4.5013   -7.6419 C   0  0  1  0  0  0  0  0  0  0  0  0
   10.4231   -5.5669   -7.6677 O   0  0  0  0  0  0  0  0  0  0  0  0
   11.8048   -4.2748   -6.2041 C   0  0  2  0  0  0  0  0  0  0  0  0
   11.8932   -2.8483   -5.7877 N   0  0  0  0  0  0  0  0  0  0  0  0
   11.8447   -2.3954   -4.4933 C   0  0  0  0  0  0  0  0  0  0  0  0
   11.9545   -1.0481   -4.4901 N   0  0  0  0  0  0  0  0  0  0  0  0
   12.0818   -0.6238   -5.7580 C   0  0  0  0  0  0  0  0  0  0  0  0
   12.2348    0.6411   -6.3051 C   0  0  0  0  0  0  0  0  0  0  0  0
   12.2791    1.7096   -5.5204 N   0  0  0  0  0  0  0  0  0  0  0  0
   12.3465    0.7733   -7.6751 N   0  0  0  0  0  0  0  0  0  0  0  0
   12.3115   -0.3378   -8.5081 C   0  0  0  0  0  0  0  0  0  0  0  0
   12.1645   -1.5892   -7.9450 N   0  0  0  0  0  0  0  0  0  0  0  0
   12.0442   -1.7375   -6.5934 C   0  0  0  0  0  0  0  0  0  0  0  0
  2  3  1  1  0  0  0
  2  6  1  0  0  0  0
  2  1  1  0  0  0  0
  4  3  2  0  0  0  0
  5  3  1  0  0  0  0
  6  7  2  0  0  0  0
  8  7  1  1  0  0  0
  8  9  1  0  0  0  0
  8 10  1  0  0  0  0
 11 10  1  6  0  0  0
 11 13  1  0  0  0  0
 12 11  1  0  0  0  0
 12 17  1  0  0  0  0
 13 14  1  6  0  0  0
 13 15  1  0  0  0  0
 15 16  1  1  0  0  0
 17 18  1  6  0  0  0
 17 15  1  0  0  0  0
 18 19  1  0  0  0  0
 20 19  2  0  0  0  0
 21 27  2  0  0  0  0
 21 20  1  0  0  0  0
 22 21  1  0  0  0  0
 23 22  1  0  0  0  0
 24 22  2  0  0  0  0
 24 25  1  0  0  0  0
 25 26  2  0  0  0  0
 26 27  1  0  0  0  0
 27 18  1  0  0  0  0
M  END
>  <CHROM.1>
130.77663560,126.27184895,13.42947617,-74.08178889,78.47114576,-82.98222117
13.66775835,-3.97907836,-5.85848657,-0.33414196,-0.90140448,0.67785184

>  <Name>
lig.pdb

>  <RI>
0

>  <Rbt.Current_Directory>
/home/itssahil/PROJECTS/Mol_Feturizer/New_Systems/rnas/4b5r

>  <Rbt.Executable>
rbdock ($Id: //depot/dev/client3/rdock/2013.1/src/exe/rbdock.cxx#4 $)

>  <Rbt.Library>
libRbt.so (2013.1, Build901 2013/11/27)

>  <Rbt.Parameter_File>
/export/apps/rDock/src/rDock_2013.1_src/data/scripts/dock_solv.prm

>  <Rbt.Receptor>
prm/blind_docking_20.prm

>  <SCORE>
-4.04476

>  <SCORE.INTER>
-4.62336

>  <SCORE.INTER.CONST>
1

>  <SCORE.INTER.POLAR>
0

>  <SCORE.INTER.ROT>
6

>  <SCORE.INTER.SOLV>
17.8168

>  <SCORE.INTER.VDW>
-16.6212

>  <SCORE.INTER.norm>
-0.171235

>  <SCORE.INTRA>
0.391079

>  <SCORE.INTRA.DIHEDRAL>
-1.02888

>  <SCORE.INTRA.DIHEDRAL.0>
10.2917

>  <SCORE.INTRA.POLAR>
0

>  <SCORE.INTRA.POLAR.0>
0

>  <SCORE.INTRA.REPUL>
0

>  <SCORE.INTRA.REPUL.0>
0

>  <SCORE.INTRA.SOLV>
-2.87186

>  <SCORE.INTRA.SOLV.lig_0>
-39.6315

>  <SCORE.INTRA.VDW>
2.34145

>  <SCORE.INTRA.VDW.0>
-4.02152

>  <SCORE.INTRA.norm>
0.0144844

>  <SCORE.RESTR>
0.18752

>  <SCORE.RESTR.CAVITY>
0.18752

>  <SCORE.RESTR.norm>
0.00694519

>  <SCORE.SYSTEM>
0

>  <SCORE.SYSTEM.CONST>
0

>  <SCORE.SYSTEM.DIHEDRAL>
0

>  <SCORE.SYSTEM.SOLV>
0

>  <SCORE.SYSTEM.norm>
0

>  <SCORE.heavy>
27

>  <SCORE.norm>
-0.149806

>  <RMSD>
16.876

$$$$
lig.pdb
 OpenBabel11021811493D
libRbt.so/2013.1/901 2013/11/27
 27 29  0  0  0  0  0  0  0  0999 V2000
  -11.7531  -11.9663  -13.7390 N   0  0  0  0  0  0  0  0  0  0  0  0
  -10.9748  -12.3961  -14.9405 C   0  0  2  0  0  0  0  0  0  0  0  0
  -10.8236  -13.9143  -14.9207 C   0  0  0  0  0  0  0  0  0  0  0  0
  -10.0224  -14.4319  -14.1513 O   0  0  0  0  0  0  0  0  0  0  0  0
  -11.4767  -14.6628  -15.6589 O   0  0  0  0  0  0  0  0  0  0  0  0
   -9.6124  -11.6878  -15.0819 C   0  0  0  0  0  0  0  0  0  0  0  0
   -9.4744  -10.6649  -16.2400 C   0  0  0  0  0  0  0  0  0  0  0  0
   -7.8683   -9.7867  -16.4695 S   0  0  2  0  0  0  0  0  0  0  0  0
   -7.8932   -8.6268  -15.0862 C   0  0  0  0  0  0  0  0  0  0  0  0
   -8.1988   -8.6457  -17.8299 C   0  0  0  0  0  0  0  0  0  0  0  0
   -6.8861   -8.0816  -18.3571 C   0  0  1  0  0  0  0  0  0  0  0  0
   -5.9756   -9.0959  -18.7539 O   0  0  0  0  0  0  0  0  0  0  0  0
   -7.0569   -7.2454  -19.5968 C   0  0  1  0  0  0  0  0  0  0  0  0
   -7.5218   -5.9707  -19.2580 O   0  0  0  0  0  0  0  0  0  0  0  0
   -5.6398   -7.2392  -20.1260 C   0  0  1  0  0  0  0  0  0  0  0  0
   -4.8756   -6.2543  -19.4604 O   0  0  0  0  0  0  0  0  0  0  0  0
   -5.0997   -8.6168  -19.7588 C   0  0  2  0  0  0  0  0  0  0  0  0
   -4.9884   -9.5739  -20.8937 N   0  0  0  0  0  0  0  0  0  0  0  0
   -4.0176  -10.5342  -21.0290 C   0  0  0  0  0  0  0  0  0  0  0  0
   -4.2269  -11.2182  -22.1760 N   0  0  0  0  0  0  0  0  0  0  0  0
   -5.3200  -10.7228  -22.7790 C   0  0  0  0  0  0  0  0  0  0  0  0
   -5.9680  -11.0631  -23.9567 C   0  0  0  0  0  0  0  0  0  0  0  0
   -5.5099  -12.0531  -24.7115 N   0  0  0  0  0  0  0  0  0  0  0  0
   -7.0983  -10.3633  -24.3300 N   0  0  0  0  0  0  0  0  0  0  0  0
   -7.5946   -9.3307  -23.5444 C   0  0  0  0  0  0  0  0  0  0  0  0
   -6.9396   -9.0101  -22.3727 N   0  0  0  0  0  0  0  0  0  0  0  0
   -5.8162   -9.6860  -21.9927 C   0  0  0  0  0  0  0  0  0  0  0  0
  2  3  1  1  0  0  0
  2  6  1  0  0  0  0
  2  1  1  0  0  0  0
  4  3  2  0  0  0  0
  5  3  1  0  0  0  0
  6  7  2  0  0  0  0
  8  7  1  1  0  0  0
  8  9  1  0  0  0  0
  8 10  1  0  0  0  0
 11 10  1  6  0  0  0
 11 13  1  0  0  0  0
 12 11  1  0  0  0  0
 12 17  1  0  0  0  0
 13 14  1  1  0  0  0
 13 15  1  0  0  0  0
 15 16  1  1  0  0  0
 17 18  1  6  0  0  0
 17 15  1  0  0  0  0
 18 19  1  0  0  0  0
 20 19  2  0  0  0  0
 21 27  2  0  0  0  0
 21 20  1  0  0  0  0
 22 21  1  0  0  0  0
 23 22  1  0  0  0  0
 24 22  2  0  0  0  0
 24 25  1  0  0  0  0
 25 26  2  0  0  0  0
 26 27  1  0  0  0  0
 27 18  1  0  0  0  0
M  END
>  <CHROM.1>
-75.61584370,-109.72749881,-73.35281901,-166.70099182,55.84075494,-94.32162789
-7.40494536,-10.07366549,-18.95121390,2.82196655,1.01059789,0.74792217

>  <Name>
lig.pdb

>  <RI>
0

>  <Rbt.Current_Directory>
/home/itssahil/PROJECTS/Mol_Feturizer/New_Systems/rnas/4b5r

>  <Rbt.Executable>
rbdock ($Id: //depot/dev/client3/rdock/2013.1/src/exe/rbdock.cxx#4 $)

>  <Rbt.Library>
libRbt.so (2013.1, Build901 2013/11/27)

>  <Rbt.Parameter_File>
/export/apps/rDock/src/rDock_2013.1_src/data/scripts/dock_solv.prm

>  <Rbt.Receptor>
prm/blind_docking_60.prm

>  <SCORE>
-12.8022

>  <SCORE.INTER>
-12.1431

>  <SCORE.INTER.CONST>
1

>  <SCORE.INTER.POLAR>
0

>  <SCORE.INTER.ROT>
6

>  <SCORE.INTER.SOLV>
14.114

>  <SCORE.INTER.VDW>
-20.4001

>  <SCORE.INTER.norm>
-0.449746

>  <SCORE.INTRA>
-0.810536

>  <SCORE.INTRA.DIHEDRAL>
-1.42616

>  <SCORE.INTRA.DIHEDRAL.0>
10.2917

>  <SCORE.INTRA.POLAR>
0

>  <SCORE.INTRA.POLAR.0>
0

>  <SCORE.INTRA.REPUL>
0

>  <SCORE.INTRA.REPUL.0>
0

>  <SCORE.INTRA.SOLV>
-2.76779

>  <SCORE.INTRA.SOLV.lig_0>
-39.6315

>  <SCORE.INTRA.VDW>
1.28644

>  <SCORE.INTRA.VDW.0>
-4.02152

>  <SCORE.INTRA.norm>
-0.0300198

>  <SCORE.RESTR>
0.151475

>  <SCORE.RESTR.CAVITY>
0.151475

>  <SCORE.RESTR.norm>
0.00561019

>  <SCORE.SYSTEM>
0

>  <SCORE.SYSTEM.CONST>
0

>  <SCORE.SYSTEM.DIHEDRAL>
0

>  <SCORE.SYSTEM.SOLV>
0

>  <SCORE.SYSTEM.norm>
0

>  <SCORE.heavy>
27

>  <SCORE.norm>
-0.474155

>  <RMSD>
16.878

$$$$
lig.pdb
 OpenBabel11021811493D
libRbt.so/2013.1/901 2013/11/27
 27 29  0  0  0  0  0  0  0  0999 V2000
   14.3179   -9.0037   -5.1655 N   0  0  0  0  0  0  0  0  0  0  0  0
   14.0796   -7.7462   -5.9373 C   0  0  2  0  0  0  0  0  0  0  0  0
   14.4849   -7.9683   -7.3915 C   0  0  0  0  0  0  0  0  0  0  0  0
   15.4620   -8.6622   -7.6474 O   0  0  0  0  0  0  0  0  0  0  0  0
   13.8693   -7.4702   -8.3427 O   0  0  0  0  0  0  0  0  0  0  0  0
   14.7727   -6.5080   -5.3336 C   0  0  0  0  0  0  0  0  0  0  0  0
   15.9298   -5.8846   -6.1575 C   0  0  0  0  0  0  0  0  0  0  0  0
   16.8061   -4.4051   -5.4892 S   0  0  2  0  0  0  0  0  0  0  0  0
   18.3622   -5.1315   -4.9320 C   0  0  0  0  0  0  0  0  0  0  0  0
   16.0108   -4.1262   -3.8918 C   0  0  0  0  0  0  0  0  0  0  0  0
   14.8393   -3.1681   -4.0620 C   0  0  1  0  0  0  0  0  0  0  0  0
   15.0113   -2.2842   -5.1595 O   0  0  0  0  0  0  0  0  0  0  0  0
   13.5414   -3.8681   -4.3630 C   0  0  1  0  0  0  0  0  0  0  0  0
   12.9965   -4.3986   -3.1892 O   0  0  0  0  0  0  0  0  0  0  0  0
   12.7315   -2.7224   -4.9284 C   0  0  1  0  0  0  0  0  0  0  0  0
   12.1762   -1.9545   -3.8801 O   0  0  0  0  0  0  0  0  0  0  0  0
   13.7565   -1.8747   -5.6736 C   0  0  2  0  0  0  0  0  0  0  0  0
   13.7073   -1.9851   -7.1574 N   0  0  0  0  0  0  0  0  0  0  0  0
   13.7472   -3.1588   -7.8672 C   0  0  0  0  0  0  0  0  0  0  0  0
   13.6814   -2.8809   -9.1885 N   0  0  0  0  0  0  0  0  0  0  0  0
   13.5910   -1.5499   -9.3441 C   0  0  0  0  0  0  0  0  0  0  0  0
   13.4894   -0.7497  -10.4719 C   0  0  0  0  0  0  0  0  0  0  0  0
   13.4659   -1.2953  -11.6808 N   0  0  0  0  0  0  0  0  0  0  0  0
   13.4068    0.6203  -10.3204 N   0  0  0  0  0  0  0  0  0  0  0  0
   13.4205    1.2047   -9.0602 C   0  0  0  0  0  0  0  0  0  0  0  0
   13.5163    0.3918   -7.9491 N   0  0  0  0  0  0  0  0  0  0  0  0
   13.6072   -0.9638   -8.0809 C   0  0  0  0  0  0  0  0  0  0  0  0
  2  3  1  6  0  0  0
  2  6  1  0  0  0  0
  2  1  1  0  0  0  0
  4  3  2  0  0  0  0
  5  3  1  0  0  0  0
  6  7  2  0  0  0  0
  8  7  1  6  0  0  0
  8  9  1  0  0  0  0
  8 10  1  0  0  0  0
 11 10  1  6  0  0  0
 11 13  1  0  0  0  0
 12 11  1  0  0  0  0
 12 17  1  0  0  0  0
 13 14  1  1  0  0  0
 13 15  1  0  0  0  0
 15 16  1  1  0  0  0
 17 18  1  6  0  0  0
 17 15  1  0  0  0  0
 18 19  1  0  0  0  0
 20 19  2  0  0  0  0
 21 27  2  0  0  0  0
 21 20  1  0  0  0  0
 22 21  1  0  0  0  0
 23 22  1  0  0  0  0
 24 22  2  0  0  0  0
 24 25  1  0  0  0  0
 25 26  2  0  0  0  0
 26 27  1  0  0  0  0
 27 18  1  0  0  0  0
M  END
>  <CHROM.1>
-36.91677790,112.48222283,104.94561820,-91.21831490,-27.50982589,66.78698937
14.38434136,-3.70101798,-6.64966438,-0.04661823,1.33138419,-2.02729793

>  <Name>
lig.pdb

>  <RI>
0

>  <Rbt.Current_Directory>
/home/itssahil/PROJECTS/Mol_Feturizer/New_Systems/rnas/4b5r

>  <Rbt.Executable>
rbdock ($Id: //depot/dev/client3/rdock/2013.1/src/exe/rbdock.cxx#4 $)

>  <Rbt.Library>
libRbt.so (2013.1, Build901 2013/11/27)

>  <Rbt.Parameter_File>
/export/apps/rDock/src/rDock_2013.1_src/data/scripts/dock_solv.prm

>  <Rbt.Receptor>
prm/blind_docking_20.prm

>  <SCORE>
-6.43442

>  <SCORE.INTER>
-7.75029

>  <SCORE.INTER.CONST>
1

>  <SCORE.INTER.POLAR>
0

>  <SCORE.INTER.ROT>
6

>  <SCORE.INTER.SOLV>
19.1303

>  <SCORE.INTER.VDW>
-19.1436

>  <SCORE.INTER.norm>
-0.287048

>  <SCORE.INTRA>
1.31586

>  <SCORE.INTRA.DIHEDRAL>
1.63791

>  <SCORE.INTRA.DIHEDRAL.0>
10.2917

>  <SCORE.INTRA.POLAR>
0

>  <SCORE.INTRA.POLAR.0>
0

>  <SCORE.INTRA.REPUL>
0

>  <SCORE.INTRA.REPUL.0>
0

>  <SCORE.INTRA.SOLV>
-2.68218

>  <SCORE.INTRA.SOLV.lig_0>
-39.6315

>  <SCORE.INTRA.VDW>
1.838

>  <SCORE.INTRA.VDW.0>
-4.02152

>  <SCORE.INTRA.norm>
0.0487357

>  <SCORE.RESTR>
0

>  <SCORE.RESTR.CAVITY>
0

>  <SCORE.RESTR.norm>
0

>  <SCORE.SYSTEM>
0

>  <SCORE.SYSTEM.CONST>
0

>  <SCORE.SYSTEM.DIHEDRAL>
0

>  <SCORE.SYSTEM.SOLV>
0

>  <SCORE.SYSTEM.norm>
0

>  <SCORE.heavy>
27

>  <SCORE.norm>
-0.238312

>  <RMSD>
16.914

$$$$
lig.pdb
 OpenBabel11021811493D
libRbt.so/2013.1/901 2013/11/27
 27 29  0  0  0  0  0  0  0  0999 V2000
   11.5114   -0.1428   -8.7210 N   0  0  0  0  0  0  0  0  0  0  0  0
   12.7893    0.5126   -8.3068 C   0  0  2  0  0  0  0  0  0  0  0  0
   13.3683    1.2740   -9.4955 C   0  0  0  0  0  0  0  0  0  0  0  0
   14.5699    1.5116   -9.5339 O   0  0  0  0  0  0  0  0  0  0  0  0
   12.6731    1.6757  -10.4374 O   0  0  0  0  0  0  0  0  0  0  0  0
   13.8165   -0.4628   -7.6976 C   0  0  0  0  0  0  0  0  0  0  0  0
   13.4547   -1.9709   -7.7351 C   0  0  0  0  0  0  0  0  0  0  0  0
   14.6372   -3.1914   -7.0170 S   0  0  2  0  0  0  0  0  0  0  0  0
   13.5125   -4.4691   -6.4156 C   0  0  0  0  0  0  0  0  0  0  0  0
   15.1171   -2.4432   -5.4448 C   0  0  0  0  0  0  0  0  0  0  0  0
   16.1045   -3.3517   -4.7243 C   0  0  1  0  0  0  0  0  0  0  0  0
   15.5508   -4.6205   -4.4102 O   0  0  0  0  0  0  0  0  0  0  0  0
   17.3169   -3.6825   -5.5525 C   0  0  1  0  0  0  0  0  0  0  0  0
   18.2181   -2.6132   -5.5362 O   0  0  0  0  0  0  0  0  0  0  0  0
   17.8301   -4.9026   -4.8201 C   0  0  1  0  0  0  0  0  0  0  0  0
   18.5945   -4.5112   -3.6978 O   0  0  0  0  0  0  0  0  0  0  0  0
   16.5662   -5.6055   -4.3375 C   0  0  2  0  0  0  0  0  0  0  0  0
   16.1980   -6.8324   -5.0960 N   0  0  0  0  0  0  0  0  0  0  0  0
   16.0747   -6.9144   -6.4602 C   0  0  0  0  0  0  0  0  0  0  0  0
   15.7296   -8.1766   -6.7995 N   0  0  0  0  0  0  0  0  0  0  0  0
   15.6366   -8.9129   -5.6801 C   0  0  0  0  0  0  0  0  0  0  0  0
   15.3285  -10.2480   -5.4673 C   0  0  0  0  0  0  0  0  0  0  0  0
   15.0588  -11.0450   -6.4928 N   0  0  0  0  0  0  0  0  0  0  0  0
   15.3123  -10.7380   -4.1764 N   0  0  0  0  0  0  0  0  0  0  0  0
   15.6023   -9.9171   -3.0940 C   0  0  0  0  0  0  0  0  0  0  0  0
   15.9123   -8.5924   -3.3257 N   0  0  0  0  0  0  0  0  0  0  0  0
   15.9248   -8.0894   -4.5946 C   0  0  0  0  0  0  0  0  0  0  0  0
  2  3  1  6  0  0  0
  2  6  1  0  0  0  0
  2  1  1  0  0  0  0
  4  3  2  0  0  0  0
  5  3  1  0  0  0  0
  6  7  2  0  0  0  0
  8  7  1  6  0  0  0
  8  9  1  0  0  0  0
  8 10  1  0  0  0  0
 11 10  1  6  0  0  0
 11 13  1  0  0  0  0
 12 11  1  0  0  0  0
 12 17  1  0  0  0  0
 13 14  1  1  0  0  0
 13 15  1  0  0  0  0
 15 16  1  1  0  0  0
 17 18  1  6  0  0  0
 17 15  1  0  0  0  0
 18 19  1  0  0  0  0
 20 19  2  0  0  0  0
 21 27  2  0  0  0  0
 21 20  1  0  0  0  0
 22 21  1  0  0  0  0
 23 22  1  0  0  0  0
 24 22  2  0  0  0  0
 24 25  1  0  0  0  0
 25 26  2  0  0  0  0
 26 27  1  0  0  0  0
 27 18  1  0  0  0  0
M  END
>  <CHROM.1>
-156.39327499,6.15887763,148.23981129,179.87524009,-61.77383698,67.71675711
15.25582326,-4.51593580,-6.17359909,1.87596892,-0.66894713,-0.21744242

>  <Name>
lig.pdb

>  <RI>
0

>  <Rbt.Current_Directory>
/home/itssahil/PROJECTS/Mol_Feturizer/New_Systems/rnas/4b5r

>  <Rbt.Executable>
rbdock ($Id: //depot/dev/client3/rdock/2013.1/src/exe/rbdock.cxx#4 $)

>  <Rbt.Library>
libRbt.so (2013.1, Build901 2013/11/27)

>  <Rbt.Parameter_File>
/export/apps/rDock/src/rDock_2013.1_src/data/scripts/dock_solv.prm

>  <Rbt.Receptor>
prm/blind_docking_20.prm

>  <SCORE>
-4.105

>  <SCORE.INTER>
-3.80633

>  <SCORE.INTER.CONST>
1

>  <SCORE.INTER.POLAR>
0

>  <SCORE.INTER.ROT>
6

>  <SCORE.INTER.SOLV>
14.2451

>  <SCORE.INTER.VDW>
-14.8859

>  <SCORE.INTER.norm>
-0.140975

>  <SCORE.INTRA>
-0.308221

>  <SCORE.INTRA.DIHEDRAL>
-3.24596

>  <SCORE.INTRA.DIHEDRAL.0>
10.2917

>  <SCORE.INTRA.POLAR>
0

>  <SCORE.INTRA.POLAR.0>
0

>  <SCORE.INTRA.REPUL>
0

>  <SCORE.INTRA.REPUL.0>
0

>  <SCORE.INTRA.SOLV>
-2.35498

>  <SCORE.INTRA.SOLV.lig_0>
-39.6315

>  <SCORE.INTRA.VDW>
2.49225

>  <SCORE.INTRA.VDW.0>
-4.02152

>  <SCORE.INTRA.norm>
-0.0114156

>  <SCORE.RESTR>
0.00955232

>  <SCORE.RESTR.CAVITY>
0.00955232

>  <SCORE.RESTR.norm>
0.00035379

>  <SCORE.SYSTEM>
0

>  <SCORE.SYSTEM.CONST>
0

>  <SCORE.SYSTEM.DIHEDRAL>
0

>  <SCORE.SYSTEM.SOLV>
0

>  <SCORE.SYSTEM.norm>
0

>  <SCORE.heavy>
27

>  <SCORE.norm>
-0.152037

>  <RMSD>
16.962

$$$$
lig.pdb
 OpenBabel11021811493D
libRbt.so/2013.1/901 2013/11/27
 27 29  0  0  0  0  0  0  0  0999 V2000
   16.6143   -8.0421   -3.7468 N   0  0  0  0  0  0  0  0  0  0  0  0
   17.0765   -6.9526   -4.6598 C   0  0  2  0  0  0  0  0  0  0  0  0
   17.2251   -5.6612   -3.8609 C   0  0  0  0  0  0  0  0  0  0  0  0
   16.5180   -5.4739   -2.8777 O   0  0  0  0  0  0  0  0  0  0  0  0
   18.0341   -4.7748   -4.1638 O   0  0  0  0  0  0  0  0  0  0  0  0
   16.1776   -6.7588   -5.8976 C   0  0  0  0  0  0  0  0  0  0  0  0
   14.7937   -7.4592   -5.8719 C   0  0  0  0  0  0  0  0  0  0  0  0
   13.6714   -7.2734   -7.3244 S   0  0  2  0  0  0  0  0  0  0  0  0
   14.5621   -6.0521   -8.3115 C   0  0  0  0  0  0  0  0  0  0  0  0
   12.3313   -6.2386   -6.6959 C   0  0  0  0  0  0  0  0  0  0  0  0
   12.8310   -5.4101   -5.5197 C   0  0  1  0  0  0  0  0  0  0  0  0
   13.7742   -4.4229   -5.9083 O   0  0  0  0  0  0  0  0  0  0  0  0
   11.7405   -4.6213   -4.8459 C   0  0  1  0  0  0  0  0  0  0  0  0
   10.9951   -5.4522   -4.0034 O   0  0  0  0  0  0  0  0  0  0  0  0
   12.5614   -3.5967   -4.0946 C   0  0  1  0  0  0  0  0  0  0  0  0
   13.0346   -4.1461   -2.8817 O   0  0  0  0  0  0  0  0  0  0  0  0
   13.7486   -3.3261   -5.0121 C   0  0  2  0  0  0  0  0  0  0  0  0
   13.7036   -2.0256   -5.7352 N   0  0  0  0  0  0  0  0  0  0  0  0
   13.7547   -0.7879   -5.1451 C   0  0  0  0  0  0  0  0  0  0  0  0
   13.6909    0.1636   -6.1033 N   0  0  0  0  0  0  0  0  0  0  0  0
   13.6085   -0.4375   -7.3016 C   0  0  0  0  0  0  0  0  0  0  0  0
   13.5310    0.0652   -8.5915 C   0  0  0  0  0  0  0  0  0  0  0  0
   13.5330    1.3750   -8.8013 N   0  0  0  0  0  0  0  0  0  0  0  0
   13.4583   -0.8140   -9.6537 N   0  0  0  0  0  0  0  0  0  0  0  0
   13.4651   -2.1880   -9.4493 C   0  0  0  0  0  0  0  0  0  0  0  0
   13.5485   -2.6698   -8.1588 N   0  0  0  0  0  0  0  0  0  0  0  0
   13.6127   -1.8150   -7.0965 C   0  0  0  0  0  0  0  0  0  0  0  0
  2  3  1  1  0  0  0
  2  6  1  0  0  0  0
  2  1  1  0  0  0  0
  4  3  2  0  0  0  0
  5  3  1  0  0  0  0
  6  7  2  0  0  0  0
  8  7  1  1  0  0  0
  8  9  1  0  0  0  0
  8 10  1  0  0  0  0
 11 10  1  6  0  0  0
 11 13  1  0  0  0  0
 12 11  1  0  0  0  0
 12 17  1  0  0  0  0
 13 14  1  1  0  0  0
 13 15  1  0  0  0  0
 15 16  1  1  0  0  0
 17 18  1  6  0  0  0
 17 15  1  0  0  0  0
 18 19  1  0  0  0  0
 20 19  2  0  0  0  0
 21 27  2  0  0  0  0
 21 20  1  0  0  0  0
 22 21  1  0  0  0  0
 23 22  1  0  0  0  0
 24 22  2  0  0  0  0
 24 25  1  0  0  0  0
 25 26  2  0  0  0  0
 26 27  1  0  0  0  0
 27 18  1  0  0  0  0
M  END
>  <CHROM.1>
-29.05904531,13.31827931,-7.24372351,24.60157362,68.42806602,-175.72866306
14.11675781,-4.09250941,-5.99944115,-0.97282887,-1.03733714,0.05712906

>  <Name>
lig.pdb

>  <RI>
0

>  <Rbt.Current_Directory>
/home/itssahil/PROJECTS/Mol_Feturizer/New_Systems/rnas/4b5r

>  <Rbt.Executable>
rbdock ($Id: //depot/dev/client3/rdock/2013.1/src/exe/rbdock.cxx#4 $)

>  <Rbt.Library>
libRbt.so (2013.1, Build901 2013/11/27)

>  <Rbt.Parameter_File>
/export/apps/rDock/src/rDock_2013.1_src/data/scripts/dock_solv.prm

>  <Rbt.Receptor>
prm/blind_docking_20.prm

>  <SCORE>
-5.54986

>  <SCORE.INTER>
-7.09981

>  <SCORE.INTER.CONST>
1

>  <SCORE.INTER.POLAR>
0

>  <SCORE.INTER.ROT>
6

>  <SCORE.INTER.SOLV>
13.2331

>  <SCORE.INTER.VDW>
-16.7443

>  <SCORE.INTER.norm>
-0.262956

>  <SCORE.INTRA>
1.54996

>  <SCORE.INTRA.DIHEDRAL>
-0.530732

>  <SCORE.INTRA.DIHEDRAL.0>
10.2917

>  <SCORE.INTRA.POLAR>
0

>  <SCORE.INTRA.POLAR.0>
0

>  <SCORE.INTRA.REPUL>
0.0489221

>  <SCORE.INTRA.REPUL.0>
0

>  <SCORE.INTRA.SOLV>
-1.41402

>  <SCORE.INTRA.SOLV.lig_0>
-39.6315

>  <SCORE.INTRA.VDW>
2.27772

>  <SCORE.INTRA.VDW.0>
-4.02152

>  <SCORE.INTRA.norm>
0.0574058

>  <SCORE.RESTR>
0

>  <SCORE.RESTR.CAVITY>
0

>  <SCORE.RESTR.norm>
0

>  <SCORE.SYSTEM>
0

>  <SCORE.SYSTEM.CONST>
0

>  <SCORE.SYSTEM.DIHEDRAL>
0

>  <SCORE.SYSTEM.SOLV>
0

>  <SCORE.SYSTEM.norm>
0

>  <SCORE.heavy>
27

>  <SCORE.norm>
-0.20555

>  <RMSD>
16.971

$$$$
lig.pdb
 OpenBabel11021811493D
libRbt.so/2013.1/901 2013/11/27
 27 29  0  0  0  0  0  0  0  0999 V2000
   13.8180   -1.1985  -10.6237 N   0  0  0  0  0  0  0  0  0  0  0  0
   13.1593   -0.7494   -9.3593 C   0  0  2  0  0  0  0  0  0  0  0  0
   13.7033    0.6227   -8.9729 C   0  0  0  0  0  0  0  0  0  0  0  0
   12.9798    1.4150   -8.3808 O   0  0  0  0  0  0  0  0  0  0  0  0
   14.8572    0.9850   -9.2361 O   0  0  0  0  0  0  0  0  0  0  0  0
   13.2853   -1.7609   -8.2022 C   0  0  0  0  0  0  0  0  0  0  0  0
   13.9595   -1.2523   -6.9009 C   0  0  0  0  0  0  0  0  0  0  0  0
   14.1478   -2.4136   -5.4798 S   0  0  2  0  0  0  0  0  0  0  0  0
   14.4216   -1.2661   -4.1131 C   0  0  0  0  0  0  0  0  0  0  0  0
   15.8235   -3.0578   -5.6771 C   0  0  0  0  0  0  0  0  0  0  0  0
   16.2407   -3.7984   -4.4134 C   0  0  1  0  0  0  0  0  0  0  0  0
   15.3936   -4.8992   -4.1203 O   0  0  0  0  0  0  0  0  0  0  0  0
   17.6104   -4.4143   -4.5136 C   0  0  1  0  0  0  0  0  0  0  0  0
   18.5930   -3.4379   -4.3211 O   0  0  0  0  0  0  0  0  0  0  0  0
   17.5458   -5.4218   -3.3870 C   0  0  1  0  0  0  0  0  0  0  0  0
   17.8231   -4.7912   -2.1532 O   0  0  0  0  0  0  0  0  0  0  0  0
   16.0947   -5.8893   -3.3890 C   0  0  2  0  0  0  0  0  0  0  0  0
   15.8709   -7.2497   -3.9507 N   0  0  0  0  0  0  0  0  0  0  0  0
   15.8975   -8.4186   -3.2323 C   0  0  0  0  0  0  0  0  0  0  0  0
   15.6528   -9.4561   -4.0636 N   0  0  0  0  0  0  0  0  0  0  0  0
   15.4599   -8.9775   -5.3037 C   0  0  0  0  0  0  0  0  0  0  0  0
   15.1704   -9.6017   -6.5075 C   0  0  0  0  0  0  0  0  0  0  0  0
   15.0333  -10.9199   -6.5627 N   0  0  0  0  0  0  0  0  0  0  0  0
   15.0206   -8.8339   -7.6453 N   0  0  0  0  0  0  0  0  0  0  0  0
   15.1518   -7.4517   -7.6003 C   0  0  0  0  0  0  0  0  0  0  0  0
   15.4344   -6.8476   -6.3920 N   0  0  0  0  0  0  0  0  0  0  0  0
   15.5940   -7.5920   -5.2591 C   0  0  0  0  0  0  0  0  0  0  0  0
  2  3  1  1  0  0  0
  2  6  1  0  0  0  0
  2  1  1  0  0  0  0
  4  3  2  0  0  0  0
  5  3  1  0  0  0  0
  6  7  2  0  0  0  0
  8  7  1  6  0  0  0
  8  9  1  0  0  0  0
  8 10  1  0  0  0  0
 11 10  1  6  0  0  0
 11 13  1  0  0  0  0
 12 11  1  0  0  0  0
 12 17  1  0  0  0  0
 13 14  1  1  0  0  0
 13 15  1  0  0  0  0
 15 16  1  1  0  0  0
 17 18  1  6  0  0  0
 17 15  1  0  0  0  0
 18 19  1  0  0  0  0
 20 19  2  0  0  0  0
 21 27  2  0  0  0  0
 21 20  1  0  0  0  0
 22 21  1  0  0  0  0
 23 22  1  0  0  0  0
 24 22  2  0  0  0  0
 24 25  1  0  0  0  0
 25 26  2  0  0  0  0
 26 27  1  0  0  0  0
 27 18  1  0  0  0  0
M  END
>  <CHROM.1>
148.60570822,122.20025087,-161.47951683,167.66178339,60.39172742,-150.75432098
15.28689481,-4.48537393,-5.87862949,2.06043128,-1.06830968,0.04017684

>  <Name>
lig.pdb

>  <RI>
0

>  <Rbt.Current_Directory>
/home/itssahil/PROJECTS/Mol_Feturizer/New_Systems/rnas/4b5r

>  <Rbt.Executable>
rbdock ($Id: //depot/dev/client3/rdock/2013.1/src/exe/rbdock.cxx#4 $)

>  <Rbt.Library>
libRbt.so (2013.1, Build901 2013/11/27)

>  <Rbt.Parameter_File>
/export/apps/rDock/src/rDock_2013.1_src/data/scripts/dock_solv.prm

>  <Rbt.Receptor>
prm/blind_docking_20.prm

>  <SCORE>
-6.61324

>  <SCORE.INTER>
-6.0189

>  <SCORE.INTER.CONST>
1

>  <SCORE.INTER.POLAR>
0

>  <SCORE.INTER.ROT>
6

>  <SCORE.INTER.SOLV>
20.1941

>  <SCORE.INTER.VDW>
-18.344

>  <SCORE.INTER.norm>
-0.222922

>  <SCORE.INTRA>
-0.594343

>  <SCORE.INTRA.DIHEDRAL>
-2.19579

>  <SCORE.INTRA.DIHEDRAL.0>
10.2917

>  <SCORE.INTRA.POLAR>
0

>  <SCORE.INTRA.POLAR.0>
0

>  <SCORE.INTRA.REPUL>
0

>  <SCORE.INTRA.REPUL.0>
0

>  <SCORE.INTRA.SOLV>
-2.65331

>  <SCORE.INTRA.SOLV.lig_0>
-39.6315

>  <SCORE.INTRA.VDW>
1.83021

>  <SCORE.INTRA.VDW.0>
-4.02152

>  <SCORE.INTRA.norm>
-0.0220127

>  <SCORE.RESTR>
0

>  <SCORE.RESTR.CAVITY>
0

>  <SCORE.RESTR.norm>
0

>  <SCORE.SYSTEM>
0

>  <SCORE.SYSTEM.CONST>
0

>  <SCORE.SYSTEM.DIHEDRAL>
0

>  <SCORE.SYSTEM.SOLV>
0

>  <SCORE.SYSTEM.norm>
0

>  <SCORE.heavy>
27

>  <SCORE.norm>
-0.244935

>  <RMSD>
16.971

$$$$
lig.pdb
 OpenBabel11021811493D
libRbt.so/2013.1/901 2013/11/27
 27 29  0  0  0  0  0  0  0  0999 V2000
   17.6075   -7.0706   -4.1804 N   0  0  0  0  0  0  0  0  0  0  0  0
   16.3922   -6.7706   -3.3637 C   0  0  2  0  0  0  0  0  0  0  0  0
   16.5205   -7.4567   -2.0068 C   0  0  0  0  0  0  0  0  0  0  0  0
   17.5080   -8.1415   -1.7667 O   0  0  0  0  0  0  0  0  0  0  0  0
   15.6602   -7.3593   -1.1223 O   0  0  0  0  0  0  0  0  0  0  0  0
   15.0686   -7.1354   -4.0657 C   0  0  0  0  0  0  0  0  0  0  0  0
   15.1203   -7.3088   -5.6064 C   0  0  0  0  0  0  0  0  0  0  0  0
   13.5701   -7.7389   -6.5094 S   0  0  2  0  0  0  0  0  0  0  0  0
   13.8366   -6.9129   -8.0925 C   0  0  0  0  0  0  0  0  0  0  0  0
   12.3386   -6.6304   -5.7908 C   0  0  0  0  0  0  0  0  0  0  0  0
   13.0130   -5.3464   -5.3260 C   0  0  1  0  0  0  0  0  0  0  0  0
   13.8384   -4.7695   -6.3267 O   0  0  0  0  0  0  0  0  0  0  0  0
   12.0351   -4.2524   -4.9907 C   0  0  1  0  0  0  0  0  0  0  0  0
   11.4802   -4.4732   -3.7260 O   0  0  0  0  0  0  0  0  0  0  0  0
   12.9428   -3.0433   -5.0378 C   0  0  1  0  0  0  0  0  0  0  0  0
   13.6432   -2.9122   -3.8175 O   0  0  0  0  0  0  0  0  0  0  0  0
   13.9373   -3.3679   -6.1470 C   0  0  2  0  0  0  0  0  0  0  0  0
   13.7207   -2.6329   -7.4234 N   0  0  0  0  0  0  0  0  0  0  0  0
   13.8609   -3.1669   -8.6796 C   0  0  0  0  0  0  0  0  0  0  0  0
   13.5856   -2.2153   -9.5995 N   0  0  0  0  0  0  0  0  0  0  0  0
   13.2617   -1.0795   -8.9600 C   0  0  0  0  0  0  0  0  0  0  0  0
   12.8910    0.1746   -9.4207 C   0  0  0  0  0  0  0  0  0  0  0  0
   12.8047    0.4114  -10.7230 N   0  0  0  0  0  0  0  0  0  0  0  0
   12.6071    1.1707   -8.5075 N   0  0  0  0  0  0  0  0  0  0  0  0
   12.6840    0.9340   -7.1409 C   0  0  0  0  0  0  0  0  0  0  0  0
   13.0490   -0.3221   -6.7011 N   0  0  0  0  0  0  0  0  0  0  0  0
   13.3413   -1.3160   -7.5898 C   0  0  0  0  0  0  0  0  0  0  0  0
  2  3  1  1  0  0  0
  2  6  1  0  0  0  0
  2  1  1  0  0  0  0
  4  3  2  0  0  0  0
  5  3  1  0  0  0  0
  6  7  2  0  0  0  0
  8  7  1  1  0  0  0
  8  9  1  0  0  0  0
  8 10  1  0  0  0  0
 11 10  1  6  0  0  0
 11 13  1  0  0  0  0
 12 11  1  0  0  0  0
 12 17  1  0  0  0  0
 13 14  1  1  0  0  0
 13 15  1  0  0  0  0
 15 16  1  1  0  0  0
 17 18  1  6  0  0  0
 17 15  1  0  0  0  0
 18 19  1  0  0  0  0
 20 19  2  0  0  0  0
 21 27  2  0  0  0  0
 21 20  1  0  0  0  0
 22 21  1  0  0  0  0
 23 22  1  0  0  0  0
 24 22  2  0  0  0  0
 24 25  1  0  0  0  0
 25 26  2  0  0  0  0
 26 27  1  0  0  0  0
 27 18  1  0  0  0  0
M  END
>  <CHROM.1>
-1.37065613,-19.05979549,148.16535570,29.40318248,50.11712822,-21.06044328
13.93246059,-4.26963216,-5.97266346,0.26900166,1.25852943,-2.49331984

>  <Name>
lig.pdb

>  <RI>
0

>  <Rbt.Current_Directory>
/home/itssahil/PROJECTS/Mol_Feturizer/New_Systems/rnas/4b5r

>  <Rbt.Executable>
rbdock ($Id: //depot/dev/client3/rdock/2013.1/src/exe/rbdock.cxx#4 $)

>  <Rbt.Library>
libRbt.so (2013.1, Build901 2013/11/27)

>  <Rbt.Parameter_File>
/export/apps/rDock/src/rDock_2013.1_src/data/scripts/dock_solv.prm

>  <Rbt.Receptor>
prm/blind_docking_20.prm

>  <SCORE>
-4.74584

>  <SCORE.INTER>
-6.68912

>  <SCORE.INTER.CONST>
1

>  <SCORE.INTER.POLAR>
0

>  <SCORE.INTER.ROT>
6

>  <SCORE.INTER.SOLV>
12.3721

>  <SCORE.INTER.VDW>
-16.1834

>  <SCORE.INTER.norm>
-0.247745

>  <SCORE.INTRA>
1.94329

>  <SCORE.INTRA.DIHEDRAL>
-1.21305

>  <SCORE.INTRA.DIHEDRAL.0>
10.2917

>  <SCORE.INTRA.POLAR>
0

>  <SCORE.INTRA.POLAR.0>
0

>  <SCORE.INTRA.REPUL>
0

>  <SCORE.INTRA.REPUL.0>
0

>  <SCORE.INTRA.SOLV>
-2.072

>  <SCORE.INTRA.SOLV.lig_0>
-39.6315

>  <SCORE.INTRA.VDW>
3.58581

>  <SCORE.INTRA.VDW.0>
-4.02152

>  <SCORE.INTRA.norm>
0.0719736

>  <SCORE.RESTR>
0

>  <SCORE.RESTR.CAVITY>
0

>  <SCORE.RESTR.norm>
0

>  <SCORE.SYSTEM>
0

>  <SCORE.SYSTEM.CONST>
0

>  <SCORE.SYSTEM.DIHEDRAL>
0

>  <SCORE.SYSTEM.SOLV>
0

>  <SCORE.SYSTEM.norm>
0

>  <SCORE.heavy>
27

>  <SCORE.norm>
-0.175772

>  <RMSD>
16.978

$$$$
lig.pdb
 OpenBabel11021811493D
libRbt.so/2013.1/901 2013/11/27
 27 29  0  0  0  0  0  0  0  0999 V2000
   12.8427   -5.3155   -9.2220 N   0  0  0  0  0  0  0  0  0  0  0  0
   13.3464   -4.5533   -8.0391 C   0  0  2  0  0  0  0  0  0  0  0  0
   13.8896   -3.2064   -8.5073 C   0  0  0  0  0  0  0  0  0  0  0  0
   13.6387   -2.8145   -9.6409 O   0  0  0  0  0  0  0  0  0  0  0  0
   14.5877   -2.4789   -7.7895 O   0  0  0  0  0  0  0  0  0  0  0  0
   14.3828   -5.3268   -7.1992 C   0  0  0  0  0  0  0  0  0  0  0  0
   14.8543   -6.6945   -7.7592 C   0  0  0  0  0  0  0  0  0  0  0  0
   16.0885   -7.6748   -6.8004 S   0  0  2  0  0  0  0  0  0  0  0  0
   15.5684   -9.3640   -7.1683 C   0  0  0  0  0  0  0  0  0  0  0  0
   15.5056   -7.5408   -5.0963 C   0  0  0  0  0  0  0  0  0  0  0  0
   16.4082   -6.5925   -4.3181 C   0  0  1  0  0  0  0  0  0  0  0  0
   16.7834   -5.4513   -5.0746 O   0  0  0  0  0  0  0  0  0  0  0  0
   15.7455   -6.0136   -3.0970 C   0  0  1  0  0  0  0  0  0  0  0  0
   15.7526   -6.9478   -2.0563 O   0  0  0  0  0  0  0  0  0  0  0  0
   16.6407   -4.8232   -2.8322 C   0  0  1  0  0  0  0  0  0  0  0  0
   17.7934   -5.2289   -2.1226 O   0  0  0  0  0  0  0  0  0  0  0  0
   17.0549   -4.3530   -4.2221 C   0  0  2  0  0  0  0  0  0  0  0  0
   16.3833   -3.1110   -4.6941 N   0  0  0  0  0  0  0  0  0  0  0  0
   16.9711   -2.1315   -5.4543 C   0  0  0  0  0  0  0  0  0  0  0  0
   16.0678   -1.1552   -5.6958 N   0  0  0  0  0  0  0  0  0  0  0  0
   14.9053   -1.4909   -5.1128 C   0  0  0  0  0  0  0  0  0  0  0  0
   13.6729   -0.8575   -5.0616 C   0  0  0  0  0  0  0  0  0  0  0  0
   13.4922    0.3068   -5.6709 N   0  0  0  0  0  0  0  0  0  0  0  0
   12.6359   -1.4565   -4.3743 N   0  0  0  0  0  0  0  0  0  0  0  0
   12.8083   -2.6802   -3.7398 C   0  0  0  0  0  0  0  0  0  0  0  0
   14.0403   -3.2984   -3.8066 N   0  0  0  0  0  0  0  0  0  0  0  0
   15.0788   -2.7165   -4.4745 C   0  0  0  0  0  0  0  0  0  0  0  0
  2  3  1  6  0  0  0
  2  6  1  0  0  0  0
  2  1  1  0  0  0  0
  4  3  2  0  0  0  0
  5  3  1  0  0  0  0
  6  7  2  0  0  0  0
  8  7  1  6  0  0  0
  8  9  1  0  0  0  0
  8 10  1  0  0  0  0
 11 10  1  6  0  0  0
 11 13  1  0  0  0  0
 12 11  1  0  0  0  0
 12 17  1  0  0  0  0
 13 14  1  1  0  0  0
 13 15  1  0  0  0  0
 15 16  1  1  0  0  0
 17 18  1  6  0  0  0
 17 15  1  0  0  0  0
 18 19  1  0  0  0  0
 20 19  2  0  0  0  0
 21 27  2  0  0  0  0
 21 20  1  0  0  0  0
 22 21  1  0  0  0  0
 23 22  1  0  0  0  0
 24 22  2  0  0  0  0
 24 25  1  0  0  0  0
 25 26  2  0  0  0  0
 26 27  1  0  0  0  0
 27 18  1  0  0  0  0
M  END
>  <CHROM.1>
13.43929876,5.80927342,146.46308671,-105.98211762,40.76232104,-96.70640731
15.14400592,-4.39888088,-5.58062220,2.42587271,-1.08989251,0.60804437

>  <Name>
lig.pdb

>  <RI>
0

>  <Rbt.Current_Directory>
/home/itssahil/PROJECTS/Mol_Feturizer/New_Systems/rnas/4b5r

>  <Rbt.Executable>
rbdock ($Id: //depot/dev/client3/rdock/2013.1/src/exe/rbdock.cxx#4 $)

>  <Rbt.Library>
libRbt.so (2013.1, Build901 2013/11/27)

>  <Rbt.Parameter_File>
/export/apps/rDock/src/rDock_2013.1_src/data/scripts/dock_solv.prm

>  <Rbt.Receptor>
prm/blind_docking_20.prm

>  <SCORE>
-11.0019

>  <SCORE.INTER>
-10.0947

>  <SCORE.INTER.CONST>
1

>  <SCORE.INTER.POLAR>
0

>  <SCORE.INTER.ROT>
6

>  <SCORE.INTER.SOLV>
22.4554

>  <SCORE.INTER.VDW>
-21.815

>  <SCORE.INTER.norm>
-0.373879

>  <SCORE.INTRA>
-0.907156

>  <SCORE.INTRA.DIHEDRAL>
0.914389

>  <SCORE.INTRA.DIHEDRAL.0>
10.2917

>  <SCORE.INTRA.POLAR>
0

>  <SCORE.INTRA.POLAR.0>
0

>  <SCORE.INTRA.REPUL>
0

>  <SCORE.INTRA.REPUL.0>
0

>  <SCORE.INTRA.SOLV>
-2.12245

>  <SCORE.INTRA.SOLV.lig_0>
-39.6315

>  <SCORE.INTRA.VDW>
-0.303126

>  <SCORE.INTRA.VDW.0>
-4.02152

>  <SCORE.INTRA.norm>
-0.0335984

>  <SCORE.RESTR>
0

>  <SCORE.RESTR.CAVITY>
0

>  <SCORE.RESTR.norm>
0

>  <SCORE.SYSTEM>
0

>  <SCORE.SYSTEM.CONST>
0

>  <SCORE.SYSTEM.DIHEDRAL>
0

>  <SCORE.SYSTEM.SOLV>
0

>  <SCORE.SYSTEM.norm>
0

>  <SCORE.heavy>
27

>  <SCORE.norm>
-0.407478

>  <RMSD>
17.022

$$$$
lig.pdb
 OpenBabel11021811493D
libRbt.so/2013.1/901 2013/11/27
 27 29  0  0  0  0  0  0  0  0999 V2000
    3.6422   -3.9314  -22.3235 N   0  0  0  0  0  0  0  0  0  0  0  0
    2.8818   -4.6893  -21.2837 C   0  0  2  0  0  0  0  0  0  0  0  0
    3.2453   -4.1469  -19.9046 C   0  0  0  0  0  0  0  0  0  0  0  0
    4.0911   -3.2656  -19.8054 O   0  0  0  0  0  0  0  0  0  0  0  0
    2.7240   -4.5625  -18.8619 O   0  0  0  0  0  0  0  0  0  0  0  0
    3.0745   -6.2171  -21.3659 C   0  0  0  0  0  0  0  0  0  0  0  0
    3.9509   -6.8703  -20.2651 C   0  0  0  0  0  0  0  0  0  0  0  0
    4.2273   -8.6939  -20.3085 S   0  0  2  0  0  0  0  0  0  0  0  0
    4.8976   -8.9941  -18.6592 C   0  0  0  0  0  0  0  0  0  0  0  0
    5.7348   -8.8716  -21.2870 C   0  0  0  0  0  0  0  0  0  0  0  0
    5.6785  -10.1671  -22.0857 C   0  0  1  0  0  0  0  0  0  0  0  0
    4.5282  -10.2491  -22.9136 O   0  0  0  0  0  0  0  0  0  0  0  0
    6.8263  -10.3196  -23.0474 C   0  0  1  0  0  0  0  0  0  0  0  0
    7.9741  -10.7360  -22.3655 O   0  0  0  0  0  0  0  0  0  0  0  0
    6.2720  -11.3762  -23.9773 C   0  0  1  0  0  0  0  0  0  0  0  0
    6.4545  -12.6612  -23.4182 O   0  0  0  0  0  0  0  0  0  0  0  0
    4.7796  -11.0708  -24.0397 C   0  0  2  0  0  0  0  0  0  0  0  0
    4.3190  -10.4302  -25.3021 N   0  0  0  0  0  0  0  0  0  0  0  0
    3.1223  -10.6776  -25.9263 C   0  0  0  0  0  0  0  0  0  0  0  0
    3.0395   -9.9208  -27.0433 N   0  0  0  0  0  0  0  0  0  0  0  0
    4.1571   -9.1830  -27.1468 C   0  0  0  0  0  0  0  0  0  0  0  0
    4.5716   -8.2482  -28.0832 C   0  0  0  0  0  0  0  0  0  0  0  0
    3.7958   -7.9444  -29.1154 N   0  0  0  0  0  0  0  0  0  0  0  0
    5.7981   -7.6340  -27.9244 N   0  0  0  0  0  0  0  0  0  0  0  0
    6.6165   -7.9354  -26.8432 C   0  0  0  0  0  0  0  0  0  0  0  0
    6.1845   -8.8640  -25.9182 N   0  0  0  0  0  0  0  0  0  0  0  0
    4.9788   -9.4870  -26.0642 C   0  0  0  0  0  0  0  0  0  0  0  0
  2  3  1  1  0  0  0
  2  6  1  0  0  0  0
  2  1  1  0  0  0  0
  4  3  2  0  0  0  0
  5  3  1  0  0  0  0
  6  7  2  0  0  0  0
  8  7  1  1  0  0  0
  8  9  1  0  0  0  0
  8 10  1  0  0  0  0
 11 10  1  6  0  0  0
 11 13  1  0  0  0  0
 12 11  1  0  0  0  0
 12 17  1  0  0  0  0
 13 14  1  1  0  0  0
 13 15  1  0  0  0  0
 15 16  1  1  0  0  0
 17 18  1  6  0  0  0
 17 15  1  0  0  0  0
 18 19  1  0  0  0  0
 20 19  2  0  0  0  0
 21 27  2  0  0  0  0
 21 20  1  0  0  0  0
 22 21  1  0  0  0  0
 23 22  1  0  0  0  0
 24 22  2  0  0  0  0
 24 25  1  0  0  0  0
 25 26  2  0  0  0  0
 26 27  1  0  0  0  0
 27 18  1  0  0  0  0
M  END
>  <CHROM.1>
-2.93230472,106.99685591,-165.94417507,-147.10204095,56.11656790,-97.40824741
4.72136511,-8.42849418,-23.28569819,2.04579731,-1.17465700,1.43845775

>  <Name>
lig.pdb

>  <RI>
0

>  <Rbt.Current_Directory>
/home/itssahil/PROJECTS/Mol_Feturizer/New_Systems/rnas/4b5r

>  <Rbt.Executable>
rbdock ($Id: //depot/dev/client3/rdock/2013.1/src/exe/rbdock.cxx#4 $)

>  <Rbt.Library>
libRbt.so (2013.1, Build901 2013/11/27)

>  <Rbt.Parameter_File>
/export/apps/rDock/src/rDock_2013.1_src/data/scripts/dock_solv.prm

>  <Rbt.Receptor>
prm/blind_docking_80.prm

>  <SCORE>
-7.58183

>  <SCORE.INTER>
-8.72023

>  <SCORE.INTER.CONST>
1

>  <SCORE.INTER.POLAR>
0

>  <SCORE.INTER.ROT>
6

>  <SCORE.INTER.SOLV>
21.3647

>  <SCORE.INTER.VDW>
-20.535

>  <SCORE.INTER.norm>
-0.322972

>  <SCORE.INTRA>
1.1384

>  <SCORE.INTRA.DIHEDRAL>
1.34047

>  <SCORE.INTRA.DIHEDRAL.0>
10.2917

>  <SCORE.INTRA.POLAR>
0

>  <SCORE.INTRA.POLAR.0>
0

>  <SCORE.INTRA.REPUL>
0

>  <SCORE.INTRA.REPUL.0>
0

>  <SCORE.INTRA.SOLV>
-2.68492

>  <SCORE.INTRA.SOLV.lig_0>
-39.6315

>  <SCORE.INTRA.VDW>
1.81063

>  <SCORE.INTRA.VDW.0>
-4.02152

>  <SCORE.INTRA.norm>
0.0421629

>  <SCORE.RESTR>
0

>  <SCORE.RESTR.CAVITY>
0

>  <SCORE.RESTR.norm>
0

>  <SCORE.SYSTEM>
0

>  <SCORE.SYSTEM.CONST>
0

>  <SCORE.SYSTEM.DIHEDRAL>
0

>  <SCORE.SYSTEM.SOLV>
0

>  <SCORE.SYSTEM.norm>
0

>  <SCORE.heavy>
27

>  <SCORE.norm>
-0.280809

>  <RMSD>
17.041

$$$$
lig.pdb
 OpenBabel11021811493D
libRbt.so/2013.1/901 2013/11/27
 27 29  0  0  0  0  0  0  0  0999 V2000
   15.9021   -9.1182   -6.0751 N   0  0  0  0  0  0  0  0  0  0  0  0
   16.1056   -8.1481   -4.9564 C   0  0  2  0  0  0  0  0  0  0  0  0
   15.6945   -8.8069   -3.6430 C   0  0  0  0  0  0  0  0  0  0  0  0
   15.1266   -9.8927   -3.6632 O   0  0  0  0  0  0  0  0  0  0  0  0
   15.9042   -8.2890   -2.5386 O   0  0  0  0  0  0  0  0  0  0  0  0
   15.3889   -6.7992   -5.1681 C   0  0  0  0  0  0  0  0  0  0  0  0
   16.2875   -5.5378   -5.2578 C   0  0  0  0  0  0  0  0  0  0  0  0
   15.4933   -3.8910   -5.5041 S   0  0  2  0  0  0  0  0  0  0  0  0
   16.9327   -2.8023   -5.5508 C   0  0  0  0  0  0  0  0  0  0  0  0
   14.8529   -3.4793   -3.8664 C   0  0  0  0  0  0  0  0  0  0  0  0
   13.6656   -2.5352   -4.0019 C   0  0  1  0  0  0  0  0  0  0  0  0
   13.9565   -1.4036   -4.8083 O   0  0  0  0  0  0  0  0  0  0  0  0
   12.4814   -3.1678   -4.6824 C   0  0  1  0  0  0  0  0  0  0  0  0
   11.7883   -3.9842   -3.7829 O   0  0  0  0  0  0  0  0  0  0  0  0
   11.7024   -1.9361   -5.0877 C   0  0  1  0  0  0  0  0  0  0  0  0
   10.9359   -1.4641   -3.9983 O   0  0  0  0  0  0  0  0  0  0  0  0
   12.7783   -0.9077   -5.4185 C   0  0  2  0  0  0  0  0  0  0  0  0
   12.9780   -0.6485   -6.8708 N   0  0  0  0  0  0  0  0  0  0  0  0
   14.1499   -0.2276   -7.4475 C   0  0  0  0  0  0  0  0  0  0  0  0
   13.9667   -0.0972   -8.7805 N   0  0  0  0  0  0  0  0  0  0  0  0
   12.7006   -0.4346   -9.0758 C   0  0  0  0  0  0  0  0  0  0  0  0
   12.0068   -0.4855  -10.2752 C   0  0  0  0  0  0  0  0  0  0  0  0
   12.6092   -0.1624  -11.4120 N   0  0  0  0  0  0  0  0  0  0  0  0
   10.6842   -0.8822  -10.2718 N   0  0  0  0  0  0  0  0  0  0  0  0
   10.0435   -1.2326   -9.0901 C   0  0  0  0  0  0  0  0  0  0  0  0
   10.7520   -1.1814   -7.9068 N   0  0  0  0  0  0  0  0  0  0  0  0
   12.0575   -0.7835   -7.8908 C   0  0  0  0  0  0  0  0  0  0  0  0
  2  3  1  1  0  0  0
  2  6  1  0  0  0  0
  2  1  1  0  0  0  0
  4  3  2  0  0  0  0
  5  3  1  0  0  0  0
  6  7  2  0  0  0  0
  8  7  1  1  0  0  0
  8  9  1  0  0  0  0
  8 10  1  0  0  0  0
 11 10  1  6  0  0  0
 11 13  1  0  0  0  0
 12 11  1  0  0  0  0
 12 17  1  0  0  0  0
 13 14  1  1  0  0  0
 13 15  1  0  0  0  0
 15 16  1  1  0  0  0
 17 18  1  6  0  0  0
 17 15  1  0  0  0  0
 18 19  1  0  0  0  0
 20 19  2  0  0  0  0
 21 27  2  0  0  0  0
 21 20  1  0  0  0  0
 22 21  1  0  0  0  0
 23 22  1  0  0  0  0
 24 22  2  0  0  0  0
 24 25  1  0  0  0  0
 25 26  2  0  0  0  0
 26 27  1  0  0  0  0
 27 18  1  0  0  0  0
M  END
>  <CHROM.1>
-8.96126863,-117.89215532,-179.58603565,-153.88033013,-51.93467113,-33.05973513
13.69518550,-3.35259321,-6.07095592,-0.74699415,0.99775007,-1.29173828

>  <Name>
lig.pdb

>  <RI>
0

>  <Rbt.Current_Directory>
/home/itssahil/PROJECTS/Mol_Feturizer/New_Systems/rnas/4b5r

>  <Rbt.Executable>
rbdock ($Id: //depot/dev/client3/rdock/2013.1/src/exe/rbdock.cxx#4 $)

>  <Rbt.Library>
libRbt.so (2013.1, Build901 2013/11/27)

>  <Rbt.Parameter_File>
/export/apps/rDock/src/rDock_2013.1_src/data/scripts/dock_solv.prm

>  <Rbt.Receptor>
prm/blind_docking_20.prm

>  <SCORE>
-5.17803

>  <SCORE.INTER>
-5.09047

>  <SCORE.INTER.CONST>
1

>  <SCORE.INTER.POLAR>
0

>  <SCORE.INTER.ROT>
6

>  <SCORE.INTER.SOLV>
12.3864

>  <SCORE.INTER.VDW>
-15.1224

>  <SCORE.INTER.norm>
-0.188536

>  <SCORE.INTRA>
-0.0904569

>  <SCORE.INTRA.DIHEDRAL>
0.0642178

>  <SCORE.INTRA.DIHEDRAL.0>
10.2917

>  <SCORE.INTRA.POLAR>
0

>  <SCORE.INTRA.POLAR.0>
0

>  <SCORE.INTRA.REPUL>
0

>  <SCORE.INTRA.REPUL.0>
0

>  <SCORE.INTRA.SOLV>
-2.7551

>  <SCORE.INTRA.SOLV.lig_0>
-39.6315

>  <SCORE.INTRA.VDW>
1.25499

>  <SCORE.INTRA.VDW.0>
-4.02152

>  <SCORE.INTRA.norm>
-0.00335026

>  <SCORE.RESTR>
0.00289348

>  <SCORE.RESTR.CAVITY>
0.00289348

>  <SCORE.RESTR.norm>
0.000107166

>  <SCORE.SYSTEM>
0

>  <SCORE.SYSTEM.CONST>
0

>  <SCORE.SYSTEM.DIHEDRAL>
0

>  <SCORE.SYSTEM.SOLV>
0

>  <SCORE.SYSTEM.norm>
0

>  <SCORE.heavy>
27

>  <SCORE.norm>
-0.191779

>  <RMSD>
17.047

$$$$
lig.pdb
 OpenBabel11021811493D
libRbt.so/2013.1/901 2013/11/27
 27 29  0  0  0  0  0  0  0  0999 V2000
   12.0526   -4.0644   -8.1000 N   0  0  0  0  0  0  0  0  0  0  0  0
   12.4082   -4.7413   -6.8158 C   0  0  2  0  0  0  0  0  0  0  0  0
   11.9813   -3.8553   -5.6492 C   0  0  0  0  0  0  0  0  0  0  0  0
   11.8859   -2.6446   -5.8131 O   0  0  0  0  0  0  0  0  0  0  0  0
   11.7270   -4.3043   -4.5243 O   0  0  0  0  0  0  0  0  0  0  0  0
   13.8945   -5.1400   -6.7166 C   0  0  0  0  0  0  0  0  0  0  0  0
   14.2114   -6.6586   -6.7173 C   0  0  0  0  0  0  0  0  0  0  0  0
   15.9695   -7.2043   -6.5945 S   0  0  2  0  0  0  0  0  0  0  0  0
   15.9064   -8.8059   -7.4253 C   0  0  0  0  0  0  0  0  0  0  0  0
   16.1243   -7.7554   -4.8816 C   0  0  0  0  0  0  0  0  0  0  0  0
   16.5219   -6.5802   -3.9983 C   0  0  1  0  0  0  0  0  0  0  0  0
   17.0912   -5.5096   -4.7366 O   0  0  0  0  0  0  0  0  0  0  0  0
   15.3525   -5.9490   -3.2917 C   0  0  1  0  0  0  0  0  0  0  0  0
   14.9872   -6.7185   -2.1825 O   0  0  0  0  0  0  0  0  0  0  0  0
   15.9447   -4.6089   -2.9153 C   0  0  1  0  0  0  0  0  0  0  0  0
   16.7081   -4.7287   -1.7321 O   0  0  0  0  0  0  0  0  0  0  0  0
   16.8773   -4.2758   -4.0745 C   0  0  2  0  0  0  0  0  0  0  0  0
   16.3751   -3.2303   -5.0079 N   0  0  0  0  0  0  0  0  0  0  0  0
   16.9080   -2.9447   -6.2397 C   0  0  0  0  0  0  0  0  0  0  0  0
   16.2009   -1.9423   -6.8075 N   0  0  0  0  0  0  0  0  0  0  0  0
   15.2160   -1.5816   -5.9685 C   0  0  0  0  0  0  0  0  0  0  0  0
   14.2150   -0.6269   -6.0642 C   0  0  0  0  0  0  0  0  0  0  0  0
   14.1141    0.1318   -7.1476 N   0  0  0  0  0  0  0  0  0  0  0  0
   13.3220   -0.4805   -5.0212 N   0  0  0  0  0  0  0  0  0  0  0  0
   13.4099   -1.2747   -3.8849 C   0  0  0  0  0  0  0  0  0  0  0  0
   14.4092   -2.2236   -3.8102 N   0  0  0  0  0  0  0  0  0  0  0  0
   15.3056   -2.3761   -4.8282 C   0  0  0  0  0  0  0  0  0  0  0  0
  2  3  1  1  0  0  0
  2  6  1  0  0  0  0
  2  1  1  0  0  0  0
  4  3  2  0  0  0  0
  5  3  1  0  0  0  0
  6  7  2  0  0  0  0
  8  7  1  1  0  0  0
  8  9  1  0  0  0  0
  8 10  1  0  0  0  0
 11 10  1  6  0  0  0
 11 13  1  0  0  0  0
 12 11  1  0  0  0  0
 12 17  1  0  0  0  0
 13 14  1  1  0  0  0
 13 15  1  0  0  0  0
 15 16  1  1  0  0  0
 17 18  1  6  0  0  0
 17 15  1  0  0  0  0
 18 19  1  0  0  0  0
 20 19  2  0  0  0  0
 21 27  2  0  0  0  0
 21 20  1  0  0  0  0
 22 21  1  0  0  0  0
 23 22  1  0  0  0  0
 24 22  2  0  0  0  0
 24 25  1  0  0  0  0
 25 26  2  0  0  0  0
 26 27  1  0  0  0  0
 27 18  1  0  0  0  0
M  END
>  <CHROM.1>
-25.43015087,-112.33778979,-153.19327411,-88.74273511,-19.57015019,-47.68210322
14.83846024,-4.27912503,-5.25091818,2.20551769,-0.84038566,0.36249316

>  <Name>
lig.pdb

>  <RI>
0

>  <Rbt.Current_Directory>
/home/itssahil/PROJECTS/Mol_Feturizer/New_Systems/rnas/4b5r

>  <Rbt.Executable>
rbdock ($Id: //depot/dev/client3/rdock/2013.1/src/exe/rbdock.cxx#4 $)

>  <Rbt.Library>
libRbt.so (2013.1, Build901 2013/11/27)

>  <Rbt.Parameter_File>
/export/apps/rDock/src/rDock_2013.1_src/data/scripts/dock_solv.prm

>  <Rbt.Receptor>
prm/blind_docking_20.prm

>  <SCORE>
-4.8858

>  <SCORE.INTER>
-5.33617

>  <SCORE.INTER.CONST>
1

>  <SCORE.INTER.POLAR>
0

>  <SCORE.INTER.ROT>
6

>  <SCORE.INTER.SOLV>
14.9229

>  <SCORE.INTER.VDW>
-16.1317

>  <SCORE.INTER.norm>
-0.197636

>  <SCORE.INTRA>
0.400488

>  <SCORE.INTRA.DIHEDRAL>
3.26576

>  <SCORE.INTRA.DIHEDRAL.0>
10.2917

>  <SCORE.INTRA.POLAR>
0

>  <SCORE.INTRA.POLAR.0>
0

>  <SCORE.INTRA.REPUL>
0

>  <SCORE.INTRA.REPUL.0>
0

>  <SCORE.INTRA.SOLV>
-0.421546

>  <SCORE.INTRA.SOLV.lig_0>
-39.6315

>  <SCORE.INTRA.VDW>
-1.02162

>  <SCORE.INTRA.VDW.0>
-4.02152

>  <SCORE.INTRA.norm>
0.0148329

>  <SCORE.RESTR>
0.0498808

>  <SCORE.RESTR.CAVITY>
0.0498808

>  <SCORE.RESTR.norm>
0.00184744

>  <SCORE.SYSTEM>
0

>  <SCORE.SYSTEM.CONST>
0

>  <SCORE.SYSTEM.DIHEDRAL>
0

>  <SCORE.SYSTEM.SOLV>
0

>  <SCORE.SYSTEM.norm>
0

>  <SCORE.heavy>
27

>  <SCORE.norm>
-0.180956

>  <RMSD>
17.078

$$$$
lig.pdb
 OpenBabel11021811493D
libRbt.so/2013.1/901 2013/11/27
 27 29  0  0  0  0  0  0  0  0999 V2000
   12.3069   -4.4715   -7.8336 N   0  0  0  0  0  0  0  0  0  0  0  0
   13.4978   -3.6974   -7.3684 C   0  0  2  0  0  0  0  0  0  0  0  0
   13.8756   -2.6734   -8.4346 C   0  0  0  0  0  0  0  0  0  0  0  0
   13.7692   -2.9673   -9.6195 O   0  0  0  0  0  0  0  0  0  0  0  0
   14.2964   -1.5426   -8.1590 O   0  0  0  0  0  0  0  0  0  0  0  0
   14.6976   -4.5830   -6.9759 C   0  0  0  0  0  0  0  0  0  0  0  0
   14.5670   -6.1021   -7.2620 C   0  0  0  0  0  0  0  0  0  0  0  0
   15.9640   -7.2193   -6.8107 S   0  0  2  0  0  0  0  0  0  0  0  0
   15.3778   -8.8025   -7.4505 C   0  0  0  0  0  0  0  0  0  0  0  0
   15.7292   -7.4997   -5.0421 C   0  0  0  0  0  0  0  0  0  0  0  0
   16.5638   -6.5026   -4.2491 C   0  0  1  0  0  0  0  0  0  0  0  0
   16.9375   -5.3692   -5.0180 O   0  0  0  0  0  0  0  0  0  0  0  0
   15.8267   -5.9150   -3.0758 C   0  0  1  0  0  0  0  0  0  0  0  0
   15.8148   -6.8218   -2.0111 O   0  0  0  0  0  0  0  0  0  0  0  0
   16.6702   -4.6895   -2.8023 C   0  0  1  0  0  0  0  0  0  0  0  0
   17.8008   -5.0387   -2.0298 O   0  0  0  0  0  0  0  0  0  0  0  0
   17.1338   -4.2413   -4.1838 C   0  0  2  0  0  0  0  0  0  0  0  0
   16.4459   -3.0346   -4.7194 N   0  0  0  0  0  0  0  0  0  0  0  0
   17.0107   -2.1060   -5.5571 C   0  0  0  0  0  0  0  0  0  0  0  0
   16.0979   -1.1497   -5.8394 N   0  0  0  0  0  0  0  0  0  0  0  0
   14.9517   -1.4487   -5.2063 C   0  0  0  0  0  0  0  0  0  0  0  0
   13.7186   -0.8159   -5.1658 C   0  0  0  0  0  0  0  0  0  0  0  0
   13.5183    0.3054   -5.8457 N   0  0  0  0  0  0  0  0  0  0  0  0
   12.7014   -1.3705   -4.4145 N   0  0  0  0  0  0  0  0  0  0  0  0
   12.8943   -2.5493   -3.7054 C   0  0  0  0  0  0  0  0  0  0  0  0
   14.1266   -3.1680   -3.7625 N   0  0  0  0  0  0  0  0  0  0  0  0
   15.1458   -2.6292   -4.4933 C   0  0  0  0  0  0  0  0  0  0  0  0
  2  3  1  6  0  0  0
  2  6  1  0  0  0  0
  2  1  1  0  0  0  0
  4  3  2  0  0  0  0
  5  3  1  0  0  0  0
  6  7  2  0  0  0  0
  8  7  1  6  0  0  0
  8  9  1  0  0  0  0
  8 10  1  0  0  0  0
 11 10  1  6  0  0  0
 11 13  1  0  0  0  0
 12 11  1  0  0  0  0
 12 17  1  0  0  0  0
 13 14  1  1  0  0  0
 13 15  1  0  0  0  0
 15 16  1  1  0  0  0
 17 18  1  6  0  0  0
 17 15  1  0  0  0  0
 18 19  1  0  0  0  0
 20 19  2  0  0  0  0
 21 27  2  0  0  0  0
 21 20  1  0  0  0  0
 22 21  1  0  0  0  0
 23 22  1  0  0  0  0
 24 22  2  0  0  0  0
 24 25  1  0  0  0  0
 25 26  2  0  0  0  0
 26 27  1  0  0  0  0
 27 18  1  0  0  0  0
M  END
>  <CHROM.1>
-37.07631082,6.59617840,-175.82560366,-94.17599827,19.67017006,-91.72067290
15.15368387,-4.13455754,-5.51408497,2.61862108,-1.08565885,0.60213680

>  <Name>
lig.pdb

>  <RI>
0

>  <Rbt.Current_Directory>
/home/itssahil/PROJECTS/Mol_Feturizer/New_Systems/rnas/4b5r

>  <Rbt.Executable>
rbdock ($Id: //depot/dev/client3/rdock/2013.1/src/exe/rbdock.cxx#4 $)

>  <Rbt.Library>
libRbt.so (2013.1, Build901 2013/11/27)

>  <Rbt.Parameter_File>
/export/apps/rDock/src/rDock_2013.1_src/data/scripts/dock_solv.prm

>  <Rbt.Receptor>
prm/blind_docking_20.prm

>  <SCORE>
-9.64629

>  <SCORE.INTER>
-9.27258

>  <SCORE.INTER.CONST>
1

>  <SCORE.INTER.POLAR>
0

>  <SCORE.INTER.ROT>
6

>  <SCORE.INTER.SOLV>
18.3913

>  <SCORE.INTER.VDW>
-19.9121

>  <SCORE.INTER.norm>
-0.343429

>  <SCORE.INTRA>
-0.37371

>  <SCORE.INTRA.DIHEDRAL>
3.16727

>  <SCORE.INTRA.DIHEDRAL.0>
10.2917

>  <SCORE.INTRA.POLAR>
0

>  <SCORE.INTRA.POLAR.0>
0

>  <SCORE.INTRA.REPUL>
0

>  <SCORE.INTRA.REPUL.0>
0

>  <SCORE.INTRA.SOLV>
-0.833465

>  <SCORE.INTRA.SOLV.lig_0>
-39.6315

>  <SCORE.INTRA.VDW>
-1.54061

>  <SCORE.INTRA.VDW.0>
-4.02152

>  <SCORE.INTRA.norm>
-0.0138411

>  <SCORE.RESTR>
0

>  <SCORE.RESTR.CAVITY>
0

>  <SCORE.RESTR.norm>
0

>  <SCORE.SYSTEM>
0

>  <SCORE.SYSTEM.CONST>
0

>  <SCORE.SYSTEM.DIHEDRAL>
0

>  <SCORE.SYSTEM.SOLV>
0

>  <SCORE.SYSTEM.norm>
0

>  <SCORE.heavy>
27

>  <SCORE.norm>
-0.35727

>  <RMSD>
17.204

$$$$
lig.pdb
 OpenBabel11021811493D
libRbt.so/2013.1/901 2013/11/27
 27 29  0  0  0  0  0  0  0  0999 V2000
   13.8354   -7.0146   -7.2061 N   0  0  0  0  0  0  0  0  0  0  0  0
   15.0750   -7.3790   -6.4548 C   0  0  2  0  0  0  0  0  0  0  0  0
   15.0283   -8.8632   -6.1039 C   0  0  0  0  0  0  0  0  0  0  0  0
   16.0643   -9.5177   -6.1060 O   0  0  0  0  0  0  0  0  0  0  0  0
   13.9778   -9.4516   -5.8173 O   0  0  0  0  0  0  0  0  0  0  0  0
   15.3239   -6.5048   -5.2092 C   0  0  0  0  0  0  0  0  0  0  0  0
   16.5647   -5.5744   -5.2459 C   0  0  0  0  0  0  0  0  0  0  0  0
   16.9240   -4.5065   -3.7851 S   0  0  2  0  0  0  0  0  0  0  0  0
   18.3205   -5.3756   -3.0407 C   0  0  0  0  0  0  0  0  0  0  0  0
   15.6278   -4.9478   -2.6075 C   0  0  0  0  0  0  0  0  0  0  0  0
   14.3746   -4.1310   -2.8937 C   0  0  1  0  0  0  0  0  0  0  0  0
   14.6696   -2.8249   -3.3655 O   0  0  0  0  0  0  0  0  0  0  0  0
   13.5185   -4.7223   -3.9813 C   0  0  1  0  0  0  0  0  0  0  0  0
   12.7651   -5.7868   -3.4762 O   0  0  0  0  0  0  0  0  0  0  0  0
   12.6756   -3.5231   -4.3552 C   0  0  1  0  0  0  0  0  0  0  0  0
   11.5942   -3.3884   -3.4556 O   0  0  0  0  0  0  0  0  0  0  0  0
   13.6172   -2.3371   -4.1786 C   0  0  2  0  0  0  0  0  0  0  0  0
   14.1295   -1.7444   -5.4445 N   0  0  0  0  0  0  0  0  0  0  0  0
   15.2959   -2.1021   -6.0726 C   0  0  0  0  0  0  0  0  0  0  0  0
   15.4425   -1.3595   -7.1927 N   0  0  0  0  0  0  0  0  0  0  0  0
   14.3878   -0.5353   -7.3036 C   0  0  0  0  0  0  0  0  0  0  0  0
   14.0430    0.4118   -8.2557 C   0  0  0  0  0  0  0  0  0  0  0  0
   14.8301    0.6281   -9.3013 N   0  0  0  0  0  0  0  0  0  0  0  0
   12.8682    1.1216   -8.1050 N   0  0  0  0  0  0  0  0  0  0  0  0
   12.0297    0.8987   -7.0202 C   0  0  0  0  0  0  0  0  0  0  0  0
   12.3866   -0.0521   -6.0857 N   0  0  0  0  0  0  0  0  0  0  0  0
   13.5484   -0.7570   -6.2146 C   0  0  0  0  0  0  0  0  0  0  0  0
  2  3  1  1  0  0  0
  2  6  1  0  0  0  0
  2  1  1  0  0  0  0
  4  3  2  0  0  0  0
  5  3  1  0  0  0  0
  6  7  2  0  0  0  0
  8  7  1  6  0  0  0
  8  9  1  0  0  0  0
  8 10  1  0  0  0  0
 11 10  1  6  0  0  0
 11 13  1  0  0  0  0
 12 11  1  0  0  0  0
 12 17  1  0  0  0  0
 13 14  1  1  0  0  0
 13 15  1  0  0  0  0
 15 16  1  1  0  0  0
 17 18  1  6  0  0  0
 17 15  1  0  0  0  0
 18 19  1  0  0  0  0
 20 19  2  0  0  0  0
 21 27  2  0  0  0  0
 21 20  1  0  0  0  0
 22 21  1  0  0  0  0
 23 22  1  0  0  0  0
 24 22  2  0  0  0  0
 24 25  1  0  0  0  0
 25 26  2  0  0  0  0
 26 27  1  0  0  0  0
 27 18  1  0  0  0  0
M  END
>  <CHROM.1>
144.49213669,-113.37471772,105.14491448,-85.12062829,-34.00930848,27.58861476
14.52227805,-3.80590119,-5.35946966,0.19393754,1.33026964,-2.05187067

>  <Name>
lig.pdb

>  <RI>
0

>  <Rbt.Current_Directory>
/home/itssahil/PROJECTS/Mol_Feturizer/New_Systems/rnas/4b5r

>  <Rbt.Executable>
rbdock ($Id: //depot/dev/client3/rdock/2013.1/src/exe/rbdock.cxx#4 $)

>  <Rbt.Library>
libRbt.so (2013.1, Build901 2013/11/27)

>  <Rbt.Parameter_File>
/export/apps/rDock/src/rDock_2013.1_src/data/scripts/dock_solv.prm

>  <Rbt.Receptor>
prm/blind_docking_20.prm

>  <SCORE>
-7.3592

>  <SCORE.INTER>
-8.1903

>  <SCORE.INTER.CONST>
1

>  <SCORE.INTER.POLAR>
0

>  <SCORE.INTER.ROT>
6

>  <SCORE.INTER.SOLV>
16.0698

>  <SCORE.INTER.VDW>
-18.4168

>  <SCORE.INTER.norm>
-0.303344

>  <SCORE.INTRA>
0.831102

>  <SCORE.INTRA.DIHEDRAL>
0.172082

>  <SCORE.INTRA.DIHEDRAL.0>
10.2917

>  <SCORE.INTRA.POLAR>
0

>  <SCORE.INTRA.POLAR.0>
0

>  <SCORE.INTRA.REPUL>
0

>  <SCORE.INTRA.REPUL.0>
0

>  <SCORE.INTRA.SOLV>
-2.06644

>  <SCORE.INTRA.SOLV.lig_0>
-39.6315

>  <SCORE.INTRA.VDW>
1.77828

>  <SCORE.INTRA.VDW.0>
-4.02152

>  <SCORE.INTRA.norm>
0.0307816

>  <SCORE.RESTR>
0

>  <SCORE.RESTR.CAVITY>
0

>  <SCORE.RESTR.norm>
0

>  <SCORE.SYSTEM>
0

>  <SCORE.SYSTEM.CONST>
0

>  <SCORE.SYSTEM.DIHEDRAL>
0

>  <SCORE.SYSTEM.SOLV>
0

>  <SCORE.SYSTEM.norm>
0

>  <SCORE.heavy>
27

>  <SCORE.norm>
-0.272563

>  <RMSD>
17.241

$$$$
lig.pdb
 OpenBabel11021811493D
libRbt.so/2013.1/901 2013/11/27
 27 29  0  0  0  0  0  0  0  0999 V2000
    5.2223   -6.6489  -16.2628 N   0  0  0  0  0  0  0  0  0  0  0  0
    4.0705   -6.4331  -17.1906 C   0  0  2  0  0  0  0  0  0  0  0  0
    3.4586   -7.7840  -17.5497 C   0  0  0  0  0  0  0  0  0  0  0  0
    4.1872   -8.7005  -17.9115 O   0  0  0  0  0  0  0  0  0  0  0  0
    2.2417   -8.0037  -17.4984 O   0  0  0  0  0  0  0  0  0  0  0  0
    4.4325   -5.6172  -18.4481 C   0  0  0  0  0  0  0  0  0  0  0  0
    3.8919   -6.1458  -19.8027 C   0  0  0  0  0  0  0  0  0  0  0  0
    4.2938   -5.2202  -21.3471 S   0  0  2  0  0  0  0  0  0  0  0  0
    3.6135   -3.5898  -20.9752 C   0  0  0  0  0  0  0  0  0  0  0  0
    3.0569   -5.8046  -22.5263 C   0  0  0  0  0  0  0  0  0  0  0  0
    3.1688   -7.3156  -22.6810 C   0  0  1  0  0  0  0  0  0  0  0  0
    2.1332   -7.8608  -23.4844 O   0  0  0  0  0  0  0  0  0  0  0  0
    4.4310   -7.7471  -23.3782 C   0  0  1  0  0  0  0  0  0  0  0  0
    5.5092   -7.7122  -22.4881 O   0  0  0  0  0  0  0  0  0  0  0  0
    4.0521   -9.1505  -23.7969 C   0  0  1  0  0  0  0  0  0  0  0  0
    4.2360  -10.0465  -22.7197 O   0  0  0  0  0  0  0  0  0  0  0  0
    2.5636   -9.0551  -24.1129 C   0  0  2  0  0  0  0  0  0  0  0  0
    2.2244   -9.0671  -25.5624 N   0  0  0  0  0  0  0  0  0  0  0  0
    1.3880   -9.9669  -26.1738 C   0  0  0  0  0  0  0  0  0  0  0  0
    1.3117   -9.6771  -27.4920 N   0  0  0  0  0  0  0  0  0  0  0  0
    2.0765   -8.6015  -27.7410 C   0  0  0  0  0  0  0  0  0  0  0  0
    2.3398   -7.8963  -28.9054 C   0  0  0  0  0  0  0  0  0  0  0  0
    1.7824   -8.2636  -30.0517 N   0  0  0  0  0  0  0  0  0  0  0  0
    3.1836   -6.8044  -28.8553 N   0  0  0  0  0  0  0  0  0  0  0  0
    3.7665   -6.4027  -27.6601 C   0  0  0  0  0  0  0  0  0  0  0  0
    3.4881   -7.1134  -26.5103 N   0  0  0  0  0  0  0  0  0  0  0  0
    2.6630   -8.2002  -26.5432 C   0  0  0  0  0  0  0  0  0  0  0  0
  2  3  1  6  0  0  0
  2  6  1  0  0  0  0
  2  1  1  0  0  0  0
  4  3  2  0  0  0  0
  5  3  1  0  0  0  0
  6  7  2  0  0  0  0
  8  7  1  1  0  0  0
  8  9  1  0  0  0  0
  8 10  1  0  0  0  0
 11 10  1  6  0  0  0
 11 13  1  0  0  0  0
 12 11  1  0  0  0  0
 12 17  1  0  0  0  0
 13 14  1  1  0  0  0
 13 15  1  0  0  0  0
 15 16  1  1  0  0  0
 17 18  1  6  0  0  0
 17 15  1  0  0  0  0
 18 19  1  0  0  0  0
 20 19  2  0  0  0  0
 21 27  2  0  0  0  0
 21 20  1  0  0  0  0
 22 21  1  0  0  0  0
 23 22  1  0  0  0  0
 24 22  2  0  0  0  0
 24 25  1  0  0  0  0
 25 26  2  0  0  0  0
 26 27  1  0  0  0  0
 27 18  1  0  0  0  0
M  END
>  <CHROM.1>
-48.53367419,135.23354731,-58.15827352,-58.66159145,173.67584780,-117.63311918
3.35313728,-7.47884014,-23.06666908,0.96568865,1.27021129,1.99299557

>  <Name>
lig.pdb

>  <RI>
0

>  <Rbt.Current_Directory>
/home/itssahil/PROJECTS/Mol_Feturizer/New_Systems/rnas/4b5r

>  <Rbt.Executable>
rbdock ($Id: //depot/dev/client3/rdock/2013.1/src/exe/rbdock.cxx#4 $)

>  <Rbt.Library>
libRbt.so (2013.1, Build901 2013/11/27)

>  <Rbt.Parameter_File>
/export/apps/rDock/src/rDock_2013.1_src/data/scripts/dock_solv.prm

>  <Rbt.Receptor>
prm/blind_docking_80.prm

>  <SCORE>
-12.7992

>  <SCORE.INTER>
-11.8599

>  <SCORE.INTER.CONST>
1

>  <SCORE.INTER.POLAR>
0

>  <SCORE.INTER.ROT>
6

>  <SCORE.INTER.SOLV>
14.4899

>  <SCORE.INTER.VDW>
-20.3366

>  <SCORE.INTER.norm>
-0.439256

>  <SCORE.INTRA>
-0.939298

>  <SCORE.INTRA.DIHEDRAL>
-2.50742

>  <SCORE.INTRA.DIHEDRAL.0>
10.2917

>  <SCORE.INTRA.POLAR>
0

>  <SCORE.INTRA.POLAR.0>
0

>  <SCORE.INTRA.REPUL>
0

>  <SCORE.INTRA.REPUL.0>
0

>  <SCORE.INTRA.SOLV>
-2.29589

>  <SCORE.INTRA.SOLV.lig_0>
-39.6315

>  <SCORE.INTRA.VDW>
1.46236

>  <SCORE.INTRA.VDW.0>
-4.02152

>  <SCORE.INTRA.norm>
-0.0347888

>  <SCORE.RESTR>
0

>  <SCORE.RESTR.CAVITY>
0

>  <SCORE.RESTR.norm>
0

>  <SCORE.SYSTEM>
0

>  <SCORE.SYSTEM.CONST>
0

>  <SCORE.SYSTEM.DIHEDRAL>
0

>  <SCORE.SYSTEM.SOLV>
0

>  <SCORE.SYSTEM.norm>
0

>  <SCORE.heavy>
27

>  <SCORE.norm>
-0.474045

>  <RMSD>
17.241

$$$$
lig.pdb
 OpenBabel11021811493D
libRbt.so/2013.1/901 2013/11/27
 27 29  0  0  0  0  0  0  0  0999 V2000
   15.1842   -7.3074   -7.9301 N   0  0  0  0  0  0  0  0  0  0  0  0
   14.3550   -6.1337   -7.5192 C   0  0  2  0  0  0  0  0  0  0  0  0
   13.9315   -5.3608   -8.7648 C   0  0  0  0  0  0  0  0  0  0  0  0
   13.9746   -4.1361   -8.7599 O   0  0  0  0  0  0  0  0  0  0  0  0
   13.5347   -5.9174   -9.7966 O   0  0  0  0  0  0  0  0  0  0  0  0
   15.0442   -5.2196   -6.4862 C   0  0  0  0  0  0  0  0  0  0  0  0
   15.9231   -5.9161   -5.4143 C   0  0  0  0  0  0  0  0  0  0  0  0
   16.7710   -4.8810   -4.1442 S   0  0  2  0  0  0  0  0  0  0  0  0
   18.0940   -5.9856   -3.6066 C   0  0  0  0  0  0  0  0  0  0  0  0
   15.6800   -4.9913   -2.7092 C   0  0  0  0  0  0  0  0  0  0  0  0
   14.4328   -4.1501   -2.9467 C   0  0  1  0  0  0  0  0  0  0  0  0
   14.7361   -2.8391   -3.3991 O   0  0  0  0  0  0  0  0  0  0  0  0
   13.5407   -4.7058   -4.0241 C   0  0  1  0  0  0  0  0  0  0  0  0
   12.7838   -5.7691   -3.5220 O   0  0  0  0  0  0  0  0  0  0  0  0
   12.7074   -3.4866   -4.3520 C   0  0  1  0  0  0  0  0  0  0  0  0
   11.6510   -3.3544   -3.4227 O   0  0  0  0  0  0  0  0  0  0  0  0
   13.6714   -2.3187   -4.1751 C   0  0  2  0  0  0  0  0  0  0  0  0
   14.1609   -1.7075   -5.4412 N   0  0  0  0  0  0  0  0  0  0  0  0
   15.3386   -2.0232   -6.0708 C   0  0  0  0  0  0  0  0  0  0  0  0
   15.4575   -1.2753   -7.1906 N   0  0  0  0  0  0  0  0  0  0  0  0
   14.3741   -0.4890   -7.2999 C   0  0  0  0  0  0  0  0  0  0  0  0
   13.9949    0.4458   -8.2511 C   0  0  0  0  0  0  0  0  0  0  0  0
   14.7726    0.6904   -9.2974 N   0  0  0  0  0  0  0  0  0  0  0  0
   12.7958    1.1134   -8.0987 N   0  0  0  0  0  0  0  0  0  0  0  0
   11.9669    0.8602   -7.0131 C   0  0  0  0  0  0  0  0  0  0  0  0
   12.3583   -0.0778   -6.0796 N   0  0  0  0  0  0  0  0  0  0  0  0
   13.5442   -0.7409   -6.2102 C   0  0  0  0  0  0  0  0  0  0  0  0
  2  3  1  6  0  0  0
  2  6  1  0  0  0  0
  2  1  1  0  0  0  0
  4  3  2  0  0  0  0
  5  3  1  0  0  0  0
  6  7  2  0  0  0  0
  8  7  1  6  0  0  0
  8  9  1  0  0  0  0
  8 10  1  0  0  0  0
 11 10  1  6  0  0  0
 11 13  1  0  0  0  0
 12 11  1  0  0  0  0
 12 17  1  0  0  0  0
 13 14  1  1  0  0  0
 13 15  1  0  0  0  0
 15 16  1  1  0  0  0
 17 18  1  6  0  0  0
 17 15  1  0  0  0  0
 18 19  1  0  0  0  0
 20 19  2  0  0  0  0
 21 27  2  0  0  0  0
 21 20  1  0  0  0  0
 22 21  1  0  0  0  0
 23 22  1  0  0  0  0
 24 22  2  0  0  0  0
 24 25  1  0  0  0  0
 25 26  2  0  0  0  0
 26 27  1  0  0  0  0
 27 18  1  0  0  0  0
M  END
>  <CHROM.1>
-137.38934483,-36.46359334,-158.80052195,-73.94718629,-49.15324176,24.17159747
14.36361915,-3.31309853,-5.88123200,-0.36233343,1.23995412,-1.70450889

>  <Name>
lig.pdb

>  <RI>
0

>  <Rbt.Current_Directory>
/home/itssahil/PROJECTS/Mol_Feturizer/New_Systems/rnas/4b5r

>  <Rbt.Executable>
rbdock ($Id: //depot/dev/client3/rdock/2013.1/src/exe/rbdock.cxx#4 $)

>  <Rbt.Library>
libRbt.so (2013.1, Build901 2013/11/27)

>  <Rbt.Parameter_File>
/export/apps/rDock/src/rDock_2013.1_src/data/scripts/dock_solv.prm

>  <Rbt.Receptor>
prm/blind_docking_20.prm

>  <SCORE>
-11.1238

>  <SCORE.INTER>
-11.2924

>  <SCORE.INTER.CONST>
1

>  <SCORE.INTER.POLAR>
0

>  <SCORE.INTER.ROT>
6

>  <SCORE.INTER.SOLV>
19.5917

>  <SCORE.INTER.VDW>
-21.6588

>  <SCORE.INTER.norm>
-0.418238

>  <SCORE.INTRA>
0.16023

>  <SCORE.INTRA.DIHEDRAL>
0.117734

>  <SCORE.INTRA.DIHEDRAL.0>
10.2917

>  <SCORE.INTRA.POLAR>
0

>  <SCORE.INTRA.POLAR.0>
0

>  <SCORE.INTRA.REPUL>
0

>  <SCORE.INTRA.REPUL.0>
0

>  <SCORE.INTRA.SOLV>
-1.68837

>  <SCORE.INTRA.SOLV.lig_0>
-39.6315

>  <SCORE.INTRA.VDW>
0.945548

>  <SCORE.INTRA.VDW.0>
-4.02152

>  <SCORE.INTRA.norm>
0.00593445

>  <SCORE.RESTR>
0.00841041

>  <SCORE.RESTR.CAVITY>
0.00841041

>  <SCORE.RESTR.norm>
0.000311497

>  <SCORE.SYSTEM>
0

>  <SCORE.SYSTEM.CONST>
0

>  <SCORE.SYSTEM.DIHEDRAL>
0

>  <SCORE.SYSTEM.SOLV>
0

>  <SCORE.SYSTEM.norm>
0

>  <SCORE.heavy>
27

>  <SCORE.norm>
-0.411992

>  <RMSD>
17.242

$$$$
lig.pdb
 OpenBabel11021811493D
libRbt.so/2013.1/901 2013/11/27
 27 29  0  0  0  0  0  0  0  0999 V2000
    7.3206  -11.2283  -17.7593 N   0  0  0  0  0  0  0  0  0  0  0  0
    8.0555  -11.1795  -19.0598 C   0  0  2  0  0  0  0  0  0  0  0  0
    8.3423   -9.7241  -19.4172 C   0  0  0  0  0  0  0  0  0  0  0  0
    7.4496   -8.8903  -19.3187 O   0  0  0  0  0  0  0  0  0  0  0  0
    9.4489   -9.3365  -19.8135 O   0  0  0  0  0  0  0  0  0  0  0  0
    7.3358  -11.9183  -20.2062 C   0  0  0  0  0  0  0  0  0  0  0  0
    6.8197  -11.0480  -21.3820 C   0  0  0  0  0  0  0  0  0  0  0  0
    5.9437  -11.8684  -22.7832 S   0  0  2  0  0  0  0  0  0  0  0  0
    7.1815  -13.0642  -23.3287 C   0  0  0  0  0  0  0  0  0  0  0  0
    6.0695  -10.6660  -24.1249 C   0  0  0  0  0  0  0  0  0  0  0  0
    5.2303   -9.4388  -23.7946 C   0  0  1  0  0  0  0  0  0  0  0  0
    5.2999   -8.4418  -24.8029 O   0  0  0  0  0  0  0  0  0  0  0  0
    3.7596   -9.7395  -23.6861 C   0  0  1  0  0  0  0  0  0  0  0  0
    3.4772  -10.3229  -22.4467 O   0  0  0  0  0  0  0  0  0  0  0  0
    3.1796   -8.3502  -23.8341 C   0  0  1  0  0  0  0  0  0  0  0  0
    3.2219   -7.6702  -22.5961 O   0  0  0  0  0  0  0  0  0  0  0  0
    4.1210   -7.6565  -24.8123 C   0  0  2  0  0  0  0  0  0  0  0  0
    3.5848   -7.4858  -26.1906 N   0  0  0  0  0  0  0  0  0  0  0  0
    3.4240   -6.2856  -26.8360 C   0  0  0  0  0  0  0  0  0  0  0  0
    2.9150   -6.5090  -28.0683 N   0  0  0  0  0  0  0  0  0  0  0  0
    2.7525   -7.8321  -28.2332 C   0  0  0  0  0  0  0  0  0  0  0  0
    2.2823   -8.5863  -29.2974 C   0  0  0  0  0  0  0  0  0  0  0  0
    1.8927   -7.9936  -30.4183 N   0  0  0  0  0  0  0  0  0  0  0  0
    2.2307   -9.9610  -29.1778 N   0  0  0  0  0  0  0  0  0  0  0  0
    2.6446  -10.5956  -28.0134 C   0  0  0  0  0  0  0  0  0  0  0  0
    3.1150   -9.8288  -26.9669 N   0  0  0  0  0  0  0  0  0  0  0  0
    3.1650   -8.4682  -27.0650 C   0  0  0  0  0  0  0  0  0  0  0  0
  2  3  1  6  0  0  0
  2  6  1  0  0  0  0
  2  1  1  0  0  0  0
  4  3  2  0  0  0  0
  5  3  1  0  0  0  0
  6  7  2  0  0  0  0
  8  7  1  1  0  0  0
  8  9  1  0  0  0  0
  8 10  1  0  0  0  0
 11 10  1  6  0  0  0
 11 13  1  0  0  0  0
 12 11  1  0  0  0  0
 12 17  1  0  0  0  0
 13 14  1  1  0  0  0
 13 15  1  0  0  0  0
 15 16  1  1  0  0  0
 17 18  1  6  0  0  0
 17 15  1  0  0  0  0
 18 19  1  0  0  0  0
 20 19  2  0  0  0  0
 21 27  2  0  0  0  0
 21 20  1  0  0  0  0
 22 21  1  0  0  0  0
 23 22  1  0  0  0  0
 24 22  2  0  0  0  0
 24 25  1  0  0  0  0
 25 26  2  0  0  0  0
 26 27  1  0  0  0  0
 27 18  1  0  0  0  0
M  END
>  <CHROM.1>
-46.35067348,114.06644982,-57.02530906,-68.14608636,179.14824658,-119.37058702
4.91814208,-9.53352518,-24.05074288,0.14202000,-1.04404248,0.45572316

>  <Name>
lig.pdb

>  <RI>
0

>  <Rbt.Current_Directory>
/home/itssahil/PROJECTS/Mol_Feturizer/New_Systems/rnas/4b5r

>  <Rbt.Executable>
rbdock ($Id: //depot/dev/client3/rdock/2013.1/src/exe/rbdock.cxx#4 $)

>  <Rbt.Library>
libRbt.so (2013.1, Build901 2013/11/27)

>  <Rbt.Parameter_File>
/export/apps/rDock/src/rDock_2013.1_src/data/scripts/dock_solv.prm

>  <Rbt.Receptor>
prm/blind_docking_80.prm

>  <SCORE>
-12.035

>  <SCORE.INTER>
-11.0406

>  <SCORE.INTER.CONST>
1

>  <SCORE.INTER.POLAR>
0

>  <SCORE.INTER.ROT>
6

>  <SCORE.INTER.SOLV>
12.2654

>  <SCORE.INTER.VDW>
-19.0489

>  <SCORE.INTER.norm>
-0.408913

>  <SCORE.INTRA>
-0.994388

>  <SCORE.INTRA.DIHEDRAL>
-3.28281

>  <SCORE.INTRA.DIHEDRAL.0>
10.2917

>  <SCORE.INTRA.POLAR>
0

>  <SCORE.INTRA.POLAR.0>
0

>  <SCORE.INTRA.REPUL>
0

>  <SCORE.INTRA.REPUL.0>
0

>  <SCORE.INTRA.SOLV>
-2.14634

>  <SCORE.INTRA.SOLV.lig_0>
-39.6315

>  <SCORE.INTRA.VDW>
1.72018

>  <SCORE.INTRA.VDW.0>
-4.02152

>  <SCORE.INTRA.norm>
-0.0368292

>  <SCORE.RESTR>
0

>  <SCORE.RESTR.CAVITY>
0

>  <SCORE.RESTR.norm>
0

>  <SCORE.SYSTEM>
0

>  <SCORE.SYSTEM.CONST>
0

>  <SCORE.SYSTEM.DIHEDRAL>
0

>  <SCORE.SYSTEM.SOLV>
0

>  <SCORE.SYSTEM.norm>
0

>  <SCORE.heavy>
27

>  <SCORE.norm>
-0.445742

>  <RMSD>
17.254

$$$$
lig.pdb
 OpenBabel11021811493D
libRbt.so/2013.1/901 2013/11/27
 27 29  0  0  0  0  0  0  0  0999 V2000
   -3.5123  -12.4169  -24.4056 N   0  0  0  0  0  0  0  0  0  0  0  0
   -3.5328  -12.8372  -22.9714 C   0  0  2  0  0  0  0  0  0  0  0  0
   -4.9303  -12.6072  -22.4035 C   0  0  0  0  0  0  0  0  0  0  0  0
   -5.3629  -11.4647  -22.3068 O   0  0  0  0  0  0  0  0  0  0  0  0
   -5.6602  -13.5318  -22.0238 O   0  0  0  0  0  0  0  0  0  0  0  0
   -2.4476  -12.1586  -22.1114 C   0  0  0  0  0  0  0  0  0  0  0  0
   -1.4153  -11.2750  -22.8598 C   0  0  0  0  0  0  0  0  0  0  0  0
   -0.0861  -10.4392  -21.8911 S   0  0  2  0  0  0  0  0  0  0  0  0
   -1.0545   -9.4798  -20.7074 C   0  0  0  0  0  0  0  0  0  0  0  0
    0.4636   -9.1101  -22.9834 C   0  0  0  0  0  0  0  0  0  0  0  0
    1.7453   -8.4944  -22.4379 C   0  0  1  0  0  0  0  0  0  0  0  0
    2.9106   -9.1652  -22.8934 O   0  0  0  0  0  0  0  0  0  0  0  0
    1.9527   -7.0708  -22.8802 C   0  0  1  0  0  0  0  0  0  0  0  0
    1.1592   -6.2086  -22.1168 O   0  0  0  0  0  0  0  0  0  0  0  0
    3.4327   -6.9088  -22.6124 C   0  0  1  0  0  0  0  0  0  0  0  0
    3.6510   -6.6097  -21.2486 O   0  0  0  0  0  0  0  0  0  0  0  0
    4.0185   -8.2828  -22.9179 C   0  0  2  0  0  0  0  0  0  0  0  0
    4.7692   -8.3777  -24.1999 N   0  0  0  0  0  0  0  0  0  0  0  0
    5.9438   -9.0633  -24.3823 C   0  0  0  0  0  0  0  0  0  0  0  0
    6.3382   -8.9335  -25.6688 N   0  0  0  0  0  0  0  0  0  0  0  0
    5.4351   -8.1841  -26.3222 C   0  0  0  0  0  0  0  0  0  0  0  0
    5.3548   -7.7626  -27.6407 C   0  0  0  0  0  0  0  0  0  0  0  0
    6.2930   -8.1075  -28.5127 N   0  0  0  0  0  0  0  0  0  0  0  0
    4.2838   -6.9855  -28.0352 N   0  0  0  0  0  0  0  0  0  0  0  0
    3.2891   -6.6249  -27.1350 C   0  0  0  0  0  0  0  0  0  0  0  0
    3.3830   -7.0587  -25.8283 N   0  0  0  0  0  0  0  0  0  0  0  0
    4.4392   -7.8205  -25.4192 C   0  0  0  0  0  0  0  0  0  0  0  0
  2  3  1  1  0  0  0
  2  6  1  0  0  0  0
  2  1  1  0  0  0  0
  4  3  2  0  0  0  0
  5  3  1  0  0  0  0
  6  7  2  0  0  0  0
  8  7  1  6  0  0  0
  8  9  1  0  0  0  0
  8 10  1  0  0  0  0
 11 10  1  6  0  0  0
 11 13  1  0  0  0  0
 12 11  1  0  0  0  0
 12 17  1  0  0  0  0
 13 14  1  1  0  0  0
 13 15  1  0  0  0  0
 15 16  1  1  0  0  0
 17 18  1  6  0  0  0
 17 15  1  0  0  0  0
 18 19  1  0  0  0  0
 20 19  2  0  0  0  0
 21 27  2  0  0  0  0
 21 20  1  0  0  0  0
 22 21  1  0  0  0  0
 23 22  1  0  0  0  0
 24 22  2  0  0  0  0
 24 25  1  0  0  0  0
 25 26  2  0  0  0  0
 26 27  1  0  0  0  0
 27 18  1  0  0  0  0
M  END
>  <CHROM.1>
-65.32860780,-6.24049506,-57.03194234,-169.00718798,87.78736488,-101.17749339
1.35699425,-9.21445867,-23.71985754,2.97860896,0.54843409,1.20733291

>  <Name>
lig.pdb

>  <RI>
0

>  <Rbt.Current_Directory>
/home/itssahil/PROJECTS/Mol_Feturizer/New_Systems/rnas/4b5r

>  <Rbt.Executable>
rbdock ($Id: //depot/dev/client3/rdock/2013.1/src/exe/rbdock.cxx#4 $)

>  <Rbt.Library>
libRbt.so (2013.1, Build901 2013/11/27)

>  <Rbt.Parameter_File>
/export/apps/rDock/src/rDock_2013.1_src/data/scripts/dock_solv.prm

>  <Rbt.Receptor>
prm/blind_docking_100.prm

>  <SCORE>
-17.3962

>  <SCORE.INTER>
-17.7199

>  <SCORE.INTER.CONST>
1

>  <SCORE.INTER.POLAR>
0

>  <SCORE.INTER.ROT>
6

>  <SCORE.INTER.SOLV>
18.3755

>  <SCORE.INTER.VDW>
-25.5385

>  <SCORE.INTER.norm>
-0.656294

>  <SCORE.INTRA>
0.323711

>  <SCORE.INTRA.DIHEDRAL>
0.0654702

>  <SCORE.INTRA.DIHEDRAL.0>
10.2917

>  <SCORE.INTRA.POLAR>
0

>  <SCORE.INTRA.POLAR.0>
0

>  <SCORE.INTRA.REPUL>
0

>  <SCORE.INTRA.REPUL.0>
0

>  <SCORE.INTRA.SOLV>
-2.0945

>  <SCORE.INTRA.SOLV.lig_0>
-39.6315

>  <SCORE.INTRA.VDW>
1.33822

>  <SCORE.INTRA.VDW.0>
-4.02152

>  <SCORE.INTRA.norm>
0.0119893

>  <SCORE.RESTR>
0

>  <SCORE.RESTR.CAVITY>
0

>  <SCORE.RESTR.norm>
0

>  <SCORE.SYSTEM>
0

>  <SCORE.SYSTEM.CONST>
0

>  <SCORE.SYSTEM.DIHEDRAL>
0

>  <SCORE.SYSTEM.SOLV>
0

>  <SCORE.SYSTEM.norm>
0

>  <SCORE.heavy>
27

>  <SCORE.norm>
-0.644304

>  <RMSD>
17.346

$$$$
lig.pdb
 OpenBabel11021811493D
libRbt.so/2013.1/901 2013/11/27
 27 29  0  0  0  0  0  0  0  0999 V2000
   13.4553   -1.4543  -11.1042 N   0  0  0  0  0  0  0  0  0  0  0  0
   12.8046   -0.6427  -10.0309 C   0  0  2  0  0  0  0  0  0  0  0  0
   13.6062    0.6381   -9.8180 C   0  0  0  0  0  0  0  0  0  0  0  0
   14.6808    0.7807  -10.3896 O   0  0  0  0  0  0  0  0  0  0  0  0
   13.2221    1.5545   -9.0801 O   0  0  0  0  0  0  0  0  0  0  0  0
   12.5972   -1.4131   -8.7114 C   0  0  0  0  0  0  0  0  0  0  0  0
   13.5509   -1.0604   -7.5398 C   0  0  0  0  0  0  0  0  0  0  0  0
   13.3611   -1.9500   -5.9347 S   0  0  2  0  0  0  0  0  0  0  0  0
   11.8102   -1.2576   -5.3224 C   0  0  0  0  0  0  0  0  0  0  0  0
   14.5244   -1.1057   -4.8412 C   0  0  0  0  0  0  0  0  0  0  0  0
   15.7861   -1.9448   -4.6879 C   0  0  1  0  0  0  0  0  0  0  0  0
   15.5053   -3.3055   -4.3962 O   0  0  0  0  0  0  0  0  0  0  0  0
   16.6107   -2.0085   -5.9454 C   0  0  1  0  0  0  0  0  0  0  0  0
   17.3548   -0.8336   -6.0937 O   0  0  0  0  0  0  0  0  0  0  0  0
   17.4674   -3.2211   -5.6556 C   0  0  1  0  0  0  0  0  0  0  0  0
   18.5680   -2.8580   -4.8470 O   0  0  0  0  0  0  0  0  0  0  0  0
   16.5504   -4.1424   -4.8588 C   0  0  2  0  0  0  0  0  0  0  0  0
   16.0246   -5.3142   -5.6116 N   0  0  0  0  0  0  0  0  0  0  0  0
   16.2908   -6.6284   -5.3203 C   0  0  0  0  0  0  0  0  0  0  0  0
   15.6482   -7.4189   -6.2089 N   0  0  0  0  0  0  0  0  0  0  0  0
   14.9651   -6.6392   -7.0630 C   0  0  0  0  0  0  0  0  0  0  0  0
   14.1452   -6.9356   -8.1412 C   0  0  0  0  0  0  0  0  0  0  0  0
   13.9197   -8.1969   -8.4846 N   0  0  0  0  0  0  0  0  0  0  0  0
   13.5623   -5.9025   -8.8480 N   0  0  0  0  0  0  0  0  0  0  0  0
   13.7820   -4.5774   -8.4936 C   0  0  0  0  0  0  0  0  0  0  0  0
   14.5964   -4.3020   -7.4140 N   0  0  0  0  0  0  0  0  0  0  0  0
   15.1873   -5.3107   -6.7093 C   0  0  0  0  0  0  0  0  0  0  0  0
  2  3  1  1  0  0  0
  2  6  1  0  0  0  0
  2  1  1  0  0  0  0
  4  3  2  0  0  0  0
  5  3  1  0  0  0  0
  6  7  2  0  0  0  0
  8  7  1  6  0  0  0
  8  9  1  0  0  0  0
  8 10  1  0  0  0  0
 11 10  1  6  0  0  0
 11 13  1  0  0  0  0
 12 11  1  0  0  0  0
 12 17  1  0  0  0  0
 13 14  1  1  0  0  0
 13 15  1  0  0  0  0
 15 16  1  1  0  0  0
 17 18  1  6  0  0  0
 17 15  1  0  0  0  0
 18 19  1  0  0  0  0
 20 19  2  0  0  0  0
 21 27  2  0  0  0  0
 21 20  1  0  0  0  0
 22 21  1  0  0  0  0
 23 22  1  0  0  0  0
 24 22  2  0  0  0  0
 24 25  1  0  0  0  0
 25 26  2  0  0  0  0
 26 27  1  0  0  0  0
 27 18  1  0  0  0  0
M  END
>  <CHROM.1>
-7.52301796,105.41810565,-70.88242289,-101.90715351,-48.05964779,-124.18561151
14.75291184,-3.02516006,-7.02212381,2.12634615,-0.93707667,0.04190938

>  <Name>
lig.pdb

>  <RI>
0

>  <Rbt.Current_Directory>
/home/itssahil/PROJECTS/Mol_Feturizer/New_Systems/rnas/4b5r

>  <Rbt.Executable>
rbdock ($Id: //depot/dev/client3/rdock/2013.1/src/exe/rbdock.cxx#4 $)

>  <Rbt.Library>
libRbt.so (2013.1, Build901 2013/11/27)

>  <Rbt.Parameter_File>
/export/apps/rDock/src/rDock_2013.1_src/data/scripts/dock_solv.prm

>  <Rbt.Receptor>
prm/blind_docking_20.prm

>  <SCORE>
-6.61232

>  <SCORE.INTER>
-6.36576

>  <SCORE.INTER.CONST>
1

>  <SCORE.INTER.POLAR>
0

>  <SCORE.INTER.ROT>
6

>  <SCORE.INTER.SOLV>
22.8184

>  <SCORE.INTER.VDW>
-19.45

>  <SCORE.INTER.norm>
-0.235769

>  <SCORE.INTRA>
-0.246556

>  <SCORE.INTRA.DIHEDRAL>
0.515327

>  <SCORE.INTRA.DIHEDRAL.0>
10.2917

>  <SCORE.INTRA.POLAR>
0

>  <SCORE.INTRA.POLAR.0>
0

>  <SCORE.INTRA.REPUL>
0

>  <SCORE.INTRA.REPUL.0>
0

>  <SCORE.INTRA.SOLV>
-1.25347

>  <SCORE.INTRA.SOLV.lig_0>
-39.6315

>  <SCORE.INTRA.VDW>
0.122515

>  <SCORE.INTRA.VDW.0>
-4.02152

>  <SCORE.INTRA.norm>
-0.00913172

>  <SCORE.RESTR>
0

>  <SCORE.RESTR.CAVITY>
0

>  <SCORE.RESTR.norm>
0

>  <SCORE.SYSTEM>
0

>  <SCORE.SYSTEM.CONST>
0

>  <SCORE.SYSTEM.DIHEDRAL>
0

>  <SCORE.SYSTEM.SOLV>
0

>  <SCORE.SYSTEM.norm>
0

>  <SCORE.heavy>
27

>  <SCORE.norm>
-0.244901

>  <RMSD>
17.365

$$$$
lig.pdb
 OpenBabel11021811493D
libRbt.so/2013.1/901 2013/11/27
 27 29  0  0  0  0  0  0  0  0999 V2000
   13.6573   -1.4944  -10.3163 N   0  0  0  0  0  0  0  0  0  0  0  0
   13.2780   -0.2882   -9.5193 C   0  0  2  0  0  0  0  0  0  0  0  0
   14.2725    0.8329   -9.8062 C   0  0  0  0  0  0  0  0  0  0  0  0
   13.8579    1.9487  -10.0977 O   0  0  0  0  0  0  0  0  0  0  0  0
   15.4985    0.6688   -9.7639 O   0  0  0  0  0  0  0  0  0  0  0  0
   13.1453   -0.5614   -8.0074 C   0  0  0  0  0  0  0  0  0  0  0  0
   13.3427   -2.0284   -7.5432 C   0  0  0  0  0  0  0  0  0  0  0  0
   13.1908   -2.4253   -5.7479 S   0  0  2  0  0  0  0  0  0  0  0  0
   11.6565   -1.5746   -5.3214 C   0  0  0  0  0  0  0  0  0  0  0  0
   14.3819   -1.3158   -4.9656 C   0  0  0  0  0  0  0  0  0  0  0  0
   15.7574   -1.9694   -4.9480 C   0  0  1  0  0  0  0  0  0  0  0  0
   15.7892   -3.1548   -4.1676 O   0  0  0  0  0  0  0  0  0  0  0  0
   16.2151   -2.4213   -6.3087 C   0  0  1  0  0  0  0  0  0  0  0  0
   16.6919   -1.3310   -7.0435 O   0  0  0  0  0  0  0  0  0  0  0  0
   17.3029   -3.4003   -5.9258 C   0  0  1  0  0  0  0  0  0  0  0  0
   18.5055   -2.7101   -5.6533 O   0  0  0  0  0  0  0  0  0  0  0  0
   16.7940   -4.0361   -4.6369 C   0  0  2  0  0  0  0  0  0  0  0  0
   16.2834   -5.4273   -4.7785 N   0  0  0  0  0  0  0  0  0  0  0  0
   16.4633   -6.4350   -3.8646 C   0  0  0  0  0  0  0  0  0  0  0  0
   15.8656   -7.5588   -4.3199 N   0  0  0  0  0  0  0  0  0  0  0  0
   15.2957   -7.2925   -5.5066 C   0  0  0  0  0  0  0  0  0  0  0  0
   14.5605   -8.0765   -6.3827 C   0  0  0  0  0  0  0  0  0  0  0  0
   14.3089   -9.3468   -6.0953 N   0  0  0  0  0  0  0  0  0  0  0  0
   14.0890   -7.5169   -7.5537 N   0  0  0  0  0  0  0  0  0  0  0  0
   14.3367   -6.1854   -7.8629 C   0  0  0  0  0  0  0  0  0  0  0  0
   15.0654   -5.4192   -6.9760 N   0  0  0  0  0  0  0  0  0  0  0  0
   15.5462   -5.9584   -5.8179 C   0  0  0  0  0  0  0  0  0  0  0  0
  2  3  1  1  0  0  0
  2  6  1  0  0  0  0
  2  1  1  0  0  0  0
  4  3  2  0  0  0  0
  5  3  1  0  0  0  0
  6  7  2  0  0  0  0
  8  7  1  6  0  0  0
  8  9  1  0  0  0  0
  8 10  1  0  0  0  0
 11 10  1  6  0  0  0
 11 13  1  0  0  0  0
 12 11  1  0  0  0  0
 12 17  1  0  0  0  0
 13 14  1  6  0  0  0
 13 15  1  0  0  0  0
 15 16  1  1  0  0  0
 17 18  1  6  0  0  0
 17 15  1  0  0  0  0
 18 19  1  0  0  0  0
 20 19  2  0  0  0  0
 21 27  2  0  0  0  0
 21 20  1  0  0  0  0
 22 21  1  0  0  0  0
 23 22  1  0  0  0  0
 24 22  2  0  0  0  0
 24 25  1  0  0  0  0
 25 26  2  0  0  0  0
 26 27  1  0  0  0  0
 27 18  1  0  0  0  0
M  END
>  <CHROM.1>
130.35899503,-3.14433561,47.52175295,-86.86534084,-63.34747180,-98.77392382
14.93774466,-3.35569999,-6.59866936,1.81851846,-0.79929963,-0.26341293

>  <Name>
lig.pdb

>  <RI>
0

>  <Rbt.Current_Directory>
/home/itssahil/PROJECTS/Mol_Feturizer/New_Systems/rnas/4b5r

>  <Rbt.Executable>
rbdock ($Id: //depot/dev/client3/rdock/2013.1/src/exe/rbdock.cxx#4 $)

>  <Rbt.Library>
libRbt.so (2013.1, Build901 2013/11/27)

>  <Rbt.Parameter_File>
/export/apps/rDock/src/rDock_2013.1_src/data/scripts/dock_solv.prm

>  <Rbt.Receptor>
prm/blind_docking_20.prm

>  <SCORE>
-4.6638

>  <SCORE.INTER>
-4.17026

>  <SCORE.INTER.CONST>
1

>  <SCORE.INTER.POLAR>
0

>  <SCORE.INTER.ROT>
6

>  <SCORE.INTER.SOLV>
18.6104

>  <SCORE.INTER.VDW>
-16.5837

>  <SCORE.INTER.norm>
-0.154454

>  <SCORE.INTRA>
-0.493537

>  <SCORE.INTRA.DIHEDRAL>
-0.637493

>  <SCORE.INTRA.DIHEDRAL.0>
10.2917

>  <SCORE.INTRA.POLAR>
0

>  <SCORE.INTRA.POLAR.0>
0

>  <SCORE.INTRA.REPUL>
0

>  <SCORE.INTRA.REPUL.0>
0

>  <SCORE.INTRA.SOLV>
-1.53904

>  <SCORE.INTRA.SOLV.lig_0>
-39.6315

>  <SCORE.INTRA.VDW>
0.594726

>  <SCORE.INTRA.VDW.0>
-4.02152

>  <SCORE.INTRA.norm>
-0.0182792

>  <SCORE.RESTR>
0

>  <SCORE.RESTR.CAVITY>
0

>  <SCORE.RESTR.norm>
0

>  <SCORE.SYSTEM>
0

>  <SCORE.SYSTEM.CONST>
0

>  <SCORE.SYSTEM.DIHEDRAL>
0

>  <SCORE.SYSTEM.SOLV>
0

>  <SCORE.SYSTEM.norm>
0

>  <SCORE.heavy>
27

>  <SCORE.norm>
-0.172733

>  <RMSD>
17.389

$$$$
lig.pdb
 OpenBabel11021811493D
libRbt.so/2013.1/901 2013/11/27
 27 29  0  0  0  0  0  0  0  0999 V2000
   16.9319   -6.9237   -4.8289 N   0  0  0  0  0  0  0  0  0  0  0  0
   15.8175   -7.4287   -5.6874 C   0  0  2  0  0  0  0  0  0  0  0  0
   16.0045   -6.9045   -7.1081 C   0  0  0  0  0  0  0  0  0  0  0  0
   17.0934   -6.4574   -7.4489 O   0  0  0  0  0  0  0  0  0  0  0  0
   15.0949   -6.9029   -7.9473 O   0  0  0  0  0  0  0  0  0  0  0  0
   14.4146   -7.1011   -5.1374 C   0  0  0  0  0  0  0  0  0  0  0  0
   14.2352   -5.7156   -4.4630 C   0  0  0  0  0  0  0  0  0  0  0  0
   12.5832   -5.2629   -3.7778 S   0  0  2  0  0  0  0  0  0  0  0  0
   11.5428   -5.3720   -5.2493 C   0  0  0  0  0  0  0  0  0  0  0  0
   12.6742   -3.4678   -3.6014 C   0  0  0  0  0  0  0  0  0  0  0  0
   13.8124   -2.9252   -4.4554 C   0  0  1  0  0  0  0  0  0  0  0  0
   13.6373   -3.1989   -5.8373 O   0  0  0  0  0  0  0  0  0  0  0  0
   13.9328   -1.4260   -4.3973 C   0  0  1  0  0  0  0  0  0  0  0  0
   14.5736   -1.0394   -3.2159 O   0  0  0  0  0  0  0  0  0  0  0  0
   14.7622   -1.1651   -5.6352 C   0  0  1  0  0  0  0  0  0  0  0  0
   16.1318   -1.3740   -5.3569 O   0  0  0  0  0  0  0  0  0  0  0  0
   14.2917   -2.2225   -6.6277 C   0  0  2  0  0  0  0  0  0  0  0  0
   13.4127   -1.7177   -7.7180 N   0  0  0  0  0  0  0  0  0  0  0  0
   12.1861   -2.2347   -8.0513 C   0  0  0  0  0  0  0  0  0  0  0  0
   11.6735   -1.5301   -9.0849 N   0  0  0  0  0  0  0  0  0  0  0  0
   12.5429   -0.5624   -9.4190 C   0  0  0  0  0  0  0  0  0  0  0  0
   12.5046    0.4291  -10.3875 C   0  0  0  0  0  0  0  0  0  0  0  0
   11.4569    0.5382  -11.1937 N   0  0  0  0  0  0  0  0  0  0  0  0
   13.5670    1.3043  -10.4978 N   0  0  0  0  0  0  0  0  0  0  0  0
   14.6663    1.2077   -9.6540 C   0  0  0  0  0  0  0  0  0  0  0  0
   14.6840    0.2181   -8.6923 N   0  0  0  0  0  0  0  0  0  0  0  0
   13.6462   -0.6607   -8.5748 C   0  0  0  0  0  0  0  0  0  0  0  0
  2  3  1  6  0  0  0
  2  6  1  0  0  0  0
  2  1  1  0  0  0  0
  4  3  2  0  0  0  0
  5  3  1  0  0  0  0
  6  7  2  0  0  0  0
  8  7  1  6  0  0  0
  8  9  1  0  0  0  0
  8 10  1  0  0  0  0
 11 10  1  1  0  0  0
 11 13  1  0  0  0  0
 12 11  1  0  0  0  0
 12 17  1  0  0  0  0
 13 14  1  1  0  0  0
 13 15  1  0  0  0  0
 15 16  1  1  0  0  0
 17 18  1  6  0  0  0
 17 15  1  0  0  0  0
 18 19  1  0  0  0  0
 20 19  2  0  0  0  0
 21 27  2  0  0  0  0
 21 20  1  0  0  0  0
 22 21  1  0  0  0  0
 23 22  1  0  0  0  0
 24 22  2  0  0  0  0
 24 25  1  0  0  0  0
 25 26  2  0  0  0  0
 26 27  1  0  0  0  0
 27 18  1  0  0  0  0
M  END
>  <CHROM.1>
16.65824173,37.82655064,-59.30905277,18.20271280,60.89148204,-8.06808014
13.95805776,-3.03673169,-6.62623564,-1.02150370,1.17052804,-1.12250199

>  <Name>
lig.pdb

>  <RI>
0

>  <Rbt.Current_Directory>
/home/itssahil/PROJECTS/Mol_Feturizer/New_Systems/rnas/4b5r

>  <Rbt.Executable>
rbdock ($Id: //depot/dev/client3/rdock/2013.1/src/exe/rbdock.cxx#4 $)

>  <Rbt.Library>
libRbt.so (2013.1, Build901 2013/11/27)

>  <Rbt.Parameter_File>
/export/apps/rDock/src/rDock_2013.1_src/data/scripts/dock_solv.prm

>  <Rbt.Receptor>
prm/blind_docking_20.prm

>  <SCORE>
-5.02496

>  <SCORE.INTER>
-7.13984

>  <SCORE.INTER.CONST>
1

>  <SCORE.INTER.POLAR>
0

>  <SCORE.INTER.ROT>
6

>  <SCORE.INTER.SOLV>
14.5804

>  <SCORE.INTER.VDW>
-17.22

>  <SCORE.INTER.norm>
-0.264439

>  <SCORE.INTRA>
2.10309

>  <SCORE.INTRA.DIHEDRAL>
1.2457

>  <SCORE.INTRA.DIHEDRAL.0>
10.2917

>  <SCORE.INTRA.POLAR>
0

>  <SCORE.INTRA.POLAR.0>
0

>  <SCORE.INTRA.REPUL>
0

>  <SCORE.INTRA.REPUL.0>
0

>  <SCORE.INTRA.SOLV>
-2.39994

>  <SCORE.INTRA.SOLV.lig_0>
-39.6315

>  <SCORE.INTRA.VDW>
2.68022

>  <SCORE.INTRA.VDW.0>
-4.02152

>  <SCORE.INTRA.norm>
0.0778924

>  <SCORE.RESTR>
0.0117861

>  <SCORE.RESTR.CAVITY>
0.0117861

>  <SCORE.RESTR.norm>
0.000436522

>  <SCORE.SYSTEM>
0

>  <SCORE.SYSTEM.CONST>
0

>  <SCORE.SYSTEM.DIHEDRAL>
0

>  <SCORE.SYSTEM.SOLV>
0

>  <SCORE.SYSTEM.norm>
0

>  <SCORE.heavy>
27

>  <SCORE.norm>
-0.18611

>  <RMSD>
17.420

$$$$
lig.pdb
 OpenBabel11021811493D
libRbt.so/2013.1/901 2013/11/27
 27 29  0  0  0  0  0  0  0  0999 V2000
   12.2299   -0.0423   -9.1834 N   0  0  0  0  0  0  0  0  0  0  0  0
   12.3497   -0.9719   -8.0192 C   0  0  2  0  0  0  0  0  0  0  0  0
   12.7530   -0.1743   -6.7826 C   0  0  0  0  0  0  0  0  0  0  0  0
   12.5737    1.0377   -6.7601 O   0  0  0  0  0  0  0  0  0  0  0  0
   13.2660   -0.6975   -5.7851 O   0  0  0  0  0  0  0  0  0  0  0  0
   13.3020   -2.1586   -8.2696 C   0  0  0  0  0  0  0  0  0  0  0  0
   12.9438   -3.4994   -7.5764 C   0  0  0  0  0  0  0  0  0  0  0  0
   14.0452   -4.9577   -7.8289 S   0  0  2  0  0  0  0  0  0  0  0  0
   13.6227   -5.4379   -9.5172 C   0  0  0  0  0  0  0  0  0  0  0  0
   13.2153   -6.2791   -6.9196 C   0  0  0  0  0  0  0  0  0  0  0  0
   13.6321   -6.2349   -5.4554 C   0  0  1  0  0  0  0  0  0  0  0  0
   15.0414   -6.2655   -5.2873 O   0  0  0  0  0  0  0  0  0  0  0  0
   13.2134   -4.9679   -4.7592 C   0  0  1  0  0  0  0  0  0  0  0  0
   11.8583   -5.0301   -4.4192 O   0  0  0  0  0  0  0  0  0  0  0  0
   14.1293   -4.9958   -3.5555 C   0  0  1  0  0  0  0  0  0  0  0  0
   13.5889   -5.8305   -2.5515 O   0  0  0  0  0  0  0  0  0  0  0  0
   15.4155   -5.6231   -4.0815 C   0  0  2  0  0  0  0  0  0  0  0  0
   16.5415   -4.6720   -4.2912 N   0  0  0  0  0  0  0  0  0  0  0  0
   17.7998   -4.8031   -3.7598 C   0  0  0  0  0  0  0  0  0  0  0  0
   18.5611   -3.7599   -4.1591 N   0  0  0  0  0  0  0  0  0  0  0  0
   17.8197   -2.9625   -4.9456 C   0  0  0  0  0  0  0  0  0  0  0  0
   18.1117   -1.7840   -5.6151 C   0  0  0  0  0  0  0  0  0  0  0  0
   19.3242   -1.2517   -5.5369 N   0  0  0  0  0  0  0  0  0  0  0  0
   17.1273   -1.1757   -6.3685 N   0  0  0  0  0  0  0  0  0  0  0  0
   15.8561   -1.7271   -6.4672 C   0  0  0  0  0  0  0  0  0  0  0  0
   15.5857   -2.9036   -5.7985 N   0  0  0  0  0  0  0  0  0  0  0  0
   16.5445   -3.5139   -5.0425 C   0  0  0  0  0  0  0  0  0  0  0  0
  2  3  1  1  0  0  0
  2  6  1  0  0  0  0
  2  1  1  0  0  0  0
  4  3  2  0  0  0  0
  5  3  1  0  0  0  0
  6  7  2  0  0  0  0
  8  7  1  1  0  0  0
  8  9  1  0  0  0  0
  8 10  1  0  0  0  0
 11 10  1  6  0  0  0
 11 13  1  0  0  0  0
 12 11  1  0  0  0  0
 12 17  1  0  0  0  0
 13 14  1  1  0  0  0
 13 15  1  0  0  0  0
 15 16  1  1  0  0  0
 17 18  1  6  0  0  0
 17 15  1  0  0  0  0
 18 19  1  0  0  0  0
 20 19  2  0  0  0  0
 21 27  2  0  0  0  0
 21 20  1  0  0  0  0
 22 21  1  0  0  0  0
 23 22  1  0  0  0  0
 24 22  2  0  0  0  0
 24 25  1  0  0  0  0
 25 26  2  0  0  0  0
 26 27  1  0  0  0  0
 27 18  1  0  0  0  0
M  END
>  <CHROM.1>
19.65742491,-147.06076554,-74.44070145,-85.58860247,-54.01835017,-114.53984452
14.73401444,-3.45167189,-5.96369923,-2.22917000,0.45049267,2.71939825

>  <Name>
lig.pdb

>  <RI>
0

>  <Rbt.Current_Directory>
/home/itssahil/PROJECTS/Mol_Feturizer/New_Systems/rnas/4b5r

>  <Rbt.Executable>
rbdock ($Id: //depot/dev/client3/rdock/2013.1/src/exe/rbdock.cxx#4 $)

>  <Rbt.Library>
libRbt.so (2013.1, Build901 2013/11/27)

>  <Rbt.Parameter_File>
/export/apps/rDock/src/rDock_2013.1_src/data/scripts/dock_solv.prm

>  <Rbt.Receptor>
prm/blind_docking_20.prm

>  <SCORE>
-8.28175

>  <SCORE.INTER>
-7.20784

>  <SCORE.INTER.CONST>
1

>  <SCORE.INTER.POLAR>
0

>  <SCORE.INTER.ROT>
6

>  <SCORE.INTER.SOLV>
16.2495

>  <SCORE.INTER.VDW>
-17.8217

>  <SCORE.INTER.norm>
-0.266957

>  <SCORE.INTRA>
-1.76311

>  <SCORE.INTRA.DIHEDRAL>
-0.774095

>  <SCORE.INTRA.DIHEDRAL.0>
10.2917

>  <SCORE.INTRA.POLAR>
0

>  <SCORE.INTRA.POLAR.0>
0

>  <SCORE.INTRA.REPUL>
0

>  <SCORE.INTRA.REPUL.0>
0

>  <SCORE.INTRA.SOLV>
-1.72275

>  <SCORE.INTRA.SOLV.lig_0>
-39.6315

>  <SCORE.INTRA.VDW>
-0.514687

>  <SCORE.INTRA.VDW.0>
-4.02152

>  <SCORE.INTRA.norm>
-0.0653004

>  <SCORE.RESTR>
0.689202

>  <SCORE.RESTR.CAVITY>
0.689202

>  <SCORE.RESTR.norm>
0.025526

>  <SCORE.SYSTEM>
0

>  <SCORE.SYSTEM.CONST>
0

>  <SCORE.SYSTEM.DIHEDRAL>
0

>  <SCORE.SYSTEM.SOLV>
0

>  <SCORE.SYSTEM.norm>
0

>  <SCORE.heavy>
27

>  <SCORE.norm>
-0.306731

>  <RMSD>
17.740

$$$$
lig.pdb
 OpenBabel11021811493D
libRbt.so/2013.1/901 2013/11/27
 27 29  0  0  0  0  0  0  0  0999 V2000
    0.4726  -10.4335  -22.8436 N   0  0  0  0  0  0  0  0  0  0  0  0
   -0.9586  -10.3033  -23.2542 C   0  0  2  0  0  0  0  0  0  0  0  0
   -1.7497  -11.4786  -22.6877 C   0  0  0  0  0  0  0  0  0  0  0  0
   -1.8258  -11.6268  -21.4736 O   0  0  0  0  0  0  0  0  0  0  0  0
   -2.3243  -12.3079  -23.4046 O   0  0  0  0  0  0  0  0  0  0  0  0
   -1.1558  -10.1627  -24.7771 C   0  0  0  0  0  0  0  0  0  0  0  0
    0.0931   -9.7701  -25.6094 C   0  0  0  0  0  0  0  0  0  0  0  0
   -0.0751   -9.5788  -27.4366 S   0  0  2  0  0  0  0  0  0  0  0  0
   -0.6166  -11.2314  -27.9216 C   0  0  0  0  0  0  0  0  0  0  0  0
    1.6306   -9.6314  -28.0278 C   0  0  0  0  0  0  0  0  0  0  0  0
    2.4021   -8.4400  -27.4758 C   0  0  1  0  0  0  0  0  0  0  0  0
    3.1203   -8.7548  -26.2924 O   0  0  0  0  0  0  0  0  0  0  0  0
    3.4622   -7.9341  -28.4169 C   0  0  1  0  0  0  0  0  0  0  0  0
    2.8820   -7.1520  -29.4207 O   0  0  0  0  0  0  0  0  0  0  0  0
    4.3223   -7.1342  -27.4637 C   0  0  1  0  0  0  0  0  0  0  0  0
    3.7638   -5.8518  -27.2630 O   0  0  0  0  0  0  0  0  0  0  0  0
    4.2527   -7.9147  -26.1558 C   0  0  2  0  0  0  0  0  0  0  0  0
    5.4769   -8.6920  -25.8190 N   0  0  0  0  0  0  0  0  0  0  0  0
    6.6544   -8.6615  -26.5230 C   0  0  0  0  0  0  0  0  0  0  0  0
    7.5461   -9.4881  -25.9323 N   0  0  0  0  0  0  0  0  0  0  0  0
    6.9686  -10.0448  -24.8550 C   0  0  0  0  0  0  0  0  0  0  0  0
    7.4368  -10.9427  -23.9079 C   0  0  0  0  0  0  0  0  0  0  0  0
    8.6778  -11.4058  -23.9795 N   0  0  0  0  0  0  0  0  0  0  0  0
    6.5978  -11.3433  -22.8869 N   0  0  0  0  0  0  0  0  0  0  0  0
    5.2991  -10.8590  -22.7941 C   0  0  0  0  0  0  0  0  0  0  0  0
    4.8526   -9.9616  -23.7427 N   0  0  0  0  0  0  0  0  0  0  0  0
    5.6658   -9.5613  -24.7634 C   0  0  0  0  0  0  0  0  0  0  0  0
  2  3  1  6  0  0  0
  2  6  1  0  0  0  0
  2  1  1  0  0  0  0
  4  3  2  0  0  0  0
  5  3  1  0  0  0  0
  6  7  2  0  0  0  0
  8  7  1  1  0  0  0
  8  9  1  0  0  0  0
  8 10  1  0  0  0  0
 11 10  1  6  0  0  0
 11 13  1  0  0  0  0
 12 11  1  0  0  0  0
 12 17  1  0  0  0  0
 13 14  1  6  0  0  0
 13 15  1  0  0  0  0
 15 16  1  1  0  0  0
 17 18  1  6  0  0  0
 17 15  1  0  0  0  0
 18 19  1  0  0  0  0
 20 19  2  0  0  0  0
 21 27  2  0  0  0  0
 21 20  1  0  0  0  0
 22 21  1  0  0  0  0
 23 22  1  0  0  0  0
 24 22  2  0  0  0  0
 24 25  1  0  0  0  0
 25 26  2  0  0  0  0
 26 27  1  0  0  0  0
 27 18  1  0  0  0  0
M  END
>  <CHROM.1>
62.09549194,-16.96800201,-60.28248758,-63.85356478,95.38982482,125.10396393
2.84178486,-9.63881392,-25.49896555,-2.92990672,-0.09108181,-1.00743173

>  <Name>
lig.pdb

>  <RI>
0

>  <Rbt.Current_Directory>
/home/itssahil/PROJECTS/Mol_Feturizer/New_Systems/rnas/4b5r

>  <Rbt.Executable>
rbdock ($Id: //depot/dev/client3/rdock/2013.1/src/exe/rbdock.cxx#4 $)

>  <Rbt.Library>
libRbt.so (2013.1, Build901 2013/11/27)

>  <Rbt.Parameter_File>
/export/apps/rDock/src/rDock_2013.1_src/data/scripts/dock_solv.prm

>  <Rbt.Receptor>
prm/blind_docking_60.prm

>  <SCORE>
-12.1873

>  <SCORE.INTER>
-13.7306

>  <SCORE.INTER.CONST>
1

>  <SCORE.INTER.POLAR>
0

>  <SCORE.INTER.ROT>
6

>  <SCORE.INTER.SOLV>
19.39

>  <SCORE.INTER.VDW>
-23.2171

>  <SCORE.INTER.norm>
-0.50854

>  <SCORE.INTRA>
1.52661

>  <SCORE.INTRA.DIHEDRAL>
0.618162

>  <SCORE.INTRA.DIHEDRAL.0>
10.2917

>  <SCORE.INTRA.POLAR>
0

>  <SCORE.INTRA.POLAR.0>
0

>  <SCORE.INTRA.REPUL>
0.0569026

>  <SCORE.INTRA.REPUL.0>
0

>  <SCORE.INTRA.SOLV>
-2.77053

>  <SCORE.INTRA.SOLV.lig_0>
-39.6315

>  <SCORE.INTRA.VDW>
2.31828

>  <SCORE.INTRA.VDW.0>
-4.02152

>  <SCORE.INTRA.norm>
0.056541

>  <SCORE.RESTR>
0.0166332

>  <SCORE.RESTR.CAVITY>
0.0166332

>  <SCORE.RESTR.norm>
0.000616043

>  <SCORE.SYSTEM>
0

>  <SCORE.SYSTEM.CONST>
0

>  <SCORE.SYSTEM.DIHEDRAL>
0

>  <SCORE.SYSTEM.SOLV>
0

>  <SCORE.SYSTEM.norm>
0

>  <SCORE.heavy>
27

>  <SCORE.norm>
-0.451383

>  <RMSD>
18.291

$$$$
