@<TRIPOS>MOLECULE
4b5r_rdock.pdb
 2033 2280 0 0 0
SMALL
GASTEIGER

@<TRIPOS>ATOM
      1  OP.3       8.9650    4.0800   -9.3990 O.3     1  G1         -0.1145
      2    P.3     10.3060    3.4370   -9.4650 Pac     1  G1          0.5327
      3  OP1       10.6910    3.6150  -10.8930 O.2     1  G1         -0.2224
      4  OP2       10.1560    2.0590   -8.9020 O.3     1  G1         -0.1145
      5  O5'       11.2430    4.3170   -8.5080 O.3     1  G1         -0.2675
      6  C5'       12.6680    4.4770   -8.7570 C.3     1  G1          0.1858
      7  C4'       13.4530    4.9290   -7.5260 C.3     1  G1          0.1775
      8  O4'       12.7060    5.8720   -6.6960 O.3     1  G1         -0.3307
      9  C3'       13.8910    3.8700   -6.5240 C.3     1  G1          0.1860
     10  O3'       14.8170    2.9060   -7.0310 O.3     1  G1         -0.3112
     11  C2'       14.2550    4.7420   -5.3220 C.3     1  G1          0.2309
     12  O2'       15.4250    5.5410   -5.3670 O.3     1  G1         -0.2156
     13  C1'       13.0690    5.7040   -5.3240 C.3     1  G1          0.2408
     14   N9       11.9270    5.1340   -4.6130 N.ar    1  G1         -0.2693
     15   C8       10.7140    4.7840   -5.1560 C.ar    1  G1          0.1817
     16   N7        9.8880    4.2740   -4.2820 N.ar    1  G1         -0.2173
     17   C5       10.6010    4.2790   -3.0920 C.ar    1  G1          0.1748
     18   C6       10.2240    3.8460   -1.7940 C.ar    1  G1          0.3023
     19   O6        9.1500    3.3530   -1.4280 O.2     1  G1         -0.2633
     20   N.1      11.2490    4.0390   -0.8730 N.ar    1  G1         -0.1709
     21   C.2      12.4790    4.5780   -1.1610 C.ar    1  G1          0.2606
     22   N.2      13.3380    4.6750   -0.1370 N.pl3   1  G1         -0.0859
     23   N.3      12.8450    4.9820   -2.3680 N.ar    1  G1         -0.1918
     24   C4       11.8640    4.8040   -3.2790 C.ar    1  G1          0.1723
     25    P.3     16.1770    2.4000   -6.3480 P.3     2  G2          0.2141
     26  OP1       17.0410    3.5850   -6.0860 O.3     2  G2         -0.4373
     27  OP2       16.6750    1.2890   -7.2100 O.2     2  G2         -0.5172
     28  O5'       15.8350    1.8190   -4.9070 O.3     2  G2         -0.3114
     29  C5'       16.8900    1.2820   -4.0910 C.3     2  G2          0.1812
     30  C4'       16.7990    1.7890   -2.6720 C.3     2  G2          0.1773
     31  O4'       15.6060    2.6050   -2.4990 O.3     2  G2         -0.3307
     32  C3'       16.6740    0.6930   -1.6280 C.3     2  G2          0.1860
     33  O3'       17.9450    0.1510   -1.3020 O.3     2  G2         -0.3112
     34  C2'       15.9670    1.4080   -0.4870 C.3     2  G2          0.2309
     35  O2'       16.8640    2.2150    0.2420 O.3     2  G2         -0.2156
     36  C1'       14.9850    2.2920   -1.2590 C.3     2  G2          0.2408
     37   N9       13.6780    1.6990   -1.5420 N.ar    2  G2         -0.2693
     38   C8       13.0890    1.5920   -2.7790 C.ar    2  G2          0.1817
     39   N7       11.9060    1.0400   -2.7400 N.ar    2  G2         -0.2173
     40   C5       11.6950    0.7750   -1.3930 C.ar    2  G2          0.1748
     41   C6       10.5830    0.1770   -0.7350 C.ar    2  G2          0.3023
     42   O6        9.5320   -0.2470   -1.2290 O.2     2  G2         -0.2633
     43   N.1      10.7870    0.0920    0.6390 N.ar    2  G2         -0.1709
     44   C.2      11.9130    0.5170    1.2980 C.ar    2  G2          0.2606
     45   N.2      11.9140    0.3530    2.6300 N.pl3   2  G2         -0.0859
     46   N.3      12.9510    1.0860    0.7000 N.ar    2  G2         -0.1918
     47   C4       12.7750    1.1820   -0.6380 C.ar    2  G2          0.1723
     48    P.3     18.1050   -1.4130   -1.6040 P.3     3  C.3         0.2141
     49  OP1       19.3270   -1.5620   -2.4240 O.2     3  C.3        -0.5172
     50  OP2       16.8100   -1.9490   -2.1090 O.3     3  C.3        -0.4373
     51  O5'       18.3160   -2.0820   -0.1750 O.3     3  C.3        -0.3114
     52  C5'       18.2560   -1.2830    1.0140 C.3     3  C.3         0.1812
     53  C4'       17.2960   -1.8580    2.0290 C.3     3  C.3         0.1773
     54  O4'       16.0070   -1.1970    1.9490 O.3     3  C.3        -0.3307
     55  C3'       16.8900   -3.3160    1.9190 C.3     3  C.3         0.1860
     56  O3'       17.8950   -4.2380    2.3010 O.3     3  C.3        -0.3112
     57  C2'       15.7200   -3.3460    2.8970 C.3     3  C.3         0.2309
     58  O2'       16.0070   -3.2840    4.2830 O.3     3  C.3        -0.2156
     59  C1'       15.0220   -2.0330    2.5480 C.3     3  C.3         0.2420
     60   N.1      13.9440   -2.2660    1.5830 N.ar    3  C.3        -0.2535
     61   C.2      12.7760   -2.8940    2.0240 C.ar    3  C.3         0.3532
     62   O.2      12.6700   -3.1910    3.2240 O.2     3  C.3        -0.2443
     63   N.3      11.7820   -3.1380    1.1380 N.ar    3  C.3        -0.1739
     64   C4       11.9340   -2.7940   -0.1430 C.ar    3  C.3         0.1759
     65   N.4      10.9300   -3.0550   -0.9830 N.pl3   3  C.3        -0.1070
     66   C5       13.1270   -2.1790   -0.6230 C.ar    3  C.3         0.0566
     67   C6       14.0990   -1.9400    0.2650 C.ar    3  C.3         0.0850
     68    P.3     18.0600   -5.6840    1.6330 P.3     4  U4          0.2141
     69  OP1       19.5140   -5.7510    1.3200 O.3     4  U4         -0.4373
     70  OP2       17.0700   -5.9150    0.5510 O.2     4  U4         -0.5172
     71  O5'       17.6910   -6.6880    2.8160 O.3     4  U4         -0.3114
     72  C5'       17.0190   -6.2220    3.9940 C.3     4  U4          0.1812
     73  C4'       15.7970   -7.0560    4.2720 C.3     4  U4          0.1773
     74  O4'       14.5930   -6.3360    3.9020 O.3     4  U4         -0.3307
     75  C3'       15.6720   -8.3510    3.4930 C.3     4  U4          0.1860
     76  O3'       16.4460   -9.3580    4.1040 O.3     4  U4         -0.3112
     77  C2'       14.1940   -8.6690    3.6700 C.3     4  U4          0.2309
     78  O2'       13.9500   -9.2950    4.9110 O.3     4  U4         -0.2156
     79  C1'       13.5650   -7.2710    3.5920 C.3     4  U4          0.2420
     80   N.1      13.0020   -6.9440    2.2690 N.ar    4  U4         -0.2534
     81   C.2      11.7940   -7.5240    1.9120 C.ar    4  U4          0.3546
     82   O.2      11.1860   -8.2940    2.6350 O.2     4  U4         -0.2443
     83   N.3      11.3320   -7.1720    0.6680 N.ar    4  U4         -0.1530
     84   C4       11.9290   -6.3190   -0.2380 C.ar    4  U4          0.2846
     85   O4       11.3860   -6.1090   -1.3270 O.2     4  U4         -0.2650
     86   C5       13.1790   -5.7710    0.2000 C.ar    4  U4          0.0814
     87   C6       13.6580   -6.0920    1.4090 C.ar    4  U4          0.0870
     88    P.3     16.9590  -10.6330    3.2950 P.3     5  U5          0.2141
     89  OP1       17.4710  -11.5260    4.3620 O.3     5  U5         -0.4373
     90  OP2       17.8480  -10.2580    2.1590 O.2     5  U5         -0.5172
     91  O5'       15.6280  -11.3430    2.7880 O.3     5  U5         -0.3114
     92  C5'       14.9670  -12.3050    3.6330 C.3     5  U5          0.1812
     93  C4'       13.6870  -12.8040    3.0010 C.3     5  U5          0.1773
     94  O4'       12.7980  -11.6910    2.6970 O.3     5  U5         -0.3307
     95  C3'       13.8210  -13.5300    1.6720 C.3     5  U5          0.1860
     96  O3'       14.2310  -14.8840    1.8260 O.3     5  U5         -0.3112
     97  C2'       12.3960  -13.4340    1.1460 C.3     5  U5          0.2309
     98  O2'       11.5490  -14.3670    1.7910 O.3     5  U5         -0.2156
     99  C1'       12.0300  -12.0010    1.5430 C.3     5  U5          0.2420
    100   N.1      12.3190  -11.0070    0.4970 N.ar    5  U5         -0.2534
    101   C.2      11.3650  -10.8100   -0.4870 C.ar    5  U5          0.3546
    102   O.2      10.3080  -11.4200   -0.5180 O.2     5  U5         -0.2443
    103   N.3      11.7010   -9.8780   -1.4380 N.ar    5  U5         -0.1530
    104   C4       12.8630   -9.1400   -1.5130 C.ar    5  U5          0.2846
    105   O4       13.0120   -8.3310   -2.4320 O.2     5  U5         -0.2650
    106   C5       13.7990   -9.4000   -0.4610 C.ar    5  U5          0.0814
    107   C6       13.5050  -10.3050    0.4810 C.ar    5  U5          0.0870
    108    P.3     14.8920  -15.7120    0.6200 P.3     6  A6          0.2141
    109  OP1       15.5880  -16.9240    1.1540 O.3     6  A6         -0.4373
    110  OP2       15.6590  -14.7300   -0.1930 O.2     6  A6         -0.5172
    111  O5'       13.5940  -16.1580   -0.1950 O.3     6  A6         -0.3114
    112  C5'       12.5890  -17.0180    0.3820 C.3     6  A6          0.1812
    113  C4'       11.4260  -17.1850   -0.5710 C.3     6  A6          0.1773
    114  O4'       10.6680  -15.9490   -0.6420 O.3     6  A6         -0.3307
    115  C3'       11.7910  -17.4630   -2.0200 C.3     6  A6          0.1860
    116  O3'       12.0270  -18.8380   -2.2170 O.3     6  A6         -0.3112
    117  C2'       10.5460  -16.9900   -2.7520 C.3     6  A6          0.2309
    118  O2'        9.4540  -17.8730   -2.6590 O.3     6  A6         -0.2156
    119  C1'       10.2050  -15.7340   -1.9650 C.3     6  A6          0.2408
    120   N9       10.8690  -14.5480   -2.4930 N.ar    6  A6         -0.2693
    121   C8       12.1390  -14.1050   -2.2180 C.ar    6  A6          0.1816
    122   N7       12.4610  -13.0010   -2.8460 N.ar    6  A6         -0.2193
    123   C5       11.3300  -12.7000   -3.5910 C.ar    6  A6          0.1518
    124   C6       11.0310  -11.6490   -4.4790 C.ar    6  A6          0.1919
    125   N6       11.8820  -10.6620   -4.7740 N.pl3   6  A6         -0.1054
    126   N.1       9.8120  -11.6460   -5.0620 N.ar    6  A6         -0.2040
    127   C.2       8.9610  -12.6350   -4.7670 C.ar    6  A6          0.2016
    128   N.3       9.1250  -13.6750   -3.9510 N.ar    6  A6         -0.2048
    129   C4       10.3430  -13.6470   -3.3860 C.ar    6  A6          0.1692
    130    P.3     13.0090  -19.2100   -3.4050 P.3     7  U7          0.2141
    131  OP1       13.3480  -20.6530   -3.1950 O.3     7  U7         -0.4373
    132  OP2       14.1040  -18.2100   -3.4630 O.2     7  U7         -0.5172
    133  O5'       12.0210  -18.9710   -4.6380 O.3     7  U7         -0.3114
    134  C5'       10.9080  -19.8540   -4.8850 C.3     7  U7          0.1812
    135  C4'       10.0930  -19.3790   -6.0640 C.3     7  U7          0.1773
    136  O4'        9.6580  -18.0160   -5.8210 O.3     7  U7         -0.3307
    137  C3'       10.8250  -19.3070   -7.3940 C.3     7  U7          0.1860
    138  O3'       10.8790  -20.5430   -8.0910 O.3     7  U7         -0.3112
    139  C2'       10.0230  -18.2560   -8.1570 C.3     7  U7          0.2309
    140  O2'        8.8550  -18.7270   -8.7940 O.3     7  U7         -0.2156
    141  C1'        9.6350  -17.2920   -7.0390 C.3     7  U7          0.2420
    142   N.1      10.5400  -16.1390   -6.9210 N.ar    7  U7         -0.2534
    143   C.2      10.3140  -15.0770   -7.7710 C.ar    7  U7          0.3546
    144   O.2       9.4170  -15.0700   -8.5950 O.2     7  U7         -0.2443
    145   N.3      11.1720  -14.0170   -7.6120 N.ar    7  U7         -0.1530
    146   C4       12.2130  -13.9120   -6.7150 C.ar    7  U7          0.2846
    147   O4       12.8990  -12.8900   -6.6990 O.2     7  U7         -0.2650
    148   C5       12.3860  -15.0550   -5.8700 C.ar    7  U7          0.0814
    149   C6       11.5640  -16.1040   -6.0000 C.ar    7  U7          0.0870
    150    P.3     12.2150  -20.7870   -8.9330 P.3     8  C8          0.2141
    151  OP1       12.3210  -22.2190   -9.3250 O.2     8  C8         -0.5172
    152  OP2       13.3290  -20.1590   -8.1830 O.3     8  C8         -0.4373
    153  O5'       11.9530  -19.8860  -10.2200 O.3     8  C8         -0.3114
    154  C5'       10.7950  -20.0980  -11.0440 C.3     8  C8          0.1812
    155  C4'       10.6860  -19.0170  -12.0960 C.3     8  C8          0.1773
    156  O4'       10.6020  -17.7160  -11.4650 O.3     8  C8         -0.3307
    157  C3'       11.8590  -18.8770  -13.0500 C.3     8  C8          0.1860
    158  O3'       11.7510  -19.8260  -14.1020 O.3     8  C8         -0.3112
    159  C2'       11.6680  -17.4600  -13.5710 C.3     8  C8          0.2309
    160  O2'       10.6660  -17.3740  -14.5630 O.3     8  C8         -0.2156
    161  C1'       11.1620  -16.7390  -12.3230 C.3     8  C8          0.2420
    162   N.1      12.1950  -16.0070  -11.5750 N.ar    8  C8         -0.2535
    163   C.2      12.2200  -14.6160  -11.6610 C.ar    8  C8          0.3532
    164   O.2      11.3910  -14.0490  -12.3840 O.2     8  C8         -0.2443
    165   N.3      13.1500  -13.9250  -10.9620 N.ar    8  C8         -0.1739
    166   C4       14.0320  -14.5770  -10.2010 C.ar    8  C8          0.1759
    167   N.4      14.9390  -13.8580   -9.5390 N.pl3   8  C8         -0.1070
    168   C5       14.0240  -15.9960  -10.0880 C.ar    8  C8          0.0566
    169   C6       13.0970  -16.6660  -10.7850 C.ar    8  C8          0.0850
    170    P.3     13.0160  -20.7210  -14.5000 P.3     9  A9          0.2141
    171  OP1       13.1270  -21.7890  -13.4630 O.3     9  A9         -0.4373
    172  OP2       14.1530  -19.7860  -14.7390 O.2     9  A9         -0.5172
    173  O5'       12.4780  -21.3890  -15.8460 O.3     9  A9         -0.3114
    174  C5'       12.9950  -21.0350  -17.1450 C.3     9  A9          0.1812
    175  C4'       12.3370  -21.8770  -18.2220 C.3     9  A9          0.1773
    176  O4'       13.3030  -22.7870  -18.7980 O.3     9  A9         -0.3307
    177  C3'       11.1480  -22.7290  -17.7640 C.3     9  A9          0.1860
    178  O3'        9.9400  -22.3080  -18.4200 O.3     9  A9         -0.3112
    179  C2'       11.6370  -24.1910  -17.8260 C.3     9  A9          0.2309
    180  O2'       10.9260  -25.1090  -18.6370 O.3     9  A9         -0.2156
    181  C1'       13.1080  -24.0740  -18.2580 C.3     9  A9          0.2408
    182   N9       14.0880  -24.2880  -17.1800 N.ar    9  A9         -0.2693
    183   C8       13.8760  -24.1770  -15.8250 C.ar    9  A9          0.1816
    184   N7       14.9400  -24.4290  -15.1010 N.ar    9  A9         -0.2193
    185   C5       15.9200  -24.7250  -16.0390 C.ar    9  A9          0.1518
    186   C6       17.2790  -25.0760  -15.9110 C.ar    9  A9          0.1919
    187   N6       17.9070  -25.1940  -14.7380 N.pl3   9  A9         -0.1054
    188   N.1      17.9760  -25.3120  -17.0460 N.ar    9  A9         -0.2040
    189   C.2      17.3430  -25.1960  -18.2230 C.ar    9  A9          0.2016
    190   N.3      16.0740  -24.8720  -18.4720 N.ar    9  A9         -0.2048
    191   C4       15.4080  -24.6480  -17.3240 C.ar    9  A9          0.1692
    192    P.3      9.1640  -22.8490  -19.7150 P.3    10  A10         0.2141
    193  OP1       10.0760  -23.5870  -20.6210 O.2    10  A10        -0.5172
    194  OP2        8.3350  -21.7360  -20.2610 O.3    10  A10        -0.4373
    195  O5'        8.1790  -23.8290  -18.9370 O.3    10  A10        -0.3114
    196  C5'        7.9870  -25.1940  -19.3350 C.3    10  A10         0.1812
    197  C4'        6.9080  -25.8020  -18.4880 C.3    10  A10         0.1773
    198  O4'        7.1540  -25.4440  -17.1030 O.3    10  A10        -0.3307
    199  C3'        5.4970  -25.2840  -18.7570 C.3    10  A10         0.1860
    200  O3'        4.8850  -25.9070  -19.8830 O.3    10  A10        -0.3112
    201  C2'        4.7960  -25.5590  -17.4290 C.3    10  A10         0.2309
    202  O2'        4.3780  -26.8890  -17.2090 O.3    10  A10        -0.2156
    203  C1'        5.9170  -25.2590  -16.4290 C.3    10  A10         0.2408
    204   N9        5.8750  -23.8970  -15.8940 N.ar   10  A10        -0.2693
    205   C8        6.7680  -22.8770  -16.1100 C.ar   10  A10         0.1816
    206   N7        6.4480  -21.7580  -15.5080 N.ar   10  A10        -0.2193
    207   C5        5.2710  -22.0630  -14.8410 C.ar   10  A10         0.1518
    208   C6        4.4340  -21.3050  -14.0060 C.ar   10  A10         0.1919
    209   N6        4.6710  -20.0350  -13.6810 N.pl3  10  A10        -0.1054
    210   N.1       3.3300  -21.9040  -13.5110 N.ar   10  A10        -0.2040
    211   C.2       3.0950  -23.1820  -13.8340 C.ar   10  A10         0.2016
    212   N.3       3.8100  -24.0020  -14.6020 N.ar   10  A10        -0.2048
    213   C4        4.9020  -23.3760  -15.0750 C.ar   10  A10         0.1692
    214    P.3      4.3000  -24.9980  -21.0790 P.3    11  G11         0.2141
    215  OP1        4.1180  -25.8410  -22.2850 O.2    11  G11        -0.5172
    216  OP2        5.1440  -23.7840  -21.1870 O.3    11  G11        -0.4373
    217  O5'        2.8420  -24.5970  -20.5680 O.3    11  G11        -0.3114
    218  C5'        1.9660  -25.5700  -19.9590 C.3    11  G11         0.1812
    219  C4'        0.9700  -24.8960  -19.0480 C.3    11  G11         0.1773
    220  O4'        1.6620  -24.3400  -17.9030 O.3    11  G11        -0.3307
    221  C3'        0.2270  -23.7130  -19.6450 C.3    11  G11         0.1860
    222  O3'       -0.8650  -24.1320  -20.4620 O.3    11  G11        -0.3112
    223  C2'       -0.1900  -22.9240  -18.4040 C.3    11  G11         0.2309
    224  O2'       -1.4020  -23.3300  -17.7930 O.3    11  G11        -0.2156
    225  C1'        0.9980  -23.1620  -17.4660 C.3    11  G11         0.2408
    226   N9        1.9720  -22.0760  -17.4360 N.ar   11  G11        -0.2693
    227   C8        3.1180  -21.9970  -18.1880 C.ar   11  G11         0.1817
    228   N7        3.8290  -20.9350  -17.9300 N.ar   11  G11        -0.2173
    229   C5        3.1180  -20.2810  -16.9340 C.ar   11  G11         0.1748
    230   C6        3.3890  -19.0600  -16.2650 C.ar   11  G11         0.3023
    231   O6        4.3480  -18.2960  -16.4170 O.2    11  G11        -0.2633
    232   N.1       2.3960  -18.7490  -15.3430 N.ar   11  G11        -0.1709
    233   C.2       1.2920  -19.5170  -15.0860 C.ar   11  G11         0.2606
    234   N.2       0.4580  -19.0490  -14.1470 N.pl3  11  G11        -0.0859
    235   N.3       1.0230  -20.6570  -15.7060 N.ar   11  G11        -0.1918
    236   C4        1.9710  -20.9730  -16.6160 C.ar   11  G11         0.1723
    237    P.3     -0.9490  -23.7350  -22.0290 P.3    12  A12         0.2141
    238  OP1       -1.5660  -24.8830  -22.7500 O.2    12  A12        -0.5172
    239  OP2        0.3520  -23.1870  -22.4970 O.3    12  A12        -0.4373
    240  O5'       -1.9780  -22.5240  -22.0260 O.3    12  A12        -0.3114
    241  C5'       -3.3220  -22.7250  -21.5710 C.3    12  A12         0.1812
    242  C4'       -3.8470  -21.4350  -21.0140 C.3    12  A12         0.1773
    243  O4'       -3.0830  -21.0890  -19.8260 O.3    12  A12        -0.3307
    244  C3'       -3.6700  -20.2390  -21.9370 C.3    12  A12         0.1860
    245  O3'       -4.7480  -20.1320  -22.8490 O.3    12  A12        -0.3112
    246  C2'       -3.6540  -19.0830  -20.9530 C.3    12  A12         0.2309
    247  O2'       -4.9800  -18.7210  -20.6160 O.3    12  A12        -0.2156
    248  C1'       -2.8520  -19.6890  -19.7980 C.3    12  A12         0.2408
    249   N9       -1.4080  -19.4520  -19.9120 N.ar   12  A12        -0.2693
    250   C8       -0.5590  -19.9270  -20.8810 C.ar   12  A12         0.1816
    251   N7        0.6810  -19.5270  -20.7390 N.ar   12  A12        -0.2193
    252   C5        0.6470  -18.7340  -19.6000 C.ar   12  A12         0.1518
    253   C6        1.6430  -18.0150  -18.9190 C.ar   12  A12         0.1919
    254   N6        2.9230  -17.9860  -19.2950 N.pl3  12  A12        -0.1054
    255   N.1       1.2760  -17.3230  -17.8180 N.ar   12  A12        -0.2040
    256   C.2      -0.0030  -17.3610  -17.4350 C.ar   12  A12         0.2016
    257   N.3      -1.0280  -18.0020  -17.9880 N.ar   12  A12        -0.2048
    258   C4       -0.6330  -18.6770  -19.0820 C.ar   12  A12         0.1692
    259    P.3     -4.4190  -19.6620  -24.3450 P.3    13  G13         0.2141
    260  OP1       -3.9900  -20.8910  -25.0800 O.2    13  G13        -0.5172
    261  OP2       -3.5280  -18.4630  -24.2900 O.3    13  G13        -0.4373
    262  O5'       -5.8260  -19.1280  -24.8750 O.3    13  G13        -0.3114
    263  C5'       -6.9360  -20.0210  -25.0680 C.3    13  G13         0.1812
    264  C4'       -8.0590  -19.2910  -25.7560 C.3    13  G13         0.1773
    265  O4'       -8.6780  -18.3800  -24.8150 O.3    13  G13        -0.3307
    266  C3'       -7.6440  -18.4050  -26.9200 C.3    13  G13         0.1860
    267  O3'       -7.5350  -19.1690  -28.1120 O.3    13  G13        -0.3112
    268  C2'       -8.7770  -17.3830  -26.9830 C.3    13  G13         0.2309
    269  O2'       -9.9220  -17.7880  -27.7110 O.3    13  G13        -0.2156
    270  C1'       -9.1500  -17.2390  -25.5060 C.3    13  G13         0.2408
    271   N9       -8.6160  -16.0540  -24.8460 N.ar   13  G13        -0.2693
    272   C8       -7.3100  -15.6300  -24.7830 C.ar   13  G13         0.1817
    273   N7       -7.1580  -14.5380  -24.0820 N.ar   13  G13        -0.2173
    274   C5       -8.4410  -14.2280  -23.6520 C.ar   13  G13         0.1748
    275   C6       -8.9120  -13.1450  -22.8640 C.ar   13  G13         0.3023
    276   O6       -8.2660  -12.2250  -22.3550 O.2    13  G13        -0.2633
    277   N.1     -10.2910  -13.2030  -22.6880 N.ar   13  G13        -0.1709
    278   C.2     -11.1120  -14.1870  -23.1850 C.ar   13  G13         0.2606
    279   N.2     -12.4150  -14.0800  -22.8900 N.pl3  13  G13        -0.0859
    280   N.3     -10.6860  -15.2000  -23.9190 N.ar   13  G13        -0.1918
    281   C4       -9.3510  -15.1560  -24.1140 C.ar   13  G13         0.1723
    282    P.3     -6.6780  -18.5850  -29.3260 P.3    14  A14         0.2141
    283  OP1       -6.0730  -19.7210  -30.0570 O.2    14  A14        -0.5172
    284  OP2       -5.8190  -17.4590  -28.8710 O.3    14  A14        -0.4373
    285  O5'       -7.8380  -17.9930  -30.2370 O.3    14  A14        -0.3114
    286  C5'       -7.5710  -16.9720  -31.2080 C.3    14  A14         0.1812
    287  C4'       -8.8580  -16.5210  -31.8540 C.3    14  A14         0.1773
    288  O4'       -9.4700  -17.6070  -32.5830 O.3    14  A14        -0.3307
    289  C3'       -9.9830  -16.1180  -30.9080 C.3    14  A14         0.1860
    290  O3'       -9.7100  -14.8370  -30.3460 O.3    14  A14        -0.3112
    291  C2'      -11.2180  -16.1930  -31.8130 C.3    14  A14         0.2309
    292  O2'      -11.5000  -14.9730  -32.4750 O.3    14  A14        -0.2156
    293  C1'      -10.8080  -17.2450  -32.8520 C.3    14  A14         0.2408
    294   N9      -11.6500  -18.4470  -32.9160 N.ar   14  A14        -0.2693
    295   C8      -12.5980  -18.6980  -33.8800 C.ar   14  A14         0.1816
    296   N7      -13.2160  -19.8440  -33.7300 N.ar   14  A14        -0.2193
    297   C5      -12.6360  -20.3900  -32.5930 C.ar   14  A14         0.1518
    298   C6      -12.8530  -21.6010  -31.9100 C.ar   14  A14         0.1919
    299   N6      -13.7500  -22.5130  -32.2890 N.pl3  14  A14        -0.1054
    300   N.1     -12.1070  -21.8440  -30.8090 N.ar   14  A14        -0.2040
    301   C.2     -11.2070  -20.9250  -30.4290 C.ar   14  A14         0.2016
    302   N.3     -10.9100  -19.7510  -30.9890 N.ar   14  A14        -0.2048
    303   C4      -11.6690  -19.5400  -32.0790 C.ar   14  A14         0.1692
    304    P.3    -10.8300  -13.8560  -29.7420 P.3    15  G15         0.2141
    305  OP1      -11.2460  -12.9450  -30.8500 O.2    15  G15        -0.5172
    306  OP2      -10.3340  -13.3030  -28.4550 O.3    15  G15        -0.4373
    307  O5'      -12.1080  -14.7190  -29.3540 O.3    15  G15        -0.3114
    308  C5'      -13.3780  -14.4520  -29.9820 C.3    15  G15         0.1812
    309  C4'      -14.3230  -13.7650  -29.0260 C.3    15  G15         0.1773
    310  O4'      -14.0070  -14.0820  -27.6370 O.3    15  G15        -0.3307
    311  C3'      -14.3200  -12.2470  -29.0300 C.3    15  G15         0.1860
    312  O3'      -14.8820  -11.6760  -30.2100 O.3    15  G15        -0.3112
    313  C2'      -15.0790  -11.9730  -27.7350 C.3    15  G15         0.2309
    314  O2'      -16.4900  -12.0920  -27.8340 O.3    15  G15        -0.2156
    315  C1'      -14.4440  -13.0150  -26.8020 C.3    15  G15         0.2408
    316   N9      -13.2830  -12.4410  -26.1260 N.ar   15  G15        -0.2693
    317   C8      -11.9560  -12.7290  -26.3390 C.ar   15  G15         0.1817
    318   N7      -11.1500  -11.9940  -25.6210 N.ar   15  G15        -0.2173
    319   C5      -11.9960  -11.1480  -24.9160 C.ar   15  G15         0.1748
    320   C6      -11.7010  -10.1260  -23.9790 C.ar   15  G15         0.3023
    321   O6      -10.5960   -9.7480  -23.5750 O.2    15  G15        -0.2633
    322   N.1     -12.8580   -9.5160  -23.5050 N.ar   15  G15        -0.1709
    323   C.2     -14.1360   -9.8500  -23.8770 C.ar   15  G15         0.2606
    324   N.2     -15.1230   -9.1390  -23.3150 N.pl3  15  G15        -0.0859
    325   N.3     -14.4250  -10.7990  -24.7510 N.ar   15  G15        -0.1918
    326   C4      -13.3150  -11.4050  -25.2240 C.ar   15  G15         0.1723
    327    P.3    -14.3660  -10.2880  -30.8410 P.3    16  G16         0.2141
    328  OP1      -15.1270  -10.0170  -32.0840 O.2    16  G16        -0.5172
    329  OP2      -12.8910  -10.2580  -30.8940 O.3    16  G16        -0.4373
    330  O5'      -14.8560   -9.2590  -29.7310 O.3    16  G16        -0.3114
    331  C5'      -16.2630   -9.0390  -29.4950 C.3    16  G16         0.1812
    332  C4'      -16.4630   -8.0260  -28.3920 C.3    16  G16         0.1773
    333  O4'      -15.8480   -8.5070  -27.1660 O.3    16  G16        -0.3307
    334  C3'      -15.7970   -6.6760  -28.5750 C.3    16  G16         0.1860
    335  O3'      -16.4330   -5.8180  -29.5060 O.3    16  G16        -0.3112
    336  C2'      -15.8160   -6.1430  -27.1520 C.3    16  G16         0.2309
    337  O2'      -17.0870   -5.7240  -26.7130 O.3    16  G16        -0.2156
    338  C1'      -15.4300   -7.3990  -26.3760 C.3    16  G16         0.2408
    339   N9      -13.9890   -7.4930  -26.1690 N.ar   16  G16        -0.2693
    340   C8      -13.1120   -8.3380  -26.8070 C.ar   16  G16         0.1817
    341   N7      -11.8750   -8.1810  -26.4200 N.ar   16  G16        -0.2173
    342   C5      -11.9360   -7.1620  -25.4790 C.ar   16  G16         0.1748
    343   C6      -10.9060   -6.5520  -24.7160 C.ar   16  G16         0.3023
    344   O6       -9.6940   -6.7950  -24.7250 O.2    16  G16        -0.2633
    345   N.1     -11.4080   -5.5660  -23.8730 N.ar   16  G16        -0.1709
    346   C.2     -12.7300   -5.2000  -23.7860 C.ar   16  G16         0.2606
    347   N.2     -13.0170   -4.2180  -22.9180 N.pl3  16  G16        -0.0859
    348   N.3     -13.7000   -5.7560  -24.4970 N.ar   16  G16        -0.1918
    349   C4      -13.2350   -6.7280  -25.3100 C.ar   16  G16         0.1723
    350    P.3    -15.4160   -4.9000  -30.3280 P.3    17  G17         0.2141
    351  OP1      -16.1740   -4.1590  -31.3880 O.2    17  G17        -0.5172
    352  OP2      -14.2970   -5.8200  -30.6910 O.3    17  G17        -0.4373
    353  O5'      -14.8800   -3.8690  -29.2350 O.3    17  G17        -0.3114
    354  C5'      -15.6080   -2.6610  -28.9590 C.3    17  G17         0.1812
    355  C4'      -15.1030   -1.9980  -27.7030 C.3    17  G17         0.1773
    356  O4'      -14.5640   -2.9920  -26.7920 O.3    17  G17        -0.3307
    357  C3'      -13.9420   -1.0340  -27.8730 C.3    17  G17         0.1860
    358  O3'      -14.2950    0.2410  -28.3880 O.3    17  G17        -0.3112
    359  C2'      -13.4320   -0.9450  -26.4450 C.3    17  G17         0.2309
    360  O2'      -14.2590   -0.1640  -25.6130 O.3    17  G17        -0.2156
    361  C1'      -13.5060   -2.4130  -26.0270 C.3    17  G17         0.2408
    362   N9      -12.2560   -3.1120  -26.3250 N.ar   17  G17        -0.2693
    363   C8      -12.0730   -4.1890  -27.1590 C.ar   17  G17         0.1817
    364   N7      -10.8270   -4.5720  -27.2350 N.ar   17  G17        -0.2173
    365   C5      -10.1430   -3.6780  -26.4240 C.ar   17  G17         0.1748
    366   C6       -8.7570   -3.5900  -26.1110 C.ar   17  G17         0.3023
    367   O6       -7.8260   -4.3070  -26.5040 O.2    17  G17        -0.2633
    368   N.1      -8.4980   -2.5330  -25.2450 N.ar   17  G17        -0.1709
    369   C.2      -9.4410   -1.6760  -24.7390 C.ar   17  G17         0.2606
    370   N.2      -8.9860   -0.7180  -23.9210 N.pl3  17  G17        -0.0859
    371   N.3     -10.7340   -1.7550  -25.0090 N.ar   17  G17        -0.1918
    372   C4      -11.0110   -2.7700  -25.8560 C.ar   17  G17         0.1723
    373    P.3    -13.6350    0.7800  -29.7530 P.3    18  G18         0.2141
    374  OP1      -14.5870    1.7230  -30.3920 O.3    18  G18        -0.4373
    375  OP2      -13.0670   -0.3430  -30.5510 O.2    18  G18        -0.5172
    376  O5'      -12.5060    1.7620  -29.2190 O.3    18  G18        -0.3114
    377  C5'      -12.2660    1.9170  -27.8140 C.3    18  G18         0.1812
    378  C4'      -10.7880    1.7910  -27.5870 C.3    18  G18         0.1773
    379  O4'      -10.4380    0.4040  -27.3670 O.3    18  G18        -0.3307
    380  C3'       -9.9520    2.1570  -28.8000 C.3    18  G18         0.1860
    381  O3'      -10.0970    3.5710  -28.9840 O.3    18  G18        -0.3112
    382  C2'       -8.6190    1.4700  -28.4770 C.3    18  G18         0.2309
    383  O2'       -7.7030    2.1890  -27.6680 O.3    18  G18        -0.2156
    384  C1'       -9.0910    0.1930  -27.7630 C.3    18  G18         0.2408
    385   N9       -9.0200   -1.0090  -28.5980 N.ar   18  G18        -0.2693
    386   C8       -9.9990   -1.5120  -29.4200 C.ar   18  G18         0.1817
    387   N7       -9.6280   -2.5880  -30.0610 N.ar   18  G18        -0.2173
    388   C5       -8.3200   -2.8000  -29.6490 C.ar   18  G18         0.1748
    389   C6       -7.3930   -3.8130  -30.0120 C.ar   18  G18         0.3023
    390   O6       -7.5480   -4.7550  -30.7970 O.2    18  G18        -0.2633
    391   N.1      -6.1740   -3.6470  -29.3640 N.ar   18  G18        -0.1709
    392   C.2      -5.8820   -2.6460  -28.4740 C.ar   18  G18         0.2606
    393   N.2      -4.6470   -2.6620  -27.9500 N.pl3  18  G18        -0.0859
    394   N.3      -6.7350   -1.6960  -28.1270 N.ar   18  G18        -0.1918
    395   C4       -7.9280   -1.8350  -28.7460 C.ar   18  G18         0.1723
    396    P.3     -9.3140    4.5630  -29.9660 P.3    19  G19         0.2141
    397  OP1       -9.8510    5.8960  -29.5910 O.3    19  G19        -0.4373
    398  OP2       -9.3340    4.1220  -31.3940 O.2    19  G19        -0.5172
    399  O5'       -7.8650    4.4390  -29.3070 O.3    19  G19        -0.3114
    400  C5'       -6.7470    5.2220  -29.7560 C.3    19  G19         0.1812
    401  C4'       -5.7020    4.3460  -30.4130 C.3    19  G19         0.1773
    402  O4'       -6.1210    2.9490  -30.4220 O.3    19  G19        -0.3307
    403  C3'       -5.3990    4.7020  -31.8670 C.3    19  G19         0.1860
    404  O3'       -4.0040    4.5890  -32.0800 O.3    19  G19        -0.3112
    405  C2'       -6.0960    3.5900  -32.6410 C.3    19  G19         0.2309
    406  O2'       -5.5820    3.2650  -33.9180 O.3    19  G19        -0.2156
    407  C1'       -5.8790    2.4120  -31.7030 C.3    19  G19         0.2408
    408   N9       -6.8050    1.3170  -31.9770 N.ar   19  G19        -0.2693
    409   C8       -8.1370    1.4120  -32.3010 C.ar   19  G19         0.1817
    410   N7       -8.6810    0.2580  -32.5800 N.ar   19  G19        -0.2173
    411   C5       -7.6390   -0.6490  -32.4600 C.ar   19  G19         0.1748
    412   C6       -7.6190   -2.0580  -32.6360 C.ar   19  G19         0.3023
    413   O6       -8.5520   -2.8130  -32.9400 O.2    19  G19        -0.2633
    414   N.1      -6.3550   -2.5840  -32.3920 N.ar   19  G19        -0.1709
    415   C.2      -5.2480   -1.8520  -32.0440 C.ar   19  G19         0.2606
    416   N.2      -4.1100   -2.5420  -31.8740 N.pl3  19  G19        -0.0859
    417   N.3      -5.2490   -0.5390  -31.8890 N.ar   19  G19        -0.1918
    418   C4       -6.4690   -0.0070  -32.1090 C.ar   19  G19         0.1723
    419    P.3     -3.1190    5.8940  -32.1670 P.3    20  A20         0.2141
    420  OP1       -3.4820    6.7850  -31.0350 O.3    20  A20        -0.4373
    421  OP2       -3.2280    6.3700  -33.5620 O.2    20  A20        -0.5172
    422  O5'       -1.6900    5.2510  -31.9070 O.3    20  A20        -0.3114
    423  C5'       -1.3200    4.8000  -30.5950 C.3    20  A20         0.1812
    424  C4'        0.0160    4.1070  -30.6580 C.3    20  A20         0.1773
    425  O4'       -0.2100    2.6800  -30.8280 O.3    20  A20        -0.3307
    426  C3'        0.9120    4.5120  -31.8300 C.3    20  A20         0.1860
    427  O3'        2.2960    4.3180  -31.5440 O.3    20  A20        -0.3112
    428  C2'        0.5150    3.5040  -32.8950 C.3    20  A20         0.2309
    429  O2'        1.5280    3.3580  -33.8550 O.3    20  A20        -0.2156
    430  C1'        0.3800    2.2480  -32.0430 C.3    20  A20         0.2408
    431   N9       -0.4540    1.1950  -32.6240 N.ar   20  A20        -0.2693
    432   C8       -1.7660    1.2710  -33.0260 C.ar   20  A20         0.1816
    433   N7       -2.2330    0.1510  -33.5190 N.ar   20  A20        -0.2193
    434   C5       -1.1640   -0.7300  -33.4190 C.ar   20  A20         0.1518
    435   C6       -1.0180   -2.0840  -33.7640 C.ar   20  A20         0.1919
    436   N6       -1.9960   -2.8240  -34.2930 N.pl3  20  A20        -0.1054
    437   N.1       0.1830   -2.6620  -33.5440 N.ar   20  A20        -0.2040
    438   C.2       1.1630   -1.9220  -33.0070 C.ar   20  A20         0.2016
    439   N.3       1.1490   -0.6420  -32.6450 N.ar   20  A20        -0.2048
    440   C4       -0.0600   -0.0980  -32.8730 C.ar   20  A20         0.1692
    441    P.3      3.1820    5.4220  -30.7980 P.3    21  G21         0.2141
    442  OP1        2.6040    6.7970  -30.9720 O.3    21  G21        -0.4373
    443  OP2        4.5910    5.1510  -31.1970 O.2    21  G21        -0.5172
    444  O5'        3.0390    4.9230  -29.2950 O.3    21  G21        -0.3114
    445  C5'        3.9860    3.9840  -28.7610 C.3    21  G21         0.1812
    446  C4'        3.3010    2.6930  -28.3910 C.3    21  G21         0.1773
    447  O4'        2.9380    1.9720  -29.6020 O.3    21  G21        -0.3307
    448  C3'        4.1620    1.7190  -27.6070 C.3    21  G21         0.1860
    449  O3'        4.2200    1.9970  -26.2150 O.3    21  G21        -0.3112
    450  C2'        3.5130    0.3860  -27.9510 C.3    21  G21         0.2309
    451  O2'        2.3390    0.0800  -27.2330 O.3    21  G21        -0.2156
    452  C1'        3.1920    0.5890  -29.4310 C.3    21  G21         0.2408
    453   N9        4.2980    0.1980  -30.3050 N.ar   21  G21        -0.2693
    454   C8        5.1320    1.0270  -31.0140 C.ar   21  G21         0.1817
    455   N7        6.0410    0.3820  -31.6900 N.ar   21  G21        -0.2173
    456   C5        5.7980   -0.9560  -31.4050 C.ar   21  G21         0.1748
    457   C6        6.4630   -2.1290  -31.8540 C.ar   21  G21         0.3023
    458   O6        7.4300   -2.2240  -32.6180 O.2    21  G21        -0.2633
    459   N.1       5.8920   -3.2760  -31.3150 N.ar   21  G21        -0.1709
    460   C.2       4.8170   -3.2980  -30.4610 C.ar   21  G21         0.2606
    461   N.2       4.4050   -4.5120  -30.0510 N.pl3  21  G21        -0.0859
    462   N.3       4.1890   -2.2120  -30.0370 N.ar   21  G21        -0.1918
    463   C4        4.7310   -1.0850  -30.5440 C.ar   21  G21         0.1723
    464    P.3      5.4880    1.5150  -25.3410 P.3    22  C22         0.2141
    465  OP1        5.2330    1.7550  -23.8970 O.3    22  C22        -0.4373
    466  OP2        6.7710    1.9930  -25.9300 O.2    22  C22        -0.5172
    467  O5'        5.4140   -0.0610  -25.5160 O.3    22  C22        -0.3114
    468  C5'        4.4170   -0.8330  -24.8480 C.3    22  C22         0.1812
    469  C4'        4.6700   -2.2970  -25.0910 C.3    22  C22         0.1773
    470  O4'        4.6470   -2.5910  -26.5210 O.3    22  C22        -0.3307
    471  C3'        6.0230   -2.8310  -24.6480 C.3    22  C22         0.1860
    472  O3'        6.1170   -3.0490  -23.2460 O.3    22  C22        -0.3112
    473  C2'        6.0580   -4.1310  -25.4300 C.3    22  C22         0.2309
    474  O2'        5.1210   -4.9780  -24.8000 O.3    22  C22        -0.2156
    475  C1'        5.5530   -3.6530  -26.7970 C.3    22  C22         0.2420
    476   N.1       6.6370   -3.1440  -27.6740 N.ar   22  C22        -0.2535
    477   C.2       7.4190   -4.0650  -28.3820 C.ar   22  C22         0.3532
    478   O.2       7.1670   -5.2750  -28.2720 O.2    22  C22        -0.2443
    479   N.3       8.4280   -3.6130  -29.1650 N.ar   22  C22        -0.1739
    480   C4        8.6680   -2.3040  -29.2550 C.ar   22  C22         0.1759
    481   N.4       9.6690   -1.9030  -30.0400 N.pl3  22  C22        -0.1070
    482   C5        7.8890   -1.3450  -28.5420 C.ar   22  C22         0.0566
    483   C6        6.8990   -1.8060  -27.7650 C.ar   22  C22         0.0850
    484    P.3      7.5310   -3.0050  -22.4840 P.3    23  G23         0.2141
    485  OP1        7.2780   -3.0890  -21.0200 O.3    23  G23        -0.4373
    486  OP2        8.4370   -1.9450  -22.9990 O.2    23  G23        -0.5172
    487  O5'        8.1740   -4.3940  -22.9260 O.3    23  G23        -0.3114
    488  C5'        7.7540   -5.6330  -22.3420 C.3    23  G23         0.1812
    489  C4'        8.4320   -6.7660  -23.0560 C.3    23  G23         0.1773
    490  O4'        8.4020   -6.5330  -24.4870 O.3    23  G23        -0.3307
    491  C3'        9.9220   -6.9300  -22.8140 C.3    23  G23         0.1860
    492  O3'       10.2890   -7.4810  -21.5510 O.3    23  G23        -0.3112
    493  C2'       10.2890   -7.8630  -23.9580 C.3    23  G23         0.2309
    494  O2'        9.8580   -9.1660  -23.6510 O.3    23  G23        -0.2156
    495  C1'        9.4470   -7.2810  -25.0960 C.3    23  G23         0.2408
    496   N9       10.2460   -6.3830  -25.9160 N.ar   23  G23        -0.2693
    497   C8       10.2440   -5.0100  -25.8810 C.ar   23  G23         0.1817
    498   N7       11.1280   -4.4760  -26.6790 N.ar   23  G23        -0.2173
    499   C5       11.7530   -5.5620  -27.2760 C.ar   23  G23         0.1748
    500   C6       12.8040   -5.6090  -28.2280 C.ar   23  G23         0.3023
    501   O6       13.3910   -4.6700  -28.7730 O.2    23  G23        -0.2633
    502   N.1      13.1410   -6.9200  -28.5540 N.ar   23  G23        -0.1709
    503   C.2      12.5610   -8.0410  -28.0170 C.ar   23  G23         0.2606
    504   N.2      13.0310   -9.2140  -28.4540 N.pl3  23  G23        -0.0859
    505   N.3      11.5880   -8.0120  -27.1190 N.ar   23  G23        -0.1918
    506   C4       11.2320   -6.7470  -26.8010 C.ar   23  G23         0.1723
    507    P.3     11.4440   -6.8060  -20.6600 P.3    24  A24         0.2141
    508  OP1       12.6720   -6.7300  -21.5030 O.2    24  A24        -0.5172
    509  OP2       11.5060   -7.4520  -19.3150 O.3    24  A24        -0.4373
    510  O5'       10.7570   -5.3890  -20.3990 O.3    24  A24        -0.3114
    511  C5'       11.4130   -4.1680  -20.7260 C.3    24  A24         0.1812
    512  C4'       11.3950   -3.2030  -19.5670 C.3    24  A24         0.1773
    513  O4'       11.5430   -3.9110  -18.3110 O.3    24  A24        -0.3307
    514  C3'       12.5580   -2.2220  -19.6190 C.3    24  A24         0.1860
    515  O3'       12.2240   -1.1440  -20.4830 O.3    24  A24        -0.3112
    516  C2'       12.8350   -1.9220  -18.1490 C.3    24  A24         0.2309
    517  O2'       12.0780   -0.8740  -17.5970 O.3    24  A24        -0.2156
    518  C1'       12.5100   -3.2620  -17.4920 C.3    24  A24         0.2408
    519   N9       13.6750   -4.1450  -17.3340 N.ar   24  A24        -0.2693
    520   C8       13.8020   -5.4560  -17.7280 C.ar   24  A24         0.1816
    521   N7       14.9670   -5.9840  -17.4420 N.ar   24  A24        -0.2193
    522   C5       15.6580   -4.9520  -16.8240 C.ar   24  A24         0.1518
    523   C6       16.9580   -4.8680  -16.2950 C.ar   24  A24         0.1919
    524   N6       17.8240   -5.8810  -16.2960 N.pl3  24  A24        -0.1054
    525   N.1      17.3450   -3.6880  -15.7600 N.ar   24  A24        -0.2040
    526   C.2      16.4780   -2.6680  -15.7650 C.ar   24  A24         0.2016
    527   N.3      15.2310   -2.6240  -16.2320 N.ar   24  A24        -0.2048
    528   C4       14.8770   -3.8120  -16.7540 C.ar   24  A24         0.1692
    529    P.3     12.9710   -1.1580  -21.9010 P.3    25  C25         0.2141
    530  OP1       12.3070   -0.1060  -22.7110 O.2    25  C25        -0.5172
    531  OP2       13.1490   -2.5170  -22.4560 O.3    25  C25        -0.4373
    532  O5'       14.4330   -0.6940  -21.4740 O.3    25  C25        -0.3114
    533  C5'       14.6580    0.6440  -20.9870 C.3    25  C25         0.1812
    534  C4'       15.9190    0.6820  -20.1690 C.3    25  C25         0.1773
    535  O4'       15.8980   -0.4130  -19.2180 O.3    25  C25        -0.3307
    536  C3'       17.2060    0.4480  -20.9410 C.3    25  C25         0.1860
    537  O3'       17.6460    1.6060  -21.6320 O.3    25  C25        -0.3112
    538  C2'       18.1530    0.0150  -19.8340 C.3    25  C25         0.2309
    539  O2'       18.5900    1.1410  -19.1100 O.3    25  C25        -0.2156
    540  C1'       17.2280   -0.8420  -18.9650 C.3    25  C25         0.2420
    541   N.1      17.3170   -2.2860  -19.2440 N.ar   25  C25        -0.2535
    542   C.2      18.5260   -2.9470  -18.9940 C.ar   25  C25         0.3532
    543   O.2      19.4850   -2.2950  -18.5530 O.2    25  C25        -0.2443
    544   N.3      18.6170   -4.2760  -19.2390 N.ar   25  C25        -0.1739
    545   C4       17.5620   -4.9400  -19.7180 C.ar   25  C25         0.1759
    546   N.4      17.6970   -6.2480  -19.9460 N.pl3  25  C25        -0.1070
    547   C5       16.3180   -4.2910  -19.9790 C.ar   25  C25         0.0566
    548   C6       16.2420   -2.9760  -19.7320 C.ar   25  C25         0.0850
    549    P.3     17.5300    1.6190  -23.2370 P.3    26  U26         0.2141
    550  OP1       17.3610    3.0600  -23.5510 O.3    26  U26        -0.4373
    551  OP2       16.5740    0.6330  -23.8090 O.2    26  U26        -0.5172
    552  O5'       18.9810    1.1100  -23.6410 O.3    26  U26        -0.3114
    553  C5'       20.1210    1.8780  -23.2370 C.3    26  U26         0.1812
    554  C4'       21.3460    1.0130  -23.1890 C.3    26  U26         0.1773
    555  O4'       21.1740   -0.0480  -22.2220 O.3    26  U26        -0.3307
    556  C3'       21.6580    0.2310  -24.4460 C.3    26  U26         0.1860
    557  O3'       22.1550    1.0350  -25.5050 O.3    26  U26        -0.3112
    558  C2'       22.6660   -0.7740  -23.9130 C.3    26  U26         0.2309
    559  O2'       23.9460   -0.1950  -23.7600 O.3    26  U26        -0.2156
    560  C1'       22.0500   -1.1160  -22.5530 C.3    26  U26         0.2420
    561   N.1      21.2860   -2.3740  -22.5650 N.ar   26  U26        -0.2534
    562   C.2      22.0010   -3.5470  -22.7230 C.ar   26  U26         0.3546
    563   O.2      23.2130   -3.5730  -22.8300 O.2    26  U26        -0.2443
    564   N.3      21.2420   -4.6890  -22.7440 N.ar   26  U26        -0.1530
    565   C4       19.8740   -4.7850  -22.6170 C.ar   26  U26         0.2846
    566   O4       19.3430   -5.8950  -22.6340 O.2    26  U26        -0.2650
    567   C5       19.2000   -3.5300  -22.4590 C.ar   26  U26         0.0814
    568   C6       19.9110   -2.3940  -22.4450 C.ar   26  U26         0.0870
    569    P.3     21.4320    0.8510  -26.9190 P.3    27  G27         0.2141
    570  OP1       21.5680    2.1150  -27.6830 O.2    27  G27        -0.5172
    571  OP2       20.0700    0.3010  -26.6610 O.3    27  G27        -0.4373
    572  O5'       22.3290   -0.2630  -27.6250 O.3    27  G27        -0.3114
    573  C5'       23.7620   -0.2840  -27.4570 C.3    27  G27         0.1812
    574  C4'       24.3320   -1.6100  -27.9020 C.3    27  G27         0.1773
    575  O4'       24.2790   -2.5620  -26.7970 O.3    27  G27        -0.3307
    576  C3'       23.5960   -2.3100  -29.0370 C.3    27  G27         0.1860
    577  O3'       23.8880   -1.8060  -30.3370 O.3    27  G27        -0.3112
    578  C2'       23.9920   -3.7650  -28.8060 C.3    27  G27         0.2309
    579  O2'       25.2810   -4.1220  -29.2690 O.3    27  G27        -0.2156
    580  C1'       23.9040   -3.8440  -27.2820 C.3    27  G27         0.2408
    581   N9       22.5460   -4.1330  -26.8310 N.ar   27  G27        -0.2693
    582   C8       21.5160   -3.2360  -26.6630 C.ar   27  G27         0.1817
    583   N7       20.4040   -3.7990  -26.2740 N.ar   27  G27        -0.2173
    584   C5       20.7140   -5.1500  -26.1900 C.ar   27  G27         0.1748
    585   C6       19.9060   -6.2600  -25.8200 C.ar   27  G27         0.3023
    586   O6       18.7150   -6.2710  -25.4900 O.2    27  G27        -0.2633
    587   N.1      20.6200   -7.4520  -25.8750 N.ar   27  G27        -0.1709
    588   C.2      21.9390   -7.5670  -26.2400 C.ar   27  G27         0.2606
    589   N.2      22.4430   -8.8050  -26.2370 N.pl3  27  G27        -0.0859
    590   N.3      22.7020   -6.5440  -26.5910 N.ar   27  G27        -0.1918
    591   C4       22.0290   -5.3740  -26.5430 C.ar   27  G27         0.1723
    592    P.3     22.8620   -2.1400  -31.5460 P.3    28  G28         0.2141
    593  OP1       23.4200   -1.4800  -32.7470 O.2    28  G28        -0.5172
    594  OP2       21.4150   -1.9450  -31.2280 O.3    28  G28        -0.4373
    595  O5'       23.1370   -3.7080  -31.6060 O.3    28  G28        -0.3114
    596  C5'       22.2830   -4.5490  -32.3860 C.3    28  G28         0.1812
    597  C4'       22.3870   -5.9870  -31.9580 C.3    28  G28         0.1773
    598  O4'       22.3420   -6.0960  -30.5100 O.3    28  G28        -0.3307
    599  C3'       21.2190   -6.8180  -32.4460 C.3    28  G28         0.1860
    600  O3'       21.5050   -7.2240  -33.7690 O.3    28  G28        -0.3112
    601  C2'       21.1400   -7.9320  -31.4110 C.3    28  G28         0.2309
    602  O2'       21.9320   -9.0720  -31.6600 O.3    28  G28        -0.2156
    603  C1'       21.5050   -7.1830  -30.1310 C.3    28  G28         0.2408
    604   N9       20.2990   -6.6450  -29.5150 N.ar   28  G28        -0.2693
    605   C8       19.8990   -5.3300  -29.4930 C.ar   28  G28         0.1817
    606   N7       18.7470   -5.1540  -28.9050 N.ar   28  G28        -0.2173
    607   C5       18.3530   -6.4320  -28.5330 C.ar   28  G28         0.1748
    608   C6       17.1820   -6.8720  -27.8710 C.ar   28  G28         0.3023
    609   O6       16.2260   -6.2000  -27.4720 O.2    28  G28        -0.2633
    610   N.1      17.1810   -8.2510  -27.6970 N.ar   28  G28        -0.1709
    611   C.2      18.1730   -9.1000  -28.1170 C.ar   28  G28         0.2606
    612   N.2      17.9890  -10.4000  -27.8500 N.pl3  28  G28        -0.0859
    613   N.3      19.2700   -8.7030  -28.7380 N.ar   28  G28        -0.1918
    614   C4       19.2930   -7.3650  -28.9140 C.ar   28  G28         0.1723
    615    P.3     20.4150   -6.8380  -34.8590 P.3    29  C29         0.2141
    616  OP1       21.0460   -7.1650  -36.1720 O.2    29  C29        -0.5172
    617  OP2       19.8370   -5.4850  -34.6050 O.3    29  C29        -0.4373
    618  O5'       19.3670   -7.9850  -34.5230 O.3    29  C29        -0.3114
    619  C5'       19.8590   -9.3270  -34.3460 C.3    29  C29         0.1812
    620  C4'       18.8630  -10.1480  -33.5730 C.3    29  C29         0.1773
    621  O4'       18.7660   -9.6670  -32.2040 O.3    29  C29        -0.3307
    622  C3'       17.4400  -10.0610  -34.0840 C.3    29  C29         0.1860
    623  O3'       17.3160  -10.8920  -35.2250 O.3    29  C29        -0.3112
    624  C2'       16.6600  -10.5120  -32.8600 C.3    29  C29         0.2309
    625  O2'       16.8010  -11.9040  -32.7180 O.3    29  C29        -0.2156
    626  C1'       17.4280   -9.8000  -31.7470 C.3    29  C29         0.2420
    627   N.1      16.9030   -8.4600  -31.4340 N.ar   29  C29        -0.2535
    628   C.2      15.7690   -8.3570  -30.6260 C.ar   29  C29         0.3532
    629   O.2      15.2390   -9.3950  -30.2040 O.2    29  C29        -0.2443
    630   N.3      15.2790   -7.1310  -30.3270 N.ar   29  C29        -0.1739
    631   C4       15.8740   -6.0390  -30.8100 C.ar   29  C29         0.1759
    632   N.4      15.3530   -4.8540  -30.4970 N.pl3  29  C29        -0.1070
    633   C5       17.0330   -6.1150  -31.6330 C.ar   29  C29         0.0566
    634   C6       17.5100   -7.3340  -31.9170 C.ar   29  C29         0.0850
    635    P.3     15.9510  -11.0060  -36.0380 P.3    30  G30         0.2141
    636  OP1       16.0340  -12.3100  -36.7800 O.2    30  G30        -0.5172
    637  OP2       15.7150   -9.7240  -36.7600 O.3    30  G30        -0.4373
    638  O5'       14.8410  -11.1820  -34.9110 O.3    30  G30        -0.3114
    639  C5'       13.5070  -10.7000  -35.1010 C.3    30  G30         0.1812
    640  C4'       12.6680  -11.1140  -33.9220 C.3    30  G30         0.1773
    641  O4'       13.2030  -10.5020  -32.7150 O.3    30  G30        -0.3307
    642  C3'       11.2140  -10.6830  -33.9730 C.3    30  G30         0.1860
    643  O3'       10.4640  -11.6560  -34.6850 O.3    30  G30        -0.3112
    644  C2'       10.8610  -10.5870  -32.4930 C.3    30  G30         0.2309
    645  O2'       10.6720  -11.8360  -31.8620 O.3    30  G30        -0.2156
    646  C1'       12.1440   -9.9940  -31.9240 C.3    30  G30         0.2408
    647   N9       12.2080   -8.5340  -31.9310 N.ar   30  G30        -0.2693
    648   C8       13.1190   -7.7410  -32.5880 C.ar   30  G30         0.1817
    649   N7       12.9430   -6.4660  -32.3690 N.ar   30  G30        -0.2173
    650   C5       11.8580   -6.4140  -31.5050 C.ar   30  G30         0.1748
    651   C6       11.1960   -5.2980  -30.9200 C.ar   30  G30         0.3023
    652   O6       11.4550   -4.0940  -31.0420 O.2    30  G30        -0.2633
    653   N.1      10.1480   -5.7010  -30.0980 N.ar   30  G30        -0.1709
    654   C.2       9.7780   -7.0040  -29.8690 C.ar   30  G30         0.2606
    655   N.2       8.7350   -7.1900  -29.0480 N.pl3  30  G30        -0.0859
    656   N.3      10.3730   -8.0480  -30.4200 N.ar   30  G30        -0.1918
    657   C4       11.4000   -7.6830  -31.2170 C.ar   30  G30         0.1723
    658    P.3      9.1490  -11.2150  -35.4700 P.3    31  C31         0.2141
    659  OP1        8.5540  -12.3890  -36.1550 O.3    31  C31        -0.4373
    660  OP2        9.3860   -9.9570  -36.2350 O.2    31  C31        -0.5172
    661  O5'        8.1530  -10.8510  -34.2830 O.3    31  C31        -0.3114
    662  C5'        7.5930  -11.8550  -33.4300 C.3    31  C31         0.1812
    663  C4'        6.7140  -11.1870  -32.4060 C.3    31  C31         0.1773
    664  O4'        7.4880  -10.2350  -31.6280 O.3    31  C31        -0.3307
    665  C3'        5.5710  -10.3630  -32.9630 C.3    31  C31         0.1860
    666  O3'        4.4500  -11.2090  -33.1300 O.3    31  C31        -0.3112
    667  C2'        5.2680   -9.4310  -31.8040 C.3    31  C31         0.2309
    668  O2'        4.5080  -10.1040  -30.8190 O.3    31  C31        -0.2156
    669  C1'        6.6740   -9.1310  -31.2820 C.3    31  C31         0.2420
    670   N.1       7.2800   -7.9300  -31.8660 N.ar   31  C31        -0.2535
    671   C.2       6.7400   -6.6710  -31.5720 C.ar   31  C31         0.3532
    672   O.2       5.7410   -6.6000  -30.8410 O.2    31  C31        -0.2443
    673   N.3       7.3150   -5.5660  -32.1020 N.ar   31  C31        -0.1739
    674   C4        8.3790   -5.6850  -32.8990 C.ar   31  C31         0.1759
    675   N.4       8.9040   -4.5740  -33.4090 N.pl3  31  C31        -0.1070
    676   C5        8.9480   -6.9510  -33.2130 C.ar   31  C31         0.0566
    677   C6        8.3740   -8.0370  -32.6790 C.ar   31  C31         0.0850
    678    P.3      3.6900  -11.1560  -34.5170 P.3    32  G32         0.2141
    679  OP1        4.7630  -11.1710  -35.5410 O.2    32  G32        -0.5172
    680  OP2        2.6220  -12.2030  -34.5340 O.3    32  G32        -0.4373
    681  O5'        3.0390   -9.7020  -34.4310 O.3    32  G32        -0.3114
    682  C5'        1.9110   -9.4890  -33.5620 C.3    32  G32         0.1812
    683  C4'        1.5960   -8.0220  -33.4450 C.3    32  G32         0.1773
    684  O4'        2.7440   -7.3220  -32.9060 O.3    32  G32        -0.3307
    685  C3'        1.3500   -7.2860  -34.7460 C.3    32  G32         0.1860
    686  O3'        0.0990   -7.5480  -35.3630 O.3    32  G32        -0.3112
    687  C2'        1.5310   -5.8440  -34.3040 C.3    32  G32         0.2309
    688  O2'        0.3720   -5.3940  -33.6350 O.3    32  G32        -0.2156
    689  C1'        2.7370   -5.9770  -33.3660 C.3    32  G32         0.2408
    690   N9        4.0210   -5.7160  -34.0140 N.ar   32  G32        -0.2693
    691   C8        4.9380   -6.6560  -34.4160 C.ar   32  G32         0.1817
    692   N7        5.9910   -6.1360  -34.9860 N.ar   32  G32        -0.2173
    693   C5        5.7550   -4.7680  -34.9640 C.ar   32  G32         0.1748
    694   C6        6.5540   -3.6880  -35.4270 C.ar   32  G32         0.3023
    695   O6        7.6610   -3.7280  -35.9740 O.2    32  G32        -0.2633
    696   N.1       5.9380   -2.4630  -35.2010 N.ar   32  G32        -0.1709
    697   C.2       4.7140   -2.2930  -34.6060 C.ar   32  G32         0.2606
    698   N.2       4.2930   -1.0270  -34.4780 N.pl3  32  G32        -0.0859
    699   N.3       3.9630   -3.2890  -34.1580 N.ar   32  G32        -0.1918
    700   C4        4.5390   -4.4910  -34.3720 C.ar   32  G32         0.1723
    701    P.3      0.1770   -8.0030  -36.9110 P.3    33  A33         0.2141
    702  OP1       -0.1120   -9.4600  -36.9970 O.3    33  A33        -0.4373
    703  OP2        1.4110   -7.4440  -37.5270 O.2    33  A33        -0.5172
    704  O5'       -1.0420   -7.2450  -37.5980 O.3    33  A33        -0.3114
    705  C5'       -1.3380   -5.8790  -37.2740 C.3    33  A33         0.1812
    706  C4'       -2.3160   -5.3350  -38.2710 C.3    33  A33         0.1773
    707  O4'       -2.7780   -4.0500  -37.8020 O.3    33  A33        -0.3307
    708  C3'       -1.7350   -5.1330  -39.6690 C.3    33  A33         0.1860
    709  O3'       -2.3780   -5.7780  -40.7780 O.3    33  A33        -0.3112
    710  C2'       -1.5880   -3.6200  -39.8040 C.3    33  A33         0.2309
    711  O2'       -1.8820   -3.1590  -41.0970 O.3    33  A33        -0.2156
    712  C1'       -2.6230   -3.0820  -38.8150 C.3    33  A33         0.2408
    713   N9       -2.2130   -1.8170  -38.1850 N.ar   33  A33        -0.2693
    714   C8       -2.9670   -0.6790  -38.0400 C.ar   33  A33         0.1816
    715   N7       -2.3370    0.3020  -37.4410 N.ar   33  A33        -0.2193
    716   C5       -1.0790   -0.2200  -37.1770 C.ar   33  A33         0.1518
    717   C6        0.0630    0.3200  -36.5460 C.ar   33  A33         0.1919
    718   N6        0.1220    1.5600  -36.0530 N.pl3  33  A33        -0.1054
    719   N.1       1.1530   -0.4710  -36.4360 N.ar   33  A33        -0.2040
    720   C.2       1.0950   -1.7160  -36.9330 C.ar   33  A33         0.2016
    721   N.3       0.0800   -2.3390  -37.5340 N.ar   33  A33        -0.2048
    722   C4       -0.9880   -1.5270  -37.6280 C.ar   33  A33         0.1692
    723    P.3     -3.8930   -6.2560  -41.0090 P.3    34  A34         0.2141
    724  OP1       -4.0500   -6.4940  -42.4560 O.2    34  A34        -0.5172
    725  OP2       -4.8640   -5.3640  -40.3180 O.3    34  A34        -0.4373
    726  O5'       -4.0220   -7.6710  -40.3080 O.3    34  A34        -0.3114
    727  C5'       -5.3410   -8.1260  -39.9950 C.3    34  A34         0.1812
    728  C4'       -5.2430   -9.4090  -39.2370 C.3    34  A34         0.1773
    729  O4'       -5.0150  -10.4930  -40.1810 O.3    34  A34        -0.3307
    730  C3'       -4.0770   -9.4500  -38.2580 C.3    34  A34         0.1860
    731  O3'       -4.5790  -10.1930  -37.1500 O.3    34  A34        -0.3112
    732  C2'       -2.9910  -10.1300  -39.0870 C.3    34  A34         0.2309
    733  O2'       -1.9790  -10.7340  -38.3150 O.3    34  A34        -0.2156
    734  C1'       -3.8220  -11.1610  -39.8470 C.3    34  A34         0.2408
    735   N9       -3.2410  -11.6880  -41.0790 N.ar   34  A34        -0.2693
    736   C8       -2.4410  -11.0510  -41.9940 C.ar   34  A34         0.1816
    737   N7       -2.1040  -11.8030  -43.0160 N.ar   34  A34        -0.2193
    738   C5       -2.7370  -13.0120  -42.7640 C.ar   34  A34         0.1518
    739   C6       -2.7780  -14.2280  -43.4740 C.ar   34  A34         0.1919
    740   N6       -2.1410  -14.4350  -44.6300 N.pl3  34  A34        -0.1054
    741   N.1      -3.5060  -15.2380  -42.9490 N.ar   34  A34        -0.2040
    742   C.2      -4.1440  -15.0320  -41.7880 C.ar   34  A34         0.2016
    743   N.3      -4.1830  -13.9380  -41.0300 N.ar   34  A34        -0.2048
    744   C4       -3.4490  -12.9530  -41.5790 C.ar   34  A34         0.1692
    745    P.3     -4.6500   -9.5760  -35.6760 P.3    35  G35         0.2141
    746  OP1       -3.3450   -8.8820  -35.4710 O.2    35  G35        -0.5172
    747  OP2       -5.1190  -10.5400  -34.6580 O.3    35  G35        -0.4373
    748  O5'       -5.7400   -8.4270  -35.6420 O.3    35  G35        -0.3114
    749  C5'       -5.7530   -7.5750  -34.4750 C.3    35  G35         0.1812
    750  C4'       -4.3480   -7.2540  -33.9400 C.3    35  G35         0.1773
    751  O4'       -3.7290   -6.2440  -34.7840 O.3    35  G35        -0.3307
    752  C3'       -4.4160   -6.5020  -32.6240 C.3    35  G35         0.1860
    753  O3'       -3.1680   -6.1820  -31.9890 O.3    35  G35        -0.3112
    754  C2'       -5.0550   -5.2210  -33.1250 C.3    35  G35         0.2309
    755  O2'       -5.1660   -4.2380  -32.1180 O.3    35  G35        -0.2156
    756  C1'       -4.2160   -4.9680  -34.3900 C.3    35  G35         0.2408
    757   N9       -5.0140   -4.4270  -35.4840 N.ar   35  G35        -0.2693
    758   C8       -5.7260   -5.1330  -36.4240 C.ar   35  G35         0.1817
    759   N7       -6.3680   -4.3660  -37.2640 N.ar   35  G35        -0.2173
    760   C5       -6.0780   -3.0760  -36.8410 C.ar   35  G35         0.1748
    761   C6       -6.4910   -1.8240  -37.3640 C.ar   35  G35         0.3023
    762   O6       -7.2260   -1.5960  -38.3330 O.2    35  G35        -0.2633
    763   N.1      -5.9510   -0.7660  -36.6390 N.ar   35  G35        -0.1709
    764   C.2      -5.1360   -0.8940  -35.5400 C.ar   35  G35         0.2606
    765   N.2      -4.7370    0.2480  -34.9620 N.pl3  35  G35        -0.0859
    766   N.3      -4.7420   -2.0550  -35.0450 N.ar   35  G35        -0.1918
    767   C4       -5.2460   -3.0960  -35.7410 C.ar   35  G35         0.1723
    768    P.3     -3.0670   -6.2990  -30.3800 P.3    36  A36         0.2141
    769  OP1       -2.7570   -7.7140  -30.0780 O.2    36  A36        -0.5172
    770  OP2       -4.2210   -5.6710  -29.7180 O.3    36  A36        -0.4373
    771  O5'       -1.8030   -5.4450  -29.9240 O.3    36  A36        -0.3114
    772  C5'       -0.4740   -5.9780  -30.0670 C.3    36  A36         0.1812
    773  C4'        0.5410   -5.0980  -29.3860 C.3    36  A36         0.1773
    774  O4'        0.8650   -3.9500  -30.2280 O.3    36  A36        -0.3307
    775  C3'        0.1400   -4.4960  -28.0440 C.3    36  A36         0.1860
    776  O3'        0.4060   -5.3910  -26.9710 O.3    36  A36        -0.3112
    777  C2'        1.0500   -3.2790  -27.9960 C.3    36  A36         0.2309
    778  O2'        2.3890   -3.6700  -27.8090 O.3    36  A36        -0.2156
    779  C1'        0.9350   -2.7770  -29.4330 C.3    36  A36         0.2408
    780   N9       -0.2860   -2.0060  -29.6630 N.ar   36  A36        -0.2693
    781   C8       -1.3430   -2.3790  -30.4540 C.ar   36  A36         0.1816
    782   N7       -2.3290   -1.5190  -30.4600 N.ar   36  A36        -0.2193
    783   C5       -1.9000   -0.5130  -29.6070 C.ar   36  A36         0.1518
    784   C6       -2.4950    0.6930  -29.1920 C.ar   36  A36         0.1919
    785   N6       -3.6910    1.1090  -29.6120 N.pl3  36  A36        -0.1054
    786   N.1      -1.8030    1.4730  -28.3310 N.ar   36  A36        -0.2040
    787   C.2      -0.5860    1.0690  -27.9400 C.ar   36  A36         0.2016
    788   N.3       0.0770   -0.0450  -28.2560 N.ar   36  A36        -0.2048
    789   C4       -0.6440   -0.8020  -29.1030 C.ar   36  A36         0.1692
    790    P.3     -0.5330   -5.6600  -25.6750 P.3    37  A37         0.2141
    791  OP1        0.0940   -6.8660  -25.0720 O.3    37  A37        -0.4373
    792  OP2       -1.9910   -5.6710  -26.0170 O.2    37  A37        -0.5172
    793  O5'       -0.2450   -4.4410  -24.6920 O.3    37  A37        -0.3114
    794  C5'        1.1010   -3.9800  -24.4680 C.3    37  A37         0.1812
    795  C4'        1.0930   -2.5590  -23.9660 C.3    37  A37         0.1773
    796  O4'        0.7190   -1.6770  -25.0550 O.3    37  A37        -0.3307
    797  C3'        0.0920   -2.2390  -22.8590 C.3    37  A37         0.1860
    798  O3'        0.6280   -2.5370  -21.5800 O.3    37  A37        -0.3112
    799  C2'       -0.1050   -0.7390  -23.0290 C.3    37  A37         0.2309
    800  O2'        0.9640    0.0300  -22.5220 O.3    37  A37        -0.2156
    801  C1'       -0.0290   -0.5850  -24.5480 C.3    37  A37         0.2408
    802   N9       -1.3300   -0.5800  -25.2090 N.ar   37  A37        -0.2693
    803   C8       -1.8310   -1.5330  -26.0590 C.ar   37  A37         0.1816
    804   N7       -3.0270   -1.2540  -26.5200 N.ar   37  A37        -0.2193
    805   C5       -3.3330   -0.0320  -25.9340 C.ar   37  A37         0.1518
    806   C6       -4.4630    0.7990  -26.0170 C.ar   37  A37         0.1919
    807   N6       -5.5360    0.5190  -26.7580 N.pl3  37  A37        -0.1054
    808   N.1      -4.4450    1.9530  -25.3160 N.ar   37  A37        -0.2040
    809   C.2      -3.3660    2.2390  -24.5800 C.ar   37  A37         0.2016
    810   N.3      -2.2480    1.5340  -24.4140 N.ar   37  A37        -0.2048
    811   C4       -2.2950    0.3950  -25.1260 C.ar   37  A37         0.1692
    812    P.3     -0.2560   -3.3170  -20.4940 P.3    38  C38         0.2141
    813  OP1        0.3330   -3.2220  -19.1250 O.3    38  C38        -0.4373
    814  OP2       -0.5990   -4.6570  -21.0370 O.2    38  C38        -0.5172
    815  O5'       -1.5420   -2.3800  -20.4340 O.3    38  C38        -0.3114
    816  C5'       -1.5160   -1.1890  -19.6280 C.3    38  C38         0.1812
    817  C4'       -2.7980   -0.4080  -19.7810 C.3    38  C38         0.1773
    818  O4'       -3.0060   -0.0610  -21.1810 O.3    38  C38        -0.3307
    819  C3'       -4.0670   -1.1480  -19.3990 C.3    38  C38         0.1860
    820  O3'       -4.2820   -1.2510  -17.9990 O.3    38  C38        -0.3112
    821  C2'       -5.1290   -0.3670  -20.1670 C.3    38  C38         0.2309
    822  O2'       -5.6060    0.8180  -19.5520 O.3    38  C38        -0.2156
    823  C1'       -4.3960   -0.1000  -21.4820 C.3    38  C38         0.2420
    824   N.1      -4.6360   -1.1580  -22.4800 N.ar   38  C38        -0.2535
    825   C.2      -5.7650   -1.0540  -23.2960 C.ar   38  C38         0.3532
    826   O.2      -6.5110   -0.0700  -23.1630 O.2    38  C38        -0.2443
    827   N.3      -6.0100   -2.0220  -24.2110 N.ar   38  C38        -0.1739
    828   C4       -5.1750   -3.0550  -24.3300 C.ar   38  C38         0.1759
    829   N.4      -5.4580   -3.9820  -25.2440 N.pl3  38  C38        -0.1070
    830   C5       -4.0170   -3.1880  -23.5110 C.ar   38  C38         0.0566
    831   C6       -3.7900   -2.2280  -22.6040 C.ar   38  C38         0.0850
    832    P.3     -4.8690   -2.6760  -17.5490 P.3    39  C39         0.2141
    833  OP1       -4.3710   -2.9370  -16.1790 O.3    39  C39        -0.4373
    834  OP2       -4.6180   -3.7190  -18.5880 O.2    39  C39        -0.5172
    835  O5'       -6.4510   -2.4360  -17.5170 O.3    39  C39        -0.3114
    836  C5'       -7.0620   -1.1210  -17.5260 C.3    39  C39         0.1812
    837  C4'       -8.4970   -1.1780  -18.0170 C.3    39  C39         0.1773
    838  O4'       -8.5710   -0.9220  -19.4570 O.3    39  C39        -0.3307
    839  C3'       -9.2280   -2.5000  -17.8450 C.3    39  C39         0.1860
    840  O3'       -9.7760   -2.6340  -16.5440 O.3    39  C39        -0.3112
    841  C2'      -10.3280   -2.3630  -18.8830 C.3    39  C39         0.2309
    842  O2'      -11.2890   -1.4340  -18.4090 O.3    39  C39        -0.2156
    843  C1'       -9.5390   -1.7820  -20.0560 C.3    39  C39         0.2420
    844   N.1      -8.8290   -2.8020  -20.8670 N.ar   39  C39        -0.2535
    845   C.2      -9.5340   -3.5370  -21.8320 C.ar   39  C39         0.3532
    846   O.2     -10.7470   -3.3300  -21.9770 O.2    39  C39        -0.2443
    847   N.3      -8.8740   -4.4660  -22.5680 N.ar   39  C39        -0.1739
    848   C4       -7.5700   -4.6790  -22.3600 C.ar   39  C39         0.1759
    849   N.4      -6.9570   -5.6090  -23.0970 N.pl3  39  C39        -0.1070
    850   C5       -6.8320   -3.9390  -21.3930 C.ar   39  C39         0.0566
    851   C6       -7.4930   -3.0210  -20.6770 C.ar   39  C39         0.0850
    852    P.3     -9.8780   -4.0900  -15.8860 P.3    40  C40         0.2141
    853  OP1      -10.1620   -4.0010  -14.4250 O.3    40  C40        -0.4373
    854  OP2       -8.7700   -4.9550  -16.3800 O.2    40  C40        -0.5172
    855  O5'      -11.2380   -4.5940  -16.5320 O.3    40  C40        -0.3114
    856  C5'      -12.4170   -3.7800  -16.4730 C.3    40  C40         0.1812
    857  C4'      -13.5110   -4.4540  -17.2490 C.3    40  C40         0.1773
    858  O4'      -13.2670   -4.2890  -18.6740 O.3    40  C40        -0.3307
    859  C3'      -13.5920   -5.9620  -17.0810 C.3    40  C40         0.1860
    860  O3'      -14.1920   -6.4030  -15.8620 O.3    40  C40        -0.3112
    861  C2'      -14.3730   -6.3450  -18.3250 C.3    40  C40         0.2309
    862  O2'      -15.7130   -5.9420  -18.1370 O.3    40  C40        -0.2156
    863  C1'      -13.7070   -5.4460  -19.3680 C.3    40  C40         0.2420
    864   N.1     -12.5480   -6.0750  -20.0370 N.ar   40  C40        -0.2535
    865   C.2     -12.7810   -6.9530  -21.1030 C.ar   40  C40         0.3532
    866   O.2     -13.9480   -7.1630  -21.4620 O.2    40  C40        -0.2443
    867   N.3     -11.7290   -7.5420  -21.7180 N.ar   40  C40        -0.1739
    868   C4      -10.4860   -7.2890  -21.3020 C.ar   40  C40         0.1759
    869   N.4      -9.4810   -7.8910  -21.9380 N.pl3  40  C40        -0.1070
    870   C5      -10.2200   -6.4090  -20.2110 C.ar   40  C40         0.0566
    871   C6      -11.2700   -5.8260  -19.6160 C.ar   40  C40         0.0850
    872    P.3    -13.9790   -7.9410  -15.4420 P.3    41  C41         0.2141
    873  OP1      -14.6340   -8.1990  -14.1350 O.3    41  C41        -0.4373
    874  OP2      -12.5690   -8.3670  -15.6780 O.2    41  C41        -0.5172
    875  O5'      -14.8480   -8.5560  -16.6210 O.3    41  C41        -0.3114
    876  C5'      -15.7420   -9.6540  -16.4280 C.3    41  C41         0.1812
    877  C4'      -15.8620  -10.3930  -17.7320 C.3    41  C41         0.1773
    878  O4'      -15.0800   -9.7170  -18.7560 O.3    41  C41        -0.3307
    879  C3'      -15.2540  -11.7760  -17.7490 C.3    41  C41         0.1860
    880  O3'      -16.0370  -12.6760  -16.9820 O.3    41  C41        -0.3112
    881  C2'      -15.1510  -12.0270  -19.2470 C.3    41  C41         0.2309
    882  O2'      -16.3740  -12.3360  -19.8720 O.3    41  C41        -0.2156
    883  C1'      -14.6790  -10.6580  -19.7400 C.3    41  C41         0.2420
    884   N.1     -13.2190  -10.5920  -19.8690 N.ar   41  C41        -0.2535
    885   C.2     -12.5860  -11.4520  -20.7730 C.ar   41  C41         0.3532
    886   O.2     -13.2800  -12.2160  -21.4580 O.2    41  C41        -0.2443
    887   N.3     -11.2360  -11.4220  -20.8820 N.ar   41  C41        -0.1739
    888   C4      -10.5250  -10.5770  -20.1320 C.ar   41  C41         0.1759
    889   N.4      -9.1980  -10.5850  -20.2690 N.pl3  41  C41        -0.1070
    890   C5      -11.1440   -9.7000  -19.1920 C.ar   41  C41         0.0566
    891   C6      -12.4810   -9.7400  -19.0940 C.ar   41  C41         0.0850
    892    P.3    -15.2580  -13.5480  -15.8920 P.3    42  G42         0.2141
    893  OP1      -16.2090  -14.3800  -15.1010 O.3    42  G42        -0.4373
    894  OP2      -14.3080  -12.6480  -15.1830 O.2    42  G42        -0.5172
    895  O5'      -14.5340  -14.5530  -16.8900 O.3    42  G42        -0.3114
    896  C5'      -15.3000  -15.4830  -17.6650 C.3    42  G42         0.1812
    897  C4'      -14.4120  -16.0900  -18.7150 C.3    42  G42         0.1773
    898  O4'      -13.7460  -15.0230  -19.4280 O.3    42  G42        -0.3307
    899  C3'      -13.2510  -16.9310  -18.2080 C.3    42  G42         0.1860
    900  O3'      -13.6010  -18.2650  -17.9100 O.3    42  G42        -0.3112
    901  C2'      -12.3250  -16.9170  -19.4090 C.3    42  G42         0.2309
    902  O2'      -12.7370  -17.7280  -20.4920 O.3    42  G42        -0.2156
    903  C1'      -12.4560  -15.4620  -19.8350 C.3    42  G42         0.2408
    904   N9      -11.4480  -14.6060  -19.2220 N.ar   42  G42        -0.2693
    905   C8      -11.6420  -13.5580  -18.3540 C.ar   42  G42         0.1817
    906   N7      -10.5300  -12.9700  -18.0060 N.ar   42  G42        -0.2173
    907   C5       -9.5410  -13.6660  -18.6940 C.ar   42  G42         0.1748
    908   C6       -8.1270  -13.4840  -18.7230 C.ar   42  G42         0.3023
    909   O6       -7.4420  -12.6490  -18.1210 O.2    42  G42        -0.2633
    910   N.1      -7.5100  -14.4170  -19.5470 N.ar   42  G42        -0.1709
    911   C.2      -8.1590  -15.3860  -20.2690 C.ar   42  G42         0.2606
    912   N.2      -7.3830  -16.1880  -21.0100 N.pl3  42  G42        -0.0859
    913   N.3      -9.4690  -15.5680  -20.2520 N.ar   42  G42        -0.1918
    914   C4      -10.0930  -14.6830  -19.4430 C.ar   42  G42         0.1723
    915    P.3    -12.9650  -18.9200  -16.5990 P.3    43  G43         0.2141
    916  OP1      -13.7690  -20.1750  -16.3970 O.2    43  G43        -0.5172
    917  OP2      -12.8700  -17.9030  -15.5110 O.3    43  G43        -0.4373
    918  O5'      -11.4890  -19.2690  -17.0840 O.3    43  G43        -0.3114
    919  C5'      -11.2820  -20.3030  -18.0470 C.3    43  G43         0.1812
    920  C4'       -9.8710  -20.2410  -18.5540 C.3    43  G43         0.1773
    921  O4'       -9.5650  -18.8800  -18.9530 O.3    43  G43        -0.3307
    922  C3'       -8.7860  -20.5850  -17.5430 C.3    43  G43         0.1860
    923  O3'       -8.5890  -21.9920  -17.4630 O.3    43  G43        -0.3112
    924  C2'       -7.5740  -19.8980  -18.1570 C.3    43  G43         0.2309
    925  O2'       -7.0540  -20.6010  -19.2720 O.3    43  G43        -0.2156
    926  C1'       -8.1980  -18.6030  -18.6760 C.3    43  G43         0.2408
    927   N9       -8.1300  -17.4720  -17.7550 N.ar   43  G43        -0.2693
    928   C8       -9.1920  -16.8090  -17.1880 C.ar   43  G43         0.1817
    929   N7       -8.8290  -15.8060  -16.4350 N.ar   43  G43        -0.2173
    930   C5       -7.4430  -15.8020  -16.5130 C.ar   43  G43         0.1748
    931   C6       -6.4910  -14.9390  -15.9090 C.ar   43  G43         0.3023
    932   O6       -6.6930  -13.9850  -15.1460 O.2    43  G43        -0.2633
    933   N.1      -5.1890  -15.2870  -16.2600 N.ar   43  G43        -0.1709
    934   C.2      -4.8450  -16.3320  -17.0850 C.ar   43  G43         0.2606
    935   N.2      -3.5350  -16.5120  -17.2990 N.pl3  43  G43        -0.0859
    936   N.3      -5.7240  -17.1390  -17.6600 N.ar   43  G43        -0.1918
    937   C4       -6.9950  -16.8190  -17.3330 C.ar   43  G43         0.1723
    938    P.3     -8.2910  -22.7720  -16.0930 P.3    44  C44         0.2141
    939  OP1       -8.7060  -24.1850  -16.2990 O.2    44  C44        -0.5172
    940  OP2       -8.8820  -21.9880  -14.9800 O.3    44  C44        -0.4373
    941  O5'       -6.7020  -22.7590  -15.9470 O.3    44  C44        -0.3114
    942  C5'       -5.8290  -22.9950  -17.0710 C.3    44  C44         0.1812
    943  C4'       -4.5460  -22.2090  -16.9100 C.3    44  C44         0.1773
    944  O4'       -4.8660  -20.7970  -16.9140 O.3    44  C44        -0.3307
    945  C3'       -3.7960  -22.4020  -15.5940 C.3    44  C44         0.1860
    946  O3'       -2.9130  -23.5180  -15.5550 O.3    44  C44        -0.3112
    947  C2'       -2.9900  -21.1120  -15.4590 C.3    44  C44         0.2309
    948  O2'       -1.7030  -21.1160  -16.0380 O.3    44  C44        -0.2156
    949  C1'       -3.8930  -20.0930  -16.1580 C.3    44  C44         0.2420
    950   N.1      -4.5850  -19.1890  -15.2280 N.ar   44  C44        -0.2535
    951   C.2      -3.8200  -18.3760  -14.3870 C.ar   44  C44         0.3532
    952   O.2      -2.5840  -18.4650  -14.4310 O.2    44  C44        -0.2443
    953   N.3      -4.4470  -17.5190  -13.5480 N.ar   44  C44        -0.1739
    954   C4       -5.7800  -17.4470  -13.5430 C.ar   44  C44         0.1759
    955   N.4      -6.3590  -16.5860  -12.7020 N.pl3  44  C44        -0.1070
    956   C5       -6.5810  -18.2610  -14.3920 C.ar   44  C44         0.0566
    957   C6       -5.9490  -19.1140  -15.2070 C.ar   44  C44         0.0850
    958    P.3     -2.8540  -24.3070  -14.1620 P.3    45  A45         0.2141
    959  OP1       -1.9920  -25.5080  -14.3340 O.2    45  A45        -0.5172
    960  OP2       -4.2430  -24.4510  -13.6550 O.3    45  A45        -0.4373
    961  O5'       -2.1140  -23.2790  -13.1970 O.3    45  A45        -0.3114
    962  C5'       -0.7530  -22.8800  -13.4580 C.3    45  A45         0.1812
    963  C4'       -0.3550  -21.8180  -12.4730 C.3    45  A45         0.1773
    964  O4'       -1.1880  -20.6460  -12.6720 O.3    45  A45        -0.3307
    965  C3'       -0.5620  -22.2200  -11.0200 C.3    45  A45         0.1860
    966  O3'        0.6480  -22.8680  -10.6480 O.3    45  A45        -0.3112
    967  C2'       -0.8310  -20.8840  -10.3290 C.3    45  A45         0.2309
    968  O2'        0.3360  -20.1600  -10.0110 O.3    45  A45        -0.2156
    969  C1'       -1.5600  -20.0960  -11.4180 C.3    45  A45         0.2408
    970   N9       -3.0230  -20.0930  -11.3230 N.ar   45  A45        -0.2693
    971   C8       -3.9030  -20.9760  -11.9000 C.ar   45  A45         0.1816
    972   N7       -5.1630  -20.7010  -11.6600 N.ar   45  A45        -0.2193
    973   C5       -5.1110  -19.5530  -10.8800 C.ar   45  A45         0.1518
    974   C6       -6.1150  -18.7610  -10.2930 C.ar   45  A45         0.1919
    975   N6       -7.4210  -19.0110  -10.4120 N.pl3  45  A45        -0.1054
    976   N.1      -5.7260  -17.6870   -9.5720 N.ar   45  A45        -0.2040
    977   C.2      -4.4150  -17.4340   -9.4570 C.ar   45  A45         0.2016
    978   N.3      -3.3790  -18.0980   -9.9670 N.ar   45  A45        -0.2048
    979   C4       -3.7990  -19.1620  -10.6740 C.ar   45  A45         0.1692
    980    P.3      0.7510  -23.8700   -9.4130 P.3    46  A46         0.2141
    981  OP1        2.1580  -24.3290   -9.3720 O.3    46  A46        -0.4373
    982  OP2       -0.3510  -24.8620   -9.4440 O.2    46  A46        -0.5172
    983  O5'        0.5160  -22.9080   -8.1700 O.3    46  A46        -0.3114
    984  C5'        1.5570  -22.0430   -7.6830 C.3    46  A46         0.1812
    985  C4'        0.9840  -21.1500   -6.6130 C.3    46  A46         0.1773
    986  O4'       -0.3050  -20.6460   -7.0660 O.3    46  A46        -0.3307
    987  C3'        0.7090  -21.8370   -5.2760 C.3    46  A46         0.1860
    988  O3'        0.8550  -20.8970   -4.2210 O.3    46  A46        -0.3112
    989  C2'       -0.7470  -22.2600   -5.4130 C.3    46  A46         0.2309
    990  O2'       -1.4170  -22.4360   -4.1840 O.3    46  A46        -0.2156
    991  C1'       -1.3250  -21.0740   -6.1800 C.3    46  A46         0.2408
    992   N9       -2.5130  -21.4230   -6.9600 N.ar   46  A46        -0.2693
    993   C8       -2.6440  -22.4480   -7.8650 C.ar   46  A46         0.1816
    994   N7       -3.8430  -22.5440   -8.3860 N.ar   46  A46        -0.2193
    995   C5       -4.5530  -21.5160   -7.7800 C.ar   46  A46         0.1518
    996   C6       -5.8890  -21.0920   -7.8980 C.ar   46  A46         0.1919
    997   N6       -6.7770  -21.6650   -8.7120 N.pl3  46  A46        -0.1054
    998   N.1      -6.2850  -20.0430   -7.1410 N.ar   46  A46        -0.2040
    999   C.2      -5.3930  -19.4730   -6.3210 C.ar   46  A46         0.2016
   1000   N.3      -4.1110  -19.7810   -6.1220 N.ar   46  A46        -0.2048
   1001   C4       -3.7480  -20.8230   -6.8920 C.ar   46  A46         0.1692
   1002    P.3      2.2640  -20.7500   -3.4980 P.3    47  C47         0.2141
   1003  OP1        3.2320  -21.7720   -4.0060 O.2    47  C47        -0.5172
   1004  OP2        1.9200  -20.6910   -2.0590 O.3    47  C47        -0.4373
   1005  O5'        2.8350  -19.3230   -3.9120 O.3    47  C47        -0.3114
   1006  C5'        3.7110  -18.5980   -3.0280 C.3    47  C47         0.1812
   1007  C4'        3.3060  -17.1480   -3.0010 C.3    47  C47         0.1773
   1008  O4'        2.6550  -16.8160   -4.2590 O.3    47  C47        -0.3307
   1009  C3'        2.2650  -16.7590   -1.9610 C.3    47  C47         0.1860
   1010  O3'        2.7950  -16.5650   -0.6540 O.3    47  C47        -0.3112
   1011  C2'        1.7210  -15.4610   -2.5460 C.3    47  C47         0.2309
   1012  O2'        2.5750  -14.3480   -2.3500 O.3    47  C47        -0.2156
   1013  C1'        1.7030  -15.7840   -4.0420 C.3    47  C47         0.2420
   1014   N.1       0.3990  -16.2160   -4.5880 N.ar   47  C47        -0.2535
   1015   C.2      -0.6220  -15.2650   -4.7440 C.ar   47  C47         0.3532
   1016   O.2      -0.4150  -14.0930   -4.3840 O.2    47  C47        -0.2443
   1017   N.3      -1.8090  -15.6530   -5.2700 N.ar   47  C47        -0.1739
   1018   C4       -1.9910  -16.9220   -5.6470 C.ar   47  C47         0.1759
   1019   N.4      -3.1730  -17.2560   -6.1650 N.pl3  47  C47        -0.1070
   1020   C5       -0.9650  -17.9030   -5.5130 C.ar   47  C47         0.0566
   1021   C6        0.2030  -17.5100   -4.9850 C.ar   47  C47         0.0850
   1022    P.3      2.1080  -17.2800    0.6130 P.3    48  C48         0.2141
   1023  OP1        3.1560  -17.6780    1.5930 O.3    48  C48        -0.4373
   1024  OP2        1.1790  -18.3160    0.0820 O.2    48  C48        -0.5172
   1025  O5'        1.2670  -16.1270    1.3190 O.3    48  C48        -0.3114
   1026  C5'        1.7220  -14.7670    1.2940 C.3    48  C48         0.1812
   1027  C4'        0.5470  -13.8210    1.1900 C.3    48  C48         0.1773
   1028  O4'        0.0830  -13.7460   -0.1890 O.3    48  C48        -0.3307
   1029  C3'       -0.6910  -14.2240    1.9680 C.3    48  C48         0.1860
   1030  O3'       -0.5910  -13.9820    3.3610 O.3    48  C48        -0.3112
   1031  C2'       -1.7790  -13.4590    1.2280 C.3    48  C48         0.2309
   1032  O2'       -1.8610  -12.0750    1.4980 O.3    48  C48        -0.2156
   1033  C1'       -1.3340  -13.6700   -0.2180 C.3    48  C48         0.2420
   1034   N.1      -1.8530  -14.9160   -0.8140 N.ar   48  C48        -0.2535
   1035   C.2      -3.0810  -14.8910   -1.4910 C.ar   48  C48         0.3532
   1036   O.2      -3.7060  -13.8210   -1.5650 O.2    48  C48        -0.2443
   1037   N.3      -3.5530  -16.0330   -2.0480 N.ar   48  C48        -0.1739
   1038   C4       -2.8560  -17.1670   -1.9340 C.ar   48  C48         0.1759
   1039   N.4      -3.3630  -18.2700   -2.4890 N.pl3  48  C48        -0.1070
   1040   C5       -1.6090  -17.2210   -1.2440 C.ar   48  C48         0.0566
   1041   C6       -1.1490  -16.0840   -0.7050 C.ar   48  C48         0.0850
   1042    P.3     -1.2850  -15.0950    4.2870 P.3    49  A49         0.2141
   1043  OP1       -0.3430  -15.6270    5.3150 O.3    49  A49        -0.4373
   1044  OP2       -2.0040  -16.0670    3.4210 O.2    49  A49        -0.5172
   1045  O5'       -2.4100  -14.2150    4.9970 O.3    49  A49        -0.3114
   1046  C5'       -2.9470  -13.0240    4.3750 C.3    49  A49         0.1812
   1047  C4'       -4.4650  -13.0250    4.3480 C.3    49  A49         0.1773
   1048  O4'       -4.9220  -12.9400    2.9660 O.3    49  A49        -0.3307
   1049  C3'       -5.2010  -14.2430    4.9120 C.3    49  A49         0.1860
   1050  O3'       -5.3650  -14.2490    6.3280 O.3    49  A49        -0.3112
   1051  C2'       -6.5450  -14.1340    4.2030 C.3    49  A49         0.2309
   1052  O2'       -7.4470  -13.2110    4.7810 O.3    49  A49        -0.2156
   1053  C1'       -6.0980  -13.7220    2.8010 C.3    49  A49         0.2408
   1054   N9       -5.7720  -14.8970    1.9890 N.ar   49  A49        -0.2693
   1055   C8       -4.5500  -15.4950    1.7950 C.ar   49  A49         0.1816
   1056   N7       -4.6010  -16.5700    1.0470 N.ar   49  A49        -0.2193
   1057   C5       -5.9480  -16.6950    0.7350 C.ar   49  A49         0.1518
   1058   C6       -6.6580  -17.6350   -0.0320 C.ar   49  A49         0.1919
   1059   N6       -6.0840  -18.6640   -0.6580 N.pl3  49  A49        -0.1054
   1060   N.1      -7.9960  -17.4770   -0.1370 N.ar   49  A49        -0.2040
   1061   C.2      -8.5700  -16.4410    0.4880 C.ar   49  A49         0.2016
   1062   N.3      -8.0110  -15.4930    1.2350 N.ar   49  A49        -0.2048
   1063   C4       -6.6820  -15.6810    1.3220 C.ar   49  A49         0.1692
   1064    P.3     -5.9200  -15.5470    7.0960 P.3    50  G50         0.2141
   1065  OP1       -6.4520  -15.1330    8.4190 O.3    50  G50        -0.4373
   1066  OP2       -4.9530  -16.6800    7.0330 O.2    50  G50        -0.5172
   1067  O5'       -7.1240  -15.8530    6.1010 O.3    50  G50        -0.3114
   1068  C5'       -8.5000  -15.7060    6.4860 C.3    50  G50         0.1812
   1069  C4'       -9.2690  -16.9130    6.0230 C.3    50  G50         0.1773
   1070  O4'       -9.0840  -17.1010    4.5940 O.3    50  G50        -0.3307
   1071  C3'       -8.7970  -18.2400    6.5920 C.3    50  G50         0.1860
   1072  O3'       -9.2810  -18.4920    7.8970 O.3    50  G50        -0.3112
   1073  C2'       -9.4180  -19.2200    5.6110 C.3    50  G50         0.2309
   1074  O2'      -10.7700  -19.4940    5.9090 O.3    50  G50        -0.2156
   1075  C1'       -9.2400  -18.4770    4.2850 C.3    50  G50         0.2408
   1076   N9       -8.0630  -18.9650    3.5690 N.ar   50  G50        -0.2693
   1077   C8       -6.7370  -18.7380    3.8580 C.ar   50  G50         0.1817
   1078   N7       -5.9210  -19.3900    3.0730 N.ar   50  G50        -0.2173
   1079   C5       -6.7590  -20.1140    2.2350 C.ar   50  G50         0.1748
   1080   C6       -6.4520  -21.0050    1.1700 C.ar   50  G50         0.3023
   1081   O6       -5.3400  -21.3410    0.7410 O.2    50  G50        -0.2633
   1082   N.1      -7.6070  -21.5250    0.5890 N.ar   50  G50        -0.1709
   1083   C.2      -8.8920  -21.2250    0.9770 C.ar   50  G50         0.2606
   1084   N.2      -9.8770  -21.8290    0.2940 N.pl3  50  G50        -0.0859
   1085   N.3      -9.1900  -20.3950    1.9640 N.ar   50  G50        -0.1918
   1086   C4       -8.0830  -19.8780    2.5420 C.ar   50  G50         0.1723
   1087    P.3     -8.6580  -19.6200    8.8580 P.3    51  A51         0.2141
   1088  OP1       -9.6770  -19.8910    9.9090 O.3    51  A51        -0.4373
   1089  OP2       -7.2930  -19.1800    9.2550 O.2    51  A51        -0.5172
   1090  O5'       -8.5180  -20.9880    8.0560 O.3    51  A51        -0.3114
   1091  C5'       -7.7890  -22.0840    8.6280 C.3    51  A51         0.1812
   1092  C4'       -8.4160  -23.3860    8.2150 C.3    51  A51         0.1773
   1093  O4'       -9.6330  -23.5930    8.9810 O.3    51  A51        -0.3307
   1094  C3'       -8.8700  -23.4530    6.7620 C.3    51  A51         0.1860
   1095  O3'       -7.8160  -23.7980    5.8750 O.3    51  A51        -0.3112
   1096  C2'       -9.9640  -24.5080    6.8250 C.3    51  A51         0.2309
   1097  O2'       -9.4700  -25.8320    6.8710 O.3    51  A51        -0.2156
   1098  C1'      -10.6400  -24.1470    8.1450 C.3    51  A51         0.2408
   1099   N9      -11.7340  -23.1770    8.0280 N.ar   51  A51        -0.2693
   1100   C8      -11.6900  -21.8270    8.2750 C.ar   51  A51         0.1816
   1101   N7      -12.8410  -21.2200    8.1120 N.ar   51  A51        -0.2193
   1102   C5      -13.7030  -22.2390    7.7310 C.ar   51  A51         0.1518
   1103   C6      -15.0750  -22.2500    7.4090 C.ar   51  A51         0.1919
   1104   N6      -15.8460  -21.1610    7.4200 N.pl3  51  A51        -0.1054
   1105   N.1     -15.6320  -23.4340    7.0670 N.ar   51  A51        -0.2040
   1106   C.2     -14.8570  -24.5270    7.0600 C.ar   51  A51         0.2016
   1107   N.3     -13.5580  -24.6440    7.3390 N.ar   51  A51        -0.2048
   1108   C4      -13.0350  -23.4500    7.6740 C.ar   51  A51         0.1692
   1109    P.3     -8.1240  -23.6800    4.3060 P.3    52  A52         0.2141
   1110  OP1       -6.8620  -23.8100    3.5090 O.2    52  A52        -0.5172
   1111  OP2       -8.9880  -22.4800    4.1370 O.3    52  A52        -0.4373
   1112  O5'       -9.0110  -24.9820    4.0680 O.3    52  A52        -0.3114
   1113  C5'       -9.5190  -25.3020    2.7640 C.3    52  A52         0.1812
   1114  C4'      -11.0250  -25.4170    2.8000 C.3    52  A52         0.1773
   1115  O4'      -11.5620  -24.7130    3.9440 O.3    52  A52        -0.3307
   1116  C3'      -11.7530  -24.7640    1.6340 C.3    52  A52         0.1860
   1117  O3'      -11.7070  -25.6440    0.5180 O.3    52  A52        -0.3112
   1118  C2'      -13.1650  -24.5880    2.1860 C.3    52  A52         0.2309
   1119  O2'      -14.0020  -25.7070    1.9720 O.3    52  A52        -0.2156
   1120  C1'      -12.9070  -24.3580    3.6790 C.3    52  A52         0.2408
   1121   N9      -13.1140  -22.9680    4.0860 N.ar   52  A52        -0.2693
   1122   C8      -12.1800  -22.0640    4.5290 C.ar   52  A52         0.1816
   1123   N7      -12.6770  -20.8830    4.8050 N.ar   52  A52        -0.2193
   1124   C5      -14.0290  -21.0150    4.5190 C.ar   52  A52         0.1518
   1125   C6      -15.1070  -20.1160    4.6040 C.ar   52  A52         0.1919
   1126   N6      -14.9880  -18.8520    5.0150 N.pl3  52  A52        -0.1054
   1127   N.1     -16.3320  -20.5700    4.2580 N.ar   52  A52        -0.2040
   1128   C.2     -16.4510  -21.8360    3.8380 C.ar   52  A52         0.2016
   1129   N.3     -15.5130  -22.7720    3.7060 N.ar   52  A52        -0.2048
   1130   C4      -14.3120  -22.2940    4.0740 C.ar   52  A52         0.1692
   1131    P.3    -11.2890  -25.1060   -0.9250 P.3    53  A53         0.2141
   1132  OP1      -11.0730  -26.3000   -1.7750 O.2    53  A53        -0.5172
   1133  OP2      -10.2150  -24.0910   -0.7940 O.3    53  A53        -0.4373
   1134  O5'      -12.6130  -24.3720   -1.4200 O.3    53  A53        -0.3114
   1135  C5'      -13.7820  -25.1220   -1.7810 C.3    53  A53         0.1812
   1136  C4'      -15.0120  -24.3000   -1.5150 C.3    53  A53         0.1773
   1137  O4'      -14.9260  -23.6980   -0.2000 O.3    53  A53        -0.3307
   1138  C3'      -15.2190  -23.0740   -2.3950 C.3    53  A53         0.1860
   1139  O3'      -15.6420  -23.3380   -3.7310 O.3    53  A53        -0.3112
   1140  C2'      -16.2580  -22.3040   -1.5860 C.3    53  A53         0.2309
   1141  O2'      -17.5810  -22.7520   -1.8130 O.3    53  A53        -0.2156
   1142  C1'      -15.7770  -22.5610   -0.1510 C.3    53  A53         0.2408
   1143   N9      -15.0270  -21.4320    0.4060 N.ar   53  A53        -0.2693
   1144   C8      -13.6670  -21.2830    0.5250 C.ar   53  A53         0.1816
   1145   N7      -13.3040  -20.1340    1.0410 N.ar   53  A53        -0.2193
   1146   C5      -14.5040  -19.4750    1.2650 C.ar   53  A53         0.1518
   1147   C6      -14.8050  -18.2060    1.7950 C.ar   53  A53         0.1919
   1148   N6      -13.8780  -17.3390    2.2120 N.pl3  53  A53        -0.1054
   1149   N.1     -16.1060  -17.8500    1.8760 N.ar   53  A53        -0.2040
   1150   C.2     -17.0340  -18.7190    1.4540 C.ar   53  A53         0.2016
   1151   N.3     -16.8780  -19.9410    0.9450 N.ar   53  A53        -0.2048
   1152   C4      -15.5740  -20.2620    0.8750 C.ar   53  A53         0.1692
   1153    P.3    -14.8550  -22.6800   -4.9770 P.3    54  U54         0.2141
   1154  OP1      -15.7950  -22.7610   -6.1260 O.2    54  U54        -0.5172
   1155  OP2      -13.5290  -23.3580   -5.0650 O.3    54  U54        -0.4373
   1156  O5'      -14.5470  -21.1500   -4.6320 O.3    54  U54        -0.3114
   1157  C5'      -15.5390  -20.1010   -4.7390 C.3    54  U54         0.1812
   1158  C4'      -15.2350  -18.9830   -3.7620 C.3    54  U54         0.1773
   1159  O4'      -14.5440  -19.5260   -2.5980 O.3    54  U54        -0.3307
   1160  C3'      -14.3050  -17.8840   -4.2580 C.3    54  U54         0.1860
   1161  O3'      -14.9100  -16.8720   -5.0690 O.3    54  U54        -0.3112
   1162  C2'      -13.7710  -17.3160   -2.9500 C.3    54  U54         0.2309
   1163  O2'      -14.6790  -16.4350   -2.3260 O.3    54  U54        -0.2156
   1164  C1'      -13.5960  -18.5860   -2.1150 C.3    54  U54         0.2420
   1165   N.1     -12.2490  -19.1690   -2.2290 N.ar   54  U54        -0.2534
   1166   C.2     -11.2000  -18.4780   -1.6470 C.ar   54  U54         0.3546
   1167   O.2     -11.3530  -17.4350   -1.0350 O.2    54  U54        -0.2443
   1168   N.3      -9.9670  -19.0590   -1.8080 N.ar   54  U54        -0.1530
   1169   C4       -9.6740  -20.2310   -2.4720 C.ar   54  U54         0.2846
   1170   O4       -8.5050  -20.6230   -2.5260 O.2    54  U54        -0.2650
   1171   C5      -10.8110  -20.8870   -3.0460 C.ar   54  U54         0.0814
   1172   C6      -12.0280  -20.3450   -2.9120 C.ar   54  U54         0.0870
   1173    P.3    -14.0200  -16.1570   -6.2230 P.3    55  G55         0.2141
   1174  OP1      -14.7740  -16.2360   -7.4930 O.2    55  G55        -0.5172
   1175  OP2      -12.6440  -16.7360   -6.1510 O.3    55  G55        -0.4373
   1176  O5'      -13.9100  -14.6100   -5.8560 O.3    55  G55        -0.3114
   1177  C5'      -14.5120  -14.0670   -4.6710 C.3    55  G55         0.1812
   1178  C4'      -13.5050  -13.2750   -3.8690 C.3    55  G55         0.1773
   1179  O4'      -12.8000  -14.1450   -2.9480 O.3    55  G55        -0.3307
   1180  C3'      -12.3660  -12.6330   -4.6390 C.3    55  G55         0.1860
   1181  O3'      -12.7880  -11.5490   -5.4710 O.3    55  G55        -0.3112
   1182  C2'      -11.3820  -12.3300   -3.5130 C.3    55  G55         0.2309
   1183  O2'      -11.6950  -11.2320   -2.6900 O.3    55  G55        -0.2156
   1184  C1'      -11.5440  -13.5680   -2.6300 C.3    55  G55         0.2408
   1185   N9      -10.4990  -14.5540   -2.8790 N.ar   55  G55        -0.2693
   1186   C8      -10.5850  -15.6860   -3.6540 C.ar   55  G55         0.1817
   1187   N7       -9.4640  -16.3540   -3.7110 N.ar   55  G55        -0.2173
   1188   C5       -8.5810  -15.6100   -2.9400 C.ar   55  G55         0.1748
   1189   C6       -7.2110  -15.8320   -2.6360 C.ar   55  G55         0.3023
   1190   O6       -6.4840  -16.7650   -2.9890 O.2    55  G55        -0.2633
   1191   N.1      -6.7000  -14.8290   -1.8190 N.ar   55  G55        -0.1709
   1192   C.2      -7.4060  -13.7430   -1.3650 C.ar   55  G55         0.2606
   1193   N.2      -6.7320  -12.8830   -0.5880 N.pl3  55  G55        -0.0859
   1194   N.3      -8.6820  -13.5230   -1.6410 N.ar   55  G55        -0.1918
   1195   C4       -9.2030  -14.4910   -2.4250 C.ar   55  G55         0.1723
   1196    P.3    -12.1210  -11.3220   -6.9340 P.3    56  G56         0.2141
   1197  OP1      -12.9620  -10.3710   -7.7170 O.2    56  G56        -0.5172
   1198  OP2      -11.6950  -12.5990   -7.5760 O.3    56  G56        -0.4373
   1199  O5'      -10.7940  -10.6290   -6.3810 O.3    56  G56        -0.3114
   1200  C5'      -10.7570   -9.2180   -6.0750 C.3    56  G56         0.1812
   1201  C4'       -9.4380   -8.8610   -5.4280 C.3    56  G56         0.1773
   1202  O4'       -9.0920   -9.8560   -4.4140 O.3    56  G56        -0.3307
   1203  C3'       -8.2260   -8.8400   -6.3500 C.3    56  G56         0.1860
   1204  O3'       -8.1280   -7.7440   -7.2620 O.3    56  G56        -0.3112
   1205  C2'       -7.0980   -9.0160   -5.3410 C.3    56  G56         0.2309
   1206  O2'       -6.7950   -7.8290   -4.6360 O.3    56  G56        -0.2156
   1207  C1'       -7.6900  -10.1170   -4.4540 C.3    56  G56         0.2408
   1208   N9       -7.4800  -11.4460   -5.0360 N.ar   56  G56        -0.2693
   1209   C8       -8.3590  -12.1290   -5.8450 C.ar   56  G56         0.1817
   1210   N7       -7.8880  -13.2710   -6.2670 N.ar   56  G56        -0.2173
   1211   C5       -6.6150  -13.3450   -5.7160 C.ar   56  G56         0.1748
   1212   C6       -5.6260  -14.3600   -5.8220 C.ar   56  G56         0.3023
   1213   O6       -5.6810  -15.4280   -6.4450 O.2    56  G56        -0.2633
   1214   N.1      -4.4750  -14.0290   -5.1110 N.ar   56  G56        -0.1709
   1215   C.2      -4.2980  -12.8750   -4.3890 C.ar   56  G56         0.2606
   1216   N.2      -3.1140  -12.7410   -3.7750 N.pl3  56  G56        -0.0859
   1217   N.3      -5.2160  -11.9250   -4.2720 N.ar   56  G56        -0.1918
   1218   C4       -6.3420  -12.2230   -4.9590 C.ar   56  G56         0.1723
   1219    P.3     -7.7640   -8.0280   -8.8310 P.3    57  U57         0.2141
   1220  OP1       -8.3640   -6.9830   -9.7020 O.2    57  U57        -0.5172
   1221  OP2       -7.9820   -9.4660   -9.1780 O.3    57  U57        -0.4373
   1222  O5'       -6.1880   -7.7780   -8.8340 O.3    57  U57        -0.3114
   1223  C5'       -5.5920   -6.8030   -7.9510 C.3    57  U57         0.1812
   1224  C4'       -4.2430   -7.2600   -7.4350 C.3    57  U57         0.1773
   1225  O4'       -4.3240   -8.5300   -6.7300 O.3    57  U57        -0.3307
   1226  C3'       -3.1630   -7.5720   -8.4540 C.3    57  U57         0.1860
   1227  O3'       -2.6800   -6.4700   -9.2110 O.3    57  U57        -0.3112
   1228  C2'       -2.1270   -8.2300   -7.5550 C.3    57  U57         0.2309
   1229  O2'       -1.5040   -7.3260   -6.6680 O.3    57  U57        -0.2156
   1230  C1'       -3.0220   -9.1070   -6.6780 C.3    57  U57         0.2420
   1231   N.1      -3.0750  -10.5000   -7.1490 N.ar   57  U57        -0.2534
   1232   C.2      -1.9210  -11.2530   -7.0170 C.ar   57  U57         0.3546
   1233   O.2      -0.8970  -10.8160   -6.5230 O.2    57  U57        -0.2443
   1234   N.3      -2.0210  -12.5440   -7.4680 N.ar   57  U57        -0.1530
   1235   C4       -3.1160  -13.1430   -8.0480 C.ar   57  U57         0.2846
   1236   O4       -3.0370  -14.3130   -8.4230 O.2    57  U57        -0.2650
   1237   C5       -4.2640  -12.2950   -8.1680 C.ar   57  U57         0.0814
   1238   C6       -4.2040  -11.0320   -7.7280 C.ar   57  U57         0.0870
   1239    P.3     -2.4800   -6.7140  -10.7820 P.3    58  G58         0.2141
   1240  OP1       -1.7260   -5.5660  -11.3520 O.3    58  G58        -0.4373
   1241  OP2       -3.7750   -7.1200  -11.3850 O.2    58  G58        -0.5172
   1242  O5'       -1.5660   -8.0180  -10.8680 O.3    58  G58        -0.3114
   1243  C5'       -0.1560   -7.9660  -10.5510 C.3    58  G58         0.1812
   1244  C4'        0.4620   -9.3410  -10.6300 C.3    58  G58         0.1773
   1245  O4'       -0.3520  -10.3150   -9.9200 O.3    58  G58        -0.3307
   1246  C3'        0.5790   -9.9170  -12.0230 C.3    58  G58         0.1860
   1247  O3'        1.7280   -9.4090  -12.6740 O.3    58  G58        -0.3112
   1248  C2'        0.7280  -11.3950  -11.7230 C.3    58  G58         0.2309
   1249  O2'        2.0620  -11.6330  -11.3240 O.3    58  G58        -0.2156
   1250  C1'       -0.2840  -11.5640  -10.5860 C.3    58  G58         0.2408
   1251   N9       -1.6380  -11.9250  -11.0060 N.ar   58  G58        -0.2693
   1252   C8       -2.7510  -11.1220  -10.9500 C.ar   58  G58         0.1817
   1253   N7       -3.8350  -11.7180  -11.3650 N.ar   58  G58        -0.2173
   1254   C5       -3.4180  -12.9990  -11.6960 C.ar   58  G58         0.1748
   1255   C6       -4.1550  -14.1040  -12.2010 C.ar   58  G58         0.3023
   1256   O6       -5.3630  -14.1700  -12.4650 O.2    58  G58        -0.2633
   1257   N.1      -3.3360  -15.2090  -12.4140 N.ar   58  G58        -0.1709
   1258   C.2      -1.9870  -15.2500  -12.1650 C.ar   58  G58         0.2606
   1259   N.2      -1.3730  -16.4070  -12.4420 N.pl3  58  G58        -0.0859
   1260   N.3      -1.2920  -14.2330  -11.6790 N.ar   58  G58        -0.1918
   1261   C4       -2.0640  -13.1440  -11.4800 C.ar   58  G58         0.1723
   1262    P.3      1.5080   -8.7870  -14.1450 P.3    59  C59         0.2141
   1263  OP1        2.5380   -7.7580  -14.4470 O.2    59  C59        -0.5172
   1264  OP2        0.0660   -8.4720  -14.3340 O.3    59  C59        -0.4373
   1265  O5'        1.8660  -10.0490  -15.0440 O.3    59  C59        -0.3114
   1266  C5'        2.7850  -11.0420  -14.5980 C.3    59  C59         0.1812
   1267  C4'        2.4020  -12.3500  -15.2210 C.3    59  C59         0.1773
   1268  O4'        1.3990  -13.0010  -14.3930 O.3    59  C59        -0.3307
   1269  C3'        1.7300  -12.2610  -16.5840 C.3    59  C59         0.1860
   1270  O3'        2.6180  -12.0670  -17.6750 O.3    59  C59        -0.3112
   1271  C2'        1.0330  -13.6110  -16.6560 C.3    59  C59         0.2309
   1272  O2'        1.9100  -14.6760  -16.9490 O.3    59  C59        -0.2156
   1273  C1'        0.5140  -13.7420  -15.2250 C.3    59  C59         0.2420
   1274   N.1      -0.8380  -13.1860  -15.0820 N.ar   59  C59        -0.2535
   1275   C.2      -1.9390  -14.0040  -15.3600 C.ar   59  C59         0.3532
   1276   O.2      -1.7420  -15.1830  -15.6970 O.2    59  C59        -0.2443
   1277   N.3      -3.1900  -13.4910  -15.2410 N.ar   59  C59        -0.1739
   1278   C4       -3.3560  -12.2180  -14.8660 C.ar   59  C59         0.1759
   1279   N.4      -4.6000  -11.7540  -14.7510 N.pl3  59  C59        -0.1070
   1280   C5       -2.2490  -11.3630  -14.5930 C.ar   59  C59         0.0566
   1281   C6       -1.0200  -11.8810  -14.7200 C.ar   59  C59         0.0850
   1282    P.3      2.0730  -11.9830  -19.1880 P.3    60  C60         0.2141
   1283  OP1        3.1930  -11.8170  -20.1590 O.2    60  C60        -0.5172
   1284  OP2        0.9460  -11.0060  -19.2130 O.3    60  C60        -0.4373
   1285  O5'        1.4690  -13.4470  -19.3740 O.3    60  C60        -0.3114
   1286  C5'        1.8630  -14.3150  -20.4540 C.3    60  C60         0.1812
   1287  C4'        0.6910  -15.1670  -20.8870 C.3    60  C60         0.1773
   1288  O4'       -0.2920  -15.2700  -19.8220 O.3    60  C60        -0.3307
   1289  C3'       -0.1040  -14.6240  -22.0550 C.3    60  C60         0.1860
   1290  O3'        0.5680  -15.0120  -23.2380 O.3    60  C60        -0.3112
   1291  C2'       -1.4370  -15.3410  -21.9000 C.3    60  C60         0.2309
   1292  O2'       -1.3940  -16.6830  -22.3350 O.3    60  C60        -0.2156
   1293  C1'       -1.5880  -15.3940  -20.3810 C.3    60  C60         0.2420
   1294   N.1      -2.4600  -14.3580  -19.7920 N.ar   60  C60        -0.2535
   1295   C.2      -3.8540  -14.5030  -19.8760 C.ar   60  C60         0.3532
   1296   O.2      -4.3240  -15.4830  -20.4740 O.2    60  C60        -0.2443
   1297   N.3      -4.6500  -13.5690  -19.3080 N.ar   60  C60        -0.1739
   1298   C4       -4.1080  -12.5310  -18.6670 C.ar   60  C60         0.1759
   1299   N.4      -4.9330  -11.6400  -18.1170 N.pl3  60  C60        -0.1070
   1300   C5       -2.6960  -12.3570  -18.5680 C.ar   60  C60         0.0566
   1301   C6       -1.9170  -13.2890  -19.1320 C.ar   60  C60         0.0850
   1302    P.3      0.8440  -13.8840  -24.3320 P.3    61  A61         0.2141
   1303  OP1        1.6980  -12.8380  -23.7080 O.3    61  A61        -0.4373
   1304  OP2       -0.4720  -13.4950  -24.9290 O.2    61  A61        -0.5172
   1305  O5'        1.7460  -14.6980  -25.3630 O.3    61  A61        -0.3114
   1306  C5'        3.0650  -15.1330  -25.0130 C.3    61  A61         0.1812
   1307  C4'        3.6930  -15.7870  -26.2070 C.3    61  A61         0.1773
   1308  O4'        3.7020  -14.8640  -27.3300 O.3    61  A61        -0.3307
   1309  C3'        5.1500  -16.1810  -26.0330 C.3    61  A61         0.1860
   1310  O3'        5.2190  -17.4750  -25.4630 O.3    61  A61        -0.3112
   1311  C2'        5.6320  -16.2070  -27.4710 C.3    61  A61         0.2309
   1312  O2'        5.0950  -17.3120  -28.1530 O.3    61  A61        -0.2156
   1313  C1'        4.9250  -14.9850  -28.0420 C.3    61  A61         0.2408
   1314   N9        5.6930  -13.7440  -27.8980 N.ar   61  A61        -0.2693
   1315   C8        5.4660  -12.7000  -27.0350 C.ar   61  A61         0.1816
   1316   N7        6.3250  -11.7180  -27.1530 N.ar   61  A61        -0.2193
   1317   C5        7.1790  -12.1420  -28.1620 C.ar   61  A61         0.1518
   1318   C6        8.3130  -11.5500  -28.7590 C.ar   61  A61         0.1919
   1319   N6        8.7990  -10.3550  -28.4100 N.pl3  61  A61        -0.1054
   1320   N.1       8.9490  -12.2490  -29.7270 N.ar   61  A61        -0.2040
   1321   C.2       8.4700  -13.4540  -30.0690 C.ar   61  A61         0.2016
   1322   N.3       7.4190  -14.1130  -29.5820 N.ar   61  A61        -0.2048
   1323   C4        6.8050  -13.3910  -28.6270 C.ar   61  A61         0.1692
   1324    P.3      6.1070  -17.6390  -24.1490 P.3    62  A62         0.2141
   1325  OP1        5.6430  -18.8630  -23.4360 O.3    62  A62        -0.4373
   1326  OP2        6.2330  -16.3250  -23.4370 O.2    62  A62        -0.5172
   1327  O5'        7.5470  -17.9850  -24.7200 O.3    62  A62        -0.3114
   1328  C5'        7.7240  -18.9880  -25.7170 C.3    62  A62         0.1812
   1329  C4'        8.9080  -18.5970  -26.5420 C.3    62  A62         0.1773
   1330  O4'        8.6490  -17.2920  -27.1070 O.3    62  A62        -0.3307
   1331  C3'       10.1870  -18.3340  -25.7580 C.3    62  A62         0.1860
   1332  O3'       10.9010  -19.4860  -25.3030 O.3    62  A62        -0.3112
   1333  C2'       10.9850  -17.5030  -26.7570 C.3    62  A62         0.2309
   1334  O2'       11.6860  -18.2570  -27.7210 O.3    62  A62        -0.2156
   1335  C1'        9.8840  -16.6680  -27.4140 C.3    62  A62         0.2408
   1336   N9        9.8700  -15.3000  -26.8960 N.ar   62  A62        -0.2693
   1337   C8        9.1930  -14.8070  -25.8080 C.ar   62  A62         0.1816
   1338   N7        9.4230  -13.5380  -25.5730 N.ar   62  A62        -0.2193
   1339   C5       10.3240  -13.1730  -26.5620 C.ar   62  A62         0.1518
   1340   C6       10.9650  -11.9560  -26.8590 C.ar   62  A62         0.1919
   1341   N6       10.7720  -10.8320  -26.1690 N.pl3  62  A62        -0.1054
   1342   N.1      11.8050  -11.9280  -27.9180 N.ar   62  A62        -0.2040
   1343   C.2      11.9880  -13.0540  -28.6190 C.ar   62  A62         0.2016
   1344   N.3      11.4460  -14.2570  -28.4390 N.ar   62  A62        -0.2048
   1345   C4       10.6150  -14.2500  -27.3800 C.ar   62  A62         0.1692
   1346    P.3     12.3120  -19.2510  -24.5220 P.3    63  U63         0.2141
   1347  OP1       13.1360  -18.2540  -25.2650 O.2    63  U63        -0.5172
   1348  OP2       12.9220  -20.5500  -24.1110 O.3    63  U63        -0.4373
   1349  O5'       11.8100  -18.5880  -23.1640 O.3    63  U63        -0.3114
   1350  C5'       11.1610  -19.4060  -22.1820 C.3    63  U63         0.1812
   1351  C4'       11.9390  -19.3760  -20.8930 C.3    63  U63         0.1773
   1352  O4'       13.2830  -19.8960  -21.0880 O.3    63  U63        -0.3307
   1353  C3'       12.1090  -17.9960  -20.2760 C.3    63  U63         0.1860
   1354  O3'       11.7060  -18.1680  -18.9220 O.3    63  U63        -0.3112
   1355  C2'       13.5920  -17.6930  -20.5010 C.3    63  U63         0.2309
   1356  O2'       14.1560  -16.7930  -19.5740 O.3    63  U63        -0.2156
   1357  C1'       14.1940  -19.0870  -20.3780 C.3    63  U63         0.2420
   1358   N.1      15.5350  -19.2660  -20.9580 N.ar   63  U63        -0.2534
   1359   C.2      16.5950  -19.4510  -20.0880 C.ar   63  U63         0.3546
   1360   O.2      16.4680  -19.4470  -18.8750 O.2    63  U63        -0.2443
   1361   N.3      17.8140  -19.6260  -20.6940 N.ar   63  U63        -0.1530
   1362   C4       18.0790  -19.6560  -22.0470 C.ar   63  U63         0.2846
   1363   O4       19.2360  -19.8340  -22.4350 O.2    63  U63        -0.2650
   1364   C5       16.9310  -19.4660  -22.8810 C.ar   63  U63         0.0814
   1365   C6       15.7270  -19.2870  -22.3220 C.ar   63  U63         0.0870
   1366    P.3     10.3540  -17.4820  -18.4130 P.3    64  U64         0.2141
   1367  OP1        9.8230  -18.2490  -17.2550 O.3    64  U64        -0.4373
   1368  OP2        9.4790  -17.2300  -19.5860 O.2    64  U64        -0.5172
   1369  O5'       11.0140  -16.1340  -17.8730 O.3    64  U64        -0.3114
   1370  C5'       10.2610  -14.9130  -17.8380 C.3    64  U64         0.1812
   1371  C4'       11.1810  -13.7200  -17.8460 C.3    64  U64         0.1773
   1372  O4'       11.8800  -13.6260  -16.5820 O.3    64  U64        -0.3307
   1373  C3'       12.2550  -13.7000  -18.9300 C.3    64  U64         0.1860
   1374  O3'       12.1500  -12.4710  -19.6290 O.3    64  U64        -0.3112
   1375  C2'       13.5710  -13.6750  -18.1530 C.3    64  U64         0.2309
   1376  O2'       14.5070  -12.8030  -18.7430 O.3    64  U64        -0.2156
   1377  C1'       13.1490  -13.0720  -16.8170 C.3    64  U64         0.2420
   1378   N.1      14.0320  -13.4240  -15.6940 N.ar   64  U64        -0.2534
   1379   C.2      14.9460  -12.4790  -15.2730 C.ar   64  U64         0.3546
   1380   O.2      15.0480  -11.3800  -15.7870 O.2    64  U64        -0.2443
   1381   N.3      15.7460  -12.8740  -14.2300 N.ar   64  U64        -0.1530
   1382   C4       15.7300  -14.0880  -13.5780 C.ar   64  U64         0.2846
   1383   O4       16.5160  -14.2890  -12.6500 O.2    64  U64        -0.2650
   1384   C5       14.7560  -15.0130  -14.0710 C.ar   64  U64         0.0814
   1385   C6       13.9590  -14.6580  -15.0860 C.ar   64  U64         0.0870
   1386    P.3     11.3010  -12.2810  -20.9550 P.3    65  C65         0.2141
   1387  OP1       11.1760  -10.8200  -21.2120 O.2    65  C65        -0.5172
   1388  OP2       10.0980  -13.1550  -20.8270 O.3    65  C65        -0.4373
   1389  O5'       12.2120  -12.8270  -22.1450 O.3    65  C65        -0.3114
   1390  C5'       12.1830  -14.2090  -22.5600 C.3    65  C65         0.1812
   1391  C4'       13.0920  -14.4300  -23.7490 C.3    65  C65         0.1773
   1392  O4'       12.7770  -13.4830  -24.8090 O.3    65  C65        -0.3307
   1393  C3'       14.5730  -14.2020  -23.5080 C.3    65  C65         0.1860
   1394  O3'       15.1780  -15.2740  -22.8070 O.3    65  C65        -0.3112
   1395  C2'       15.0900  -13.9930  -24.9260 C.3    65  C65         0.2309
   1396  O2'       15.2890  -15.1730  -25.6800 O.3    65  C65        -0.2156
   1397  C1'       13.9600  -13.1540  -25.5260 C.3    65  C65         0.2420
   1398   N.1      14.1730  -11.7050  -25.4110 N.ar   65  C65        -0.2535
   1399   C.2      15.0480  -11.0760  -26.2990 C.ar   65  C65         0.3532
   1400   O.2      15.6130  -11.7550  -27.1650 O.2    65  C65        -0.2443
   1401   N.3      15.2500   -9.7430  -26.1960 N.ar   65  C65        -0.1739
   1402   C4       14.6050   -9.0420  -25.2610 C.ar   65  C65         0.1759
   1403   N.4      14.8260   -7.7290  -25.2020 N.pl3  65  C65        -0.1070
   1404   C5       13.7200   -9.6600  -24.3320 C.ar   65  C65         0.0566
   1405   C6       13.5340  -10.9810  -24.4440 C.ar   65  C65         0.0850
   1406    P.3     16.1840  -14.8860  -21.6200 P.3    66  C66         0.2141
   1407  OP1       16.4050  -16.1750  -20.9250 O.2    66  C66        -0.5172
   1408  OP2       15.7440  -13.6840  -20.8500 O.3    66  C66        -0.4373
   1409  O5'       17.5420  -14.6080  -22.4040 O.3    66  C66        -0.3114
   1410  C5'       18.1660  -15.6810  -23.1480 C.3    66  C66         0.1812
   1411  C4'       19.2110  -15.1250  -24.0750 C.3    66  C66         0.1773
   1412  O4'       18.5860  -14.1210  -24.9160 O.3    66  C66        -0.3307
   1413  C3'       20.3300  -14.3600  -23.3890 C.3    66  C66         0.1860
   1414  O3'       21.3460  -15.1920  -22.8440 O.3    66  C66        -0.3112
   1415  C2'       20.8250  -13.4600  -24.5100 C.3    66  C66         0.2309
   1416  O2'       21.5970  -14.1540  -25.4640 O.3    66  C66        -0.2156
   1417  C1'       19.5100  -13.0740  -25.1830 C.3    66  C66         0.2420
   1418   N.1      18.9460  -11.7890  -24.7190 N.ar   66  C66        -0.2535
   1419   C.2      19.5210  -10.5960  -25.1780 C.ar   66  C66         0.3532
   1420   O.2      20.4780  -10.6530  -25.9640 O.2    66  C66        -0.2443
   1421   N.3      19.0170   -9.4120  -24.7570 N.ar   66  C66        -0.1739
   1422   C4       17.9760   -9.3900  -23.9220 C.ar   66  C66         0.1759
   1423   N.4      17.5020   -8.1980  -23.5480 N.pl3  66  C66        -0.1070
   1424   C5       17.3700  -10.5890  -23.4380 C.ar   66  C66         0.0566
   1425   C6       17.8860  -11.7540  -23.8540 C.ar   66  C66         0.0850
   1426    P.3     21.9130  -14.7410  -21.4300 P.3    67  U67         0.2141
   1427  OP1       22.6700  -15.8910  -20.8840 O.2    67  U67        -0.5172
   1428  OP2       20.7750  -14.2030  -20.6480 O.3    67  U67        -0.4373
   1429  O5'       22.8860  -13.5020  -21.6970 O.3    67  U67        -0.3114
   1430  C5'       23.8040  -13.4740  -22.8140 C.3    67  U67         0.1812
   1431  C4'       24.2590  -12.0530  -23.0820 C.3    67  U67         0.1773
   1432  O4'       23.1510  -11.2700  -23.5980 O.3    67  U67        -0.3307
   1433  C3'       24.7600  -11.3010  -21.8570 C.3    67  U67         0.1860
   1434  O3'       26.1650  -11.4970  -21.6900 O.3    67  U67        -0.3112
   1435  C2'       24.4320   -9.8450  -22.1790 C.3    67  U67         0.2309
   1436  O2'       25.4320   -9.2100  -22.9420 O.3    67  U67        -0.2156
   1437  C1'       23.1740   -9.9740  -23.0330 C.3    67  U67         0.2420
   1438   N.1      21.9230   -9.7590  -22.2950 N.ar   67  U67        -0.2534
   1439   C.2      21.3720   -8.4920  -22.3270 C.ar   67  U67         0.3546
   1440   O.2      21.8840   -7.5610  -22.9260 O.2    67  U67        -0.2443
   1441   N.3      20.1970   -8.3570  -21.6320 N.ar   67  U67        -0.1530
   1442   C4       19.5220   -9.3350  -20.9330 C.ar   67  U67         0.2846
   1443   O4       18.4700   -9.0540  -20.3560 O.2    67  U67        -0.2650
   1444   C5       20.1530  -10.6190  -20.9520 C.ar   67  U67         0.0814
   1445   C6       21.3000  -10.7840  -21.6220 C.ar   67  U67         0.0870
   1446    P.3     26.8060  -11.3370  -20.2210 P.3    68  G68         0.2141
   1447  OP1       28.1670  -11.9310  -20.2600 O.2    68  G68        -0.5172
   1448  OP2       25.8060  -11.7740  -19.2030 O.3    68  G68        -0.4373
   1449  O5'       26.9730   -9.7730  -19.9760 O.3    68  G68        -0.3114
   1450  C5'       27.8810   -8.9750  -20.7550 C.3    68  G68         0.1812
   1451  C4'       27.9320   -7.5960  -20.1600 C.3    68  G68         0.1773
   1452  O4'       26.6100   -7.0110  -20.2250 O.3    68  G68        -0.3307
   1453  C3'       28.3550   -7.5430  -18.6980 C.3    68  G68         0.1860
   1454  O3'       29.1460   -6.3920  -18.4430 O.3    68  G68        -0.3112
   1455  C2'       27.0390   -7.4450  -17.9410 C.3    68  G68         0.2309
   1456  O2'       27.1510   -6.6680  -16.7740 O.3    68  G68        -0.2156
   1457  C1'       26.1550   -6.6910  -18.9260 C.3    68  G68         0.2408
   1458   N9       24.7620   -7.1060  -18.8290 N.ar   68  G68        -0.2693
   1459   C8       24.3040   -8.3870  -18.6380 C.ar   68  G68         0.1817
   1460   N7       23.0010   -8.4660  -18.6080 N.ar   68  G68        -0.2173
   1461   C5       22.5720   -7.1600  -18.8050 C.ar   68  G68         0.1748
   1462   C6       21.2590   -6.6260  -18.8880 C.ar   68  G68         0.3023
   1463   O6       20.1800   -7.2170  -18.7780 O.2    68  G68        -0.2633
   1464   N.1      21.2770   -5.2540  -19.1160 N.ar   68  G68        -0.1709
   1465   C.2      22.4090   -4.4910  -19.2480 C.ar   68  G68         0.2606
   1466   N.2      22.2160   -3.1790  -19.4460 N.pl3  68  G68        -0.0859
   1467   N.3      23.6400   -4.9760  -19.1770 N.ar   68  G68        -0.1918
   1468   C4       23.6470   -6.3080  -18.9480 C.ar   68  G68         0.1723
   1469    P.3     30.7410   -6.4870  -18.3880 P.3    69  C69         0.2141
   1470  OP1       31.2470   -5.0870  -18.4980 O.3    69  C69        -0.4373
   1471  OP2       31.1320   -7.5250  -19.3990 O.2    69  C69        -0.5172
   1472  O5'       30.9490   -7.0370  -16.9030 O.3    69  C69        -0.3114
   1473  C5'       30.5220   -6.2770  -15.7520 C.3    69  C69         0.1812
   1474  C4'       30.7230   -7.0750  -14.4840 C.3    69  C69         0.1773
   1475  O4'       29.4570   -7.6860  -14.1010 O.3    69  C69        -0.3307
   1476  C3'       31.6880   -8.2490  -14.5790 C.3    69  C69         0.1860
   1477  O3'       33.0360   -7.9360  -14.2850 O.3    69  C69        -0.3112
   1478  C2'       31.1970   -9.1560  -13.4610 C.3    69  C69         0.2309
   1479  O2'       31.6560   -8.6600  -12.2240 O.3    69  C69        -0.2156
   1480  C1'       29.6840   -8.9940  -13.5820 C.3    69  C69         0.2420
   1481   N.1      29.0340  -10.0040  -14.4600 N.ar   69  C69        -0.2535
   1482   C.2      28.6950  -11.2450  -13.9080 C.ar   69  C69         0.3532
   1483   O.2      28.9330  -11.4540  -12.7100 O.2    69  C69        -0.2443
   1484   N.3      28.1080  -12.1800  -14.6900 N.ar   69  C69        -0.1739
   1485   C4       27.8540  -11.9120  -15.9720 C.ar   69  C69         0.1759
   1486   N.4      27.2710  -12.8640  -16.7020 N.pl3  69  C69        -0.1070
   1487   C5       28.2010  -10.6620  -16.5660 C.ar   69  C69         0.0566
   1488   C6       28.7860   -9.7470  -15.7820 C.ar   69  C69         0.0850
   1489    P.3     34.1140   -9.0250  -14.7450 P.3    70  A70         0.2141
   1490  OP1       35.4690   -8.4520  -14.5140 O.3    70  A70        -0.4373
   1491  OP2       33.7460   -9.5230  -16.0960 O.2    70  A70        -0.5172
   1492  O5'       33.9310  -10.2710  -13.7690 O.3    70  A70        -0.3114
   1493  C5'       34.6080  -10.3370  -12.5090 C.3    70  A70         0.1812
   1494  C4'       34.1730  -11.5660  -11.7630 C.3    70  A70         0.1773
   1495  O4'       32.7300  -11.7300  -11.8640 O.3    70  A70        -0.3307
   1496  C3'       34.7240  -12.8750  -12.3070 C.3    70  A70         0.1860
   1497  O3'       36.0700  -13.0720  -11.9120 O.3    70  A70        -0.3112
   1498  C2'       33.7210  -13.8850  -11.7550 C.3    70  A70         0.2309
   1499  O2'       33.8330  -14.3030  -10.4090 O.3    70  A70        -0.2156
   1500  C1'       32.4150  -13.1110  -11.9080 C.3    70  A70         0.2408
   1501   N9       31.7840  -13.4010  -13.1890 N.ar   70  A70        -0.2693
   1502   C8       31.7670  -12.6400  -14.3290 C.ar   70  A70         0.1816
   1503   N7       31.1140  -13.1910  -15.3230 N.ar   70  A70        -0.2193
   1504   C5       30.6720  -14.4000  -14.8020 C.ar   70  A70         0.1518
   1505   C6       29.9210  -15.4570  -15.3570 C.ar   70  A70         0.1919
   1506   N6       29.4660  -15.4640  -16.6100 N.pl3  70  A70        -0.1054
   1507   N.1      29.6670  -16.5270  -14.5720 N.ar   70  A70        -0.2040
   1508   C.2      30.1370  -16.5270  -13.3170 C.ar   70  A70         0.2016
   1509   N.3      30.8630  -15.6030  -12.6870 N.ar   70  A70        -0.2048
   1510   C4       31.0950  -14.5510  -13.4940 C.ar   70  A70         0.1692
   1511    P.3     37.0850  -13.9210  -12.8270 P.3    71  G71         0.2141
   1512  OP1       38.4710  -13.6470  -12.3120 O.3    71  G71        -0.4373
   1513  OP2       36.7520  -13.6920  -14.2580 O.2    71  G71        -0.5172
   1514  O5'       36.7590  -15.4440  -12.4850 O.3    71  G71        -0.3114
   1515  C5'       36.6840  -15.8750  -11.1150 C.3    71  G71         0.1812
   1516  C4'       36.0820  -17.2520  -11.0400 C.3    71  G71         0.1773
   1517  O4'       34.6560  -17.1740  -11.2930 O.3    71  G71        -0.3307
   1518  C3'       36.5820  -18.2270  -12.0830 C.3    71  G71         0.1860
   1519  O3'       37.8070  -18.7770  -11.6460 O.3    71  G71        -0.3112
   1520  C2'       35.4520  -19.2440  -12.1170 C.3    71  G71         0.2309
   1521  O2'       35.5190  -20.2060  -11.0840 O.3    71  G71        -0.2156
   1522  C1'       34.2290  -18.3360  -11.9830 C.3    71  G71         0.2408
   1523   N9       33.6910  -17.9250  -13.2750 N.ar   71  G71        -0.2693
   1524   C8       33.9330  -16.7390  -13.9250 C.ar   71  G71         0.1817
   1525   N7       33.3310  -16.6550  -15.0800 N.ar   71  G71        -0.2173
   1526   C5       32.6520  -17.8600  -15.2020 C.ar   71  G71         0.1748
   1527   C6       31.8180  -18.3430  -16.2430 C.ar   71  G71         0.3023
   1528   O6       31.5080  -17.7850  -17.3060 O.2    71  G71        -0.2633
   1529   N.1      31.3390  -19.6180  -15.9620 N.ar   71  G71        -0.1709
   1530   C.2      31.6200  -20.3350  -14.8250 C.ar   71  G71         0.2606
   1531   N.2      31.0490  -21.5450  -14.7320 N.pl3  71  G71        -0.0859
   1532   N.3      32.4010  -19.8980  -13.8510 N.ar   71  G71        -0.1918
   1533   C4       32.8740  -18.6600  -14.1010 C.ar   71  G71         0.1723
   1534    P.3     38.9640  -19.1990  -12.6670 P.3    72  C72         0.2141
   1535  OP1       40.0710  -19.7720  -11.8560 O.3    72  C72        -0.4373
   1536  OP2       39.2550  -18.0890  -13.6000 O.2    72  C72        -0.5172
   1537  O5'       38.2630  -20.3760  -13.4820 O.3    72  C72        -0.3114
   1538  C5'       38.1050  -21.6620  -12.8520 C.3    72  C72         0.1812
   1539  C4'       37.2250  -22.5810  -13.6620 C.3    72  C72         0.1773
   1540  O4'       35.8960  -22.0170  -13.8260 O.3    72  C72        -0.3307
   1541  C3'       37.6640  -22.8540  -15.0850 C.3    72  C72         0.1860
   1542  O3'       38.7750  -23.7460  -15.1610 O.3    72  C72        -0.3112
   1543  C2'       36.3730  -23.3860  -15.6890 C.3    72  C72         0.2309
   1544  O2'       36.1560  -24.7150  -15.2470 O.3    72  C72        -0.2156
   1545  C1'       35.3520  -22.4290  -15.0720 C.3    72  C72         0.2420
   1546   N.1      35.1000  -21.2310  -15.8970 N.ar   72  C72        -0.2535
   1547   C.2      34.1620  -21.3140  -16.9290 C.ar   72  C72         0.3532
   1548   O.2      33.5540  -22.3800  -17.1020 O.2    72  C72        -0.2443
   1549   N.3      33.9410  -20.2300  -17.7100 N.ar   72  C72        -0.1739
   1550   C4       34.6170  -19.0990  -17.4900 C.ar   72  C72         0.1759
   1551   N.4      34.3560  -18.0550  -18.2750 N.pl3  72  C72        -0.1070
   1552   C5       35.5760  -18.9860  -16.4450 C.ar   72  C72         0.0566
   1553   C6       35.7870  -20.0670  -15.6820 C.ar   72  C72         0.0850
   1554    P.3     39.8370  -23.3910  -16.3000 P.3    73  G73         0.2141
   1555  OP1       41.0260  -24.2770  -16.1430 O.3    73  G73        -0.4373
   1556  OP2       39.9870  -21.9010  -16.2840 O.2    73  G73        -0.5172
   1557  O5'       39.1330  -23.8530  -17.6530 O.3    73  G73        -0.3114
   1558  C5'       38.7610  -25.2290  -17.8390 C.3    73  G73         0.1812
   1559  C4'       37.9750  -25.4030  -19.1150 C.3    73  G73         0.1773
   1560  O4'       36.7710  -24.5940  -19.0680 O.3    73  G73        -0.3307
   1561  C3'       38.6460  -24.9220  -20.3900 C.3    73  G73         0.1860
   1562  O3'       39.6750  -25.7680  -20.8700 O.3    73  G73        -0.3112
   1563  C2'       37.4540  -24.8160  -21.3280 C.3    73  G73         0.2309
   1564  O2'       37.0280  -26.0850  -21.7650 O.3    73  G73        -0.2156
   1565  C1'       36.4100  -24.2090  -20.3910 C.3    73  G73         0.2408
   1566   N9       36.3950  -22.7520  -20.4590 N.ar   73  G73        -0.2693
   1567   C8       37.0030  -21.8780  -19.5900 C.ar   73  G73         0.1817
   1568   N7       36.8390  -20.6280  -19.9230 N.ar   73  G73        -0.2173
   1569   C5       36.0720  -20.6770  -21.0790 C.ar   73  G73         0.1748
   1570   C6       35.5590  -19.6280  -21.8900 C.ar   73  G73         0.3023
   1571   O6       35.6770  -18.4030  -21.7360 O.2    73  G73        -0.2633
   1572   N.1      34.8410  -20.1260  -22.9720 N.ar   73  G73        -0.1709
   1573   C.2      34.6240  -21.4560  -23.2320 C.ar   73  G73         0.2606
   1574   N.2      33.8860  -21.7330  -24.3180 N.pl3  73  G73        -0.0859
   1575   N.3      35.0880  -22.4410  -22.4800 N.ar   73  G73        -0.1918
   1576   C4       35.7950  -21.9820  -21.4260 C.ar   73  G73         0.1723
   1577    P.3     41.0330  -25.1420  -21.4440 P.3    74  G74         0.2141
   1578  OP1       41.8820  -26.3180  -21.8040 O.2    74  G74        -0.5172
   1579  OP2       41.5150  -24.1250  -20.4730 O.3    74  G74        -0.4373
   1580  O5'       40.6230  -24.3770  -22.7770 O.3    74  G74        -0.3114
   1581  C5'       40.2040  -25.1020  -23.9380 C.3    74  G74         0.1812
   1582  C4'       39.6030  -24.1370  -24.9180 C.3    74  G74         0.1773
   1583  O4'       38.5400  -23.3760  -24.2820 O.3    74  G74        -0.3307
   1584  C3'       40.5360  -23.0440  -25.3940 C.3    74  G74         0.1860
   1585  O3'       41.4980  -23.5210  -26.3170 O.3    74  G74        -0.3112
   1586  C2'       39.5480  -22.0320  -25.9580 C.3    74  G74         0.2309
   1587  O2'       39.1610  -22.3620  -27.2730 O.3    74  G74        -0.2156
   1588  C1'       38.4040  -22.1240  -24.9400 C.3    74  G74         0.2408
   1589   N9       38.5400  -21.0650  -23.9480 N.ar   74  G74        -0.2693
   1590   C8       39.1090  -21.1690  -22.7020 C.ar   74  G74         0.1817
   1591   N7       39.1630  -20.0300  -22.0660 N.ar   74  G74        -0.2173
   1592   C5       38.6190  -19.1140  -22.9560 C.ar   74  G74         0.1748
   1593   C6       38.4160  -17.7160  -22.8250 C.ar   74  G74         0.3023
   1594   O6       38.6730  -16.9850  -21.8580 O.2    74  G74        -0.2633
   1595   N.1      37.8320  -17.1760  -23.9670 N.ar   74  G74        -0.1709
   1596   C.2      37.4810  -17.8870  -25.0860 C.ar   74  G74         0.2606
   1597   N.2      36.9210  -17.1830  -26.0790 N.pl3  74  G74        -0.0859
   1598   N.3      37.6730  -19.1900  -25.2240 N.ar   74  G74        -0.1918
   1599   C4       38.2370  -19.7360  -24.1260 C.ar   74  G74         0.1723
   1600    P.3     43.0370  -23.1780  -26.0120 P.3    75  A75         0.2141
   1601  OP1       43.8430  -23.5500  -27.2040 O.2    75  A75        -0.5172
   1602  OP2       43.4370  -23.7030  -24.6850 O.3    75  A75        -0.4373
   1603  O5'       43.0060  -21.5910  -25.8790 O.3    75  A75        -0.3114
   1604  C5'       44.1980  -20.8590  -25.5550 C.3    75  A75         0.1812
   1605  C4'       44.3870  -19.7320  -26.5380 C.3    75  A75         0.1773
   1606  O4'       44.7530  -20.2720  -27.8330 O.3    75  A75        -0.3307
   1607  C3'       43.1450  -18.8960  -26.8230 C.3    75  A75         0.1860
   1608  O3'       43.0510  -17.8240  -25.9140 O.3    75  A75        -0.3112
   1609  C2'       43.4560  -18.3110  -28.1910 C.3    75  A75         0.2309
   1610  O2'       44.2600  -17.1470  -28.1360 O.3    75  A75        -0.2156
   1611  C1'       44.1670  -19.4850  -28.8590 C.3    75  A75         0.2408
   1612   N9       43.2680  -20.3350  -29.6400 N.ar   75  A75        -0.2693
   1613   C8       42.8630  -21.6180  -29.3620 C.ar   75  A75         0.1816
   1614   N7       42.0670  -22.1310  -30.2700 N.ar   75  A75        -0.2193
   1615   C5       41.9400  -21.1190  -31.2110 C.ar   75  A75         0.1518
   1616   C6       41.2290  -21.0370  -32.4220 C.ar   75  A75         0.1919
   1617   N6       40.4790  -22.0290  -32.9090 N.pl3  75  A75        -0.1054
   1618   N.1      41.3070  -19.8810  -33.1180 N.ar   75  A75        -0.2040
   1619   C.2      42.0570  -18.8840  -32.6260 C.ar   75  A75         0.2016
   1620   N.3      42.7750  -18.8430  -31.5050 N.ar   75  A75        -0.2048
   1621   C4       42.6740  -20.0060  -30.8360 C.ar   75  A75         0.1692
   1622    P.3     41.5970  -17.3370  -25.5850 P.3    76  A76         0.2141
   1623  OP1       41.5990  -16.1180  -24.7350 O.3    76  A76        -0.4373
   1624  OP2       40.9600  -18.5960  -25.1000 O.2    76  A76        -0.5172
   1625  O5'       41.0420  -16.8600  -26.9950 O.3    76  A76        -0.3114
   1626  C5'       41.0820  -15.4760  -27.3540 C.3    76  A76         0.1812
   1627  C4'       40.4640  -15.3040  -28.7090 C.3    76  A76         0.1773
   1628  O4'       40.8320  -16.4380  -29.5340 O.3    76  A76        -0.3307
   1629  C3'       38.9430  -15.3010  -28.6920 C.3    76  A76         0.1860
   1630  O3'       38.5320  -13.9500  -28.5180 O.3    76  A76        -0.3112
   1631  C2'       38.5940  -15.8340  -30.0740 C.3    76  A76         0.2309
   1632  O2'       38.6500  -14.8350  -31.0650 O.3    76  A76        -0.2156
   1633  C1'       39.7310  -16.8220  -30.3320 C.3    76  A76         0.2408
   1634   N9       39.3860  -18.2120  -30.0290 N.ar   76  A76        -0.2693
   1635   C8       39.4850  -18.8850  -28.8360 C.ar   76  A76         0.1816
   1636   N7       39.0930  -20.1350  -28.9000 N.ar   76  A76        -0.2193
   1637   C5       38.7030  -20.2950  -30.2220 C.ar   76  A76         0.1518
   1638   C6       38.1830  -21.3960  -30.9340 C.ar   76  A76         0.1919
   1639   N6       37.9620  -22.5940  -30.3920 N.pl3  76  A76        -0.1054
   1640   N.1      37.8950  -21.2180  -32.2410 N.ar   76  A76        -0.2040
   1641   C.2      38.1150  -20.0130  -32.7870 C.ar   76  A76         0.2016
   1642   N.3      38.6000  -18.9070  -32.2270 N.ar   76  A76        -0.2048
   1643   C4       38.8730  -19.1160  -30.9270 C.ar   76  A76         0.1692
   1644    P.3     37.1640  -13.5650  -27.7790 P.3    77  A77         0.2141
   1645  OP1       37.0480  -12.0930  -27.6880 O.2    77  A77        -0.5172
   1646  OP2       37.0820  -14.3830  -26.5420 O.3    77  A77        -0.4373
   1647  O5'       36.1200  -14.0460  -28.8850 O.3    77  A77        -0.3114
   1648  C5'       35.8710  -13.2750  -30.0880 C.3    77  A77         0.1812
   1649  C4'       34.9400  -14.0310  -31.0140 C.3    77  A77         0.1773
   1650  O4'       35.5850  -15.2720  -31.4050 O.3    77  A77        -0.3307
   1651  C3'       33.5920  -14.4360  -30.4180 C.3    77  A77         0.1860
   1652  O3'       32.6120  -13.4080  -30.5550 O.3    77  A77        -0.3112
   1653  C2'       33.2550  -15.7320  -31.1620 C.3    77  A77         0.2309
   1654  O2'       32.4730  -15.6910  -32.3460 O.3    77  A77        -0.2156
   1655  C1'       34.6430  -16.3290  -31.4160 C.3    77  A77         0.2408
   1656   N9       35.0340  -17.3220  -30.4100 N.ar   77  A77        -0.2693
   1657   C8       35.4610  -17.1050  -29.1250 C.ar   77  A77         0.1816
   1658   N7       35.7030  -18.2060  -28.4550 N.ar   77  A77        -0.2193
   1659   C5       35.4130  -19.2170  -29.3590 C.ar   77  A77         0.1518
   1660   C6       35.4620  -20.6190  -29.2600 C.ar   77  A77         0.1919
   1661   N6       35.8500  -21.2730  -28.1640 N.pl3  77  A77        -0.1054
   1662   N.1      35.0960  -21.3380  -30.3420 N.ar   77  A77        -0.2040
   1663   C.2      34.7120  -20.6830  -31.4460 C.ar   77  A77         0.2016
   1664   N.3      34.6230  -19.3730  -31.6610 N.ar   77  A77        -0.2048
   1665   C4       34.9940  -18.6870  -30.5660 C.ar   77  A77         0.1692
   1666    P.3     31.2720  -13.4250  -29.6480 P.3    78  C78         0.2141
   1667  OP1       30.0930  -13.1120  -30.4990 O.2    78  C78        -0.5172
   1668  OP2       31.4500  -12.7090  -28.3530 O.3    78  C78        -0.4373
   1669  O5'       31.2000  -14.9630  -29.2730 O.3    78  C78        -0.3114
   1670  C5'       29.9650  -15.6800  -29.3090 C.3    78  C78         0.1812
   1671  C4'       30.2750  -17.1440  -29.1710 C.3    78  C78         0.1773
   1672  O4'       31.7120  -17.3000  -28.9900 O.3    78  C78        -0.3307
   1673  C3'       29.6710  -17.8080  -27.9490 C.3    78  C78         0.1860
   1674  O3'       28.3030  -18.1490  -28.1770 O.3    78  C78        -0.3112
   1675  C2'       30.6200  -18.9800  -27.7350 C.3    78  C78         0.2309
   1676  O2'       30.4310  -20.0320  -28.6570 O.3    78  C78        -0.2156
   1677  C1'       31.9690  -18.3380  -28.0560 C.3    78  C78         0.2420
   1678   N.1      32.6790  -17.7710  -26.8890 N.ar   78  C78        -0.2535
   1679   C.2      33.4070  -18.6330  -26.0530 C.ar   78  C78         0.3532
   1680   O.2      33.4240  -19.8460  -26.3080 O.2    78  C78        -0.2443
   1681   N.3      34.0630  -18.1200  -24.9860 N.ar   78  C78        -0.1739
   1682   C4       34.0100  -16.8080  -24.7360 C.ar   78  C78         0.1759
   1683   N.4      34.6680  -16.3480  -23.6710 N.pl3  78  C78        -0.1070
   1684   C5       33.2780  -15.9090  -25.5700 C.ar   78  C78         0.0566
   1685   C6       32.6380  -16.4280  -26.6270 C.ar   78  C78         0.0850
   1686    P.3     27.2440  -18.1320  -26.9480 P.3    79  G79         0.2141
   1687  OP1       25.8810  -18.3700  -27.5030 O.2    79  G79        -0.5172
   1688  OP2       27.4810  -16.9510  -26.0700 O.3    79  G79        -0.4373
   1689  O5'       27.7220  -19.4210  -26.1410 O.3    79  G79        -0.3114
   1690  C5'       27.9220  -20.6740  -26.8170 C.3    79  G79         0.1812
   1691  C4'       28.5090  -21.6890  -25.8720 C.3    79  G79         0.1773
   1692  O4'       29.8880  -21.3470  -25.5920 O.3    79  G79        -0.3307
   1693  C3'       27.8760  -21.7780  -24.4920 C.3    79  G79         0.1860
   1694  O3'       26.6660  -22.5390  -24.4940 O.3    79  G79        -0.3112
   1695  C2'       28.9850  -22.4570  -23.7020 C.3    79  G79         0.2309
   1696  O2'       29.0550  -23.8390  -23.9570 O.3    79  G79        -0.2156
   1697  C1'       30.2310  -21.7920  -24.2890 C.3    79  G79         0.2408
   1698   N9       30.6720  -20.6420  -23.5050 N.ar   79  G79        -0.2693
   1699   C8       30.4940  -19.3140  -23.8060 C.ar   79  G79         0.1817
   1700   N7       30.9720  -18.5130  -22.8930 N.ar   79  G79        -0.2173
   1701   C5       31.4860  -19.3640  -21.9250 C.ar   79  G79         0.1748
   1702   C6       32.1420  -19.0740  -20.7020 C.ar   79  G79         0.3023
   1703   O6       32.3960  -17.9670  -20.2030 O.2    79  G79        -0.2633
   1704   N.1      32.5050  -20.2360  -20.0300 N.ar   79  G79        -0.1709
   1705   C.2      32.2770  -21.5120  -20.4800 C.ar   79  G79         0.2606
   1706   N.2      32.7130  -22.5030  -19.6910 N.pl3  79  G79        -0.0859
   1707   N.3      31.6720  -21.7960  -21.6190 N.ar   79  G79        -0.1918
   1708   C4       31.3090  -20.6810  -22.2880 C.ar   79  G79         0.1723
   1709    P.3     25.4540  -22.2730  -23.4780 P.3    80  U80         0.2141
   1710  OP1       24.3550  -23.1840  -23.8650 O.2    80  U80        -0.5172
   1711  OP2       25.2030  -20.8010  -23.4220 O.3    80  U80        -0.4373
   1712  O5'       25.9290  -22.7360  -22.0240 O.3    80  U80        -0.3114
   1713  C5'       26.3910  -24.0730  -21.7450 C.3    80  U80         0.1812
   1714  C4'       27.0930  -24.1260  -20.4050 C.3    80  U80         0.1773
   1715  O4'       28.3900  -23.4700  -20.5070 O.3    80  U80        -0.3307
   1716  C3'       26.3960  -23.4140  -19.2550 C.3    80  U80         0.1860
   1717  O3'       25.3750  -24.1970  -18.6550 O.3    80  U80        -0.3112
   1718  C2'       27.5590  -23.0990  -18.3120 C.3    80  U80         0.2309
   1719  O2'       27.9860  -24.1010  -17.4050 O.3    80  U80        -0.2156
   1720  C1'       28.6790  -22.7750  -19.3020 C.3    80  U80         0.2420
   1721   N.1      28.7560  -21.3370  -19.5960 N.ar   80  U80        -0.2534
   1722   C.2      29.6050  -20.5630  -18.8260 C.ar   80  U80         0.3546
   1723   O.2      30.3020  -21.0240  -17.9400 O.2    80  U80        -0.2443
   1724   N.3      29.6090  -19.2250  -19.1420 N.ar   80  U80        -0.1530
   1725   C4       28.8670  -18.5920  -20.1210 C.ar   80  U80         0.2846
   1726   O4       28.9970  -17.3760  -20.2940 O.2    80  U80        -0.2650
   1727   C5       28.0090  -19.4600  -20.8690 C.ar   80  U80         0.0814
   1728   C6       27.9750  -20.7680  -20.5810 C.ar   80  U80         0.0870
   1729    P.3     24.1040  -23.4970  -17.9580 P.3    81  U81         0.2141
   1730  OP1       22.9740  -24.4620  -17.9800 O.3    81  U81        -0.4373
   1731  OP2       23.9070  -22.1360  -18.5160 O.2    81  U81        -0.5172
   1732  O5'       24.5560  -23.3200  -16.4410 O.3    81  U81        -0.3114
   1733  C5'       25.0540  -24.4270  -15.6730 C.3    81  U81         0.1812
   1734  C4'       25.8370  -23.9140  -14.4920 C.3    81  U81         0.1773
   1735  O4'       27.1040  -23.3350  -14.9400 O.3    81  U81        -0.3307
   1736  C3'       25.1960  -22.7760  -13.7180 C.3    81  U81         0.1860
   1737  O3'       24.0920  -23.1370  -12.8940 O.3    81  U81        -0.3112
   1738  C2'       26.4070  -22.2020  -12.9930 C.3    81  U81         0.2309
   1739  O2'       26.9040  -23.0100  -11.9400 O.3    81  U81        -0.2156
   1740  C1'       27.4410  -22.2210  -14.1170 C.3    81  U81         0.2420
   1741   N.1      27.4290  -20.9970  -14.9420 N.ar   81  U81        -0.2534
   1742   C.2      28.1710  -19.9060  -14.5100 C.ar   81  U81         0.3546
   1743   O.2      28.8240  -19.9110  -13.4800 O.2    81  U81        -0.2443
   1744   N.3      28.1240  -18.8130  -15.3410 N.ar   81  U81        -0.1530
   1745   C4       27.4270  -18.6920  -16.5250 C.ar   81  U81         0.2846
   1746   O4       27.4800  -17.6350  -17.1560 O.2    81  U81        -0.2650
   1747   C5       26.6780  -19.8560  -16.8970 C.ar   81  U81         0.0814
   1748   C6       26.7020  -20.9400  -16.1130 C.ar   81  U81         0.0870
   1749    P.3     23.1160  -21.9880  -12.3110 P.3    82  G82         0.2141
   1750  OP1       22.1900  -22.6710  -11.3690 O.3    82  G82        -0.4373
   1751  OP2       22.5630  -21.1720  -13.4360 O.2    82  G82        -0.5172
   1752  O5'       24.0610  -21.0550  -11.4330 O.3    82  G82        -0.3114
   1753  C5'       24.2970  -21.3200  -10.0480 C.3    82  G82         0.1812
   1754  C4'       25.2040  -20.2580   -9.4770 C.3    82  G82         0.1773
   1755  O4'       26.2770  -19.9340  -10.4060 O.3    82  G82        -0.3307
   1756  C3'       24.5540  -18.9150   -9.2050 C.3    82  G82         0.1860
   1757  O3'       23.8290  -18.9510   -7.9870 O.3    82  G82        -0.3112
   1758  C2'       25.7700  -18.0000   -9.1480 C.3    82  G82         0.2309
   1759  O2'       26.5110  -18.1430   -7.9570 O.3    82  G82        -0.2156
   1760  C1'       26.5970  -18.5480  -10.3070 C.3    82  G82         0.2408
   1761   N9       26.3010  -17.9070  -11.5890 N.ar   82  G82        -0.2693
   1762   C8       25.5150  -18.4160  -12.5940 C.ar   82  G82         0.1817
   1763   N7       25.4380  -17.6300  -13.6330 N.ar   82  G82        -0.2173
   1764   C5       26.2180  -16.5340  -13.2950 C.ar   82  G82         0.1748
   1765   C6       26.5090  -15.3560  -14.0280 C.ar   82  G82         0.3023
   1766   O6       26.1220  -15.0370  -15.1570 O.2    82  G82        -0.2633
   1767   N.1      27.3450  -14.5030  -13.3150 N.ar   82  G82        -0.1709
   1768   C.2      27.8230  -14.7400  -12.0520 C.ar   82  G82         0.2606
   1769   N.2      28.6000  -13.7810  -11.5270 N.pl3  82  G82        -0.0859
   1770   N.3      27.5670  -15.8420  -11.3590 N.ar   82  G82        -0.1918
   1771   C4       26.7610  -16.6880  -12.0370 C.ar   82  G82         0.1723
   1772    P.3     22.6390  -17.9180   -7.7980 P.3    83  A83         0.2141
   1773  OP1       22.2870  -17.9760   -6.3550 O.3    83  A83        -0.4373
   1774  OP2       21.5960  -18.1210   -8.8380 O.2    83  A83        -0.5172
   1775  O5'       23.3700  -16.5360   -8.0950 O.3    83  A83        -0.3114
   1776  C5'       23.1960  -15.4180   -7.2150 C.3    83  A83         0.1812
   1777  C4'       24.3350  -14.4410   -7.3630 C.3    83  A83         0.1773
   1778  O4'       25.1500  -14.7570   -8.5260 O.3    83  A83        -0.3307
   1779  C3'       23.8810  -13.0120   -7.6020 C.3    83  A83         0.1860
   1780  O3'       23.5060  -12.5250   -6.3240 O.3    83  A83        -0.3112
   1781  C2'       25.0970  -12.3880   -8.2920 C.3    83  A83         0.2309
   1782  O2'       26.1670  -11.8580   -7.5250 O.3    83  A83        -0.2156
   1783  C1'       25.5980  -13.5570   -9.1400 C.3    83  A83         0.2408
   1784   N9       25.0860  -13.5320  -10.5080 N.ar   83  A83        -0.2693
   1785   C8       24.3260  -14.5070  -11.0980 C.ar   83  A83         0.1816
   1786   N7       23.9940  -14.2420  -12.3360 N.ar   83  A83        -0.2193
   1787   C5       24.5700  -13.0060  -12.5780 C.ar   83  A83         0.1518
   1788   C6       24.5910  -12.1850  -13.7130 C.ar   83  A83         0.1919
   1789   N6       23.9900  -12.5020  -14.8620 N.pl3  83  A83        -0.1054
   1790   N.1      25.2660  -11.0160  -13.6330 N.ar   83  A83        -0.2040
   1791   C.2      25.8690  -10.7050  -12.4790 C.ar   83  A83         0.2016
   1792   N.3      25.9160  -11.3930  -11.3410 N.ar   83  A83        -0.2048
   1793   C4       25.2440  -12.5530  -11.4600 C.ar   83  A83         0.1692
   1794    P.3     22.2620  -11.5380   -6.2250 P.3    84  A84         0.2141
   1795  OP1       22.2720  -10.9880   -4.8340 O.3    84  A84        -0.4373
   1796  OP2       21.0470  -12.2160   -6.7600 O.2    84  A84        -0.5172
   1797  O5'       22.6830  -10.3580   -7.2140 O.3    84  A84        -0.3114
   1798  C5'       23.6960   -9.4000   -6.8380 C.3    84  A84         0.1812
   1799  C4'       23.9790   -8.4480   -7.9730 C.3    84  A84         0.1773
   1800  O4'       24.4760   -9.1770   -9.1300 O.3    84  A84        -0.3307
   1801  C3'       22.7770   -7.6620   -8.4830 C.3    84  A84         0.1860
   1802  O3'       22.6180   -6.4950   -7.6920 O.3    84  A84        -0.3112
   1803  C2'       23.1810   -7.3500   -9.9190 C.3    84  A84         0.2309
   1804  O2'       24.0210   -6.2220  -10.0440 O.3    84  A84        -0.2156
   1805  C1'       23.9260   -8.6240  -10.3170 C.3    84  A84         0.2408
   1806   N9       23.0480   -9.6260  -10.9170 N.ar   84  A84        -0.2693
   1807   C8       22.5490  -10.7570  -10.3170 C.ar   84  A84         0.1816
   1808   N7       21.7890  -11.4810  -11.1010 N.ar   84  A84        -0.2193
   1809   C5       21.7850  -10.7820  -12.3000 C.ar   84  A84         0.1518
   1810   C6       21.1520  -11.0250  -13.5360 C.ar   84  A84         0.1919
   1811   N6       20.3720  -12.0800  -13.7740 N.pl3  84  A84        -0.1054
   1812   N.1      21.3340  -10.1190  -14.5230 N.ar   84  A84        -0.2040
   1813   C.2      22.1130   -9.0510  -14.2780 C.ar   84  A84         0.2016
   1814   N.3      22.7580   -8.7140  -13.1600 N.ar   84  A84        -0.2048
   1815   C4       22.5510   -9.6320  -12.1990 C.ar   84  A84         0.1692
   1816    P.3     21.1590   -5.9440   -7.3210 P.3    85  A85         0.2141
   1817  OP1       21.3570   -4.6440   -6.6430 O.3    85  A85        -0.4373
   1818  OP2       20.3260   -6.9890   -6.6800 O.2    85  A85        -0.5172
   1819  O5'       20.5100   -5.6170   -8.7390 O.3    85  A85        -0.3114
   1820  C5'       20.9930   -4.5000   -9.5100 C.3    85  A85         0.1812
   1821  C4'       20.4500   -4.5540  -10.9110 C.3    85  A85         0.1773
   1822  O4'       20.8950   -5.7710  -11.5660 O.3    85  A85        -0.3307
   1823  C3'       18.9350   -4.6510  -11.0070 C.3    85  A85         0.1860
   1824  O3'       18.3340   -3.4000  -10.6820 O.3    85  A85        -0.3112
   1825  C2'       18.7670   -5.2000  -12.4180 C.3    85  A85         0.2309
   1826  O2'       19.0330   -4.2700  -13.4460 O.3    85  A85        -0.2156
   1827  C1'       19.8840   -6.2410  -12.4480 C.3    85  A85         0.2408
   1828   N9       19.4140   -7.5390  -11.9710 N.ar   85  A85        -0.2693
   1829   C8       19.5140   -8.0640  -10.7060 C.ar   85  A85         0.1816
   1830   N7       18.9490   -9.2390  -10.5760 N.ar   85  A85        -0.2193
   1831   C5       18.4310   -9.5020  -11.8360 C.ar   85  A85         0.1518
   1832   C6       17.7130  -10.5950  -12.3560 C.ar   85  A85         0.1919
   1833   N6       17.3880  -11.6750  -11.6420 N.pl3  85  A85        -0.1054
   1834   N.1      17.3380  -10.5410  -13.6540 N.ar   85  A85        -0.2040
   1835   C.2      17.6840   -9.4660  -14.3750 C.ar   85  A85         0.2016
   1836   N.3      18.3670   -8.3820  -14.0020 N.ar   85  A85        -0.2048
   1837   C4       18.7110   -8.4630  -12.7050 C.ar   85  A85         0.1692
   1838    P.3     16.8950   -3.3930   -9.9900 P.3    86  G86         0.2141
   1839  OP1       16.4640   -1.9750   -9.9470 O.2    86  G86        -0.5172
   1840  OP2       16.9090   -4.1920   -8.7390 O.3    86  G86        -0.4373
   1841  O5'       16.1040   -4.1500  -11.1520 O.3    86  G86        -0.3114
   1842  C5'       15.7200   -3.4300  -12.3480 C.3    86  G86         0.1812
   1843  C4'       14.8470   -4.2730  -13.2370 C.3    86  G86         0.1773
   1844  O4'       15.5160   -5.5320  -13.4930 O.3    86  G86        -0.3307
   1845  C3'       13.4910   -4.6630  -12.6720 C.3    86  G86         0.1860
   1846  O3'       12.5220   -3.6480  -12.9090 O.3    86  G86        -0.3112
   1847  C2'       13.1810   -5.9470  -13.4360 C.3    86  G86         0.2309
   1848  O2'       12.6600   -5.7940  -14.7410 O.3    86  G86        -0.2156
   1849  C1'       14.5650   -6.5760  -13.5340 C.3    86  G86         0.2408
   1850   N9       14.8340   -7.4780  -12.4290 N.ar   86  G86        -0.2693
   1851   C8       15.6190   -7.2440  -11.3280 C.ar   86  G86         0.1817
   1852   N7       15.6680   -8.2600  -10.5100 N.ar   86  G86        -0.2173
   1853   C5       14.8760   -9.2250  -11.1150 C.ar   86  G86         0.1748
   1854   C6       14.5530  -10.5370  -10.6980 C.ar   86  G86         0.3023
   1855   O6       14.9200  -11.1310   -9.6810 O.2    86  G86        -0.2633
   1856   N.1      13.7100  -11.1700  -11.6060 N.ar   86  G86        -0.1709
   1857   C.2      13.2370  -10.6100  -12.7650 C.ar   86  G86         0.2606
   1858   N.2      12.4410  -11.3820  -13.5160 N.pl3  86  G86        -0.0859
   1859   N.3      13.5230   -9.3820  -13.1600 N.ar   86  G86        -0.1918
   1860   C4       14.3490   -8.7540  -12.2960 C.ar   86  G86         0.1723
   1861    P.3     11.1030   -3.6750  -12.1670 P.3    87  A87         0.2141
   1862  OP1       10.2600   -2.6100  -12.7650 O.2    87  A87        -0.5172
   1863  OP2       11.4210   -3.6660  -10.7080 O.3    87  A87        -0.4373
   1864  O5'       10.3510   -5.0410  -12.4770 O.3    87  A87        -0.3114
   1865  C5'        9.8580   -5.3300  -13.7950 C.3    87  A87         0.1812
   1866  C4'        9.0710   -6.6150  -13.7670 C.3    87  A87         0.1773
   1867  O4'        9.9750   -7.7570  -13.7250 O.3    87  A87        -0.3307
   1868  C3'        8.1860   -6.7970  -12.5410 C.3    87  A87         0.1860
   1869  O3'        6.9360   -6.1860  -12.7790 O.3    87  A87        -0.3112
   1870  C2'        8.0420   -8.3070  -12.4950 C.3    87  A87         0.2309
   1871  O2'        7.1330   -8.7700  -13.4710 O.3    87  A87        -0.2156
   1872  C1'        9.4620   -8.7410  -12.8460 C.3    87  A87         0.2408
   1873   N9       10.3190   -8.8150  -11.6620 N.ar   87  A87        -0.2693
   1874   C8       11.0520   -7.8210  -11.0610 C.ar   87  A87         0.1816
   1875   N7       11.6830   -8.2110   -9.9810 N.ar   87  A87        -0.2193
   1876   C5       11.3300   -9.5470   -9.8510 C.ar   87  A87         0.1518
   1877   C6       11.6790  -10.5340   -8.9100 C.ar   87  A87         0.1919
   1878   N6       12.4890  -10.3160   -7.8750 N.pl3  87  A87        -0.1054
   1879   N.1      11.1580  -11.7690   -9.0720 N.ar   87  A87        -0.2040
   1880   C.2      10.3420  -11.9880  -10.1100 C.ar   87  A87         0.2016
   1881   N.3       9.9450  -11.1470  -11.0620 N.ar   87  A87        -0.2048
   1882   C4       10.4810   -9.9290  -10.8740 C.ar   87  A87         0.1692
   1883    P.3      6.1450   -5.5310  -11.5810 P.3    88  U88         0.2141
   1884  OP1        5.1740   -4.6780  -12.3070 O.2    88  U88        -0.5172
   1885  OP2        7.1000   -4.9340  -10.6180 O.3    88  U88        -0.4373
   1886  O5'        5.4120   -6.7030  -10.7960 O.3    88  U88        -0.3114
   1887  C5'        4.5430   -7.6090  -11.4810 C.3    88  U88         0.1812
   1888  C4'        4.3900   -8.8610  -10.6610 C.3    88  U88         0.1773
   1889  O4'        5.6520   -9.5860  -10.6130 O.3    88  U88        -0.3307
   1890  C3'        4.0950   -8.6410   -9.1890 C.3    88  U88         0.1860
   1891  O3'        2.7860   -8.1750   -8.9040 O.3    88  U88        -0.3112
   1892  C2'        4.4450  -10.0010   -8.6090 C.3    88  U88         0.2309
   1893  O2'        3.4470  -10.9680   -8.8560 O.3    88  U88        -0.2156
   1894  C1'        5.7160  -10.3290   -9.4000 C.3    88  U88         0.2420
   1895   N.1       6.9290   -9.9330   -8.6740 N.ar   88  U88        -0.2534
   1896   C.2       7.4330  -10.8100   -7.7330 C.ar   88  U88         0.3546
   1897   O.2       6.9310  -11.8960   -7.5020 O.2    88  U88        -0.2443
   1898   N.3       8.5560  -10.3710   -7.0820 N.ar   88  U88        -0.1530
   1899   C4        9.2090   -9.1740   -7.2600 C.ar   88  U88         0.2846
   1900   O4       10.2050   -8.9230   -6.5850 O.2    88  U88        -0.2650
   1901   C5        8.6200   -8.3150   -8.2390 C.ar   88  U88         0.0814
   1902   C6        7.5230   -8.7110   -8.8920 C.ar   88  U88         0.0870
   1903    P.3      2.6680   -7.1970   -7.6280 P.3    89  G89         0.2141
   1904  OP1        1.3550   -6.5130   -7.7620 O.2    89  G89        -0.5172
   1905  OP2        3.9080   -6.3810   -7.4700 O.3    89  G89        -0.4373
   1906  O5'        2.6240   -8.2320   -6.4200 O.3    89  G89        -0.3114
   1907  C5'        1.5700   -9.1990   -6.3380 C.3    89  G89         0.1812
   1908  C4'        1.8580  -10.1720   -5.2300 C.3    89  G89         0.1773
   1909  O4'        3.1610  -10.7700   -5.4500 O.3    89  G89        -0.3307
   1910  C3'        1.9750   -9.5750   -3.8340 C.3    89  G89         0.1860
   1911  O3'        0.7260   -9.2660   -3.2090 O.3    89  G89        -0.3112
   1912  C2'        2.7560  -10.6590   -3.1080 C.3    89  G89         0.2309
   1913  O2'        1.9050  -11.7090   -2.6910 O.3    89  G89        -0.2156
   1914  C1'        3.7470  -11.0920   -4.1970 C.3    89  G89         0.2408
   1915   N9        5.0350  -10.4070   -4.1000 N.ar   89  G89        -0.2693
   1916   C8        5.4230   -9.2670   -4.7630 C.ar   89  G89         0.1817
   1917   N7        6.6300   -8.8770   -4.4510 N.ar   89  G89        -0.2173
   1918   C5        7.0650   -9.8150   -3.5240 C.ar   89  G89         0.1748
   1919   C6        8.2950   -9.9150   -2.8260 C.ar   89  G89         0.3023
   1920   O6        9.2850   -9.1760   -2.8990 O.2    89  G89        -0.2633
   1921   N.1       8.3150  -11.0200   -1.9820 N.ar   89  G89        -0.1709
   1922   C.2       7.2790  -11.9090   -1.8170 C.ar   89  G89         0.2606
   1923   N.2       7.4900  -12.9110   -0.9500 N.pl3  89  G89        -0.0859
   1924   N.3       6.1260  -11.8250   -2.4580 N.ar   89  G89        -0.1918
   1925   C4        6.0890  -10.7640   -3.2930 C.ar   89  G89         0.1723
   1926    P.3      0.4380   -7.7720   -2.6270 P.3    90  A90         0.2141
   1927  OP1       -0.9070   -7.3130   -3.0960 O.2    90  A90        -0.5172
   1928  OP2        1.6090   -6.8710   -2.8390 O.3    90  A90        -0.4373
   1929  O5'        0.4140   -8.1830   -1.0830 O.3    90  A90        -0.3114
   1930  C5'        0.3730   -9.5680   -0.6660 C.3    90  A90         0.1812
   1931  C4'        1.3200   -9.8300    0.4910 C.3    90  A90         0.1773
   1932  O4'        2.6180  -10.2390   -0.0190 O.3    90  A90        -0.3307
   1933  C3'        1.6460   -8.6560    1.4130 C.3    90  A90         0.1860
   1934  O3'        0.6450   -8.3360    2.3810 O.3    90  A90        -0.3112
   1935  C2'        2.9550   -9.1120    2.0540 C.3    90  A90         0.2309
   1936  O2'        2.8260   -9.9420    3.1890 O.3    90  A90        -0.2156
   1937  C1'        3.6380   -9.8340    0.8880 C.3    90  A90         0.2408
   1938   N9        4.5960   -8.9660    0.1870 N.ar   90  A90        -0.2693
   1939   C8        4.3430   -8.0490   -0.8050 C.ar   90  A90         0.1816
   1940   N7        5.4060   -7.3920   -1.2020 N.ar   90  A90        -0.2193
   1941   C5        6.4270   -7.8960   -0.4080 C.ar   90  A90         0.1518
   1942   C6        7.8020   -7.6060   -0.3330 C.ar   90  A90         0.1919
   1943   N6        8.4110   -6.6960   -1.0980 N.pl3  90  A90        -0.1054
   1944   N.1       8.5400   -8.2840    0.5730 N.ar   90  A90        -0.2040
   1945   C.2       7.9260   -9.1800    1.3560 C.ar   90  A90         0.2016
   1946   N.3       6.6440   -9.5420    1.3810 N.ar   90  A90        -0.2048
   1947   C4        5.9400   -8.8570    0.4620 C.ar   90  A90         0.1692
   1948    P.3      0.4910   -6.8360    2.9990 P.3    91  G91         0.2141
   1949  OP1       -0.5580   -6.9010    4.0550 O.3    91  G91        -0.4373
   1950  OP2        0.3740   -5.8000    1.9310 O.2    91  G91        -0.5172
   1951  O5'        1.8990   -6.5990    3.7060 O.3    91  G91        -0.3114
   1952  C5'        2.1950   -7.2360    4.9560 C.3    91  G91         0.1812
   1953  C4'        3.5220   -6.7570    5.4820 C.3    91  G91         0.1773
   1954  O4'        4.5820   -7.1500    4.5720 O.3    91  G91        -0.3307
   1955  C3'        3.7230   -5.2540    5.5710 C.3    91  G91         0.1860
   1956  O3'        3.1400   -4.6000    6.6890 O.3    91  G91        -0.3112
   1957  C2'        5.2320   -5.1780    5.7180 C.3    91  G91         0.2309
   1958  O2'        5.5550   -5.5290    7.0460 O.3    91  G91        -0.2156
   1959  C1'        5.6790   -6.2580    4.7320 C.3    91  G91         0.2408
   1960   N9        6.0530   -5.7260    3.4240 N.ar   91  G91        -0.2693
   1961   C8        5.2300   -5.5000    2.3460 C.ar   91  G91         0.1817
   1962   N7        5.8610   -5.0120    1.3130 N.ar   91  G91        -0.2173
   1963   C5        7.1790   -4.9020    1.7360 C.ar   91  G91         0.1748
   1964   C6        8.3350   -4.4350    1.0470 C.ar   91  G91         0.3023
   1965   O6        8.4290   -4.0330   -0.1200 O.2    91  G91        -0.2633
   1966   N.1       9.4660   -4.4850    1.8550 N.ar   91  G91        -0.1709
   1967   C.2       9.4920   -4.9400    3.1490 C.ar   91  G91         0.2606
   1968   N.2      10.6880   -4.9270    3.7530 N.pl3  91  G91        -0.0859
   1969   N.3       8.4260   -5.3730    3.8030 N.ar   91  G91        -0.1918
   1970   C4        7.3130   -5.3310    3.0400 C.ar   91  G91         0.1723
   1971    P.3      3.0460   -2.9830    6.6480 P.3    92  C92         0.2141
   1972  OP1        2.5470   -2.5020    7.9690 O.3    92  C92        -0.4373
   1973  OP2        2.3240   -2.5950    5.4090 O.2    92  C92        -0.5172
   1974  O5'        4.5500   -2.5030    6.4290 O.3    92  C92        -0.3114
   1975  C5'        5.1480   -1.4910    7.2560 C.3    92  C92         0.1812
   1976  C4'        6.6520   -1.6290    7.2590 C.3    92  C92         0.1773
   1977  O4'        7.0890   -2.6160    6.2810 O.3    92  C92        -0.3307
   1978  C3'        7.4080   -0.3680    6.8900 C.3    92  C92         0.1860
   1979  O3'        7.5260    0.4210    8.0520 O.3    92  C92        -0.3112
   1980  C2'        8.7290   -0.9270    6.3820 C.3    92  C92         0.2309
   1981  O2'        9.6040   -1.3760    7.3940 O.3    92  C92        -0.2156
   1982  C1'        8.2400   -2.1370    5.5940 C.3    92  C92         0.2420
   1983   N.1       7.8530   -1.8140    4.2070 N.ar   92  C92        -0.2535
   1984   C.2       8.8510   -1.5040    3.2710 C.ar   92  C92         0.3532
   1985   O.2      10.0380   -1.4980    3.6370 O.2    92  C92        -0.2443
   1986   N.3       8.4920   -1.2180    1.9960 N.ar   92  C92        -0.1739
   1987   C4        7.2010   -1.2320    1.6460 C.ar   92  C92         0.1759
   1988   N.4       6.8910   -0.9440    0.3810 N.pl3  92  C92        -0.1070
   1989   C5        6.1700   -1.5440    2.5780 C.ar   92  C92         0.0566
   1990   C6        6.5370   -1.8250    3.8340 C.ar   92  C92         0.0850
   1991    P.3      6.8860    1.8530    7.9690 P.3    93  C93         0.2141
   1992  OP1        5.7950    1.8000    6.9620 O.2    93  C93        -0.5172
   1993  OP2        6.6230    2.3500    9.3460 O.3    93  C93        -0.4373
   1994  O5'        8.1270    2.6440    7.3680 O.3    93  C93        -0.3114
   1995  C5'        9.3630    2.7120    8.1020 C.3    93  C93         0.1812
   1996  C4'       10.4770    3.1820    7.2020 C.3    93  C93         0.1773
   1997  O4'       10.5640    2.2910    6.0630 O.3    93  C93        -0.3307
   1998  C3'       10.2660    4.5460    6.5700 C.3    93  C93         0.1860
   1999  O3'       10.6150    5.6370    7.4050 O.3    93  C93        -0.3112
   2000  C2'       11.1620    4.4780    5.3470 C.3    93  C93         0.2309
   2001  O2'       12.5050    4.7250    5.6940 O.3    93  C93        -0.2156
   2002  C1'       10.9780    3.0220    4.9200 C.3    93  C93         0.2420
   2003   N.1       9.9930    2.8200    3.8410 N.ar   93  C93        -0.2535
   2004   C.2      10.3890    3.0600    2.5220 C.ar   93  C93         0.3532
   2005   O.2      11.5430    3.4600    2.3060 O.2    93  C93        -0.2443
   2006   N.3       9.5100    2.8400    1.5160 N.ar   93  C93        -0.1739
   2007   C4        8.2740    2.4180    1.7920 C.ar   93  C93         0.1759
   2008   N.4       7.4380    2.2310    0.7720 N.pl3  93  C93        -0.1070
   2009   C5        7.8440    2.1640    3.1280 C.ar   93  C93         0.0566
   2010   C6        8.7300    2.3690    4.1120 C.ar   93  C93         0.0850
   2011    P.3      9.5040    6.7890    7.3960 P.3    94  G94         0.2141
   2012  OP1        9.6620    7.5300    8.6750 O.3    94  G94        -0.4373
   2013  OP2        8.1900    6.1500    7.0810 O.2    94  G94        -0.5172
   2014  O5'        9.9380    7.6880    6.1490 O.3    94  G94        -0.3114
   2015  C5'       11.2590    8.2680    6.0600 C.3    94  G94         0.1813
   2016  C4'       11.5070    8.8450    4.6800 C.3    94  G94         0.1801
   2017  O4'       11.6950    7.7570    3.7310 O.3    94  G94        -0.3306
   2018  C3'       10.4010    9.7020    4.0600 C.3    94  G94         0.2161
   2019  O3'       10.3440   11.0780    4.4620 O.3    94  G94        -0.2175
   2020  C2'       10.7240    9.5880    2.5740 C.3    94  G94         0.2337
   2021  O2'       11.7930   10.4040    2.1460 O.3    94  G94        -0.2155
   2022  C1'       11.1570    8.1250    2.4680 C.3    94  G94         0.2409
   2023   N9       10.0430    7.2330    2.1440 N.ar   94  G94        -0.2693
   2024   C8        9.2380    6.5510    3.0230 C.ar   94  G94         0.1817
   2025   N7        8.3130    5.8470    2.4300 N.ar   94  G94        -0.2173
   2026   C5        8.5050    6.0970    1.0790 C.ar   94  G94         0.1748
   2027   C6        7.8070    5.6070   -0.0510 C.ar   94  G94         0.3023
   2028   O6        6.8440    4.8340   -0.0850 O.2    94  G94        -0.2633
   2029   N.1       8.3320    6.1130   -1.2360 N.ar   94  G94        -0.1709
   2030   C.2       9.3990    6.9700   -1.3250 C.ar   94  G94         0.2606
   2031   N.2       9.7610    7.3370   -2.5640 N.pl3  94  G94        -0.0859
   2032   N.3      10.0670    7.4250   -0.2780 N.ar   94  G94        -0.1918
   2033   C4        9.5690    6.9510    0.8840 C.ar   94  G94         0.1723
@<TRIPOS>BOND
     1   740   739    1
     2   739   741   ar
     3   739   738   ar
     4   737   738   ar
     5   737   736   ar
     6   741   742   ar
     7   738   744   ar
     8   724   723    2
     9   736   735   ar
    10   742   743   ar
    11   744   735   ar
    12   744   743   ar
    13   711   710    1
    14   735   734    1
    15   723   709    1
    16   723   725    1
    17   723   726    1
    18   709   708    1
    19   726   727    1
    20   729   734    1
    21   729   728    1
    22   727   728    1
    23   734   732    1
    24   710   708    1
    25   710   712    1
    26   708   706    1
    27   728   730    1
    28   732   733    1
    29   732   730    1
    30   712   713    1
    31   712   707    1
    32   762   761    2
    33   706   707    1
    34   706   705    1
    35   730   731    1
    36   713   714   ar
    37   713   722   ar
    38   714   715   ar
    39   722   721   ar
    40   722   716   ar
    41   704   705    1
    42   704   701    1
    43   721   720   ar
    44   703   701    2
    45   715   716   ar
    46   761   760   ar
    47   761   763   ar
    48   759   760   ar
    49   759   758   ar
    50   716   717   ar
    51   731   745    1
    52   702   701    1
    53   720   719   ar
    54   701   686    1
    55   760   767   ar
    56   636   635    2
    57   637   635    1
    58   763   764   ar
    59   717   719   ar
    60   717   718    1
    61   758   757   ar
    62   660   658    2
    63   616   615    2
    64   659   658    1
    65   635   623    1
    66   635   638    1
    67   695   694    2
    68   767   757   ar
    69   767   766   ar
    70   745   748    1
    71   745   746    2
    72   745   747    1
    73   748   749    1
    74   679   678    2
    75   764   766   ar
    76   764   765    1
    77   757   756    1
    78   658   643    1
    79   658   661    1
    80   694   696   ar
    81   694   693   ar
    82   686   685    1
    83   623   622    1
    84   696   697   ar
    85   639   638    1
    86   639   640    1
    87   692   693   ar
    88   692   691   ar
    89   693   700   ar
    90   615   617    1
    91   615   618    1
    92   615   600    1
    93   751   756    1
    94   751   750    1
    95   685   687    1
    96   685   683    1
    97   643   642    1
    98   697   698    1
    99   697   699   ar
   100   680   678    1
   101   618   619    1
   102   678   681    1
   103   678   666    1
   104   749   750    1
   105   681   682    1
   106   691   690   ar
   107   756   754    1
   108   700   699   ar
   109   700   690   ar
   110   619   620    1
   111   687   688    1
   112   687   689    1
   113   436   435    1
   114   661   662    1
   115   622   620    1
   116   622   624    1
   117   690   689    1
   118   642   640    1
   119   642   644    1
   120   750   752    1
   121   640   641    1
   122   406   405    1
   123   295   296   ar
   124   295   294   ar
   125   429   428    1
   126   600   599    1
   127   435   437   ar
   128   435   434   ar
   129   296   297   ar
   130   620   621    1
   131   682   683    1
   132   421   419    2
   133   437   438   ar
   134   433   434   ar
   135   433   432   ar
   136   683   684    1
   137   662   663    1
   138   434   440   ar
   139   675   674    1
   140   689   684    1
   141   676   674   ar
   142   676   677   ar
   143   666   665    1
   144   754   752    1
   145   754   755    1
   146  1618  1619   ar
   147  1618  1616   ar
   148   432   431   ar
   149   438   439   ar
   150   665   663    1
   151   665   667    1
   152   413   412    2
   153   294   293    1
   154   294   303   ar
   155  1617  1616    1
   156   674   673   ar
   157   428   430    1
   158   428   426    1
   159   440   439   ar
   160   440   431   ar
   161   624   625    1
   162   624   626    1
   163   293   288    1
   164   293   291    1
   165  1641  1640   ar
   166  1641  1642   ar
   167   593   592    2
   168   641   646    1
   169   677   670   ar
   170   405   403    1
   171   405   407    1
   172   412   411   ar
   173   412   414   ar
   174  1619  1620   ar
   175   431   430    1
   176   752   753    1
   177   458   457    2
   178   297   303   ar
   179   297   298   ar
   180   648   649   ar
   181   648   647   ar
   182   288   287    1
   183   410   411   ar
   184   410   409   ar
   185   644   646    1
   186   644   645    1
   187   292   291    1
   188   411   418   ar
   189   599   597    1
   190   599   601    1
   191  1616  1615   ar
   192   663   664    1
   193   414   415   ar
   194   596   597    1
   195   596   595    1
   196   649   650   ar
   197  1654  1653    1
   198   409   408   ar
   199   299   298    1
   200  1640  1638   ar
   201  1642  1643   ar
   202   621   626    1
   203   419   404    1
   204   419   422    1
   205   419   420    1
   206   418   408   ar
   207   418   417   ar
   208   673   671   ar
   209   328   327    2
   210   404   403    1
   211   303   302   ar
   212   415   417   ar
   213   415   416    1
   214   430   425    1
   215   753   768    1
   216   408   407    1
   217   597   598    1
   218   647   646    1
   219   647   657   ar
   220   634   633   ar
   221   634   627   ar
   222   298   300   ar
   223   422   423    1
   224   403   401    1
   225   670   671   ar
   226   670   669    1
   227   457   456   ar
   228   457   459   ar
   229   287   286    1
   230   287   289    1
   231   426   427    1
   232   426   424    1
   233   291   289    1
   234   667   669    1
   235   667   668    1
   236   626   627    1
   237   407   402    1
   238   455   456   ar
   239   455   454   ar
   240  1664  1663   ar
   241  1664  1665   ar
   242   602   601    1
   243   633   631   ar
   244   664   669    1
   245   595   592    1
   246   671   672    2
   247   592   594    1
   248   592   577    1
   249   427   441    1
   250   650   657   ar
   251   650   651   ar
   252  1620  1621   ar
   253  1663  1662   ar
   254   627   628   ar
   255  1655  1650    1
   256  1655  1653    1
   257  1655  1656    1
   258   601   603    1
   259  1650  1649    1
   260   456   463   ar
   261   398   396    2
   262   351   350    2
   263   459   460   ar
   264   657   656   ar
   265  1615  1621   ar
   266  1615  1614   ar
   267   286   285    1
   268   443   441    2
   269  1653  1651    1
   270  1632  1631    1
   271   652   651    2
   272   454   453   ar
   273  1649  1651    1
   274  1649  1648    1
   275   302   301   ar
   276   442   441    1
   277  1638  1639    1
   278  1638  1637   ar
   279  1643  1637   ar
   280  1643  1634   ar
   281   651   653   ar
   282   289   290    1
   283   329   327    1
   284   305   304    2
   285   327   312    1
   286   327   330    1
   287  1621  1612   ar
   288   425   424    1
   289   631   632    1
   290   631   630   ar
   291   300   301   ar
   292   441   444    1
   293   390   389    2
   294   352   350    1
   295   424   423    1
   296   628   630   ar
   297   628   629    2
   298  1665  1656   ar
   299  1665  1659   ar
   300  1652  1651    1
   301  1652  1666    1
   302   375   373    2
   303   463   453   ar
   304   463   462   ar
   305   598   603    1
   306  1667  1666    2
   307   460   461    1
   308   460   462   ar
   309   782   781   ar
   310   782   783   ar
   311   781   780   ar
   312   402   401    1
   313   656   654   ar
   314   401   400    1
   315  1656  1657   ar
   316   374   373    1
   317   768   769    2
   318   768   771    1
   319   768   770    1
   320   290   304    1
   321  1662  1660   ar
   322   577   576    1
   323  1633  1631    1
   324  1633  1634    1
   325  1633  1628    1
   326   350   335    1
   327   350   353    1
   328   453   452    1
   329  1614  1613   ar
   330   285   282    1
   331   774   779    1
   332   774   773    1
   333  1637  1636   ar
   334   312   311    1
   335   603   604    1
   336   653   654   ar
   337  1648  1647    1
   338  1631  1629    1
   339  1321  1320   ar
   340  1321  1322   ar
   341   772   771    1
   342   772   773    1
   343   387   388   ar
   344   387   386   ar
   345   283   282    2
   346   481   480    1
   347  1634  1635   ar
   348   389   388   ar
   349   389   391   ar
   350   308   307    1
   351   308   309    1
   352   396   397    1
   353   396   399    1
   354   396   381    1
   355   654   655    1
   356   400   399    1
   357   373   376    1
   358   373   358    1
   359   304   307    1
   360   304   306    1
   361   330   331    1
   362  1320  1318   ar
   363   780   779    1
   364   780   789   ar
   365   388   395   ar
   366  1666  1669    1
   367  1666  1668    1
   368  1612  1613   ar
   369  1612  1611    1
   370   785   784    1
   371   783   784   ar
   372   783   789   ar
   373   447   452    1
   374   447   446    1
   375  1322  1323   ar
   376  1628  1627    1
   377   604   605   ar
   378   604   614   ar
   379   335   334    1
   380   331   332    1
   381   605   606   ar
   382   779   777    1
   383   452   450    1
   384   386   385   ar
   385   773   775    1
   386   391   392   ar
   387  1659  1660   ar
   388  1659  1658   ar
   389   282   284    1
   390   282   267    1
   391  1670  1669    1
   392  1670  1671    1
   393   444   445    1
   394   579   578    1
   395  1660  1661    1
   396   480   479   ar
   397   480   482   ar
   398   353   354    1
   399   376   377    1
   400   784   786   ar
   401  1671  1672    1
   402  1671  1673    1
   403   479   477   ar
   404  1657  1658   ar
   405   789   788   ar
   406   576   578    1
   407   576   574    1
   408   311   309    1
   409   311   313    1
   410   309   310    1
   411  1672  1677    1
   412   381   380    1
   413   354   355    1
   414   614   613   ar
   415   614   607   ar
   416   606   607   ar
   417  1636  1635   ar
   418  1647  1644    1
   419  1611  1609    1
   420  1611  1606    1
   421   578   580    1
   422   380   382    1
   423   380   378    1
   424   501   500    2
   425   445   446    1
   426  1318  1319    1
   427  1318  1317   ar
   428   395   385   ar
   429   395   394   ar
   430   613   611   ar
   431  1627  1629    1
   432  1627  1626    1
   433  1629  1630    1
   434  1676  1675    1
   435  1323  1317   ar
   436  1323  1314   ar
   437  1343  1344   ar
   438  1343  1342   ar
   439   385   384    1
   440   334   332    1
   441   334   336    1
   442   502   500   ar
   443   502   503   ar
   444   482   483   ar
   445   607   608   ar
   446  1630  1644    1
   447   382   384    1
   448   382   383    1
   449   392   394   ar
   450   392   393    1
   451   504   503    1
   452  1344  1345   ar
   453   332   333    1
   454   446   448    1
   455   358   357    1
   456   477   478    2
   457   477   476   ar
   458   786   787   ar
   459   788   787   ar
   460   500   499   ar
   461  1609  1610    1
   462  1609  1607    1
   463  1674  1673    1
   464  1674  1686    1
   465  1317  1316   ar
   466  1312  1311    1
   467   611   612    1
   468   611   610   ar
   469   267   266    1
   470  1677  1675    1
   471  1677  1678    1
   472   775   777    1
   473   775   776    1
   474  1313  1314    1
   475  1313  1311    1
   476  1313  1308    1
   477   503   505   ar
   478   777   778    1
   479   450   448    1
   480   450   451    1
   481  1673  1675    1
   482  1342  1340   ar
   483   574   573    1
   484   574   575    1
   485  1314  1315   ar
   486   357   355    1
   487   357   359    1
   488   608   610   ar
   489   608   609    2
   490   314   313    1
   491  1606  1605    1
   492   377   378    1
   493  1644  1645    2
   494  1644  1646    1
   495   483   476   ar
   496   384   379    1
   497   313   315    1
   498  1334  1333    1
   499   269   268    1
   500   355   356    1
   501   570   569    2
   502   476   475    1
   503   310   315    1
   504   572   573    1
   505   572   569    1
   506   448   449    1
   507   378   379    1
   508  1687  1686    2
   509  1311  1309    1
   510  1335  1330    1
   511  1335  1336    1
   512  1335  1333    1
   513  1345  1336   ar
   514  1345  1339   ar
   515  1626  1625    1
   516  1308  1307    1
   517   580   581    1
   518   580   575    1
   519   499   506   ar
   520   499   498   ar
   521  1587  1586    1
   522   364   363   ar
   523   364   365   ar
   524  1601  1600    2
   525   333   338    1
   526  1400  1399    2
   527   363   362   ar
   528  1316  1315   ar
   529   336   337    1
   530   336   338    1
   531   505   506   ar
   532  1330  1329    1
   533  1625  1622    1
   534   268   266    1
   535   268   270    1
   536   776   790    1
   537  1686  1689    1
   538  1686  1688    1
   539   266   264    1
   540   569   571    1
   541   569   557    1
   542  1336  1337   ar
   543  1678  1685   ar
   544  1678  1679   ar
   545  1340  1339   ar
   546  1340  1341    1
   547   581   582   ar
   548   581   591   ar
   549  1607  1605    1
   550  1607  1608    1
   551  1690  1689    1
   552  1690  1691    1
   553   340   341   ar
   554   340   339   ar
   555   315   316    1
   556   506   496   ar
   557   475   470    1
   558   475   473    1
   559   356   361    1
   560   807   806    1
   561  1333  1331    1
   562   498   497   ar
   563   582   583   ar
   564  1685  1684   ar
   565   590   591   ar
   566   590   588   ar
   567  1339  1338   ar
   568   591   584   ar
   569  1329  1331    1
   570  1329  1328    1
   571  1605  1604    1
   572   470   469    1
   573   804   803   ar
   574   804   805   ar
   575   367   366    2
   576   359   361    1
   577   359   360    1
   578   365   366   ar
   579   365   372   ar
   580   341   342   ar
   581   338   339    1
   582   317   316   ar
   583   317   318   ar
   584   362   361    1
   585   362   372   ar
   586  1585  1600    1
   587  1585  1584    1
   588  1680  1679    2
   589  1399  1401   ar
   590  1399  1398   ar
   591   583   584   ar
   592   588   589    1
   593   588   587   ar
   594   449   464    1
   595  1307  1309    1
   596  1307  1306    1
   597  1401  1402   ar
   598   584   585   ar
   599   339   349   ar
   600   316   326   ar
   601   366   368   ar
   602  1597  1596    1
   603   803   802   ar
   604  1679  1681   ar
   605  1309  1310    1
   606   806   805   ar
   607   806   808   ar
   608   792   790    2
   609  1600  1603    1
   610  1600  1602    1
   611  1420  1419    2
   612  1586  1584    1
   613  1586  1588    1
   614   805   811   ar
   615   466   464    2
   616   496   497   ar
   617   496   495    1
   618  1608  1622    1
   619  1603  1604    1
   620   587   585   ar
   621  1691  1692    1
   622  1691  1693    1
   623   372   371   ar
   624   585   586    2
   625  1337  1338   ar
   626  1331  1332    1
   627   264   263    1
   628   264   265    1
   629  1328  1327    1
   630  1396  1395    1
   631   790   791    1
   632   790   793    1
   633   318   319   ar
   634  1692  1697    1
   635  1622  1624    2
   636  1622  1623    1
   637  1684  1682   ar
   638  1397  1398    1
   639  1397  1395    1
   640  1397  1392    1
   641   467   464    1
   642   467   468    1
   643   270   271    1
   644   270   265    1
   645   557   556    1
   646   342   349   ar
   647   342   343   ar
   648  1416  1415    1
   649  1310  1324    1
   650   473   474    1
   651   473   471    1
   652  1398  1405   ar
   653  1584  1582    1
   654  1305  1306    1
   655  1305  1302    1
   656   464   465    1
   657   808   809   ar
   658   349   348   ar
   659  1332  1346    1
   660  1347  1346    2
   661  1402  1403    1
   662  1402  1404   ar
   663   368   369   ar
   664   829   828    1
   665   326   319   ar
   666   326   325   ar
   667  1598  1596   ar
   668  1598  1599   ar
   669   802   811   ar
   670   802   801    1
   671  1417  1412    1
   672  1417  1418    1
   673  1417  1415    1
   674  1419  1421   ar
   675  1419  1418   ar
   676   811   810   ar
   677   495   490    1
   678   495   493    1
   679   469   468    1
   680   469   471    1
   681  1596  1595   ar
   682   260   259    2
   683   263   262    1
   684   796   801    1
   685   796   795    1
   686   371   369   ar
   687  1681  1682   ar
   688  1588  1583    1
   689  1588  1589    1
   690  1304  1302    2
   691  1395  1393    1
   692  1582  1583    1
   693  1582  1581    1
   694  1412  1411    1
   695   319   320   ar
   696   262   259    1
   697   271   272   ar
   698   271   281   ar
   699  1392  1391    1
   700   272   273   ar
   701  1421  1422   ar
   702   325   323   ar
   703   369   370    1
   704  1682  1683    1
   705   344   343    2
   706  1327  1324    1
   707  1418  1425   ar
   708   343   345   ar
   709   793   794    1
   710   471   472    1
   711   809   810   ar
   712   801   799    1
   713  1346  1348    1
   714  1346  1349    1
   715  1415  1413    1
   716   348   346   ar
   717  1694  1693    1
   718  1694  1709    1
   719  1693  1695    1
   720   490   489    1
   721   794   795    1
   722   556   558    1
   723   556   554    1
   724  1405  1404   ar
   725   259   261    1
   726   259   245    1
   727  1302  1303    1
   728  1302  1290    1
   729   828   827   ar
   730   828   830   ar
   731  1574  1573    1
   732  1697  1695    1
   733  1697  1698    1
   734   827   825   ar
   735  1324  1326    2
   736  1324  1325    1
   737  1599  1589   ar
   738  1599  1592   ar
   739   281   280   ar
   740   281   274   ar
   741   273   274   ar
   742  1411  1413    1
   743  1411  1410    1
   744   320   321    2
   745   320   322   ar
   746  1595  1593   ar
   747   795   797    1
   748   493   494    1
   749   493   491    1
   750  1696  1695    1
   751  1589  1590   ar
   752  1581  1580    1
   753  1422  1423    1
   754  1422  1424   ar
   755   280   278   ar
   756   558   559    1
   757   558   560    1
   758   323   322   ar
   759   323   324    1
   760   345   346   ar
   761  1710  1709    2
   762  1425  1424   ar
   763   551   549    2
   764  1699  1698   ar
   765  1699  1700   ar
   766   346   347    1
   767  1391  1393    1
   768  1391  1390    1
   769   274   275   ar
   770   552   553    1
   771   552   549    1
   772  1432  1431    1
   773  1432  1437    1
   774   550   549    1
   775   830   831   ar
   776  1393  1394    1
   777  1698  1708   ar
   778  1709  1711    1
   779  1709  1712    1
   780  1413  1414    1
   781   825   826    2
   782   825   824   ar
   783   472   484    1
   784  1290  1289    1
   785   553   554    1
   786   549   537    1
   787  1573  1572   ar
   788  1573  1575   ar
   789   554   555    1
   790   278   279    1
   791   278   277   ar
   792  1349  1350    1
   793  1410  1409    1
   794   849   848    1
   795  1431  1430    1
   796  1431  1433    1
   797   489   491    1
   798   489   488    1
   799  1437  1438    1
   800  1437  1435    1
   801   799   797    1
   802   799   800    1
   803   486   484    2
   804  1572  1570   ar
   805  1592  1593   ar
   806  1592  1591   ar
   807  1436  1435    1
   808  1440  1439    2
   809   487   484    1
   810   487   488    1
   811  1700  1701   ar
   812  1364  1365   ar
   813  1364  1362   ar
   814   275   277   ar
   815   275   276    2
   816   797   798    1
   817   245   244    1
   818  1414  1426    1
   819   563   562    2
   820  1593  1594    2
   821   491   492    1
   822  1430  1429    1
   823  1394  1406    1
   824  1580  1577    1
   825   238   237    2
   826   564   562   ar
   827   564   565   ar
   828   562   561   ar
   829   530   529    2
   830  1590  1591   ar
   831   566   565    2
   832   565   567   ar
   833   831   824   ar
   834   847   848   ar
   835   847   845   ar
   836   561   560    1
   837   561   568   ar
   838  1390  1389    1
   839   560   555    1
   840   239   237    1
   841   484   485    1
   842  1575  1576   ar
   843   824   823    1
   844   567   568   ar
   845   531   529    1
   846  1363  1362    2
   847  1409  1406    1
   848   848   850   ar
   849  1292  1291    1
   850  1439  1438   ar
   851  1439  1441   ar
   852  1365  1358   ar
   853  1438  1445   ar
   854  1708  1701   ar
   855  1708  1707   ar
   856   215   214    2
   857  1350  1351    1
   858  1435  1433    1
   859  1389  1386    1
   860  1289  1291    1
   861  1289  1287    1
   862  1362  1361   ar
   863   237   240    1
   864   237   222    1
   865   240   241    1
   866  1712  1713    1
   867   846   845    2
   868   869   868    1
   869   244   242    1
   870   244   246    1
   871  1701  1702   ar
   872   529   532    1
   873   529   515    1
   874  1291  1293    1
   875  1570  1571    2
   876  1570  1569   ar
   877  1433  1434    1
   878   845   844   ar
   879  1578  1577    2
   880  1564  1563    1
   881  1713  1714    1
   882   867   868   ar
   883   867   865   ar
   884  1429  1426    1
   885  1434  1446    1
   886   537   536    1
   887  1441  1442   ar
   888  1445  1444   ar
   889  1406  1407    2
   890  1406  1408    1
   891  1707  1705   ar
   892   798   812    1
   893   241   242    1
   894   492   507    1
   895   508   507    2
   896   823   818    1
   897   823   821    1
   898   532   533    1
   899   866   865    2
   900   886   885    2
   901  1577  1562    1
   902  1577  1579    1
   903  1426  1427    2
   904  1426  1428    1
   905  1576  1569   ar
   906  1576  1566   ar
   907   850   851   ar
   908  1563  1565    1
   909  1563  1561    1
   910   868   870   ar
   911  1387  1386    2
   912   216   214    1
   913   818   817    1
   914   865   864   ar
   915  1352  1351    1
   916  1352  1357    1
   917   214   217    1
   918   214   200    1
   919  1569  1568   ar
   920   814   812    2
   921   242   243    1
   922   912   911    1
   923   533   534    1
   924  1358  1357    1
   925  1358  1359   ar
   926  1386  1388    1
   927  1386  1374    1
   928   246   247    1
   929   246   248    1
   930  1444  1442   ar
   931   536   534    1
   932   536   538    1
   933  1442  1443    2
   934  1351  1353    1
   935  1287  1286    1
   936  1287  1288    1
   937   887   885   ar
   938   887   888   ar
   939   250   251   ar
   940   250   249   ar
   941  1562  1561    1
   942  1727  1728   ar
   943  1727  1725   ar
   944   844   851   ar
   945   844   843    1
   946   885   884   ar
   947  1450  1451    1
   948  1450  1449    1
   949   251   252   ar
   950   511   510    1
   951   511   512    1
   952  1702  1703    2
   953  1702  1704   ar
   954  1361  1359   ar
   955   507   510    1
   956   507   509    1
   957   193   192    2
   958  1728  1721   ar
   959   217   218    1
   960  1715  1714    1
   961  1715  1720    1
   962  1355  1357    1
   963  1355  1353    1
   964  1355  1356    1
   965   812   815    1
   966   812   813    1
   967   902   901    1
   968   515   514    1
   969  1705  1704   ar
   970  1705  1706    1
   971  1296  1295    2
   972   222   221    1
   973  1566  1565    1
   974  1566  1567   ar
   975  1286  1285    1
   976   815   816    1
   977  1714  1716    1
   978  1565  1560    1
   979  1561  1559    1
   980  1293  1288    1
   981  1293  1294    1
   982  1726  1725    2
   983  1353  1354    1
   984   889   888    1
   985   911   913   ar
   986   911   910   ar
   987   194   192    1
   988  1447  1446    2
   989   913   914   ar
   990  1452  1451    1
   991  1452  1457    1
   992  1446  1449    1
   993  1446  1448    1
   994   870   871   ar
   995   534   535    1
   996   821   822    1
   997   821   819    1
   998  1451  1453    1
   999  1283  1282    2
  1000   888   890   ar
  1001  1725  1724   ar
  1002  1359  1360    2
  1003   843   838    1
  1004   843   841    1
  1005   864   871   ar
  1006   864   863    1
  1007   547   548   ar
  1008   547   545   ar
  1009   218   219    1
  1010   546   545    1
  1011  1568  1567   ar
  1012   249   248    1
  1013   249   258   ar
  1014   200   199    1
  1015  1295  1294   ar
  1016  1295  1297   ar
  1017   882   881    1
  1018   884   883    1
  1019   884   891   ar
  1020   903   898    1
  1021   903   901    1
  1022   903   904    1
  1023   538   539    1
  1024   538   540    1
  1025   243   248    1
  1026  1294  1301   ar
  1027   817   816    1
  1028   817   819    1
  1029   883   881    1
  1030   883   878    1
  1031   548   541   ar
  1032   545   544   ar
  1033   192   195    1
  1034   192   178    1
  1035   221   219    1
  1036   221   223    1
  1037  1374  1373    1
  1038   514   512    1
  1039   514   516    1
  1040   252   258   ar
  1041   252   253   ar
  1042  1721  1720    1
  1043  1721  1722   ar
  1044  1368  1366    2
  1045   512   513    1
  1046   910   908   ar
  1047   838   837    1
  1048  1466  1465    1
  1049   914   904   ar
  1050   914   907   ar
  1051   898   897    1
  1052   901   899    1
  1053  1471  1469    2
  1054   819   820    1
  1055  1285  1282    1
  1056   863   858    1
  1057   863   861    1
  1058   196   195    1
  1059   196   197    1
  1060  1297  1298   ar
  1061  1720  1718    1
  1062   254   253    1
  1063   925   924    1
  1064  1716  1717    1
  1065  1716  1718    1
  1066  1465  1467   ar
  1067  1465  1464   ar
  1068   881   879    1
  1069   541   542   ar
  1070   541   540    1
  1071   544   542   ar
  1072   904   905   ar
  1073   535   540    1
  1074  1284  1282    1
  1075   890   891   ar
  1076  1282  1270    1
  1077  1467  1468   ar
  1078  1724  1722   ar
  1079  1301  1300   ar
  1080  1464  1462   ar
  1081  1559  1560    1
  1082  1559  1558    1
  1083   258   257   ar
  1084   219   220    1
  1085   542   543    2
  1086   921   926    1
  1087   921   920    1
  1088  1468  1458   ar
  1089  1468  1461   ar
  1090  1373  1375    1
  1091  1373  1371    1
  1092  1457  1458    1
  1093  1457  1455    1
  1094  1354  1366    1
  1095   253   255   ar
  1096  1462  1461   ar
  1097  1462  1463    2
  1098   841   842    1
  1099   841   839    1
  1100  1458  1459   ar
  1101  1722  1723    2
  1102  1461  1460   ar
  1103   176   181    1
  1104   176   175    1
  1105   199   197    1
  1106   199   201    1
  1107   878   877    1
  1108  1376  1375    1
  1109   908   907   ar
  1110   908   909    2
  1111   897   899    1
  1112   897   896    1
  1113  1453  1454    1
  1114  1453  1455    1
  1115   907   906   ar
  1116   926   924    1
  1117   926   927    1
  1118   858   857    1
  1119  1298  1300   ar
  1120  1298  1299    1
  1121  1717  1729    1
  1122  1459  1460   ar
  1123   180   179    1
  1124   834   832    2
  1125   920   919    1
  1126   920   922    1
  1127  1731  1729    2
  1128  1470  1469    1
  1129   197   198    1
  1130   190   189   ar
  1131   190   191   ar
  1132  1454  1469    1
  1133   178   177    1
  1134  1366  1369    1
  1135  1366  1367    1
  1136   223   224    1
  1137   223   225    1
  1138  1469  1472    1
  1139   905   906   ar
  1140   861   862    1
  1141   861   859    1
  1142  1718  1719    1
  1143   513   518    1
  1144  1551  1550    1
  1145   181   179    1
  1146   181   182    1
  1147   189   188   ar
  1148   175   177    1
  1149   175   174    1
  1150   899   900    1
  1151   227   228   ar
  1152   227   226   ar
  1153   924   922    1
  1154  1375  1377    1
  1155   516   517    1
  1156   516   518    1
  1157   919   918    1
  1158   837   839    1
  1159   837   836    1
  1160   820   832    1
  1161   257   256   ar
  1162  1730  1729    1
  1163  1729  1732    1
  1164  1455  1456    1
  1165   228   229   ar
  1166   900   915    1
  1167   220   225    1
  1168  1369  1370    1
  1169  1371  1370    1
  1170  1371  1372    1
  1171   839   840    1
  1172  1558  1557    1
  1173   179   177    1
  1174   255   256   ar
  1175   927   937   ar
  1176   927   928   ar
  1177   879   877    1
  1178   879   880    1
  1179   877   876    1
  1180   520   521   ar
  1181   520   519   ar
  1182  1549  1550   ar
  1183  1549  1547   ar
  1184  1270  1269    1
  1185   896   895    1
  1186   936   937   ar
  1187   936   934   ar
  1188  1557  1554    1
  1189   832   835    1
  1190   832   833    1
  1191   922   923    1
  1192   836   835    1
  1193   518   519    1
  1194  1550  1552   ar
  1195   225   226    1
  1196   923   938    1
  1197   521   522   ar
  1198   226   236   ar
  1199   201   202    1
  1200   201   203    1
  1201   519   528   ar
  1202   937   930   ar
  1203   191   182   ar
  1204   191   185   ar
  1205  1528  1527    2
  1206   935   934    1
  1207   857   859    1
  1208   857   856    1
  1209   928   929   ar
  1210   182   183   ar
  1211  1746  1745    2
  1212   174   173    1
  1213   198   203    1
  1214  1548  1547    2
  1215   934   933   ar
  1216   918   915    1
  1217   859   860    1
  1218   942   943    1
  1219   942   941    1
  1220   188   186   ar
  1221   880   892    1
  1222  1272  1271    1
  1223   229   236   ar
  1224   229   230   ar
  1225  1547  1546   ar
  1226   944   943    1
  1227   944   949    1
  1228   943   945    1
  1229  1472  1473    1
  1230  1747  1745   ar
  1231  1747  1748   ar
  1232   895   892    1
  1233   522   528   ar
  1234   522   523   ar
  1235  1377  1372    1
  1236  1377  1378    1
  1237   528   527   ar
  1238  1486  1485    1
  1239  1271  1269    1
  1240  1271  1273    1
  1241   875   876    1
  1242   875   872    1
  1243   236   235   ar
  1244  1506  1505    1
  1245   915   916    2
  1246   915   917    1
  1247  1269  1267    1
  1248  1487  1485   ar
  1249  1487  1488   ar
  1250   840   852    1
  1251   855   856    1
  1252   855   852    1
  1253  1745  1744   ar
  1254   930   929   ar
  1255   930   931   ar
  1256  1552  1553   ar
  1257  1732  1733    1
  1258   203   204    1
  1259   231   230    2
  1260   854   852    2
  1261  1554  1556    2
  1262  1554  1555    1
  1263  1554  1542    1
  1264   939   938    2
  1265   524   523    1
  1266   523   525   ar
  1267   230   232   ar
  1268   933   931   ar
  1269  1527  1529   ar
  1270  1527  1526   ar
  1271   527   526   ar
  1272   949   947    1
  1273   949   950    1
  1274  1748  1741   ar
  1275   205   204   ar
  1276   205   206   ar
  1277  1491  1489    2
  1278   938   941    1
  1279   938   940    1
  1280   185   186   ar
  1281   185   184   ar
  1282   948   947    1
  1283  1485  1484   ar
  1284  1529  1530   ar
  1285   186   187    1
  1286   931   932    2
  1287  1546  1553   ar
  1288  1546  1545    1
  1289   204   213   ar
  1290   892   894    2
  1291   892   893    1
  1292   852   853    1
  1293   860   872    1
  1294   173   170    1
  1295   183   184   ar
  1296  1380  1379    2
  1297  1488  1481   ar
  1298   526   525   ar
  1299  1473  1474    1
  1300   235   233   ar
  1301  1276  1275    2
  1302  1378  1379   ar
  1303  1378  1385   ar
  1304  1543  1544    1
  1305  1543  1541    1
  1306  1543  1545    1
  1307   874   872    2
  1308  1733  1734    1
  1309   945   946    1
  1310   945   947    1
  1311   946   958    1
  1312   206   207   ar
  1313   872   873    1
  1314  1275  1277   ar
  1315  1275  1274   ar
  1316  1505  1504   ar
  1317  1505  1507   ar
  1318   232   233   ar
  1319  1744  1742   ar
  1320  1503  1504   ar
  1321  1503  1502   ar
  1322  1379  1381   ar
  1323  1277  1278   ar
  1324   950   957   ar
  1325   950   951   ar
  1326  1273  1274    1
  1327  1273  1268    1
  1328  1267  1266    1
  1329  1267  1268    1
  1330   957   956   ar
  1331  1526  1525   ar
  1332  1526  1533   ar
  1333  1542  1541    1
  1334  1766  1765    2
  1335   233   234    1
  1336  1385  1384   ar
  1337  1541  1539    1
  1338  1274  1281   ar
  1339  1525  1524   ar
  1340   213   207   ar
  1341   213   212   ar
  1342  1545  1540    1
  1343  1265  1266    1
  1344  1265  1262    1
  1345  1741  1742   ar
  1346  1741  1740    1
  1347  1735  1734    1
  1348  1735  1740    1
  1349  1278  1279    1
  1350  1278  1280   ar
  1351  1789  1788    1
  1352   207   208   ar
  1353  1530  1531    1
  1354  1530  1532   ar
  1355  1504  1510   ar
  1356  1489  1490    1
  1357  1489  1477    1
  1358  1489  1492    1
  1359  1848  1847    1
  1360   172   170    2
  1361  1281  1280   ar
  1362  1484  1482   ar
  1363   212   211   ar
  1364  1476  1474    1
  1365  1476  1477    1
  1366  1476  1478    1
  1367  1507  1508   ar
  1368   160   159    1
  1369  1812  1813   ar
  1370  1812  1810   ar
  1371  1742  1743    2
  1372   170   158    1
  1373   170   171    1
  1374  1734  1736    1
  1375  1474  1475    1
  1376  1481  1482   ar
  1377  1481  1480    1
  1378  1263  1262    2
  1379   952   951    2
  1380   956   954   ar
  1381   951   953   ar
  1382  1835  1836   ar
  1383  1835  1834   ar
  1384  1264  1262    1
  1385   959   958    2
  1386  1502  1501   ar
  1387  1813  1814   ar
  1388  1513  1511    2
  1389  1381  1382   ar
  1390   958   960    1
  1391   958   961    1
  1392  1262  1247    1
  1393  1740  1738    1
  1394   158   157    1
  1395  1475  1480    1
  1396  1533  1532   ar
  1397  1533  1523   ar
  1398  1384  1382   ar
  1399  1765  1767   ar
  1400  1765  1764   ar
  1401   208   209    1
  1402   208   210   ar
  1403  1836  1837   ar
  1404  1524  1523   ar
  1405  1482  1483    2
  1406   211   210   ar
  1407  1540  1539    1
  1408  1865  1866    1
  1409  1865  1864    1
  1410  1811  1810    1
  1411  1492  1493    1
  1412  1866  1867    1
  1413  1866  1868    1
  1414  1867  1872    1
  1415  1736  1738    1
  1416  1736  1737    1
  1417  1788  1790   ar
  1418  1788  1787   ar
  1419  1539  1538    1
  1420  1834  1832   ar
  1421  1763  1764   ar
  1422  1763  1762   ar
  1423  1790  1791   ar
  1424  1536  1534    2
  1425  1480  1478    1
  1426  1382  1383    2
  1427   159   157    1
  1428   159   161    1
  1429   953   954   ar
  1430   954   955    1
  1431  1810  1809   ar
  1432  1849  1844    1
  1433  1849  1847    1
  1434  1849  1850    1
  1435  1858  1857    1
  1436  1510  1501   ar
  1437  1510  1509   ar
  1438  1844  1843    1
  1439  1537  1538    1
  1440  1537  1534    1
  1441  1871  1870    1
  1442  1478  1479    1
  1443   962   961    1
  1444   962   963    1
  1445  1826  1825    1
  1446  1847  1845    1
  1447  1751  1749    2
  1448  1508  1509   ar
  1449  1767  1768   ar
  1450  1764  1771   ar
  1451  1523  1522    1
  1452  1843  1845    1
  1453  1843  1842    1
  1454  1501  1500    1
  1455  1814  1815   ar
  1456  1859  1857   ar
  1457  1859  1860   ar
  1458   157   155    1
  1459  1738  1739    1
  1460  1846  1845    1
  1461  1846  1861    1
  1462  1737  1749    1
  1463  1872  1870    1
  1464  1872  1873    1
  1465  1511  1514    1
  1466  1511  1512    1
  1467  1511  1497    1
  1468  1869  1868    1
  1469  1869  1883    1
  1470  1862  1861    2
  1471  1857  1856   ar
  1472  1837  1828   ar
  1473  1837  1831   ar
  1474  1247  1246    1
  1475   964   963    1
  1476   964   969    1
  1477  1534  1535    1
  1478  1534  1519    1
  1479  1762  1761   ar
  1480  1787  1786   ar
  1481  1787  1793   ar
  1482  1868  1870    1
  1483  1493  1494    1
  1484  1514  1515    1
  1485  1791  1792   ar
  1486  1864  1861    1
  1487   963   965    1
  1488  1256  1255    2
  1489  1827  1825    1
  1490  1827  1828    1
  1491  1827  1822    1
  1492  1259  1258    1
  1493  1850  1860   ar
  1494  1850  1851   ar
  1495  1825  1823    1
  1496  1257  1255   ar
  1497  1257  1258   ar
  1498   164   163    2
  1499  1832  1831   ar
  1500  1832  1833    1
  1501  1842  1841    1
  1502  1786  1785   ar
  1503   161   162    1
  1504   161   156    1
  1505  1749  1752    1
  1506  1749  1750    1
  1507  1884  1883    2
  1508  1496  1497    1
  1509  1496  1494    1
  1510  1496  1498    1
  1511  1809  1815   ar
  1512  1809  1808   ar
  1513  1860  1853   ar
  1514  1255  1254   ar
  1515  1815  1806   ar
  1516  1861  1863    1
  1517  1258  1260   ar
  1518  1520  1518    1
  1519  1520  1522    1
  1520  1520  1521    1
  1521   155   156    1
  1522   155   154    1
  1523  1518  1519    1
  1524  1518  1516    1
  1525  1768  1769    1
  1526  1768  1770   ar
  1527  1771  1761   ar
  1528  1771  1770   ar
  1529  1246  1248    1
  1530  1246  1244    1
  1531  1522  1517    1
  1532  1828  1829   ar
  1533  1500  1495    1
  1534  1500  1498    1
  1535   971   972   ar
  1536   971   970   ar
  1537  1495  1494    1
  1538  1831  1830   ar
  1539  1498  1499    1
  1540  1248  1249    1
  1541  1248  1250    1
  1542  1254  1261   ar
  1543  1254  1253   ar
  1544  1260  1261   ar
  1545  1873  1874   ar
  1546  1873  1882   ar
  1547   163   162   ar
  1548   163   165   ar
  1549   972   973   ar
  1550  1856  1854   ar
  1551  1761  1760    1
  1552  1883  1886    1
  1553  1883  1885    1
  1554   162   169   ar
  1555  1822  1821    1
  1556  1887  1886    1
  1557  1887  1888    1
  1558  1261  1251   ar
  1559  1793  1792   ar
  1560  1793  1784   ar
  1561  1752  1753    1
  1562   969   970    1
  1563   969   967    1
  1564  1241  1239    2
  1565  1253  1252   ar
  1566  1240  1239    1
  1567  1851  1852   ar
  1568   970   979   ar
  1569  1517  1516    1
  1570  1841  1838    1
  1571  1515  1516    1
  1572  1853  1854   ar
  1573  1853  1852   ar
  1574  1808  1807   ar
  1575  1785  1784   ar
  1576  1881  1882   ar
  1577  1881  1880   ar
  1578  1874  1875   ar
  1579   154   153    1
  1580   965   966    1
  1581   965   967    1
  1582  1823  1821    1
  1583  1823  1824    1
  1584  1251  1252   ar
  1585  1251  1250    1
  1586   165   166   ar
  1587  1806  1807   ar
  1588  1806  1805    1
  1589  1821  1820    1
  1590     3     2    2
  1591   973   979   ar
  1592   973   974   ar
  1593  1882  1876   ar
  1594  1242  1239    1
  1595  1242  1243    1
  1596   169   168   ar
  1597  1239  1227    1
  1598  1829  1830   ar
  1599  1854  1855    2
  1600  1824  1838    1
  1601   979   978   ar
  1602  1888  1889    1
  1603  1888  1890    1
  1604   966   980    1
  1605  1244  1243    1
  1606  1244  1245    1
  1607  1889  1894    1
  1608  1250  1245    1
  1609  1784  1783    1
  1610   975   974    1
  1611  1755  1760    1
  1612  1755  1754    1
  1613   967   968    1
  1614  1805  1803    1
  1615  1805  1800    1
  1616  1760  1758    1
  1617   974   976   ar
  1618   153   150    1
  1619   166   168   ar
  1620   166   167    1
  1621  1880  1879   ar
  1622  1753  1754    1
  1623  1804  1803    1
  1624  1838  1839    2
  1625  1838  1840    1
  1626  1875  1876   ar
  1627   978   977   ar
  1628  1803  1801    1
  1629  1876  1877   ar
  1630  1220  1219    2
  1631   976   977   ar
  1632  1820  1819    1
  1633  1754  1756    1
  1634     2     1    1
  1635     2     4    1
  1636     2     5    1
  1637   982   980    2
  1638   980   981    1
  1639   980   983    1
  1640  1894  1895    1
  1641  1894  1892    1
  1642   151   150    2
  1643  1227  1226    1
  1644  1756  1758    1
  1645  1756  1757    1
  1646  1890  1891    1
  1647  1890  1892    1
  1648  1221  1219    1
  1649  1758  1759    1
  1650  1783  1778    1
  1651  1783  1781    1
  1652  1800  1799    1
  1653  1879  1877   ar
  1654   150   152    1
  1655   150   138    1
  1656  1877  1878    1
  1657  1891  1903    1
  1658  1902  1895   ar
  1659  1902  1901   ar
  1660  1893  1892    1
  1661  1774  1772    2
  1662  1222  1219    1
  1663  1222  1223    1
  1664  1219  1204    1
  1665   140   139    1
  1666     6     5    1
  1667     6     7    1
  1668  1819  1816    1
  1669   997   996    1
  1670  1895  1896   ar
  1671   144   143    2
  1672  1778  1777    1
  1673  1801  1799    1
  1674  1801  1802    1
  1675  1226  1228    1
  1676  1226  1224    1
  1677  1236  1235    2
  1678   994   993   ar
  1679   994   995   ar
  1680  1781  1779    1
  1681  1781  1782    1
  1682  1901  1899   ar
  1683   983   984    1
  1684  1237  1235   ar
  1685  1237  1238   ar
  1686   139   137    1
  1687   139   141    1
  1688  1775  1772    1
  1689  1775  1776    1
  1690   138   137    1
  1691  1235  1234   ar
  1692  1757  1772    1
  1693  1799  1798    1
  1694  1223  1224    1
  1695   996   995   ar
  1696   996   998   ar
  1697   993   992   ar
  1698  1772  1773    1
  1699   995  1001   ar
  1700   143   145   ar
  1701   143   142   ar
  1702  1904  1903    2
  1703  1896  1897    2
  1704  1896  1898   ar
  1705  1238  1231   ar
  1706  1197  1196    2
  1707  1802  1816    1
  1708   984   985    1
  1709  1903  1905    1
  1710  1903  1906    1
  1711   145   146   ar
  1712  1779  1777    1
  1713  1779  1780    1
  1714  1198  1196    1
  1715  1228  1230    1
  1716  1228  1229    1
  1717     7     8    1
  1718     7     9    1
  1719  1174  1173    2
  1720  1234  1232   ar
  1721  1224  1225    1
  1722   137   135    1
  1723  1777  1776    1
  1724  1816  1818    2
  1725  1816  1817    1
  1726  1204  1203    1
  1727  1899  1898   ar
  1728  1899  1900    2
  1729  1797  1798    1
  1730  1797  1794    1
  1731    27    25    2
  1732  1231  1232   ar
  1733  1231  1230    1
  1734   998   999   ar
  1735   986   985    1
  1736   986   991    1
  1737   141   142    1
  1738   141   136    1
  1739    10     9    1
  1740    10    25    1
  1741  1232  1233    2
  1742   992  1001   ar
  1743   992   991    1
  1744  1196  1199    1
  1745  1196  1181    1
  1746   142   149   ar
  1747  1001  1000   ar
  1748  1796  1794    2
  1749  1225  1230    1
  1750   146   147    2
  1751   146   148   ar
  1752     8    13    1
  1753   985   987    1
  1754     9    11    1
  1755  1213  1212    2
  1756  1906  1907    1
  1757  1199  1200    1
  1758  1203  1201    1
  1759  1203  1205    1
  1760    25    26    1
  1761    25    28    1
  1762  1907  1908    1
  1763  1780  1794    1
  1764   999  1000   ar
  1765  1210  1209   ar
  1766  1210  1211   ar
  1767  1794  1795    1
  1768  1173  1175    1
  1769  1173  1176    1
  1770  1173  1161    1
  1771   991   989    1
  1772  1019  1018    1
  1773  1154  1153    2
  1774  1200  1201    1
  1775   135   136    1
  1776   135   134    1
  1777   149   148   ar
  1778  1176  1177    1
  1779  1209  1208   ar
  1780  1212  1211   ar
  1781  1212  1214   ar
  1782  1211  1218   ar
  1783  1018  1020   ar
  1784  1018  1017   ar
  1785  1020  1021   ar
  1786  1181  1180    1
  1787  1909  1908    1
  1788  1909  1914    1
  1789  1201  1202    1
  1790   989   987    1
  1791   989   990    1
  1792    12    11    1
  1793  1205  1206    1
  1794  1205  1207    1
  1795    13    11    1
  1796    13    14    1
  1797   987   988    1
  1798  1017  1015   ar
  1799  1908  1910    1
  1800    15    14   ar
  1801    15    16   ar
  1802  1214  1215   ar
  1803  1161  1160    1
  1804  1155  1153    1
  1805   126   127   ar
  1806   126   124   ar
  1807  1208  1218   ar
  1808  1208  1207    1
  1809  1021  1014   ar
  1810  1153  1156    1
  1811  1153  1139    1
  1812  1218  1217   ar
  1813    28    29    1
  1814   134   133    1
  1815   125   124    1
  1816   127   128   ar
  1817  1916  1917   ar
  1818  1916  1915   ar
  1819  1015  1014   ar
  1820  1015  1016    2
  1821  1157  1156    1
  1822  1157  1158    1
  1823  1177  1178    1
  1824  1180  1178    1
  1825  1180  1182    1
  1826   133   130    1
  1827    14    24   ar
  1828  1014  1013    1
  1829   124   123   ar
  1830  1207  1202    1
  1831  1917  1918   ar
  1832  1215  1217   ar
  1833  1215  1216    1
  1834    16    17   ar
  1835  1008  1013    1
  1836  1008  1007    1
  1837  1160  1158    1
  1838  1160  1162    1
  1839   988  1002    1
  1840  1914  1915    1
  1841  1914  1912    1
  1842  1915  1925   ar
  1843    29    30    1
  1844  1013  1011    1
  1845  1003  1002    2
  1846   128   129   ar
  1847  1005  1002    1
  1848  1005  1006    1
  1849  1178  1179    1
  1850  1910  1911    1
  1851  1910  1912    1
  1852  1158  1159    1
  1853  1139  1138    1
  1854  1187  1186   ar
  1855  1187  1188   ar
  1856  1186  1185   ar
  1857   123   129   ar
  1858   123   122   ar
  1859  1918  1925   ar
  1860  1918  1919   ar
  1861  1182  1183    1
  1862  1182  1184    1
  1863  1002  1004    1
  1864   132   130    2
  1865   130   131    1
  1866   130   116    1
  1867   129   120   ar
  1868  1925  1924   ar
  1869    24    17   ar
  1870    24    23   ar
  1871  1911  1926    1
  1872  1912  1913    1
  1873  1927  1926    2
  1874    17    18   ar
  1875  1171  1172   ar
  1876  1171  1169   ar
  1877  1006  1007    1
  1878  1007  1009    1
  1879  1190  1189    2
  1880  1162  1163    1
  1881  1162  1164    1
  1882  1179  1184    1
  1883  1188  1189   ar
  1884  1188  1195   ar
  1885  1172  1165   ar
  1886  1920  1919    2
  1887  1185  1184    1
  1888  1185  1195   ar
  1889   122   121   ar
  1890  1928  1926    1
  1891  1919  1921   ar
  1892    38    39   ar
  1893    38    37   ar
  1894   117   118    1
  1895   117   115    1
  1896   117   119    1
  1897    39    40   ar
  1898    30    31    1
  1899    30    32    1
  1900  1189  1191   ar
  1901  1926  1929    1
  1902  1159  1164    1
  1903  2031  2030    1
  1904  1011  1012    1
  1905  1011  1009    1
  1906  1170  1169    2
  1907    31    36    1
  1908   120   121   ar
  1909   120   119    1
  1910  1039  1038    1
  1911  1169  1168   ar
  1912  1924  1922   ar
  1913   105   104    2
  1914  1195  1194   ar
  1915    49    48    2
  1916  1138  1140    1
  1917  1138  1136    1
  1918    23    21   ar
  1919  1165  1164    1
  1920  1165  1166   ar
  1921   116   115    1
  1922    50    48    1
  1923  1037  1038   ar
  1924  1037  1035   ar
  1925   115   113    1
  1926  1921  1922   ar
  1927   119   114    1
  1928  1009  1010    1
  1929  1038  1040   ar
  1930  1191  1192   ar
  1931  1922  1923    1
  1932  1141  1140    1
  1933  1168  1166   ar
  1934    18    19    2
  1935    18    20   ar
  1936  1135  1136    1
  1937  1135  1134    1
  1938  1132  1131    2
  1939  1166  1167    2
  1940  1194  1192   ar
  1941    32    33    1
  1942    32    34    1
  1943    48    33    1
  1944    48    51    1
  1945  1140  1142    1
  1946  1036  1035    2
  1947    37    36    1
  1948    37    47   ar
  1949  1136  1137    1
  1950   104   103   ar
  1951   104   106   ar
  1952  1035  1034   ar
  1953   103   101   ar
  1954  1134  1131    1
  1955    40    41   ar
  1956    40    47   ar
  1957  1192  1193    1
  1958    85    84    2
  1959  2030  2029   ar
  1960  2030  2032   ar
  1961    36    34    1
  1962  1040  1041   ar
  1963  2029  2027   ar
  1964    42    41    2
  1965  1940  1939   ar
  1966  1940  1941   ar
  1967    21    20   ar
  1968    21    22    1
  1969  1943  1942    1
  1970  1929  1930    1
  1971    65    64    1
  1972  1131  1133    1
  1973  1131  1117    1
  1974  1034  1041   ar
  1975  1034  1033    1
  1976  1939  1938   ar
  1977    41    43   ar
  1978  1930  1931    1
  1979  1059  1058    1
  1980  1010  1022    1
  1981   114   113    1
  1982    47    46   ar
  1983    66    64   ar
  1984    66    67   ar
  1985   113   112    1
  1986   102   101    2
  1987   101   100   ar
  1988    34    35    1
  1989   106   107   ar
  1990  1941  1942   ar
  1991  1941  1947   ar
  1992  1942  1944   ar
  1993  2032  2033   ar
  1994    84    86   ar
  1995    84    83   ar
  1996  1033  1028    1
  1997  1033  1031    1
  1998  1137  1142    1
  1999   111   112    1
  2000   111   108    1
  2001   110   108    2
  2002  1028  1027    1
  2003    51    52    1
  2004  1142  1143    1
  2005    64    63   ar
  2006  1060  1058   ar
  2007  1060  1061   ar
  2008  1965  1964    2
  2009  2028  2027    2
  2010  2027  2026   ar
  2011  1058  1057   ar
  2012  1932  1931    1
  2013  1932  1937    1
  2014  1024  1022    2
  2015  1938  1947   ar
  2016  1938  1937    1
  2017    86    87   ar
  2018    67    60   ar
  2019  1084  1083    1
  2020  1988  1987    1
  2021  1143  1144   ar
  2022  1143  1152   ar
  2023  1947  1946   ar
  2024   107   100   ar
  2025  1061  1062   ar
  2026  1931  1933    1
  2027   100    99    1
  2028  1117  1116    1
  2029  1144  1145   ar
  2030    70    68    2
  2031  1944  1945   ar
  2032  1082  1083   ar
  2033  1082  1080   ar
  2034  1022  1025    1
  2035  1022  1023    1
  2036   108   109    1
  2037   108    96    1
  2038    43    44   ar
  2039    83    81   ar
  2040    46    44   ar
  2041  1057  1056   ar
  2042  1057  1063   ar
  2043  1081  1080    2
  2044  2008  2007    1
  2045  1152  1151   ar
  2046  1152  1146   ar
  2047  2033  2026   ar
  2048  2033  2023   ar
  2049  1937  1935    1
  2050  1151  1150   ar
  2051  1083  1085   ar
  2052    52    53    1
  2053  1145  1146   ar
  2054  1964  1963   ar
  2055  1964  1966   ar
  2056  1056  1055   ar
  2057  2026  2025   ar
  2058    63    61   ar
  2059    97    99    1
  2060    97    95    1
  2061    97    98    1
  2062  1080  1079   ar
  2063  1027  1026    1
  2064  1027  1029    1
  2065  1031  1032    1
  2066  1031  1029    1
  2067  1062  1063   ar
  2068  1146  1147   ar
  2069  1026  1025    1
  2070    44    45    1
  2071  1962  1963   ar
  2072  1962  1961   ar
  2073    69    68    1
  2074  1063  1054   ar
  2075  1945  1946   ar
  2076    87    80   ar
  2077  1933  1935    1
  2078  1933  1934    1
  2079  1150  1149   ar
  2080  2006  2007   ar
  2081  2006  2004   ar
  2082    99    94    1
  2083    60    61   ar
  2084    60    59    1
  2085    68    56    1
  2086    68    71    1
  2087  1116  1118    1
  2088  1116  1114    1
  2089  1987  1986   ar
  2090  1987  1989   ar
  2091    95    96    1
  2092    95    93    1
  2093  1963  1970   ar
  2094  2007  2009   ar
  2095  1055  1054   ar
  2096  1147  1149   ar
  2097  1147  1148    1
  2098  1966  1967   ar
  2099    81    80   ar
  2100    81    82    2
  2101    55    53    1
  2102    55    56    1
  2103    55    57    1
  2104  1950  1948    2
  2105    54    53    1
  2106    54    59    1
  2107  1085  1086   ar
  2108  1029  1030    1
  2109  1119  1118    1
  2110  1054  1053    1
  2111  1986  1984   ar
  2112    61    62    2
  2113  1935  1936    1
  2114  2023  2022    1
  2115  2023  2024   ar
  2116  2021  2020    1
  2117    90    88    2
  2118  1118  1120    1
  2119  1079  1086   ar
  2120  1079  1078   ar
  2121    80    79    1
  2122  2005  2004    2
  2123  1961  1960   ar
  2124  1934  1948    1
  2125  2025  2024   ar
  2126  2022  2020    1
  2127  2022  2017    1
  2128  2004  2003   ar
  2129  1086  1076   ar
  2130    59    57    1
  2131  2020  2018    1
  2132  1989  1990   ar
  2133    94    93    1
  2134  1113  1114    1
  2135  1113  1112    1
  2136    91    88    1
  2137    91    92    1
  2138  1114  1115    1
  2139  1053  1048    1
  2140  1053  1051    1
  2141    71    72    1
  2142    57    58    1
  2143  1048  1047    1
  2144  1948  1951    1
  2145  1948  1949    1
  2146    93    92    1
  2147  1970  1960   ar
  2148  1970  1969   ar
  2149  1078  1077   ar
  2150  2009  2010   ar
  2151  1967  1968    1
  2152  1967  1969   ar
  2153  1984  1985    2
  2154  1984  1983   ar
  2155    88    76    1
  2156    88    89    1
  2157  1030  1042    1
  2158  1044  1042    2
  2159  1960  1959    1
  2160    75    77    1
  2161    75    76    1
  2162    75    73    1
  2163  1110  1109    2
  2164  1076  1077   ar
  2165  1076  1075    1
  2166    79    77    1
  2167    79    74    1
  2168    77    78    1
  2169  1120  1115    1
  2170  1120  1121    1
  2171  1129  1128   ar
  2172  1129  1130   ar
  2173  1951  1952    1
  2174  2017  2016    1
  2175  1990  1983   ar
  2176  1128  1127   ar
  2177  2003  2010   ar
  2178  2003  2002    1
  2179    74    73    1
  2180    72    73    1
  2181  2018  2019    1
  2182  2018  2016    1
  2183  1112  1109    1
  2184  1130  1121   ar
  2185  1130  1124   ar
  2186  1121  1122   ar
  2187  1111  1109    1
  2188  1051  1052    1
  2189  1051  1049    1
  2190  1983  1982    1
  2191  1127  1125   ar
  2192  1075  1070    1
  2193  1075  1073    1
  2194  1042  1045    1
  2195  1042  1043    1
  2196  1109  1095    1
  2197  1047  1046    1
  2198  1047  1049    1
  2199  1046  1045    1
  2200  1124  1125   ar
  2201  1124  1123   ar
  2202  1122  1123   ar
  2203  1954  1959    1
  2204  1954  1953    1
  2205  1070  1069    1
  2206  1125  1126    1
  2207  2016  2015    1
  2208  1959  1957    1
  2209  1049  1050    1
  2210  2002  2000    1
  2211  2002  1997    1
  2212  1952  1953    1
  2213  2000  2001    1
  2214  2000  1998    1
  2215  1973  1971    2
  2216  1953  1955    1
  2217  1955  1957    1
  2218  1955  1956    1
  2219  1982  1977    1
  2220  1982  1980    1
  2221  1073  1074    1
  2222  1073  1071    1
  2223  1957  1958    1
  2224  1095  1094    1
  2225  1069  1068    1
  2226  1069  1071    1
  2227  2015  2014    1
  2228  1997  1996    1
  2229  1067  1068    1
  2230  1067  1064    1
  2231  2014  2011    1
  2232  1977  1976    1
  2233  1050  1064    1
  2234  1980  1978    1
  2235  1980  1981    1
  2236  1974  1971    1
  2237  1974  1975    1
  2238  1998  1996    1
  2239  1998  1999    1
  2240  1071  1072    1
  2241  1971  1956    1
  2242  1971  1972    1
  2243  1094  1096    1
  2244  1094  1092    1
  2245  1096  1097    1
  2246  1096  1098    1
  2247  1978  1976    1
  2248  1978  1979    1
  2249  1992  1991    2
  2250  1066  1064    2
  2251  1106  1105   ar
  2252  1106  1107   ar
  2253  1105  1103   ar
  2254  2013  2011    2
  2255  1064  1065    1
  2256  1996  1995    1
  2257  1975  1976    1
  2258  1107  1108   ar
  2259  1994  1991    1
  2260  1994  1995    1
  2261  2011  1999    1
  2262  2011  2012    1
  2263  1103  1104    1
  2264  1103  1102   ar
  2265  1108  1102   ar
  2266  1108  1099   ar
  2267  1102  1101   ar
  2268  1072  1087    1
  2269  1991  1979    1
  2270  1991  1993    1
  2271  1099  1098    1
  2272  1099  1100   ar
  2273  1090  1091    1
  2274  1090  1087    1
  2275  1101  1100   ar
  2276  1098  1093    1
  2277  1092  1091    1
  2278  1092  1093    1
  2279  1087  1089    2
  2280  1087  1088    1
