ligand
  PyMOL2.2          3D                             0

 14 13  0  0  0  0  0  0  0  0999 V2000
   58.6510    0.9710    2.6760 N   0  0  0  0  0  0  0  0  0  0  0  0
   57.5550    1.1300    1.7280 C   0  0  0  0  0  0  0  0  0  0  0  0
   56.3600    1.8540    2.3840 C   0  0  0  0  0  0  0  0  0  0  0  0
   55.6500    2.8760    1.4740 C   0  0  0  0  0  0  0  0  0  0  0  0
   54.2360    2.6440    1.1430 N   0  0  0  0  0  0  0  0  0  0  0  0
   53.5100    3.5520    0.2480 C   0  0  0  0  0  0  0  0  0  0  0  0
   52.4490    2.8860   -0.6330 C   0  0  0  0  0  0  0  0  0  0  0  0
   51.7690    3.8730   -1.5970 C   0  0  0  0  0  0  0  0  0  0  0  0
   52.1800    3.6920   -3.0670 C   0  0  0  0  0  0  0  0  0  0  0  0
   51.1120    3.2120   -3.9470 N   0  0  0  0  0  0  0  0  0  0  0  0
   51.4480    2.7500   -5.3050 C   0  0  0  0  0  0  0  0  0  0  0  0
   50.6260    1.5650   -5.8650 C   0  0  0  0  0  0  0  0  0  0  0  0
   51.0950    0.1600   -5.4360 C   0  0  0  0  0  0  0  0  0  0  0  0
   50.5430   -0.2590   -4.1510 N   0  0  0  0  0  0  0  0  0  0  0  0
  1  2  1  0  0  0  0
  2  3  1  0  0  0  0
  3  4  1  0  0  0  0
  4  5  1  0  0  0  0
  5  6  1  0  0  0  0
  6  7  1  0  0  0  0
  7  8  1  0  0  0  0
  8  9  1  0  0  0  0
  9 10  1  0  0  0  0
 10 11  1  0  0  0  0
 11 12  1  0  0  0  0
 12 13  1  0  0  0  0
 13 14  1  0  0  0  0
M  END
$$$$
