ligand
 OpenBabel11021811493D
libRbt.so/2013.1/901 2013/11/27
 14 13  0  0  0  0  0  0  0  0999 V2000
   58.2825   -0.1800    2.1750 N   0  0  0  0  0  0  0  0  0  0  0  0
   57.3173    0.8862    2.4136 C   0  0  0  0  0  0  0  0  0  0  0  0
   55.9608    0.5590    1.7538 C   0  0  0  0  0  0  0  0  0  0  0  0
   54.8942    1.6630    1.8967 C   0  0  0  0  0  0  0  0  0  0  0  0
   53.5639    1.4199    1.3187 N   0  0  0  0  0  0  0  0  0  0  0  0
   52.9069    2.4302    0.4820 C   0  0  0  0  0  0  0  0  0  0  0  0
   51.5600    2.0071   -0.1115 C   0  0  0  0  0  0  0  0  0  0  0  0
   50.8829    3.1304   -0.9149 C   0  0  0  0  0  0  0  0  0  0  0  0
   51.5994    3.4754   -2.2302 C   0  0  0  0  0  0  0  0  0  0  0  0
   51.4984    2.4490   -3.2703 N   0  0  0  0  0  0  0  0  0  0  0  0
   50.2712    2.3601   -4.0805 C   0  0  0  0  0  0  0  0  0  0  0  0
   50.3047    1.4090   -5.3002 C   0  0  0  0  0  0  0  0  0  0  0  0
   50.4694   -0.0902   -4.9786 C   0  0  0  0  0  0  0  0  0  0  0  0
   49.3549   -0.6353   -4.2091 N   0  0  0  0  0  0  0  0  0  0  0  0
  1  2  1  0  0  0  0
  2  3  1  0  0  0  0
  3  4  1  0  0  0  0
  4  5  1  0  0  0  0
  5  6  1  0  0  0  0
  6  7  1  0  0  0  0
  7  8  1  0  0  0  0
  8  9  1  0  0  0  0
  9 10  1  0  0  0  0
 10 11  1  0  0  0  0
 11 12  1  0  0  0  0
 12 13  1  0  0  0  0
 13 14  1  0  0  0  0
M  END
>  <CHROM.1>
-177.24824386,-178.82243227,-132.15120581,176.81547444,176.87499791,69.31070982
70.27598320,80.09032505,170.81779765,64.76379873,63.23652536,52.77601161
1.49200218,-1.07543066,-0.48491545,0.65473507,-2.34865797

>  <Name>
ligand

>  <RI>
0

>  <Rbt.Current_Directory>
/home/itssahil/PROJECTS/Mol_Feturizer/New_Systems/rnas/4E8Q

>  <Rbt.Executable>
rbdock ($Id: //depot/dev/client3/rdock/2013.1/src/exe/rbdock.cxx#4 $)

>  <Rbt.Library>
libRbt.so (2013.1, Build901 2013/11/27)

>  <Rbt.Parameter_File>
/export/apps/rDock/src/rDock_2013.1_src/data/scripts/dock_solv.prm

>  <Rbt.Receptor>
prm/pocket_docking_2.prm

>  <SCORE>
-5.55034

>  <SCORE.INTER>
5.64739

>  <SCORE.INTER.CONST>
1

>  <SCORE.INTER.POLAR>
0

>  <SCORE.INTER.ROT>
11

>  <SCORE.INTER.SOLV>
7.72497

>  <SCORE.INTER.VDW>
-9.7434

>  <SCORE.INTER.norm>
0.403385

>  <SCORE.INTRA>
-11.1986

>  <SCORE.INTRA.DIHEDRAL>
-23.5174

>  <SCORE.INTRA.DIHEDRAL.0>
25.9209

>  <SCORE.INTRA.POLAR>
0

>  <SCORE.INTRA.POLAR.0>
0

>  <SCORE.INTRA.REPUL>
0

>  <SCORE.INTRA.REPUL.0>
0

>  <SCORE.INTRA.SOLV>
-0.0919609

>  <SCORE.INTRA.SOLV.lig_0>
-47.4815

>  <SCORE.INTRA.VDW>
0.606081

>  <SCORE.INTRA.VDW.0>
-1.57492

>  <SCORE.INTRA.norm>
-0.7999

>  <SCORE.RESTR>
0.000872059

>  <SCORE.RESTR.CAVITY>
0.000872059

>  <SCORE.RESTR.norm>
6.22899e-05

>  <SCORE.SYSTEM>
0

>  <SCORE.SYSTEM.CONST>
0

>  <SCORE.SYSTEM.DIHEDRAL>
0

>  <SCORE.SYSTEM.SOLV>
0

>  <SCORE.SYSTEM.norm>
0

>  <SCORE.heavy>
14

>  <SCORE.norm>
-0.396453

>  <RMSD>
1.254

$$$$
ligand
 OpenBabel11021811493D
libRbt.so/2013.1/901 2013/11/27
 14 13  0  0  0  0  0  0  0  0999 V2000
   57.8198    0.0103    1.7627 N   0  0  0  0  0  0  0  0  0  0  0  0
   56.8105    0.7836    1.0497 C   0  0  0  0  0  0  0  0  0  0  0  0
   56.2350    1.8990    1.9481 C   0  0  0  0  0  0  0  0  0  0  0  0
   55.1464    2.7633    1.2812 C   0  0  0  0  0  0  0  0  0  0  0  0
   53.9201    2.0969    0.8177 N   0  0  0  0  0  0  0  0  0  0  0  0
   52.6467    2.8220    0.7450 C   0  0  0  0  0  0  0  0  0  0  0  0
   51.4939    2.0484    0.0984 C   0  0  0  0  0  0  0  0  0  0  0  0
   51.6525    1.9043   -1.4247 C   0  0  0  0  0  0  0  0  0  0  0  0
   51.5002    3.2256   -2.1952 C   0  0  0  0  0  0  0  0  0  0  0  0
   51.3021    3.0738   -3.6385 N   0  0  0  0  0  0  0  0  0  0  0  0
   49.9369    2.9071   -4.1666 C   0  0  0  0  0  0  0  0  0  0  0  0
   49.7890    2.1172   -5.4886 C   0  0  0  0  0  0  0  0  0  0  0  0
   50.1467    0.6187   -5.4193 C   0  0  0  0  0  0  0  0  0  0  0  0
   49.9770   -0.0687   -6.6961 N   0  0  0  0  0  0  0  0  0  0  0  0
  1  2  1  0  0  0  0
  2  3  1  0  0  0  0
  3  4  1  0  0  0  0
  4  5  1  0  0  0  0
  5  6  1  0  0  0  0
  6  7  1  0  0  0  0
  7  8  1  0  0  0  0
  8  9  1  0  0  0  0
  9 10  1  0  0  0  0
 10 11  1  0  0  0  0
 11 12  1  0  0  0  0
 12 13  1  0  0  0  0
 13 14  1  0  0  0  0
M  END
>  <CHROM.1>
-179.42262439,60.39330231,152.18199554,173.43970477,-72.46930224,-68.75540991
-164.97539619,87.76914947,-151.95988796,66.64053554,179.60753989,52.74098923
1.87178670,-1.52313035,-0.64882560,0.57870300,-2.17074911

>  <Name>
ligand

>  <RI>
0

>  <Rbt.Current_Directory>
/home/itssahil/PROJECTS/Mol_Feturizer/New_Systems/rnas/4E8Q

>  <Rbt.Executable>
rbdock ($Id: //depot/dev/client3/rdock/2013.1/src/exe/rbdock.cxx#4 $)

>  <Rbt.Library>
libRbt.so (2013.1, Build901 2013/11/27)

>  <Rbt.Parameter_File>
/export/apps/rDock/src/rDock_2013.1_src/data/scripts/dock_solv.prm

>  <Rbt.Receptor>
prm/pocket_docking_2.prm

>  <SCORE>
-4.65778

>  <SCORE.INTER>
6.58506

>  <SCORE.INTER.CONST>
1

>  <SCORE.INTER.POLAR>
0

>  <SCORE.INTER.ROT>
11

>  <SCORE.INTER.SOLV>
5.75124

>  <SCORE.INTER.VDW>
-8.46037

>  <SCORE.INTER.norm>
0.470361

>  <SCORE.INTRA>
-11.2461

>  <SCORE.INTRA.DIHEDRAL>
-22.4236

>  <SCORE.INTRA.DIHEDRAL.0>
25.9209

>  <SCORE.INTRA.POLAR>
0

>  <SCORE.INTRA.POLAR.0>
0

>  <SCORE.INTRA.REPUL>
0

>  <SCORE.INTRA.REPUL.0>
0

>  <SCORE.INTRA.SOLV>
-1.00324

>  <SCORE.INTRA.SOLV.lig_0>
-47.4815

>  <SCORE.INTRA.VDW>
0.467263

>  <SCORE.INTRA.VDW.0>
-1.57492

>  <SCORE.INTRA.norm>
-0.803296

>  <SCORE.RESTR>
0.003298

>  <SCORE.RESTR.CAVITY>
0.003298

>  <SCORE.RESTR.norm>
0.000235571

>  <SCORE.SYSTEM>
0

>  <SCORE.SYSTEM.CONST>
0

>  <SCORE.SYSTEM.DIHEDRAL>
0

>  <SCORE.SYSTEM.SOLV>
0

>  <SCORE.SYSTEM.norm>
0

>  <SCORE.heavy>
14

>  <SCORE.norm>
-0.332699

>  <RMSD>
1.375

$$$$
ligand
 OpenBabel11021811493D
libRbt.so/2013.1/901 2013/11/27
 14 13  0  0  0  0  0  0  0  0999 V2000
   57.0515    0.2579    1.9097 N   0  0  0  0  0  0  0  0  0  0  0  0
   56.3974    0.9653    3.0038 C   0  0  0  0  0  0  0  0  0  0  0  0
   54.9689    1.3943    2.6063 C   0  0  0  0  0  0  0  0  0  0  0  0
   54.9001    2.3787    1.4219 C   0  0  0  0  0  0  0  0  0  0  0  0
   53.5790    2.8778    1.0117 N   0  0  0  0  0  0  0  0  0  0  0  0
   52.5529    1.9652    0.4950 C   0  0  0  0  0  0  0  0  0  0  0  0
   51.6164    2.5680   -0.5563 C   0  0  0  0  0  0  0  0  0  0  0  0
   52.3503    2.9752   -1.8453 C   0  0  0  0  0  0  0  0  0  0  0  0
   51.4206    3.4899   -2.9559 C   0  0  0  0  0  0  0  0  0  0  0  0
   50.3486    2.5663   -3.3343 N   0  0  0  0  0  0  0  0  0  0  0  0
   50.0995    2.2943   -4.7607 C   0  0  0  0  0  0  0  0  0  0  0  0
   49.4234    0.9471   -5.1091 C   0  0  0  0  0  0  0  0  0  0  0  0
   50.1157   -0.3148   -4.5556 C   0  0  0  0  0  0  0  0  0  0  0  0
   49.4503   -1.5522   -4.9528 N   0  0  0  0  0  0  0  0  0  0  0  0
  1  2  1  0  0  0  0
  2  3  1  0  0  0  0
  3  4  1  0  0  0  0
  4  5  1  0  0  0  0
  5  6  1  0  0  0  0
  6  7  1  0  0  0  0
  7  8  1  0  0  0  0
  8  9  1  0  0  0  0
  9 10  1  0  0  0  0
 10 11  1  0  0  0  0
 11 12  1  0  0  0  0
 12 13  1  0  0  0  0
 13 14  1  0  0  0  0
M  END
>  <CHROM.1>
-62.25096442,-177.71965201,-63.42340774,-147.65518634,63.84571072,175.85049004
-55.58655269,-132.50934532,155.14950575,-54.20094629,-178.30804841,52.44812422
1.62975324,-1.25862788,-0.28225028,0.83814824,-2.84814037

>  <Name>
ligand

>  <RI>
0

>  <Rbt.Current_Directory>
/home/itssahil/PROJECTS/Mol_Feturizer/New_Systems/rnas/4E8Q

>  <Rbt.Executable>
rbdock ($Id: //depot/dev/client3/rdock/2013.1/src/exe/rbdock.cxx#4 $)

>  <Rbt.Library>
libRbt.so (2013.1, Build901 2013/11/27)

>  <Rbt.Parameter_File>
/export/apps/rDock/src/rDock_2013.1_src/data/scripts/dock_solv.prm

>  <Rbt.Receptor>
prm/pocket_docking_2.prm

>  <SCORE>
-4.68416

>  <SCORE.INTER>
6.68526

>  <SCORE.INTER.CONST>
1

>  <SCORE.INTER.POLAR>
0

>  <SCORE.INTER.ROT>
11

>  <SCORE.INTER.SOLV>
6.71197

>  <SCORE.INTER.VDW>
-8.71382

>  <SCORE.INTER.norm>
0.477519

>  <SCORE.INTRA>
-11.3809

>  <SCORE.INTRA.DIHEDRAL>
-23.3449

>  <SCORE.INTRA.DIHEDRAL.0>
25.9209

>  <SCORE.INTRA.POLAR>
0

>  <SCORE.INTRA.POLAR.0>
0

>  <SCORE.INTRA.REPUL>
0

>  <SCORE.INTRA.REPUL.0>
0

>  <SCORE.INTRA.SOLV>
-0.368563

>  <SCORE.INTRA.SOLV.lig_0>
-47.4815

>  <SCORE.INTRA.VDW>
0.4758

>  <SCORE.INTRA.VDW.0>
-1.57492

>  <SCORE.INTRA.norm>
-0.812922

>  <SCORE.RESTR>
0.0114929

>  <SCORE.RESTR.CAVITY>
0.0114929

>  <SCORE.RESTR.norm>
0.000820922

>  <SCORE.SYSTEM>
0

>  <SCORE.SYSTEM.CONST>
0

>  <SCORE.SYSTEM.DIHEDRAL>
0

>  <SCORE.SYSTEM.SOLV>
0

>  <SCORE.SYSTEM.norm>
0

>  <SCORE.heavy>
14

>  <SCORE.norm>
-0.334583

>  <RMSD>
1.411

$$$$
ligand
 OpenBabel11021811493D
libRbt.so/2013.1/901 2013/11/27
 14 13  0  0  0  0  0  0  0  0999 V2000
   49.4089   -1.0075   -4.3489 N   0  0  0  0  0  0  0  0  0  0  0  0
   49.9543   -0.3484   -5.5292 C   0  0  0  0  0  0  0  0  0  0  0  0
   50.5095    1.0472   -5.1736 C   0  0  0  0  0  0  0  0  0  0  0  0
   49.4772    2.0106   -4.5549 C   0  0  0  0  0  0  0  0  0  0  0  0
   49.9284    3.3570   -4.1721 N   0  0  0  0  0  0  0  0  0  0  0  0
   51.1153    3.5460   -3.3306 C   0  0  0  0  0  0  0  0  0  0  0  0
   51.0888    2.8018   -1.9923 C   0  0  0  0  0  0  0  0  0  0  0  0
   52.3733    3.0055   -1.1711 C   0  0  0  0  0  0  0  0  0  0  0  0
   52.3993    2.2212    0.1505 C   0  0  0  0  0  0  0  0  0  0  0  0
   53.6002    2.4293    0.9629 N   0  0  0  0  0  0  0  0  0  0  0  0
   54.0264    1.3793    1.9043 C   0  0  0  0  0  0  0  0  0  0  0  0
   55.5416    1.0749    1.9748 C   0  0  0  0  0  0  0  0  0  0  0  0
   56.4379    2.2341    2.4552 C   0  0  0  0  0  0  0  0  0  0  0  0
   57.8525    1.8774    2.5109 N   0  0  0  0  0  0  0  0  0  0  0  0
  1  2  1  0  0  0  0
  2  3  1  0  0  0  0
  3  4  1  0  0  0  0
  4  5  1  0  0  0  0
  5  6  1  0  0  0  0
  6  7  1  0  0  0  0
  7  8  1  0  0  0  0
  8  9  1  0  0  0  0
  9 10  1  0  0  0  0
 10 11  1  0  0  0  0
 11 12  1  0  0  0  0
 12 13  1  0  0  0  0
 13 14  1  0  0  0  0
M  END
>  <CHROM.1>
-58.66466708,179.29643351,-51.18255040,-55.30842011,178.41125081,-177.51786995
-178.50861257,-154.23513876,138.09385968,62.89054134,179.45290265,52.40799686
1.83067024,-1.45109466,-2.88900906,-0.82251523,0.24524084

>  <Name>
ligand

>  <RI>
0

>  <Rbt.Current_Directory>
/home/itssahil/PROJECTS/Mol_Feturizer/New_Systems/rnas/4E8Q

>  <Rbt.Executable>
rbdock ($Id: //depot/dev/client3/rdock/2013.1/src/exe/rbdock.cxx#4 $)

>  <Rbt.Library>
libRbt.so (2013.1, Build901 2013/11/27)

>  <Rbt.Parameter_File>
/export/apps/rDock/src/rDock_2013.1_src/data/scripts/dock_solv.prm

>  <Rbt.Receptor>
prm/pocket_docking_2.prm

>  <SCORE>
-4.48884

>  <SCORE.INTER>
7.16093

>  <SCORE.INTER.CONST>
1

>  <SCORE.INTER.POLAR>
0

>  <SCORE.INTER.ROT>
11

>  <SCORE.INTER.SOLV>
5.76499

>  <SCORE.INTER.VDW>
-8.08104

>  <SCORE.INTER.norm>
0.511495

>  <SCORE.INTRA>
-11.6498

>  <SCORE.INTRA.DIHEDRAL>
-24.3367

>  <SCORE.INTRA.DIHEDRAL.0>
25.9209

>  <SCORE.INTRA.POLAR>
0

>  <SCORE.INTRA.POLAR.0>
0

>  <SCORE.INTRA.REPUL>
0

>  <SCORE.INTRA.REPUL.0>
0

>  <SCORE.INTRA.SOLV>
-1.10875

>  <SCORE.INTRA.SOLV.lig_0>
-47.4815

>  <SCORE.INTRA.VDW>
1.07296

>  <SCORE.INTRA.VDW.0>
-1.57492

>  <SCORE.INTRA.norm>
-0.832126

>  <SCORE.RESTR>
0

>  <SCORE.RESTR.CAVITY>
0

>  <SCORE.RESTR.norm>
0

>  <SCORE.SYSTEM>
0

>  <SCORE.SYSTEM.CONST>
0

>  <SCORE.SYSTEM.DIHEDRAL>
0

>  <SCORE.SYSTEM.SOLV>
0

>  <SCORE.SYSTEM.norm>
0

>  <SCORE.heavy>
14

>  <SCORE.norm>
-0.320631

>  <RMSD>
1.426

$$$$
ligand
 OpenBabel11021811493D
libRbt.so/2013.1/901 2013/11/27
 14 13  0  0  0  0  0  0  0  0999 V2000
   58.9542   -0.4059    3.0251 N   0  0  0  0  0  0  0  0  0  0  0  0
   58.1168    0.0361    1.9168 C   0  0  0  0  0  0  0  0  0  0  0  0
   56.8269    0.7073    2.4346 C   0  0  0  0  0  0  0  0  0  0  0  0
   55.9016    1.2576    1.3311 C   0  0  0  0  0  0  0  0  0  0  0  0
   54.6728    1.9539    1.7408 N   0  0  0  0  0  0  0  0  0  0  0  0
   53.8222    2.6301    0.7550 C   0  0  0  0  0  0  0  0  0  0  0  0
   52.4686    1.9619    0.4968 C   0  0  0  0  0  0  0  0  0  0  0  0
   51.6682    2.6489   -0.6227 C   0  0  0  0  0  0  0  0  0  0  0  0
   52.2626    2.4503   -2.0262 C   0  0  0  0  0  0  0  0  0  0  0  0
   51.5802    3.1895   -3.0907 N   0  0  0  0  0  0  0  0  0  0  0  0
   50.2027    2.8188   -3.4589 C   0  0  0  0  0  0  0  0  0  0  0  0
   50.0364    1.6758   -4.4882 C   0  0  0  0  0  0  0  0  0  0  0  0
   50.4750    0.2756   -4.0138 C   0  0  0  0  0  0  0  0  0  0  0  0
   50.2388   -0.7652   -5.0101 N   0  0  0  0  0  0  0  0  0  0  0  0
  1  2  1  0  0  0  0
  2  3  1  0  0  0  0
  3  4  1  0  0  0  0
  4  5  1  0  0  0  0
  5  6  1  0  0  0  0
  6  7  1  0  0  0  0
  7  8  1  0  0  0  0
  8  9  1  0  0  0  0
  9 10  1  0  0  0  0
 10 11  1  0  0  0  0
 11 12  1  0  0  0  0
 12 13  1  0  0  0  0
 13 14  1  0  0  0  0
M  END
>  <CHROM.1>
177.73495352,-177.94558103,173.22850068,110.05991419,-175.46422676,69.96090678
-175.07117323,-67.27083739,-85.48550787,67.16741132,177.52119838,53.37315923
1.45981435,-0.78644624,-0.36263008,0.66206087,-2.44159374

>  <Name>
ligand

>  <RI>
0

>  <Rbt.Current_Directory>
/home/itssahil/PROJECTS/Mol_Feturizer/New_Systems/rnas/4E8Q

>  <Rbt.Executable>
rbdock ($Id: //depot/dev/client3/rdock/2013.1/src/exe/rbdock.cxx#4 $)

>  <Rbt.Library>
libRbt.so (2013.1, Build901 2013/11/27)

>  <Rbt.Parameter_File>
/export/apps/rDock/src/rDock_2013.1_src/data/scripts/dock_solv.prm

>  <Rbt.Receptor>
prm/pocket_docking_2.prm

>  <SCORE>
-5.7468

>  <SCORE.INTER>
5.97009

>  <SCORE.INTER.CONST>
1

>  <SCORE.INTER.POLAR>
0

>  <SCORE.INTER.ROT>
11

>  <SCORE.INTER.SOLV>
6.88982

>  <SCORE.INTER.VDW>
-9.24988

>  <SCORE.INTER.norm>
0.426435

>  <SCORE.INTRA>
-11.7169

>  <SCORE.INTRA.DIHEDRAL>
-23.4342

>  <SCORE.INTRA.DIHEDRAL.0>
25.9209

>  <SCORE.INTRA.POLAR>
0

>  <SCORE.INTRA.POLAR.0>
0

>  <SCORE.INTRA.REPUL>
0

>  <SCORE.INTRA.REPUL.0>
0

>  <SCORE.INTRA.SOLV>
-1.66317

>  <SCORE.INTRA.SOLV.lig_0>
-47.4815

>  <SCORE.INTRA.VDW>
0.831816

>  <SCORE.INTRA.VDW.0>
-1.57492

>  <SCORE.INTRA.norm>
-0.83692

>  <SCORE.RESTR>
0

>  <SCORE.RESTR.CAVITY>
0

>  <SCORE.RESTR.norm>
0

>  <SCORE.SYSTEM>
0

>  <SCORE.SYSTEM.CONST>
0

>  <SCORE.SYSTEM.DIHEDRAL>
0

>  <SCORE.SYSTEM.SOLV>
0

>  <SCORE.SYSTEM.norm>
0

>  <SCORE.heavy>
14

>  <SCORE.norm>
-0.410486

>  <RMSD>
1.440

$$$$
ligand
 OpenBabel11021811493D
libRbt.so/2013.1/901 2013/11/27
 14 13  0  0  0  0  0  0  0  0999 V2000
   57.8764   -0.1111    1.9311 N   0  0  0  0  0  0  0  0  0  0  0  0
   56.7138    0.5700    1.3745 C   0  0  0  0  0  0  0  0  0  0  0  0
   56.8997    2.1017    1.4178 C   0  0  0  0  0  0  0  0  0  0  0  0
   55.6953    2.9099    0.8953 C   0  0  0  0  0  0  0  0  0  0  0  0
   54.4277    2.8208    1.6356 N   0  0  0  0  0  0  0  0  0  0  0  0
   53.1446    3.0760    0.9714 C   0  0  0  0  0  0  0  0  0  0  0  0
   52.5407    1.8739    0.2397 C   0  0  0  0  0  0  0  0  0  0  0  0
   51.1721    2.1848   -0.3899 C   0  0  0  0  0  0  0  0  0  0  0  0
   51.2491    3.0748   -1.6407 C   0  0  0  0  0  0  0  0  0  0  0  0
   51.8814    2.4455   -2.8024 N   0  0  0  0  0  0  0  0  0  0  0  0
   51.2650    1.2484   -3.4002 C   0  0  0  0  0  0  0  0  0  0  0  0
   51.5124    1.0126   -4.9090 C   0  0  0  0  0  0  0  0  0  0  0  0
   50.9453   -0.3005   -5.4855 C   0  0  0  0  0  0  0  0  0  0  0  0
   49.4871   -0.3597   -5.4446 N   0  0  0  0  0  0  0  0  0  0  0  0
  1  2  1  0  0  0  0
  2  3  1  0  0  0  0
  3  4  1  0  0  0  0
  4  5  1  0  0  0  0
  5  6  1  0  0  0  0
  6  7  1  0  0  0  0
  7  8  1  0  0  0  0
  8  9  1  0  0  0  0
  9 10  1  0  0  0  0
 10 11  1  0  0  0  0
 11 12  1  0  0  0  0
 12 13  1  0  0  0  0
 13 14  1  0  0  0  0
M  END
>  <CHROM.1>
-177.88479052,64.43112012,-154.98964845,84.68188707,177.75817869,73.25444908
67.63232943,62.43676392,151.98488390,175.59896775,64.90872367,53.20066068
1.61067705,-1.11476737,-0.69235869,0.50246319,-2.24736151

>  <Name>
ligand

>  <RI>
0

>  <Rbt.Current_Directory>
/home/itssahil/PROJECTS/Mol_Feturizer/New_Systems/rnas/4E8Q

>  <Rbt.Executable>
rbdock ($Id: //depot/dev/client3/rdock/2013.1/src/exe/rbdock.cxx#4 $)

>  <Rbt.Library>
libRbt.so (2013.1, Build901 2013/11/27)

>  <Rbt.Parameter_File>
/export/apps/rDock/src/rDock_2013.1_src/data/scripts/dock_solv.prm

>  <Rbt.Receptor>
prm/pocket_docking_2.prm

>  <SCORE>
-5.48127

>  <SCORE.INTER>
5.62534

>  <SCORE.INTER.CONST>
1

>  <SCORE.INTER.POLAR>
0

>  <SCORE.INTER.ROT>
11

>  <SCORE.INTER.SOLV>
6.56056

>  <SCORE.INTER.VDW>
-9.36996

>  <SCORE.INTER.norm>
0.40181

>  <SCORE.INTRA>
-11.1327

>  <SCORE.INTRA.DIHEDRAL>
-23.2994

>  <SCORE.INTRA.DIHEDRAL.0>
25.9209

>  <SCORE.INTRA.POLAR>
0

>  <SCORE.INTRA.POLAR.0>
0

>  <SCORE.INTRA.REPUL>
0

>  <SCORE.INTRA.REPUL.0>
0

>  <SCORE.INTRA.SOLV>
-0.616372

>  <SCORE.INTRA.SOLV.lig_0>
-47.4815

>  <SCORE.INTRA.VDW>
0.825155

>  <SCORE.INTRA.VDW.0>
-1.57492

>  <SCORE.INTRA.norm>
-0.795196

>  <SCORE.RESTR>
0.0261352

>  <SCORE.RESTR.CAVITY>
0.0261352

>  <SCORE.RESTR.norm>
0.0018668

>  <SCORE.SYSTEM>
0

>  <SCORE.SYSTEM.CONST>
0

>  <SCORE.SYSTEM.DIHEDRAL>
0

>  <SCORE.SYSTEM.SOLV>
0

>  <SCORE.SYSTEM.norm>
0

>  <SCORE.heavy>
14

>  <SCORE.norm>
-0.391519

>  <RMSD>
1.451

$$$$
ligand
 OpenBabel11021811493D
libRbt.so/2013.1/901 2013/11/27
 14 13  0  0  0  0  0  0  0  0999 V2000
   56.9871    0.1980    1.9925 N   0  0  0  0  0  0  0  0  0  0  0  0
   55.9172    1.1262    1.6475 C   0  0  0  0  0  0  0  0  0  0  0  0
   55.2298    1.6711    2.9175 C   0  0  0  0  0  0  0  0  0  0  0  0
   54.1075    2.6941    2.6519 C   0  0  0  0  0  0  0  0  0  0  0  0
   52.9082    2.2361    1.9344 N   0  0  0  0  0  0  0  0  0  0  0  0
   52.9092    2.0926    0.4742 C   0  0  0  0  0  0  0  0  0  0  0  0
   52.5946    3.3729   -0.3051 C   0  0  0  0  0  0  0  0  0  0  0  0
   52.8143    3.2184   -1.8196 C   0  0  0  0  0  0  0  0  0  0  0  0
   51.7558    2.3496   -2.5178 C   0  0  0  0  0  0  0  0  0  0  0  0
   51.9447    2.1965   -3.9622 N   0  0  0  0  0  0  0  0  0  0  0  0
   50.7707    2.2299   -4.8517 C   0  0  0  0  0  0  0  0  0  0  0  0
   49.8051    1.0232   -4.7825 C   0  0  0  0  0  0  0  0  0  0  0  0
   50.4508   -0.3652   -4.9655 C   0  0  0  0  0  0  0  0  0  0  0  0
   49.4766   -1.4526   -4.9672 N   0  0  0  0  0  0  0  0  0  0  0  0
  1  2  1  0  0  0  0
  2  3  1  0  0  0  0
  3  4  1  0  0  0  0
  4  5  1  0  0  0  0
  5  6  1  0  0  0  0
  6  7  1  0  0  0  0
  7  8  1  0  0  0  0
  8  9  1  0  0  0  0
  9 10  1  0  0  0  0
 10 11  1  0  0  0  0
 11 12  1  0  0  0  0
 12 13  1  0  0  0  0
 13 14  1  0  0  0  0
M  END
>  <CHROM.1>
178.36805499,64.55937816,-79.58549800,-85.31206398,171.41197248,72.22664140
179.70494049,-139.84528189,-70.06686400,-53.30379312,-176.64550170,52.69077366
1.61397241,-1.18237027,-0.48019313,0.88541966,-2.69451872

>  <Name>
ligand

>  <RI>
0

>  <Rbt.Current_Directory>
/home/itssahil/PROJECTS/Mol_Feturizer/New_Systems/rnas/4E8Q

>  <Rbt.Executable>
rbdock ($Id: //depot/dev/client3/rdock/2013.1/src/exe/rbdock.cxx#4 $)

>  <Rbt.Library>
libRbt.so (2013.1, Build901 2013/11/27)

>  <Rbt.Parameter_File>
/export/apps/rDock/src/rDock_2013.1_src/data/scripts/dock_solv.prm

>  <Rbt.Receptor>
prm/pocket_docking_2.prm

>  <SCORE>
-3.29999

>  <SCORE.INTER>
8.12541

>  <SCORE.INTER.CONST>
1

>  <SCORE.INTER.POLAR>
0

>  <SCORE.INTER.ROT>
11

>  <SCORE.INTER.SOLV>
7.00328

>  <SCORE.INTER.VDW>
-7.85082

>  <SCORE.INTER.norm>
0.580386

>  <SCORE.INTRA>
-11.4254

>  <SCORE.INTRA.DIHEDRAL>
-23.0129

>  <SCORE.INTRA.DIHEDRAL.0>
25.9209

>  <SCORE.INTRA.POLAR>
0

>  <SCORE.INTRA.POLAR.0>
0

>  <SCORE.INTRA.REPUL>
0

>  <SCORE.INTRA.REPUL.0>
0

>  <SCORE.INTRA.SOLV>
-1.37148

>  <SCORE.INTRA.SOLV.lig_0>
-47.4815

>  <SCORE.INTRA.VDW>
0.766808

>  <SCORE.INTRA.VDW.0>
-1.57492

>  <SCORE.INTRA.norm>
-0.8161

>  <SCORE.RESTR>
0

>  <SCORE.RESTR.CAVITY>
0

>  <SCORE.RESTR.norm>
0

>  <SCORE.SYSTEM>
0

>  <SCORE.SYSTEM.CONST>
0

>  <SCORE.SYSTEM.DIHEDRAL>
0

>  <SCORE.SYSTEM.SOLV>
0

>  <SCORE.SYSTEM.norm>
0

>  <SCORE.heavy>
14

>  <SCORE.norm>
-0.235714

>  <RMSD>
1.468

$$$$
ligand
 OpenBabel11021811493D
libRbt.so/2013.1/901 2013/11/27
 14 13  0  0  0  0  0  0  0  0999 V2000
   51.3191    0.4678   -6.4797 N   0  0  0  0  0  0  0  0  0  0  0  0
   50.7165   -0.0383   -5.2525 C   0  0  0  0  0  0  0  0  0  0  0  0
   49.4986    0.8171   -4.8434 C   0  0  0  0  0  0  0  0  0  0  0  0
   49.8388    2.2630   -4.4304 C   0  0  0  0  0  0  0  0  0  0  0  0
   50.5340    2.4728   -3.1516 N   0  0  0  0  0  0  0  0  0  0  0  0
   51.9959    2.3857   -3.0623 C   0  0  0  0  0  0  0  0  0  0  0  0
   52.5943    2.8434   -1.7290 C   0  0  0  0  0  0  0  0  0  0  0  0
   52.1161    1.9954   -0.5382 C   0  0  0  0  0  0  0  0  0  0  0  0
   52.7724    2.3728    0.7995 C   0  0  0  0  0  0  0  0  0  0  0  0
   54.2200    2.1564    0.8542 N   0  0  0  0  0  0  0  0  0  0  0  0
   54.7994    1.4332    1.9995 C   0  0  0  0  0  0  0  0  0  0  0  0
   55.8944    0.3863    1.6854 C   0  0  0  0  0  0  0  0  0  0  0  0
   57.1575    0.9252    0.9840 C   0  0  0  0  0  0  0  0  0  0  0  0
   57.8954    1.8880    1.7964 N   0  0  0  0  0  0  0  0  0  0  0  0
  1  2  1  0  0  0  0
  2  3  1  0  0  0  0
  3  4  1  0  0  0  0
  4  5  1  0  0  0  0
  5  6  1  0  0  0  0
  6  7  1  0  0  0  0
  7  8  1  0  0  0  0
  8  9  1  0  0  0  0
  9 10  1  0  0  0  0
 10 11  1  0  0  0  0
 11 12  1  0  0  0  0
 12 13  1  0  0  0  0
 13 14  1  0  0  0  0
M  END
>  <CHROM.1>
-66.39772003,-71.10387872,85.27246976,170.67598648,61.78380444,176.16633261
-63.80504411,-130.95285832,137.16907673,60.09176265,63.31805213,52.95352580
1.59770449,-1.52619090,-2.38185371,-0.42766563,1.12682171

>  <Name>
ligand

>  <RI>
0

>  <Rbt.Current_Directory>
/home/itssahil/PROJECTS/Mol_Feturizer/New_Systems/rnas/4E8Q

>  <Rbt.Executable>
rbdock ($Id: //depot/dev/client3/rdock/2013.1/src/exe/rbdock.cxx#4 $)

>  <Rbt.Library>
libRbt.so (2013.1, Build901 2013/11/27)

>  <Rbt.Parameter_File>
/export/apps/rDock/src/rDock_2013.1_src/data/scripts/dock_solv.prm

>  <Rbt.Receptor>
prm/pocket_docking_2.prm

>  <SCORE>
-5.12997

>  <SCORE.INTER>
4.99812

>  <SCORE.INTER.CONST>
1

>  <SCORE.INTER.POLAR>
0

>  <SCORE.INTER.ROT>
11

>  <SCORE.INTER.SOLV>
7.46832

>  <SCORE.INTER.VDW>
-10.0907

>  <SCORE.INTER.norm>
0.357008

>  <SCORE.INTRA>
-10.1344

>  <SCORE.INTRA.DIHEDRAL>
-22.5438

>  <SCORE.INTRA.DIHEDRAL.0>
25.9209

>  <SCORE.INTRA.POLAR>
0

>  <SCORE.INTRA.POLAR.0>
0

>  <SCORE.INTRA.REPUL>
0

>  <SCORE.INTRA.REPUL.0>
0

>  <SCORE.INTRA.SOLV>
2.03712

>  <SCORE.INTRA.SOLV.lig_0>
-47.4815

>  <SCORE.INTRA.VDW>
0.118958

>  <SCORE.INTRA.VDW.0>
-1.57492

>  <SCORE.INTRA.norm>
-0.723885

>  <SCORE.RESTR>
0.00630395

>  <SCORE.RESTR.CAVITY>
0.00630395

>  <SCORE.RESTR.norm>
0.000450282

>  <SCORE.SYSTEM>
0

>  <SCORE.SYSTEM.CONST>
0

>  <SCORE.SYSTEM.DIHEDRAL>
0

>  <SCORE.SYSTEM.SOLV>
0

>  <SCORE.SYSTEM.norm>
0

>  <SCORE.heavy>
14

>  <SCORE.norm>
-0.366427

>  <RMSD>
1.478

$$$$
ligand
 OpenBabel11021811493D
libRbt.so/2013.1/901 2013/11/27
 14 13  0  0  0  0  0  0  0  0999 V2000
   50.4049   -0.6406   -3.2812 N   0  0  0  0  0  0  0  0  0  0  0  0
   50.0178   -0.0650   -4.5634 C   0  0  0  0  0  0  0  0  0  0  0  0
   50.9438    1.1106   -4.9415 C   0  0  0  0  0  0  0  0  0  0  0  0
   50.9521    2.2730   -3.9289 C   0  0  0  0  0  0  0  0  0  0  0  0
   51.4947    2.0182   -2.5860 N   0  0  0  0  0  0  0  0  0  0  0  0
   51.7641    3.1216   -1.6573 C   0  0  0  0  0  0  0  0  0  0  0  0
   52.3042    2.7013   -0.2873 C   0  0  0  0  0  0  0  0  0  0  0  0
   52.5968    3.8995    0.6317 C   0  0  0  0  0  0  0  0  0  0  0  0
   53.1403    3.5065    2.0147 C   0  0  0  0  0  0  0  0  0  0  0  0
   54.4342    2.8204    1.9921 N   0  0  0  0  0  0  0  0  0  0  0  0
   54.5035    1.3968    2.3649 C   0  0  0  0  0  0  0  0  0  0  0  0
   55.9102    0.8101    2.6306 C   0  0  0  0  0  0  0  0  0  0  0  0
   56.8503    0.7403    1.4101 C   0  0  0  0  0  0  0  0  0  0  0  0
   58.1080    0.0564    1.6961 N   0  0  0  0  0  0  0  0  0  0  0  0
  1  2  1  0  0  0  0
  2  3  1  0  0  0  0
  3  4  1  0  0  0  0
  4  5  1  0  0  0  0
  5  6  1  0  0  0  0
  6  7  1  0  0  0  0
  7  8  1  0  0  0  0
  8  9  1  0  0  0  0
  9 10  1  0  0  0  0
 10 11  1  0  0  0  0
 11 12  1  0  0  0  0
 12 13  1  0  0  0  0
 13 14  1  0  0  0  0
M  END
>  <CHROM.1>
-59.57567717,65.66028715,168.61269891,178.97076872,178.74030805,179.99012744
63.09217705,-111.21187507,-166.67647131,-66.10969008,-174.20525117,53.10156567
1.69662215,-0.60753771,-2.54625003,-0.65447119,0.78257963

>  <Name>
ligand

>  <RI>
0

>  <Rbt.Current_Directory>
/home/itssahil/PROJECTS/Mol_Feturizer/New_Systems/rnas/4E8Q

>  <Rbt.Executable>
rbdock ($Id: //depot/dev/client3/rdock/2013.1/src/exe/rbdock.cxx#4 $)

>  <Rbt.Library>
libRbt.so (2013.1, Build901 2013/11/27)

>  <Rbt.Parameter_File>
/export/apps/rDock/src/rDock_2013.1_src/data/scripts/dock_solv.prm

>  <Rbt.Receptor>
prm/pocket_docking_2.prm

>  <SCORE>
-3.71991

>  <SCORE.INTER>
7.63047

>  <SCORE.INTER.CONST>
1

>  <SCORE.INTER.POLAR>
0

>  <SCORE.INTER.ROT>
11

>  <SCORE.INTER.SOLV>
8.72462

>  <SCORE.INTER.VDW>
-8.75456

>  <SCORE.INTER.norm>
0.545034

>  <SCORE.INTRA>
-11.3536

>  <SCORE.INTRA.DIHEDRAL>
-24.1095

>  <SCORE.INTRA.DIHEDRAL.0>
25.9209

>  <SCORE.INTRA.POLAR>
0

>  <SCORE.INTRA.POLAR.0>
0

>  <SCORE.INTRA.REPUL>
0

>  <SCORE.INTRA.REPUL.0>
0

>  <SCORE.INTRA.SOLV>
1.23303

>  <SCORE.INTRA.SOLV.lig_0>
-47.4815

>  <SCORE.INTRA.VDW>
0.0846414

>  <SCORE.INTRA.VDW.0>
-1.57492

>  <SCORE.INTRA.norm>
-0.810972

>  <SCORE.RESTR>
0.00322442

>  <SCORE.RESTR.CAVITY>
0.00322442

>  <SCORE.RESTR.norm>
0.000230316

>  <SCORE.SYSTEM>
0

>  <SCORE.SYSTEM.CONST>
0

>  <SCORE.SYSTEM.DIHEDRAL>
0

>  <SCORE.SYSTEM.SOLV>
0

>  <SCORE.SYSTEM.norm>
0

>  <SCORE.heavy>
14

>  <SCORE.norm>
-0.265708

>  <RMSD>
1.486

$$$$
ligand
 OpenBabel11021811493D
libRbt.so/2013.1/901 2013/11/27
 14 13  0  0  0  0  0  0  0  0999 V2000
   50.3999   -0.6786   -3.2919 N   0  0  0  0  0  0  0  0  0  0  0  0
   50.2272   -0.0526   -4.5971 C   0  0  0  0  0  0  0  0  0  0  0  0
   51.2451    1.0900   -4.7991 C   0  0  0  0  0  0  0  0  0  0  0  0
   51.1097    2.2550   -3.7985 C   0  0  0  0  0  0  0  0  0  0  0  0
   51.4126    1.9919   -2.3837 N   0  0  0  0  0  0  0  0  0  0  0  0
   51.1599    3.0068   -1.3548 C   0  0  0  0  0  0  0  0  0  0  0  0
   51.1850    2.4913    0.0871 C   0  0  0  0  0  0  0  0  0  0  0  0
   52.5563    1.9262    0.4947 C   0  0  0  0  0  0  0  0  0  0  0  0
   53.6378    2.9995    0.6972 C   0  0  0  0  0  0  0  0  0  0  0  0
   55.0028    2.4802    0.8094 N   0  0  0  0  0  0  0  0  0  0  0  0
   55.2999    1.4399    1.8093 C   0  0  0  0  0  0  0  0  0  0  0  0
   56.7915    1.1139    2.0588 C   0  0  0  0  0  0  0  0  0  0  0  0
   57.0711   -0.0604    3.0184 C   0  0  0  0  0  0  0  0  0  0  0  0
   58.4958   -0.2953    3.2341 N   0  0  0  0  0  0  0  0  0  0  0  0
  1  2  1  0  0  0  0
  2  3  1  0  0  0  0
  3  4  1  0  0  0  0
  4  5  1  0  0  0  0
  5  6  1  0  0  0  0
  6  7  1  0  0  0  0
  7  8  1  0  0  0  0
  8  9  1  0  0  0  0
  9 10  1  0  0  0  0
 10 11  1  0  0  0  0
 11 12  1  0  0  0  0
 12 13  1  0  0  0  0
 13 14  1  0  0  0  0
M  END
>  <CHROM.1>
-62.29101160,66.57494282,-172.97694748,165.32875850,62.41000394,72.25838067
-167.86647589,-53.86776534,-169.28994150,-174.92264170,-178.67692033,53.25652969
1.40791831,-0.57264225,-2.69981263,-0.67287891,0.71219743

>  <Name>
ligand

>  <RI>
0

>  <Rbt.Current_Directory>
/home/itssahil/PROJECTS/Mol_Feturizer/New_Systems/rnas/4E8Q

>  <Rbt.Executable>
rbdock ($Id: //depot/dev/client3/rdock/2013.1/src/exe/rbdock.cxx#4 $)

>  <Rbt.Library>
libRbt.so (2013.1, Build901 2013/11/27)

>  <Rbt.Parameter_File>
/export/apps/rDock/src/rDock_2013.1_src/data/scripts/dock_solv.prm

>  <Rbt.Receptor>
prm/pocket_docking_2.prm

>  <SCORE>
-3.6732

>  <SCORE.INTER>
6.76022

>  <SCORE.INTER.CONST>
1

>  <SCORE.INTER.POLAR>
0

>  <SCORE.INTER.ROT>
11

>  <SCORE.INTER.SOLV>
9.61221

>  <SCORE.INTER.VDW>
-9.63059

>  <SCORE.INTER.norm>
0.482873

>  <SCORE.INTRA>
-10.4345

>  <SCORE.INTRA.DIHEDRAL>
-24.135

>  <SCORE.INTRA.DIHEDRAL.0>
25.9209

>  <SCORE.INTRA.POLAR>
0

>  <SCORE.INTRA.POLAR.0>
0

>  <SCORE.INTRA.REPUL>
0

>  <SCORE.INTRA.REPUL.0>
0

>  <SCORE.INTRA.SOLV>
1.22847

>  <SCORE.INTRA.SOLV.lig_0>
-47.4815

>  <SCORE.INTRA.VDW>
1.01874

>  <SCORE.INTRA.VDW.0>
-1.57492

>  <SCORE.INTRA.norm>
-0.745322

>  <SCORE.RESTR>
0.00107441

>  <SCORE.RESTR.CAVITY>
0.00107441

>  <SCORE.RESTR.norm>
7.67433e-05

>  <SCORE.SYSTEM>
0

>  <SCORE.SYSTEM.CONST>
0

>  <SCORE.SYSTEM.DIHEDRAL>
0

>  <SCORE.SYSTEM.SOLV>
0

>  <SCORE.SYSTEM.norm>
0

>  <SCORE.heavy>
14

>  <SCORE.norm>
-0.262372

>  <RMSD>
1.517

$$$$
ligand
 OpenBabel11021811493D
libRbt.so/2013.1/901 2013/11/27
 14 13  0  0  0  0  0  0  0  0999 V2000
   57.3560   -0.5079    1.9164 N   0  0  0  0  0  0  0  0  0  0  0  0
   57.0694    0.6261    1.0464 C   0  0  0  0  0  0  0  0  0  0  0  0
   56.3888    1.7661    1.8337 C   0  0  0  0  0  0  0  0  0  0  0  0
   54.9911    1.4208    2.3848 C   0  0  0  0  0  0  0  0  0  0  0  0
   53.9015    1.2014    1.4219 N   0  0  0  0  0  0  0  0  0  0  0  0
   53.1498    2.3294    0.8605 C   0  0  0  0  0  0  0  0  0  0  0  0
   52.2781    1.9907   -0.3523 C   0  0  0  0  0  0  0  0  0  0  0  0
   51.6889    3.2392   -1.0306 C   0  0  0  0  0  0  0  0  0  0  0  0
   50.9232    2.9403   -2.3294 C   0  0  0  0  0  0  0  0  0  0  0  0
   51.7227    2.3051   -3.3795 N   0  0  0  0  0  0  0  0  0  0  0  0
   51.3239    0.9820   -3.8903 C   0  0  0  0  0  0  0  0  0  0  0  0
   49.9747    0.8994   -4.6429 C   0  0  0  0  0  0  0  0  0  0  0  0
   49.5903   -0.4934   -5.1817 C   0  0  0  0  0  0  0  0  0  0  0  0
   49.4096   -1.4848   -4.1253 N   0  0  0  0  0  0  0  0  0  0  0  0
  1  2  1  0  0  0  0
  2  3  1  0  0  0  0
  3  4  1  0  0  0  0
  4  5  1  0  0  0  0
  5  6  1  0  0  0  0
  6  7  1  0  0  0  0
  7  8  1  0  0  0  0
  8  9  1  0  0  0  0
  9 10  1  0  0  0  0
 10 11  1  0  0  0  0
 11 12  1  0  0  0  0
 12 13  1  0  0  0  0
 13 14  1  0  0  0  0
M  END
>  <CHROM.1>
-65.06110200,-66.96618425,-83.36205109,166.49975763,-171.05175744,174.34752192
-60.04604737,120.13407240,65.19392455,179.27677131,62.82800134,52.84048069
1.22995195,-1.10492401,-0.42732427,0.69244884,-2.59864641

>  <Name>
ligand

>  <RI>
0

>  <Rbt.Current_Directory>
/home/itssahil/PROJECTS/Mol_Feturizer/New_Systems/rnas/4E8Q

>  <Rbt.Executable>
rbdock ($Id: //depot/dev/client3/rdock/2013.1/src/exe/rbdock.cxx#4 $)

>  <Rbt.Library>
libRbt.so (2013.1, Build901 2013/11/27)

>  <Rbt.Parameter_File>
/export/apps/rDock/src/rDock_2013.1_src/data/scripts/dock_solv.prm

>  <Rbt.Receptor>
prm/pocket_docking_2.prm

>  <SCORE>
-4.90264

>  <SCORE.INTER>
6.10179

>  <SCORE.INTER.CONST>
1

>  <SCORE.INTER.POLAR>
0

>  <SCORE.INTER.ROT>
11

>  <SCORE.INTER.SOLV>
11.0957

>  <SCORE.INTER.VDW>
-10.564

>  <SCORE.INTER.norm>
0.435842

>  <SCORE.INTRA>
-11.0044

>  <SCORE.INTRA.DIHEDRAL>
-23.4189

>  <SCORE.INTRA.DIHEDRAL.0>
25.9209

>  <SCORE.INTRA.POLAR>
0

>  <SCORE.INTRA.POLAR.0>
0

>  <SCORE.INTRA.REPUL>
0

>  <SCORE.INTRA.REPUL.0>
0

>  <SCORE.INTRA.SOLV>
0.404682

>  <SCORE.INTRA.SOLV.lig_0>
-47.4815

>  <SCORE.INTRA.VDW>
0.502679

>  <SCORE.INTRA.VDW.0>
-1.57492

>  <SCORE.INTRA.norm>
-0.78603

>  <SCORE.RESTR>
0

>  <SCORE.RESTR.CAVITY>
0

>  <SCORE.RESTR.norm>
0

>  <SCORE.SYSTEM>
0

>  <SCORE.SYSTEM.CONST>
0

>  <SCORE.SYSTEM.DIHEDRAL>
0

>  <SCORE.SYSTEM.SOLV>
0

>  <SCORE.SYSTEM.norm>
0

>  <SCORE.heavy>
14

>  <SCORE.norm>
-0.350188

>  <RMSD>
1.518

$$$$
ligand
 OpenBabel11021811493D
libRbt.so/2013.1/901 2013/11/27
 14 13  0  0  0  0  0  0  0  0999 V2000
   49.5560   -1.2324   -4.9101 N   0  0  0  0  0  0  0  0  0  0  0  0
   49.7964    0.0044   -4.1768 C   0  0  0  0  0  0  0  0  0  0  0  0
   51.2377    0.5079   -4.4035 C   0  0  0  0  0  0  0  0  0  0  0  0
   51.5695    1.8418   -3.7053 C   0  0  0  0  0  0  0  0  0  0  0  0
   51.5004    1.8911   -2.2371 N   0  0  0  0  0  0  0  0  0  0  0  0
   51.5670    3.1691   -1.5195 C   0  0  0  0  0  0  0  0  0  0  0  0
   51.4328    3.0678    0.0028 C   0  0  0  0  0  0  0  0  0  0  0  0
   52.5812    2.2764    0.6514 C   0  0  0  0  0  0  0  0  0  0  0  0
   53.9598    2.9381    0.4964 C   0  0  0  0  0  0  0  0  0  0  0  0
   55.0748    2.1685    1.0531 N   0  0  0  0  0  0  0  0  0  0  0  0
   56.4494    2.6771    0.9035 C   0  0  0  0  0  0  0  0  0  0  0  0
   57.5940    1.6407    1.0007 C   0  0  0  0  0  0  0  0  0  0  0  0
   57.6656    0.8406    2.3170 C   0  0  0  0  0  0  0  0  0  0  0  0
   58.7901   -0.0895    2.3597 N   0  0  0  0  0  0  0  0  0  0  0  0
  1  2  1  0  0  0  0
  2  3  1  0  0  0  0
  3  4  1  0  0  0  0
  4  5  1  0  0  0  0
  5  6  1  0  0  0  0
  6  7  1  0  0  0  0
  7  8  1  0  0  0  0
  8  9  1  0  0  0  0
  9 10  1  0  0  0  0
 10 11  1  0  0  0  0
 11 12  1  0  0  0  0
 12 13  1  0  0  0  0
 13 14  1  0  0  0  0
M  END
>  <CHROM.1>
177.91933704,62.05032162,-169.04187058,177.92660983,63.48232478,64.35592087
-177.27610085,177.09403280,-157.32525075,-58.48318908,-178.26113177,53.48380367
1.55046418,-0.86910627,-2.65280197,-0.50649991,0.69777458

>  <Name>
ligand

>  <RI>
0

>  <Rbt.Current_Directory>
/home/itssahil/PROJECTS/Mol_Feturizer/New_Systems/rnas/4E8Q

>  <Rbt.Executable>
rbdock ($Id: //depot/dev/client3/rdock/2013.1/src/exe/rbdock.cxx#4 $)

>  <Rbt.Library>
libRbt.so (2013.1, Build901 2013/11/27)

>  <Rbt.Parameter_File>
/export/apps/rDock/src/rDock_2013.1_src/data/scripts/dock_solv.prm

>  <Rbt.Receptor>
prm/pocket_docking_2.prm

>  <SCORE>
-6.42692

>  <SCORE.INTER>
5.99346

>  <SCORE.INTER.CONST>
1

>  <SCORE.INTER.POLAR>
0

>  <SCORE.INTER.ROT>
11

>  <SCORE.INTER.SOLV>
8.41193

>  <SCORE.INTER.VDW>
-9.74167

>  <SCORE.INTER.norm>
0.428104

>  <SCORE.INTRA>
-12.4294

>  <SCORE.INTRA.DIHEDRAL>
-25.2335

>  <SCORE.INTRA.DIHEDRAL.0>
25.9209

>  <SCORE.INTRA.POLAR>
0

>  <SCORE.INTRA.POLAR.0>
0

>  <SCORE.INTRA.REPUL>
0

>  <SCORE.INTRA.REPUL.0>
0

>  <SCORE.INTRA.SOLV>
-0.843857

>  <SCORE.INTRA.SOLV.lig_0>
-47.4815

>  <SCORE.INTRA.VDW>
0.609264

>  <SCORE.INTRA.VDW.0>
-1.57492

>  <SCORE.INTRA.norm>
-0.887815

>  <SCORE.RESTR>
0.00902017

>  <SCORE.RESTR.CAVITY>
0.00902017

>  <SCORE.RESTR.norm>
0.000644298

>  <SCORE.SYSTEM>
0

>  <SCORE.SYSTEM.CONST>
0

>  <SCORE.SYSTEM.DIHEDRAL>
0

>  <SCORE.SYSTEM.SOLV>
0

>  <SCORE.SYSTEM.norm>
0

>  <SCORE.heavy>
14

>  <SCORE.norm>
-0.459066

>  <RMSD>
1.554

$$$$
ligand
 OpenBabel11021811493D
libRbt.so/2013.1/901 2013/11/27
 14 13  0  0  0  0  0  0  0  0999 V2000
   49.4412   -0.9470   -5.5315 N   0  0  0  0  0  0  0  0  0  0  0  0
   49.4313    0.5084   -5.6143 C   0  0  0  0  0  0  0  0  0  0  0  0
   49.9217    1.1386   -4.2934 C   0  0  0  0  0  0  0  0  0  0  0  0
   49.9244    2.6802   -4.2794 C   0  0  0  0  0  0  0  0  0  0  0  0
   50.4103    3.3611   -3.0698 N   0  0  0  0  0  0  0  0  0  0  0  0
   51.7921    3.1879   -2.6079 C   0  0  0  0  0  0  0  0  0  0  0  0
   52.0607    1.8958   -1.8308 C   0  0  0  0  0  0  0  0  0  0  0  0
   51.4863    1.9274   -0.4043 C   0  0  0  0  0  0  0  0  0  0  0  0
   52.2974    2.7905    0.5754 C   0  0  0  0  0  0  0  0  0  0  0  0
   53.6680    2.3293    0.8080 N   0  0  0  0  0  0  0  0  0  0  0  0
   54.5187    3.0495    1.7715 C   0  0  0  0  0  0  0  0  0  0  0  0
   56.0455    2.8255    1.6617 C   0  0  0  0  0  0  0  0  0  0  0  0
   56.5211    1.3644    1.7917 C   0  0  0  0  0  0  0  0  0  0  0  0
   56.1845    0.7665    3.0804 N   0  0  0  0  0  0  0  0  0  0  0  0
  1  2  1  0  0  0  0
  2  3  1  0  0  0  0
  3  4  1  0  0  0  0
  4  5  1  0  0  0  0
  5  6  1  0  0  0  0
  6  7  1  0  0  0  0
  7  8  1  0  0  0  0
  8  9  1  0  0  0  0
  9 10  1  0  0  0  0
 10 11  1  0  0  0  0
 11 12  1  0  0  0  0
 12 13  1  0  0  0  0
 13 14  1  0  0  0  0
M  END
>  <CHROM.1>
-179.07931465,-178.46772124,61.86939675,-80.03860555,-74.23305065,-75.21552924
-62.89542375,-177.51666386,-161.24679575,-57.85360026,-61.01530266,52.40736342
1.92008567,-1.28166527,-2.72741209,-0.78931540,0.42347283

>  <Name>
ligand

>  <RI>
0

>  <Rbt.Current_Directory>
/home/itssahil/PROJECTS/Mol_Feturizer/New_Systems/rnas/4E8Q

>  <Rbt.Executable>
rbdock ($Id: //depot/dev/client3/rdock/2013.1/src/exe/rbdock.cxx#4 $)

>  <Rbt.Library>
libRbt.so (2013.1, Build901 2013/11/27)

>  <Rbt.Parameter_File>
/export/apps/rDock/src/rDock_2013.1_src/data/scripts/dock_solv.prm

>  <Rbt.Receptor>
prm/pocket_docking_2.prm

>  <SCORE>
-4.15893

>  <SCORE.INTER>
6.71551

>  <SCORE.INTER.CONST>
1

>  <SCORE.INTER.POLAR>
0

>  <SCORE.INTER.ROT>
11

>  <SCORE.INTER.SOLV>
4.66389

>  <SCORE.INTER.VDW>
-8.01096

>  <SCORE.INTER.norm>
0.479679

>  <SCORE.INTRA>
-10.8813

>  <SCORE.INTRA.DIHEDRAL>
-23.6277

>  <SCORE.INTRA.DIHEDRAL.0>
25.9209

>  <SCORE.INTRA.POLAR>
0

>  <SCORE.INTRA.POLAR.0>
0

>  <SCORE.INTRA.REPUL>
0

>  <SCORE.INTRA.REPUL.0>
0

>  <SCORE.INTRA.SOLV>
0.498505

>  <SCORE.INTRA.SOLV.lig_0>
-47.4815

>  <SCORE.INTRA.VDW>
0.683326

>  <SCORE.INTRA.VDW.0>
-1.57492

>  <SCORE.INTRA.norm>
-0.777234

>  <SCORE.RESTR>
0.00683225

>  <SCORE.RESTR.CAVITY>
0.00683225

>  <SCORE.RESTR.norm>
0.000488018

>  <SCORE.SYSTEM>
0

>  <SCORE.SYSTEM.CONST>
0

>  <SCORE.SYSTEM.DIHEDRAL>
0

>  <SCORE.SYSTEM.SOLV>
0

>  <SCORE.SYSTEM.norm>
0

>  <SCORE.heavy>
14

>  <SCORE.norm>
-0.297067

>  <RMSD>
1.557

$$$$
ligand
 OpenBabel11021811493D
libRbt.so/2013.1/901 2013/11/27
 14 13  0  0  0  0  0  0  0  0999 V2000
   58.0495   -0.0425    2.2931 N   0  0  0  0  0  0  0  0  0  0  0  0
   57.5220    0.2000    0.9559 C   0  0  0  0  0  0  0  0  0  0  0  0
   56.7006    1.5063    0.9163 C   0  0  0  0  0  0  0  0  0  0  0  0
   55.4260    1.4900    1.7833 C   0  0  0  0  0  0  0  0  0  0  0  0
   54.5670    2.6836    1.7748 N   0  0  0  0  0  0  0  0  0  0  0  0
   53.6596    2.9543    0.6541 C   0  0  0  0  0  0  0  0  0  0  0  0
   52.4538    2.0156    0.5523 C   0  0  0  0  0  0  0  0  0  0  0  0
   51.5126    2.3774   -0.6092 C   0  0  0  0  0  0  0  0  0  0  0  0
   52.1249    2.1521   -2.0010 C   0  0  0  0  0  0  0  0  0  0  0  0
   51.1974    2.3493   -3.1174 N   0  0  0  0  0  0  0  0  0  0  0  0
   51.3348    1.5180   -4.3260 C   0  0  0  0  0  0  0  0  0  0  0  0
   51.4036   -0.0136   -4.1185 C   0  0  0  0  0  0  0  0  0  0  0  0
   50.1159   -0.6785   -3.5916 C   0  0  0  0  0  0  0  0  0  0  0  0
   48.9818   -0.5257   -4.4983 N   0  0  0  0  0  0  0  0  0  0  0  0
  1  2  1  0  0  0  0
  2  3  1  0  0  0  0
  3  4  1  0  0  0  0
  4  5  1  0  0  0  0
  5  6  1  0  0  0  0
  6  7  1  0  0  0  0
  7  8  1  0  0  0  0
  8  9  1  0  0  0  0
  9 10  1  0  0  0  0
 10 11  1  0  0  0  0
 11 12  1  0  0  0  0
 12 13  1  0  0  0  0
 13 14  1  0  0  0  0
M  END
>  <CHROM.1>
-64.38836179,-178.44026282,77.54655690,70.72736131,177.95415267,67.61284336
173.57292966,-146.16364167,51.33296439,67.12369109,61.76165800,53.21781663
1.28480802,-0.95233426,-0.52952909,0.53041838,-2.39617631

>  <Name>
ligand

>  <RI>
0

>  <Rbt.Current_Directory>
/home/itssahil/PROJECTS/Mol_Feturizer/New_Systems/rnas/4E8Q

>  <Rbt.Executable>
rbdock ($Id: //depot/dev/client3/rdock/2013.1/src/exe/rbdock.cxx#4 $)

>  <Rbt.Library>
libRbt.so (2013.1, Build901 2013/11/27)

>  <Rbt.Parameter_File>
/export/apps/rDock/src/rDock_2013.1_src/data/scripts/dock_solv.prm

>  <Rbt.Receptor>
prm/pocket_docking_2.prm

>  <SCORE>
-7.89737

>  <SCORE.INTER>
2.84013

>  <SCORE.INTER.CONST>
1

>  <SCORE.INTER.POLAR>
0

>  <SCORE.INTER.ROT>
11

>  <SCORE.INTER.SOLV>
7.20223

>  <SCORE.INTER.VDW>
-11.4407

>  <SCORE.INTER.norm>
0.202867

>  <SCORE.INTRA>
-10.7375

>  <SCORE.INTRA.DIHEDRAL>
-24.1186

>  <SCORE.INTRA.DIHEDRAL.0>
25.9209

>  <SCORE.INTRA.POLAR>
0

>  <SCORE.INTRA.POLAR.0>
0

>  <SCORE.INTRA.REPUL>
0

>  <SCORE.INTRA.REPUL.0>
0

>  <SCORE.INTRA.SOLV>
0.168202

>  <SCORE.INTRA.SOLV.lig_0>
-47.4815

>  <SCORE.INTRA.VDW>
1.2377

>  <SCORE.INTRA.VDW.0>
-1.57492

>  <SCORE.INTRA.norm>
-0.766964

>  <SCORE.RESTR>
0

>  <SCORE.RESTR.CAVITY>
0

>  <SCORE.RESTR.norm>
0

>  <SCORE.SYSTEM>
0

>  <SCORE.SYSTEM.CONST>
0

>  <SCORE.SYSTEM.DIHEDRAL>
0

>  <SCORE.SYSTEM.SOLV>
0

>  <SCORE.SYSTEM.norm>
0

>  <SCORE.heavy>
14

>  <SCORE.norm>
-0.564098

>  <RMSD>
1.586

$$$$
ligand
 OpenBabel11021811493D
libRbt.so/2013.1/901 2013/11/27
 14 13  0  0  0  0  0  0  0  0999 V2000
   57.6327    2.0225    2.6987 N   0  0  0  0  0  0  0  0  0  0  0  0
   57.2843    1.9763    1.2838 C   0  0  0  0  0  0  0  0  0  0  0  0
   55.9111    2.6348    1.0329 C   0  0  0  0  0  0  0  0  0  0  0  0
   54.7310    1.9544    1.7548 C   0  0  0  0  0  0  0  0  0  0  0  0
   53.3712    2.4317    1.4614 N   0  0  0  0  0  0  0  0  0  0  0  0
   52.6279    1.9302    0.3001 C   0  0  0  0  0  0  0  0  0  0  0  0
   51.2455    2.5559    0.0932 C   0  0  0  0  0  0  0  0  0  0  0  0
   51.3169    4.0298   -0.3410 C   0  0  0  0  0  0  0  0  0  0  0  0
   51.9109    4.2385   -1.7432 C   0  0  0  0  0  0  0  0  0  0  0  0
   50.9803    3.9878   -2.8462 N   0  0  0  0  0  0  0  0  0  0  0  0
   50.5861    2.6029   -3.1579 C   0  0  0  0  0  0  0  0  0  0  0  0
   51.7265    1.5984   -3.4477 C   0  0  0  0  0  0  0  0  0  0  0  0
   51.2874    0.2176   -3.9755 C   0  0  0  0  0  0  0  0  0  0  0  0
   50.4374   -0.5090   -3.0369 N   0  0  0  0  0  0  0  0  0  0  0  0
  1  2  1  0  0  0  0
  2  3  1  0  0  0  0
  3  4  1  0  0  0  0
  4  5  1  0  0  0  0
  5  6  1  0  0  0  0
  6  7  1  0  0  0  0
  7  8  1  0  0  0  0
  8  9  1  0  0  0  0
  9 10  1  0  0  0  0
 10 11  1  0  0  0  0
 11 12  1  0  0  0  0
 12 13  1  0  0  0  0
 13 14  1  0  0  0  0
M  END
>  <CHROM.1>
-61.41935423,-173.82357385,84.32150486,-177.84215167,69.50016089,67.13754418
79.55028654,-72.11817101,-55.69236544,-171.17544573,-61.36433016,52.93200872
2.26237772,-0.70894735,-0.42213962,0.61829925,-2.55277025

>  <Name>
ligand

>  <RI>
0

>  <Rbt.Current_Directory>
/home/itssahil/PROJECTS/Mol_Feturizer/New_Systems/rnas/4E8Q

>  <Rbt.Executable>
rbdock ($Id: //depot/dev/client3/rdock/2013.1/src/exe/rbdock.cxx#4 $)

>  <Rbt.Library>
libRbt.so (2013.1, Build901 2013/11/27)

>  <Rbt.Parameter_File>
/export/apps/rDock/src/rDock_2013.1_src/data/scripts/dock_solv.prm

>  <Rbt.Receptor>
prm/pocket_docking_2.prm

>  <SCORE>
-3.52024

>  <SCORE.INTER>
6.8271

>  <SCORE.INTER.CONST>
1

>  <SCORE.INTER.POLAR>
0

>  <SCORE.INTER.ROT>
11

>  <SCORE.INTER.SOLV>
7.64201

>  <SCORE.INTER.VDW>
-8.92927

>  <SCORE.INTER.norm>
0.48765

>  <SCORE.INTRA>
-10.3473

>  <SCORE.INTRA.DIHEDRAL>
-23.0439

>  <SCORE.INTRA.DIHEDRAL.0>
25.9209

>  <SCORE.INTRA.POLAR>
0

>  <SCORE.INTRA.POLAR.0>
0

>  <SCORE.INTRA.REPUL>
0

>  <SCORE.INTRA.REPUL.0>
0

>  <SCORE.INTRA.SOLV>
0.456976

>  <SCORE.INTRA.SOLV.lig_0>
-47.4815

>  <SCORE.INTRA.VDW>
0.946143

>  <SCORE.INTRA.VDW.0>
-1.57492

>  <SCORE.INTRA.norm>
-0.739096

>  <SCORE.RESTR>
0

>  <SCORE.RESTR.CAVITY>
0

>  <SCORE.RESTR.norm>
0

>  <SCORE.SYSTEM>
0

>  <SCORE.SYSTEM.CONST>
0

>  <SCORE.SYSTEM.DIHEDRAL>
0

>  <SCORE.SYSTEM.SOLV>
0

>  <SCORE.SYSTEM.norm>
0

>  <SCORE.heavy>
14

>  <SCORE.norm>
-0.251446

>  <RMSD>
1.595

$$$$
ligand
 OpenBabel11021811493D
libRbt.so/2013.1/901 2013/11/27
 14 13  0  0  0  0  0  0  0  0999 V2000
   58.1676    0.1976    2.2856 N   0  0  0  0  0  0  0  0  0  0  0  0
   57.2890   -0.0622    1.1517 C   0  0  0  0  0  0  0  0  0  0  0  0
   55.8925    0.5528    1.3847 C   0  0  0  0  0  0  0  0  0  0  0  0
   55.8691    2.0935    1.4325 C   0  0  0  0  0  0  0  0  0  0  0  0
   54.5933    2.7578    1.7386 N   0  0  0  0  0  0  0  0  0  0  0  0
   53.5998    3.0078    0.6884 C   0  0  0  0  0  0  0  0  0  0  0  0
   52.5360    1.9180    0.5268 C   0  0  0  0  0  0  0  0  0  0  0  0
   51.5521    2.2101   -0.6188 C   0  0  0  0  0  0  0  0  0  0  0  0
   52.2095    2.2619   -2.0073 C   0  0  0  0  0  0  0  0  0  0  0  0
   51.2714    2.2159   -3.1313 N   0  0  0  0  0  0  0  0  0  0  0  0
   51.4978    1.2517   -4.2219 C   0  0  0  0  0  0  0  0  0  0  0  0
   51.2862   -0.2443   -3.8893 C   0  0  0  0  0  0  0  0  0  0  0  0
   49.8443   -0.7692   -4.0431 C   0  0  0  0  0  0  0  0  0  0  0  0
   49.3866   -0.7844   -5.4293 N   0  0  0  0  0  0  0  0  0  0  0  0
  1  2  1  0  0  0  0
  2  3  1  0  0  0  0
  3  4  1  0  0  0  0
  4  5  1  0  0  0  0
  5  6  1  0  0  0  0
  6  7  1  0  0  0  0
  7  8  1  0  0  0  0
  8  9  1  0  0  0  0
  9 10  1  0  0  0  0
 10 11  1  0  0  0  0
 11 12  1  0  0  0  0
 12 13  1  0  0  0  0
 13 14  1  0  0  0  0
M  END
>  <CHROM.1>
66.26529912,-176.05658929,-83.58579590,92.97875914,-178.02007480,62.96005590
166.00027312,-129.85362658,69.75716574,86.83784034,67.14877537,53.21388053
1.18624780,-1.00942783,-0.54967268,0.58857735,-2.45838390

>  <Name>
ligand

>  <RI>
0

>  <Rbt.Current_Directory>
/home/itssahil/PROJECTS/Mol_Feturizer/New_Systems/rnas/4E8Q

>  <Rbt.Executable>
rbdock ($Id: //depot/dev/client3/rdock/2013.1/src/exe/rbdock.cxx#4 $)

>  <Rbt.Library>
libRbt.so (2013.1, Build901 2013/11/27)

>  <Rbt.Parameter_File>
/export/apps/rDock/src/rDock_2013.1_src/data/scripts/dock_solv.prm

>  <Rbt.Receptor>
prm/pocket_docking_2.prm

>  <SCORE>
-7.34303

>  <SCORE.INTER>
2.05118

>  <SCORE.INTER.CONST>
1

>  <SCORE.INTER.POLAR>
0

>  <SCORE.INTER.ROT>
11

>  <SCORE.INTER.SOLV>
6.09703

>  <SCORE.INTER.VDW>
-11.5982

>  <SCORE.INTER.norm>
0.146513

>  <SCORE.INTRA>
-9.43127

>  <SCORE.INTRA.DIHEDRAL>
-20.1645

>  <SCORE.INTRA.DIHEDRAL.0>
25.9209

>  <SCORE.INTRA.POLAR>
0

>  <SCORE.INTRA.POLAR.0>
0

>  <SCORE.INTRA.REPUL>
0

>  <SCORE.INTRA.REPUL.0>
0

>  <SCORE.INTRA.SOLV>
-0.299615

>  <SCORE.INTRA.SOLV.lig_0>
-47.4815

>  <SCORE.INTRA.VDW>
0.800801

>  <SCORE.INTRA.VDW.0>
-1.57492

>  <SCORE.INTRA.norm>
-0.673662

>  <SCORE.RESTR>
0.0370545

>  <SCORE.RESTR.CAVITY>
0.0370545

>  <SCORE.RESTR.norm>
0.00264675

>  <SCORE.SYSTEM>
0

>  <SCORE.SYSTEM.CONST>
0

>  <SCORE.SYSTEM.DIHEDRAL>
0

>  <SCORE.SYSTEM.SOLV>
0

>  <SCORE.SYSTEM.norm>
0

>  <SCORE.heavy>
14

>  <SCORE.norm>
-0.524502

>  <RMSD>
1.624

$$$$
ligand
 OpenBabel11021811493D
libRbt.so/2013.1/901 2013/11/27
 14 13  0  0  0  0  0  0  0  0999 V2000
   57.8880   -0.3941    1.6576 N   0  0  0  0  0  0  0  0  0  0  0  0
   56.4912    0.0131    1.5661 C   0  0  0  0  0  0  0  0  0  0  0  0
   56.1179    0.9647    2.7227 C   0  0  0  0  0  0  0  0  0  0  0  0
   54.6690    1.4896    2.6805 C   0  0  0  0  0  0  0  0  0  0  0  0
   54.2826    2.3681    1.5662 N   0  0  0  0  0  0  0  0  0  0  0  0
   52.9555    2.9919    1.5202 C   0  0  0  0  0  0  0  0  0  0  0  0
   52.3830    3.1996    0.1150 C   0  0  0  0  0  0  0  0  0  0  0  0
   52.0407    1.8767   -0.5911 C   0  0  0  0  0  0  0  0  0  0  0  0
   51.7544    2.0279   -2.0937 C   0  0  0  0  0  0  0  0  0  0  0  0
   50.5866    2.8515   -2.4149 N   0  0  0  0  0  0  0  0  0  0  0  0
   50.2402    3.0945   -3.8261 C   0  0  0  0  0  0  0  0  0  0  0  0
   49.4975    1.9595   -4.5704 C   0  0  0  0  0  0  0  0  0  0  0  0
   50.2441    0.6131   -4.6584 C   0  0  0  0  0  0  0  0  0  0  0  0
   49.4673   -0.4285   -5.3240 N   0  0  0  0  0  0  0  0  0  0  0  0
  1  2  1  0  0  0  0
  2  3  1  0  0  0  0
  3  4  1  0  0  0  0
  4  5  1  0  0  0  0
  5  6  1  0  0  0  0
  6  7  1  0  0  0  0
  7  8  1  0  0  0  0
  8  9  1  0  0  0  0
  9 10  1  0  0  0  0
 10 11  1  0  0  0  0
 11 12  1  0  0  0  0
 12 13  1  0  0  0  0
 13 14  1  0  0  0  0
M  END
>  <CHROM.1>
177.91510241,-65.52663019,-174.96469609,-147.67071632,67.85285407,-167.52215680
-63.14239716,178.34855614,79.15962910,-60.08270022,177.65617976,52.75830173
1.61648299,-0.83203093,-0.50637801,0.67335624,-2.32481053

>  <Name>
ligand

>  <RI>
0

>  <Rbt.Current_Directory>
/home/itssahil/PROJECTS/Mol_Feturizer/New_Systems/rnas/4E8Q

>  <Rbt.Executable>
rbdock ($Id: //depot/dev/client3/rdock/2013.1/src/exe/rbdock.cxx#4 $)

>  <Rbt.Library>
libRbt.so (2013.1, Build901 2013/11/27)

>  <Rbt.Parameter_File>
/export/apps/rDock/src/rDock_2013.1_src/data/scripts/dock_solv.prm

>  <Rbt.Receptor>
prm/pocket_docking_2.prm

>  <SCORE>
-6.33708

>  <SCORE.INTER>
5.68231

>  <SCORE.INTER.CONST>
1

>  <SCORE.INTER.POLAR>
0

>  <SCORE.INTER.ROT>
11

>  <SCORE.INTER.SOLV>
7.63146

>  <SCORE.INTER.VDW>
-9.68895

>  <SCORE.INTER.norm>
0.405879

>  <SCORE.INTRA>
-12.0521

>  <SCORE.INTRA.DIHEDRAL>
-23.898

>  <SCORE.INTRA.DIHEDRAL.0>
25.9209

>  <SCORE.INTRA.POLAR>
0

>  <SCORE.INTRA.POLAR.0>
0

>  <SCORE.INTRA.REPUL>
0

>  <SCORE.INTRA.REPUL.0>
0

>  <SCORE.INTRA.SOLV>
-0.812938

>  <SCORE.INTRA.SOLV.lig_0>
-47.4815

>  <SCORE.INTRA.VDW>
0.30338

>  <SCORE.INTRA.VDW.0>
-1.57492

>  <SCORE.INTRA.norm>
-0.860865

>  <SCORE.RESTR>
0.0327183

>  <SCORE.RESTR.CAVITY>
0.0327183

>  <SCORE.RESTR.norm>
0.00233702

>  <SCORE.SYSTEM>
0

>  <SCORE.SYSTEM.CONST>
0

>  <SCORE.SYSTEM.DIHEDRAL>
0

>  <SCORE.SYSTEM.SOLV>
0

>  <SCORE.SYSTEM.norm>
0

>  <SCORE.heavy>
14

>  <SCORE.norm>
-0.452649

>  <RMSD>
1.627

$$$$
ligand
 OpenBabel11021811493D
libRbt.so/2013.1/901 2013/11/27
 14 13  0  0  0  0  0  0  0  0999 V2000
   58.2533    0.1282    2.8636 N   0  0  0  0  0  0  0  0  0  0  0  0
   57.9622    0.2877    1.4441 C   0  0  0  0  0  0  0  0  0  0  0  0
   57.0354    1.4986    1.2046 C   0  0  0  0  0  0  0  0  0  0  0  0
   55.6308    1.3652    1.8260 C   0  0  0  0  0  0  0  0  0  0  0  0
   54.7208    2.5169    1.7350 N   0  0  0  0  0  0  0  0  0  0  0  0
   53.2676    2.3285    1.6621 C   0  0  0  0  0  0  0  0  0  0  0  0
   52.7265    1.9756    0.2735 C   0  0  0  0  0  0  0  0  0  0  0  0
   52.8654    3.1312   -0.7321 C   0  0  0  0  0  0  0  0  0  0  0  0
   52.6906    2.7057   -2.1987 C   0  0  0  0  0  0  0  0  0  0  0  0
   51.4893    1.9119   -2.4672 N   0  0  0  0  0  0  0  0  0  0  0  0
   51.4252    1.0887   -3.6874 C   0  0  0  0  0  0  0  0  0  0  0  0
   50.3870   -0.0582   -3.7047 C   0  0  0  0  0  0  0  0  0  0  0  0
   50.2263   -0.7985   -5.0479 C   0  0  0  0  0  0  0  0  0  0  0  0
   49.7952    0.0763   -6.1344 N   0  0  0  0  0  0  0  0  0  0  0  0
  1  2  1  0  0  0  0
  2  3  1  0  0  0  0
  3  4  1  0  0  0  0
  4  5  1  0  0  0  0
  5  6  1  0  0  0  0
  6  7  1  0  0  0  0
  7  8  1  0  0  0  0
  8  9  1  0  0  0  0
  9 10  1  0  0  0  0
 10 11  1  0  0  0  0
 11 12  1  0  0  0  0
 12 13  1  0  0  0  0
 13 14  1  0  0  0  0
M  END
>  <CHROM.1>
-64.27009295,175.31814654,149.40443416,-80.76020532,-67.59442263,164.48268145
50.24002261,-160.18260724,160.43007176,173.18047129,-60.48115421,53.46249821
1.29704474,-0.92593068,-0.61598874,0.56045221,-2.32964818

>  <Name>
ligand

>  <RI>
0

>  <Rbt.Current_Directory>
/home/itssahil/PROJECTS/Mol_Feturizer/New_Systems/rnas/4E8Q

>  <Rbt.Executable>
rbdock ($Id: //depot/dev/client3/rdock/2013.1/src/exe/rbdock.cxx#4 $)

>  <Rbt.Library>
libRbt.so (2013.1, Build901 2013/11/27)

>  <Rbt.Parameter_File>
/export/apps/rDock/src/rDock_2013.1_src/data/scripts/dock_solv.prm

>  <Rbt.Receptor>
prm/pocket_docking_2.prm

>  <SCORE>
-6.37593

>  <SCORE.INTER>
4.46563

>  <SCORE.INTER.CONST>
1

>  <SCORE.INTER.POLAR>
0

>  <SCORE.INTER.ROT>
11

>  <SCORE.INTER.SOLV>
5.14999

>  <SCORE.INTER.VDW>
-9.67291

>  <SCORE.INTER.norm>
0.318974

>  <SCORE.INTRA>
-10.8416

>  <SCORE.INTRA.DIHEDRAL>
-22.5481

>  <SCORE.INTRA.DIHEDRAL.0>
25.9209

>  <SCORE.INTRA.POLAR>
0

>  <SCORE.INTRA.POLAR.0>
0

>  <SCORE.INTRA.REPUL>
0

>  <SCORE.INTRA.REPUL.0>
0

>  <SCORE.INTRA.SOLV>
0.00672928

>  <SCORE.INTRA.SOLV.lig_0>
-47.4815

>  <SCORE.INTRA.VDW>
0.429109

>  <SCORE.INTRA.VDW.0>
-1.57492

>  <SCORE.INTRA.norm>
-0.774398

>  <SCORE.RESTR>
0

>  <SCORE.RESTR.CAVITY>
0

>  <SCORE.RESTR.norm>
0

>  <SCORE.SYSTEM>
0

>  <SCORE.SYSTEM.CONST>
0

>  <SCORE.SYSTEM.DIHEDRAL>
0

>  <SCORE.SYSTEM.SOLV>
0

>  <SCORE.SYSTEM.norm>
0

>  <SCORE.heavy>
14

>  <SCORE.norm>
-0.455424

>  <RMSD>
1.686

$$$$
ligand
 OpenBabel11021811493D
libRbt.so/2013.1/901 2013/11/27
 14 13  0  0  0  0  0  0  0  0999 V2000
   49.4519   -1.4092   -4.9385 N   0  0  0  0  0  0  0  0  0  0  0  0
   49.9914   -0.5282   -3.9099 C   0  0  0  0  0  0  0  0  0  0  0  0
   51.0587    0.4182   -4.4997 C   0  0  0  0  0  0  0  0  0  0  0  0
   51.7236    1.3560   -3.4726 C   0  0  0  0  0  0  0  0  0  0  0  0
   50.8790    2.3507   -2.7943 N   0  0  0  0  0  0  0  0  0  0  0  0
   51.4298    3.2279   -1.7552 C   0  0  0  0  0  0  0  0  0  0  0  0
   51.9841    2.5074   -0.5227 C   0  0  0  0  0  0  0  0  0  0  0  0
   52.5767    3.4739    0.5169 C   0  0  0  0  0  0  0  0  0  0  0  0
   53.1716    2.7751    1.7499 C   0  0  0  0  0  0  0  0  0  0  0  0
   54.2411    1.8186    1.4555 N   0  0  0  0  0  0  0  0  0  0  0  0
   55.1578    1.4060    2.5324 C   0  0  0  0  0  0  0  0  0  0  0  0
   55.9015    0.0627    2.3428 C   0  0  0  0  0  0  0  0  0  0  0  0
   56.9063    0.0103    1.1742 C   0  0  0  0  0  0  0  0  0  0  0  0
   58.0389    0.9139    1.3536 N   0  0  0  0  0  0  0  0  0  0  0  0
  1  2  1  0  0  0  0
  2  3  1  0  0  0  0
  3  4  1  0  0  0  0
  4  5  1  0  0  0  0
  5  6  1  0  0  0  0
  6  7  1  0  0  0  0
  7  8  1  0  0  0  0
  8  9  1  0  0  0  0
  9 10  1  0  0  0  0
 10 11  1  0  0  0  0
 11 12  1  0  0  0  0
 12 13  1  0  0  0  0
 13 14  1  0  0  0  0
M  END
>  <CHROM.1>
-177.93463851,-63.73040113,176.77445278,-61.20345217,178.67326300,-178.59334471
58.44601468,161.21771186,158.02202640,65.23367242,65.00959245,53.03655558
1.31325871,-0.76892162,-2.58060685,-0.62162781,0.70417530

>  <Name>
ligand

>  <RI>
0

>  <Rbt.Current_Directory>
/home/itssahil/PROJECTS/Mol_Feturizer/New_Systems/rnas/4E8Q

>  <Rbt.Executable>
rbdock ($Id: //depot/dev/client3/rdock/2013.1/src/exe/rbdock.cxx#4 $)

>  <Rbt.Library>
libRbt.so (2013.1, Build901 2013/11/27)

>  <Rbt.Parameter_File>
/export/apps/rDock/src/rDock_2013.1_src/data/scripts/dock_solv.prm

>  <Rbt.Receptor>
prm/pocket_docking_2.prm

>  <SCORE>
-7.86497

>  <SCORE.INTER>
4.09694

>  <SCORE.INTER.CONST>
1

>  <SCORE.INTER.POLAR>
0

>  <SCORE.INTER.ROT>
11

>  <SCORE.INTER.SOLV>
9.05592

>  <SCORE.INTER.VDW>
-11.2207

>  <SCORE.INTER.norm>
0.292639

>  <SCORE.INTRA>
-11.9619

>  <SCORE.INTRA.DIHEDRAL>
-24.9983

>  <SCORE.INTRA.DIHEDRAL.0>
25.9209

>  <SCORE.INTRA.POLAR>
0

>  <SCORE.INTRA.POLAR.0>
0

>  <SCORE.INTRA.REPUL>
0

>  <SCORE.INTRA.REPUL.0>
0

>  <SCORE.INTRA.SOLV>
-0.03886

>  <SCORE.INTRA.SOLV.lig_0>
-47.4815

>  <SCORE.INTRA.VDW>
0.55666

>  <SCORE.INTRA.VDW.0>
-1.57492

>  <SCORE.INTRA.norm>
-0.854422

>  <SCORE.RESTR>
0

>  <SCORE.RESTR.CAVITY>
0

>  <SCORE.RESTR.norm>
0

>  <SCORE.SYSTEM>
0

>  <SCORE.SYSTEM.CONST>
0

>  <SCORE.SYSTEM.DIHEDRAL>
0

>  <SCORE.SYSTEM.SOLV>
0

>  <SCORE.SYSTEM.norm>
0

>  <SCORE.heavy>
14

>  <SCORE.norm>
-0.561783

>  <RMSD>
1.692

$$$$
ligand
 OpenBabel11021811493D
libRbt.so/2013.1/901 2013/11/27
 14 13  0  0  0  0  0  0  0  0999 V2000
   49.2237   -0.4543   -4.6769 N   0  0  0  0  0  0  0  0  0  0  0  0
   49.9237   -0.7574   -3.4346 C   0  0  0  0  0  0  0  0  0  0  0  0
   51.3992   -0.3107   -3.5107 C   0  0  0  0  0  0  0  0  0  0  0  0
   51.6069    1.2165   -3.5452 C   0  0  0  0  0  0  0  0  0  0  0  0
   51.4250    1.9688   -2.2947 N   0  0  0  0  0  0  0  0  0  0  0  0
   52.1520    3.2199   -2.0523 C   0  0  0  0  0  0  0  0  0  0  0  0
   52.2439    3.6445   -0.5837 C   0  0  0  0  0  0  0  0  0  0  0  0
   52.9598    2.6041    0.2943 C   0  0  0  0  0  0  0  0  0  0  0  0
   53.2700    3.0964    1.7170 C   0  0  0  0  0  0  0  0  0  0  0  0
   53.9426    2.1152    2.5716 N   0  0  0  0  0  0  0  0  0  0  0  0
   55.1399    1.4195    2.0686 C   0  0  0  0  0  0  0  0  0  0  0  0
   56.4431    2.2479    1.9736 C   0  0  0  0  0  0  0  0  0  0  0  0
   57.6989    1.4750    1.5223 C   0  0  0  0  0  0  0  0  0  0  0  0
   58.0559    0.3866    2.4275 N   0  0  0  0  0  0  0  0  0  0  0  0
  1  2  1  0  0  0  0
  2  3  1  0  0  0  0
  3  4  1  0  0  0  0
  4  5  1  0  0  0  0
  5  6  1  0  0  0  0
  6  7  1  0  0  0  0
  7  8  1  0  0  0  0
  8  9  1  0  0  0  0
  9 10  1  0  0  0  0
 10 11  1  0  0  0  0
 11 12  1  0  0  0  0
 12 13  1  0  0  0  0
 13 14  1  0  0  0  0
M  END
>  <CHROM.1>
68.66000620,74.93898749,151.61602421,-160.40479097,60.05897296,170.58577149
179.54626990,50.05753422,72.81699030,176.57877195,-60.99027130,53.24892625
1.56252839,-0.53739303,-2.57645754,-0.58098461,0.63879970

>  <Name>
ligand

>  <RI>
0

>  <Rbt.Current_Directory>
/home/itssahil/PROJECTS/Mol_Feturizer/New_Systems/rnas/4E8Q

>  <Rbt.Executable>
rbdock ($Id: //depot/dev/client3/rdock/2013.1/src/exe/rbdock.cxx#4 $)

>  <Rbt.Library>
libRbt.so (2013.1, Build901 2013/11/27)

>  <Rbt.Parameter_File>
/export/apps/rDock/src/rDock_2013.1_src/data/scripts/dock_solv.prm

>  <Rbt.Receptor>
prm/pocket_docking_2.prm

>  <SCORE>
-5.88656

>  <SCORE.INTER>
4.58872

>  <SCORE.INTER.CONST>
1

>  <SCORE.INTER.POLAR>
0

>  <SCORE.INTER.ROT>
11

>  <SCORE.INTER.SOLV>
5.48794

>  <SCORE.INTER.VDW>
-9.7035

>  <SCORE.INTER.norm>
0.327766

>  <SCORE.INTRA>
-10.4928

>  <SCORE.INTRA.DIHEDRAL>
-23.3789

>  <SCORE.INTRA.DIHEDRAL.0>
25.9209

>  <SCORE.INTRA.POLAR>
0

>  <SCORE.INTRA.POLAR.0>
0

>  <SCORE.INTRA.REPUL>
0

>  <SCORE.INTRA.REPUL.0>
0

>  <SCORE.INTRA.SOLV>
0.139383

>  <SCORE.INTRA.SOLV.lig_0>
-47.4815

>  <SCORE.INTRA.VDW>
1.12696

>  <SCORE.INTRA.VDW.0>
-1.57492

>  <SCORE.INTRA.norm>
-0.749487

>  <SCORE.RESTR>
0.0175362

>  <SCORE.RESTR.CAVITY>
0.0175362

>  <SCORE.RESTR.norm>
0.00125258

>  <SCORE.SYSTEM>
0

>  <SCORE.SYSTEM.CONST>
0

>  <SCORE.SYSTEM.DIHEDRAL>
0

>  <SCORE.SYSTEM.SOLV>
0

>  <SCORE.SYSTEM.norm>
0

>  <SCORE.heavy>
14

>  <SCORE.norm>
-0.420469

>  <RMSD>
1.698

$$$$
ligand
 OpenBabel11021811493D
libRbt.so/2013.1/901 2013/11/27
 14 13  0  0  0  0  0  0  0  0999 V2000
   57.2983    1.7972    1.3326 N   0  0  0  0  0  0  0  0  0  0  0  0
   56.4564    0.7738    1.9403 C   0  0  0  0  0  0  0  0  0  0  0  0
   55.4261    1.4065    2.8998 C   0  0  0  0  0  0  0  0  0  0  0  0
   54.3567    2.2771    2.2107 C   0  0  0  0  0  0  0  0  0  0  0  0
   53.4577    1.6325    1.2416 N   0  0  0  0  0  0  0  0  0  0  0  0
   52.4393    2.4069    0.5234 C   0  0  0  0  0  0  0  0  0  0  0  0
   52.9669    3.2575   -0.6358 C   0  0  0  0  0  0  0  0  0  0  0  0
   51.8510    4.0134   -1.3769 C   0  0  0  0  0  0  0  0  0  0  0  0
   50.8645    3.0979   -2.1194 C   0  0  0  0  0  0  0  0  0  0  0  0
   51.4460    2.3476   -3.2348 N   0  0  0  0  0  0  0  0  0  0  0  0
   50.6169    1.3653   -3.9547 C   0  0  0  0  0  0  0  0  0  0  0  0
   50.7014   -0.1046   -3.4794 C   0  0  0  0  0  0  0  0  0  0  0  0
   49.6359   -1.0590   -4.0554 C   0  0  0  0  0  0  0  0  0  0  0  0
   49.5866   -1.0466   -5.5145 N   0  0  0  0  0  0  0  0  0  0  0  0
  1  2  1  0  0  0  0
  2  3  1  0  0  0  0
  3  4  1  0  0  0  0
  4  5  1  0  0  0  0
  5  6  1  0  0  0  0
  6  7  1  0  0  0  0
  7  8  1  0  0  0  0
  8  9  1  0  0  0  0
  9 10  1  0  0  0  0
 10 11  1  0  0  0  0
 11 12  1  0  0  0  0
 12 13  1  0  0  0  0
 13 14  1  0  0  0  0
M  END
>  <CHROM.1>
67.07278324,61.91357980,-178.43601733,77.02936571,178.29035723,-65.93717723
-65.64171488,175.53956682,-93.87437388,168.61233440,53.95712102,52.65015177
1.58342513,-1.01568590,-0.43890957,0.77039413,-2.78089260

>  <Name>
ligand

>  <RI>
0

>  <Rbt.Current_Directory>
/home/itssahil/PROJECTS/Mol_Feturizer/New_Systems/rnas/4E8Q

>  <Rbt.Executable>
rbdock ($Id: //depot/dev/client3/rdock/2013.1/src/exe/rbdock.cxx#4 $)

>  <Rbt.Library>
libRbt.so (2013.1, Build901 2013/11/27)

>  <Rbt.Parameter_File>
/export/apps/rDock/src/rDock_2013.1_src/data/scripts/dock_solv.prm

>  <Rbt.Receptor>
prm/pocket_docking_2.prm

>  <SCORE>
-5.51704

>  <SCORE.INTER>
5.27982

>  <SCORE.INTER.CONST>
1

>  <SCORE.INTER.POLAR>
0

>  <SCORE.INTER.ROT>
11

>  <SCORE.INTER.SOLV>
6.29426

>  <SCORE.INTER.VDW>
-9.51154

>  <SCORE.INTER.norm>
0.37713

>  <SCORE.INTRA>
-10.7969

>  <SCORE.INTRA.DIHEDRAL>
-23.8671

>  <SCORE.INTRA.DIHEDRAL.0>
25.9209

>  <SCORE.INTRA.POLAR>
0

>  <SCORE.INTRA.POLAR.0>
0

>  <SCORE.INTRA.REPUL>
0

>  <SCORE.INTRA.REPUL.0>
0

>  <SCORE.INTRA.SOLV>
0.77815

>  <SCORE.INTRA.SOLV.lig_0>
-47.4815

>  <SCORE.INTRA.VDW>
0.747624

>  <SCORE.INTRA.VDW.0>
-1.57492

>  <SCORE.INTRA.norm>
-0.771204

>  <SCORE.RESTR>
0

>  <SCORE.RESTR.CAVITY>
0

>  <SCORE.RESTR.norm>
0

>  <SCORE.SYSTEM>
0

>  <SCORE.SYSTEM.CONST>
0

>  <SCORE.SYSTEM.DIHEDRAL>
0

>  <SCORE.SYSTEM.SOLV>
0

>  <SCORE.SYSTEM.norm>
0

>  <SCORE.heavy>
14

>  <SCORE.norm>
-0.394074

>  <RMSD>
1.700

$$$$
ligand
 OpenBabel11021811493D
libRbt.so/2013.1/901 2013/11/27
 14 13  0  0  0  0  0  0  0  0999 V2000
   58.3965   -0.1352    2.2067 N   0  0  0  0  0  0  0  0  0  0  0  0
   57.8450    0.4676    0.9993 C   0  0  0  0  0  0  0  0  0  0  0  0
   56.7597    1.5078    1.3494 C   0  0  0  0  0  0  0  0  0  0  0  0
   55.4855    0.9174    1.9855 C   0  0  0  0  0  0  0  0  0  0  0  0
   54.4328    1.8480    2.4197 N   0  0  0  0  0  0  0  0  0  0  0  0
   53.8671    2.8352    1.4935 C   0  0  0  0  0  0  0  0  0  0  0  0
   52.8250    2.2861    0.5148 C   0  0  0  0  0  0  0  0  0  0  0  0
   52.1993    3.3807   -0.3663 C   0  0  0  0  0  0  0  0  0  0  0  0
   51.1119    2.8653   -1.3227 C   0  0  0  0  0  0  0  0  0  0  0  0
   51.6000    1.9883   -2.3895 N   0  0  0  0  0  0  0  0  0  0  0  0
   50.6640    1.5249   -3.4286 C   0  0  0  0  0  0  0  0  0  0  0  0
   51.2843    0.9309   -4.7154 C   0  0  0  0  0  0  0  0  0  0  0  0
   50.2844    0.5193   -5.8149 C   0  0  0  0  0  0  0  0  0  0  0  0
   50.9357    0.0035   -7.0154 N   0  0  0  0  0  0  0  0  0  0  0  0
  1  2  1  0  0  0  0
  2  3  1  0  0  0  0
  3  4  1  0  0  0  0
  4  5  1  0  0  0  0
  5  6  1  0  0  0  0
  6  7  1  0  0  0  0
  7  8  1  0  0  0  0
  8  9  1  0  0  0  0
  9 10  1  0  0  0  0
 10 11  1  0  0  0  0
 11 12  1  0  0  0  0
 12 13  1  0  0  0  0
 13 14  1  0  0  0  0
M  END
>  <CHROM.1>
-66.68553757,176.58859264,54.18569054,79.05215622,176.16284371,-177.86192304
-67.77206119,-175.02020741,164.07989711,-177.04760757,178.32068439,53.40633363
1.49592317,-1.00591338,-0.75498451,0.48659546,-2.04571058

>  <Name>
ligand

>  <RI>
0

>  <Rbt.Current_Directory>
/home/itssahil/PROJECTS/Mol_Feturizer/New_Systems/rnas/4E8Q

>  <Rbt.Executable>
rbdock ($Id: //depot/dev/client3/rdock/2013.1/src/exe/rbdock.cxx#4 $)

>  <Rbt.Library>
libRbt.so (2013.1, Build901 2013/11/27)

>  <Rbt.Parameter_File>
/export/apps/rDock/src/rDock_2013.1_src/data/scripts/dock_solv.prm

>  <Rbt.Receptor>
prm/pocket_docking_2.prm

>  <SCORE>
-5.21022

>  <SCORE.INTER>
7.03368

>  <SCORE.INTER.CONST>
1

>  <SCORE.INTER.POLAR>
0

>  <SCORE.INTER.ROT>
11

>  <SCORE.INTER.SOLV>
7.26949

>  <SCORE.INTER.VDW>
-8.66738

>  <SCORE.INTER.norm>
0.502406

>  <SCORE.INTRA>
-12.2513

>  <SCORE.INTRA.DIHEDRAL>
-24.8468

>  <SCORE.INTRA.DIHEDRAL.0>
25.9209

>  <SCORE.INTRA.POLAR>
0

>  <SCORE.INTRA.POLAR.0>
0

>  <SCORE.INTRA.REPUL>
0

>  <SCORE.INTRA.REPUL.0>
0

>  <SCORE.INTRA.SOLV>
-1.14673

>  <SCORE.INTRA.SOLV.lig_0>
-47.4815

>  <SCORE.INTRA.VDW>
0.745448

>  <SCORE.INTRA.VDW.0>
-1.57492

>  <SCORE.INTRA.norm>
-0.875096

>  <SCORE.RESTR>
0.0074444

>  <SCORE.RESTR.CAVITY>
0.0074444

>  <SCORE.RESTR.norm>
0.000531743

>  <SCORE.SYSTEM>
0

>  <SCORE.SYSTEM.CONST>
0

>  <SCORE.SYSTEM.DIHEDRAL>
0

>  <SCORE.SYSTEM.SOLV>
0

>  <SCORE.SYSTEM.norm>
0

>  <SCORE.heavy>
14

>  <SCORE.norm>
-0.372158

>  <RMSD>
1.742

$$$$
ligand
 OpenBabel11021811493D
libRbt.so/2013.1/901 2013/11/27
 14 13  0  0  0  0  0  0  0  0999 V2000
   58.8305   -0.4213    2.5501 N   0  0  0  0  0  0  0  0  0  0  0  0
   58.1444    0.5922    1.7581 C   0  0  0  0  0  0  0  0  0  0  0  0
   56.8075    0.9940    2.4165 C   0  0  0  0  0  0  0  0  0  0  0  0
   56.0713    2.1550    1.7189 C   0  0  0  0  0  0  0  0  0  0  0  0
   54.7896    2.6022    2.2847 N   0  0  0  0  0  0  0  0  0  0  0  0
   53.5175    2.0515    1.8040 C   0  0  0  0  0  0  0  0  0  0  0  0
   53.0160    2.6338    0.4793 C   0  0  0  0  0  0  0  0  0  0  0  0
   51.6686    2.0375    0.0378 C   0  0  0  0  0  0  0  0  0  0  0  0
   51.1447    2.5991   -1.2936 C   0  0  0  0  0  0  0  0  0  0  0  0
   52.0340    2.3906   -2.4387 N   0  0  0  0  0  0  0  0  0  0  0  0
   51.5252    1.6889   -3.6300 C   0  0  0  0  0  0  0  0  0  0  0  0
   51.1523    0.1973   -3.4582 C   0  0  0  0  0  0  0  0  0  0  0  0
   50.6418   -0.5177   -4.7256 C   0  0  0  0  0  0  0  0  0  0  0  0
   49.4480    0.1042   -5.2908 N   0  0  0  0  0  0  0  0  0  0  0  0
  1  2  1  0  0  0  0
  2  3  1  0  0  0  0
  3  4  1  0  0  0  0
  4  5  1  0  0  0  0
  5  6  1  0  0  0  0
  6  7  1  0  0  0  0
  7  8  1  0  0  0  0
  8  9  1  0  0  0  0
  9 10  1  0  0  0  0
 10 11  1  0  0  0  0
 11 12  1  0  0  0  0
 12 13  1  0  0  0  0
 13 14  1  0  0  0  0
M  END
>  <CHROM.1>
174.63825917,-179.88236062,-92.79295486,-78.80133832,-179.00674145,-179.69849330
59.45743104,123.68886225,-65.85730294,-179.15214022,-58.97129631,53.48497404
1.36488797,-0.55618685,-0.60281810,0.50423264,-2.23130993

>  <Name>
ligand

>  <RI>
0

>  <Rbt.Current_Directory>
/home/itssahil/PROJECTS/Mol_Feturizer/New_Systems/rnas/4E8Q

>  <Rbt.Executable>
rbdock ($Id: //depot/dev/client3/rdock/2013.1/src/exe/rbdock.cxx#4 $)

>  <Rbt.Library>
libRbt.so (2013.1, Build901 2013/11/27)

>  <Rbt.Parameter_File>
/export/apps/rDock/src/rDock_2013.1_src/data/scripts/dock_solv.prm

>  <Rbt.Receptor>
prm/pocket_docking_2.prm

>  <SCORE>
-7.50236

>  <SCORE.INTER>
4.17295

>  <SCORE.INTER.CONST>
1

>  <SCORE.INTER.POLAR>
0

>  <SCORE.INTER.ROT>
11

>  <SCORE.INTER.SOLV>
7.08422

>  <SCORE.INTER.VDW>
-10.5128

>  <SCORE.INTER.norm>
0.298068

>  <SCORE.INTRA>
-11.6753

>  <SCORE.INTRA.DIHEDRAL>
-23.6286

>  <SCORE.INTRA.DIHEDRAL.0>
25.9209

>  <SCORE.INTRA.POLAR>
0

>  <SCORE.INTRA.POLAR.0>
0

>  <SCORE.INTRA.REPUL>
0

>  <SCORE.INTRA.REPUL.0>
0

>  <SCORE.INTRA.SOLV>
-1.05219

>  <SCORE.INTRA.SOLV.lig_0>
-47.4815

>  <SCORE.INTRA.VDW>
0.66508

>  <SCORE.INTRA.VDW.0>
-1.57492

>  <SCORE.INTRA.norm>
-0.833951

>  <SCORE.RESTR>
0

>  <SCORE.RESTR.CAVITY>
0

>  <SCORE.RESTR.norm>
0

>  <SCORE.SYSTEM>
0

>  <SCORE.SYSTEM.CONST>
0

>  <SCORE.SYSTEM.DIHEDRAL>
0

>  <SCORE.SYSTEM.SOLV>
0

>  <SCORE.SYSTEM.norm>
0

>  <SCORE.heavy>
14

>  <SCORE.norm>
-0.535883

>  <RMSD>
1.756

$$$$
ligand
 OpenBabel11021811493D
libRbt.so/2013.1/901 2013/11/27
 14 13  0  0  0  0  0  0  0  0999 V2000
   58.2802   -0.5507    1.4536 N   0  0  0  0  0  0  0  0  0  0  0  0
   57.1685    0.3885    1.5397 C   0  0  0  0  0  0  0  0  0  0  0  0
   57.6012    1.7976    1.0819 C   0  0  0  0  0  0  0  0  0  0  0  0
   56.5178    2.8836    1.2352 C   0  0  0  0  0  0  0  0  0  0  0  0
   55.2494    2.7037    0.5130 N   0  0  0  0  0  0  0  0  0  0  0  0
   54.2852    3.8030    0.3926 C   0  0  0  0  0  0  0  0  0  0  0  0
   53.1996    3.6024   -0.6688 C   0  0  0  0  0  0  0  0  0  0  0  0
   52.2678    2.4201   -0.3529 C   0  0  0  0  0  0  0  0  0  0  0  0
   51.4523    1.9292   -1.5597 C   0  0  0  0  0  0  0  0  0  0  0  0
   50.5621    2.9333   -2.1469 N   0  0  0  0  0  0  0  0  0  0  0  0
   50.4512    3.0315   -3.6126 C   0  0  0  0  0  0  0  0  0  0  0  0
   50.0672    1.7406   -4.3739 C   0  0  0  0  0  0  0  0  0  0  0  0
   50.0127    1.8580   -5.9106 C   0  0  0  0  0  0  0  0  0  0  0  0
   49.8013    0.5750   -6.5745 N   0  0  0  0  0  0  0  0  0  0  0  0
  1  2  1  0  0  0  0
  2  3  1  0  0  0  0
  3  4  1  0  0  0  0
  4  5  1  0  0  0  0
  5  6  1  0  0  0  0
  6  7  1  0  0  0  0
  7  8  1  0  0  0  0
  8  9  1  0  0  0  0
  9 10  1  0  0  0  0
 10 11  1  0  0  0  0
 11 12  1  0  0  0  0
 12 13  1  0  0  0  0
 13 14  1  0  0  0  0
M  END
>  <CHROM.1>
-175.76717094,-59.74254964,-167.74916537,164.86043195,64.50106887,-162.79384052
-60.35142268,138.70718568,54.98965143,-177.66850522,173.19261705,53.35113571
2.07996634,-1.35586782,-0.42838706,0.59407078,-2.38646387

>  <Name>
ligand

>  <RI>
0

>  <Rbt.Current_Directory>
/home/itssahil/PROJECTS/Mol_Feturizer/New_Systems/rnas/4E8Q

>  <Rbt.Executable>
rbdock ($Id: //depot/dev/client3/rdock/2013.1/src/exe/rbdock.cxx#4 $)

>  <Rbt.Library>
libRbt.so (2013.1, Build901 2013/11/27)

>  <Rbt.Parameter_File>
/export/apps/rDock/src/rDock_2013.1_src/data/scripts/dock_solv.prm

>  <Rbt.Receptor>
prm/pocket_docking_2.prm

>  <SCORE>
-3.3388

>  <SCORE.INTER>
8.14267

>  <SCORE.INTER.CONST>
1

>  <SCORE.INTER.POLAR>
0

>  <SCORE.INTER.ROT>
11

>  <SCORE.INTER.SOLV>
8.51543

>  <SCORE.INTER.VDW>
-8.34336

>  <SCORE.INTER.norm>
0.581619

>  <SCORE.INTRA>
-11.4815

>  <SCORE.INTRA.DIHEDRAL>
-23.1692

>  <SCORE.INTRA.DIHEDRAL.0>
25.9209

>  <SCORE.INTRA.POLAR>
0

>  <SCORE.INTRA.POLAR.0>
0

>  <SCORE.INTRA.REPUL>
0

>  <SCORE.INTRA.REPUL.0>
0

>  <SCORE.INTRA.SOLV>
-1.08343

>  <SCORE.INTRA.SOLV.lig_0>
-47.4815

>  <SCORE.INTRA.VDW>
0.644852

>  <SCORE.INTRA.VDW.0>
-1.57492

>  <SCORE.INTRA.norm>
-0.820105

>  <SCORE.RESTR>
0

>  <SCORE.RESTR.CAVITY>
0

>  <SCORE.RESTR.norm>
0

>  <SCORE.SYSTEM>
0

>  <SCORE.SYSTEM.CONST>
0

>  <SCORE.SYSTEM.DIHEDRAL>
0

>  <SCORE.SYSTEM.SOLV>
0

>  <SCORE.SYSTEM.norm>
0

>  <SCORE.heavy>
14

>  <SCORE.norm>
-0.238486

>  <RMSD>
1.758

$$$$
ligand
 OpenBabel11021811493D
libRbt.so/2013.1/901 2013/11/27
 14 13  0  0  0  0  0  0  0  0999 V2000
   58.0968   -0.5289    1.5019 N   0  0  0  0  0  0  0  0  0  0  0  0
   57.3629    0.6807    1.1508 C   0  0  0  0  0  0  0  0  0  0  0  0
   55.8909    0.5832    1.6050 C   0  0  0  0  0  0  0  0  0  0  0  0
   55.0478    1.8434    1.3260 C   0  0  0  0  0  0  0  0  0  0  0  0
   53.6185    1.8110    1.6707 N   0  0  0  0  0  0  0  0  0  0  0  0
   52.5928    2.1415    0.6751 C   0  0  0  0  0  0  0  0  0  0  0  0
   52.5103    3.6224    0.2935 C   0  0  0  0  0  0  0  0  0  0  0  0
   51.3784    3.9188   -0.7050 C   0  0  0  0  0  0  0  0  0  0  0  0
   51.6156    3.3360   -2.1074 C   0  0  0  0  0  0  0  0  0  0  0  0
   51.4997    1.8784   -2.1926 N   0  0  0  0  0  0  0  0  0  0  0  0
   51.5922    1.2222   -3.5084 C   0  0  0  0  0  0  0  0  0  0  0  0
   51.4517   -0.3183   -3.5342 C   0  0  0  0  0  0  0  0  0  0  0  0
   50.0154   -0.8641   -3.4031 C   0  0  0  0  0  0  0  0  0  0  0  0
   49.1839   -0.5696   -4.5665 N   0  0  0  0  0  0  0  0  0  0  0  0
  1  2  1  0  0  0  0
  2  3  1  0  0  0  0
  3  4  1  0  0  0  0
  4  5  1  0  0  0  0
  5  6  1  0  0  0  0
  6  7  1  0  0  0  0
  7  8  1  0  0  0  0
  8  9  1  0  0  0  0
  9 10  1  0  0  0  0
 10 11  1  0  0  0  0
 11 12  1  0  0  0  0
 12 13  1  0  0  0  0
 13 14  1  0  0  0  0
M  END
>  <CHROM.1>
177.66216712,177.19859857,-126.20259868,-71.49917383,-177.44955051,-68.78502420
71.35724329,174.76519086,-179.55951828,77.48905764,68.29732166,52.98972612
1.34005555,-0.84240592,-0.39616608,0.58963096,-2.55028494

>  <Name>
ligand

>  <RI>
0

>  <Rbt.Current_Directory>
/home/itssahil/PROJECTS/Mol_Feturizer/New_Systems/rnas/4E8Q

>  <Rbt.Executable>
rbdock ($Id: //depot/dev/client3/rdock/2013.1/src/exe/rbdock.cxx#4 $)

>  <Rbt.Library>
libRbt.so (2013.1, Build901 2013/11/27)

>  <Rbt.Parameter_File>
/export/apps/rDock/src/rDock_2013.1_src/data/scripts/dock_solv.prm

>  <Rbt.Receptor>
prm/pocket_docking_2.prm

>  <SCORE>
-6.46172

>  <SCORE.INTER>
4.14509

>  <SCORE.INTER.CONST>
1

>  <SCORE.INTER.POLAR>
0

>  <SCORE.INTER.ROT>
11

>  <SCORE.INTER.SOLV>
10.0507

>  <SCORE.INTER.VDW>
-11.5202

>  <SCORE.INTER.norm>
0.296078

>  <SCORE.INTRA>
-10.6362

>  <SCORE.INTRA.DIHEDRAL>
-22.4225

>  <SCORE.INTRA.DIHEDRAL.0>
25.9209

>  <SCORE.INTRA.POLAR>
0

>  <SCORE.INTRA.POLAR.0>
0

>  <SCORE.INTRA.REPUL>
0

>  <SCORE.INTRA.REPUL.0>
0

>  <SCORE.INTRA.SOLV>
-0.0974755

>  <SCORE.INTRA.SOLV.lig_0>
-47.4815

>  <SCORE.INTRA.VDW>
0.623826

>  <SCORE.INTRA.VDW.0>
-1.57492

>  <SCORE.INTRA.norm>
-0.759727

>  <SCORE.RESTR>
0.0293674

>  <SCORE.RESTR.CAVITY>
0.0293674

>  <SCORE.RESTR.norm>
0.00209767

>  <SCORE.SYSTEM>
0

>  <SCORE.SYSTEM.CONST>
0

>  <SCORE.SYSTEM.DIHEDRAL>
0

>  <SCORE.SYSTEM.SOLV>
0

>  <SCORE.SYSTEM.norm>
0

>  <SCORE.heavy>
14

>  <SCORE.norm>
-0.461552

>  <RMSD>
1.797

$$$$
ligand
 OpenBabel11021811493D
libRbt.so/2013.1/901 2013/11/27
 14 13  0  0  0  0  0  0  0  0999 V2000
   56.0680    2.5470    3.0484 N   0  0  0  0  0  0  0  0  0  0  0  0
   55.7324    1.4947    2.0970 C   0  0  0  0  0  0  0  0  0  0  0  0
   54.2227    1.5036    1.7758 C   0  0  0  0  0  0  0  0  0  0  0  0
   53.7306    2.7642    1.0372 C   0  0  0  0  0  0  0  0  0  0  0  0
   52.3184    2.8221    0.6310 N   0  0  0  0  0  0  0  0  0  0  0  0
   51.7877    1.9136   -0.3916 C   0  0  0  0  0  0  0  0  0  0  0  0
   52.0789    2.3221   -1.8386 C   0  0  0  0  0  0  0  0  0  0  0  0
   51.2146    3.5037   -2.3102 C   0  0  0  0  0  0  0  0  0  0  0  0
   51.4727    3.9229   -3.7663 C   0  0  0  0  0  0  0  0  0  0  0  0
   51.5427    2.8134   -4.7199 N   0  0  0  0  0  0  0  0  0  0  0  0
   50.4517    1.8241   -4.7584 C   0  0  0  0  0  0  0  0  0  0  0  0
   50.8053    0.4115   -5.2810 C   0  0  0  0  0  0  0  0  0  0  0  0
   49.7137   -0.6632   -5.1032 C   0  0  0  0  0  0  0  0  0  0  0  0
   49.4047   -0.9374   -3.7029 N   0  0  0  0  0  0  0  0  0  0  0  0
  1  2  1  0  0  0  0
  2  3  1  0  0  0  0
  3  4  1  0  0  0  0
  4  5  1  0  0  0  0
  5  6  1  0  0  0  0
  6  7  1  0  0  0  0
  7  8  1  0  0  0  0
  8  9  1  0  0  0  0
  9 10  1  0  0  0  0
 10 11  1  0  0  0  0
 11 12  1  0  0  0  0
 12 13  1  0  0  0  0
 13 14  1  0  0  0  0
M  END
>  <CHROM.1>
65.45470713,176.86797748,-66.63207210,-80.36103201,-74.47012772,-179.21934191
45.80090514,51.96507607,-154.34941175,170.64529690,-63.36949032,52.18165343
1.87447381,-1.66324318,0.10621224,0.98687685,2.82717315

>  <Name>
ligand

>  <RI>
0

>  <Rbt.Current_Directory>
/home/itssahil/PROJECTS/Mol_Feturizer/New_Systems/rnas/4E8Q

>  <Rbt.Executable>
rbdock ($Id: //depot/dev/client3/rdock/2013.1/src/exe/rbdock.cxx#4 $)

>  <Rbt.Library>
libRbt.so (2013.1, Build901 2013/11/27)

>  <Rbt.Parameter_File>
/export/apps/rDock/src/rDock_2013.1_src/data/scripts/dock_solv.prm

>  <Rbt.Receptor>
prm/pocket_docking_2.prm

>  <SCORE>
-3.48394

>  <SCORE.INTER>
6.88591

>  <SCORE.INTER.CONST>
1

>  <SCORE.INTER.POLAR>
0

>  <SCORE.INTER.ROT>
11

>  <SCORE.INTER.SOLV>
6.38058

>  <SCORE.INTER.VDW>
-8.46959

>  <SCORE.INTER.norm>
0.491851

>  <SCORE.INTRA>
-10.3699

>  <SCORE.INTRA.DIHEDRAL>
-23.0563

>  <SCORE.INTRA.DIHEDRAL.0>
25.9209

>  <SCORE.INTRA.POLAR>
0

>  <SCORE.INTRA.POLAR.0>
0

>  <SCORE.INTRA.REPUL>
0

>  <SCORE.INTRA.REPUL.0>
0

>  <SCORE.INTRA.SOLV>
0.00337517

>  <SCORE.INTRA.SOLV.lig_0>
-47.4815

>  <SCORE.INTRA.VDW>
1.15662

>  <SCORE.INTRA.VDW.0>
-1.57492

>  <SCORE.INTRA.norm>
-0.740704

>  <SCORE.RESTR>
0

>  <SCORE.RESTR.CAVITY>
0

>  <SCORE.RESTR.norm>
0

>  <SCORE.SYSTEM>
0

>  <SCORE.SYSTEM.CONST>
0

>  <SCORE.SYSTEM.DIHEDRAL>
0

>  <SCORE.SYSTEM.SOLV>
0

>  <SCORE.SYSTEM.norm>
0

>  <SCORE.heavy>
14

>  <SCORE.norm>
-0.248853

>  <RMSD>
1.797

$$$$
ligand
 OpenBabel11021811493D
libRbt.so/2013.1/901 2013/11/27
 14 13  0  0  0  0  0  0  0  0999 V2000
   58.1254    0.5737    1.5048 N   0  0  0  0  0  0  0  0  0  0  0  0
   56.7460    0.9883    1.2799 C   0  0  0  0  0  0  0  0  0  0  0  0
   55.9174    0.8717    2.5770 C   0  0  0  0  0  0  0  0  0  0  0  0
   54.4696    1.3889    2.4629 C   0  0  0  0  0  0  0  0  0  0  0  0
   54.2646    2.8072    2.1324 N   0  0  0  0  0  0  0  0  0  0  0  0
   52.9170    3.3471    1.9199 C   0  0  0  0  0  0  0  0  0  0  0  0
   52.4418    3.3550    0.4640 C   0  0  0  0  0  0  0  0  0  0  0  0
   52.2106    1.9410   -0.0956 C   0  0  0  0  0  0  0  0  0  0  0  0
   52.1235    1.8839   -1.6291 C   0  0  0  0  0  0  0  0  0  0  0  0
   50.8781    2.4108   -2.1920 N   0  0  0  0  0  0  0  0  0  0  0  0
   50.5738    2.1794   -3.6148 C   0  0  0  0  0  0  0  0  0  0  0  0
   50.4974    0.7072   -4.0842 C   0  0  0  0  0  0  0  0  0  0  0  0
   50.5089    0.4874   -5.6104 C   0  0  0  0  0  0  0  0  0  0  0  0
   49.3743    1.1101   -6.2860 N   0  0  0  0  0  0  0  0  0  0  0  0
  1  2  1  0  0  0  0
  2  3  1  0  0  0  0
  3  4  1  0  0  0  0
  4  5  1  0  0  0  0
  5  6  1  0  0  0  0
  6  7  1  0  0  0  0
  7  8  1  0  0  0  0
  8  9  1  0  0  0  0
  9 10  1  0  0  0  0
 10 11  1  0  0  0  0
 11 12  1  0  0  0  0
 12 13  1  0  0  0  0
 13 14  1  0  0  0  0
M  END
>  <CHROM.1>
175.64468199,-61.46185546,175.88263726,-93.17329234,68.03762365,-163.67274640
-73.72574796,-168.58118196,58.53533754,-166.21292385,-61.31959957,52.93194502
1.71799478,-0.79776582,-0.77225270,0.48526555,-2.05420631

>  <Name>
ligand

>  <RI>
0

>  <Rbt.Current_Directory>
/home/itssahil/PROJECTS/Mol_Feturizer/New_Systems/rnas/4E8Q

>  <Rbt.Executable>
rbdock ($Id: //depot/dev/client3/rdock/2013.1/src/exe/rbdock.cxx#4 $)

>  <Rbt.Library>
libRbt.so (2013.1, Build901 2013/11/27)

>  <Rbt.Parameter_File>
/export/apps/rDock/src/rDock_2013.1_src/data/scripts/dock_solv.prm

>  <Rbt.Receptor>
prm/pocket_docking_2.prm

>  <SCORE>
-4.13838

>  <SCORE.INTER>
6.77578

>  <SCORE.INTER.CONST>
1

>  <SCORE.INTER.POLAR>
0

>  <SCORE.INTER.ROT>
11

>  <SCORE.INTER.SOLV>
7.1156

>  <SCORE.INTER.VDW>
-8.78801

>  <SCORE.INTER.norm>
0.483984

>  <SCORE.INTRA>
-10.9413

>  <SCORE.INTRA.DIHEDRAL>
-22.3522

>  <SCORE.INTRA.DIHEDRAL.0>
25.9209

>  <SCORE.INTRA.POLAR>
0

>  <SCORE.INTRA.POLAR.0>
0

>  <SCORE.INTRA.REPUL>
0

>  <SCORE.INTRA.REPUL.0>
0

>  <SCORE.INTRA.SOLV>
-0.511672

>  <SCORE.INTRA.SOLV.lig_0>
-47.4815

>  <SCORE.INTRA.VDW>
0.490655

>  <SCORE.INTRA.VDW.0>
-1.57492

>  <SCORE.INTRA.norm>
-0.78152

>  <SCORE.RESTR>
0.0271163

>  <SCORE.RESTR.CAVITY>
0.0271163

>  <SCORE.RESTR.norm>
0.00193688

>  <SCORE.SYSTEM>
0

>  <SCORE.SYSTEM.CONST>
0

>  <SCORE.SYSTEM.DIHEDRAL>
0

>  <SCORE.SYSTEM.SOLV>
0

>  <SCORE.SYSTEM.norm>
0

>  <SCORE.heavy>
14

>  <SCORE.norm>
-0.295598

>  <RMSD>
1.803

$$$$
ligand
 OpenBabel11021811493D
libRbt.so/2013.1/901 2013/11/27
 14 13  0  0  0  0  0  0  0  0999 V2000
   50.1272    0.0350   -7.0166 N   0  0  0  0  0  0  0  0  0  0  0  0
   50.4751   -0.1452   -5.6125 C   0  0  0  0  0  0  0  0  0  0  0  0
   50.6762    1.2173   -4.9156 C   0  0  0  0  0  0  0  0  0  0  0  0
   50.9857    1.1281   -3.4079 C   0  0  0  0  0  0  0  0  0  0  0  0
   51.1819    2.3824   -2.6656 N   0  0  0  0  0  0  0  0  0  0  0  0
   51.1737    2.4022   -1.1986 C   0  0  0  0  0  0  0  0  0  0  0  0
   52.5496    2.5506   -0.5426 C   0  0  0  0  0  0  0  0  0  0  0  0
   52.4787    2.5713    0.9938 C   0  0  0  0  0  0  0  0  0  0  0  0
   53.8531    2.5509    1.6817 C   0  0  0  0  0  0  0  0  0  0  0  0
   54.6915    1.3990    1.3411 N   0  0  0  0  0  0  0  0  0  0  0  0
   56.0972    1.3736    1.7812 C   0  0  0  0  0  0  0  0  0  0  0  0
   56.9296    0.1281    1.3948 C   0  0  0  0  0  0  0  0  0  0  0  0
   58.3786    0.0987    1.9216 C   0  0  0  0  0  0  0  0  0  0  0  0
   58.4566    0.0957    3.3795 N   0  0  0  0  0  0  0  0  0  0  0  0
  1  2  1  0  0  0  0
  2  3  1  0  0  0  0
  3  4  1  0  0  0  0
  4  5  1  0  0  0  0
  5  6  1  0  0  0  0
  6  7  1  0  0  0  0
  7  8  1  0  0  0  0
  8  9  1  0  0  0  0
  9 10  1  0  0  0  0
 10 11  1  0  0  0  0
 11 12  1  0  0  0  0
 12 13  1  0  0  0  0
 13 14  1  0  0  0  0
M  END
>  <CHROM.1>
177.37936506,-179.57509293,165.89914244,104.93211799,179.74736803,173.11239352
-58.09842322,171.06461119,179.79813324,-177.36829580,61.95189088,53.43241001
1.27067904,-0.91884038,-2.45422861,-0.52551291,1.03894993

>  <Name>
ligand

>  <RI>
0

>  <Rbt.Current_Directory>
/home/itssahil/PROJECTS/Mol_Feturizer/New_Systems/rnas/4E8Q

>  <Rbt.Executable>
rbdock ($Id: //depot/dev/client3/rdock/2013.1/src/exe/rbdock.cxx#4 $)

>  <Rbt.Library>
libRbt.so (2013.1, Build901 2013/11/27)

>  <Rbt.Parameter_File>
/export/apps/rDock/src/rDock_2013.1_src/data/scripts/dock_solv.prm

>  <Rbt.Receptor>
prm/pocket_docking_2.prm

>  <SCORE>
-7.4583

>  <SCORE.INTER>
4.86918

>  <SCORE.INTER.CONST>
1

>  <SCORE.INTER.POLAR>
0

>  <SCORE.INTER.ROT>
11

>  <SCORE.INTER.SOLV>
5.83831

>  <SCORE.INTER.VDW>
-9.63332

>  <SCORE.INTER.norm>
0.347799

>  <SCORE.INTRA>
-12.3284

>  <SCORE.INTRA.DIHEDRAL>
-24.3995

>  <SCORE.INTRA.DIHEDRAL.0>
25.9209

>  <SCORE.INTRA.POLAR>
0

>  <SCORE.INTRA.POLAR.0>
0

>  <SCORE.INTRA.REPUL>
0

>  <SCORE.INTRA.REPUL.0>
0

>  <SCORE.INTRA.SOLV>
-1.05593

>  <SCORE.INTRA.SOLV.lig_0>
-47.4815

>  <SCORE.INTRA.VDW>
0.399263

>  <SCORE.INTRA.VDW.0>
-1.57492

>  <SCORE.INTRA.norm>
-0.880602

>  <SCORE.RESTR>
0.00095026

>  <SCORE.RESTR.CAVITY>
0.00095026

>  <SCORE.RESTR.norm>
6.78757e-05

>  <SCORE.SYSTEM>
0

>  <SCORE.SYSTEM.CONST>
0

>  <SCORE.SYSTEM.DIHEDRAL>
0

>  <SCORE.SYSTEM.SOLV>
0

>  <SCORE.SYSTEM.norm>
0

>  <SCORE.heavy>
14

>  <SCORE.norm>
-0.532736

>  <RMSD>
1.814

$$$$
ligand
 OpenBabel11021811493D
libRbt.so/2013.1/901 2013/11/27
 14 13  0  0  0  0  0  0  0  0999 V2000
   58.7153   -0.2714    2.8173 N   0  0  0  0  0  0  0  0  0  0  0  0
   58.3173   -0.4837    1.4310 C   0  0  0  0  0  0  0  0  0  0  0  0
   57.4129    0.6649    0.9356 C   0  0  0  0  0  0  0  0  0  0  0  0
   56.0569    0.7733    1.6610 C   0  0  0  0  0  0  0  0  0  0  0  0
   55.1966    1.9255    1.3528 N   0  0  0  0  0  0  0  0  0  0  0  0
   53.7718    1.9205    1.7029 C   0  0  0  0  0  0  0  0  0  0  0  0
   52.8094    1.9283    0.5117 C   0  0  0  0  0  0  0  0  0  0  0  0
   52.8283    3.2577   -0.2617 C   0  0  0  0  0  0  0  0  0  0  0  0
   51.9171    3.2719   -1.4995 C   0  0  0  0  0  0  0  0  0  0  0  0
   52.3620    2.4106   -2.5975 N   0  0  0  0  0  0  0  0  0  0  0  0
   51.4010    2.0191   -3.6434 C   0  0  0  0  0  0  0  0  0  0  0  0
   50.9462    0.5405   -3.6586 C   0  0  0  0  0  0  0  0  0  0  0  0
   49.8642    0.1811   -4.6969 C   0  0  0  0  0  0  0  0  0  0  0  0
   49.4749   -1.2253   -4.6531 N   0  0  0  0  0  0  0  0  0  0  0  0
  1  2  1  0  0  0  0
  2  3  1  0  0  0  0
  3  4  1  0  0  0  0
  4  5  1  0  0  0  0
  5  6  1  0  0  0  0
  6  7  1  0  0  0  0
  7  8  1  0  0  0  0
  8  9  1  0  0  0  0
  9 10  1  0  0  0  0
 10 11  1  0  0  0  0
 11 12  1  0  0  0  0
 12 13  1  0  0  0  0
 13 14  1  0  0  0  0
M  END
>  <CHROM.1>
-64.45395883,173.51500520,163.13986810,-114.01853050,-68.96662340,177.45425306
-69.02257905,161.51509298,-109.40628298,175.72017028,-179.64808798,53.64801219
1.20827603,-0.75703210,-0.35506226,0.62088693,-2.52222680

>  <Name>
ligand

>  <RI>
0

>  <Rbt.Current_Directory>
/home/itssahil/PROJECTS/Mol_Feturizer/New_Systems/rnas/4E8Q

>  <Rbt.Executable>
rbdock ($Id: //depot/dev/client3/rdock/2013.1/src/exe/rbdock.cxx#4 $)

>  <Rbt.Library>
libRbt.so (2013.1, Build901 2013/11/27)

>  <Rbt.Parameter_File>
/export/apps/rDock/src/rDock_2013.1_src/data/scripts/dock_solv.prm

>  <Rbt.Receptor>
prm/pocket_docking_2.prm

>  <SCORE>
-6.92872

>  <SCORE.INTER>
4.31341

>  <SCORE.INTER.CONST>
1

>  <SCORE.INTER.POLAR>
0

>  <SCORE.INTER.ROT>
11

>  <SCORE.INTER.SOLV>
8.50178

>  <SCORE.INTER.VDW>
-10.8917

>  <SCORE.INTER.norm>
0.308101

>  <SCORE.INTRA>
-11.2421

>  <SCORE.INTRA.DIHEDRAL>
-22.2314

>  <SCORE.INTRA.DIHEDRAL.0>
25.9209

>  <SCORE.INTRA.POLAR>
0

>  <SCORE.INTRA.POLAR.0>
0

>  <SCORE.INTRA.REPUL>
0

>  <SCORE.INTRA.REPUL.0>
0

>  <SCORE.INTRA.SOLV>
-0.800925

>  <SCORE.INTRA.SOLV.lig_0>
-47.4815

>  <SCORE.INTRA.VDW>
0.274048

>  <SCORE.INTRA.VDW.0>
-1.57492

>  <SCORE.INTRA.norm>
-0.803009

>  <SCORE.RESTR>
0

>  <SCORE.RESTR.CAVITY>
0

>  <SCORE.RESTR.norm>
0

>  <SCORE.SYSTEM>
0

>  <SCORE.SYSTEM.CONST>
0

>  <SCORE.SYSTEM.DIHEDRAL>
0

>  <SCORE.SYSTEM.SOLV>
0

>  <SCORE.SYSTEM.norm>
0

>  <SCORE.heavy>
14

>  <SCORE.norm>
-0.494908

>  <RMSD>
1.822

$$$$
ligand
 OpenBabel11021811493D
libRbt.so/2013.1/901 2013/11/27
 14 13  0  0  0  0  0  0  0  0999 V2000
   58.2756    0.2352    2.5416 N   0  0  0  0  0  0  0  0  0  0  0  0
   57.3868    0.3480    1.3916 C   0  0  0  0  0  0  0  0  0  0  0  0
   55.9105    0.2124    1.8211 C   0  0  0  0  0  0  0  0  0  0  0  0
   55.3760    1.3880    2.6632 C   0  0  0  0  0  0  0  0  0  0  0  0
   55.2482    2.7022    2.0158 N   0  0  0  0  0  0  0  0  0  0  0  0
   54.2578    2.9309    0.9577 C   0  0  0  0  0  0  0  0  0  0  0  0
   52.8003    2.7096    1.3725 C   0  0  0  0  0  0  0  0  0  0  0  0
   51.8064    2.9926    0.2331 C   0  0  0  0  0  0  0  0  0  0  0  0
   51.9428    2.0387   -0.9644 C   0  0  0  0  0  0  0  0  0  0  0  0
   51.0868    2.3643   -2.1075 N   0  0  0  0  0  0  0  0  0  0  0  0
   51.3218    1.6962   -3.3993 C   0  0  0  0  0  0  0  0  0  0  0  0
   50.8916    0.2142   -3.5099 C   0  0  0  0  0  0  0  0  0  0  0  0
   51.0056   -0.4154   -4.9129 C   0  0  0  0  0  0  0  0  0  0  0  0
   50.1679    0.2490   -5.9071 N   0  0  0  0  0  0  0  0  0  0  0  0
  1  2  1  0  0  0  0
  2  3  1  0  0  0  0
  3  4  1  0  0  0  0
  4  5  1  0  0  0  0
  5  6  1  0  0  0  0
  6  7  1  0  0  0  0
  7  8  1  0  0  0  0
  8  9  1  0  0  0  0
  9 10  1  0  0  0  0
 10 11  1  0  0  0  0
 11 12  1  0  0  0  0
 12 13  1  0  0  0  0
 13 14  1  0  0  0  0
M  END
>  <CHROM.1>
68.64303996,66.94130290,67.93847552,60.29580647,178.77666604,64.47185316
-174.86708275,167.76731148,73.82047568,173.56996258,-61.26947529,53.39117800
1.40471469,-0.55734808,-0.66735924,0.56524565,-2.23568301

>  <Name>
ligand

>  <RI>
0

>  <Rbt.Current_Directory>
/home/itssahil/PROJECTS/Mol_Feturizer/New_Systems/rnas/4E8Q

>  <Rbt.Executable>
rbdock ($Id: //depot/dev/client3/rdock/2013.1/src/exe/rbdock.cxx#4 $)

>  <Rbt.Library>
libRbt.so (2013.1, Build901 2013/11/27)

>  <Rbt.Parameter_File>
/export/apps/rDock/src/rDock_2013.1_src/data/scripts/dock_solv.prm

>  <Rbt.Receptor>
prm/pocket_docking_2.prm

>  <SCORE>
-7.46236

>  <SCORE.INTER>
3.56948

>  <SCORE.INTER.CONST>
1

>  <SCORE.INTER.POLAR>
0

>  <SCORE.INTER.ROT>
11

>  <SCORE.INTER.SOLV>
5.60112

>  <SCORE.INTER.VDW>
-10.4207

>  <SCORE.INTER.norm>
0.254963

>  <SCORE.INTRA>
-11.056

>  <SCORE.INTRA.DIHEDRAL>
-24.7931

>  <SCORE.INTRA.DIHEDRAL.0>
25.9209

>  <SCORE.INTRA.POLAR>
0

>  <SCORE.INTRA.POLAR.0>
0

>  <SCORE.INTRA.REPUL>
0

>  <SCORE.INTRA.REPUL.0>
0

>  <SCORE.INTRA.SOLV>
0.118154

>  <SCORE.INTRA.SOLV.lig_0>
-47.4815

>  <SCORE.INTRA.VDW>
1.28141

>  <SCORE.INTRA.VDW.0>
-1.57492

>  <SCORE.INTRA.norm>
-0.789717

>  <SCORE.RESTR>
0.0242051

>  <SCORE.RESTR.CAVITY>
0.0242051

>  <SCORE.RESTR.norm>
0.00172894

>  <SCORE.SYSTEM>
0

>  <SCORE.SYSTEM.CONST>
0

>  <SCORE.SYSTEM.DIHEDRAL>
0

>  <SCORE.SYSTEM.SOLV>
0

>  <SCORE.SYSTEM.norm>
0

>  <SCORE.heavy>
14

>  <SCORE.norm>
-0.533026

>  <RMSD>
1.842

$$$$
ligand
 OpenBabel11021811493D
libRbt.so/2013.1/901 2013/11/27
 14 13  0  0  0  0  0  0  0  0999 V2000
   59.0209   -0.4561    1.8798 N   0  0  0  0  0  0  0  0  0  0  0  0
   57.9884    0.5534    2.0799 C   0  0  0  0  0  0  0  0  0  0  0  0
   56.6042    0.0170    1.6568 C   0  0  0  0  0  0  0  0  0  0  0  0
   55.4222    0.9424    2.0076 C   0  0  0  0  0  0  0  0  0  0  0  0
   55.3260    2.2362    1.3150 N   0  0  0  0  0  0  0  0  0  0  0  0
   54.1990    3.1431    1.5600 C   0  0  0  0  0  0  0  0  0  0  0  0
   52.8388    2.6369    1.0710 C   0  0  0  0  0  0  0  0  0  0  0  0
   52.7215    2.6289   -0.4626 C   0  0  0  0  0  0  0  0  0  0  0  0
   51.3579    2.1449   -0.9811 C   0  0  0  0  0  0  0  0  0  0  0  0
   51.1257    2.3818   -2.4077 N   0  0  0  0  0  0  0  0  0  0  0  0
   51.8411    1.5628   -3.4017 C   0  0  0  0  0  0  0  0  0  0  0  0
   51.2307    0.1824   -3.7416 C   0  0  0  0  0  0  0  0  0  0  0  0
   49.8749    0.2099   -4.4758 C   0  0  0  0  0  0  0  0  0  0  0  0
   49.4343   -1.1120   -4.9117 N   0  0  0  0  0  0  0  0  0  0  0  0
  1  2  1  0  0  0  0
  2  3  1  0  0  0  0
  3  4  1  0  0  0  0
  4  5  1  0  0  0  0
  5  6  1  0  0  0  0
  6  7  1  0  0  0  0
  7  8  1  0  0  0  0
  8  9  1  0  0  0  0
  9 10  1  0  0  0  0
 10 11  1  0  0  0  0
 11 12  1  0  0  0  0
 12 13  1  0  0  0  0
 13 14  1  0  0  0  0
M  END
>  <CHROM.1>
172.15838479,66.92664046,177.54380995,-67.15614291,-70.70632781,-179.13549666
168.21947736,72.87442181,83.36808421,67.06905632,172.91820561,53.49886820
1.21958521,-0.62928122,-0.47619738,0.55897844,-2.41190738

>  <Name>
ligand

>  <RI>
0

>  <Rbt.Current_Directory>
/home/itssahil/PROJECTS/Mol_Feturizer/New_Systems/rnas/4E8Q

>  <Rbt.Executable>
rbdock ($Id: //depot/dev/client3/rdock/2013.1/src/exe/rbdock.cxx#4 $)

>  <Rbt.Library>
libRbt.so (2013.1, Build901 2013/11/27)

>  <Rbt.Parameter_File>
/export/apps/rDock/src/rDock_2013.1_src/data/scripts/dock_solv.prm

>  <Rbt.Receptor>
prm/pocket_docking_2.prm

>  <SCORE>
-7.34256

>  <SCORE.INTER>
4.42284

>  <SCORE.INTER.CONST>
1

>  <SCORE.INTER.POLAR>
0

>  <SCORE.INTER.ROT>
11

>  <SCORE.INTER.SOLV>
9.94825

>  <SCORE.INTER.VDW>
-11.3009

>  <SCORE.INTER.norm>
0.315917

>  <SCORE.INTRA>
-11.8013

>  <SCORE.INTRA.DIHEDRAL>
-23.6297

>  <SCORE.INTRA.DIHEDRAL.0>
25.9209

>  <SCORE.INTRA.POLAR>
0

>  <SCORE.INTRA.POLAR.0>
0

>  <SCORE.INTRA.REPUL>
0

>  <SCORE.INTRA.REPUL.0>
0

>  <SCORE.INTRA.SOLV>
-1.25166

>  <SCORE.INTRA.SOLV.lig_0>
-47.4815

>  <SCORE.INTRA.VDW>
0.639384

>  <SCORE.INTRA.VDW.0>
-1.57492

>  <SCORE.INTRA.norm>
-0.842949

>  <SCORE.RESTR>
0.0358813

>  <SCORE.RESTR.CAVITY>
0.0358813

>  <SCORE.RESTR.norm>
0.00256295

>  <SCORE.SYSTEM>
0

>  <SCORE.SYSTEM.CONST>
0

>  <SCORE.SYSTEM.DIHEDRAL>
0

>  <SCORE.SYSTEM.SOLV>
0

>  <SCORE.SYSTEM.norm>
0

>  <SCORE.heavy>
14

>  <SCORE.norm>
-0.524469

>  <RMSD>
1.880

$$$$
ligand
 OpenBabel11021811493D
libRbt.so/2013.1/901 2013/11/27
 14 13  0  0  0  0  0  0  0  0999 V2000
   57.9113    0.3950    2.9629 N   0  0  0  0  0  0  0  0  0  0  0  0
   57.4392   -0.1728    1.7059 C   0  0  0  0  0  0  0  0  0  0  0  0
   55.9134    0.0084    1.5584 C   0  0  0  0  0  0  0  0  0  0  0  0
   55.4389    1.4752    1.5470 C   0  0  0  0  0  0  0  0  0  0  0  0
   53.9989    1.7364    1.4024 N   0  0  0  0  0  0  0  0  0  0  0  0
   53.4291    3.0438    1.7467 C   0  0  0  0  0  0  0  0  0  0  0  0
   52.8221    3.8180    0.5730 C   0  0  0  0  0  0  0  0  0  0  0  0
   51.4983    3.2105    0.0787 C   0  0  0  0  0  0  0  0  0  0  0  0
   51.6664    1.8876   -0.6857 C   0  0  0  0  0  0  0  0  0  0  0  0
   52.3631    2.0058   -1.9687 N   0  0  0  0  0  0  0  0  0  0  0  0
   51.7024    2.6993   -3.0881 C   0  0  0  0  0  0  0  0  0  0  0  0
   50.4502    2.0201   -3.6916 C   0  0  0  0  0  0  0  0  0  0  0  0
   50.6938    0.6746   -4.4046 C   0  0  0  0  0  0  0  0  0  0  0  0
   51.4295    0.8169   -5.6575 N   0  0  0  0  0  0  0  0  0  0  0  0
  1  2  1  0  0  0  0
  2  3  1  0  0  0  0
  3  4  1  0  0  0  0
  4  5  1  0  0  0  0
  5  6  1  0  0  0  0
  6  7  1  0  0  0  0
  7  8  1  0  0  0  0
  8  9  1  0  0  0  0
  9 10  1  0  0  0  0
 10 11  1  0  0  0  0
 11 12  1  0  0  0  0
 12 13  1  0  0  0  0
 13 14  1  0  0  0  0
M  END
>  <CHROM.1>
60.88382361,179.66794744,162.99629123,115.53450968,72.00597799,-72.41027642
-66.63014121,-69.18404195,-67.24253399,-65.92703601,-69.77416864,53.33950914
1.68724567,-0.56570300,-0.60892617,0.62622953,-2.12191423

>  <Name>
ligand

>  <RI>
0

>  <Rbt.Current_Directory>
/home/itssahil/PROJECTS/Mol_Feturizer/New_Systems/rnas/4E8Q

>  <Rbt.Executable>
rbdock ($Id: //depot/dev/client3/rdock/2013.1/src/exe/rbdock.cxx#4 $)

>  <Rbt.Library>
libRbt.so (2013.1, Build901 2013/11/27)

>  <Rbt.Parameter_File>
/export/apps/rDock/src/rDock_2013.1_src/data/scripts/dock_solv.prm

>  <Rbt.Receptor>
prm/pocket_docking_2.prm

>  <SCORE>
-4.01168

>  <SCORE.INTER>
5.75287

>  <SCORE.INTER.CONST>
1

>  <SCORE.INTER.POLAR>
0

>  <SCORE.INTER.ROT>
11

>  <SCORE.INTER.SOLV>
7.25237

>  <SCORE.INTER.VDW>
-9.51555

>  <SCORE.INTER.norm>
0.410919

>  <SCORE.INTRA>
-9.76615

>  <SCORE.INTRA.DIHEDRAL>
-22.5993

>  <SCORE.INTRA.DIHEDRAL.0>
25.9209

>  <SCORE.INTRA.POLAR>
0

>  <SCORE.INTRA.POLAR.0>
0

>  <SCORE.INTRA.REPUL>
0

>  <SCORE.INTRA.REPUL.0>
0

>  <SCORE.INTRA.SOLV>
1.60825

>  <SCORE.INTRA.SOLV.lig_0>
-47.4815

>  <SCORE.INTRA.VDW>
0.729393

>  <SCORE.INTRA.VDW.0>
-1.57492

>  <SCORE.INTRA.norm>
-0.697582

>  <SCORE.RESTR>
0.0016065

>  <SCORE.RESTR.CAVITY>
0.0016065

>  <SCORE.RESTR.norm>
0.00011475

>  <SCORE.SYSTEM>
0

>  <SCORE.SYSTEM.CONST>
0

>  <SCORE.SYSTEM.DIHEDRAL>
0

>  <SCORE.SYSTEM.SOLV>
0

>  <SCORE.SYSTEM.norm>
0

>  <SCORE.heavy>
14

>  <SCORE.norm>
-0.286549

>  <RMSD>
1.889

$$$$
ligand
 OpenBabel11021811493D
libRbt.so/2013.1/901 2013/11/27
 14 13  0  0  0  0  0  0  0  0999 V2000
   57.0430    0.6909    2.1009 N   0  0  0  0  0  0  0  0  0  0  0  0
   56.0168    0.9924    3.0915 C   0  0  0  0  0  0  0  0  0  0  0  0
   55.0149    2.0329    2.5474 C   0  0  0  0  0  0  0  0  0  0  0  0
   54.0573    1.4973    1.4644 C   0  0  0  0  0  0  0  0  0  0  0  0
   53.1774    2.4575    0.7814 N   0  0  0  0  0  0  0  0  0  0  0  0
   51.9617    2.0112    0.0918 C   0  0  0  0  0  0  0  0  0  0  0  0
   51.2425    3.0906   -0.7225 C   0  0  0  0  0  0  0  0  0  0  0  0
   52.0533    3.5553   -1.9443 C   0  0  0  0  0  0  0  0  0  0  0  0
   52.3784    2.4312   -2.9409 C   0  0  0  0  0  0  0  0  0  0  0  0
   51.2165    1.6707   -3.4069 N   0  0  0  0  0  0  0  0  0  0  0  0
   51.3700    0.2408   -3.7264 C   0  0  0  0  0  0  0  0  0  0  0  0
   50.1026   -0.5118   -4.1965 C   0  0  0  0  0  0  0  0  0  0  0  0
   49.3917    0.0764   -5.4321 C   0  0  0  0  0  0  0  0  0  0  0  0
   50.2408    0.1065   -6.6194 N   0  0  0  0  0  0  0  0  0  0  0  0
  1  2  1  0  0  0  0
  2  3  1  0  0  0  0
  3  4  1  0  0  0  0
  4  5  1  0  0  0  0
  5  6  1  0  0  0  0
  6  7  1  0  0  0  0
  7  8  1  0  0  0  0
  8  9  1  0  0  0  0
  9 10  1  0  0  0  0
 10 11  1  0  0  0  0
 11 12  1  0  0  0  0
 12 13  1  0  0  0  0
 13 14  1  0  0  0  0
M  END
>  <CHROM.1>
72.12600854,-173.02773333,-159.43265789,-172.51986366,67.45470818,59.53094052
53.67116352,-147.46670239,179.25037135,56.61838395,60.34310906,52.51888471
1.45308994,-1.35065372,-0.66617668,0.76318867,-2.43633330

>  <Name>
ligand

>  <RI>
0

>  <Rbt.Current_Directory>
/home/itssahil/PROJECTS/Mol_Feturizer/New_Systems/rnas/4E8Q

>  <Rbt.Executable>
rbdock ($Id: //depot/dev/client3/rdock/2013.1/src/exe/rbdock.cxx#4 $)

>  <Rbt.Library>
libRbt.so (2013.1, Build901 2013/11/27)

>  <Rbt.Parameter_File>
/export/apps/rDock/src/rDock_2013.1_src/data/scripts/dock_solv.prm

>  <Rbt.Receptor>
prm/pocket_docking_2.prm

>  <SCORE>
-6.63623

>  <SCORE.INTER>
3.8312

>  <SCORE.INTER.CONST>
1

>  <SCORE.INTER.POLAR>
0

>  <SCORE.INTER.ROT>
11

>  <SCORE.INTER.SOLV>
5.20702

>  <SCORE.INTER.VDW>
-10.1149

>  <SCORE.INTER.norm>
0.273657

>  <SCORE.INTRA>
-10.4757

>  <SCORE.INTRA.DIHEDRAL>
-23.7581

>  <SCORE.INTRA.DIHEDRAL.0>
25.9209

>  <SCORE.INTRA.POLAR>
0

>  <SCORE.INTRA.POLAR.0>
0

>  <SCORE.INTRA.REPUL>
0

>  <SCORE.INTRA.REPUL.0>
0

>  <SCORE.INTRA.SOLV>
1.475

>  <SCORE.INTRA.SOLV.lig_0>
-47.4815

>  <SCORE.INTRA.VDW>
0.665803

>  <SCORE.INTRA.VDW.0>
-1.57492

>  <SCORE.INTRA.norm>
-0.748266

>  <SCORE.RESTR>
0.00830119

>  <SCORE.RESTR.CAVITY>
0.00830119

>  <SCORE.RESTR.norm>
0.000592942

>  <SCORE.SYSTEM>
0

>  <SCORE.SYSTEM.CONST>
0

>  <SCORE.SYSTEM.DIHEDRAL>
0

>  <SCORE.SYSTEM.SOLV>
0

>  <SCORE.SYSTEM.norm>
0

>  <SCORE.heavy>
14

>  <SCORE.norm>
-0.474016

>  <RMSD>
1.911

$$$$
ligand
 OpenBabel11021811493D
libRbt.so/2013.1/901 2013/11/27
 14 13  0  0  0  0  0  0  0  0999 V2000
   49.9460    0.5184   -5.5490 N   0  0  0  0  0  0  0  0  0  0  0  0
   50.9894   -0.3223   -4.9750 C   0  0  0  0  0  0  0  0  0  0  0  0
   51.3246    0.1216   -3.5352 C   0  0  0  0  0  0  0  0  0  0  0  0
   51.8479    1.5666   -3.4140 C   0  0  0  0  0  0  0  0  0  0  0  0
   52.2496    2.0487   -2.0840 N   0  0  0  0  0  0  0  0  0  0  0  0
   51.3633    1.8960   -0.9248 C   0  0  0  0  0  0  0  0  0  0  0  0
   51.4448    3.0230    0.1091 C   0  0  0  0  0  0  0  0  0  0  0  0
   52.8646    3.2185    0.6674 C   0  0  0  0  0  0  0  0  0  0  0  0
   53.3854    2.0220    1.4797 C   0  0  0  0  0  0  0  0  0  0  0  0
   54.6831    2.2373    2.1240 N   0  0  0  0  0  0  0  0  0  0  0  0
   55.8528    1.4668    1.6675 C   0  0  0  0  0  0  0  0  0  0  0  0
   56.0524    0.0635    2.2874 C   0  0  0  0  0  0  0  0  0  0  0  0
   57.4161   -0.6033    2.0153 C   0  0  0  0  0  0  0  0  0  0  0  0
   58.5372    0.1326    2.5925 N   0  0  0  0  0  0  0  0  0  0  0  0
  1  2  1  0  0  0  0
  2  3  1  0  0  0  0
  3  4  1  0  0  0  0
  4  5  1  0  0  0  0
  5  6  1  0  0  0  0
  6  7  1  0  0  0  0
  7  8  1  0  0  0  0
  8  9  1  0  0  0  0
  9 10  1  0  0  0  0
 10 11  1  0  0  0  0
 11 12  1  0  0  0  0
 12 13  1  0  0  0  0
 13 14  1  0  0  0  0
M  END
>  <CHROM.1>
-60.71939731,-177.23777674,-50.25195492,-146.56247332,-57.47715656,-65.05911417
-174.55728516,-112.84062759,-85.22646769,-168.22081888,63.45776807,53.42533561
1.24211628,-0.53841836,-2.51923792,-0.59258070,0.93259647

>  <Name>
ligand

>  <RI>
0

>  <Rbt.Current_Directory>
/home/itssahil/PROJECTS/Mol_Feturizer/New_Systems/rnas/4E8Q

>  <Rbt.Executable>
rbdock ($Id: //depot/dev/client3/rdock/2013.1/src/exe/rbdock.cxx#4 $)

>  <Rbt.Library>
libRbt.so (2013.1, Build901 2013/11/27)

>  <Rbt.Parameter_File>
/export/apps/rDock/src/rDock_2013.1_src/data/scripts/dock_solv.prm

>  <Rbt.Receptor>
prm/pocket_docking_2.prm

>  <SCORE>
-7.4316

>  <SCORE.INTER>
2.62338

>  <SCORE.INTER.CONST>
1

>  <SCORE.INTER.POLAR>
0

>  <SCORE.INTER.ROT>
11

>  <SCORE.INTER.SOLV>
7.0459

>  <SCORE.INTER.VDW>
-11.533

>  <SCORE.INTER.norm>
0.187384

>  <SCORE.INTRA>
-10.0735

>  <SCORE.INTRA.DIHEDRAL>
-22.7006

>  <SCORE.INTRA.DIHEDRAL.0>
25.9209

>  <SCORE.INTRA.POLAR>
0

>  <SCORE.INTRA.POLAR.0>
0

>  <SCORE.INTRA.REPUL>
0

>  <SCORE.INTRA.REPUL.0>
0

>  <SCORE.INTRA.SOLV>
-0.0204555

>  <SCORE.INTRA.SOLV.lig_0>
-47.4815

>  <SCORE.INTRA.VDW>
1.287

>  <SCORE.INTRA.VDW.0>
-1.57492

>  <SCORE.INTRA.norm>
-0.719538

>  <SCORE.RESTR>
0.0185511

>  <SCORE.RESTR.CAVITY>
0.0185511

>  <SCORE.RESTR.norm>
0.00132508

>  <SCORE.SYSTEM>
0

>  <SCORE.SYSTEM.CONST>
0

>  <SCORE.SYSTEM.DIHEDRAL>
0

>  <SCORE.SYSTEM.SOLV>
0

>  <SCORE.SYSTEM.norm>
0

>  <SCORE.heavy>
14

>  <SCORE.norm>
-0.530829

>  <RMSD>
1.913

$$$$
ligand
 OpenBabel11021811493D
libRbt.so/2013.1/901 2013/11/27
 14 13  0  0  0  0  0  0  0  0999 V2000
   49.5125   -1.5336   -5.0818 N   0  0  0  0  0  0  0  0  0  0  0  0
   49.7785   -0.9601   -3.7682 C   0  0  0  0  0  0  0  0  0  0  0  0
   51.0851   -0.1385   -3.7802 C   0  0  0  0  0  0  0  0  0  0  0  0
   51.0789    1.0639   -4.7449 C   0  0  0  0  0  0  0  0  0  0  0  0
   52.2183    1.9928   -4.7017 N   0  0  0  0  0  0  0  0  0  0  0  0
   52.2571    3.0977   -3.7372 C   0  0  0  0  0  0  0  0  0  0  0  0
   51.9828    2.7018   -2.2834 C   0  0  0  0  0  0  0  0  0  0  0  0
   52.0277    3.9002   -1.3203 C   0  0  0  0  0  0  0  0  0  0  0  0
   51.6811    3.5443    0.1343 C   0  0  0  0  0  0  0  0  0  0  0  0
   52.4394    2.4198    0.6872 N   0  0  0  0  0  0  0  0  0  0  0  0
   53.8110    2.6442    1.1759 C   0  0  0  0  0  0  0  0  0  0  0  0
   54.5836    1.4053    1.6877 C   0  0  0  0  0  0  0  0  0  0  0  0
   56.0056    1.6735    2.2207 C   0  0  0  0  0  0  0  0  0  0  0  0
   56.9399    2.0818    1.1758 N   0  0  0  0  0  0  0  0  0  0  0  0
  1  2  1  0  0  0  0
  2  3  1  0  0  0  0
  3  4  1  0  0  0  0
  4  5  1  0  0  0  0
  5  6  1  0  0  0  0
  6  7  1  0  0  0  0
  7  8  1  0  0  0  0
  8  9  1  0  0  0  0
  9 10  1  0  0  0  0
 10 11  1  0  0  0  0
 11 12  1  0  0  0  0
 12 13  1  0  0  0  0
 13 14  1  0  0  0  0
M  END
>  <CHROM.1>
61.40672374,172.78582941,-84.92149140,50.55156620,-179.63912437,176.87067851
51.54412185,80.08609667,-177.25415573,-178.76349978,-67.90465709,52.52858032
1.70683247,-1.59526885,-2.79635494,-0.91362788,0.08638700

>  <Name>
ligand

>  <RI>
0

>  <Rbt.Current_Directory>
/home/itssahil/PROJECTS/Mol_Feturizer/New_Systems/rnas/4E8Q

>  <Rbt.Executable>
rbdock ($Id: //depot/dev/client3/rdock/2013.1/src/exe/rbdock.cxx#4 $)

>  <Rbt.Library>
libRbt.so (2013.1, Build901 2013/11/27)

>  <Rbt.Parameter_File>
/export/apps/rDock/src/rDock_2013.1_src/data/scripts/dock_solv.prm

>  <Rbt.Receptor>
prm/pocket_docking_2.prm

>  <SCORE>
-5.20412

>  <SCORE.INTER>
5.96979

>  <SCORE.INTER.CONST>
1

>  <SCORE.INTER.POLAR>
0

>  <SCORE.INTER.ROT>
11

>  <SCORE.INTER.SOLV>
7.26284

>  <SCORE.INTER.VDW>
-9.37442

>  <SCORE.INTER.norm>
0.426413

>  <SCORE.INTRA>
-11.2184

>  <SCORE.INTRA.DIHEDRAL>
-24.3496

>  <SCORE.INTRA.DIHEDRAL.0>
25.9209

>  <SCORE.INTRA.POLAR>
0

>  <SCORE.INTRA.POLAR.0>
0

>  <SCORE.INTRA.REPUL>
0

>  <SCORE.INTRA.REPUL.0>
0

>  <SCORE.INTRA.SOLV>
-0.396259

>  <SCORE.INTRA.SOLV.lig_0>
-47.4815

>  <SCORE.INTRA.VDW>
1.1545

>  <SCORE.INTRA.VDW.0>
-1.57492

>  <SCORE.INTRA.norm>
-0.801318

>  <SCORE.RESTR>
0.0445366

>  <SCORE.RESTR.CAVITY>
0.0445366

>  <SCORE.RESTR.norm>
0.00318119

>  <SCORE.SYSTEM>
0

>  <SCORE.SYSTEM.CONST>
0

>  <SCORE.SYSTEM.DIHEDRAL>
0

>  <SCORE.SYSTEM.SOLV>
0

>  <SCORE.SYSTEM.norm>
0

>  <SCORE.heavy>
14

>  <SCORE.norm>
-0.371723

>  <RMSD>
1.914

$$$$
ligand
 OpenBabel11021811493D
libRbt.so/2013.1/901 2013/11/27
 14 13  0  0  0  0  0  0  0  0999 V2000
   57.7805    0.3210    2.8849 N   0  0  0  0  0  0  0  0  0  0  0  0
   56.6899    1.2863    2.9475 C   0  0  0  0  0  0  0  0  0  0  0  0
   55.5434    0.8846    1.9952 C   0  0  0  0  0  0  0  0  0  0  0  0
   54.3574    1.8692    1.9666 C   0  0  0  0  0  0  0  0  0  0  0  0
   53.1827    1.5153    1.1556 N   0  0  0  0  0  0  0  0  0  0  0  0
   52.7405    2.3731    0.0505 C   0  0  0  0  0  0  0  0  0  0  0  0
   51.4160    1.9639   -0.6004 C   0  0  0  0  0  0  0  0  0  0  0  0
   51.0818    2.7987   -1.8483 C   0  0  0  0  0  0  0  0  0  0  0  0
   51.9001    2.4161   -3.0919 C   0  0  0  0  0  0  0  0  0  0  0  0
   51.3116    1.3524   -3.9090 N   0  0  0  0  0  0  0  0  0  0  0  0
   51.3061   -0.0302   -3.4001 C   0  0  0  0  0  0  0  0  0  0  0  0
   49.9840   -0.8218   -3.5373 C   0  0  0  0  0  0  0  0  0  0  0  0
   49.5272   -1.1216   -4.9793 C   0  0  0  0  0  0  0  0  0  0  0  0
   49.4490    0.0737   -5.8140 N   0  0  0  0  0  0  0  0  0  0  0  0
  1  2  1  0  0  0  0
  2  3  1  0  0  0  0
  3  4  1  0  0  0  0
  4  5  1  0  0  0  0
  5  6  1  0  0  0  0
  6  7  1  0  0  0  0
  7  8  1  0  0  0  0
  8  9  1  0  0  0  0
  9 10  1  0  0  0  0
 10 11  1  0  0  0  0
 11 12  1  0  0  0  0
 12 13  1  0  0  0  0
 13 14  1  0  0  0  0
M  END
>  <CHROM.1>
-178.50054225,-175.89023083,-119.86904377,-173.34820662,-173.54436782,75.75686036
88.35303078,-71.37271050,134.27137647,65.19920847,-53.48772200,52.59058281
1.06301756,-1.15561430,-0.50789340,0.74062291,-2.59552095

>  <Name>
ligand

>  <RI>
0

>  <Rbt.Current_Directory>
/home/itssahil/PROJECTS/Mol_Feturizer/New_Systems/rnas/4E8Q

>  <Rbt.Executable>
rbdock ($Id: //depot/dev/client3/rdock/2013.1/src/exe/rbdock.cxx#4 $)

>  <Rbt.Library>
libRbt.so (2013.1, Build901 2013/11/27)

>  <Rbt.Parameter_File>
/export/apps/rDock/src/rDock_2013.1_src/data/scripts/dock_solv.prm

>  <Rbt.Receptor>
prm/pocket_docking_2.prm

>  <SCORE>
-6.76387

>  <SCORE.INTER>
2.06093

>  <SCORE.INTER.CONST>
1

>  <SCORE.INTER.POLAR>
0

>  <SCORE.INTER.ROT>
11

>  <SCORE.INTER.SOLV>
6.33024

>  <SCORE.INTER.VDW>
-11.6695

>  <SCORE.INTER.norm>
0.147209

>  <SCORE.INTRA>
-8.83354

>  <SCORE.INTRA.DIHEDRAL>
-19.5466

>  <SCORE.INTRA.DIHEDRAL.0>
25.9209

>  <SCORE.INTRA.POLAR>
0

>  <SCORE.INTRA.POLAR.0>
0

>  <SCORE.INTRA.REPUL>
0

>  <SCORE.INTRA.REPUL.0>
0

>  <SCORE.INTRA.SOLV>
0.989015

>  <SCORE.INTRA.SOLV.lig_0>
-47.4815

>  <SCORE.INTRA.VDW>
0.445274

>  <SCORE.INTRA.VDW.0>
-1.57492

>  <SCORE.INTRA.norm>
-0.630967

>  <SCORE.RESTR>
0.00874026

>  <SCORE.RESTR.CAVITY>
0.00874026

>  <SCORE.RESTR.norm>
0.000624305

>  <SCORE.SYSTEM>
0

>  <SCORE.SYSTEM.CONST>
0

>  <SCORE.SYSTEM.DIHEDRAL>
0

>  <SCORE.SYSTEM.SOLV>
0

>  <SCORE.SYSTEM.norm>
0

>  <SCORE.heavy>
14

>  <SCORE.norm>
-0.483134

>  <RMSD>
1.940

$$$$
ligand
 OpenBabel11021811493D
libRbt.so/2013.1/901 2013/11/27
 14 13  0  0  0  0  0  0  0  0999 V2000
   50.1100    0.1782   -6.5588 N   0  0  0  0  0  0  0  0  0  0  0  0
   51.2024    0.7169   -5.7578 C   0  0  0  0  0  0  0  0  0  0  0  0
   50.7476    0.9689   -4.3045 C   0  0  0  0  0  0  0  0  0  0  0  0
   51.7954    1.6678   -3.4156 C   0  0  0  0  0  0  0  0  0  0  0  0
   51.4348    1.9625   -2.0206 N   0  0  0  0  0  0  0  0  0  0  0  0
   52.2655    2.8464   -1.1953 C   0  0  0  0  0  0  0  0  0  0  0  0
   52.7567    2.2355    0.1204 C   0  0  0  0  0  0  0  0  0  0  0  0
   53.6762    3.1820    0.9108 C   0  0  0  0  0  0  0  0  0  0  0  0
   54.2809    2.5516    2.1755 C   0  0  0  0  0  0  0  0  0  0  0  0
   55.1194    1.3754    1.9327 N   0  0  0  0  0  0  0  0  0  0  0  0
   56.4008    1.5358    1.2236 C   0  0  0  0  0  0  0  0  0  0  0  0
   57.2003    0.2461    0.9216 C   0  0  0  0  0  0  0  0  0  0  0  0
   57.6609   -0.5621    2.1515 C   0  0  0  0  0  0  0  0  0  0  0  0
   58.6005    0.1690    2.9965 N   0  0  0  0  0  0  0  0  0  0  0  0
  1  2  1  0  0  0  0
  2  3  1  0  0  0  0
  3  4  1  0  0  0  0
  4  5  1  0  0  0  0
  5  6  1  0  0  0  0
  6  7  1  0  0  0  0
  7  8  1  0  0  0  0
  8  9  1  0  0  0  0
  9 10  1  0  0  0  0
 10 11  1  0  0  0  0
 11 12  1  0  0  0  0
 12 13  1  0  0  0  0
 13 14  1  0  0  0  0
M  END
>  <CHROM.1>
-174.28964288,179.15044549,-168.06330301,-124.31996188,177.26390418,-175.02277337
60.66790959,67.45991299,-176.39098613,-61.87863428,-63.60292713,53.80366977
1.36261229,-0.77280602,-2.47772461,-0.58435492,0.99362565

>  <Name>
ligand

>  <RI>
0

>  <Rbt.Current_Directory>
/home/itssahil/PROJECTS/Mol_Feturizer/New_Systems/rnas/4E8Q

>  <Rbt.Executable>
rbdock ($Id: //depot/dev/client3/rdock/2013.1/src/exe/rbdock.cxx#4 $)

>  <Rbt.Library>
libRbt.so (2013.1, Build901 2013/11/27)

>  <Rbt.Parameter_File>
/export/apps/rDock/src/rDock_2013.1_src/data/scripts/dock_solv.prm

>  <Rbt.Receptor>
prm/pocket_docking_2.prm

>  <SCORE>
-6.49876

>  <SCORE.INTER>
5.23707

>  <SCORE.INTER.CONST>
1

>  <SCORE.INTER.POLAR>
0

>  <SCORE.INTER.ROT>
11

>  <SCORE.INTER.SOLV>
5.6462

>  <SCORE.INTER.VDW>
-9.32402

>  <SCORE.INTER.norm>
0.374076

>  <SCORE.INTRA>
-11.7358

>  <SCORE.INTRA.DIHEDRAL>
-24.2461

>  <SCORE.INTRA.DIHEDRAL.0>
25.9209

>  <SCORE.INTRA.POLAR>
0

>  <SCORE.INTRA.POLAR.0>
0

>  <SCORE.INTRA.REPUL>
0

>  <SCORE.INTRA.REPUL.0>
0

>  <SCORE.INTRA.SOLV>
-0.236076

>  <SCORE.INTRA.SOLV.lig_0>
-47.4815

>  <SCORE.INTRA.VDW>
0.50527

>  <SCORE.INTRA.VDW.0>
-1.57492

>  <SCORE.INTRA.norm>
-0.838273

>  <SCORE.RESTR>
0

>  <SCORE.RESTR.CAVITY>
0

>  <SCORE.RESTR.norm>
0

>  <SCORE.SYSTEM>
0

>  <SCORE.SYSTEM.CONST>
0

>  <SCORE.SYSTEM.DIHEDRAL>
0

>  <SCORE.SYSTEM.SOLV>
0

>  <SCORE.SYSTEM.norm>
0

>  <SCORE.heavy>
14

>  <SCORE.norm>
-0.464197

>  <RMSD>
1.972

$$$$
ligand
 OpenBabel11021811493D
libRbt.so/2013.1/901 2013/11/27
 14 13  0  0  0  0  0  0  0  0999 V2000
   58.8334   -0.1317    2.7221 N   0  0  0  0  0  0  0  0  0  0  0  0
   58.1336   -0.5667    1.5195 C   0  0  0  0  0  0  0  0  0  0  0  0
   57.1357    0.5101    1.0429 C   0  0  0  0  0  0  0  0  0  0  0  0
   55.9918    0.8087    2.0325 C   0  0  0  0  0  0  0  0  0  0  0  0
   55.0421    1.8784    1.6912 N   0  0  0  0  0  0  0  0  0  0  0  0
   53.6450    1.5731    1.3634 C   0  0  0  0  0  0  0  0  0  0  0  0
   53.0305    2.4421    0.2622 C   0  0  0  0  0  0  0  0  0  0  0  0
   51.5786    2.0531   -0.0641 C   0  0  0  0  0  0  0  0  0  0  0  0
   51.0121    2.7492   -1.3119 C   0  0  0  0  0  0  0  0  0  0  0  0
   51.6156    2.3247   -2.5772 N   0  0  0  0  0  0  0  0  0  0  0  0
   50.8260    1.5094   -3.5165 C   0  0  0  0  0  0  0  0  0  0  0  0
   50.9786   -0.0265   -3.4100 C   0  0  0  0  0  0  0  0  0  0  0  0
   49.9057   -0.8603   -4.1393 C   0  0  0  0  0  0  0  0  0  0  0  0
   49.7971   -0.5359   -5.5586 N   0  0  0  0  0  0  0  0  0  0  0  0
  1  2  1  0  0  0  0
  2  3  1  0  0  0  0
  3  4  1  0  0  0  0
  4  5  1  0  0  0  0
  5  6  1  0  0  0  0
  6  7  1  0  0  0  0
  7  8  1  0  0  0  0
  8  9  1  0  0  0  0
  9 10  1  0  0  0  0
 10 11  1  0  0  0  0
 11 12  1  0  0  0  0
 12 13  1  0  0  0  0
 13 14  1  0  0  0  0
M  END
>  <CHROM.1>
-63.43356484,176.45276155,111.74313019,-143.03060493,178.49416862,-170.63963995
68.66798729,109.13196958,-93.46528892,165.31497759,55.82936794,53.39451373
0.98058045,-0.71018667,-0.47208140,0.53683724,-2.33666097

>  <Name>
ligand

>  <RI>
0

>  <Rbt.Current_Directory>
/home/itssahil/PROJECTS/Mol_Feturizer/New_Systems/rnas/4E8Q

>  <Rbt.Executable>
rbdock ($Id: //depot/dev/client3/rdock/2013.1/src/exe/rbdock.cxx#4 $)

>  <Rbt.Library>
libRbt.so (2013.1, Build901 2013/11/27)

>  <Rbt.Parameter_File>
/export/apps/rDock/src/rDock_2013.1_src/data/scripts/dock_solv.prm

>  <Rbt.Receptor>
prm/pocket_docking_2.prm

>  <SCORE>
-9.03909

>  <SCORE.INTER>
1.12802

>  <SCORE.INTER.CONST>
1

>  <SCORE.INTER.POLAR>
0

>  <SCORE.INTER.ROT>
11

>  <SCORE.INTER.SOLV>
7.84221

>  <SCORE.INTER.VDW>
-12.7954

>  <SCORE.INTER.norm>
0.0805729

>  <SCORE.INTRA>
-10.1671

>  <SCORE.INTRA.DIHEDRAL>
-20.5661

>  <SCORE.INTRA.DIHEDRAL.0>
25.9209

>  <SCORE.INTRA.POLAR>
0

>  <SCORE.INTRA.POLAR.0>
0

>  <SCORE.INTRA.REPUL>
0

>  <SCORE.INTRA.REPUL.0>
0

>  <SCORE.INTRA.SOLV>
-0.379142

>  <SCORE.INTRA.SOLV.lig_0>
-47.4815

>  <SCORE.INTRA.VDW>
0.305508

>  <SCORE.INTRA.VDW.0>
-1.57492

>  <SCORE.INTRA.norm>
-0.726223

>  <SCORE.RESTR>
0

>  <SCORE.RESTR.CAVITY>
0

>  <SCORE.RESTR.norm>
0

>  <SCORE.SYSTEM>
0

>  <SCORE.SYSTEM.CONST>
0

>  <SCORE.SYSTEM.DIHEDRAL>
0

>  <SCORE.SYSTEM.SOLV>
0

>  <SCORE.SYSTEM.norm>
0

>  <SCORE.heavy>
14

>  <SCORE.norm>
-0.64565

>  <RMSD>
2.000

$$$$
ligand
 OpenBabel11021811493D
libRbt.so/2013.1/901 2013/11/27
 14 13  0  0  0  0  0  0  0  0999 V2000
   49.7708   -0.7424   -5.5658 N   0  0  0  0  0  0  0  0  0  0  0  0
   49.5895   -1.0294   -4.1480 C   0  0  0  0  0  0  0  0  0  0  0  0
   50.6867   -0.3474   -3.3034 C   0  0  0  0  0  0  0  0  0  0  0  0
   50.7605    1.1842   -3.4621 C   0  0  0  0  0  0  0  0  0  0  0  0
   51.5557    1.9444   -2.4860 N   0  0  0  0  0  0  0  0  0  0  0  0
   51.0056    2.2957   -1.1720 C   0  0  0  0  0  0  0  0  0  0  0  0
   51.9326    2.0207    0.0156 C   0  0  0  0  0  0  0  0  0  0  0  0
   53.0927    3.0261    0.1121 C   0  0  0  0  0  0  0  0  0  0  0  0
   54.0330    2.7807    1.3029 C   0  0  0  0  0  0  0  0  0  0  0  0
   54.6453    1.4505    1.3359 N   0  0  0  0  0  0  0  0  0  0  0  0
   56.1016    1.3302    1.5235 C   0  0  0  0  0  0  0  0  0  0  0  0
   56.7038   -0.0922    1.4366 C   0  0  0  0  0  0  0  0  0  0  0  0
   58.2270   -0.1913    1.6558 C   0  0  0  0  0  0  0  0  0  0  0  0
   58.6442    0.2600    2.9801 N   0  0  0  0  0  0  0  0  0  0  0  0
  1  2  1  0  0  0  0
  2  3  1  0  0  0  0
  3  4  1  0  0  0  0
  4  5  1  0  0  0  0
  5  6  1  0  0  0  0
  6  7  1  0  0  0  0
  7  8  1  0  0  0  0
  8  9  1  0  0  0  0
  9 10  1  0  0  0  0
 10 11  1  0  0  0  0
 11 12  1  0  0  0  0
 12 13  1  0  0  0  0
 13 14  1  0  0  0  0
M  END
>  <CHROM.1>
57.97745503,166.47696196,-81.24664977,133.11962274,73.66266725,179.51582302
57.46769841,130.23496036,-175.24907804,-179.19378141,61.56260130,53.33907913
0.99223733,-0.69809220,-2.68168250,-0.55541216,0.66967686

>  <Name>
ligand

>  <RI>
0

>  <Rbt.Current_Directory>
/home/itssahil/PROJECTS/Mol_Feturizer/New_Systems/rnas/4E8Q

>  <Rbt.Executable>
rbdock ($Id: //depot/dev/client3/rdock/2013.1/src/exe/rbdock.cxx#4 $)

>  <Rbt.Library>
libRbt.so (2013.1, Build901 2013/11/27)

>  <Rbt.Parameter_File>
/export/apps/rDock/src/rDock_2013.1_src/data/scripts/dock_solv.prm

>  <Rbt.Receptor>
prm/pocket_docking_2.prm

>  <SCORE>
-8.5609

>  <SCORE.INTER>
1.99237

>  <SCORE.INTER.CONST>
1

>  <SCORE.INTER.POLAR>
0

>  <SCORE.INTER.ROT>
11

>  <SCORE.INTER.SOLV>
8.00012

>  <SCORE.INTER.VDW>
-12.2718

>  <SCORE.INTER.norm>
0.142312

>  <SCORE.INTRA>
-10.5706

>  <SCORE.INTRA.DIHEDRAL>
-21.9957

>  <SCORE.INTRA.DIHEDRAL.0>
25.9209

>  <SCORE.INTRA.POLAR>
0

>  <SCORE.INTRA.POLAR.0>
0

>  <SCORE.INTRA.REPUL>
0

>  <SCORE.INTRA.REPUL.0>
0

>  <SCORE.INTRA.SOLV>
-0.0453037

>  <SCORE.INTRA.SOLV.lig_0>
-47.4815

>  <SCORE.INTRA.VDW>
0.449929

>  <SCORE.INTRA.VDW.0>
-1.57492

>  <SCORE.INTRA.norm>
-0.75504

>  <SCORE.RESTR>
0.0172895

>  <SCORE.RESTR.CAVITY>
0.0172895

>  <SCORE.RESTR.norm>
0.00123496

>  <SCORE.SYSTEM>
0

>  <SCORE.SYSTEM.CONST>
0

>  <SCORE.SYSTEM.DIHEDRAL>
0

>  <SCORE.SYSTEM.SOLV>
0

>  <SCORE.SYSTEM.norm>
0

>  <SCORE.heavy>
14

>  <SCORE.norm>
-0.611493

>  <RMSD>
2.008

$$$$
ligand
 OpenBabel11021811493D
libRbt.so/2013.1/901 2013/11/27
 14 13  0  0  0  0  0  0  0  0999 V2000
   49.0210   -0.5555   -4.4390 N   0  0  0  0  0  0  0  0  0  0  0  0
   50.4490   -0.5804   -4.7315 C   0  0  0  0  0  0  0  0  0  0  0  0
   51.2523    0.1198   -3.6148 C   0  0  0  0  0  0  0  0  0  0  0  0
   50.8725    1.5951   -3.3787 C   0  0  0  0  0  0  0  0  0  0  0  0
   51.6041    2.3419   -2.3444 N   0  0  0  0  0  0  0  0  0  0  0  0
   51.8874    1.7415   -1.0360 C   0  0  0  0  0  0  0  0  0  0  0  0
   52.8350    2.5470   -0.1424 C   0  0  0  0  0  0  0  0  0  0  0  0
   53.3305    1.7477    1.0747 C   0  0  0  0  0  0  0  0  0  0  0  0
   54.3392    2.5075    1.9510 C   0  0  0  0  0  0  0  0  0  0  0  0
   54.9392    1.7121    3.0246 N   0  0  0  0  0  0  0  0  0  0  0  0
   55.9452    0.6891    2.6900 C   0  0  0  0  0  0  0  0  0  0  0  0
   57.2305    1.1768    1.9802 C   0  0  0  0  0  0  0  0  0  0  0  0
   58.3066    0.1018    1.7262 C   0  0  0  0  0  0  0  0  0  0  0  0
   58.9197   -0.3943    2.9548 N   0  0  0  0  0  0  0  0  0  0  0  0
  1  2  1  0  0  0  0
  2  3  1  0  0  0  0
  3  4  1  0  0  0  0
  4  5  1  0  0  0  0
  5  6  1  0  0  0  0
  6  7  1  0  0  0  0
  7  8  1  0  0  0  0
  8  9  1  0  0  0  0
  9 10  1  0  0  0  0
 10 11  1  0  0  0  0
 11 12  1  0  0  0  0
 12 13  1  0  0  0  0
 13 14  1  0  0  0  0
M  END
>  <CHROM.1>
-59.02479671,-179.14190595,-43.81370021,171.07400173,-167.85980113,177.06919959
-173.28165993,73.14070693,59.95136379,176.07349893,-67.66456184,53.63800718
1.05369860,-0.30614167,-2.58124382,-0.53290584,0.84677919

>  <Name>
ligand

>  <RI>
0

>  <Rbt.Current_Directory>
/home/itssahil/PROJECTS/Mol_Feturizer/New_Systems/rnas/4E8Q

>  <Rbt.Executable>
rbdock ($Id: //depot/dev/client3/rdock/2013.1/src/exe/rbdock.cxx#4 $)

>  <Rbt.Library>
libRbt.so (2013.1, Build901 2013/11/27)

>  <Rbt.Parameter_File>
/export/apps/rDock/src/rDock_2013.1_src/data/scripts/dock_solv.prm

>  <Rbt.Receptor>
prm/pocket_docking_2.prm

>  <SCORE>
-7.56004

>  <SCORE.INTER>
3.67197

>  <SCORE.INTER.CONST>
1

>  <SCORE.INTER.POLAR>
0

>  <SCORE.INTER.ROT>
11

>  <SCORE.INTER.SOLV>
6.97294

>  <SCORE.INTER.VDW>
-10.8097

>  <SCORE.INTER.norm>
0.262283

>  <SCORE.INTRA>
-11.2412

>  <SCORE.INTRA.DIHEDRAL>
-24.4893

>  <SCORE.INTRA.DIHEDRAL.0>
25.9209

>  <SCORE.INTRA.POLAR>
0

>  <SCORE.INTRA.POLAR.0>
0

>  <SCORE.INTRA.REPUL>
0

>  <SCORE.INTRA.REPUL.0>
0

>  <SCORE.INTRA.SOLV>
-0.767894

>  <SCORE.INTRA.SOLV.lig_0>
-47.4815

>  <SCORE.INTRA.VDW>
1.38741

>  <SCORE.INTRA.VDW.0>
-1.57492

>  <SCORE.INTRA.norm>
-0.802942

>  <SCORE.RESTR>
0.00918868

>  <SCORE.RESTR.CAVITY>
0.00918868

>  <SCORE.RESTR.norm>
0.000656335

>  <SCORE.SYSTEM>
0

>  <SCORE.SYSTEM.CONST>
0

>  <SCORE.SYSTEM.DIHEDRAL>
0

>  <SCORE.SYSTEM.SOLV>
0

>  <SCORE.SYSTEM.norm>
0

>  <SCORE.heavy>
14

>  <SCORE.norm>
-0.540003

>  <RMSD>
2.060

$$$$
ligand
 OpenBabel11021811493D
libRbt.so/2013.1/901 2013/11/27
 14 13  0  0  0  0  0  0  0  0999 V2000
   59.0112   -0.2864    2.6367 N   0  0  0  0  0  0  0  0  0  0  0  0
   58.1585   -0.4011    1.4598 C   0  0  0  0  0  0  0  0  0  0  0  0
   56.6898   -0.0810    1.8105 C   0  0  0  0  0  0  0  0  0  0  0  0
   56.4375    1.3742    2.2527 C   0  0  0  0  0  0  0  0  0  0  0  0
   55.0995    1.7242    2.7527 N   0  0  0  0  0  0  0  0  0  0  0  0
   53.8949    1.4002    1.9804 C   0  0  0  0  0  0  0  0  0  0  0  0
   53.5968    2.3460    0.8133 C   0  0  0  0  0  0  0  0  0  0  0  0
   52.3630    1.9193   -0.0000 C   0  0  0  0  0  0  0  0  0  0  0  0
   52.0844    2.8080   -1.2227 C   0  0  0  0  0  0  0  0  0  0  0  0
   50.9078    2.4222   -2.0051 N   0  0  0  0  0  0  0  0  0  0  0  0
   51.0918    1.8200   -3.3370 C   0  0  0  0  0  0  0  0  0  0  0  0
   50.8354    0.2992   -3.4595 C   0  0  0  0  0  0  0  0  0  0  0  0
   50.9694   -0.2926   -4.8772 C   0  0  0  0  0  0  0  0  0  0  0  0
   50.0328    0.2933   -5.8317 N   0  0  0  0  0  0  0  0  0  0  0  0
  1  2  1  0  0  0  0
  2  3  1  0  0  0  0
  3  4  1  0  0  0  0
  4  5  1  0  0  0  0
  5  6  1  0  0  0  0
  6  7  1  0  0  0  0
  7  8  1  0  0  0  0
  8  9  1  0  0  0  0
  9 10  1  0  0  0  0
 10 11  1  0  0  0  0
 11 12  1  0  0  0  0
 12 13  1  0  0  0  0
 13 14  1  0  0  0  0
M  END
>  <CHROM.1>
65.00966139,-173.07085859,-51.75870633,-78.56181871,177.23438295,-176.90079614
-179.62405285,-108.79847623,105.86174123,177.18190971,-60.58089238,53.65516098
1.09612689,-0.50190341,-0.58765653,0.54295496,-2.16028616

>  <Name>
ligand

>  <RI>
0

>  <Rbt.Current_Directory>
/home/itssahil/PROJECTS/Mol_Feturizer/New_Systems/rnas/4E8Q

>  <Rbt.Executable>
rbdock ($Id: //depot/dev/client3/rdock/2013.1/src/exe/rbdock.cxx#4 $)

>  <Rbt.Library>
libRbt.so (2013.1, Build901 2013/11/27)

>  <Rbt.Parameter_File>
/export/apps/rDock/src/rDock_2013.1_src/data/scripts/dock_solv.prm

>  <Rbt.Receptor>
prm/pocket_docking_2.prm

>  <SCORE>
-7.72065

>  <SCORE.INTER>
3.43117

>  <SCORE.INTER.CONST>
1

>  <SCORE.INTER.POLAR>
0

>  <SCORE.INTER.ROT>
11

>  <SCORE.INTER.SOLV>
7.33735

>  <SCORE.INTER.VDW>
-11.0917

>  <SCORE.INTER.norm>
0.245083

>  <SCORE.INTRA>
-11.1518

>  <SCORE.INTRA.DIHEDRAL>
-23.0865

>  <SCORE.INTRA.DIHEDRAL.0>
25.9209

>  <SCORE.INTRA.POLAR>
0

>  <SCORE.INTRA.POLAR.0>
0

>  <SCORE.INTRA.REPUL>
0

>  <SCORE.INTRA.REPUL.0>
0

>  <SCORE.INTRA.SOLV>
-0.774033

>  <SCORE.INTRA.SOLV.lig_0>
-47.4815

>  <SCORE.INTRA.VDW>
0.778441

>  <SCORE.INTRA.VDW.0>
-1.57492

>  <SCORE.INTRA.norm>
-0.796559

>  <SCORE.RESTR>
0

>  <SCORE.RESTR.CAVITY>
0

>  <SCORE.RESTR.norm>
0

>  <SCORE.SYSTEM>
0

>  <SCORE.SYSTEM.CONST>
0

>  <SCORE.SYSTEM.DIHEDRAL>
0

>  <SCORE.SYSTEM.SOLV>
0

>  <SCORE.SYSTEM.norm>
0

>  <SCORE.heavy>
14

>  <SCORE.norm>
-0.551475

>  <RMSD>
2.060

$$$$
ligand
 OpenBabel11021811493D
libRbt.so/2013.1/901 2013/11/27
 14 13  0  0  0  0  0  0  0  0999 V2000
   56.5647    2.8308    1.1977 N   0  0  0  0  0  0  0  0  0  0  0  0
   55.6805    2.3937    2.2711 C   0  0  0  0  0  0  0  0  0  0  0  0
   54.4306    1.6888    1.7025 C   0  0  0  0  0  0  0  0  0  0  0  0
   53.5357    2.5812    0.8197 C   0  0  0  0  0  0  0  0  0  0  0  0
   52.3401    1.9779    0.2119 N   0  0  0  0  0  0  0  0  0  0  0  0
   51.3087    2.8111   -0.4162 C   0  0  0  0  0  0  0  0  0  0  0  0
   51.2496    2.7309   -1.9444 C   0  0  0  0  0  0  0  0  0  0  0  0
   50.1173    3.5827   -2.5430 C   0  0  0  0  0  0  0  0  0  0  0  0
   50.0021    3.4807   -4.0723 C   0  0  0  0  0  0  0  0  0  0  0  0
   49.7263    2.1338   -4.5774 N   0  0  0  0  0  0  0  0  0  0  0  0
   50.0817    1.7966   -5.9668 C   0  0  0  0  0  0  0  0  0  0  0  0
   49.6461    0.4047   -6.4830 C   0  0  0  0  0  0  0  0  0  0  0  0
   50.0200   -0.7919   -5.5850 C   0  0  0  0  0  0  0  0  0  0  0  0
   49.3649   -0.7541   -4.2808 N   0  0  0  0  0  0  0  0  0  0  0  0
  1  2  1  0  0  0  0
  2  3  1  0  0  0  0
  3  4  1  0  0  0  0
  4  5  1  0  0  0  0
  5  6  1  0  0  0  0
  6  7  1  0  0  0  0
  7  8  1  0  0  0  0
  8  9  1  0  0  0  0
  9 10  1  0  0  0  0
 10 11  1  0  0  0  0
 11 12  1  0  0  0  0
 12 13  1  0  0  0  0
 13 14  1  0  0  0  0
M  END
>  <CHROM.1>
-62.52305691,178.58260157,167.92698979,108.51892684,177.83646570,-177.88935284
60.71966404,-157.31376935,-174.40595305,-50.52440287,63.81735422,51.71905341
1.91921301,-2.11911828,-0.56899433,0.78920860,-2.62566394

>  <Name>
ligand

>  <RI>
0

>  <Rbt.Current_Directory>
/home/itssahil/PROJECTS/Mol_Feturizer/New_Systems/rnas/4E8Q

>  <Rbt.Executable>
rbdock ($Id: //depot/dev/client3/rdock/2013.1/src/exe/rbdock.cxx#4 $)

>  <Rbt.Library>
libRbt.so (2013.1, Build901 2013/11/27)

>  <Rbt.Parameter_File>
/export/apps/rDock/src/rDock_2013.1_src/data/scripts/dock_solv.prm

>  <Rbt.Receptor>
prm/pocket_docking_2.prm

>  <SCORE>
-3.89284

>  <SCORE.INTER>
6.93553

>  <SCORE.INTER.CONST>
1

>  <SCORE.INTER.POLAR>
0

>  <SCORE.INTER.ROT>
11

>  <SCORE.INTER.SOLV>
6.11216

>  <SCORE.INTER.VDW>
-8.34703

>  <SCORE.INTER.norm>
0.495395

>  <SCORE.INTRA>
-10.8326

>  <SCORE.INTRA.DIHEDRAL>
-23.8511

>  <SCORE.INTRA.DIHEDRAL.0>
25.9209

>  <SCORE.INTRA.POLAR>
0

>  <SCORE.INTRA.POLAR.0>
0

>  <SCORE.INTRA.REPUL>
0

>  <SCORE.INTRA.REPUL.0>
0

>  <SCORE.INTRA.SOLV>
1.75258

>  <SCORE.INTRA.SOLV.lig_0>
-47.4815

>  <SCORE.INTRA.VDW>
0.216638

>  <SCORE.INTRA.VDW.0>
-1.57492

>  <SCORE.INTRA.norm>
-0.773759

>  <SCORE.RESTR>
0.00425396

>  <SCORE.RESTR.CAVITY>
0.00425396

>  <SCORE.RESTR.norm>
0.000303854

>  <SCORE.SYSTEM>
0

>  <SCORE.SYSTEM.CONST>
0

>  <SCORE.SYSTEM.DIHEDRAL>
0

>  <SCORE.SYSTEM.SOLV>
0

>  <SCORE.SYSTEM.norm>
0

>  <SCORE.heavy>
14

>  <SCORE.norm>
-0.27806

>  <RMSD>
2.090

$$$$
ligand
 OpenBabel11021811493D
libRbt.so/2013.1/901 2013/11/27
 14 13  0  0  0  0  0  0  0  0999 V2000
   56.1595    0.5009    2.7511 N   0  0  0  0  0  0  0  0  0  0  0  0
   57.3290    1.0033    2.0404 C   0  0  0  0  0  0  0  0  0  0  0  0
   56.9243    2.0632    0.9938 C   0  0  0  0  0  0  0  0  0  0  0  0
   56.2612    3.3251    1.5808 C   0  0  0  0  0  0  0  0  0  0  0  0
   54.9372    3.1852    2.2054 N   0  0  0  0  0  0  0  0  0  0  0  0
   53.7145    3.1879    1.3945 C   0  0  0  0  0  0  0  0  0  0  0  0
   53.3051    1.8242    0.8306 C   0  0  0  0  0  0  0  0  0  0  0  0
   52.1205    1.9139   -0.1464 C   0  0  0  0  0  0  0  0  0  0  0  0
   52.4424    2.6628   -1.4495 C   0  0  0  0  0  0  0  0  0  0  0  0
   51.3465    2.7016   -2.4205 N   0  0  0  0  0  0  0  0  0  0  0  0
   51.1965    1.5981   -3.3850 C   0  0  0  0  0  0  0  0  0  0  0  0
   51.6629    1.8673   -4.8353 C   0  0  0  0  0  0  0  0  0  0  0  0
   50.9127    2.9866   -5.5853 C   0  0  0  0  0  0  0  0  0  0  0  0
   51.0236    4.2868   -4.9306 N   0  0  0  0  0  0  0  0  0  0  0  0
  1  2  1  0  0  0  0
  2  3  1  0  0  0  0
  3  4  1  0  0  0  0
  4  5  1  0  0  0  0
  5  6  1  0  0  0  0
  6  7  1  0  0  0  0
  7  8  1  0  0  0  0
  8  9  1  0  0  0  0
  9 10  1  0  0  0  0
 10 11  1  0  0  0  0
 11 12  1  0  0  0  0
 12 13  1  0  0  0  0
 13 14  1  0  0  0  0
M  END
>  <CHROM.1>
62.11085054,-66.98794717,-82.91097123,86.31421356,-173.02105862,66.57566810
177.13585319,-87.37348640,-103.28324790,-62.31435922,60.10195949,53.52406163
2.36465146,-0.78264403,-0.86892045,0.34241835,-1.71134658

>  <Name>
ligand

>  <RI>
0

>  <Rbt.Current_Directory>
/home/itssahil/PROJECTS/Mol_Feturizer/New_Systems/rnas/4E8Q

>  <Rbt.Executable>
rbdock ($Id: //depot/dev/client3/rdock/2013.1/src/exe/rbdock.cxx#4 $)

>  <Rbt.Library>
libRbt.so (2013.1, Build901 2013/11/27)

>  <Rbt.Parameter_File>
/export/apps/rDock/src/rDock_2013.1_src/data/scripts/dock_solv.prm

>  <Rbt.Receptor>
prm/pocket_docking_2.prm

>  <SCORE>
-0.853763

>  <SCORE.INTER>
7.97918

>  <SCORE.INTER.CONST>
1

>  <SCORE.INTER.POLAR>
0

>  <SCORE.INTER.ROT>
11

>  <SCORE.INTER.SOLV>
2.52878

>  <SCORE.INTER.VDW>
-6.45681

>  <SCORE.INTER.norm>
0.569941

>  <SCORE.INTRA>
-8.83429

>  <SCORE.INTRA.DIHEDRAL>
-22.9388

>  <SCORE.INTRA.DIHEDRAL.0>
25.9209

>  <SCORE.INTRA.POLAR>
0

>  <SCORE.INTRA.POLAR.0>
0

>  <SCORE.INTRA.REPUL>
0

>  <SCORE.INTRA.REPUL.0>
0

>  <SCORE.INTRA.SOLV>
4.5562

>  <SCORE.INTRA.SOLV.lig_0>
-47.4815

>  <SCORE.INTRA.VDW>
0.357012

>  <SCORE.INTRA.VDW.0>
-1.57492

>  <SCORE.INTRA.norm>
-0.63102

>  <SCORE.RESTR>
0.00134576

>  <SCORE.RESTR.CAVITY>
0.00134576

>  <SCORE.RESTR.norm>
9.6126e-05

>  <SCORE.SYSTEM>
0

>  <SCORE.SYSTEM.CONST>
0

>  <SCORE.SYSTEM.DIHEDRAL>
0

>  <SCORE.SYSTEM.SOLV>
0

>  <SCORE.SYSTEM.norm>
0

>  <SCORE.heavy>
14

>  <SCORE.norm>
-0.0609831

>  <RMSD>
2.174

$$$$
ligand
 OpenBabel11021811493D
libRbt.so/2013.1/901 2013/11/27
 14 13  0  0  0  0  0  0  0  0999 V2000
   59.0813   -0.5922    2.7890 N   0  0  0  0  0  0  0  0  0  0  0  0
   58.3960   -0.5030    1.5055 C   0  0  0  0  0  0  0  0  0  0  0  0
   57.1878    0.4538    1.5915 C   0  0  0  0  0  0  0  0  0  0  0  0
   57.5424    1.9026    1.9814 C   0  0  0  0  0  0  0  0  0  0  0  0
   56.4411    2.8596    2.1658 N   0  0  0  0  0  0  0  0  0  0  0  0
   55.8720    3.5866    1.0256 C   0  0  0  0  0  0  0  0  0  0  0  0
   54.4131    3.2508    0.7029 C   0  0  0  0  0  0  0  0  0  0  0  0
   53.8496    4.0916   -0.4553 C   0  0  0  0  0  0  0  0  0  0  0  0
   52.3740    3.8034   -0.7746 C   0  0  0  0  0  0  0  0  0  0  0  0
   52.1325    2.5311   -1.4590 N   0  0  0  0  0  0  0  0  0  0  0  0
   52.4843    2.3991   -2.8835 C   0  0  0  0  0  0  0  0  0  0  0  0
   51.4405    1.7214   -3.8027 C   0  0  0  0  0  0  0  0  0  0  0  0
   51.0605    0.2731   -3.4339 C   0  0  0  0  0  0  0  0  0  0  0  0
   49.9767   -0.2597   -4.2543 N   0  0  0  0  0  0  0  0  0  0  0  0
  1  2  1  0  0  0  0
  2  3  1  0  0  0  0
  3  4  1  0  0  0  0
  4  5  1  0  0  0  0
  5  6  1  0  0  0  0
  6  7  1  0  0  0  0
  7  8  1  0  0  0  0
  8  9  1  0  0  0  0
  9 10  1  0  0  0  0
 10 11  1  0  0  0  0
 11 12  1  0  0  0  0
 12 13  1  0  0  0  0
 13 14  1  0  0  0  0
M  END
>  <CHROM.1>
60.20450208,-176.34337187,-85.22264817,114.79588436,177.16269737,-178.35494361
-73.75125832,-74.12626865,-134.77271960,-59.85311305,174.16261012,54.44657890
1.82300298,-0.37876461,-0.16762881,0.65982016,-2.78071592

>  <Name>
ligand

>  <RI>
0

>  <Rbt.Current_Directory>
/home/itssahil/PROJECTS/Mol_Feturizer/New_Systems/rnas/4E8Q

>  <Rbt.Executable>
rbdock ($Id: //depot/dev/client3/rdock/2013.1/src/exe/rbdock.cxx#4 $)

>  <Rbt.Library>
libRbt.so (2013.1, Build901 2013/11/27)

>  <Rbt.Parameter_File>
/export/apps/rDock/src/rDock_2013.1_src/data/scripts/dock_solv.prm

>  <Rbt.Receptor>
prm/pocket_docking_2.prm

>  <SCORE>
-5.1493

>  <SCORE.INTER>
5.90419

>  <SCORE.INTER.CONST>
1

>  <SCORE.INTER.POLAR>
0

>  <SCORE.INTER.ROT>
11

>  <SCORE.INTER.SOLV>
6.52912

>  <SCORE.INTER.VDW>
-9.17358

>  <SCORE.INTER.norm>
0.421728

>  <SCORE.INTRA>
-11.0544

>  <SCORE.INTRA.DIHEDRAL>
-22.2001

>  <SCORE.INTRA.DIHEDRAL.0>
25.9209

>  <SCORE.INTRA.POLAR>
0

>  <SCORE.INTRA.POLAR.0>
0

>  <SCORE.INTRA.REPUL>
0

>  <SCORE.INTRA.REPUL.0>
0

>  <SCORE.INTRA.SOLV>
-0.826072

>  <SCORE.INTRA.SOLV.lig_0>
-47.4815

>  <SCORE.INTRA.VDW>
0.458694

>  <SCORE.INTRA.VDW.0>
-1.57492

>  <SCORE.INTRA.norm>
-0.789601

>  <SCORE.RESTR>
0.000915412

>  <SCORE.RESTR.CAVITY>
0.000915412

>  <SCORE.RESTR.norm>
6.53866e-05

>  <SCORE.SYSTEM>
0

>  <SCORE.SYSTEM.CONST>
0

>  <SCORE.SYSTEM.DIHEDRAL>
0

>  <SCORE.SYSTEM.SOLV>
0

>  <SCORE.SYSTEM.norm>
0

>  <SCORE.heavy>
14

>  <SCORE.norm>
-0.367807

>  <RMSD>
2.189

$$$$
ligand
 OpenBabel11021811493D
libRbt.so/2013.1/901 2013/11/27
 14 13  0  0  0  0  0  0  0  0999 V2000
   49.8404    0.3562   -5.5572 N   0  0  0  0  0  0  0  0  0  0  0  0
   50.4126    0.6323   -4.2451 C   0  0  0  0  0  0  0  0  0  0  0  0
   51.0887    2.0197   -4.2200 C   0  0  0  0  0  0  0  0  0  0  0  0
   51.7461    2.3896   -2.8755 C   0  0  0  0  0  0  0  0  0  0  0  0
   50.8967    2.4250   -1.6755 N   0  0  0  0  0  0  0  0  0  0  0  0
   51.4092    2.9410   -0.4012 C   0  0  0  0  0  0  0  0  0  0  0  0
   52.3968    2.0213    0.3228 C   0  0  0  0  0  0  0  0  0  0  0  0
   52.9282    2.6293    1.6319 C   0  0  0  0  0  0  0  0  0  0  0  0
   54.0131    1.7831    2.3170 C   0  0  0  0  0  0  0  0  0  0  0  0
   55.2279    1.5851    1.5230 N   0  0  0  0  0  0  0  0  0  0  0  0
   56.1541    0.4961    1.8791 C   0  0  0  0  0  0  0  0  0  0  0  0
   57.4570    0.3863    1.0522 C   0  0  0  0  0  0  0  0  0  0  0  0
   58.5088   -0.6078    1.5847 C   0  0  0  0  0  0  0  0  0  0  0  0
   59.0027   -0.2595    2.9137 N   0  0  0  0  0  0  0  0  0  0  0  0
  1  2  1  0  0  0  0
  2  3  1  0  0  0  0
  3  4  1  0  0  0  0
  4  5  1  0  0  0  0
  5  6  1  0  0  0  0
  6  7  1  0  0  0  0
  7  8  1  0  0  0  0
  8  9  1  0  0  0  0
  9 10  1  0  0  0  0
 10 11  1  0  0  0  0
 11 12  1  0  0  0  0
 12 13  1  0  0  0  0
 13 14  1  0  0  0  0
M  END
>  <CHROM.1>
-178.96613017,-58.89302777,-171.69078406,-73.52675775,178.47418049,-174.93790509
61.36505704,-162.10272583,-176.73276894,170.46530456,-61.98616621,53.64868770
1.34282281,-0.41061024,-2.58907593,-0.48812613,1.12978819

>  <Name>
ligand

>  <RI>
0

>  <Rbt.Current_Directory>
/home/itssahil/PROJECTS/Mol_Feturizer/New_Systems/rnas/4E8Q

>  <Rbt.Executable>
rbdock ($Id: //depot/dev/client3/rdock/2013.1/src/exe/rbdock.cxx#4 $)

>  <Rbt.Library>
libRbt.so (2013.1, Build901 2013/11/27)

>  <Rbt.Parameter_File>
/export/apps/rDock/src/rDock_2013.1_src/data/scripts/dock_solv.prm

>  <Rbt.Receptor>
prm/pocket_docking_2.prm

>  <SCORE>
-8.44382

>  <SCORE.INTER>
3.96816

>  <SCORE.INTER.CONST>
1

>  <SCORE.INTER.POLAR>
0

>  <SCORE.INTER.ROT>
11

>  <SCORE.INTER.SOLV>
7.53919

>  <SCORE.INTER.VDW>
-10.801

>  <SCORE.INTER.norm>
0.28344

>  <SCORE.INTRA>
-12.4197

>  <SCORE.INTRA.DIHEDRAL>
-24.9841

>  <SCORE.INTRA.DIHEDRAL.0>
25.9209

>  <SCORE.INTRA.POLAR>
0

>  <SCORE.INTRA.POLAR.0>
0

>  <SCORE.INTRA.REPUL>
0

>  <SCORE.INTRA.REPUL.0>
0

>  <SCORE.INTRA.SOLV>
-0.769362

>  <SCORE.INTRA.SOLV.lig_0>
-47.4815

>  <SCORE.INTRA.VDW>
0.456976

>  <SCORE.INTRA.VDW.0>
-1.57492

>  <SCORE.INTRA.norm>
-0.887124

>  <SCORE.RESTR>
0.00776186

>  <SCORE.RESTR.CAVITY>
0.00776186

>  <SCORE.RESTR.norm>
0.000554418

>  <SCORE.SYSTEM>
0

>  <SCORE.SYSTEM.CONST>
0

>  <SCORE.SYSTEM.DIHEDRAL>
0

>  <SCORE.SYSTEM.SOLV>
0

>  <SCORE.SYSTEM.norm>
0

>  <SCORE.heavy>
14

>  <SCORE.norm>
-0.60313

>  <RMSD>
2.204

$$$$
ligand
 OpenBabel11021811493D
libRbt.so/2013.1/901 2013/11/27
 14 13  0  0  0  0  0  0  0  0999 V2000
   58.3579    0.0446    2.3325 N   0  0  0  0  0  0  0  0  0  0  0  0
   57.4605    1.1917    2.2684 C   0  0  0  0  0  0  0  0  0  0  0  0
   56.9064    1.3784    0.8399 C   0  0  0  0  0  0  0  0  0  0  0  0
   55.9832    2.6005    0.6637 C   0  0  0  0  0  0  0  0  0  0  0  0
   54.7328    2.6414    1.4368 N   0  0  0  0  0  0  0  0  0  0  0  0
   53.5793    1.8200    1.0531 C   0  0  0  0  0  0  0  0  0  0  0  0
   52.6008    2.4866    0.0816 C   0  0  0  0  0  0  0  0  0  0  0  0
   51.3167    1.6663   -0.1281 C   0  0  0  0  0  0  0  0  0  0  0  0
   51.5141    0.4081   -0.9885 C   0  0  0  0  0  0  0  0  0  0  0  0
   51.7256    0.6680   -2.4144 N   0  0  0  0  0  0  0  0  0  0  0  0
   51.2783   -0.3273   -3.4042 C   0  0  0  0  0  0  0  0  0  0  0  0
   49.7576   -0.6009   -3.4843 C   0  0  0  0  0  0  0  0  0  0  0  0
   49.2972   -1.4989   -4.6503 C   0  0  0  0  0  0  0  0  0  0  0  0
   49.5043   -0.8865   -5.9593 N   0  0  0  0  0  0  0  0  0  0  0  0
  1  2  1  0  0  0  0
  2  3  1  0  0  0  0
  3  4  1  0  0  0  0
  4  5  1  0  0  0  0
  5  6  1  0  0  0  0
  6  7  1  0  0  0  0
  7  8  1  0  0  0  0
  8  9  1  0  0  0  0
  9 10  1  0  0  0  0
 10 11  1  0  0  0  0
 11 12  1  0  0  0  0
 12 13  1  0  0  0  0
 13 14  1  0  0  0  0
M  END
>  <CHROM.1>
-177.98078358,-62.18736728,-75.76675163,-90.21977219,-171.78506833,-73.41078251
-72.32342203,-149.92512753,63.66007873,172.03936702,-65.94455263,53.14372639
0.82809922,-0.88225196,-0.67086010,0.35217949,-2.32888010

>  <Name>
ligand

>  <RI>
0

>  <Rbt.Current_Directory>
/home/itssahil/PROJECTS/Mol_Feturizer/New_Systems/rnas/4E8Q

>  <Rbt.Executable>
rbdock ($Id: //depot/dev/client3/rdock/2013.1/src/exe/rbdock.cxx#4 $)

>  <Rbt.Library>
libRbt.so (2013.1, Build901 2013/11/27)

>  <Rbt.Parameter_File>
/export/apps/rDock/src/rDock_2013.1_src/data/scripts/dock_solv.prm

>  <Rbt.Receptor>
prm/pocket_docking_3.prm

>  <SCORE>
-10.333

>  <SCORE.INTER>
0.468476

>  <SCORE.INTER.CONST>
1

>  <SCORE.INTER.POLAR>
0

>  <SCORE.INTER.ROT>
11

>  <SCORE.INTER.SOLV>
8.76612

>  <SCORE.INTER.VDW>
-13.5431

>  <SCORE.INTER.norm>
0.0334625

>  <SCORE.INTRA>
-10.8015

>  <SCORE.INTRA.DIHEDRAL>
-22.5749

>  <SCORE.INTRA.DIHEDRAL.0>
25.9209

>  <SCORE.INTRA.POLAR>
0

>  <SCORE.INTRA.POLAR.0>
0

>  <SCORE.INTRA.REPUL>
0

>  <SCORE.INTRA.REPUL.0>
0

>  <SCORE.INTRA.SOLV>
-0.665008

>  <SCORE.INTRA.SOLV.lig_0>
-47.4815

>  <SCORE.INTRA.VDW>
0.818469

>  <SCORE.INTRA.VDW.0>
-1.57492

>  <SCORE.INTRA.norm>
-0.771536

>  <SCORE.RESTR>
0

>  <SCORE.RESTR.CAVITY>
0

>  <SCORE.RESTR.norm>
0

>  <SCORE.SYSTEM>
0

>  <SCORE.SYSTEM.CONST>
0

>  <SCORE.SYSTEM.DIHEDRAL>
0

>  <SCORE.SYSTEM.SOLV>
0

>  <SCORE.SYSTEM.norm>
0

>  <SCORE.heavy>
14

>  <SCORE.norm>
-0.738073

>  <RMSD>
2.350

$$$$
ligand
 OpenBabel11021811493D
libRbt.so/2013.1/901 2013/11/27
 14 13  0  0  0  0  0  0  0  0999 V2000
   50.5739    0.8400   -5.7820 N   0  0  0  0  0  0  0  0  0  0  0  0
   50.9084   -0.4638   -5.2220 C   0  0  0  0  0  0  0  0  0  0  0  0
   50.5490   -0.5278   -3.7223 C   0  0  0  0  0  0  0  0  0  0  0  0
   51.3669    0.4221   -2.8247 C   0  0  0  0  0  0  0  0  0  0  0  0
   51.0060    0.5128   -1.4019 N   0  0  0  0  0  0  0  0  0  0  0  0
   52.0234    0.7803   -0.3793 C   0  0  0  0  0  0  0  0  0  0  0  0
   52.4058    2.2539   -0.2123 C   0  0  0  0  0  0  0  0  0  0  0  0
   53.6314    2.4528    0.6956 C   0  0  0  0  0  0  0  0  0  0  0  0
   54.1287    3.9057    0.7622 C   0  0  0  0  0  0  0  0  0  0  0  0
   55.5281    4.0561    1.1677 N   0  0  0  0  0  0  0  0  0  0  0  0
   55.9326    3.6600    2.5278 C   0  0  0  0  0  0  0  0  0  0  0  0
   57.4175    3.8721    2.9066 C   0  0  0  0  0  0  0  0  0  0  0  0
   58.4434    3.0775    2.0734 C   0  0  0  0  0  0  0  0  0  0  0  0
   58.2781    1.6317    2.1914 N   0  0  0  0  0  0  0  0  0  0  0  0
  1  2  1  0  0  0  0
  2  3  1  0  0  0  0
  3  4  1  0  0  0  0
  4  5  1  0  0  0  0
  5  6  1  0  0  0  0
  6  7  1  0  0  0  0
  7  8  1  0  0  0  0
  8  9  1  0  0  0  0
  9 10  1  0  0  0  0
 10 11  1  0  0  0  0
 11 12  1  0  0  0  0
 12 13  1  0  0  0  0
 13 14  1  0  0  0  0
M  END
>  <CHROM.1>
-65.34082193,174.59981749,148.31679766,81.45307914,-170.42303923,173.85470018
-157.72606071,-65.33574664,-178.68363139,-62.16300564,-61.51362503,53.72803434
1.89100781,-0.51550796,-2.31442883,-0.16331746,0.95448821

>  <Name>
ligand

>  <RI>
0

>  <Rbt.Current_Directory>
/home/itssahil/PROJECTS/Mol_Feturizer/New_Systems/rnas/4E8Q

>  <Rbt.Executable>
rbdock ($Id: //depot/dev/client3/rdock/2013.1/src/exe/rbdock.cxx#4 $)

>  <Rbt.Library>
libRbt.so (2013.1, Build901 2013/11/27)

>  <Rbt.Parameter_File>
/export/apps/rDock/src/rDock_2013.1_src/data/scripts/dock_solv.prm

>  <Rbt.Receptor>
prm/pocket_docking_3.prm

>  <SCORE>
-7.61644

>  <SCORE.INTER>
2.82574

>  <SCORE.INTER.CONST>
1

>  <SCORE.INTER.POLAR>
0

>  <SCORE.INTER.ROT>
11

>  <SCORE.INTER.SOLV>
7.53891

>  <SCORE.INTER.VDW>
-11.5625

>  <SCORE.INTER.norm>
0.201839

>  <SCORE.INTRA>
-10.4438

>  <SCORE.INTRA.DIHEDRAL>
-22.4894

>  <SCORE.INTRA.DIHEDRAL.0>
25.9209

>  <SCORE.INTRA.POLAR>
0

>  <SCORE.INTRA.POLAR.0>
0

>  <SCORE.INTRA.REPUL>
0

>  <SCORE.INTRA.REPUL.0>
0

>  <SCORE.INTRA.SOLV>
0.133102

>  <SCORE.INTRA.SOLV.lig_0>
-47.4815

>  <SCORE.INTRA.VDW>
0.734354

>  <SCORE.INTRA.VDW.0>
-1.57492

>  <SCORE.INTRA.norm>
-0.745984

>  <SCORE.RESTR>
0.00158854

>  <SCORE.RESTR.CAVITY>
0.00158854

>  <SCORE.RESTR.norm>
0.000113467

>  <SCORE.SYSTEM>
0

>  <SCORE.SYSTEM.CONST>
0

>  <SCORE.SYSTEM.DIHEDRAL>
0

>  <SCORE.SYSTEM.SOLV>
0

>  <SCORE.SYSTEM.norm>
0

>  <SCORE.heavy>
14

>  <SCORE.norm>
-0.544032

>  <RMSD>
2.389

$$$$
ligand
 OpenBabel11021811493D
libRbt.so/2013.1/901 2013/11/27
 14 13  0  0  0  0  0  0  0  0999 V2000
   57.4319    0.6917    2.0077 N   0  0  0  0  0  0  0  0  0  0  0  0
   56.5699   -0.2523    1.3069 C   0  0  0  0  0  0  0  0  0  0  0  0
   55.2960   -0.5483    2.1267 C   0  0  0  0  0  0  0  0  0  0  0  0
   54.3321    0.6463    2.2695 C   0  0  0  0  0  0  0  0  0  0  0  0
   53.6589    1.1418    1.0595 N   0  0  0  0  0  0  0  0  0  0  0  0
   52.8885    2.3903    1.0802 C   0  0  0  0  0  0  0  0  0  0  0  0
   52.3815    2.8642   -0.2850 C   0  0  0  0  0  0  0  0  0  0  0  0
   51.2362    1.9945   -0.8307 C   0  0  0  0  0  0  0  0  0  0  0  0
   51.6363    0.5354   -1.1021 C   0  0  0  0  0  0  0  0  0  0  0  0
   50.6751   -0.2241   -1.9051 N   0  0  0  0  0  0  0  0  0  0  0  0
   50.9476   -0.4500   -3.3352 C   0  0  0  0  0  0  0  0  0  0  0  0
   51.0800    0.8054   -4.2297 C   0  0  0  0  0  0  0  0  0  0  0  0
   51.1620    0.5433   -5.7471 C   0  0  0  0  0  0  0  0  0  0  0  0
   49.9237    0.0040   -6.3015 N   0  0  0  0  0  0  0  0  0  0  0  0
  1  2  1  0  0  0  0
  2  3  1  0  0  0  0
  3  4  1  0  0  0  0
  4  5  1  0  0  0  0
  5  6  1  0  0  0  0
  6  7  1  0  0  0  0
  7  8  1  0  0  0  0
  8  9  1  0  0  0  0
  9 10  1  0  0  0  0
 10 11  1  0  0  0  0
 11 12  1  0  0  0  0
 12 13  1  0  0  0  0
 13 14  1  0  0  0  0
M  END
>  <CHROM.1>
67.47813517,66.47771459,-170.81527306,173.19871521,71.85809717,-63.20626730
-166.30108368,101.66420141,-60.56860237,-171.54001433,67.03050727,52.80136074
0.72456675,-0.99173205,-0.79591415,0.53383472,-2.06841008

>  <Name>
ligand

>  <RI>
0

>  <Rbt.Current_Directory>
/home/itssahil/PROJECTS/Mol_Feturizer/New_Systems/rnas/4E8Q

>  <Rbt.Executable>
rbdock ($Id: //depot/dev/client3/rdock/2013.1/src/exe/rbdock.cxx#4 $)

>  <Rbt.Library>
libRbt.so (2013.1, Build901 2013/11/27)

>  <Rbt.Parameter_File>
/export/apps/rDock/src/rDock_2013.1_src/data/scripts/dock_solv.prm

>  <Rbt.Receptor>
prm/pocket_docking_3.prm

>  <SCORE>
-11.3129

>  <SCORE.INTER>
-1.20979

>  <SCORE.INTER.CONST>
1

>  <SCORE.INTER.POLAR>
0

>  <SCORE.INTER.ROT>
11

>  <SCORE.INTER.SOLV>
10.5305

>  <SCORE.INTER.VDW>
-15.25

>  <SCORE.INTER.norm>
-0.0864132

>  <SCORE.INTRA>
-10.1031

>  <SCORE.INTRA.DIHEDRAL>
-22.8153

>  <SCORE.INTRA.DIHEDRAL.0>
25.9209

>  <SCORE.INTRA.POLAR>
0

>  <SCORE.INTRA.POLAR.0>
0

>  <SCORE.INTRA.REPUL>
0

>  <SCORE.INTRA.REPUL.0>
0

>  <SCORE.INTRA.SOLV>
0.819031

>  <SCORE.INTRA.SOLV.lig_0>
-47.4815

>  <SCORE.INTRA.VDW>
0.895008

>  <SCORE.INTRA.VDW.0>
-1.57492

>  <SCORE.INTRA.norm>
-0.72165

>  <SCORE.RESTR>
0

>  <SCORE.RESTR.CAVITY>
0

>  <SCORE.RESTR.norm>
0

>  <SCORE.SYSTEM>
0

>  <SCORE.SYSTEM.CONST>
0

>  <SCORE.SYSTEM.DIHEDRAL>
0

>  <SCORE.SYSTEM.SOLV>
0

>  <SCORE.SYSTEM.norm>
0

>  <SCORE.heavy>
14

>  <SCORE.norm>
-0.808063

>  <RMSD>
2.426

$$$$
ligand
 OpenBabel11021811493D
libRbt.so/2013.1/901 2013/11/27
 14 13  0  0  0  0  0  0  0  0999 V2000
   58.8458    2.8620    1.7131 N   0  0  0  0  0  0  0  0  0  0  0  0
   57.8633    3.0617    0.6549 C   0  0  0  0  0  0  0  0  0  0  0  0
   56.4466    3.2319    1.2437 C   0  0  0  0  0  0  0  0  0  0  0  0
   55.3225    3.3331    0.1935 C   0  0  0  0  0  0  0  0  0  0  0  0
   53.9406    3.4914    0.6710 N   0  0  0  0  0  0  0  0  0  0  0  0
   52.8082    2.9752   -0.1060 C   0  0  0  0  0  0  0  0  0  0  0  0
   52.4655    1.5035    0.1433 C   0  0  0  0  0  0  0  0  0  0  0  0
   51.3654    0.9800   -0.7957 C   0  0  0  0  0  0  0  0  0  0  0  0
   51.7651    0.9704   -2.2799 C   0  0  0  0  0  0  0  0  0  0  0  0
   50.6899    0.5960   -3.2014 N   0  0  0  0  0  0  0  0  0  0  0  0
   50.2231   -0.8009   -3.2372 C   0  0  0  0  0  0  0  0  0  0  0  0
   49.1053   -1.1399   -4.2518 C   0  0  0  0  0  0  0  0  0  0  0  0
   49.4900   -1.0192   -5.7402 C   0  0  0  0  0  0  0  0  0  0  0  0
   49.8492    0.3415   -6.1290 N   0  0  0  0  0  0  0  0  0  0  0  0
  1  2  1  0  0  0  0
  2  3  1  0  0  0  0
  3  4  1  0  0  0  0
  4  5  1  0  0  0  0
  5  6  1  0  0  0  0
  6  7  1  0  0  0  0
  7  8  1  0  0  0  0
  8  9  1  0  0  0  0
  9 10  1  0  0  0  0
 10 11  1  0  0  0  0
 11 12  1  0  0  0  0
 12 13  1  0  0  0  0
 13 14  1  0  0  0  0
M  END
>  <CHROM.1>
-175.21374946,179.75413609,-150.46278610,85.62531924,-174.30087599,64.20190401
-174.47837600,-70.98143628,-178.77467121,65.96298498,-62.86148008,52.86983803
1.45604754,-1.50860017,-0.75207637,-0.13341539,-1.99542870

>  <Name>
ligand

>  <RI>
0

>  <Rbt.Current_Directory>
/home/itssahil/PROJECTS/Mol_Feturizer/New_Systems/rnas/4E8Q

>  <Rbt.Executable>
rbdock ($Id: //depot/dev/client3/rdock/2013.1/src/exe/rbdock.cxx#4 $)

>  <Rbt.Library>
libRbt.so (2013.1, Build901 2013/11/27)

>  <Rbt.Parameter_File>
/export/apps/rDock/src/rDock_2013.1_src/data/scripts/dock_solv.prm

>  <Rbt.Receptor>
prm/pocket_docking_3.prm

>  <SCORE>
-10.0477

>  <SCORE.INTER>
0.844306

>  <SCORE.INTER.CONST>
1

>  <SCORE.INTER.POLAR>
0

>  <SCORE.INTER.ROT>
11

>  <SCORE.INTER.SOLV>
9.32773

>  <SCORE.INTER.VDW>
-13.4797

>  <SCORE.INTER.norm>
0.0603076

>  <SCORE.INTRA>
-10.892

>  <SCORE.INTRA.DIHEDRAL>
-24.2129

>  <SCORE.INTRA.DIHEDRAL.0>
25.9209

>  <SCORE.INTRA.POLAR>
0

>  <SCORE.INTRA.POLAR.0>
0

>  <SCORE.INTRA.REPUL>
0

>  <SCORE.INTRA.REPUL.0>
0

>  <SCORE.INTRA.SOLV>
0.635464

>  <SCORE.INTRA.SOLV.lig_0>
-47.4815

>  <SCORE.INTRA.VDW>
0.896687

>  <SCORE.INTRA.VDW.0>
-1.57492

>  <SCORE.INTRA.norm>
-0.778002

>  <SCORE.RESTR>
0

>  <SCORE.RESTR.CAVITY>
0

>  <SCORE.RESTR.norm>
0

>  <SCORE.SYSTEM>
0

>  <SCORE.SYSTEM.CONST>
0

>  <SCORE.SYSTEM.DIHEDRAL>
0

>  <SCORE.SYSTEM.SOLV>
0

>  <SCORE.SYSTEM.norm>
0

>  <SCORE.heavy>
14

>  <SCORE.norm>
-0.717694

>  <RMSD>
2.443

$$$$
ligand
 OpenBabel11021811493D
libRbt.so/2013.1/901 2013/11/27
 14 13  0  0  0  0  0  0  0  0999 V2000
   59.1529   -0.2617    3.2140 N   0  0  0  0  0  0  0  0  0  0  0  0
   57.7473   -0.6008    3.4002 C   0  0  0  0  0  0  0  0  0  0  0  0
   56.8811    0.0033    2.2745 C   0  0  0  0  0  0  0  0  0  0  0  0
   55.3717   -0.2837    2.4011 C   0  0  0  0  0  0  0  0  0  0  0  0
   54.4701    0.2912    1.3915 N   0  0  0  0  0  0  0  0  0  0  0  0
   53.6663    1.4827    1.6862 C   0  0  0  0  0  0  0  0  0  0  0  0
   52.9324    2.0854    0.4848 C   0  0  0  0  0  0  0  0  0  0  0  0
   52.0817    1.0527   -0.2740 C   0  0  0  0  0  0  0  0  0  0  0  0
   51.4875    1.5803   -1.5897 C   0  0  0  0  0  0  0  0  0  0  0  0
   50.9486    0.5466   -2.4765 N   0  0  0  0  0  0  0  0  0  0  0  0
   51.2589    0.5962   -3.9158 C   0  0  0  0  0  0  0  0  0  0  0  0
   50.7004   -0.5497   -4.7925 C   0  0  0  0  0  0  0  0  0  0  0  0
   49.1663   -0.5931   -4.9438 C   0  0  0  0  0  0  0  0  0  0  0  0
   48.4762   -0.8756   -3.6887 N   0  0  0  0  0  0  0  0  0  0  0  0
  1  2  1  0  0  0  0
  2  3  1  0  0  0  0
  3  4  1  0  0  0  0
  4  5  1  0  0  0  0
  5  6  1  0  0  0  0
  6  7  1  0  0  0  0
  7  8  1  0  0  0  0
  8  9  1  0  0  0  0
  9 10  1  0  0  0  0
 10 11  1  0  0  0  0
 11 12  1  0  0  0  0
 12 13  1  0  0  0  0
 13 14  1  0  0  0  0
M  END
>  <CHROM.1>
-179.01746709,178.14867125,-102.13319978,171.53031175,52.67378625,-172.13675101
166.21597379,-135.16106843,177.99692098,67.14522449,-65.48902685,53.16720173
0.31970754,-0.48781233,-0.57443467,0.51958245,-2.23408580

>  <Name>
ligand

>  <RI>
0

>  <Rbt.Current_Directory>
/home/itssahil/PROJECTS/Mol_Feturizer/New_Systems/rnas/4E8Q

>  <Rbt.Executable>
rbdock ($Id: //depot/dev/client3/rdock/2013.1/src/exe/rbdock.cxx#4 $)

>  <Rbt.Library>
libRbt.so (2013.1, Build901 2013/11/27)

>  <Rbt.Parameter_File>
/export/apps/rDock/src/rDock_2013.1_src/data/scripts/dock_solv.prm

>  <Rbt.Receptor>
prm/pocket_docking_3.prm

>  <SCORE>
-8.75117

>  <SCORE.INTER>
1.80306

>  <SCORE.INTER.CONST>
1

>  <SCORE.INTER.POLAR>
0

>  <SCORE.INTER.ROT>
11

>  <SCORE.INTER.SOLV>
14.1129

>  <SCORE.INTER.VDW>
-14.4356

>  <SCORE.INTER.norm>
0.12879

>  <SCORE.INTRA>
-10.5542

>  <SCORE.INTRA.DIHEDRAL>
-22.4177

>  <SCORE.INTRA.DIHEDRAL.0>
25.9209

>  <SCORE.INTRA.POLAR>
0

>  <SCORE.INTRA.POLAR.0>
0

>  <SCORE.INTRA.REPUL>
0

>  <SCORE.INTRA.REPUL.0>
0

>  <SCORE.INTRA.SOLV>
0.767286

>  <SCORE.INTRA.SOLV.lig_0>
-47.4815

>  <SCORE.INTRA.VDW>
0.270954

>  <SCORE.INTRA.VDW.0>
-1.57492

>  <SCORE.INTRA.norm>
-0.753874

>  <SCORE.RESTR>
0

>  <SCORE.RESTR.CAVITY>
0

>  <SCORE.RESTR.norm>
0

>  <SCORE.SYSTEM>
0

>  <SCORE.SYSTEM.CONST>
0

>  <SCORE.SYSTEM.DIHEDRAL>
0

>  <SCORE.SYSTEM.SOLV>
0

>  <SCORE.SYSTEM.norm>
0

>  <SCORE.heavy>
14

>  <SCORE.norm>
-0.625083

>  <RMSD>
2.457

$$$$
ligand
 OpenBabel11021811493D
libRbt.so/2013.1/901 2013/11/27
 14 13  0  0  0  0  0  0  0  0999 V2000
   50.2715   -0.8385   -6.3157 N   0  0  0  0  0  0  0  0  0  0  0  0
   51.1179   -0.1098   -5.3787 C   0  0  0  0  0  0  0  0  0  0  0  0
   50.6029   -0.2697   -3.9324 C   0  0  0  0  0  0  0  0  0  0  0  0
   51.3902    0.5334   -2.8779 C   0  0  0  0  0  0  0  0  0  0  0  0
   50.9343    0.4758   -1.4809 N   0  0  0  0  0  0  0  0  0  0  0  0
   51.2703    1.5425   -0.5312 C   0  0  0  0  0  0  0  0  0  0  0  0
   52.6025    1.3636    0.2029 C   0  0  0  0  0  0  0  0  0  0  0  0
   52.8651    2.4689    1.2399 C   0  0  0  0  0  0  0  0  0  0  0  0
   54.2675    2.4151    1.8668 C   0  0  0  0  0  0  0  0  0  0  0  0
   54.6368    1.1149    2.4312 N   0  0  0  0  0  0  0  0  0  0  0  0
   56.0593    0.7403    2.5119 C   0  0  0  0  0  0  0  0  0  0  0  0
   56.6174   -0.1409    1.3694 C   0  0  0  0  0  0  0  0  0  0  0  0
   58.1321   -0.4260    1.4196 C   0  0  0  0  0  0  0  0  0  0  0  0
   58.5464   -1.0988    2.6473 N   0  0  0  0  0  0  0  0  0  0  0  0
  1  2  1  0  0  0  0
  2  3  1  0  0  0  0
  3  4  1  0  0  0  0
  4  5  1  0  0  0  0
  5  6  1  0  0  0  0
  6  7  1  0  0  0  0
  7  8  1  0  0  0  0
  8  9  1  0  0  0  0
  9 10  1  0  0  0  0
 10 11  1  0  0  0  0
 11 12  1  0  0  0  0
 12 13  1  0  0  0  0
 13 14  1  0  0  0  0
M  END
>  <CHROM.1>
-176.69338452,177.80143669,-156.96617471,-87.88726874,-176.82289186,-172.81329278
-52.56742147,153.28795839,-96.65493979,175.37527219,58.99987191,53.52240366
0.55531983,-0.48761311,-2.42813721,-0.45871848,1.04956473

>  <Name>
ligand

>  <RI>
0

>  <Rbt.Current_Directory>
/home/itssahil/PROJECTS/Mol_Feturizer/New_Systems/rnas/4E8Q

>  <Rbt.Executable>
rbdock ($Id: //depot/dev/client3/rdock/2013.1/src/exe/rbdock.cxx#4 $)

>  <Rbt.Library>
libRbt.so (2013.1, Build901 2013/11/27)

>  <Rbt.Parameter_File>
/export/apps/rDock/src/rDock_2013.1_src/data/scripts/dock_solv.prm

>  <Rbt.Receptor>
prm/pocket_docking_3.prm

>  <SCORE>
-9.58845

>  <SCORE.INTER>
2.0146

>  <SCORE.INTER.CONST>
1

>  <SCORE.INTER.POLAR>
0

>  <SCORE.INTER.ROT>
11

>  <SCORE.INTER.SOLV>
12.5521

>  <SCORE.INTER.VDW>
-13.7743

>  <SCORE.INTER.norm>
0.1439

>  <SCORE.INTRA>
-11.607

>  <SCORE.INTRA.DIHEDRAL>
-23.0967

>  <SCORE.INTRA.DIHEDRAL.0>
25.9209

>  <SCORE.INTRA.POLAR>
0

>  <SCORE.INTRA.POLAR.0>
0

>  <SCORE.INTRA.REPUL>
0

>  <SCORE.INTRA.REPUL.0>
0

>  <SCORE.INTRA.SOLV>
-1.03268

>  <SCORE.INTRA.SOLV.lig_0>
-47.4815

>  <SCORE.INTRA.VDW>
0.457676

>  <SCORE.INTRA.VDW.0>
-1.57492

>  <SCORE.INTRA.norm>
-0.829071

>  <SCORE.RESTR>
0.00394416

>  <SCORE.RESTR.CAVITY>
0.00394416

>  <SCORE.RESTR.norm>
0.000281725

>  <SCORE.SYSTEM>
0

>  <SCORE.SYSTEM.CONST>
0

>  <SCORE.SYSTEM.DIHEDRAL>
0

>  <SCORE.SYSTEM.SOLV>
0

>  <SCORE.SYSTEM.norm>
0

>  <SCORE.heavy>
14

>  <SCORE.norm>
-0.684889

>  <RMSD>
2.526

$$$$
ligand
 OpenBabel11021811493D
libRbt.so/2013.1/901 2013/11/27
 14 13  0  0  0  0  0  0  0  0999 V2000
   57.9425    1.6589    1.5457 N   0  0  0  0  0  0  0  0  0  0  0  0
   58.3484    3.0367    1.2963 C   0  0  0  0  0  0  0  0  0  0  0  0
   57.8828    3.5040   -0.0992 C   0  0  0  0  0  0  0  0  0  0  0  0
   56.3546    3.4964   -0.3023 C   0  0  0  0  0  0  0  0  0  0  0  0
   55.5263    4.2605    0.6427 N   0  0  0  0  0  0  0  0  0  0  0  0
   54.0656    4.2969    0.5098 C   0  0  0  0  0  0  0  0  0  0  0  0
   53.3937    2.9308    0.3427 C   0  0  0  0  0  0  0  0  0  0  0  0
   51.8625    3.0287    0.2335 C   0  0  0  0  0  0  0  0  0  0  0  0
   51.1829    1.7180   -0.1939 C   0  0  0  0  0  0  0  0  0  0  0  0
   51.5028    1.2771   -1.5536 N   0  0  0  0  0  0  0  0  0  0  0  0
   51.0458   -0.0471   -2.0098 C   0  0  0  0  0  0  0  0  0  0  0  0
   51.0872   -0.3158   -3.5328 C   0  0  0  0  0  0  0  0  0  0  0  0
   50.1926    0.5932   -4.3998 C   0  0  0  0  0  0  0  0  0  0  0  0
   50.3270    0.3309   -5.8297 N   0  0  0  0  0  0  0  0  0  0  0  0
  1  2  1  0  0  0  0
  2  3  1  0  0  0  0
  3  4  1  0  0  0  0
  4  5  1  0  0  0  0
  5  6  1  0  0  0  0
  6  7  1  0  0  0  0
  7  8  1  0  0  0  0
  8  9  1  0  0  0  0
  9 10  1  0  0  0  0
 10 11  1  0  0  0  0
 11 12  1  0  0  0  0
 12 13  1  0  0  0  0
 13 14  1  0  0  0  0
M  END
>  <CHROM.1>
61.37885629,55.86574665,-179.96321301,49.36255186,178.98028348,169.22868450
-65.80803354,172.37862470,164.81573937,-62.31641771,177.20558594,53.62241039
2.12647385,-0.95344995,-0.67887408,0.01196780,-2.15172414

>  <Name>
ligand

>  <RI>
0

>  <Rbt.Current_Directory>
/home/itssahil/PROJECTS/Mol_Feturizer/New_Systems/rnas/4E8Q

>  <Rbt.Executable>
rbdock ($Id: //depot/dev/client3/rdock/2013.1/src/exe/rbdock.cxx#4 $)

>  <Rbt.Library>
libRbt.so (2013.1, Build901 2013/11/27)

>  <Rbt.Parameter_File>
/export/apps/rDock/src/rDock_2013.1_src/data/scripts/dock_solv.prm

>  <Rbt.Receptor>
prm/pocket_docking_4.prm

>  <SCORE>
-11.1183

>  <SCORE.INTER>
0.371021

>  <SCORE.INTER.CONST>
1

>  <SCORE.INTER.POLAR>
0

>  <SCORE.INTER.ROT>
11

>  <SCORE.INTER.SOLV>
8.07759

>  <SCORE.INTER.VDW>
-13.3785

>  <SCORE.INTER.norm>
0.0265015

>  <SCORE.INTRA>
-11.4893

>  <SCORE.INTRA.DIHEDRAL>
-24.8774

>  <SCORE.INTRA.DIHEDRAL.0>
25.9209

>  <SCORE.INTRA.POLAR>
0

>  <SCORE.INTRA.POLAR.0>
0

>  <SCORE.INTRA.REPUL>
0

>  <SCORE.INTRA.REPUL.0>
0

>  <SCORE.INTRA.SOLV>
0.289736

>  <SCORE.INTRA.SOLV.lig_0>
-47.4815

>  <SCORE.INTRA.VDW>
0.804508

>  <SCORE.INTRA.VDW.0>
-1.57492

>  <SCORE.INTRA.norm>
-0.820665

>  <SCORE.RESTR>
0

>  <SCORE.RESTR.CAVITY>
0

>  <SCORE.RESTR.norm>
0

>  <SCORE.SYSTEM>
0

>  <SCORE.SYSTEM.CONST>
0

>  <SCORE.SYSTEM.DIHEDRAL>
0

>  <SCORE.SYSTEM.SOLV>
0

>  <SCORE.SYSTEM.norm>
0

>  <SCORE.heavy>
14

>  <SCORE.norm>
-0.794164

>  <RMSD>
2.527

$$$$
ligand
 OpenBabel11021811493D
libRbt.so/2013.1/901 2013/11/27
 14 13  0  0  0  0  0  0  0  0999 V2000
   58.6174   -0.5779    1.5810 N   0  0  0  0  0  0  0  0  0  0  0  0
   57.2630   -0.2662    1.1407 C   0  0  0  0  0  0  0  0  0  0  0  0
   56.2565   -0.4266    2.2998 C   0  0  0  0  0  0  0  0  0  0  0  0
   54.8062   -0.0382    1.9495 C   0  0  0  0  0  0  0  0  0  0  0  0
   54.5447    1.3416    1.5132 N   0  0  0  0  0  0  0  0  0  0  0  0
   53.3918    2.0909    2.0250 C   0  0  0  0  0  0  0  0  0  0  0  0
   52.9191    3.2445    1.1355 C   0  0  0  0  0  0  0  0  0  0  0  0
   52.5094    2.7821   -0.2732 C   0  0  0  0  0  0  0  0  0  0  0  0
   51.2922    1.8437   -0.2919 C   0  0  0  0  0  0  0  0  0  0  0  0
   50.9310    1.3354   -1.6173 N   0  0  0  0  0  0  0  0  0  0  0  0
   51.5878    0.1196   -2.1282 C   0  0  0  0  0  0  0  0  0  0  0  0
   51.2153   -0.3278   -3.5616 C   0  0  0  0  0  0  0  0  0  0  0  0
   49.7386   -0.7135   -3.7825 C   0  0  0  0  0  0  0  0  0  0  0  0
   49.4558   -1.1303   -5.1528 N   0  0  0  0  0  0  0  0  0  0  0  0
  1  2  1  0  0  0  0
  2  3  1  0  0  0  0
  3  4  1  0  0  0  0
  4  5  1  0  0  0  0
  5  6  1  0  0  0  0
  6  7  1  0  0  0  0
  7  8  1  0  0  0  0
  8  9  1  0  0  0  0
  9 10  1  0  0  0  0
 10 11  1  0  0  0  0
 11 12  1  0  0  0  0
 12 13  1  0  0  0  0
 13 14  1  0  0  0  0
M  END
>  <CHROM.1>
176.60430855,-60.03008572,-136.22290107,-157.17184304,59.11878085,64.28236836
-176.87117220,86.37689753,-177.07188097,-62.71280254,-179.78273222,53.18054561
0.66283485,-0.36854880,-0.52068747,0.51873619,-2.36192636

>  <Name>
ligand

>  <RI>
0

>  <Rbt.Current_Directory>
/home/itssahil/PROJECTS/Mol_Feturizer/New_Systems/rnas/4E8Q

>  <Rbt.Executable>
rbdock ($Id: //depot/dev/client3/rdock/2013.1/src/exe/rbdock.cxx#4 $)

>  <Rbt.Library>
libRbt.so (2013.1, Build901 2013/11/27)

>  <Rbt.Parameter_File>
/export/apps/rDock/src/rDock_2013.1_src/data/scripts/dock_solv.prm

>  <Rbt.Receptor>
prm/pocket_docking_4.prm

>  <SCORE>
-11.7028

>  <SCORE.INTER>
0.0222215

>  <SCORE.INTER.CONST>
1

>  <SCORE.INTER.POLAR>
0

>  <SCORE.INTER.ROT>
11

>  <SCORE.INTER.SOLV>
13.8498

>  <SCORE.INTER.VDW>
-15.5351

>  <SCORE.INTER.norm>
0.00158725

>  <SCORE.INTRA>
-11.725

>  <SCORE.INTRA.DIHEDRAL>
-23.8628

>  <SCORE.INTRA.DIHEDRAL.0>
25.9209

>  <SCORE.INTRA.POLAR>
0

>  <SCORE.INTRA.POLAR.0>
0

>  <SCORE.INTRA.REPUL>
0

>  <SCORE.INTRA.REPUL.0>
0

>  <SCORE.INTRA.SOLV>
-0.804698

>  <SCORE.INTRA.SOLV.lig_0>
-47.4815

>  <SCORE.INTRA.VDW>
0.608733

>  <SCORE.INTRA.VDW.0>
-1.57492

>  <SCORE.INTRA.norm>
-0.837502

>  <SCORE.RESTR>
0

>  <SCORE.RESTR.CAVITY>
0

>  <SCORE.RESTR.norm>
0

>  <SCORE.SYSTEM>
0

>  <SCORE.SYSTEM.CONST>
0

>  <SCORE.SYSTEM.DIHEDRAL>
0

>  <SCORE.SYSTEM.SOLV>
0

>  <SCORE.SYSTEM.norm>
0

>  <SCORE.heavy>
14

>  <SCORE.norm>
-0.835915

>  <RMSD>
2.539

$$$$
ligand
 OpenBabel11021811493D
libRbt.so/2013.1/901 2013/11/27
 14 13  0  0  0  0  0  0  0  0999 V2000
   59.4807   -0.5073    3.0531 N   0  0  0  0  0  0  0  0  0  0  0  0
   58.8343    0.5720    2.3166 C   0  0  0  0  0  0  0  0  0  0  0  0
   57.8092    0.0130    1.3070 C   0  0  0  0  0  0  0  0  0  0  0  0
   56.9803    1.0857    0.5727 C   0  0  0  0  0  0  0  0  0  0  0  0
   56.1954    2.0293    1.3827 N   0  0  0  0  0  0  0  0  0  0  0  0
   55.0867    1.5639    2.2235 C   0  0  0  0  0  0  0  0  0  0  0  0
   53.7717    1.3068    1.4819 C   0  0  0  0  0  0  0  0  0  0  0  0
   53.1739    2.5838    0.8675 C   0  0  0  0  0  0  0  0  0  0  0  0
   51.8586    2.3528    0.1064 C   0  0  0  0  0  0  0  0  0  0  0  0
   51.9819    1.5167   -1.0900 N   0  0  0  0  0  0  0  0  0  0  0  0
   51.6549    2.0887   -2.4077 C   0  0  0  0  0  0  0  0  0  0  0  0
   51.5824    1.1051   -3.5996 C   0  0  0  0  0  0  0  0  0  0  0  0
   50.4819    0.0281   -3.5157 C   0  0  0  0  0  0  0  0  0  0  0  0
   50.2760   -0.6779   -4.7769 N   0  0  0  0  0  0  0  0  0  0  0  0
  1  2  1  0  0  0  0
  2  3  1  0  0  0  0
  3  4  1  0  0  0  0
  4  5  1  0  0  0  0
  5  6  1  0  0  0  0
  6  7  1  0  0  0  0
  7  8  1  0  0  0  0
  8  9  1  0  0  0  0
  9 10  1  0  0  0  0
 10 11  1  0  0  0  0
 11 12  1  0  0  0  0
 12 13  1  0  0  0  0
 13 14  1  0  0  0  0
M  END
>  <CHROM.1>
174.61515021,-57.20221939,-64.09591800,-79.98090495,-64.19682571,179.51217618
-65.07094550,-117.81356592,-170.40851973,63.46004358,167.63529354,54.22617651
1.07595296,-0.14838848,-0.49656939,0.43677556,-2.19530955

>  <Name>
ligand

>  <RI>
0

>  <Rbt.Current_Directory>
/home/itssahil/PROJECTS/Mol_Feturizer/New_Systems/rnas/4E8Q

>  <Rbt.Executable>
rbdock ($Id: //depot/dev/client3/rdock/2013.1/src/exe/rbdock.cxx#4 $)

>  <Rbt.Library>
libRbt.so (2013.1, Build901 2013/11/27)

>  <Rbt.Parameter_File>
/export/apps/rDock/src/rDock_2013.1_src/data/scripts/dock_solv.prm

>  <Rbt.Receptor>
prm/pocket_docking_2.prm

>  <SCORE>
-7.69366

>  <SCORE.INTER>
3.99708

>  <SCORE.INTER.CONST>
1

>  <SCORE.INTER.POLAR>
0

>  <SCORE.INTER.ROT>
11

>  <SCORE.INTER.SOLV>
9.85746

>  <SCORE.INTER.VDW>
-11.5544

>  <SCORE.INTER.norm>
0.285506

>  <SCORE.INTRA>
-11.7186

>  <SCORE.INTRA.DIHEDRAL>
-23.4312

>  <SCORE.INTRA.DIHEDRAL.0>
25.9209

>  <SCORE.INTRA.POLAR>
0

>  <SCORE.INTRA.POLAR.0>
0

>  <SCORE.INTRA.REPUL>
0

>  <SCORE.INTRA.REPUL.0>
0

>  <SCORE.INTRA.SOLV>
-0.828937

>  <SCORE.INTRA.SOLV.lig_0>
-47.4815

>  <SCORE.INTRA.VDW>
0.411481

>  <SCORE.INTRA.VDW.0>
-1.57492

>  <SCORE.INTRA.norm>
-0.837043

>  <SCORE.RESTR>
0.0278559

>  <SCORE.RESTR.CAVITY>
0.0278559

>  <SCORE.RESTR.norm>
0.00198971

>  <SCORE.SYSTEM>
0

>  <SCORE.SYSTEM.CONST>
0

>  <SCORE.SYSTEM.DIHEDRAL>
0

>  <SCORE.SYSTEM.SOLV>
0

>  <SCORE.SYSTEM.norm>
0

>  <SCORE.heavy>
14

>  <SCORE.norm>
-0.549547

>  <RMSD>
2.597

$$$$
ligand
 OpenBabel11021811493D
libRbt.so/2013.1/901 2013/11/27
 14 13  0  0  0  0  0  0  0  0999 V2000
   50.3174    0.3251   -5.6189 N   0  0  0  0  0  0  0  0  0  0  0  0
   50.8057    1.4556   -4.8388 C   0  0  0  0  0  0  0  0  0  0  0  0
   51.1568    1.0212   -3.3998 C   0  0  0  0  0  0  0  0  0  0  0  0
   51.6019    2.1697   -2.4727 C   0  0  0  0  0  0  0  0  0  0  0  0
   52.0303    1.8313   -1.1072 N   0  0  0  0  0  0  0  0  0  0  0  0
   52.4927    2.8704   -0.1803 C   0  0  0  0  0  0  0  0  0  0  0  0
   52.6141    2.4304    1.2816 C   0  0  0  0  0  0  0  0  0  0  0  0
   53.8356    1.5305    1.5342 C   0  0  0  0  0  0  0  0  0  0  0  0
   55.1839    2.2535    1.3862 C   0  0  0  0  0  0  0  0  0  0  0  0
   56.3422    1.4932    1.8614 N   0  0  0  0  0  0  0  0  0  0  0  0
   56.7673    0.2896    1.1257 C   0  0  0  0  0  0  0  0  0  0  0  0
   58.2006   -0.2264    1.3957 C   0  0  0  0  0  0  0  0  0  0  0  0
   58.5120   -0.6111    2.8562 C   0  0  0  0  0  0  0  0  0  0  0  0
   58.4045    0.5151    3.7790 N   0  0  0  0  0  0  0  0  0  0  0  0
  1  2  1  0  0  0  0
  2  3  1  0  0  0  0
  3  4  1  0  0  0  0
  4  5  1  0  0  0  0
  5  6  1  0  0  0  0
  6  7  1  0  0  0  0
  7  8  1  0  0  0  0
  8  9  1  0  0  0  0
  9 10  1  0  0  0  0
 10 11  1  0  0  0  0
 11 12  1  0  0  0  0
 12 13  1  0  0  0  0
 13 14  1  0  0  0  0
M  END
>  <CHROM.1>
-176.45485479,-176.47961768,178.72757114,167.24363837,74.35826655,68.06397949
169.12068769,68.65985131,162.30901131,59.44371067,-62.25576582,54.16173400
1.23924614,-0.17122753,-2.56394870,-0.52906655,1.06170994

>  <Name>
ligand

>  <RI>
0

>  <Rbt.Current_Directory>
/home/itssahil/PROJECTS/Mol_Feturizer/New_Systems/rnas/4E8Q

>  <Rbt.Executable>
rbdock ($Id: //depot/dev/client3/rdock/2013.1/src/exe/rbdock.cxx#4 $)

>  <Rbt.Library>
libRbt.so (2013.1, Build901 2013/11/27)

>  <Rbt.Parameter_File>
/export/apps/rDock/src/rDock_2013.1_src/data/scripts/dock_solv.prm

>  <Rbt.Receptor>
prm/pocket_docking_2.prm

>  <SCORE>
-6.51027

>  <SCORE.INTER>
4.13435

>  <SCORE.INTER.CONST>
1

>  <SCORE.INTER.POLAR>
0

>  <SCORE.INTER.ROT>
11

>  <SCORE.INTER.SOLV>
5.66573

>  <SCORE.INTER.VDW>
-10.0657

>  <SCORE.INTER.norm>
0.295311

>  <SCORE.INTRA>
-10.6491

>  <SCORE.INTRA.DIHEDRAL>
-23.9274

>  <SCORE.INTRA.DIHEDRAL.0>
25.9209

>  <SCORE.INTRA.POLAR>
0

>  <SCORE.INTRA.POLAR.0>
0

>  <SCORE.INTRA.REPUL>
0

>  <SCORE.INTRA.REPUL.0>
0

>  <SCORE.INTRA.SOLV>
1.07043

>  <SCORE.INTRA.SOLV.lig_0>
-47.4815

>  <SCORE.INTRA.VDW>
0.7794

>  <SCORE.INTRA.VDW.0>
-1.57492

>  <SCORE.INTRA.norm>
-0.760651

>  <SCORE.RESTR>
0.00449159

>  <SCORE.RESTR.CAVITY>
0.00449159

>  <SCORE.RESTR.norm>
0.000320828

>  <SCORE.SYSTEM>
0

>  <SCORE.SYSTEM.CONST>
0

>  <SCORE.SYSTEM.DIHEDRAL>
0

>  <SCORE.SYSTEM.SOLV>
0

>  <SCORE.SYSTEM.norm>
0

>  <SCORE.heavy>
14

>  <SCORE.norm>
-0.465019

>  <RMSD>
2.601

$$$$
ligand
 OpenBabel11021811493D
libRbt.so/2013.1/901 2013/11/27
 14 13  0  0  0  0  0  0  0  0999 V2000
   57.4963    2.1146   -1.3138 N   0  0  0  0  0  0  0  0  0  0  0  0
   57.5717    1.2188   -0.1661 C   0  0  0  0  0  0  0  0  0  0  0  0
   57.7297    2.0166    1.1458 C   0  0  0  0  0  0  0  0  0  0  0  0
   56.5680    2.9820    1.4543 C   0  0  0  0  0  0  0  0  0  0  0  0
   55.2179    2.4174    1.5997 N   0  0  0  0  0  0  0  0  0  0  0  0
   54.0661    3.2774    1.8931 C   0  0  0  0  0  0  0  0  0  0  0  0
   52.7002    2.6726    1.5555 C   0  0  0  0  0  0  0  0  0  0  0  0
   52.5606    2.3082    0.0677 C   0  0  0  0  0  0  0  0  0  0  0  0
   51.1808    1.7457   -0.3096 C   0  0  0  0  0  0  0  0  0  0  0  0
   51.0367    1.3698   -1.7179 N   0  0  0  0  0  0  0  0  0  0  0  0
   51.4608    0.0280   -2.1543 C   0  0  0  0  0  0  0  0  0  0  0  0
   51.1635   -0.3573   -3.6228 C   0  0  0  0  0  0  0  0  0  0  0  0
   49.6722   -0.4648   -4.0004 C   0  0  0  0  0  0  0  0  0  0  0  0
   49.4612   -0.7917   -5.4075 N   0  0  0  0  0  0  0  0  0  0  0  0
  1  2  1  0  0  0  0
  2  3  1  0  0  0  0
  3  4  1  0  0  0  0
  4  5  1  0  0  0  0
  5  6  1  0  0  0  0
  6  7  1  0  0  0  0
  7  8  1  0  0  0  0
  8  9  1  0  0  0  0
  9 10  1  0  0  0  0
 10 11  1  0  0  0  0
 11 12  1  0  0  0  0
 12 13  1  0  0  0  0
 13 14  1  0  0  0  0
M  END
>  <CHROM.1>
60.75328734,59.69542741,-179.99022066,160.15116998,-59.33016865,-177.91035163
-178.92664372,85.84249014,174.48576514,-64.97821711,178.27440689,53.42044384
1.46703380,-0.78364101,-0.69920303,0.01101395,-2.08913601

>  <Name>
ligand

>  <RI>
0

>  <Rbt.Current_Directory>
/home/itssahil/PROJECTS/Mol_Feturizer/New_Systems/rnas/4E8Q

>  <Rbt.Executable>
rbdock ($Id: //depot/dev/client3/rdock/2013.1/src/exe/rbdock.cxx#4 $)

>  <Rbt.Library>
libRbt.so (2013.1, Build901 2013/11/27)

>  <Rbt.Parameter_File>
/export/apps/rDock/src/rDock_2013.1_src/data/scripts/dock_solv.prm

>  <Rbt.Receptor>
prm/pocket_docking_4.prm

>  <SCORE>
-10.1329

>  <SCORE.INTER>
1.9222

>  <SCORE.INTER.CONST>
1

>  <SCORE.INTER.POLAR>
0

>  <SCORE.INTER.ROT>
11

>  <SCORE.INTER.SOLV>
11.481

>  <SCORE.INTER.VDW>
-13.4789

>  <SCORE.INTER.norm>
0.1373

>  <SCORE.INTRA>
-12.0551

>  <SCORE.INTRA.DIHEDRAL>
-24.9984

>  <SCORE.INTRA.DIHEDRAL.0>
25.9209

>  <SCORE.INTRA.POLAR>
0

>  <SCORE.INTRA.POLAR.0>
0

>  <SCORE.INTRA.REPUL>
0

>  <SCORE.INTRA.REPUL.0>
0

>  <SCORE.INTRA.SOLV>
0.221167

>  <SCORE.INTRA.SOLV.lig_0>
-47.4815

>  <SCORE.INTRA.VDW>
0.333495

>  <SCORE.INTRA.VDW.0>
-1.57492

>  <SCORE.INTRA.norm>
-0.861081

>  <SCORE.RESTR>
0

>  <SCORE.RESTR.CAVITY>
0

>  <SCORE.RESTR.norm>
0

>  <SCORE.SYSTEM>
0

>  <SCORE.SYSTEM.CONST>
0

>  <SCORE.SYSTEM.DIHEDRAL>
0

>  <SCORE.SYSTEM.SOLV>
0

>  <SCORE.SYSTEM.norm>
0

>  <SCORE.heavy>
14

>  <SCORE.norm>
-0.723781

>  <RMSD>
2.620

$$$$
ligand
 OpenBabel11021811493D
libRbt.so/2013.1/901 2013/11/27
 14 13  0  0  0  0  0  0  0  0999 V2000
   51.2562    2.8891   -5.3524 N   0  0  0  0  0  0  0  0  0  0  0  0
   50.1128    2.6435   -4.4821 C   0  0  0  0  0  0  0  0  0  0  0  0
   50.4835    2.8871   -3.0037 C   0  0  0  0  0  0  0  0  0  0  0  0
   51.5729    1.9466   -2.4513 C   0  0  0  0  0  0  0  0  0  0  0  0
   51.9565    2.0852   -1.0383 N   0  0  0  0  0  0  0  0  0  0  0  0
   52.5863    3.3141   -0.5427 C   0  0  0  0  0  0  0  0  0  0  0  0
   52.5547    3.4935    0.9779 C   0  0  0  0  0  0  0  0  0  0  0  0
   53.2744    2.3594    1.7273 C   0  0  0  0  0  0  0  0  0  0  0  0
   54.7817    2.2788    1.4374 C   0  0  0  0  0  0  0  0  0  0  0  0
   55.5063    1.2853    2.2333 N   0  0  0  0  0  0  0  0  0  0  0  0
   56.0001    0.0592    1.5826 C   0  0  0  0  0  0  0  0  0  0  0  0
   57.4068    0.1242    0.9421 C   0  0  0  0  0  0  0  0  0  0  0  0
   58.5535    0.5500    1.8812 C   0  0  0  0  0  0  0  0  0  0  0  0
   58.8121   -0.4184    2.9427 N   0  0  0  0  0  0  0  0  0  0  0  0
  1  2  1  0  0  0  0
  2  3  1  0  0  0  0
  3  4  1  0  0  0  0
  4  5  1  0  0  0  0
  5  6  1  0  0  0  0
  6  7  1  0  0  0  0
  7  8  1  0  0  0  0
  8  9  1  0  0  0  0
  9 10  1  0  0  0  0
 10 11  1  0  0  0  0
 11 12  1  0  0  0  0
 12 13  1  0  0  0  0
 13 14  1  0  0  0  0
M  END
>  <CHROM.1>
-62.94681945,-178.20628654,-64.16203264,162.70191534,60.03572009,63.87681277
174.67371227,108.45264246,88.11710255,56.17800137,65.90087182,53.91823156
1.82140575,-0.22467622,-2.56899446,-0.51323847,1.31907102

>  <Name>
ligand

>  <RI>
0

>  <Rbt.Current_Directory>
/home/itssahil/PROJECTS/Mol_Feturizer/New_Systems/rnas/4E8Q

>  <Rbt.Executable>
rbdock ($Id: //depot/dev/client3/rdock/2013.1/src/exe/rbdock.cxx#4 $)

>  <Rbt.Library>
libRbt.so (2013.1, Build901 2013/11/27)

>  <Rbt.Parameter_File>
/export/apps/rDock/src/rDock_2013.1_src/data/scripts/dock_solv.prm

>  <Rbt.Receptor>
prm/pocket_docking_2.prm

>  <SCORE>
-4.60136

>  <SCORE.INTER>
5.81593

>  <SCORE.INTER.CONST>
1

>  <SCORE.INTER.POLAR>
0

>  <SCORE.INTER.ROT>
11

>  <SCORE.INTER.SOLV>
5.32535

>  <SCORE.INTER.VDW>
-8.83116

>  <SCORE.INTER.norm>
0.415424

>  <SCORE.INTRA>
-10.4324

>  <SCORE.INTRA.DIHEDRAL>
-23.6422

>  <SCORE.INTRA.DIHEDRAL.0>
25.9209

>  <SCORE.INTRA.POLAR>
0

>  <SCORE.INTRA.POLAR.0>
0

>  <SCORE.INTRA.REPUL>
0

>  <SCORE.INTRA.REPUL.0>
0

>  <SCORE.INTRA.SOLV>
0.863753

>  <SCORE.INTRA.SOLV.lig_0>
-47.4815

>  <SCORE.INTRA.VDW>
0.95681

>  <SCORE.INTRA.VDW.0>
-1.57492

>  <SCORE.INTRA.norm>
-0.745173

>  <SCORE.RESTR>
0.0151252

>  <SCORE.RESTR.CAVITY>
0.0151252

>  <SCORE.RESTR.norm>
0.00108037

>  <SCORE.SYSTEM>
0

>  <SCORE.SYSTEM.CONST>
0

>  <SCORE.SYSTEM.DIHEDRAL>
0

>  <SCORE.SYSTEM.SOLV>
0

>  <SCORE.SYSTEM.norm>
0

>  <SCORE.heavy>
14

>  <SCORE.norm>
-0.328669

>  <RMSD>
2.627

$$$$
ligand
 OpenBabel11021811493D
libRbt.so/2013.1/901 2013/11/27
 14 13  0  0  0  0  0  0  0  0999 V2000
   48.4041   -1.9896   -4.9711 N   0  0  0  0  0  0  0  0  0  0  0  0
   48.4293   -0.5463   -4.7670 C   0  0  0  0  0  0  0  0  0  0  0  0
   49.8150   -0.0847   -4.2677 C   0  0  0  0  0  0  0  0  0  0  0  0
   50.2724   -0.7373   -2.9480 C   0  0  0  0  0  0  0  0  0  0  0  0
   51.5767   -0.3422   -2.3954 N   0  0  0  0  0  0  0  0  0  0  0  0
   51.8203    1.0310   -1.9396 C   0  0  0  0  0  0  0  0  0  0  0  0
   51.9229    1.2036   -0.4213 C   0  0  0  0  0  0  0  0  0  0  0  0
   52.5264    2.5587   -0.0146 C   0  0  0  0  0  0  0  0  0  0  0  0
   52.7268    2.7224    1.5005 C   0  0  0  0  0  0  0  0  0  0  0  0
   53.4003    1.5978    2.1543 N   0  0  0  0  0  0  0  0  0  0  0  0
   54.8177    1.3312    1.8538 C   0  0  0  0  0  0  0  0  0  0  0  0
   55.2963   -0.1348    1.9786 C   0  0  0  0  0  0  0  0  0  0  0  0
   56.7943   -0.3779    1.7053 C   0  0  0  0  0  0  0  0  0  0  0  0
   57.2056    0.0367    0.3672 N   0  0  0  0  0  0  0  0  0  0  0  0
  1  2  1  0  0  0  0
  2  3  1  0  0  0  0
  3  4  1  0  0  0  0
  4  5  1  0  0  0  0
  5  6  1  0  0  0  0
  6  7  1  0  0  0  0
  7  8  1  0  0  0  0
  8  9  1  0  0  0  0
  9 10  1  0  0  0  0
 10 11  1  0  0  0  0
 11 12  1  0  0  0  0
 12 13  1  0  0  0  0
 13 14  1  0  0  0  0
M  END
>  <CHROM.1>
-58.57694671,-179.40049683,64.63505224,108.28633544,165.28489741,-176.19658140
48.73539499,67.74207979,-151.61644534,-177.99277151,-59.02807712,52.50052011
0.44801710,-0.86879697,-2.49357373,-0.47044037,0.77098794

>  <Name>
ligand

>  <RI>
0

>  <Rbt.Current_Directory>
/home/itssahil/PROJECTS/Mol_Feturizer/New_Systems/rnas/4E8Q

>  <Rbt.Executable>
rbdock ($Id: //depot/dev/client3/rdock/2013.1/src/exe/rbdock.cxx#4 $)

>  <Rbt.Library>
libRbt.so (2013.1, Build901 2013/11/27)

>  <Rbt.Parameter_File>
/export/apps/rDock/src/rDock_2013.1_src/data/scripts/dock_solv.prm

>  <Rbt.Receptor>
prm/pocket_docking_3.prm

>  <SCORE>
-10.1941

>  <SCORE.INTER>
0.512411

>  <SCORE.INTER.CONST>
1

>  <SCORE.INTER.POLAR>
0

>  <SCORE.INTER.ROT>
11

>  <SCORE.INTER.SOLV>
18.3089

>  <SCORE.INTER.VDW>
-16.6947

>  <SCORE.INTER.norm>
0.0366008

>  <SCORE.INTRA>
-10.7065

>  <SCORE.INTRA.DIHEDRAL>
-22.8807

>  <SCORE.INTRA.DIHEDRAL.0>
25.9209

>  <SCORE.INTRA.POLAR>
0

>  <SCORE.INTRA.POLAR.0>
0

>  <SCORE.INTRA.REPUL>
0

>  <SCORE.INTRA.REPUL.0>
0

>  <SCORE.INTRA.SOLV>
-0.263866

>  <SCORE.INTRA.SOLV.lig_0>
-47.4815

>  <SCORE.INTRA.VDW>
0.865758

>  <SCORE.INTRA.VDW.0>
-1.57492

>  <SCORE.INTRA.norm>
-0.764751

>  <SCORE.RESTR>
0

>  <SCORE.RESTR.CAVITY>
0

>  <SCORE.RESTR.norm>
0

>  <SCORE.SYSTEM>
0

>  <SCORE.SYSTEM.CONST>
0

>  <SCORE.SYSTEM.DIHEDRAL>
0

>  <SCORE.SYSTEM.SOLV>
0

>  <SCORE.SYSTEM.norm>
0

>  <SCORE.heavy>
14

>  <SCORE.norm>
-0.72815

>  <RMSD>
2.665

$$$$
ligand
 OpenBabel11021811493D
libRbt.so/2013.1/901 2013/11/27
 14 13  0  0  0  0  0  0  0  0999 V2000
   58.0148    1.6192    1.3601 N   0  0  0  0  0  0  0  0  0  0  0  0
   58.2059    0.2151    1.7024 C   0  0  0  0  0  0  0  0  0  0  0  0
   57.0521   -0.6485    1.1496 C   0  0  0  0  0  0  0  0  0  0  0  0
   55.6642   -0.3150    1.7319 C   0  0  0  0  0  0  0  0  0  0  0  0
   55.0575    0.9775    1.3796 N   0  0  0  0  0  0  0  0  0  0  0  0
   53.8327    1.4429    2.0398 C   0  0  0  0  0  0  0  0  0  0  0  0
   53.2075    2.7038    1.4360 C   0  0  0  0  0  0  0  0  0  0  0  0
   52.7004    2.4891   -0.0002 C   0  0  0  0  0  0  0  0  0  0  0  0
   51.5105    1.5216   -0.1032 C   0  0  0  0  0  0  0  0  0  0  0  0
   51.0262    1.2891   -1.4658 N   0  0  0  0  0  0  0  0  0  0  0  0
   51.6032    0.1904   -2.2598 C   0  0  0  0  0  0  0  0  0  0  0  0
   50.6838   -0.4690   -3.3150 C   0  0  0  0  0  0  0  0  0  0  0  0
   50.1352    0.4698   -4.4084 C   0  0  0  0  0  0  0  0  0  0  0  0
   51.1864    1.0843   -5.2140 N   0  0  0  0  0  0  0  0  0  0  0  0
  1  2  1  0  0  0  0
  2  3  1  0  0  0  0
  3  4  1  0  0  0  0
  4  5  1  0  0  0  0
  5  6  1  0  0  0  0
  6  7  1  0  0  0  0
  7  8  1  0  0  0  0
  8  9  1  0  0  0  0
  9 10  1  0  0  0  0
 10 11  1  0  0  0  0
 11 12  1  0  0  0  0
 12 13  1  0  0  0  0
 13 14  1  0  0  0  0
M  END
>  <CHROM.1>
-62.93899606,68.50541511,-171.37712042,-171.65100801,64.90882085,66.71689696
-179.13721611,89.79819810,150.54844861,59.41845649,61.01248069,53.56277711
0.89772890,-0.42598634,-0.61282653,0.37809496,-2.05172183

>  <Name>
ligand

>  <RI>
0

>  <Rbt.Current_Directory>
/home/itssahil/PROJECTS/Mol_Feturizer/New_Systems/rnas/4E8Q

>  <Rbt.Executable>
rbdock ($Id: //depot/dev/client3/rdock/2013.1/src/exe/rbdock.cxx#4 $)

>  <Rbt.Library>
libRbt.so (2013.1, Build901 2013/11/27)

>  <Rbt.Parameter_File>
/export/apps/rDock/src/rDock_2013.1_src/data/scripts/dock_solv.prm

>  <Rbt.Receptor>
prm/pocket_docking_3.prm

>  <SCORE>
-10.1188

>  <SCORE.INTER>
0.0121849

>  <SCORE.INTER.CONST>
1

>  <SCORE.INTER.POLAR>
0

>  <SCORE.INTER.ROT>
11

>  <SCORE.INTER.SOLV>
10.993

>  <SCORE.INTER.VDW>
-14.5895

>  <SCORE.INTER.norm>
0.000870351

>  <SCORE.INTRA>
-10.131

>  <SCORE.INTRA.DIHEDRAL>
-24.0402

>  <SCORE.INTRA.DIHEDRAL.0>
25.9209

>  <SCORE.INTRA.POLAR>
0

>  <SCORE.INTRA.POLAR.0>
0

>  <SCORE.INTRA.REPUL>
0

>  <SCORE.INTRA.REPUL.0>
0

>  <SCORE.INTRA.SOLV>
2.80222

>  <SCORE.INTRA.SOLV.lig_0>
-47.4815

>  <SCORE.INTRA.VDW>
0.487954

>  <SCORE.INTRA.VDW.0>
-1.57492

>  <SCORE.INTRA.norm>
-0.723644

>  <SCORE.RESTR>
0

>  <SCORE.RESTR.CAVITY>
0

>  <SCORE.RESTR.norm>
0

>  <SCORE.SYSTEM>
0

>  <SCORE.SYSTEM.CONST>
0

>  <SCORE.SYSTEM.DIHEDRAL>
0

>  <SCORE.SYSTEM.SOLV>
0

>  <SCORE.SYSTEM.norm>
0

>  <SCORE.heavy>
14

>  <SCORE.norm>
-0.722774

>  <RMSD>
2.666

$$$$
ligand
 OpenBabel11021811493D
libRbt.so/2013.1/901 2013/11/27
 14 13  0  0  0  0  0  0  0  0999 V2000
   48.4975   -1.6342   -5.2727 N   0  0  0  0  0  0  0  0  0  0  0  0
   49.5947   -0.7034   -5.0384 C   0  0  0  0  0  0  0  0  0  0  0  0
   50.0852   -0.7866   -3.5772 C   0  0  0  0  0  0  0  0  0  0  0  0
   51.2557    0.1576   -3.2379 C   0  0  0  0  0  0  0  0  0  0  0  0
   51.8586    0.0604   -1.9000 N   0  0  0  0  0  0  0  0  0  0  0  0
   51.3181    0.8237   -0.7697 C   0  0  0  0  0  0  0  0  0  0  0  0
   52.2191    1.9504   -0.2556 C   0  0  0  0  0  0  0  0  0  0  0  0
   52.5139    3.0140   -1.3268 C   0  0  0  0  0  0  0  0  0  0  0  0
   53.6114    4.0135   -0.9276 C   0  0  0  0  0  0  0  0  0  0  0  0
   54.9493    3.4327   -0.7932 N   0  0  0  0  0  0  0  0  0  0  0  0
   56.0903    4.3115   -0.4829 C   0  0  0  0  0  0  0  0  0  0  0  0
   57.4939    3.6609   -0.4764 C   0  0  0  0  0  0  0  0  0  0  0  0
   57.7338    2.5920    0.6089 C   0  0  0  0  0  0  0  0  0  0  0  0
   57.5595    3.1052    1.9646 N   0  0  0  0  0  0  0  0  0  0  0  0
  1  2  1  0  0  0  0
  2  3  1  0  0  0  0
  3  4  1  0  0  0  0
  4  5  1  0  0  0  0
  5  6  1  0  0  0  0
  6  7  1  0  0  0  0
  7  8  1  0  0  0  0
  8  9  1  0  0  0  0
  9 10  1  0  0  0  0
 10 11  1  0  0  0  0
 11 12  1  0  0  0  0
 12 13  1  0  0  0  0
 13 14  1  0  0  0  0
M  END
>  <CHROM.1>
179.54193123,-174.90892553,-87.39891405,-111.08329077,60.41199657,-169.45150169
66.38517914,176.83206359,-174.77125146,-64.78446662,-59.31832249,53.19863172
1.71430416,-1.53464587,-2.46800334,-0.26588974,0.49043643

>  <Name>
ligand

>  <RI>
0

>  <Rbt.Current_Directory>
/home/itssahil/PROJECTS/Mol_Feturizer/New_Systems/rnas/4E8Q

>  <Rbt.Executable>
rbdock ($Id: //depot/dev/client3/rdock/2013.1/src/exe/rbdock.cxx#4 $)

>  <Rbt.Library>
libRbt.so (2013.1, Build901 2013/11/27)

>  <Rbt.Parameter_File>
/export/apps/rDock/src/rDock_2013.1_src/data/scripts/dock_solv.prm

>  <Rbt.Receptor>
prm/pocket_docking_3.prm

>  <SCORE>
-12.666

>  <SCORE.INTER>
-1.28206

>  <SCORE.INTER.CONST>
1

>  <SCORE.INTER.POLAR>
0

>  <SCORE.INTER.ROT>
11

>  <SCORE.INTER.SOLV>
10.94

>  <SCORE.INTER.VDW>
-15.4347

>  <SCORE.INTER.norm>
-0.0915761

>  <SCORE.INTRA>
-11.4116

>  <SCORE.INTRA.DIHEDRAL>
-23.4414

>  <SCORE.INTRA.DIHEDRAL.0>
25.9209

>  <SCORE.INTRA.POLAR>
0

>  <SCORE.INTRA.POLAR.0>
0

>  <SCORE.INTRA.REPUL>
0

>  <SCORE.INTRA.REPUL.0>
0

>  <SCORE.INTRA.SOLV>
0.198171

>  <SCORE.INTRA.SOLV.lig_0>
-47.4815

>  <SCORE.INTRA.VDW>
0.210035

>  <SCORE.INTRA.VDW.0>
-1.57492

>  <SCORE.INTRA.norm>
-0.815112

>  <SCORE.RESTR>
0.0276753

>  <SCORE.RESTR.CAVITY>
0.0276753

>  <SCORE.RESTR.norm>
0.00197681

>  <SCORE.SYSTEM>
0

>  <SCORE.SYSTEM.CONST>
0

>  <SCORE.SYSTEM.DIHEDRAL>
0

>  <SCORE.SYSTEM.SOLV>
0

>  <SCORE.SYSTEM.norm>
0

>  <SCORE.heavy>
14

>  <SCORE.norm>
-0.904711

>  <RMSD>
2.708

$$$$
ligand
 OpenBabel11021811493D
libRbt.so/2013.1/901 2013/11/27
 14 13  0  0  0  0  0  0  0  0999 V2000
   57.1447    1.6612    0.6792 N   0  0  0  0  0  0  0  0  0  0  0  0
   57.4008    2.2510   -0.6291 C   0  0  0  0  0  0  0  0  0  0  0  0
   57.1808    3.7784   -0.5974 C   0  0  0  0  0  0  0  0  0  0  0  0
   55.7448    4.2132   -0.2431 C   0  0  0  0  0  0  0  0  0  0  0  0
   54.6484    3.7543   -1.1092 N   0  0  0  0  0  0  0  0  0  0  0  0
   54.5468    4.2029   -2.5024 C   0  0  0  0  0  0  0  0  0  0  0  0
   53.1235    4.4848   -2.9926 C   0  0  0  0  0  0  0  0  0  0  0  0
   52.2850    3.2059   -3.1570 C   0  0  0  0  0  0  0  0  0  0  0  0
   51.9245    2.5217   -1.8287 C   0  0  0  0  0  0  0  0  0  0  0  0
   50.9464    1.4375   -1.9438 N   0  0  0  0  0  0  0  0  0  0  0  0
   51.4034    0.0899   -2.3252 C   0  0  0  0  0  0  0  0  0  0  0  0
   50.3985   -0.7982   -3.0965 C   0  0  0  0  0  0  0  0  0  0  0  0
   50.1250   -0.3895   -4.5581 C   0  0  0  0  0  0  0  0  0  0  0  0
   49.5503    0.9471   -4.6796 N   0  0  0  0  0  0  0  0  0  0  0  0
  1  2  1  0  0  0  0
  2  3  1  0  0  0  0
  3  4  1  0  0  0  0
  4  5  1  0  0  0  0
  5  6  1  0  0  0  0
  6  7  1  0  0  0  0
  7  8  1  0  0  0  0
  8  9  1  0  0  0  0
  9 10  1  0  0  0  0
 10 11  1  0  0  0  0
 11 12  1  0  0  0  0
 12 13  1  0  0  0  0
 13 14  1  0  0  0  0
M  END
>  <CHROM.1>
-61.55480219,-59.17991863,-65.75821894,-141.24808881,-70.42489141,69.29301163
170.24839953,83.16113997,-150.42479406,71.90460447,-61.22409187,53.31601342
2.24012876,-2.07037600,-0.27046029,0.54336056,2.89336323

>  <Name>
ligand

>  <RI>
0

>  <Rbt.Current_Directory>
/home/itssahil/PROJECTS/Mol_Feturizer/New_Systems/rnas/4E8Q

>  <Rbt.Executable>
rbdock ($Id: //depot/dev/client3/rdock/2013.1/src/exe/rbdock.cxx#4 $)

>  <Rbt.Library>
libRbt.so (2013.1, Build901 2013/11/27)

>  <Rbt.Parameter_File>
/export/apps/rDock/src/rDock_2013.1_src/data/scripts/dock_solv.prm

>  <Rbt.Receptor>
prm/pocket_docking_3.prm

>  <SCORE>
-8.01721

>  <SCORE.INTER>
0.860821

>  <SCORE.INTER.CONST>
1

>  <SCORE.INTER.POLAR>
0

>  <SCORE.INTER.ROT>
11

>  <SCORE.INTER.SOLV>
8.64448

>  <SCORE.INTER.VDW>
-13.2409

>  <SCORE.INTER.norm>
0.0614872

>  <SCORE.INTRA>
-8.87803

>  <SCORE.INTRA.DIHEDRAL>
-22.4074

>  <SCORE.INTRA.DIHEDRAL.0>
25.9209

>  <SCORE.INTRA.POLAR>
0

>  <SCORE.INTRA.POLAR.0>
0

>  <SCORE.INTRA.REPUL>
0

>  <SCORE.INTRA.REPUL.0>
0

>  <SCORE.INTRA.SOLV>
3.75557

>  <SCORE.INTRA.SOLV.lig_0>
-47.4815

>  <SCORE.INTRA.VDW>
0.447895

>  <SCORE.INTRA.VDW.0>
-1.57492

>  <SCORE.INTRA.norm>
-0.634145

>  <SCORE.RESTR>
0

>  <SCORE.RESTR.CAVITY>
0

>  <SCORE.RESTR.norm>
0

>  <SCORE.SYSTEM>
0

>  <SCORE.SYSTEM.CONST>
0

>  <SCORE.SYSTEM.DIHEDRAL>
0

>  <SCORE.SYSTEM.SOLV>
0

>  <SCORE.SYSTEM.norm>
0

>  <SCORE.heavy>
14

>  <SCORE.norm>
-0.572658

>  <RMSD>
2.712

$$$$
ligand
 OpenBabel11021811493D
libRbt.so/2013.1/901 2013/11/27
 14 13  0  0  0  0  0  0  0  0999 V2000
   58.3794    2.4844    1.3597 N   0  0  0  0  0  0  0  0  0  0  0  0
   57.6111    3.4529    0.5871 C   0  0  0  0  0  0  0  0  0  0  0  0
   56.2347    2.8758    0.1932 C   0  0  0  0  0  0  0  0  0  0  0  0
   55.3247    3.8535   -0.5766 C   0  0  0  0  0  0  0  0  0  0  0  0
   54.0029    3.3752   -1.0090 N   0  0  0  0  0  0  0  0  0  0  0  0
   52.9728    3.0115   -0.0298 C   0  0  0  0  0  0  0  0  0  0  0  0
   52.3076    1.6514   -0.2605 C   0  0  0  0  0  0  0  0  0  0  0  0
   51.7355    1.5005   -1.6803 C   0  0  0  0  0  0  0  0  0  0  0  0
   51.1370    0.1141   -1.9671 C   0  0  0  0  0  0  0  0  0  0  0  0
   50.6880   -0.0857   -3.3470 N   0  0  0  0  0  0  0  0  0  0  0  0
   49.5612   -0.9961   -3.6152 C   0  0  0  0  0  0  0  0  0  0  0  0
   49.3783   -1.4727   -5.0757 C   0  0  0  0  0  0  0  0  0  0  0  0
   49.0922   -0.3674   -6.1122 C   0  0  0  0  0  0  0  0  0  0  0  0
   50.2052    0.5629   -6.2774 N   0  0  0  0  0  0  0  0  0  0  0  0
  1  2  1  0  0  0  0
  2  3  1  0  0  0  0
  3  4  1  0  0  0  0
  4  5  1  0  0  0  0
  5  6  1  0  0  0  0
  6  7  1  0  0  0  0
  7  8  1  0  0  0  0
  8  9  1  0  0  0  0
  9 10  1  0  0  0  0
 10 11  1  0  0  0  0
 11 12  1  0  0  0  0
 12 13  1  0  0  0  0
 13 14  1  0  0  0  0
M  END
>  <CHROM.1>
177.48789744,179.01606610,65.04861095,-130.57418956,-53.59722893,176.50787075
-175.16341017,-149.78316220,-163.61459058,-62.08482414,65.00004756,52.75909463
1.42567548,-1.98634055,-0.63850411,-0.43750557,-1.64960060

>  <Name>
ligand

>  <RI>
0

>  <Rbt.Current_Directory>
/home/itssahil/PROJECTS/Mol_Feturizer/New_Systems/rnas/4E8Q

>  <Rbt.Executable>
rbdock ($Id: //depot/dev/client3/rdock/2013.1/src/exe/rbdock.cxx#4 $)

>  <Rbt.Library>
libRbt.so (2013.1, Build901 2013/11/27)

>  <Rbt.Parameter_File>
/export/apps/rDock/src/rDock_2013.1_src/data/scripts/dock_solv.prm

>  <Rbt.Receptor>
prm/pocket_docking_3.prm

>  <SCORE>
-9.53638

>  <SCORE.INTER>
1.4618

>  <SCORE.INTER.CONST>
1

>  <SCORE.INTER.POLAR>
0

>  <SCORE.INTER.ROT>
11

>  <SCORE.INTER.SOLV>
8.74932

>  <SCORE.INTER.VDW>
-12.8752

>  <SCORE.INTER.norm>
0.104414

>  <SCORE.INTRA>
-10.9982

>  <SCORE.INTRA.DIHEDRAL>
-23.5446

>  <SCORE.INTRA.DIHEDRAL.0>
25.9209

>  <SCORE.INTRA.POLAR>
0

>  <SCORE.INTRA.POLAR.0>
0

>  <SCORE.INTRA.REPUL>
0

>  <SCORE.INTRA.REPUL.0>
0

>  <SCORE.INTRA.SOLV>
0.815153

>  <SCORE.INTRA.SOLV.lig_0>
-47.4815

>  <SCORE.INTRA.VDW>
0.366556

>  <SCORE.INTRA.VDW.0>
-1.57492

>  <SCORE.INTRA.norm>
-0.785584

>  <SCORE.RESTR>
0

>  <SCORE.RESTR.CAVITY>
0

>  <SCORE.RESTR.norm>
0

>  <SCORE.SYSTEM>
0

>  <SCORE.SYSTEM.CONST>
0

>  <SCORE.SYSTEM.DIHEDRAL>
0

>  <SCORE.SYSTEM.SOLV>
0

>  <SCORE.SYSTEM.norm>
0

>  <SCORE.heavy>
14

>  <SCORE.norm>
-0.68117

>  <RMSD>
2.720

$$$$
ligand
 OpenBabel11021811493D
libRbt.so/2013.1/901 2013/11/27
 14 13  0  0  0  0  0  0  0  0999 V2000
   56.3662    1.0632    4.3610 N   0  0  0  0  0  0  0  0  0  0  0  0
   55.5854   -0.1024    3.9648 C   0  0  0  0  0  0  0  0  0  0  0  0
   55.0655    0.0483    2.5194 C   0  0  0  0  0  0  0  0  0  0  0  0
   54.1021    1.2324    2.3035 C   0  0  0  0  0  0  0  0  0  0  0  0
   53.5759    1.4594    0.9491 N   0  0  0  0  0  0  0  0  0  0  0  0
   52.3072    2.1658    0.7392 C   0  0  0  0  0  0  0  0  0  0  0  0
   51.8333    2.2330   -0.7155 C   0  0  0  0  0  0  0  0  0  0  0  0
   51.6506    0.8428   -1.3480 C   0  0  0  0  0  0  0  0  0  0  0  0
   51.3821    0.8768   -2.8611 C   0  0  0  0  0  0  0  0  0  0  0  0
   51.2269   -0.4392   -3.4853 N   0  0  0  0  0  0  0  0  0  0  0  0
   49.8743   -0.9455   -3.7763 C   0  0  0  0  0  0  0  0  0  0  0  0
   48.9475   -0.0288   -4.6095 C   0  0  0  0  0  0  0  0  0  0  0  0
   49.5049    0.4299   -5.9722 C   0  0  0  0  0  0  0  0  0  0  0  0
   49.6659   -0.6670   -6.9221 N   0  0  0  0  0  0  0  0  0  0  0  0
  1  2  1  0  0  0  0
  2  3  1  0  0  0  0
  3  4  1  0  0  0  0
  4  5  1  0  0  0  0
  5  6  1  0  0  0  0
  6  7  1  0  0  0  0
  7  8  1  0  0  0  0
  8  9  1  0  0  0  0
  9 10  1  0  0  0  0
 10 11  1  0  0  0  0
 11 12  1  0  0  0  0
 12 13  1  0  0  0  0
 13 14  1  0  0  0  0
M  END
>  <CHROM.1>
-62.65828732,179.09324874,155.41891440,-175.49784885,58.31723625,-171.28790710
179.05916462,100.35180554,53.58566820,55.32146904,66.42257579,52.22035081
0.58356705,-1.06083405,-0.58323072,0.87178082,-2.54634792

>  <Name>
ligand

>  <RI>
0

>  <Rbt.Current_Directory>
/home/itssahil/PROJECTS/Mol_Feturizer/New_Systems/rnas/4E8Q

>  <Rbt.Executable>
rbdock ($Id: //depot/dev/client3/rdock/2013.1/src/exe/rbdock.cxx#4 $)

>  <Rbt.Library>
libRbt.so (2013.1, Build901 2013/11/27)

>  <Rbt.Parameter_File>
/export/apps/rDock/src/rDock_2013.1_src/data/scripts/dock_solv.prm

>  <Rbt.Receptor>
prm/pocket_docking_3.prm

>  <SCORE>
-11.5019

>  <SCORE.INTER>
-0.620564

>  <SCORE.INTER.CONST>
1

>  <SCORE.INTER.POLAR>
0

>  <SCORE.INTER.ROT>
11

>  <SCORE.INTER.SOLV>
10.2385

>  <SCORE.INTER.VDW>
-14.7599

>  <SCORE.INTER.norm>
-0.044326

>  <SCORE.INTRA>
-10.8954

>  <SCORE.INTRA.DIHEDRAL>
-23.9355

>  <SCORE.INTRA.DIHEDRAL.0>
25.9209

>  <SCORE.INTRA.POLAR>
0

>  <SCORE.INTRA.POLAR.0>
0

>  <SCORE.INTRA.REPUL>
0

>  <SCORE.INTRA.REPUL.0>
0

>  <SCORE.INTRA.SOLV>
0.588512

>  <SCORE.INTRA.SOLV.lig_0>
-47.4815

>  <SCORE.INTRA.VDW>
0.778107

>  <SCORE.INTRA.VDW.0>
-1.57492

>  <SCORE.INTRA.norm>
-0.778242

>  <SCORE.RESTR>
0.0140364

>  <SCORE.RESTR.CAVITY>
0.0140364

>  <SCORE.RESTR.norm>
0.0010026

>  <SCORE.SYSTEM>
0

>  <SCORE.SYSTEM.CONST>
0

>  <SCORE.SYSTEM.DIHEDRAL>
0

>  <SCORE.SYSTEM.SOLV>
0

>  <SCORE.SYSTEM.norm>
0

>  <SCORE.heavy>
14

>  <SCORE.norm>
-0.821565

>  <RMSD>
2.723

$$$$
ligand
 OpenBabel11021811493D
libRbt.so/2013.1/901 2013/11/27
 14 13  0  0  0  0  0  0  0  0999 V2000
   58.7944   -0.4114    2.4043 N   0  0  0  0  0  0  0  0  0  0  0  0
   58.1290   -0.7561    1.1539 C   0  0  0  0  0  0  0  0  0  0  0  0
   57.2582    0.4154    0.6521 C   0  0  0  0  0  0  0  0  0  0  0  0
   56.0755    0.7767    1.5726 C   0  0  0  0  0  0  0  0  0  0  0  0
   55.2017    1.8901    1.1731 N   0  0  0  0  0  0  0  0  0  0  0  0
   54.4613    2.6669    2.1735 C   0  0  0  0  0  0  0  0  0  0  0  0
   52.9467    2.4399    2.1826 C   0  0  0  0  0  0  0  0  0  0  0  0
   52.2482    3.0273    0.9445 C   0  0  0  0  0  0  0  0  0  0  0  0
   52.5376    2.2618   -0.3565 C   0  0  0  0  0  0  0  0  0  0  0  0
   52.0178    0.8928   -0.3902 N   0  0  0  0  0  0  0  0  0  0  0  0
   51.0446    0.5151   -1.4297 C   0  0  0  0  0  0  0  0  0  0  0  0
   51.6147   -0.0713   -2.7430 C   0  0  0  0  0  0  0  0  0  0  0  0
   50.5718   -0.5324   -3.7812 C   0  0  0  0  0  0  0  0  0  0  0  0
   49.8022    0.5717   -4.3472 N   0  0  0  0  0  0  0  0  0  0  0  0
  1  2  1  0  0  0  0
  2  3  1  0  0  0  0
  3  4  1  0  0  0  0
  4  5  1  0  0  0  0
  5  6  1  0  0  0  0
  6  7  1  0  0  0  0
  7  8  1  0  0  0  0
  8  9  1  0  0  0  0
  9 10  1  0  0  0  0
 10 11  1  0  0  0  0
 11 12  1  0  0  0  0
 12 13  1  0  0  0  0
 13 14  1  0  0  0  0
M  END
>  <CHROM.1>
-64.46155439,179.49702164,-153.35166658,-109.18194639,-70.24048073,70.97604137
65.30350851,119.97460372,91.55357343,176.64728824,67.10770948,53.76446217
0.97770955,-0.05641837,-0.45893350,0.42334335,-2.26331238

>  <Name>
ligand

>  <RI>
0

>  <Rbt.Current_Directory>
/home/itssahil/PROJECTS/Mol_Feturizer/New_Systems/rnas/4E8Q

>  <Rbt.Executable>
rbdock ($Id: //depot/dev/client3/rdock/2013.1/src/exe/rbdock.cxx#4 $)

>  <Rbt.Library>
libRbt.so (2013.1, Build901 2013/11/27)

>  <Rbt.Parameter_File>
/export/apps/rDock/src/rDock_2013.1_src/data/scripts/dock_solv.prm

>  <Rbt.Receptor>
prm/pocket_docking_3.prm

>  <SCORE>
-8.68389

>  <SCORE.INTER>
0.912811

>  <SCORE.INTER.CONST>
1

>  <SCORE.INTER.POLAR>
0

>  <SCORE.INTER.ROT>
11

>  <SCORE.INTER.SOLV>
9.86833

>  <SCORE.INTER.VDW>
-13.6142

>  <SCORE.INTER.norm>
0.0652008

>  <SCORE.INTRA>
-9.59784

>  <SCORE.INTRA.DIHEDRAL>
-21.1787

>  <SCORE.INTRA.DIHEDRAL.0>
25.9209

>  <SCORE.INTRA.POLAR>
0

>  <SCORE.INTRA.POLAR.0>
0

>  <SCORE.INTRA.REPUL>
0

>  <SCORE.INTRA.REPUL.0>
0

>  <SCORE.INTRA.SOLV>
1.07492

>  <SCORE.INTRA.SOLV.lig_0>
-47.4815

>  <SCORE.INTRA.VDW>
0.454045

>  <SCORE.INTRA.VDW.0>
-1.57492

>  <SCORE.INTRA.norm>
-0.68556

>  <SCORE.RESTR>
0.00114076

>  <SCORE.RESTR.CAVITY>
0.00114076

>  <SCORE.RESTR.norm>
8.1483e-05

>  <SCORE.SYSTEM>
0

>  <SCORE.SYSTEM.CONST>
0

>  <SCORE.SYSTEM.DIHEDRAL>
0

>  <SCORE.SYSTEM.SOLV>
0

>  <SCORE.SYSTEM.norm>
0

>  <SCORE.heavy>
14

>  <SCORE.norm>
-0.620278

>  <RMSD>
2.753

$$$$
ligand
 OpenBabel11021811493D
libRbt.so/2013.1/901 2013/11/27
 14 13  0  0  0  0  0  0  0  0999 V2000
   57.1984    2.3777   -0.6072 N   0  0  0  0  0  0  0  0  0  0  0  0
   57.5702    3.7143   -1.0549 C   0  0  0  0  0  0  0  0  0  0  0  0
   56.5246    4.7567   -0.6050 C   0  0  0  0  0  0  0  0  0  0  0  0
   55.1430    4.6102   -1.2731 C   0  0  0  0  0  0  0  0  0  0  0  0
   54.3925    3.3659   -1.0470 N   0  0  0  0  0  0  0  0  0  0  0  0
   53.8164    3.0584    0.2669 C   0  0  0  0  0  0  0  0  0  0  0  0
   52.2871    3.1050    0.3334 C   0  0  0  0  0  0  0  0  0  0  0  0
   51.6196    2.0069   -0.5119 C   0  0  0  0  0  0  0  0  0  0  0  0
   51.7620    2.2144   -2.0283 C   0  0  0  0  0  0  0  0  0  0  0  0
   50.8820    1.3767   -2.8464 N   0  0  0  0  0  0  0  0  0  0  0  0
   51.2427   -0.0315   -3.0857 C   0  0  0  0  0  0  0  0  0  0  0  0
   50.0820   -1.0533   -3.1339 C   0  0  0  0  0  0  0  0  0  0  0  0
   48.9770   -0.7661   -4.1705 C   0  0  0  0  0  0  0  0  0  0  0  0
   49.4637   -0.7926   -5.5467 N   0  0  0  0  0  0  0  0  0  0  0  0
  1  2  1  0  0  0  0
  2  3  1  0  0  0  0
  3  4  1  0  0  0  0
  4  5  1  0  0  0  0
  5  6  1  0  0  0  0
  6  7  1  0  0  0  0
  7  8  1  0  0  0  0
  8  9  1  0  0  0  0
  9 10  1  0  0  0  0
 10 11  1  0  0  0  0
 11 12  1  0  0  0  0
 12 13  1  0  0  0  0
 13 14  1  0  0  0  0
M  END
>  <CHROM.1>
-67.04126446,61.94608138,69.95125683,110.49840098,66.20145223,-69.97177053
-166.20704825,-78.99513356,143.39629484,56.63565969,62.75364256,52.92575929
1.99606206,-1.80758546,-0.67219817,-0.22491462,-2.20569653

>  <Name>
ligand

>  <RI>
0

>  <Rbt.Current_Directory>
/home/itssahil/PROJECTS/Mol_Feturizer/New_Systems/rnas/4E8Q

>  <Rbt.Executable>
rbdock ($Id: //depot/dev/client3/rdock/2013.1/src/exe/rbdock.cxx#4 $)

>  <Rbt.Library>
libRbt.so (2013.1, Build901 2013/11/27)

>  <Rbt.Parameter_File>
/export/apps/rDock/src/rDock_2013.1_src/data/scripts/dock_solv.prm

>  <Rbt.Receptor>
prm/pocket_docking_6.prm

>  <SCORE>
-9.22961

>  <SCORE.INTER>
-0.513486

>  <SCORE.INTER.CONST>
1

>  <SCORE.INTER.POLAR>
0

>  <SCORE.INTER.ROT>
11

>  <SCORE.INTER.SOLV>
9.48314

>  <SCORE.INTER.VDW>
-14.4367

>  <SCORE.INTER.norm>
-0.0366776

>  <SCORE.INTRA>
-8.71612

>  <SCORE.INTRA.DIHEDRAL>
-22.1255

>  <SCORE.INTRA.DIHEDRAL.0>
25.9209

>  <SCORE.INTRA.POLAR>
0

>  <SCORE.INTRA.POLAR.0>
0

>  <SCORE.INTRA.REPUL>
0

>  <SCORE.INTRA.REPUL.0>
0

>  <SCORE.INTRA.SOLV>
3.57116

>  <SCORE.INTRA.SOLV.lig_0>
-47.4815

>  <SCORE.INTRA.VDW>
0.561047

>  <SCORE.INTRA.VDW.0>
-1.57492

>  <SCORE.INTRA.norm>
-0.62258

>  <SCORE.RESTR>
0

>  <SCORE.RESTR.CAVITY>
0

>  <SCORE.RESTR.norm>
0

>  <SCORE.SYSTEM>
0

>  <SCORE.SYSTEM.CONST>
0

>  <SCORE.SYSTEM.DIHEDRAL>
0

>  <SCORE.SYSTEM.SOLV>
0

>  <SCORE.SYSTEM.norm>
0

>  <SCORE.heavy>
14

>  <SCORE.norm>
-0.659258

>  <RMSD>
2.861

$$$$
ligand
 OpenBabel11021811493D
libRbt.so/2013.1/901 2013/11/27
 14 13  0  0  0  0  0  0  0  0999 V2000
   51.1698    1.0524   -7.4802 N   0  0  0  0  0  0  0  0  0  0  0  0
   51.2681    0.5148   -6.1287 C   0  0  0  0  0  0  0  0  0  0  0  0
   49.9373   -0.1375   -5.6972 C   0  0  0  0  0  0  0  0  0  0  0  0
   49.9631   -0.7845   -4.2982 C   0  0  0  0  0  0  0  0  0  0  0  0
   50.2361    0.0798   -3.1401 N   0  0  0  0  0  0  0  0  0  0  0  0
   51.4412   -0.1071   -2.3244 C   0  0  0  0  0  0  0  0  0  0  0  0
   51.3953    0.5422   -0.9381 C   0  0  0  0  0  0  0  0  0  0  0  0
   51.4306    2.0787   -0.9978 C   0  0  0  0  0  0  0  0  0  0  0  0
   51.2304    2.7603    0.3653 C   0  0  0  0  0  0  0  0  0  0  0  0
   52.2575    2.4497    1.3623 N   0  0  0  0  0  0  0  0  0  0  0  0
   53.6248    2.9655    1.1755 C   0  0  0  0  0  0  0  0  0  0  0  0
   54.4250    3.3078    2.4545 C   0  0  0  0  0  0  0  0  0  0  0  0
   54.6721    2.1359    3.4260 C   0  0  0  0  0  0  0  0  0  0  0  0
   55.3875    1.0230    2.8086 N   0  0  0  0  0  0  0  0  0  0  0  0
  1  2  1  0  0  0  0
  2  3  1  0  0  0  0
  3  4  1  0  0  0  0
  4  5  1  0  0  0  0
  5  6  1  0  0  0  0
  6  7  1  0  0  0  0
  7  8  1  0  0  0  0
  8  9  1  0  0  0  0
  9 10  1  0  0  0  0
 10 11  1  0  0  0  0
 11 12  1  0  0  0  0
 12 13  1  0  0  0  0
 13 14  1  0  0  0  0
M  END
>  <CHROM.1>
177.72027308,61.33801586,-115.79438175,-161.92427618,-69.32413368,173.63266722
61.84244776,69.04679284,147.65589149,60.56807414,58.30165033,52.03125345
1.27725794,-1.38650863,-2.03604492,0.51458354,1.54496323

>  <Name>
ligand

>  <RI>
0

>  <Rbt.Current_Directory>
/home/itssahil/PROJECTS/Mol_Feturizer/New_Systems/rnas/4E8Q

>  <Rbt.Executable>
rbdock ($Id: //depot/dev/client3/rdock/2013.1/src/exe/rbdock.cxx#4 $)

>  <Rbt.Library>
libRbt.so (2013.1, Build901 2013/11/27)

>  <Rbt.Parameter_File>
/export/apps/rDock/src/rDock_2013.1_src/data/scripts/dock_solv.prm

>  <Rbt.Receptor>
prm/pocket_docking_3.prm

>  <SCORE>
-9.20303

>  <SCORE.INTER>
1.80759

>  <SCORE.INTER.CONST>
1

>  <SCORE.INTER.POLAR>
0

>  <SCORE.INTER.ROT>
11

>  <SCORE.INTER.SOLV>
5.90778

>  <SCORE.INTER.VDW>
-11.6975

>  <SCORE.INTER.norm>
0.129114

>  <SCORE.INTRA>
-11.0142

>  <SCORE.INTRA.DIHEDRAL>
-23.2043

>  <SCORE.INTRA.DIHEDRAL.0>
25.9209

>  <SCORE.INTRA.POLAR>
0

>  <SCORE.INTRA.POLAR.0>
0

>  <SCORE.INTRA.REPUL>
0

>  <SCORE.INTRA.REPUL.0>
0

>  <SCORE.INTRA.SOLV>
0.516624

>  <SCORE.INTRA.SOLV.lig_0>
-47.4815

>  <SCORE.INTRA.VDW>
0.329641

>  <SCORE.INTRA.VDW.0>
-1.57492

>  <SCORE.INTRA.norm>
-0.786729

>  <SCORE.RESTR>
0.00358739

>  <SCORE.RESTR.CAVITY>
0.00358739

>  <SCORE.RESTR.norm>
0.000256242

>  <SCORE.SYSTEM>
0

>  <SCORE.SYSTEM.CONST>
0

>  <SCORE.SYSTEM.DIHEDRAL>
0

>  <SCORE.SYSTEM.SOLV>
0

>  <SCORE.SYSTEM.norm>
0

>  <SCORE.heavy>
14

>  <SCORE.norm>
-0.657359

>  <RMSD>
2.878

$$$$
ligand
 OpenBabel11021811493D
libRbt.so/2013.1/901 2013/11/27
 14 13  0  0  0  0  0  0  0  0999 V2000
   57.1084    3.0044    1.5021 N   0  0  0  0  0  0  0  0  0  0  0  0
   58.0109    3.1681    0.3690 C   0  0  0  0  0  0  0  0  0  0  0  0
   57.2217    3.4458   -0.9281 C   0  0  0  0  0  0  0  0  0  0  0  0
   56.4275    4.7672   -0.9263 C   0  0  0  0  0  0  0  0  0  0  0  0
   55.5676    5.0603   -2.0828 N   0  0  0  0  0  0  0  0  0  0  0  0
   54.1172    4.8482   -2.0199 C   0  0  0  0  0  0  0  0  0  0  0  0
   53.6771    3.3836   -1.9393 C   0  0  0  0  0  0  0  0  0  0  0  0
   52.1510    3.2245   -1.8318 C   0  0  0  0  0  0  0  0  0  0  0  0
   51.6862    1.7690   -1.6640 C   0  0  0  0  0  0  0  0  0  0  0  0
   51.9491    0.9052   -2.8173 N   0  0  0  0  0  0  0  0  0  0  0  0
   51.0989   -0.2766   -3.0434 C   0  0  0  0  0  0  0  0  0  0  0  0
   50.1484   -0.2325   -4.2633 C   0  0  0  0  0  0  0  0  0  0  0  0
   49.2499   -1.4703   -4.4599 C   0  0  0  0  0  0  0  0  0  0  0  0
   48.4941   -1.4352   -5.7084 N   0  0  0  0  0  0  0  0  0  0  0  0
  1  2  1  0  0  0  0
  2  3  1  0  0  0  0
  3  4  1  0  0  0  0
  4  5  1  0  0  0  0
  5  6  1  0  0  0  0
  6  7  1  0  0  0  0
  7  8  1  0  0  0  0
  8  9  1  0  0  0  0
  9 10  1  0  0  0  0
 10 11  1  0  0  0  0
 11 12  1  0  0  0  0
 12 13  1  0  0  0  0
 13 14  1  0  0  0  0
M  END
>  <CHROM.1>
63.99837886,-175.48556952,100.87689553,-68.62464699,178.22261934,-176.50404806
-65.69369275,-154.11778731,110.47717931,-178.81777297,-173.26345438,53.35059190
2.15452636,-2.12948597,-0.40362280,0.60920397,2.91707177

>  <Name>
ligand

>  <RI>
0

>  <Rbt.Current_Directory>
/home/itssahil/PROJECTS/Mol_Feturizer/New_Systems/rnas/4E8Q

>  <Rbt.Executable>
rbdock ($Id: //depot/dev/client3/rdock/2013.1/src/exe/rbdock.cxx#4 $)

>  <Rbt.Library>
libRbt.so (2013.1, Build901 2013/11/27)

>  <Rbt.Parameter_File>
/export/apps/rDock/src/rDock_2013.1_src/data/scripts/dock_solv.prm

>  <Rbt.Receptor>
prm/pocket_docking_5.prm

>  <SCORE>
-12.3517

>  <SCORE.INTER>
-0.80395

>  <SCORE.INTER.CONST>
1

>  <SCORE.INTER.POLAR>
0

>  <SCORE.INTER.ROT>
11

>  <SCORE.INTER.SOLV>
9.42921

>  <SCORE.INTER.VDW>
-14.6124

>  <SCORE.INTER.norm>
-0.057425

>  <SCORE.INTRA>
-11.5477

>  <SCORE.INTRA.DIHEDRAL>
-22.8416

>  <SCORE.INTRA.DIHEDRAL.0>
25.9209

>  <SCORE.INTRA.POLAR>
0

>  <SCORE.INTRA.POLAR.0>
0

>  <SCORE.INTRA.REPUL>
0

>  <SCORE.INTRA.REPUL.0>
0

>  <SCORE.INTRA.SOLV>
-1.11984

>  <SCORE.INTRA.SOLV.lig_0>
-47.4815

>  <SCORE.INTRA.VDW>
0.432996

>  <SCORE.INTRA.VDW.0>
-1.57492

>  <SCORE.INTRA.norm>
-0.824838

>  <SCORE.RESTR>
0

>  <SCORE.RESTR.CAVITY>
0

>  <SCORE.RESTR.norm>
0

>  <SCORE.SYSTEM>
0

>  <SCORE.SYSTEM.CONST>
0

>  <SCORE.SYSTEM.DIHEDRAL>
0

>  <SCORE.SYSTEM.SOLV>
0

>  <SCORE.SYSTEM.norm>
0

>  <SCORE.heavy>
14

>  <SCORE.norm>
-0.882263

>  <RMSD>
2.881

$$$$
ligand
 OpenBabel11021811493D
libRbt.so/2013.1/901 2013/11/27
 14 13  0  0  0  0  0  0  0  0999 V2000
   57.6985    2.5059    0.3132 N   0  0  0  0  0  0  0  0  0  0  0  0
   57.3366    3.6160   -0.5598 C   0  0  0  0  0  0  0  0  0  0  0  0
   55.8221    3.6111   -0.8579 C   0  0  0  0  0  0  0  0  0  0  0  0
   54.9240    3.8357    0.3749 C   0  0  0  0  0  0  0  0  0  0  0  0
   53.4735    3.6513    0.2181 N   0  0  0  0  0  0  0  0  0  0  0  0
   52.8589    2.3274    0.3677 C   0  0  0  0  0  0  0  0  0  0  0  0
   52.0761    1.8324   -0.8520 C   0  0  0  0  0  0  0  0  0  0  0  0
   51.5286    0.4065   -0.6707 C   0  0  0  0  0  0  0  0  0  0  0  0
   50.7827   -0.1360   -1.9003 C   0  0  0  0  0  0  0  0  0  0  0  0
   51.6111   -0.2970   -3.0975 N   0  0  0  0  0  0  0  0  0  0  0  0
   50.9922   -0.1623   -4.4276 C   0  0  0  0  0  0  0  0  0  0  0  0
   50.8540    1.2708   -4.9938 C   0  0  0  0  0  0  0  0  0  0  0  0
   50.1538    1.3876   -6.3628 C   0  0  0  0  0  0  0  0  0  0  0  0
   50.1196    2.7553   -6.8723 N   0  0  0  0  0  0  0  0  0  0  0  0
  1  2  1  0  0  0  0
  2  3  1  0  0  0  0
  3  4  1  0  0  0  0
  4  5  1  0  0  0  0
  5  6  1  0  0  0  0
  6  7  1  0  0  0  0
  7  8  1  0  0  0  0
  8  9  1  0  0  0  0
  9 10  1  0  0  0  0
 10 11  1  0  0  0  0
 11 12  1  0  0  0  0
 12 13  1  0  0  0  0
 13 14  1  0  0  0  0
M  END
>  <CHROM.1>
64.02751832,-171.22769938,86.30188105,-121.96661409,176.45255217,-177.85062950
63.89245698,-150.46511694,84.45321783,-177.72137990,-176.92725557,52.87353975
1.90022600,-2.09423169,-0.57916213,-0.59346491,-1.27049835

>  <Name>
ligand

>  <RI>
0

>  <Rbt.Current_Directory>
/home/itssahil/PROJECTS/Mol_Feturizer/New_Systems/rnas/4E8Q

>  <Rbt.Executable>
rbdock ($Id: //depot/dev/client3/rdock/2013.1/src/exe/rbdock.cxx#4 $)

>  <Rbt.Library>
libRbt.so (2013.1, Build901 2013/11/27)

>  <Rbt.Parameter_File>
/export/apps/rDock/src/rDock_2013.1_src/data/scripts/dock_solv.prm

>  <Rbt.Receptor>
prm/pocket_docking_3.prm

>  <SCORE>
-10.4183

>  <SCORE.INTER>
1.18259

>  <SCORE.INTER.CONST>
1

>  <SCORE.INTER.POLAR>
0

>  <SCORE.INTER.ROT>
11

>  <SCORE.INTER.SOLV>
9.59105

>  <SCORE.INTER.VDW>
-13.342

>  <SCORE.INTER.norm>
0.0844707

>  <SCORE.INTRA>
-11.6009

>  <SCORE.INTRA.DIHEDRAL>
-22.6995

>  <SCORE.INTRA.DIHEDRAL.0>
25.9209

>  <SCORE.INTRA.POLAR>
0

>  <SCORE.INTRA.POLAR.0>
0

>  <SCORE.INTRA.REPUL>
0

>  <SCORE.INTRA.REPUL.0>
0

>  <SCORE.INTRA.SOLV>
-1.07449

>  <SCORE.INTRA.SOLV.lig_0>
-47.4815

>  <SCORE.INTRA.VDW>
0.286121

>  <SCORE.INTRA.VDW.0>
-1.57492

>  <SCORE.INTRA.norm>
-0.828635

>  <SCORE.RESTR>
0

>  <SCORE.RESTR.CAVITY>
0

>  <SCORE.RESTR.norm>
0

>  <SCORE.SYSTEM>
0

>  <SCORE.SYSTEM.CONST>
0

>  <SCORE.SYSTEM.DIHEDRAL>
0

>  <SCORE.SYSTEM.SOLV>
0

>  <SCORE.SYSTEM.norm>
0

>  <SCORE.heavy>
14

>  <SCORE.norm>
-0.744165

>  <RMSD>
2.891

$$$$
ligand
 OpenBabel11021811493D
libRbt.so/2013.1/901 2013/11/27
 14 13  0  0  0  0  0  0  0  0999 V2000
   49.9190   -0.1343   -6.5820 N   0  0  0  0  0  0  0  0  0  0  0  0
   50.8521   -0.4242   -5.5001 C   0  0  0  0  0  0  0  0  0  0  0  0
   50.3293    0.1311   -4.1582 C   0  0  0  0  0  0  0  0  0  0  0  0
   51.2764   -0.0848   -2.9611 C   0  0  0  0  0  0  0  0  0  0  0  0
   50.9014    0.5030   -1.6662 N   0  0  0  0  0  0  0  0  0  0  0  0
   51.8091    0.4389   -0.5153 C   0  0  0  0  0  0  0  0  0  0  0  0
   52.3868    1.7845   -0.0670 C   0  0  0  0  0  0  0  0  0  0  0  0
   53.4735    1.6373    1.0116 C   0  0  0  0  0  0  0  0  0  0  0  0
   54.2472    2.9342    1.2980 C   0  0  0  0  0  0  0  0  0  0  0  0
   55.4398    2.7647    2.1313 N   0  0  0  0  0  0  0  0  0  0  0  0
   56.6175    2.0760    1.5752 C   0  0  0  0  0  0  0  0  0  0  0  0
   57.6763    2.9571    0.8708 C   0  0  0  0  0  0  0  0  0  0  0  0
   57.2420    3.5885   -0.4674 C   0  0  0  0  0  0  0  0  0  0  0  0
   56.2064    4.6054   -0.3099 N   0  0  0  0  0  0  0  0  0  0  0  0
  1  2  1  0  0  0  0
  2  3  1  0  0  0  0
  3  4  1  0  0  0  0
  4  5  1  0  0  0  0
  5  6  1  0  0  0  0
  6  7  1  0  0  0  0
  7  8  1  0  0  0  0
  8  9  1  0  0  0  0
  9 10  1  0  0  0  0
 10 11  1  0  0  0  0
 11 12  1  0  0  0  0
 12 13  1  0  0  0  0
 13 14  1  0  0  0  0
M  END
>  <CHROM.1>
-177.93241716,175.46220217,-174.58298910,112.25933480,-172.13182310,169.52596342
-169.21548599,70.25969587,90.76441103,-69.11564200,68.14708038,53.45560736
1.62683241,-1.09552165,-2.43036262,0.48180320,1.54526103

>  <Name>
ligand

>  <RI>
0

>  <Rbt.Current_Directory>
/home/itssahil/PROJECTS/Mol_Feturizer/New_Systems/rnas/4E8Q

>  <Rbt.Executable>
rbdock ($Id: //depot/dev/client3/rdock/2013.1/src/exe/rbdock.cxx#4 $)

>  <Rbt.Library>
libRbt.so (2013.1, Build901 2013/11/27)

>  <Rbt.Parameter_File>
/export/apps/rDock/src/rDock_2013.1_src/data/scripts/dock_solv.prm

>  <Rbt.Receptor>
prm/pocket_docking_3.prm

>  <SCORE>
-9.16123

>  <SCORE.INTER>
0.835857

>  <SCORE.INTER.CONST>
1

>  <SCORE.INTER.POLAR>
0

>  <SCORE.INTER.ROT>
11

>  <SCORE.INTER.SOLV>
9.03415

>  <SCORE.INTER.VDW>
-13.3875

>  <SCORE.INTER.norm>
0.0597041

>  <SCORE.INTRA>
-9.99708

>  <SCORE.INTRA.DIHEDRAL>
-22.2794

>  <SCORE.INTRA.DIHEDRAL.0>
25.9209

>  <SCORE.INTRA.POLAR>
0

>  <SCORE.INTRA.POLAR.0>
0

>  <SCORE.INTRA.REPUL>
0

>  <SCORE.INTRA.REPUL.0>
0

>  <SCORE.INTRA.SOLV>
1.59686

>  <SCORE.INTRA.SOLV.lig_0>
-47.4815

>  <SCORE.INTRA.VDW>
0.344189

>  <SCORE.INTRA.VDW.0>
-1.57492

>  <SCORE.INTRA.norm>
-0.714077

>  <SCORE.RESTR>
0

>  <SCORE.RESTR.CAVITY>
0

>  <SCORE.RESTR.norm>
0

>  <SCORE.SYSTEM>
0

>  <SCORE.SYSTEM.CONST>
0

>  <SCORE.SYSTEM.DIHEDRAL>
0

>  <SCORE.SYSTEM.SOLV>
0

>  <SCORE.SYSTEM.norm>
0

>  <SCORE.heavy>
14

>  <SCORE.norm>
-0.654373

>  <RMSD>
2.902

$$$$
ligand
 OpenBabel11021811493D
libRbt.so/2013.1/901 2013/11/27
 14 13  0  0  0  0  0  0  0  0999 V2000
   48.6409   -0.0221   -5.1986 N   0  0  0  0  0  0  0  0  0  0  0  0
   49.4642    1.0878   -4.7343 C   0  0  0  0  0  0  0  0  0  0  0  0
   50.8908    0.6092   -4.3904 C   0  0  0  0  0  0  0  0  0  0  0  0
   50.9601   -0.4582   -3.2802 C   0  0  0  0  0  0  0  0  0  0  0  0
   50.6713   -0.0417   -1.8997 N   0  0  0  0  0  0  0  0  0  0  0  0
   51.7388    0.4411   -1.0165 C   0  0  0  0  0  0  0  0  0  0  0  0
   52.0879    1.9244   -1.1690 C   0  0  0  0  0  0  0  0  0  0  0  0
   51.0511    2.8517   -0.5124 C   0  0  0  0  0  0  0  0  0  0  0  0
   51.0180    2.7625    1.0218 C   0  0  0  0  0  0  0  0  0  0  0  0
   52.2847    3.0872    1.6817 N   0  0  0  0  0  0  0  0  0  0  0  0
   52.4169    2.8778    3.1340 C   0  0  0  0  0  0  0  0  0  0  0  0
   53.8080    2.4461    3.6555 C   0  0  0  0  0  0  0  0  0  0  0  0
   54.3234    1.0848    3.1464 C   0  0  0  0  0  0  0  0  0  0  0  0
   55.5919    0.6911    3.7524 N   0  0  0  0  0  0  0  0  0  0  0  0
  1  2  1  0  0  0  0
  2  3  1  0  0  0  0
  3  4  1  0  0  0  0
  4  5  1  0  0  0  0
  5  6  1  0  0  0  0
  6  7  1  0  0  0  0
  7  8  1  0  0  0  0
  8  9  1  0  0  0  0
  9 10  1  0  0  0  0
 10 11  1  0  0  0  0
 11 12  1  0  0  0  0
 12 13  1  0  0  0  0
 13 14  1  0  0  0  0
M  END
>  <CHROM.1>
-60.27854103,-71.34715130,-89.66581081,83.87951076,76.15273519,67.84468629
59.08492200,-172.63241283,146.18101110,-62.77852489,-175.66656417,51.78199122
1.38174248,-0.41495409,2.25338134,0.75763477,-2.29245647

>  <Name>
ligand

>  <RI>
0

>  <Rbt.Current_Directory>
/home/itssahil/PROJECTS/Mol_Feturizer/New_Systems/rnas/4E8Q

>  <Rbt.Executable>
rbdock ($Id: //depot/dev/client3/rdock/2013.1/src/exe/rbdock.cxx#4 $)

>  <Rbt.Library>
libRbt.so (2013.1, Build901 2013/11/27)

>  <Rbt.Parameter_File>
/export/apps/rDock/src/rDock_2013.1_src/data/scripts/dock_solv.prm

>  <Rbt.Receptor>
prm/pocket_docking_3.prm

>  <SCORE>
-9.46375

>  <SCORE.INTER>
1.08581

>  <SCORE.INTER.CONST>
1

>  <SCORE.INTER.POLAR>
0

>  <SCORE.INTER.ROT>
11

>  <SCORE.INTER.SOLV>
10.487

>  <SCORE.INTER.VDW>
-13.7051

>  <SCORE.INTER.norm>
0.0775578

>  <SCORE.INTRA>
-10.5499

>  <SCORE.INTRA.DIHEDRAL>
-22.3966

>  <SCORE.INTRA.DIHEDRAL.0>
25.9209

>  <SCORE.INTRA.POLAR>
0

>  <SCORE.INTRA.POLAR.0>
0

>  <SCORE.INTRA.REPUL>
0

>  <SCORE.INTRA.REPUL.0>
0

>  <SCORE.INTRA.SOLV>
0.728465

>  <SCORE.INTRA.SOLV.lig_0>
-47.4815

>  <SCORE.INTRA.VDW>
0.284224

>  <SCORE.INTRA.VDW.0>
-1.57492

>  <SCORE.INTRA.norm>
-0.753561

>  <SCORE.RESTR>
0.000296659

>  <SCORE.RESTR.CAVITY>
0.000296659

>  <SCORE.RESTR.norm>
2.11899e-05

>  <SCORE.SYSTEM>
0

>  <SCORE.SYSTEM.CONST>
0

>  <SCORE.SYSTEM.DIHEDRAL>
0

>  <SCORE.SYSTEM.SOLV>
0

>  <SCORE.SYSTEM.norm>
0

>  <SCORE.heavy>
14

>  <SCORE.norm>
-0.675982

>  <RMSD>
2.916

$$$$
ligand
 OpenBabel11021811493D
libRbt.so/2013.1/901 2013/11/27
 14 13  0  0  0  0  0  0  0  0999 V2000
   49.6621    0.8601   -7.3565 N   0  0  0  0  0  0  0  0  0  0  0  0
   50.0714    0.0944   -6.1854 C   0  0  0  0  0  0  0  0  0  0  0  0
   48.8548   -0.5778   -5.5141 C   0  0  0  0  0  0  0  0  0  0  0  0
   49.1838   -1.3669   -4.2313 C   0  0  0  0  0  0  0  0  0  0  0  0
   49.8091   -0.6434   -3.1140 N   0  0  0  0  0  0  0  0  0  0  0  0
   51.2582   -0.4172   -3.0761 C   0  0  0  0  0  0  0  0  0  0  0  0
   51.7104    0.7583   -2.2049 C   0  0  0  0  0  0  0  0  0  0  0  0
   51.3790    0.5593   -0.7161 C   0  0  0  0  0  0  0  0  0  0  0  0
   51.7941    1.7386    0.1781 C   0  0  0  0  0  0  0  0  0  0  0  0
   53.2331    1.8372    0.4330 N   0  0  0  0  0  0  0  0  0  0  0  0
   53.8586    0.9240    1.4053 C   0  0  0  0  0  0  0  0  0  0  0  0
   55.3321    1.2058    1.7832 C   0  0  0  0  0  0  0  0  0  0  0  0
   55.9702    0.2185    2.7813 C   0  0  0  0  0  0  0  0  0  0  0  0
   57.3397    0.5745    3.1407 N   0  0  0  0  0  0  0  0  0  0  0  0
  1  2  1  0  0  0  0
  2  3  1  0  0  0  0
  3  4  1  0  0  0  0
  4  5  1  0  0  0  0
  5  6  1  0  0  0  0
  6  7  1  0  0  0  0
  7  8  1  0  0  0  0
  8  9  1  0  0  0  0
  9 10  1  0  0  0  0
 10 11  1  0  0  0  0
 11 12  1  0  0  0  0
 12 13  1  0  0  0  0
 13 14  1  0  0  0  0
M  END
>  <CHROM.1>
-177.72252017,58.81093478,-83.20284695,157.44843169,63.49901808,-178.72463023
-74.52560441,-76.71089304,-171.46805578,-178.83535893,-177.43499380,52.10388249
0.41170246,-1.61973614,-2.24042609,0.23125554,1.61140738

>  <Name>
ligand

>  <RI>
0

>  <Rbt.Current_Directory>
/home/itssahil/PROJECTS/Mol_Feturizer/New_Systems/rnas/4E8Q

>  <Rbt.Executable>
rbdock ($Id: //depot/dev/client3/rdock/2013.1/src/exe/rbdock.cxx#4 $)

>  <Rbt.Library>
libRbt.so (2013.1, Build901 2013/11/27)

>  <Rbt.Parameter_File>
/export/apps/rDock/src/rDock_2013.1_src/data/scripts/dock_solv.prm

>  <Rbt.Receptor>
prm/pocket_docking_3.prm

>  <SCORE>
-12.7086

>  <SCORE.INTER>
-0.541177

>  <SCORE.INTER.CONST>
1

>  <SCORE.INTER.POLAR>
0

>  <SCORE.INTER.ROT>
11

>  <SCORE.INTER.SOLV>
9.00326

>  <SCORE.INTER.VDW>
-14.2952

>  <SCORE.INTER.norm>
-0.0386555

>  <SCORE.INTRA>
-12.1803

>  <SCORE.INTRA.DIHEDRAL>
-24.0153

>  <SCORE.INTRA.DIHEDRAL.0>
25.9209

>  <SCORE.INTRA.POLAR>
0

>  <SCORE.INTRA.POLAR.0>
0

>  <SCORE.INTRA.REPUL>
0

>  <SCORE.INTRA.REPUL.0>
0

>  <SCORE.INTRA.SOLV>
-1.16894

>  <SCORE.INTRA.SOLV.lig_0>
-47.4815

>  <SCORE.INTRA.VDW>
0.411814

>  <SCORE.INTRA.VDW.0>
-1.57492

>  <SCORE.INTRA.norm>
-0.870024

>  <SCORE.RESTR>
0.0128618

>  <SCORE.RESTR.CAVITY>
0.0128618

>  <SCORE.RESTR.norm>
0.0009187

>  <SCORE.SYSTEM>
0

>  <SCORE.SYSTEM.CONST>
0

>  <SCORE.SYSTEM.DIHEDRAL>
0

>  <SCORE.SYSTEM.SOLV>
0

>  <SCORE.SYSTEM.norm>
0

>  <SCORE.heavy>
14

>  <SCORE.norm>
-0.90776

>  <RMSD>
2.933

$$$$
ligand
 OpenBabel11021811493D
libRbt.so/2013.1/901 2013/11/27
 14 13  0  0  0  0  0  0  0  0999 V2000
   49.8929    0.9286   -7.1385 N   0  0  0  0  0  0  0  0  0  0  0  0
   50.3185   -0.0496   -6.1450 C   0  0  0  0  0  0  0  0  0  0  0  0
   49.4417    0.0353   -4.8775 C   0  0  0  0  0  0  0  0  0  0  0  0
   49.8669   -0.9118   -3.7378 C   0  0  0  0  0  0  0  0  0  0  0  0
   51.2082   -0.7413   -3.1593 N   0  0  0  0  0  0  0  0  0  0  0  0
   51.5158    0.3963   -2.2853 C   0  0  0  0  0  0  0  0  0  0  0  0
   51.0140    0.2635   -0.8444 C   0  0  0  0  0  0  0  0  0  0  0  0
   51.3112    1.5090    0.0078 C   0  0  0  0  0  0  0  0  0  0  0  0
   52.7875    1.6501    0.4120 C   0  0  0  0  0  0  0  0  0  0  0  0
   53.4076    0.4186    0.9064 N   0  0  0  0  0  0  0  0  0  0  0  0
   54.6258    0.5038    1.7305 C   0  0  0  0  0  0  0  0  0  0  0  0
   54.4512    0.3339    3.2583 C   0  0  0  0  0  0  0  0  0  0  0  0
   55.7294    0.5054    4.1036 C   0  0  0  0  0  0  0  0  0  0  0  0
   56.2700    1.8607    4.0535 N   0  0  0  0  0  0  0  0  0  0  0  0
  1  2  1  0  0  0  0
  2  3  1  0  0  0  0
  3  4  1  0  0  0  0
  4  5  1  0  0  0  0
  5  6  1  0  0  0  0
  6  7  1  0  0  0  0
  7  8  1  0  0  0  0
  8  9  1  0  0  0  0
  9 10  1  0  0  0  0
 10 11  1  0  0  0  0
 11 12  1  0  0  0  0
 12 13  1  0  0  0  0
 13 14  1  0  0  0  0
M  END
>  <CHROM.1>
-176.81891964,61.30842194,73.01212653,78.27290964,-177.51582117,-73.98139566
-45.53390856,-159.50062922,101.57423870,-176.72763095,65.14636617,52.27417163
0.47868051,-0.97954973,-2.19529403,0.51358987,1.80742808

>  <Name>
ligand

>  <RI>
0

>  <Rbt.Current_Directory>
/home/itssahil/PROJECTS/Mol_Feturizer/New_Systems/rnas/4E8Q

>  <Rbt.Executable>
rbdock ($Id: //depot/dev/client3/rdock/2013.1/src/exe/rbdock.cxx#4 $)

>  <Rbt.Library>
libRbt.so (2013.1, Build901 2013/11/27)

>  <Rbt.Parameter_File>
/export/apps/rDock/src/rDock_2013.1_src/data/scripts/dock_solv.prm

>  <Rbt.Receptor>
prm/pocket_docking_4.prm

>  <SCORE>
-11.6071

>  <SCORE.INTER>
-0.857251

>  <SCORE.INTER.CONST>
1

>  <SCORE.INTER.POLAR>
0

>  <SCORE.INTER.ROT>
11

>  <SCORE.INTER.SOLV>
11.3978

>  <SCORE.INTER.VDW>
-15.3041

>  <SCORE.INTER.norm>
-0.0612322

>  <SCORE.INTRA>
-10.7499

>  <SCORE.INTRA.DIHEDRAL>
-22.5306

>  <SCORE.INTRA.DIHEDRAL.0>
25.9209

>  <SCORE.INTRA.POLAR>
0

>  <SCORE.INTRA.POLAR.0>
0

>  <SCORE.INTRA.REPUL>
0

>  <SCORE.INTRA.REPUL.0>
0

>  <SCORE.INTRA.SOLV>
-0.422579

>  <SCORE.INTRA.SOLV.lig_0>
-47.4815

>  <SCORE.INTRA.VDW>
0.726736

>  <SCORE.INTRA.VDW.0>
-1.57492

>  <SCORE.INTRA.norm>
-0.767848

>  <SCORE.RESTR>
0

>  <SCORE.RESTR.CAVITY>
0

>  <SCORE.RESTR.norm>
0

>  <SCORE.SYSTEM>
0

>  <SCORE.SYSTEM.CONST>
0

>  <SCORE.SYSTEM.DIHEDRAL>
0

>  <SCORE.SYSTEM.SOLV>
0

>  <SCORE.SYSTEM.norm>
0

>  <SCORE.heavy>
14

>  <SCORE.norm>
-0.82908

>  <RMSD>
2.952

$$$$
ligand
 OpenBabel11021811493D
libRbt.so/2013.1/901 2013/11/27
 14 13  0  0  0  0  0  0  0  0999 V2000
   58.7902    0.0184    2.3339 N   0  0  0  0  0  0  0  0  0  0  0  0
   57.4363   -0.4778    2.5483 C   0  0  0  0  0  0  0  0  0  0  0  0
   56.5011   -0.0400    1.4010 C   0  0  0  0  0  0  0  0  0  0  0  0
   56.3480    1.4859    1.2440 C   0  0  0  0  0  0  0  0  0  0  0  0
   55.8348    2.2523    2.3895 N   0  0  0  0  0  0  0  0  0  0  0  0
   54.5058    1.9793    2.9476 C   0  0  0  0  0  0  0  0  0  0  0  0
   53.3309    2.4970    2.1127 C   0  0  0  0  0  0  0  0  0  0  0  0
   53.1132    1.6875    0.8231 C   0  0  0  0  0  0  0  0  0  0  0  0
   51.8780    2.1197    0.0168 C   0  0  0  0  0  0  0  0  0  0  0  0
   51.9644    3.4616   -0.5640 N   0  0  0  0  0  0  0  0  0  0  0  0
   50.8065    4.0097   -1.2916 C   0  0  0  0  0  0  0  0  0  0  0  0
   50.3875    3.2819   -2.5909 C   0  0  0  0  0  0  0  0  0  0  0  0
   51.4540    3.2258   -3.7033 C   0  0  0  0  0  0  0  0  0  0  0  0
   50.9687    2.5984   -4.9290 N   0  0  0  0  0  0  0  0  0  0  0  0
  1  2  1  0  0  0  0
  2  3  1  0  0  0  0
  3  4  1  0  0  0  0
  4  5  1  0  0  0  0
  5  6  1  0  0  0  0
  6  7  1  0  0  0  0
  7  8  1  0  0  0  0
  8  9  1  0  0  0  0
  9 10  1  0  0  0  0
 10 11  1  0  0  0  0
 11 12  1  0  0  0  0
 12 13  1  0  0  0  0
 13 14  1  0  0  0  0
M  END
>  <CHROM.1>
-61.25895877,-58.74977075,-60.18294445,-75.08765310,72.03294559,175.76238623
66.75036983,-176.49710856,-64.39129588,-60.27293078,-176.50422238,53.80828361
2.00707859,0.19574660,-0.58621681,0.52287344,-1.74234005

>  <Name>
ligand

>  <RI>
0

>  <Rbt.Current_Directory>
/home/itssahil/PROJECTS/Mol_Feturizer/New_Systems/rnas/4E8Q

>  <Rbt.Executable>
rbdock ($Id: //depot/dev/client3/rdock/2013.1/src/exe/rbdock.cxx#4 $)

>  <Rbt.Library>
libRbt.so (2013.1, Build901 2013/11/27)

>  <Rbt.Parameter_File>
/export/apps/rDock/src/rDock_2013.1_src/data/scripts/dock_solv.prm

>  <Rbt.Receptor>
prm/pocket_docking_2.prm

>  <SCORE>
-4.07574

>  <SCORE.INTER>
7.38018

>  <SCORE.INTER.CONST>
1

>  <SCORE.INTER.POLAR>
0

>  <SCORE.INTER.ROT>
11

>  <SCORE.INTER.SOLV>
5.82213

>  <SCORE.INTER.VDW>
-7.95392

>  <SCORE.INTER.norm>
0.527156

>  <SCORE.INTRA>
-11.4559

>  <SCORE.INTRA.DIHEDRAL>
-24.8835

>  <SCORE.INTRA.DIHEDRAL.0>
25.9209

>  <SCORE.INTRA.POLAR>
0

>  <SCORE.INTRA.POLAR.0>
0

>  <SCORE.INTRA.REPUL>
0

>  <SCORE.INTRA.REPUL.0>
0

>  <SCORE.INTRA.SOLV>
0.493869

>  <SCORE.INTRA.SOLV.lig_0>
-47.4815

>  <SCORE.INTRA.VDW>
0.73889

>  <SCORE.INTRA.VDW.0>
-1.57492

>  <SCORE.INTRA.norm>
-0.818281

>  <SCORE.RESTR>
0

>  <SCORE.RESTR.CAVITY>
0

>  <SCORE.RESTR.norm>
0

>  <SCORE.SYSTEM>
0

>  <SCORE.SYSTEM.CONST>
0

>  <SCORE.SYSTEM.DIHEDRAL>
0

>  <SCORE.SYSTEM.SOLV>
0

>  <SCORE.SYSTEM.norm>
0

>  <SCORE.heavy>
14

>  <SCORE.norm>
-0.291125

>  <RMSD>
2.987

$$$$
ligand
 OpenBabel11021811493D
libRbt.so/2013.1/901 2013/11/27
 14 13  0  0  0  0  0  0  0  0999 V2000
   59.9682   -1.0934    2.9359 N   0  0  0  0  0  0  0  0  0  0  0  0
   58.5138   -0.9961    2.9560 C   0  0  0  0  0  0  0  0  0  0  0  0
   57.9761   -0.4987    1.5973 C   0  0  0  0  0  0  0  0  0  0  0  0
   56.4539   -0.2578    1.5582 C   0  0  0  0  0  0  0  0  0  0  0  0
   55.8761    0.6829    2.5298 N   0  0  0  0  0  0  0  0  0  0  0  0
   54.4608    1.0636    2.4643 C   0  0  0  0  0  0  0  0  0  0  0  0
   54.0690    1.9031    1.2448 C   0  0  0  0  0  0  0  0  0  0  0  0
   52.5613    2.2016    1.1855 C   0  0  0  0  0  0  0  0  0  0  0  0
   52.1002    2.8215   -0.1432 C   0  0  0  0  0  0  0  0  0  0  0  0
   52.2902    1.9660   -1.3169 N   0  0  0  0  0  0  0  0  0  0  0  0
   51.2387    1.0025   -1.6863 C   0  0  0  0  0  0  0  0  0  0  0  0
   51.5509    0.0395   -2.8562 C   0  0  0  0  0  0  0  0  0  0  0  0
   50.3562   -0.7740   -3.3936 C   0  0  0  0  0  0  0  0  0  0  0  0
   49.3891    0.0434   -4.1203 N   0  0  0  0  0  0  0  0  0  0  0  0
  1  2  1  0  0  0  0
  2  3  1  0  0  0  0
  3  4  1  0  0  0  0
  4  5  1  0  0  0  0
  5  6  1  0  0  0  0
  6  7  1  0  0  0  0
  7  8  1  0  0  0  0
  8  9  1  0  0  0  0
  9 10  1  0  0  0  0
 10 11  1  0  0  0  0
 11 12  1  0  0  0  0
 12 13  1  0  0  0  0
 13 14  1  0  0  0  0
M  END
>  <CHROM.1>
-175.40504564,57.15938734,173.76440887,-67.74667166,176.59929327,-169.68904122
62.81747907,87.25569977,-174.60642067,-169.11060712,70.52035281,54.05731794
0.57892807,0.21117435,-0.33963583,0.53833917,-2.34445029

>  <Name>
ligand

>  <RI>
0

>  <Rbt.Current_Directory>
/home/itssahil/PROJECTS/Mol_Feturizer/New_Systems/rnas/4E8Q

>  <Rbt.Executable>
rbdock ($Id: //depot/dev/client3/rdock/2013.1/src/exe/rbdock.cxx#4 $)

>  <Rbt.Library>
libRbt.so (2013.1, Build901 2013/11/27)

>  <Rbt.Parameter_File>
/export/apps/rDock/src/rDock_2013.1_src/data/scripts/dock_solv.prm

>  <Rbt.Receptor>
prm/pocket_docking_3.prm

>  <SCORE>
-10.6349

>  <SCORE.INTER>
1.16229

>  <SCORE.INTER.CONST>
1

>  <SCORE.INTER.POLAR>
0

>  <SCORE.INTER.ROT>
11

>  <SCORE.INTER.SOLV>
11.473

>  <SCORE.INTER.VDW>
-13.9828

>  <SCORE.INTER.norm>
0.0830209

>  <SCORE.INTRA>
-11.7972

>  <SCORE.INTRA.DIHEDRAL>
-23.839

>  <SCORE.INTRA.DIHEDRAL.0>
25.9209

>  <SCORE.INTRA.POLAR>
0

>  <SCORE.INTRA.POLAR.0>
0

>  <SCORE.INTRA.REPUL>
0

>  <SCORE.INTRA.REPUL.0>
0

>  <SCORE.INTRA.SOLV>
-0.825824

>  <SCORE.INTRA.SOLV.lig_0>
-47.4815

>  <SCORE.INTRA.VDW>
0.535235

>  <SCORE.INTRA.VDW.0>
-1.57492

>  <SCORE.INTRA.norm>
-0.842656

>  <SCORE.RESTR>
0

>  <SCORE.RESTR.CAVITY>
0

>  <SCORE.RESTR.norm>
0

>  <SCORE.SYSTEM>
0

>  <SCORE.SYSTEM.CONST>
0

>  <SCORE.SYSTEM.DIHEDRAL>
0

>  <SCORE.SYSTEM.SOLV>
0

>  <SCORE.SYSTEM.norm>
0

>  <SCORE.heavy>
14

>  <SCORE.norm>
-0.759635

>  <RMSD>
2.995

$$$$
ligand
 OpenBabel11021811493D
libRbt.so/2013.1/901 2013/11/27
 14 13  0  0  0  0  0  0  0  0999 V2000
   50.8743    2.2981   -6.3178 N   0  0  0  0  0  0  0  0  0  0  0  0
   50.2705    2.4997   -5.0063 C   0  0  0  0  0  0  0  0  0  0  0  0
   48.9401    1.7261   -4.8877 C   0  0  0  0  0  0  0  0  0  0  0  0
   49.0917    0.1932   -4.8261 C   0  0  0  0  0  0  0  0  0  0  0  0
   49.6283   -0.4010   -3.5925 N   0  0  0  0  0  0  0  0  0  0  0  0
   51.0683   -0.3901   -3.3121 C   0  0  0  0  0  0  0  0  0  0  0  0
   51.4550    0.1020   -1.9144 C   0  0  0  0  0  0  0  0  0  0  0  0
   51.2433    1.6149   -1.7349 C   0  0  0  0  0  0  0  0  0  0  0  0
   51.5458    2.1228   -0.3161 C   0  0  0  0  0  0  0  0  0  0  0  0
   52.8979    1.8291    0.1643 N   0  0  0  0  0  0  0  0  0  0  0  0
   53.2311    2.0739    1.5784 C   0  0  0  0  0  0  0  0  0  0  0  0
   54.4960    1.3752    2.1310 C   0  0  0  0  0  0  0  0  0  0  0  0
   54.7019    1.4671    3.6565 C   0  0  0  0  0  0  0  0  0  0  0  0
   55.9321    0.8227    4.1068 N   0  0  0  0  0  0  0  0  0  0  0  0
  1  2  1  0  0  0  0
  2  3  1  0  0  0  0
  3  4  1  0  0  0  0
  4  5  1  0  0  0  0
  5  6  1  0  0  0  0
  6  7  1  0  0  0  0
  7  8  1  0  0  0  0
  8  9  1  0  0  0  0
  9 10  1  0  0  0  0
 10 11  1  0  0  0  0
 11 12  1  0  0  0  0
 12 13  1  0  0  0  0
 13 14  1  0  0  0  0
M  END
>  <CHROM.1>
69.95781347,72.29999975,-78.86357778,131.00456601,-71.10909931,176.63128803
56.71713253,-170.29223126,162.34388531,-170.85000542,-178.28646437,51.81238079
1.23815941,-1.44794103,-2.71953905,0.96105493,2.61079384

>  <Name>
ligand

>  <RI>
0

>  <Rbt.Current_Directory>
/home/itssahil/PROJECTS/Mol_Feturizer/New_Systems/rnas/4E8Q

>  <Rbt.Executable>
rbdock ($Id: //depot/dev/client3/rdock/2013.1/src/exe/rbdock.cxx#4 $)

>  <Rbt.Library>
libRbt.so (2013.1, Build901 2013/11/27)

>  <Rbt.Parameter_File>
/export/apps/rDock/src/rDock_2013.1_src/data/scripts/dock_solv.prm

>  <Rbt.Receptor>
prm/pocket_docking_3.prm

>  <SCORE>
-10.1497

>  <SCORE.INTER>
1.03558

>  <SCORE.INTER.CONST>
1

>  <SCORE.INTER.POLAR>
0

>  <SCORE.INTER.ROT>
11

>  <SCORE.INTER.SOLV>
6.93716

>  <SCORE.INTER.VDW>
-12.5553

>  <SCORE.INTER.norm>
0.07397

>  <SCORE.INTRA>
-11.1853

>  <SCORE.INTRA.DIHEDRAL>
-22.4502

>  <SCORE.INTRA.DIHEDRAL.0>
25.9209

>  <SCORE.INTRA.POLAR>
0

>  <SCORE.INTRA.POLAR.0>
0

>  <SCORE.INTRA.REPUL>
0

>  <SCORE.INTRA.REPUL.0>
0

>  <SCORE.INTRA.SOLV>
0.372801

>  <SCORE.INTRA.SOLV.lig_0>
-47.4815

>  <SCORE.INTRA.VDW>
-0.146606

>  <SCORE.INTRA.VDW.0>
-1.57492

>  <SCORE.INTRA.norm>
-0.798949

>  <SCORE.RESTR>
0

>  <SCORE.RESTR.CAVITY>
0

>  <SCORE.RESTR.norm>
0

>  <SCORE.SYSTEM>
0

>  <SCORE.SYSTEM.CONST>
0

>  <SCORE.SYSTEM.DIHEDRAL>
0

>  <SCORE.SYSTEM.SOLV>
0

>  <SCORE.SYSTEM.norm>
0

>  <SCORE.heavy>
14

>  <SCORE.norm>
-0.724979

>  <RMSD>
3.014

$$$$
ligand
 OpenBabel11021811493D
libRbt.so/2013.1/901 2013/11/27
 14 13  0  0  0  0  0  0  0  0999 V2000
   50.7647    2.6224   -6.2495 N   0  0  0  0  0  0  0  0  0  0  0  0
   49.3149    2.4749   -6.2107 C   0  0  0  0  0  0  0  0  0  0  0  0
   48.8586    1.8695   -4.8662 C   0  0  0  0  0  0  0  0  0  0  0  0
   49.3430    0.4279   -4.6135 C   0  0  0  0  0  0  0  0  0  0  0  0
   50.7854    0.2028   -4.4362 N   0  0  0  0  0  0  0  0  0  0  0  0
   51.3044   -0.4696   -3.2399 C   0  0  0  0  0  0  0  0  0  0  0  0
   51.1639    0.3221   -1.9365 C   0  0  0  0  0  0  0  0  0  0  0  0
   51.8786    1.6832   -1.9854 C   0  0  0  0  0  0  0  0  0  0  0  0
   51.8079    2.4722   -0.6682 C   0  0  0  0  0  0  0  0  0  0  0  0
   52.5135    1.8523    0.4558 N   0  0  0  0  0  0  0  0  0  0  0  0
   52.9001    2.6806    1.6112 C   0  0  0  0  0  0  0  0  0  0  0  0
   53.6364    1.9667    2.7696 C   0  0  0  0  0  0  0  0  0  0  0  0
   54.9931    1.3276    2.4105 C   0  0  0  0  0  0  0  0  0  0  0  0
   54.8707    0.2180    1.4696 N   0  0  0  0  0  0  0  0  0  0  0  0
  1  2  1  0  0  0  0
  2  3  1  0  0  0  0
  3  4  1  0  0  0  0
  4  5  1  0  0  0  0
  5  6  1  0  0  0  0
  6  7  1  0  0  0  0
  7  8  1  0  0  0  0
  8  9  1  0  0  0  0
  9 10  1  0  0  0  0
 10 11  1  0  0  0  0
 11 12  1  0  0  0  0
 12 13  1  0  0  0  0
 13 14  1  0  0  0  0
M  END
>  <CHROM.1>
-64.75303683,66.39133450,124.71623621,-68.41901213,-58.84764890,-177.38045798
65.46961317,159.91488967,179.70209999,61.58869302,-65.60141035,51.72373545
1.40368962,-1.82052172,2.73987092,1.00045476,-2.68314322

>  <Name>
ligand

>  <RI>
0

>  <Rbt.Current_Directory>
/home/itssahil/PROJECTS/Mol_Feturizer/New_Systems/rnas/4E8Q

>  <Rbt.Executable>
rbdock ($Id: //depot/dev/client3/rdock/2013.1/src/exe/rbdock.cxx#4 $)

>  <Rbt.Library>
libRbt.so (2013.1, Build901 2013/11/27)

>  <Rbt.Parameter_File>
/export/apps/rDock/src/rDock_2013.1_src/data/scripts/dock_solv.prm

>  <Rbt.Receptor>
prm/pocket_docking_3.prm

>  <SCORE>
-7.98603

>  <SCORE.INTER>
2.08495

>  <SCORE.INTER.CONST>
1

>  <SCORE.INTER.POLAR>
0

>  <SCORE.INTER.ROT>
11

>  <SCORE.INTER.SOLV>
9.59601

>  <SCORE.INTER.VDW>
-12.742

>  <SCORE.INTER.norm>
0.148925

>  <SCORE.INTRA>
-10.071

>  <SCORE.INTRA.DIHEDRAL>
-23.8676

>  <SCORE.INTRA.DIHEDRAL.0>
25.9209

>  <SCORE.INTRA.POLAR>
0

>  <SCORE.INTRA.POLAR.0>
0

>  <SCORE.INTRA.REPUL>
0

>  <SCORE.INTRA.REPUL.0>
0

>  <SCORE.INTRA.SOLV>
3.8153

>  <SCORE.INTRA.SOLV.lig_0>
-47.4815

>  <SCORE.INTRA.VDW>
-0.0448118

>  <SCORE.INTRA.VDW.0>
-1.57492

>  <SCORE.INTRA.norm>
-0.719356

>  <SCORE.RESTR>
0

>  <SCORE.RESTR.CAVITY>
0

>  <SCORE.RESTR.norm>
0

>  <SCORE.SYSTEM>
0

>  <SCORE.SYSTEM.CONST>
0

>  <SCORE.SYSTEM.DIHEDRAL>
0

>  <SCORE.SYSTEM.SOLV>
0

>  <SCORE.SYSTEM.norm>
0

>  <SCORE.heavy>
14

>  <SCORE.norm>
-0.570431

>  <RMSD>
3.026

$$$$
ligand
 OpenBabel11021811493D
libRbt.so/2013.1/901 2013/11/27
 14 13  0  0  0  0  0  0  0  0999 V2000
   55.6084    0.6095    4.6577 N   0  0  0  0  0  0  0  0  0  0  0  0
   55.4250    0.7145    3.2153 C   0  0  0  0  0  0  0  0  0  0  0  0
   54.0564    1.3439    2.8784 C   0  0  0  0  0  0  0  0  0  0  0  0
   53.7712    1.4919    1.3706 C   0  0  0  0  0  0  0  0  0  0  0  0
   52.4486    1.9876    0.9611 N   0  0  0  0  0  0  0  0  0  0  0  0
   52.0433    1.9849   -0.4489 C   0  0  0  0  0  0  0  0  0  0  0  0
   51.5985    0.6250   -0.9950 C   0  0  0  0  0  0  0  0  0  0  0  0
   51.1886    0.6823   -2.4765 C   0  0  0  0  0  0  0  0  0  0  0  0
   50.6489   -0.6479   -3.0259 C   0  0  0  0  0  0  0  0  0  0  0  0
   50.0557   -0.5630   -4.3624 N   0  0  0  0  0  0  0  0  0  0  0  0
   50.9357   -0.4206   -5.5355 C   0  0  0  0  0  0  0  0  0  0  0  0
   51.4356    1.0054   -5.8670 C   0  0  0  0  0  0  0  0  0  0  0  0
   52.2565    1.1446   -7.1650 C   0  0  0  0  0  0  0  0  0  0  0  0
   51.4835    0.8394   -8.3653 N   0  0  0  0  0  0  0  0  0  0  0  0
  1  2  1  0  0  0  0
  2  3  1  0  0  0  0
  3  4  1  0  0  0  0
  4  5  1  0  0  0  0
  5  6  1  0  0  0  0
  6  7  1  0  0  0  0
  7  8  1  0  0  0  0
  8  9  1  0  0  0  0
  9 10  1  0  0  0  0
 10 11  1  0  0  0  0
 11 12  1  0  0  0  0
 12 13  1  0  0  0  0
 13 14  1  0  0  0  0
M  END
>  <CHROM.1>
-179.83448581,175.44005096,-171.76370830,78.27354974,-179.87697147,-176.14548228
170.66680763,74.33781150,-82.32155866,-175.05815026,64.38716362,52.35398287
0.77127887,-1.79703134,-1.20466272,-0.39707530,-1.49787392

>  <Name>
ligand

>  <RI>
0

>  <Rbt.Current_Directory>
/home/itssahil/PROJECTS/Mol_Feturizer/New_Systems/rnas/4E8Q

>  <Rbt.Executable>
rbdock ($Id: //depot/dev/client3/rdock/2013.1/src/exe/rbdock.cxx#4 $)

>  <Rbt.Library>
libRbt.so (2013.1, Build901 2013/11/27)

>  <Rbt.Parameter_File>
/export/apps/rDock/src/rDock_2013.1_src/data/scripts/dock_solv.prm

>  <Rbt.Receptor>
prm/pocket_docking_4.prm

>  <SCORE>
-12.0961

>  <SCORE.INTER>
0.159683

>  <SCORE.INTER.CONST>
1

>  <SCORE.INTER.POLAR>
0

>  <SCORE.INTER.ROT>
11

>  <SCORE.INTER.SOLV>
7.18701

>  <SCORE.INTER.VDW>
-13.2225

>  <SCORE.INTER.norm>
0.011406

>  <SCORE.INTRA>
-12.2558

>  <SCORE.INTRA.DIHEDRAL>
-24.4571

>  <SCORE.INTRA.DIHEDRAL.0>
25.9209

>  <SCORE.INTRA.POLAR>
0

>  <SCORE.INTRA.POLAR.0>
0

>  <SCORE.INTRA.REPUL>
0

>  <SCORE.INTRA.REPUL.0>
0

>  <SCORE.INTRA.SOLV>
-1.47576

>  <SCORE.INTRA.SOLV.lig_0>
-47.4815

>  <SCORE.INTRA.VDW>
0.71066

>  <SCORE.INTRA.VDW.0>
-1.57492

>  <SCORE.INTRA.norm>
-0.875414

>  <SCORE.RESTR>
0

>  <SCORE.RESTR.CAVITY>
0

>  <SCORE.RESTR.norm>
0

>  <SCORE.SYSTEM>
0

>  <SCORE.SYSTEM.CONST>
0

>  <SCORE.SYSTEM.DIHEDRAL>
0

>  <SCORE.SYSTEM.SOLV>
0

>  <SCORE.SYSTEM.norm>
0

>  <SCORE.heavy>
14

>  <SCORE.norm>
-0.864008

>  <RMSD>
3.056

$$$$
ligand
 OpenBabel11021811493D
libRbt.so/2013.1/901 2013/11/27
 14 13  0  0  0  0  0  0  0  0999 V2000
   49.1793    0.2806   -5.8989 N   0  0  0  0  0  0  0  0  0  0  0  0
   48.5742   -0.1038   -4.6296 C   0  0  0  0  0  0  0  0  0  0  0  0
   49.4832   -1.0866   -3.8613 C   0  0  0  0  0  0  0  0  0  0  0  0
   50.8446   -0.5026   -3.4345 C   0  0  0  0  0  0  0  0  0  0  0  0
   50.8632    0.4891   -2.3486 N   0  0  0  0  0  0  0  0  0  0  0  0
   51.5841    0.2275   -1.0979 C   0  0  0  0  0  0  0  0  0  0  0  0
   52.1464    1.4690   -0.3995 C   0  0  0  0  0  0  0  0  0  0  0  0
   51.0679    2.2748    0.3444 C   0  0  0  0  0  0  0  0  0  0  0  0
   51.5730    3.6055    0.9246 C   0  0  0  0  0  0  0  0  0  0  0  0
   52.8058    3.5031    1.7089 N   0  0  0  0  0  0  0  0  0  0  0  0
   52.8298    2.6480    2.9084 C   0  0  0  0  0  0  0  0  0  0  0  0
   54.2172    2.1763    3.4045 C   0  0  0  0  0  0  0  0  0  0  0  0
   54.2075    1.1994    4.5977 C   0  0  0  0  0  0  0  0  0  0  0  0
   55.5439    0.7573    4.9851 N   0  0  0  0  0  0  0  0  0  0  0  0
  1  2  1  0  0  0  0
  2  3  1  0  0  0  0
  3  4  1  0  0  0  0
  4  5  1  0  0  0  0
  5  6  1  0  0  0  0
  6  7  1  0  0  0  0
  7  8  1  0  0  0  0
  8  9  1  0  0  0  0
  9 10  1  0  0  0  0
 10 11  1  0  0  0  0
 11 12  1  0  0  0  0
 12 13  1  0  0  0  0
 13 14  1  0  0  0  0
M  END
>  <CHROM.1>
63.86765267,71.78504044,118.40347092,149.59893931,76.81995696,-173.65898855
-49.66126043,-60.08306217,159.06615908,-175.66449434,177.96256748,51.77987725
1.20980800,-0.19968804,2.49910250,0.93922982,-2.65281657

>  <Name>
ligand

>  <RI>
0

>  <Rbt.Current_Directory>
/home/itssahil/PROJECTS/Mol_Feturizer/New_Systems/rnas/4E8Q

>  <Rbt.Executable>
rbdock ($Id: //depot/dev/client3/rdock/2013.1/src/exe/rbdock.cxx#4 $)

>  <Rbt.Library>
libRbt.so (2013.1, Build901 2013/11/27)

>  <Rbt.Parameter_File>
/export/apps/rDock/src/rDock_2013.1_src/data/scripts/dock_solv.prm

>  <Rbt.Receptor>
prm/pocket_docking_4.prm

>  <SCORE>
-10.2836

>  <SCORE.INTER>
-0.155753

>  <SCORE.INTER.CONST>
1

>  <SCORE.INTER.POLAR>
0

>  <SCORE.INTER.ROT>
11

>  <SCORE.INTER.SOLV>
8.37147

>  <SCORE.INTER.VDW>
-13.8277

>  <SCORE.INTER.norm>
-0.0111252

>  <SCORE.INTRA>
-10.1279

>  <SCORE.INTRA.DIHEDRAL>
-21.5681

>  <SCORE.INTRA.DIHEDRAL.0>
25.9209

>  <SCORE.INTRA.POLAR>
0

>  <SCORE.INTRA.POLAR.0>
0

>  <SCORE.INTRA.REPUL>
0

>  <SCORE.INTRA.REPUL.0>
0

>  <SCORE.INTRA.SOLV>
-0.0253775

>  <SCORE.INTRA.SOLV.lig_0>
-47.4815

>  <SCORE.INTRA.VDW>
0.668872

>  <SCORE.INTRA.VDW.0>
-1.57492

>  <SCORE.INTRA.norm>
-0.723418

>  <SCORE.RESTR>
0

>  <SCORE.RESTR.CAVITY>
0

>  <SCORE.RESTR.norm>
0

>  <SCORE.SYSTEM>
0

>  <SCORE.SYSTEM.CONST>
0

>  <SCORE.SYSTEM.DIHEDRAL>
0

>  <SCORE.SYSTEM.SOLV>
0

>  <SCORE.SYSTEM.norm>
0

>  <SCORE.heavy>
14

>  <SCORE.norm>
-0.734543

>  <RMSD>
3.088

$$$$
ligand
 OpenBabel11021811493D
libRbt.so/2013.1/901 2013/11/27
 14 13  0  0  0  0  0  0  0  0999 V2000
   56.1864    2.0838    3.3168 N   0  0  0  0  0  0  0  0  0  0  0  0
   54.7935    2.5137    3.3326 C   0  0  0  0  0  0  0  0  0  0  0  0
   54.1330    2.2917    1.9554 C   0  0  0  0  0  0  0  0  0  0  0  0
   52.6982    2.8428    1.8348 C   0  0  0  0  0  0  0  0  0  0  0  0
   52.0379    2.7747    0.5226 N   0  0  0  0  0  0  0  0  0  0  0  0
   51.4331    1.5265    0.0442 C   0  0  0  0  0  0  0  0  0  0  0  0
   51.6513    1.2259   -1.4416 C   0  0  0  0  0  0  0  0  0  0  0  0
   50.8734   -0.0117   -1.9202 C   0  0  0  0  0  0  0  0  0  0  0  0
   51.1270   -0.3771   -3.3915 C   0  0  0  0  0  0  0  0  0  0  0  0
   50.0045   -1.0384   -4.0607 N   0  0  0  0  0  0  0  0  0  0  0  0
   48.8784   -0.2269   -4.5546 C   0  0  0  0  0  0  0  0  0  0  0  0
   49.2274    1.1319   -5.2069 C   0  0  0  0  0  0  0  0  0  0  0  0
   50.2694    1.0838   -6.3427 C   0  0  0  0  0  0  0  0  0  0  0  0
   49.7923    0.3742   -7.5260 N   0  0  0  0  0  0  0  0  0  0  0  0
  1  2  1  0  0  0  0
  2  3  1  0  0  0  0
  3  4  1  0  0  0  0
  4  5  1  0  0  0  0
  5  6  1  0  0  0  0
  6  7  1  0  0  0  0
  7  8  1  0  0  0  0
  8  9  1  0  0  0  0
  9 10  1  0  0  0  0
 10 11  1  0  0  0  0
 11 12  1  0  0  0  0
 12 13  1  0  0  0  0
 13 14  1  0  0  0  0
M  END
>  <CHROM.1>
-174.34781320,174.93984074,79.49116483,-139.72864499,-173.89043981,-177.19900775
-150.61136473,79.72605540,39.61001164,52.92373348,66.57314338,51.65025922
1.15682920,-1.67401363,-0.89642592,-0.69381190,-1.36056209

>  <Name>
ligand

>  <RI>
0

>  <Rbt.Current_Directory>
/home/itssahil/PROJECTS/Mol_Feturizer/New_Systems/rnas/4E8Q

>  <Rbt.Executable>
rbdock ($Id: //depot/dev/client3/rdock/2013.1/src/exe/rbdock.cxx#4 $)

>  <Rbt.Library>
libRbt.so (2013.1, Build901 2013/11/27)

>  <Rbt.Parameter_File>
/export/apps/rDock/src/rDock_2013.1_src/data/scripts/dock_solv.prm

>  <Rbt.Receptor>
prm/pocket_docking_3.prm

>  <SCORE>
-8.36745

>  <SCORE.INTER>
0.961015

>  <SCORE.INTER.CONST>
1

>  <SCORE.INTER.POLAR>
0

>  <SCORE.INTER.ROT>
11

>  <SCORE.INTER.SOLV>
6.44287

>  <SCORE.INTER.VDW>
-12.4403

>  <SCORE.INTER.norm>
0.0686439

>  <SCORE.INTRA>
-9.32847

>  <SCORE.INTRA.DIHEDRAL>
-20.7141

>  <SCORE.INTRA.DIHEDRAL.0>
25.9209

>  <SCORE.INTRA.POLAR>
0

>  <SCORE.INTRA.POLAR.0>
0

>  <SCORE.INTRA.REPUL>
0

>  <SCORE.INTRA.REPUL.0>
0

>  <SCORE.INTRA.SOLV>
-0.246147

>  <SCORE.INTRA.SOLV.lig_0>
-47.4815

>  <SCORE.INTRA.VDW>
1.15164

>  <SCORE.INTRA.VDW.0>
-1.57492

>  <SCORE.INTRA.norm>
-0.666319

>  <SCORE.RESTR>
0

>  <SCORE.RESTR.CAVITY>
0

>  <SCORE.RESTR.norm>
0

>  <SCORE.SYSTEM>
0

>  <SCORE.SYSTEM.CONST>
0

>  <SCORE.SYSTEM.DIHEDRAL>
0

>  <SCORE.SYSTEM.SOLV>
0

>  <SCORE.SYSTEM.norm>
0

>  <SCORE.heavy>
14

>  <SCORE.norm>
-0.597675

>  <RMSD>
3.141

$$$$
ligand
 OpenBabel11021811493D
libRbt.so/2013.1/901 2013/11/27
 14 13  0  0  0  0  0  0  0  0999 V2000
   55.7440    4.6566   -1.4599 N   0  0  0  0  0  0  0  0  0  0  0  0
   56.9262    3.9383   -0.9998 C   0  0  0  0  0  0  0  0  0  0  0  0
   56.8558    3.6781    0.5201 C   0  0  0  0  0  0  0  0  0  0  0  0
   55.7476    2.6977    0.9532 C   0  0  0  0  0  0  0  0  0  0  0  0
   54.3533    3.0473    0.6428 N   0  0  0  0  0  0  0  0  0  0  0  0
   53.2366    2.3434    1.2834 C   0  0  0  0  0  0  0  0  0  0  0  0
   51.8656    2.5809    0.6436 C   0  0  0  0  0  0  0  0  0  0  0  0
   51.7572    1.9884   -0.7717 C   0  0  0  0  0  0  0  0  0  0  0  0
   51.5956    0.4601   -0.7972 C   0  0  0  0  0  0  0  0  0  0  0  0
   51.8032   -0.1561   -2.1096 N   0  0  0  0  0  0  0  0  0  0  0  0
   50.8739    0.1563   -3.2094 C   0  0  0  0  0  0  0  0  0  0  0  0
   49.8550   -0.9409   -3.5983 C   0  0  0  0  0  0  0  0  0  0  0  0
   48.9669   -0.6303   -4.8201 C   0  0  0  0  0  0  0  0  0  0  0  0
   48.0935   -1.7406   -5.1887 N   0  0  0  0  0  0  0  0  0  0  0  0
  1  2  1  0  0  0  0
  2  3  1  0  0  0  0
  3  4  1  0  0  0  0
  4  5  1  0  0  0  0
  5  6  1  0  0  0  0
  6  7  1  0  0  0  0
  7  8  1  0  0  0  0
  8  9  1  0  0  0  0
  9 10  1  0  0  0  0
 10 11  1  0  0  0  0
 11 12  1  0  0  0  0
 12 13  1  0  0  0  0
 13 14  1  0  0  0  0
M  END
>  <CHROM.1>
67.16528779,-60.00648070,-165.55427322,-166.67559318,66.85984744,75.54262430
-166.38175544,-64.79265594,-105.54826471,-175.53853241,176.06402253,52.69110634
1.57715196,-1.35054536,-0.58823150,-0.52422408,-1.73408599

>  <Name>
ligand

>  <RI>
0

>  <Rbt.Current_Directory>
/home/itssahil/PROJECTS/Mol_Feturizer/New_Systems/rnas/4E8Q

>  <Rbt.Executable>
rbdock ($Id: //depot/dev/client3/rdock/2013.1/src/exe/rbdock.cxx#4 $)

>  <Rbt.Library>
libRbt.so (2013.1, Build901 2013/11/27)

>  <Rbt.Parameter_File>
/export/apps/rDock/src/rDock_2013.1_src/data/scripts/dock_solv.prm

>  <Rbt.Receptor>
prm/pocket_docking_5.prm

>  <SCORE>
-11.0645

>  <SCORE.INTER>
-1.01699

>  <SCORE.INTER.CONST>
1

>  <SCORE.INTER.POLAR>
0

>  <SCORE.INTER.ROT>
11

>  <SCORE.INTER.SOLV>
12.8325

>  <SCORE.INTER.VDW>
-15.8888

>  <SCORE.INTER.norm>
-0.0726421

>  <SCORE.INTRA>
-10.0475

>  <SCORE.INTRA.DIHEDRAL>
-22.4296

>  <SCORE.INTRA.DIHEDRAL.0>
25.9209

>  <SCORE.INTRA.POLAR>
0

>  <SCORE.INTRA.POLAR.0>
0

>  <SCORE.INTRA.REPUL>
0

>  <SCORE.INTRA.REPUL.0>
0

>  <SCORE.INTRA.SOLV>
1.05892

>  <SCORE.INTRA.SOLV.lig_0>
-47.4815

>  <SCORE.INTRA.VDW>
0.637811

>  <SCORE.INTRA.VDW.0>
-1.57492

>  <SCORE.INTRA.norm>
-0.71768

>  <SCORE.RESTR>
0

>  <SCORE.RESTR.CAVITY>
0

>  <SCORE.RESTR.norm>
0

>  <SCORE.SYSTEM>
0

>  <SCORE.SYSTEM.CONST>
0

>  <SCORE.SYSTEM.DIHEDRAL>
0

>  <SCORE.SYSTEM.SOLV>
0

>  <SCORE.SYSTEM.norm>
0

>  <SCORE.heavy>
14

>  <SCORE.norm>
-0.790322

>  <RMSD>
3.173

$$$$
ligand
 OpenBabel11021811493D
libRbt.so/2013.1/901 2013/11/27
 14 13  0  0  0  0  0  0  0  0999 V2000
   48.6444   -1.7692   -6.8741 N   0  0  0  0  0  0  0  0  0  0  0  0
   48.2668   -2.1548   -5.5199 C   0  0  0  0  0  0  0  0  0  0  0  0
   48.1498   -0.9157   -4.6068 C   0  0  0  0  0  0  0  0  0  0  0  0
   49.4549   -0.1112   -4.4455 C   0  0  0  0  0  0  0  0  0  0  0  0
   50.6296   -0.8004   -3.8906 N   0  0  0  0  0  0  0  0  0  0  0  0
   51.4603   -0.1682   -2.8597 C   0  0  0  0  0  0  0  0  0  0  0  0
   50.7586    0.0808   -1.5215 C   0  0  0  0  0  0  0  0  0  0  0  0
   51.6675    0.7720   -0.4909 C   0  0  0  0  0  0  0  0  0  0  0  0
   52.6832   -0.1697    0.1754 C   0  0  0  0  0  0  0  0  0  0  0  0
   53.6079    0.4848    1.1039 N   0  0  0  0  0  0  0  0  0  0  0  0
   54.6634   -0.3116    1.7536 C   0  0  0  0  0  0  0  0  0  0  0  0
   55.8585    0.4663    2.3537 C   0  0  0  0  0  0  0  0  0  0  0  0
   57.0578   -0.3903    2.8076 C   0  0  0  0  0  0  0  0  0  0  0  0
   58.1316    0.3999    3.4026 N   0  0  0  0  0  0  0  0  0  0  0  0
  1  2  1  0  0  0  0
  2  3  1  0  0  0  0
  3  4  1  0  0  0  0
  4  5  1  0  0  0  0
  5  6  1  0  0  0  0
  6  7  1  0  0  0  0
  7  8  1  0  0  0  0
  8  9  1  0  0  0  0
  9 10  1  0  0  0  0
 10 11  1  0  0  0  0
 11 12  1  0  0  0  0
 12 13  1  0  0  0  0
 13 14  1  0  0  0  0
M  END
>  <CHROM.1>
-61.22860397,-59.26510911,-135.04826317,64.72158048,-178.75870926,-77.60512133
176.70470693,-177.26469755,161.33556375,-169.85018173,-178.15729192,52.21651771
-0.32763215,-1.32936319,-2.39284693,-0.35859094,1.03741523

>  <Name>
ligand

>  <RI>
0

>  <Rbt.Current_Directory>
/home/itssahil/PROJECTS/Mol_Feturizer/New_Systems/rnas/4E8Q

>  <Rbt.Executable>
rbdock ($Id: //depot/dev/client3/rdock/2013.1/src/exe/rbdock.cxx#4 $)

>  <Rbt.Library>
libRbt.so (2013.1, Build901 2013/11/27)

>  <Rbt.Parameter_File>
/export/apps/rDock/src/rDock_2013.1_src/data/scripts/dock_solv.prm

>  <Rbt.Receptor>
prm/pocket_docking_7.prm

>  <SCORE>
-11.0003

>  <SCORE.INTER>
-0.110723

>  <SCORE.INTER.CONST>
1

>  <SCORE.INTER.POLAR>
0

>  <SCORE.INTER.ROT>
11

>  <SCORE.INTER.SOLV>
11.7735

>  <SCORE.INTER.VDW>
-14.9316

>  <SCORE.INTER.norm>
-0.00790877

>  <SCORE.INTRA>
-10.8896

>  <SCORE.INTRA.DIHEDRAL>
-22.9503

>  <SCORE.INTRA.DIHEDRAL.0>
25.9209

>  <SCORE.INTRA.POLAR>
0

>  <SCORE.INTRA.POLAR.0>
0

>  <SCORE.INTRA.REPUL>
0

>  <SCORE.INTRA.REPUL.0>
0

>  <SCORE.INTRA.SOLV>
-0.324425

>  <SCORE.INTRA.SOLV.lig_0>
-47.4815

>  <SCORE.INTRA.VDW>
0.747782

>  <SCORE.INTRA.VDW.0>
-1.57492

>  <SCORE.INTRA.norm>
-0.777826

>  <SCORE.RESTR>
0

>  <SCORE.RESTR.CAVITY>
0

>  <SCORE.RESTR.norm>
0

>  <SCORE.SYSTEM>
0

>  <SCORE.SYSTEM.CONST>
0

>  <SCORE.SYSTEM.DIHEDRAL>
0

>  <SCORE.SYSTEM.SOLV>
0

>  <SCORE.SYSTEM.norm>
0

>  <SCORE.heavy>
14

>  <SCORE.norm>
-0.785734

>  <RMSD>
3.202

$$$$
ligand
 OpenBabel11021811493D
libRbt.so/2013.1/901 2013/11/27
 14 13  0  0  0  0  0  0  0  0999 V2000
   50.5853    0.8434   -3.5661 N   0  0  0  0  0  0  0  0  0  0  0  0
   51.3761    0.1033   -2.5904 C   0  0  0  0  0  0  0  0  0  0  0  0
   51.5006    0.8925   -1.2697 C   0  0  0  0  0  0  0  0  0  0  0  0
   52.2595    2.2290   -1.3893 C   0  0  0  0  0  0  0  0  0  0  0  0
   52.4618    3.0226   -0.1677 N   0  0  0  0  0  0  0  0  0  0  0  0
   53.3107    4.2191   -0.1751 C   0  0  0  0  0  0  0  0  0  0  0  0
   54.7773    3.9783    0.1946 C   0  0  0  0  0  0  0  0  0  0  0  0
   55.6126    3.4576   -0.9873 C   0  0  0  0  0  0  0  0  0  0  0  0
   57.0206    2.9827   -0.5943 C   0  0  0  0  0  0  0  0  0  0  0  0
   57.0484    1.8788    0.3680 N   0  0  0  0  0  0  0  0  0  0  0  0
   57.5977    0.5752   -0.0438 C   0  0  0  0  0  0  0  0  0  0  0  0
   57.2197   -0.6493    0.8228 C   0  0  0  0  0  0  0  0  0  0  0  0
   57.5179   -0.5230    2.3305 C   0  0  0  0  0  0  0  0  0  0  0  0
   58.9259   -0.2620    2.6146 N   0  0  0  0  0  0  0  0  0  0  0  0
  1  2  1  0  0  0  0
  2  3  1  0  0  0  0
  3  4  1  0  0  0  0
  4  5  1  0  0  0  0
  5  6  1  0  0  0  0
  6  7  1  0  0  0  0
  7  8  1  0  0  0  0
  8  9  1  0  0  0  0
  9 10  1  0  0  0  0
 10 11  1  0  0  0  0
 11 12  1  0  0  0  0
 12 13  1  0  0  0  0
 13 14  1  0  0  0  0
M  END
>  <CHROM.1>
-63.89096939,-178.01297190,172.55093059,-92.10761439,81.54993039,-170.20616948
60.48769090,115.30487272,-161.73551373,-54.07857104,-58.03152637,54.80103704
1.62496814,-0.31812844,2.97105195,-0.49018284,0.00671399

>  <Name>
ligand

>  <RI>
0

>  <Rbt.Current_Directory>
/home/itssahil/PROJECTS/Mol_Feturizer/New_Systems/rnas/4E8Q

>  <Rbt.Executable>
rbdock ($Id: //depot/dev/client3/rdock/2013.1/src/exe/rbdock.cxx#4 $)

>  <Rbt.Library>
libRbt.so (2013.1, Build901 2013/11/27)

>  <Rbt.Parameter_File>
/export/apps/rDock/src/rDock_2013.1_src/data/scripts/dock_solv.prm

>  <Rbt.Receptor>
prm/pocket_docking_3.prm

>  <SCORE>
-9.26797

>  <SCORE.INTER>
0.856952

>  <SCORE.INTER.CONST>
1

>  <SCORE.INTER.POLAR>
0

>  <SCORE.INTER.ROT>
11

>  <SCORE.INTER.SOLV>
9.28812

>  <SCORE.INTER.VDW>
-13.4581

>  <SCORE.INTER.norm>
0.0612109

>  <SCORE.INTRA>
-10.1249

>  <SCORE.INTRA.DIHEDRAL>
-21.5827

>  <SCORE.INTRA.DIHEDRAL.0>
25.9209

>  <SCORE.INTRA.POLAR>
0

>  <SCORE.INTRA.POLAR.0>
0

>  <SCORE.INTRA.REPUL>
0

>  <SCORE.INTRA.REPUL.0>
0

>  <SCORE.INTRA.SOLV>
0.998689

>  <SCORE.INTRA.SOLV.lig_0>
-47.4815

>  <SCORE.INTRA.VDW>
0.167064

>  <SCORE.INTRA.VDW.0>
-1.57492

>  <SCORE.INTRA.norm>
-0.723209

>  <SCORE.RESTR>
0

>  <SCORE.RESTR.CAVITY>
0

>  <SCORE.RESTR.norm>
0

>  <SCORE.SYSTEM>
0

>  <SCORE.SYSTEM.CONST>
0

>  <SCORE.SYSTEM.DIHEDRAL>
0

>  <SCORE.SYSTEM.SOLV>
0

>  <SCORE.SYSTEM.norm>
0

>  <SCORE.heavy>
14

>  <SCORE.norm>
-0.661998

>  <RMSD>
3.219

$$$$
ligand
 OpenBabel11021811493D
libRbt.so/2013.1/901 2013/11/27
 14 13  0  0  0  0  0  0  0  0999 V2000
   51.2179    2.3233   -2.1928 N   0  0  0  0  0  0  0  0  0  0  0  0
   51.6990    1.6247   -3.3783 C   0  0  0  0  0  0  0  0  0  0  0  0
   52.4156    2.5981   -4.3384 C   0  0  0  0  0  0  0  0  0  0  0  0
   53.7258    3.1953   -3.7876 C   0  0  0  0  0  0  0  0  0  0  0  0
   53.6514    4.0367   -2.5838 N   0  0  0  0  0  0  0  0  0  0  0  0
   54.8668    4.5633   -1.9529 C   0  0  0  0  0  0  0  0  0  0  0  0
   55.7959    3.5065   -1.3485 C   0  0  0  0  0  0  0  0  0  0  0  0
   56.9441    4.1201   -0.5294 C   0  0  0  0  0  0  0  0  0  0  0  0
   57.9359    3.0855    0.0261 C   0  0  0  0  0  0  0  0  0  0  0  0
   57.3293    2.0335    0.8450 N   0  0  0  0  0  0  0  0  0  0  0  0
   57.4479    0.6280    0.4194 C   0  0  0  0  0  0  0  0  0  0  0  0
   56.9610   -0.4494    1.4172 C   0  0  0  0  0  0  0  0  0  0  0  0
   55.4740   -0.3708    1.8179 C   0  0  0  0  0  0  0  0  0  0  0  0
   55.1693    0.7826    2.6596 N   0  0  0  0  0  0  0  0  0  0  0  0
  1  2  1  0  0  0  0
  2  3  1  0  0  0  0
  3  4  1  0  0  0  0
  4  5  1  0  0  0  0
  5  6  1  0  0  0  0
  6  7  1  0  0  0  0
  7  8  1  0  0  0  0
  8  9  1  0  0  0  0
  9 10  1  0  0  0  0
 10 11  1  0  0  0  0
 11 12  1  0  0  0  0
 12 13  1  0  0  0  0
 13 14  1  0  0  0  0
M  END
>  <CHROM.1>
66.08022110,-62.67566972,175.84878101,-65.53505304,-171.76556370,-176.87440788
-55.72595763,119.06994131,171.79052345,60.22876293,-70.01695221,55.04557632
2.26266760,-0.92356122,2.38380605,-0.48175654,-0.71312404

>  <Name>
ligand

>  <RI>
0

>  <Rbt.Current_Directory>
/home/itssahil/PROJECTS/Mol_Feturizer/New_Systems/rnas/4E8Q

>  <Rbt.Executable>
rbdock ($Id: //depot/dev/client3/rdock/2013.1/src/exe/rbdock.cxx#4 $)

>  <Rbt.Library>
libRbt.so (2013.1, Build901 2013/11/27)

>  <Rbt.Parameter_File>
/export/apps/rDock/src/rDock_2013.1_src/data/scripts/dock_solv.prm

>  <Rbt.Receptor>
prm/pocket_docking_4.prm

>  <SCORE>
-9.42664

>  <SCORE.INTER>
0.634567

>  <SCORE.INTER.CONST>
1

>  <SCORE.INTER.POLAR>
0

>  <SCORE.INTER.ROT>
11

>  <SCORE.INTER.SOLV>
7.85588

>  <SCORE.INTER.VDW>
-13.1289

>  <SCORE.INTER.norm>
0.0453262

>  <SCORE.INTRA>
-10.0612

>  <SCORE.INTRA.DIHEDRAL>
-23.7287

>  <SCORE.INTRA.DIHEDRAL.0>
25.9209

>  <SCORE.INTRA.POLAR>
0

>  <SCORE.INTRA.POLAR.0>
0

>  <SCORE.INTRA.REPUL>
0

>  <SCORE.INTRA.REPUL.0>
0

>  <SCORE.INTRA.SOLV>
3.3199

>  <SCORE.INTRA.SOLV.lig_0>
-47.4815

>  <SCORE.INTRA.VDW>
0.143182

>  <SCORE.INTRA.VDW.0>
-1.57492

>  <SCORE.INTRA.norm>
-0.718658

>  <SCORE.RESTR>
0

>  <SCORE.RESTR.CAVITY>
0

>  <SCORE.RESTR.norm>
0

>  <SCORE.SYSTEM>
0

>  <SCORE.SYSTEM.CONST>
0

>  <SCORE.SYSTEM.DIHEDRAL>
0

>  <SCORE.SYSTEM.SOLV>
0

>  <SCORE.SYSTEM.norm>
0

>  <SCORE.heavy>
14

>  <SCORE.norm>
-0.673331

>  <RMSD>
3.306

$$$$
ligand
 OpenBabel11021811493D
libRbt.so/2013.1/901 2013/11/27
 14 13  0  0  0  0  0  0  0  0999 V2000
   48.9924   -0.6176   -7.9051 N   0  0  0  0  0  0  0  0  0  0  0  0
   49.1622   -0.2878   -6.4952 C   0  0  0  0  0  0  0  0  0  0  0  0
   48.2463   -1.1610   -5.6112 C   0  0  0  0  0  0  0  0  0  0  0  0
   48.2820   -0.8135   -4.1097 C   0  0  0  0  0  0  0  0  0  0  0  0
   49.5203   -1.0862   -3.3647 N   0  0  0  0  0  0  0  0  0  0  0  0
   50.7973   -0.4934   -3.7775 C   0  0  0  0  0  0  0  0  0  0  0  0
   51.6715    0.0293   -2.6337 C   0  0  0  0  0  0  0  0  0  0  0  0
   51.0805    1.2756   -1.9530 C   0  0  0  0  0  0  0  0  0  0  0  0
   52.0257    1.9393   -0.9388 C   0  0  0  0  0  0  0  0  0  0  0  0
   52.4536    1.0700    0.1597 N   0  0  0  0  0  0  0  0  0  0  0  0
   53.4781    1.5498    1.1034 C   0  0  0  0  0  0  0  0  0  0  0  0
   54.2261    0.4770    1.9299 C   0  0  0  0  0  0  0  0  0  0  0  0
   55.3098    1.0050    2.8917 C   0  0  0  0  0  0  0  0  0  0  0  0
   55.8670   -0.0354    3.7511 N   0  0  0  0  0  0  0  0  0  0  0  0
  1  2  1  0  0  0  0
  2  3  1  0  0  0  0
  3  4  1  0  0  0  0
  4  5  1  0  0  0  0
  5  6  1  0  0  0  0
  6  7  1  0  0  0  0
  7  8  1  0  0  0  0
  8  9  1  0  0  0  0
  9 10  1  0  0  0  0
 10 11  1  0  0  0  0
 11 12  1  0  0  0  0
 12 13  1  0  0  0  0
 13 14  1  0  0  0  0
M  END
>  <CHROM.1>
-175.80610522,-67.96311149,57.54506598,138.02243650,-69.21693677,-171.77631407
-58.74057309,173.07166760,-160.25933553,178.97857775,173.28870161,51.50797459
0.20380499,-1.92525532,-2.93254092,0.95530161,2.70548601

>  <Name>
ligand

>  <RI>
0

>  <Rbt.Current_Directory>
/home/itssahil/PROJECTS/Mol_Feturizer/New_Systems/rnas/4E8Q

>  <Rbt.Executable>
rbdock ($Id: //depot/dev/client3/rdock/2013.1/src/exe/rbdock.cxx#4 $)

>  <Rbt.Library>
libRbt.so (2013.1, Build901 2013/11/27)

>  <Rbt.Parameter_File>
/export/apps/rDock/src/rDock_2013.1_src/data/scripts/dock_solv.prm

>  <Rbt.Receptor>
prm/pocket_docking_4.prm

>  <SCORE>
-11.0514

>  <SCORE.INTER>
0.497815

>  <SCORE.INTER.CONST>
1

>  <SCORE.INTER.POLAR>
0

>  <SCORE.INTER.ROT>
11

>  <SCORE.INTER.SOLV>
11.5294

>  <SCORE.INTER.VDW>
-14.4446

>  <SCORE.INTER.norm>
0.0355582

>  <SCORE.INTRA>
-11.5492

>  <SCORE.INTRA.DIHEDRAL>
-23.556

>  <SCORE.INTRA.DIHEDRAL.0>
25.9209

>  <SCORE.INTRA.POLAR>
0

>  <SCORE.INTRA.POLAR.0>
0

>  <SCORE.INTRA.REPUL>
0

>  <SCORE.INTRA.REPUL.0>
0

>  <SCORE.INTRA.SOLV>
-1.01118

>  <SCORE.INTRA.SOLV.lig_0>
-47.4815

>  <SCORE.INTRA.VDW>
0.734341

>  <SCORE.INTRA.VDW.0>
-1.57492

>  <SCORE.INTRA.norm>
-0.824945

>  <SCORE.RESTR>
0

>  <SCORE.RESTR.CAVITY>
0

>  <SCORE.RESTR.norm>
0

>  <SCORE.SYSTEM>
0

>  <SCORE.SYSTEM.CONST>
0

>  <SCORE.SYSTEM.DIHEDRAL>
0

>  <SCORE.SYSTEM.SOLV>
0

>  <SCORE.SYSTEM.norm>
0

>  <SCORE.heavy>
14

>  <SCORE.norm>
-0.789387

>  <RMSD>
3.431

$$$$
ligand
 OpenBabel11021811493D
libRbt.so/2013.1/901 2013/11/27
 14 13  0  0  0  0  0  0  0  0999 V2000
   48.5115   -2.9691   -7.3714 N   0  0  0  0  0  0  0  0  0  0  0  0
   48.5214   -1.7697   -6.5428 C   0  0  0  0  0  0  0  0  0  0  0  0
   48.4920   -2.1357   -5.0436 C   0  0  0  0  0  0  0  0  0  0  0  0
   48.4663   -0.9266   -4.0876 C   0  0  0  0  0  0  0  0  0  0  0  0
   49.5994    0.0102   -4.1247 N   0  0  0  0  0  0  0  0  0  0  0  0
   50.9431   -0.4118   -3.7137 C   0  0  0  0  0  0  0  0  0  0  0  0
   51.5962    0.4575   -2.6351 C   0  0  0  0  0  0  0  0  0  0  0  0
   50.9559    0.2698   -1.2493 C   0  0  0  0  0  0  0  0  0  0  0  0
   51.4934    1.2327   -0.1785 C   0  0  0  0  0  0  0  0  0  0  0  0
   52.8764    0.9810    0.2329 N   0  0  0  0  0  0  0  0  0  0  0  0
   53.4436    1.7392    1.3616 C   0  0  0  0  0  0  0  0  0  0  0  0
   54.8699    1.3520    1.8191 C   0  0  0  0  0  0  0  0  0  0  0  0
   55.0597   -0.1141    2.2578 C   0  0  0  0  0  0  0  0  0  0  0  0
   56.4150   -0.4018    2.7182 N   0  0  0  0  0  0  0  0  0  0  0  0
  1  2  1  0  0  0  0
  2  3  1  0  0  0  0
  3  4  1  0  0  0  0
  4  5  1  0  0  0  0
  5  6  1  0  0  0  0
  6  7  1  0  0  0  0
  7  8  1  0  0  0  0
  8  9  1  0  0  0  0
  9 10  1  0  0  0  0
 10 11  1  0  0  0  0
 11 12  1  0  0  0  0
 12 13  1  0  0  0  0
 13 14  1  0  0  0  0
M  END
>  <CHROM.1>
-178.61172476,-61.19025741,-65.78775578,-125.76853467,71.95888345,-174.06496761
-69.65760824,-172.93626940,175.38324159,-58.35131511,-178.11114660,51.51727465
-0.19171768,-1.89683457,-2.39856828,-0.62121322,0.70011201

>  <Name>
ligand

>  <RI>
0

>  <Rbt.Current_Directory>
/home/itssahil/PROJECTS/Mol_Feturizer/New_Systems/rnas/4E8Q

>  <Rbt.Executable>
rbdock ($Id: //depot/dev/client3/rdock/2013.1/src/exe/rbdock.cxx#4 $)

>  <Rbt.Library>
libRbt.so (2013.1, Build901 2013/11/27)

>  <Rbt.Parameter_File>
/export/apps/rDock/src/rDock_2013.1_src/data/scripts/dock_solv.prm

>  <Rbt.Receptor>
prm/pocket_docking_6.prm

>  <SCORE>
-14.4842

>  <SCORE.INTER>
-2.44074

>  <SCORE.INTER.CONST>
1

>  <SCORE.INTER.POLAR>
0

>  <SCORE.INTER.ROT>
11

>  <SCORE.INTER.SOLV>
11.0956

>  <SCORE.INTER.VDW>
-16.259

>  <SCORE.INTER.norm>
-0.174339

>  <SCORE.INTRA>
-12.0435

>  <SCORE.INTRA.DIHEDRAL>
-23.6107

>  <SCORE.INTRA.DIHEDRAL.0>
25.9209

>  <SCORE.INTRA.POLAR>
0

>  <SCORE.INTRA.POLAR.0>
0

>  <SCORE.INTRA.REPUL>
0

>  <SCORE.INTRA.REPUL.0>
0

>  <SCORE.INTRA.SOLV>
-0.906244

>  <SCORE.INTRA.SOLV.lig_0>
-47.4815

>  <SCORE.INTRA.VDW>
0.214971

>  <SCORE.INTRA.VDW.0>
-1.57492

>  <SCORE.INTRA.norm>
-0.86025

>  <SCORE.RESTR>
0

>  <SCORE.RESTR.CAVITY>
0

>  <SCORE.RESTR.norm>
0

>  <SCORE.SYSTEM>
0

>  <SCORE.SYSTEM.CONST>
0

>  <SCORE.SYSTEM.DIHEDRAL>
0

>  <SCORE.SYSTEM.SOLV>
0

>  <SCORE.SYSTEM.norm>
0

>  <SCORE.heavy>
14

>  <SCORE.norm>
-1.03459

>  <RMSD>
3.472

$$$$
ligand
 OpenBabel11021811493D
libRbt.so/2013.1/901 2013/11/27
 14 13  0  0  0  0  0  0  0  0999 V2000
   50.1399    0.9354   -4.1770 N   0  0  0  0  0  0  0  0  0  0  0  0
   50.9988   -0.1209   -3.6558 C   0  0  0  0  0  0  0  0  0  0  0  0
   51.0687   -0.0638   -2.1149 C   0  0  0  0  0  0  0  0  0  0  0  0
   51.6972    1.2246   -1.5478 C   0  0  0  0  0  0  0  0  0  0  0  0
   51.8197    1.3512   -0.0877 N   0  0  0  0  0  0  0  0  0  0  0  0
   52.6273    2.4181    0.5138 C   0  0  0  0  0  0  0  0  0  0  0  0
   53.4088    2.0141    1.7674 C   0  0  0  0  0  0  0  0  0  0  0  0
   54.3441    0.8168    1.5271 C   0  0  0  0  0  0  0  0  0  0  0  0
   55.2544    0.4875    2.7210 C   0  0  0  0  0  0  0  0  0  0  0  0
   56.1600   -0.6437    2.5070 N   0  0  0  0  0  0  0  0  0  0  0  0
   57.1514   -0.5796    1.4192 C   0  0  0  0  0  0  0  0  0  0  0  0
   58.5018    0.1029    1.7417 C   0  0  0  0  0  0  0  0  0  0  0  0
   59.4157   -0.6497    2.7298 C   0  0  0  0  0  0  0  0  0  0  0  0
   58.8459   -0.7529    4.0700 N   0  0  0  0  0  0  0  0  0  0  0  0
  1  2  1  0  0  0  0
  2  3  1  0  0  0  0
  3  4  1  0  0  0  0
  4  5  1  0  0  0  0
  5  6  1  0  0  0  0
  6  7  1  0  0  0  0
  7  8  1  0  0  0  0
  8  9  1  0  0  0  0
  9 10  1  0  0  0  0
 10 11  1  0  0  0  0
 11 12  1  0  0  0  0
 12 13  1  0  0  0  0
 13 14  1  0  0  0  0
M  END
>  <CHROM.1>
-63.22554872,-179.13482181,168.31208001,-142.26717476,56.55126243,173.58287495
-179.54698708,60.54295083,86.05812237,68.60903854,-64.93184663,54.38817157
0.46723927,0.52954836,-2.65922233,-0.46038250,1.08506536

>  <Name>
ligand

>  <RI>
0

>  <Rbt.Current_Directory>
/home/itssahil/PROJECTS/Mol_Feturizer/New_Systems/rnas/4E8Q

>  <Rbt.Executable>
rbdock ($Id: //depot/dev/client3/rdock/2013.1/src/exe/rbdock.cxx#4 $)

>  <Rbt.Library>
libRbt.so (2013.1, Build901 2013/11/27)

>  <Rbt.Parameter_File>
/export/apps/rDock/src/rDock_2013.1_src/data/scripts/dock_solv.prm

>  <Rbt.Receptor>
prm/pocket_docking_3.prm

>  <SCORE>
-11.1131

>  <SCORE.INTER>
-0.650377

>  <SCORE.INTER.CONST>
1

>  <SCORE.INTER.POLAR>
0

>  <SCORE.INTER.ROT>
11

>  <SCORE.INTER.SOLV>
10.6165

>  <SCORE.INTER.VDW>
-14.9058

>  <SCORE.INTER.norm>
-0.0464555

>  <SCORE.INTRA>
-10.4628

>  <SCORE.INTRA.DIHEDRAL>
-23.8723

>  <SCORE.INTRA.DIHEDRAL.0>
25.9209

>  <SCORE.INTRA.POLAR>
0

>  <SCORE.INTRA.POLAR.0>
0

>  <SCORE.INTRA.REPUL>
0

>  <SCORE.INTRA.REPUL.0>
0

>  <SCORE.INTRA.SOLV>
1.66559

>  <SCORE.INTRA.SOLV.lig_0>
-47.4815

>  <SCORE.INTRA.VDW>
0.640612

>  <SCORE.INTRA.VDW.0>
-1.57492

>  <SCORE.INTRA.norm>
-0.747339

>  <SCORE.RESTR>
0

>  <SCORE.RESTR.CAVITY>
0

>  <SCORE.RESTR.norm>
0

>  <SCORE.SYSTEM>
0

>  <SCORE.SYSTEM.CONST>
0

>  <SCORE.SYSTEM.DIHEDRAL>
0

>  <SCORE.SYSTEM.SOLV>
0

>  <SCORE.SYSTEM.norm>
0

>  <SCORE.heavy>
14

>  <SCORE.norm>
-0.793795

>  <RMSD>
3.500

$$$$
ligand
 OpenBabel11021811493D
libRbt.so/2013.1/901 2013/11/27
 14 13  0  0  0  0  0  0  0  0999 V2000
   49.8204   -1.2215   -6.5320 N   0  0  0  0  0  0  0  0  0  0  0  0
   48.9694   -0.3017   -5.7869 C   0  0  0  0  0  0  0  0  0  0  0  0
   48.6133   -0.8808   -4.4012 C   0  0  0  0  0  0  0  0  0  0  0  0
   49.8144   -1.0586   -3.4513 C   0  0  0  0  0  0  0  0  0  0  0  0
   50.5445    0.1447   -3.0249 N   0  0  0  0  0  0  0  0  0  0  0  0
   51.2978    0.1659   -1.7660 C   0  0  0  0  0  0  0  0  0  0  0  0
   51.6171    1.5616   -1.2226 C   0  0  0  0  0  0  0  0  0  0  0  0
   52.3317    1.5225    0.1389 C   0  0  0  0  0  0  0  0  0  0  0  0
   52.6273    2.9111    0.7279 C   0  0  0  0  0  0  0  0  0  0  0  0
   53.5705    3.7182   -0.0496 N   0  0  0  0  0  0  0  0  0  0  0  0
   55.0138    3.6059    0.2240 C   0  0  0  0  0  0  0  0  0  0  0  0
   55.9608    4.4630   -0.6491 C   0  0  0  0  0  0  0  0  0  0  0  0
   55.7058    5.9836   -0.6233 C   0  0  0  0  0  0  0  0  0  0  0  0
   55.8631    6.5668    0.7059 N   0  0  0  0  0  0  0  0  0  0  0  0
  1  2  1  0  0  0  0
  2  3  1  0  0  0  0
  3  4  1  0  0  0  0
  4  5  1  0  0  0  0
  5  6  1  0  0  0  0
  6  7  1  0  0  0  0
  7  8  1  0  0  0  0
  8  9  1  0  0  0  0
  9 10  1  0  0  0  0
 10 11  1  0  0  0  0
 11 12  1  0  0  0  0
 12 13  1  0  0  0  0
 13 14  1  0  0  0  0
M  END
>  <CHROM.1>
64.81906101,63.52509180,154.85041880,-160.92400744,176.51618305,-178.28987477
-64.73670391,-88.96949531,178.83120953,57.50734907,61.36371780,52.26777108
1.94134286,-1.83628627,-2.64051322,0.81051140,1.62935847

>  <Name>
ligand

>  <RI>
0

>  <Rbt.Current_Directory>
/home/itssahil/PROJECTS/Mol_Feturizer/New_Systems/rnas/4E8Q

>  <Rbt.Executable>
rbdock ($Id: //depot/dev/client3/rdock/2013.1/src/exe/rbdock.cxx#4 $)

>  <Rbt.Library>
libRbt.so (2013.1, Build901 2013/11/27)

>  <Rbt.Parameter_File>
/export/apps/rDock/src/rDock_2013.1_src/data/scripts/dock_solv.prm

>  <Rbt.Receptor>
prm/pocket_docking_4.prm

>  <SCORE>
-9.82597

>  <SCORE.INTER>
1.32758

>  <SCORE.INTER.CONST>
1

>  <SCORE.INTER.POLAR>
0

>  <SCORE.INTER.ROT>
11

>  <SCORE.INTER.SOLV>
10.1759

>  <SCORE.INTER.VDW>
-13.4402

>  <SCORE.INTER.norm>
0.0948271

>  <SCORE.INTRA>
-11.1768

>  <SCORE.INTRA.DIHEDRAL>
-24.3204

>  <SCORE.INTRA.DIHEDRAL.0>
25.9209

>  <SCORE.INTRA.POLAR>
0

>  <SCORE.INTRA.POLAR.0>
0

>  <SCORE.INTRA.REPUL>
0

>  <SCORE.INTRA.REPUL.0>
0

>  <SCORE.INTRA.SOLV>
1.39356

>  <SCORE.INTRA.SOLV.lig_0>
-47.4815

>  <SCORE.INTRA.VDW>
0.286597

>  <SCORE.INTRA.VDW.0>
-1.57492

>  <SCORE.INTRA.norm>
-0.798344

>  <SCORE.RESTR>
0.0232686

>  <SCORE.RESTR.CAVITY>
0.0232686

>  <SCORE.RESTR.norm>
0.00166205

>  <SCORE.SYSTEM>
0

>  <SCORE.SYSTEM.CONST>
0

>  <SCORE.SYSTEM.DIHEDRAL>
0

>  <SCORE.SYSTEM.SOLV>
0

>  <SCORE.SYSTEM.norm>
0

>  <SCORE.heavy>
14

>  <SCORE.norm>
-0.701855

>  <RMSD>
3.554

$$$$
ligand
 OpenBabel11021811493D
libRbt.so/2013.1/901 2013/11/27
 14 13  0  0  0  0  0  0  0  0999 V2000
   56.0823    2.6838    2.3606 N   0  0  0  0  0  0  0  0  0  0  0  0
   54.9746    3.1981    1.5645 C   0  0  0  0  0  0  0  0  0  0  0  0
   53.9067    2.1070    1.3368 C   0  0  0  0  0  0  0  0  0  0  0  0
   52.6923    2.5610    0.5028 C   0  0  0  0  0  0  0  0  0  0  0  0
   51.5796    1.6155    0.3278 N   0  0  0  0  0  0  0  0  0  0  0  0
   51.6779    0.4987   -0.6187 C   0  0  0  0  0  0  0  0  0  0  0  0
   51.3533    0.8491   -2.0738 C   0  0  0  0  0  0  0  0  0  0  0  0
   51.3729   -0.3777   -3.0013 C   0  0  0  0  0  0  0  0  0  0  0  0
   50.8977   -0.0843   -4.4334 C   0  0  0  0  0  0  0  0  0  0  0  0
   49.4888    0.3005   -4.5445 N   0  0  0  0  0  0  0  0  0  0  0  0
   48.4450   -0.7279   -4.3916 C   0  0  0  0  0  0  0  0  0  0  0  0
   47.7730   -1.2417   -5.6869 C   0  0  0  0  0  0  0  0  0  0  0  0
   48.7311   -1.6530   -6.8231 C   0  0  0  0  0  0  0  0  0  0  0  0
   49.4349   -0.5193   -7.4154 N   0  0  0  0  0  0  0  0  0  0  0  0
  1  2  1  0  0  0  0
  2  3  1  0  0  0  0
  3  4  1  0  0  0  0
  4  5  1  0  0  0  0
  5  6  1  0  0  0  0
  6  7  1  0  0  0  0
  7  8  1  0  0  0  0
  8  9  1  0  0  0  0
  9 10  1  0  0  0  0
 10 11  1  0  0  0  0
 11 12  1  0  0  0  0
 12 13  1  0  0  0  0
 13 14  1  0  0  0  0
M  END
>  <CHROM.1>
179.94978502,-175.29763859,-76.94801772,-83.15025861,-175.82916938,173.49867375
-65.39861058,-74.16738623,-102.80077074,48.89426905,-68.91161524,51.31487592
0.65768899,-2.34974687,-0.95807545,-0.26835702,-1.81501917

>  <Name>
ligand

>  <RI>
0

>  <Rbt.Current_Directory>
/home/itssahil/PROJECTS/Mol_Feturizer/New_Systems/rnas/4E8Q

>  <Rbt.Executable>
rbdock ($Id: //depot/dev/client3/rdock/2013.1/src/exe/rbdock.cxx#4 $)

>  <Rbt.Library>
libRbt.so (2013.1, Build901 2013/11/27)

>  <Rbt.Parameter_File>
/export/apps/rDock/src/rDock_2013.1_src/data/scripts/dock_solv.prm

>  <Rbt.Receptor>
prm/pocket_docking_4.prm

>  <SCORE>
-11.9348

>  <SCORE.INTER>
-1.65168

>  <SCORE.INTER.CONST>
1

>  <SCORE.INTER.POLAR>
0

>  <SCORE.INTER.ROT>
11

>  <SCORE.INTER.SOLV>
7.12118

>  <SCORE.INTER.VDW>
-14.4082

>  <SCORE.INTER.norm>
-0.117977

>  <SCORE.INTRA>
-10.3112

>  <SCORE.INTRA.DIHEDRAL>
-22.9974

>  <SCORE.INTRA.DIHEDRAL.0>
25.9209

>  <SCORE.INTRA.POLAR>
0

>  <SCORE.INTRA.POLAR.0>
0

>  <SCORE.INTRA.REPUL>
0

>  <SCORE.INTRA.REPUL.0>
0

>  <SCORE.INTRA.SOLV>
1.59632

>  <SCORE.INTRA.SOLV.lig_0>
-47.4815

>  <SCORE.INTRA.VDW>
0.389386

>  <SCORE.INTRA.VDW.0>
-1.57492

>  <SCORE.INTRA.norm>
-0.736512

>  <SCORE.RESTR>
0.0279997

>  <SCORE.RESTR.CAVITY>
0.0279997

>  <SCORE.RESTR.norm>
0.00199998

>  <SCORE.SYSTEM>
0

>  <SCORE.SYSTEM.CONST>
0

>  <SCORE.SYSTEM.DIHEDRAL>
0

>  <SCORE.SYSTEM.SOLV>
0

>  <SCORE.SYSTEM.norm>
0

>  <SCORE.heavy>
14

>  <SCORE.norm>
-0.852489

>  <RMSD>
3.560

$$$$
ligand
 OpenBabel11021811493D
libRbt.so/2013.1/901 2013/11/27
 14 13  0  0  0  0  0  0  0  0999 V2000
   49.4952    0.2855   -7.8035 N   0  0  0  0  0  0  0  0  0  0  0  0
   49.6645    0.2254   -6.3568 C   0  0  0  0  0  0  0  0  0  0  0  0
   48.6819   -0.7860   -5.7289 C   0  0  0  0  0  0  0  0  0  0  0  0
   48.7800   -0.9095   -4.1953 C   0  0  0  0  0  0  0  0  0  0  0  0
   50.0668   -1.3212   -3.6143 N   0  0  0  0  0  0  0  0  0  0  0  0
   51.0372   -0.3262   -3.1442 C   0  0  0  0  0  0  0  0  0  0  0  0
   50.9171    0.0507   -1.6647 C   0  0  0  0  0  0  0  0  0  0  0  0
   51.7444    1.2943   -1.2971 C   0  0  0  0  0  0  0  0  0  0  0  0
   51.5634    1.7556    0.1579 C   0  0  0  0  0  0  0  0  0  0  0  0
   52.3722    2.9163    0.5376 N   0  0  0  0  0  0  0  0  0  0  0  0
   53.8254    2.7558    0.7189 C   0  0  0  0  0  0  0  0  0  0  0  0
   54.5203    3.7289    1.7005 C   0  0  0  0  0  0  0  0  0  0  0  0
   54.0914    3.6135    3.1773 C   0  0  0  0  0  0  0  0  0  0  0  0
   54.7262    4.6089    4.0361 N   0  0  0  0  0  0  0  0  0  0  0  0
  1  2  1  0  0  0  0
  2  3  1  0  0  0  0
  3  4  1  0  0  0  0
  4  5  1  0  0  0  0
  5  6  1  0  0  0  0
  6  7  1  0  0  0  0
  7  8  1  0  0  0  0
  8  9  1  0  0  0  0
  9 10  1  0  0  0  0
 10 11  1  0  0  0  0
 11 12  1  0  0  0  0
 12 13  1  0  0  0  0
 13 14  1  0  0  0  0
M  END
>  <CHROM.1>
-179.51791075,-59.32582473,94.83410600,91.86628675,-167.87205398,175.82840211
178.36024024,-72.55344386,-152.44316159,64.50066760,-176.68501995,51.53466190
1.27786478,-1.67687944,-2.43755837,0.93210642,1.85973771

>  <Name>
ligand

>  <RI>
0

>  <Rbt.Current_Directory>
/home/itssahil/PROJECTS/Mol_Feturizer/New_Systems/rnas/4E8Q

>  <Rbt.Executable>
rbdock ($Id: //depot/dev/client3/rdock/2013.1/src/exe/rbdock.cxx#4 $)

>  <Rbt.Library>
libRbt.so (2013.1, Build901 2013/11/27)

>  <Rbt.Parameter_File>
/export/apps/rDock/src/rDock_2013.1_src/data/scripts/dock_solv.prm

>  <Rbt.Receptor>
prm/pocket_docking_4.prm

>  <SCORE>
-10.5058

>  <SCORE.INTER>
1.38001

>  <SCORE.INTER.CONST>
1

>  <SCORE.INTER.POLAR>
0

>  <SCORE.INTER.ROT>
11

>  <SCORE.INTER.SOLV>
7.20751

>  <SCORE.INTER.VDW>
-12.4158

>  <SCORE.INTER.norm>
0.0985718

>  <SCORE.INTRA>
-11.8858

>  <SCORE.INTRA.DIHEDRAL>
-23.1224

>  <SCORE.INTRA.DIHEDRAL.0>
25.9209

>  <SCORE.INTRA.POLAR>
0

>  <SCORE.INTRA.POLAR.0>
0

>  <SCORE.INTRA.REPUL>
0

>  <SCORE.INTRA.REPUL.0>
0

>  <SCORE.INTRA.SOLV>
-1.49944

>  <SCORE.INTRA.SOLV.lig_0>
-47.4815

>  <SCORE.INTRA.VDW>
0.425155

>  <SCORE.INTRA.VDW.0>
-1.57492

>  <SCORE.INTRA.norm>
-0.848983

>  <SCORE.RESTR>
0

>  <SCORE.RESTR.CAVITY>
0

>  <SCORE.RESTR.norm>
0

>  <SCORE.SYSTEM>
0

>  <SCORE.SYSTEM.CONST>
0

>  <SCORE.SYSTEM.DIHEDRAL>
0

>  <SCORE.SYSTEM.SOLV>
0

>  <SCORE.SYSTEM.norm>
0

>  <SCORE.heavy>
14

>  <SCORE.norm>
-0.750411

>  <RMSD>
3.583

$$$$
ligand
 OpenBabel11021811493D
libRbt.so/2013.1/901 2013/11/27
 14 13  0  0  0  0  0  0  0  0999 V2000
   50.6227    2.2425   -8.5986 N   0  0  0  0  0  0  0  0  0  0  0  0
   51.9581    1.7526   -8.2794 C   0  0  0  0  0  0  0  0  0  0  0  0
   51.9048    0.7081   -7.1442 C   0  0  0  0  0  0  0  0  0  0  0  0
   51.4254    1.2590   -5.7865 C   0  0  0  0  0  0  0  0  0  0  0  0
   51.4368    0.3529   -4.6282 N   0  0  0  0  0  0  0  0  0  0  0  0
   51.0780    0.8329   -3.2890 C   0  0  0  0  0  0  0  0  0  0  0  0
   51.5983   -0.0229   -2.1304 C   0  0  0  0  0  0  0  0  0  0  0  0
   50.9857    0.3712   -0.7757 C   0  0  0  0  0  0  0  0  0  0  0  0
   51.4837    1.7213   -0.2354 C   0  0  0  0  0  0  0  0  0  0  0  0
   52.8971    1.7438    0.1482 N   0  0  0  0  0  0  0  0  0  0  0  0
   53.4268    2.9036    0.8863 C   0  0  0  0  0  0  0  0  0  0  0  0
   53.9137    4.1066    0.0442 C   0  0  0  0  0  0  0  0  0  0  0  0
   55.1177    3.8359   -0.8804 C   0  0  0  0  0  0  0  0  0  0  0  0
   55.5314    5.0126   -1.6393 N   0  0  0  0  0  0  0  0  0  0  0  0
  1  2  1  0  0  0  0
  2  3  1  0  0  0  0
  3  4  1  0  0  0  0
  4  5  1  0  0  0  0
  5  6  1  0  0  0  0
  6  7  1  0  0  0  0
  7  8  1  0  0  0  0
  8  9  1  0  0  0  0
  9 10  1  0  0  0  0
 10 11  1  0  0  0  0
 11 12  1  0  0  0  0
 12 13  1  0  0  0  0
 13 14  1  0  0  0  0
M  END
>  <CHROM.1>
-64.86512405,-175.71178502,175.96679339,-158.91677977,-169.47760619,-71.15948844
-67.37727314,-169.73385604,-86.39654943,-63.74645526,-179.63414393,52.38421037
1.91554236,-3.02174306,-2.01729052,0.82810804,1.67702809

>  <Name>
ligand

>  <RI>
0

>  <Rbt.Current_Directory>
/home/itssahil/PROJECTS/Mol_Feturizer/New_Systems/rnas/4E8Q

>  <Rbt.Executable>
rbdock ($Id: //depot/dev/client3/rdock/2013.1/src/exe/rbdock.cxx#4 $)

>  <Rbt.Library>
libRbt.so (2013.1, Build901 2013/11/27)

>  <Rbt.Parameter_File>
/export/apps/rDock/src/rDock_2013.1_src/data/scripts/dock_solv.prm

>  <Rbt.Receptor>
prm/pocket_docking_6.prm

>  <SCORE>
-8.49631

>  <SCORE.INTER>
3.12189

>  <SCORE.INTER.CONST>
1

>  <SCORE.INTER.POLAR>
0

>  <SCORE.INTER.ROT>
11

>  <SCORE.INTER.SOLV>
7.2282

>  <SCORE.INTER.VDW>
-11.2615

>  <SCORE.INTER.norm>
0.222992

>  <SCORE.INTRA>
-11.6182

>  <SCORE.INTRA.DIHEDRAL>
-23.6743

>  <SCORE.INTRA.DIHEDRAL.0>
25.9209

>  <SCORE.INTRA.POLAR>
0

>  <SCORE.INTRA.POLAR.0>
0

>  <SCORE.INTRA.REPUL>
0

>  <SCORE.INTRA.REPUL.0>
0

>  <SCORE.INTRA.SOLV>
-0.604255

>  <SCORE.INTRA.SOLV.lig_0>
-47.4815

>  <SCORE.INTRA.VDW>
0.521089

>  <SCORE.INTRA.VDW.0>
-1.57492

>  <SCORE.INTRA.norm>
-0.829872

>  <SCORE.RESTR>
0

>  <SCORE.RESTR.CAVITY>
0

>  <SCORE.RESTR.norm>
0

>  <SCORE.SYSTEM>
0

>  <SCORE.SYSTEM.CONST>
0

>  <SCORE.SYSTEM.DIHEDRAL>
0

>  <SCORE.SYSTEM.SOLV>
0

>  <SCORE.SYSTEM.norm>
0

>  <SCORE.heavy>
14

>  <SCORE.norm>
-0.60688

>  <RMSD>
3.624

$$$$
ligand
 OpenBabel11021811493D
libRbt.so/2013.1/901 2013/11/27
 14 13  0  0  0  0  0  0  0  0999 V2000
   55.0223    5.4782    0.1674 N   0  0  0  0  0  0  0  0  0  0  0  0
   54.7445    4.0486    0.2322 C   0  0  0  0  0  0  0  0  0  0  0  0
   53.6692    3.7441    1.2968 C   0  0  0  0  0  0  0  0  0  0  0  0
   53.2889    2.2550    1.4181 C   0  0  0  0  0  0  0  0  0  0  0  0
   52.7580    1.5762    0.2265 N   0  0  0  0  0  0  0  0  0  0  0  0
   51.4503    1.9392   -0.3309 C   0  0  0  0  0  0  0  0  0  0  0  0
   51.2331    1.5395   -1.7933 C   0  0  0  0  0  0  0  0  0  0  0  0
   51.3182    0.0198   -2.0152 C   0  0  0  0  0  0  0  0  0  0  0  0
   50.9602   -0.4228   -3.4430 C   0  0  0  0  0  0  0  0  0  0  0  0
   49.5506   -0.2512   -3.8021 N   0  0  0  0  0  0  0  0  0  0  0  0
   49.2021    0.2261   -5.1517 C   0  0  0  0  0  0  0  0  0  0  0  0
   49.6025    1.6778   -5.5062 C   0  0  0  0  0  0  0  0  0  0  0  0
   48.9584    2.7819   -4.6436 C   0  0  0  0  0  0  0  0  0  0  0  0
   49.4103    4.1233   -5.0017 N   0  0  0  0  0  0  0  0  0  0  0  0
  1  2  1  0  0  0  0
  2  3  1  0  0  0  0
  3  4  1  0  0  0  0
  4  5  1  0  0  0  0
  5  6  1  0  0  0  0
  6  7  1  0  0  0  0
  7  8  1  0  0  0  0
  8  9  1  0  0  0  0
  9 10  1  0  0  0  0
 10 11  1  0  0  0  0
 11 12  1  0  0  0  0
 12 13  1  0  0  0  0
 13 14  1  0  0  0  0
M  END
>  <CHROM.1>
178.86729626,-59.03366657,-67.28646963,159.46770561,61.07679593,173.97075772
-68.57728583,140.13326409,-66.90009318,-61.84182202,178.16379780,51.51198247
2.05228240,-2.02473260,0.03985524,-0.92169649,-0.37094204

>  <Name>
ligand

>  <RI>
0

>  <Rbt.Current_Directory>
/home/itssahil/PROJECTS/Mol_Feturizer/New_Systems/rnas/4E8Q

>  <Rbt.Executable>
rbdock ($Id: //depot/dev/client3/rdock/2013.1/src/exe/rbdock.cxx#4 $)

>  <Rbt.Library>
libRbt.so (2013.1, Build901 2013/11/27)

>  <Rbt.Parameter_File>
/export/apps/rDock/src/rDock_2013.1_src/data/scripts/dock_solv.prm

>  <Rbt.Receptor>
prm/pocket_docking_3.prm

>  <SCORE>
-10.6273

>  <SCORE.INTER>
1.71997

>  <SCORE.INTER.CONST>
1

>  <SCORE.INTER.POLAR>
0

>  <SCORE.INTER.ROT>
11

>  <SCORE.INTER.SOLV>
7.32759

>  <SCORE.INTER.VDW>
-12.2292

>  <SCORE.INTER.norm>
0.122855

>  <SCORE.INTRA>
-12.3473

>  <SCORE.INTRA.DIHEDRAL>
-24.1648

>  <SCORE.INTRA.DIHEDRAL.0>
25.9209

>  <SCORE.INTRA.POLAR>
0

>  <SCORE.INTRA.POLAR.0>
0

>  <SCORE.INTRA.REPUL>
0

>  <SCORE.INTRA.REPUL.0>
0

>  <SCORE.INTRA.SOLV>
-0.685095

>  <SCORE.INTRA.SOLV.lig_0>
-47.4815

>  <SCORE.INTRA.VDW>
0.0776568

>  <SCORE.INTRA.VDW.0>
-1.57492

>  <SCORE.INTRA.norm>
-0.88195

>  <SCORE.RESTR>
0

>  <SCORE.RESTR.CAVITY>
0

>  <SCORE.RESTR.norm>
0

>  <SCORE.SYSTEM>
0

>  <SCORE.SYSTEM.CONST>
0

>  <SCORE.SYSTEM.DIHEDRAL>
0

>  <SCORE.SYSTEM.SOLV>
0

>  <SCORE.SYSTEM.norm>
0

>  <SCORE.heavy>
14

>  <SCORE.norm>
-0.759095

>  <RMSD>
3.650

$$$$
ligand
 OpenBabel11021811493D
libRbt.so/2013.1/901 2013/11/27
 14 13  0  0  0  0  0  0  0  0999 V2000
   49.2958   -0.0577   -7.4868 N   0  0  0  0  0  0  0  0  0  0  0  0
   49.2240   -1.4031   -6.9301 C   0  0  0  0  0  0  0  0  0  0  0  0
   47.9706   -1.5665   -6.0443 C   0  0  0  0  0  0  0  0  0  0  0  0
   47.9467   -0.6665   -4.7928 C   0  0  0  0  0  0  0  0  0  0  0  0
   49.0443   -0.7992   -3.8230 N   0  0  0  0  0  0  0  0  0  0  0  0
   50.3993   -0.3390   -4.1468 C   0  0  0  0  0  0  0  0  0  0  0  0
   51.3953   -0.3807   -2.9842 C   0  0  0  0  0  0  0  0  0  0  0  0
   51.1572    0.7369   -1.9545 C   0  0  0  0  0  0  0  0  0  0  0  0
   51.8840    0.5182   -0.6179 C   0  0  0  0  0  0  0  0  0  0  0  0
   51.8694    1.6728    0.2833 N   0  0  0  0  0  0  0  0  0  0  0  0
   53.0710    2.5181    0.3939 C   0  0  0  0  0  0  0  0  0  0  0  0
   53.9472    2.3282    1.6547 C   0  0  0  0  0  0  0  0  0  0  0  0
   54.4477    0.8930    1.9150 C   0  0  0  0  0  0  0  0  0  0  0  0
   55.2407    0.7770    3.1353 N   0  0  0  0  0  0  0  0  0  0  0  0
  1  2  1  0  0  0  0
  2  3  1  0  0  0  0
  3  4  1  0  0  0  0
  4  5  1  0  0  0  0
  5  6  1  0  0  0  0
  6  7  1  0  0  0  0
  7  8  1  0  0  0  0
  8  9  1  0  0  0  0
  9 10  1  0  0  0  0
 10 11  1  0  0  0  0
 11 12  1  0  0  0  0
 12 13  1  0  0  0  0
 13 14  1  0  0  0  0
M  END
>  <CHROM.1>
-63.67060868,-58.88930794,70.43721239,172.71513665,-74.18643899,165.11017270
169.55270280,-101.97337743,-103.17467897,55.57565685,-178.61847529,51.20659639
0.30222554,-2.24284650,-2.31943050,0.66080032,1.78837008

>  <Name>
ligand

>  <RI>
0

>  <Rbt.Current_Directory>
/home/itssahil/PROJECTS/Mol_Feturizer/New_Systems/rnas/4E8Q

>  <Rbt.Executable>
rbdock ($Id: //depot/dev/client3/rdock/2013.1/src/exe/rbdock.cxx#4 $)

>  <Rbt.Library>
libRbt.so (2013.1, Build901 2013/11/27)

>  <Rbt.Parameter_File>
/export/apps/rDock/src/rDock_2013.1_src/data/scripts/dock_solv.prm

>  <Rbt.Receptor>
prm/pocket_docking_4.prm

>  <SCORE>
-12.253

>  <SCORE.INTER>
-2.44824

>  <SCORE.INTER.CONST>
1

>  <SCORE.INTER.POLAR>
0

>  <SCORE.INTER.ROT>
11

>  <SCORE.INTER.SOLV>
8.4052

>  <SCORE.INTER.VDW>
-15.3672

>  <SCORE.INTER.norm>
-0.174874

>  <SCORE.INTRA>
-9.80474

>  <SCORE.INTRA.DIHEDRAL>
-21.7065

>  <SCORE.INTRA.DIHEDRAL.0>
25.9209

>  <SCORE.INTRA.POLAR>
0

>  <SCORE.INTRA.POLAR.0>
0

>  <SCORE.INTRA.REPUL>
0

>  <SCORE.INTRA.REPUL.0>
0

>  <SCORE.INTRA.SOLV>
1.07176

>  <SCORE.INTRA.SOLV.lig_0>
-47.4815

>  <SCORE.INTRA.VDW>
0.512647

>  <SCORE.INTRA.VDW.0>
-1.57492

>  <SCORE.INTRA.norm>
-0.700339

>  <SCORE.RESTR>
0

>  <SCORE.RESTR.CAVITY>
0

>  <SCORE.RESTR.norm>
0

>  <SCORE.SYSTEM>
0

>  <SCORE.SYSTEM.CONST>
0

>  <SCORE.SYSTEM.DIHEDRAL>
0

>  <SCORE.SYSTEM.SOLV>
0

>  <SCORE.SYSTEM.norm>
0

>  <SCORE.heavy>
14

>  <SCORE.norm>
-0.875213

>  <RMSD>
3.656

$$$$
ligand
 OpenBabel11021811493D
libRbt.so/2013.1/901 2013/11/27
 14 13  0  0  0  0  0  0  0  0999 V2000
   58.7708   -1.0534    2.6459 N   0  0  0  0  0  0  0  0  0  0  0  0
   58.4287   -0.3215    1.4325 C   0  0  0  0  0  0  0  0  0  0  0  0
   56.9968   -0.6632    0.9683 C   0  0  0  0  0  0  0  0  0  0  0  0
   55.8866   -0.2568    1.9577 C   0  0  0  0  0  0  0  0  0  0  0  0
   55.8094    1.1523    2.3717 N   0  0  0  0  0  0  0  0  0  0  0  0
   55.0778    1.5462    3.5808 C   0  0  0  0  0  0  0  0  0  0  0  0
   53.5714    1.7484    3.3925 C   0  0  0  0  0  0  0  0  0  0  0  0
   53.2406    2.8573    2.3791 C   0  0  0  0  0  0  0  0  0  0  0  0
   53.4931    2.4602    0.9158 C   0  0  0  0  0  0  0  0  0  0  0  0
   52.6521    1.3664    0.4241 N   0  0  0  0  0  0  0  0  0  0  0  0
   51.3155    1.6699   -0.1162 C   0  0  0  0  0  0  0  0  0  0  0  0
   51.1955    1.8062   -1.6526 C   0  0  0  0  0  0  0  0  0  0  0  0
   51.3894    0.5064   -2.4594 C   0  0  0  0  0  0  0  0  0  0  0  0
   51.1838    0.6879   -3.8933 N   0  0  0  0  0  0  0  0  0  0  0  0
  1  2  1  0  0  0  0
  2  3  1  0  0  0  0
  3  4  1  0  0  0  0
  4  5  1  0  0  0  0
  5  6  1  0  0  0  0
  6  7  1  0  0  0  0
  7  8  1  0  0  0  0
  8  9  1  0  0  0  0
  9 10  1  0  0  0  0
 10 11  1  0  0  0  0
 11 12  1  0  0  0  0
 12 13  1  0  0  0  0
 13 14  1  0  0  0  0
M  END
>  <CHROM.1>
63.30381568,56.34626130,-161.31294039,-84.42628666,-60.82826377,73.74150612
64.05531806,85.78531979,96.66666347,68.58912227,176.50616933,54.21494452
0.96490982,0.85354118,-0.45732380,0.47102080,-2.00446569

>  <Name>
ligand

>  <RI>
0

>  <Rbt.Current_Directory>
/home/itssahil/PROJECTS/Mol_Feturizer/New_Systems/rnas/4E8Q

>  <Rbt.Executable>
rbdock ($Id: //depot/dev/client3/rdock/2013.1/src/exe/rbdock.cxx#4 $)

>  <Rbt.Library>
libRbt.so (2013.1, Build901 2013/11/27)

>  <Rbt.Parameter_File>
/export/apps/rDock/src/rDock_2013.1_src/data/scripts/dock_solv.prm

>  <Rbt.Receptor>
prm/pocket_docking_3.prm

>  <SCORE>
-6.91299

>  <SCORE.INTER>
3.15217

>  <SCORE.INTER.CONST>
1

>  <SCORE.INTER.POLAR>
0

>  <SCORE.INTER.ROT>
11

>  <SCORE.INTER.SOLV>
12.2706

>  <SCORE.INTER.VDW>
-12.9221

>  <SCORE.INTER.norm>
0.225155

>  <SCORE.INTRA>
-10.0652

>  <SCORE.INTRA.DIHEDRAL>
-22.7196

>  <SCORE.INTRA.DIHEDRAL.0>
25.9209

>  <SCORE.INTRA.POLAR>
0

>  <SCORE.INTRA.POLAR.0>
0

>  <SCORE.INTRA.REPUL>
0

>  <SCORE.INTRA.REPUL.0>
0

>  <SCORE.INTRA.SOLV>
1.94136

>  <SCORE.INTRA.SOLV.lig_0>
-47.4815

>  <SCORE.INTRA.VDW>
0.323939

>  <SCORE.INTRA.VDW.0>
-1.57492

>  <SCORE.INTRA.norm>
-0.71894

>  <SCORE.RESTR>
0

>  <SCORE.RESTR.CAVITY>
0

>  <SCORE.RESTR.norm>
0

>  <SCORE.SYSTEM>
0

>  <SCORE.SYSTEM.CONST>
0

>  <SCORE.SYSTEM.DIHEDRAL>
0

>  <SCORE.SYSTEM.SOLV>
0

>  <SCORE.SYSTEM.norm>
0

>  <SCORE.heavy>
14

>  <SCORE.norm>
-0.493785

>  <RMSD>
3.666

$$$$
ligand
 OpenBabel11021811493D
libRbt.so/2013.1/901 2013/11/27
 14 13  0  0  0  0  0  0  0  0999 V2000
   49.9814    0.0984   -7.4017 N   0  0  0  0  0  0  0  0  0  0  0  0
   48.8465   -0.8153   -7.4504 C   0  0  0  0  0  0  0  0  0  0  0  0
   49.0203   -1.9640   -6.4341 C   0  0  0  0  0  0  0  0  0  0  0  0
   49.0385   -1.5187   -4.9583 C   0  0  0  0  0  0  0  0  0  0  0  0
   50.1176   -0.6215   -4.5186 N   0  0  0  0  0  0  0  0  0  0  0  0
   50.5447   -0.5832   -3.1155 C   0  0  0  0  0  0  0  0  0  0  0  0
   51.1032    0.7620   -2.6423 C   0  0  0  0  0  0  0  0  0  0  0  0
   51.5301    0.7440   -1.1647 C   0  0  0  0  0  0  0  0  0  0  0  0
   51.9131    2.1252   -0.6095 C   0  0  0  0  0  0  0  0  0  0  0  0
   52.9618    2.8183   -1.3612 N   0  0  0  0  0  0  0  0  0  0  0  0
   54.0562    3.4810   -0.6308 C   0  0  0  0  0  0  0  0  0  0  0  0
   55.2663    3.9610   -1.4668 C   0  0  0  0  0  0  0  0  0  0  0  0
   56.4603    4.5150   -0.6635 C   0  0  0  0  0  0  0  0  0  0  0  0
   57.0513    3.5280    0.2355 N   0  0  0  0  0  0  0  0  0  0  0  0
  1  2  1  0  0  0  0
  2  3  1  0  0  0  0
  3  4  1  0  0  0  0
  4  5  1  0  0  0  0
  5  6  1  0  0  0  0
  6  7  1  0  0  0  0
  7  8  1  0  0  0  0
  8  9  1  0  0  0  0
  9 10  1  0  0  0  0
 10 11  1  0  0  0  0
 11 12  1  0  0  0  0
 12 13  1  0  0  0  0
 13 14  1  0  0  0  0
M  END
>  <CHROM.1>
64.10815954,-62.45354178,-154.74675948,-150.76114541,179.82435026,-172.07286779
-55.56371497,-135.36149779,168.75327445,-173.77725335,61.41588465,51.99202373
1.18062678,-3.01288088,-2.50542281,0.65655954,1.55911474

>  <Name>
ligand

>  <RI>
0

>  <Rbt.Current_Directory>
/home/itssahil/PROJECTS/Mol_Feturizer/New_Systems/rnas/4E8Q

>  <Rbt.Executable>
rbdock ($Id: //depot/dev/client3/rdock/2013.1/src/exe/rbdock.cxx#4 $)

>  <Rbt.Library>
libRbt.so (2013.1, Build901 2013/11/27)

>  <Rbt.Parameter_File>
/export/apps/rDock/src/rDock_2013.1_src/data/scripts/dock_solv.prm

>  <Rbt.Receptor>
prm/pocket_docking_4.prm

>  <SCORE>
-10.164

>  <SCORE.INTER>
0.35822

>  <SCORE.INTER.CONST>
1

>  <SCORE.INTER.POLAR>
0

>  <SCORE.INTER.ROT>
11

>  <SCORE.INTER.SOLV>
8.09209

>  <SCORE.INTER.VDW>
-13.3919

>  <SCORE.INTER.norm>
0.0255871

>  <SCORE.INTRA>
-10.5222

>  <SCORE.INTRA.DIHEDRAL>
-23.202

>  <SCORE.INTRA.DIHEDRAL.0>
25.9209

>  <SCORE.INTRA.POLAR>
0

>  <SCORE.INTRA.POLAR.0>
0

>  <SCORE.INTRA.REPUL>
0

>  <SCORE.INTRA.REPUL.0>
0

>  <SCORE.INTRA.SOLV>
1.57694

>  <SCORE.INTRA.SOLV.lig_0>
-47.4815

>  <SCORE.INTRA.VDW>
0.290328

>  <SCORE.INTRA.VDW.0>
-1.57492

>  <SCORE.INTRA.norm>
-0.751585

>  <SCORE.RESTR>
0

>  <SCORE.RESTR.CAVITY>
0

>  <SCORE.RESTR.norm>
0

>  <SCORE.SYSTEM>
0

>  <SCORE.SYSTEM.CONST>
0

>  <SCORE.SYSTEM.DIHEDRAL>
0

>  <SCORE.SYSTEM.SOLV>
0

>  <SCORE.SYSTEM.norm>
0

>  <SCORE.heavy>
14

>  <SCORE.norm>
-0.725998

>  <RMSD>
3.674

$$$$
ligand
 OpenBabel11021811493D
libRbt.so/2013.1/901 2013/11/27
 14 13  0  0  0  0  0  0  0  0999 V2000
   51.4362   -0.4658   -9.0092 N   0  0  0  0  0  0  0  0  0  0  0  0
   51.7787    0.3315   -7.8379 C   0  0  0  0  0  0  0  0  0  0  0  0
   51.0257   -0.1731   -6.5886 C   0  0  0  0  0  0  0  0  0  0  0  0
   51.2309    0.6853   -5.3246 C   0  0  0  0  0  0  0  0  0  0  0  0
   50.5533    0.2696   -4.0873 N   0  0  0  0  0  0  0  0  0  0  0  0
   51.2982   -0.3633   -2.9931 C   0  0  0  0  0  0  0  0  0  0  0  0
   51.1921    0.3448   -1.6393 C   0  0  0  0  0  0  0  0  0  0  0  0
   51.6303    1.8179   -1.7008 C   0  0  0  0  0  0  0  0  0  0  0  0
   51.4411    2.5803   -0.3796 C   0  0  0  0  0  0  0  0  0  0  0  0
   52.2536    2.0862    0.7345 N   0  0  0  0  0  0  0  0  0  0  0  0
   52.3721    2.8984    1.9579 C   0  0  0  0  0  0  0  0  0  0  0  0
   53.3034    2.3588    3.0693 C   0  0  0  0  0  0  0  0  0  0  0  0
   53.4876    3.2759    4.2952 C   0  0  0  0  0  0  0  0  0  0  0  0
   52.2390    3.5393    5.0045 N   0  0  0  0  0  0  0  0  0  0  0  0
  1  2  1  0  0  0  0
  2  3  1  0  0  0  0
  3  4  1  0  0  0  0
  4  5  1  0  0  0  0
  5  6  1  0  0  0  0
  6  7  1  0  0  0  0
  7  8  1  0  0  0  0
  8  9  1  0  0  0  0
  9 10  1  0  0  0  0
 10 11  1  0  0  0  0
 11 12  1  0  0  0  0
 12 13  1  0  0  0  0
 13 14  1  0  0  0  0
M  END
>  <CHROM.1>
-174.96718182,-179.69046644,105.02891738,123.31046512,-56.31073464,175.93318157
63.91469909,167.28920443,-176.85848525,175.80977661,61.18911976,51.80307932
1.37042934,-1.74987635,-1.78021955,0.88177278,1.44988873

>  <Name>
ligand

>  <RI>
0

>  <Rbt.Current_Directory>
/home/itssahil/PROJECTS/Mol_Feturizer/New_Systems/rnas/4E8Q

>  <Rbt.Executable>
rbdock ($Id: //depot/dev/client3/rdock/2013.1/src/exe/rbdock.cxx#4 $)

>  <Rbt.Library>
libRbt.so (2013.1, Build901 2013/11/27)

>  <Rbt.Parameter_File>
/export/apps/rDock/src/rDock_2013.1_src/data/scripts/dock_solv.prm

>  <Rbt.Receptor>
prm/pocket_docking_6.prm

>  <SCORE>
-9.76962

>  <SCORE.INTER>
1.85715

>  <SCORE.INTER.CONST>
1

>  <SCORE.INTER.POLAR>
0

>  <SCORE.INTER.ROT>
11

>  <SCORE.INTER.SOLV>
7.5762

>  <SCORE.INTER.VDW>
-12.2206

>  <SCORE.INTER.norm>
0.132654

>  <SCORE.INTRA>
-11.6268

>  <SCORE.INTRA.DIHEDRAL>
-23.2235

>  <SCORE.INTRA.DIHEDRAL.0>
25.9209

>  <SCORE.INTRA.POLAR>
0

>  <SCORE.INTRA.POLAR.0>
0

>  <SCORE.INTRA.REPUL>
0

>  <SCORE.INTRA.REPUL.0>
0

>  <SCORE.INTRA.SOLV>
-0.697711

>  <SCORE.INTRA.SOLV.lig_0>
-47.4815

>  <SCORE.INTRA.VDW>
0.333816

>  <SCORE.INTRA.VDW.0>
-1.57492

>  <SCORE.INTRA.norm>
-0.830484

>  <SCORE.RESTR>
0

>  <SCORE.RESTR.CAVITY>
0

>  <SCORE.RESTR.norm>
0

>  <SCORE.SYSTEM>
0

>  <SCORE.SYSTEM.CONST>
0

>  <SCORE.SYSTEM.DIHEDRAL>
0

>  <SCORE.SYSTEM.SOLV>
0

>  <SCORE.SYSTEM.norm>
0

>  <SCORE.heavy>
14

>  <SCORE.norm>
-0.69783

>  <RMSD>
3.709

$$$$
ligand
 OpenBabel11021811493D
libRbt.so/2013.1/901 2013/11/27
 14 13  0  0  0  0  0  0  0  0999 V2000
   50.6355    0.1228   -4.3126 N   0  0  0  0  0  0  0  0  0  0  0  0
   51.0490   -0.2975   -2.9794 C   0  0  0  0  0  0  0  0  0  0  0  0
   51.3054    0.9243   -2.0716 C   0  0  0  0  0  0  0  0  0  0  0  0
   51.5755    0.5806   -0.5932 C   0  0  0  0  0  0  0  0  0  0  0  0
   51.7271    1.6906    0.3596 N   0  0  0  0  0  0  0  0  0  0  0  0
   53.0189    2.3629    0.5381 C   0  0  0  0  0  0  0  0  0  0  0  0
   53.8980    1.7959    1.6567 C   0  0  0  0  0  0  0  0  0  0  0  0
   54.2171    0.3034    1.4659 C   0  0  0  0  0  0  0  0  0  0  0  0
   55.2178   -0.2560    2.4898 C   0  0  0  0  0  0  0  0  0  0  0  0
   56.5808    0.2647    2.3617 N   0  0  0  0  0  0  0  0  0  0  0  0
   57.7211   -0.6620    2.4690 C   0  0  0  0  0  0  0  0  0  0  0  0
   59.1328   -0.0316    2.5263 C   0  0  0  0  0  0  0  0  0  0  0  0
   59.4000    0.9103    3.7177 C   0  0  0  0  0  0  0  0  0  0  0  0
   58.6460    2.1581    3.6398 N   0  0  0  0  0  0  0  0  0  0  0  0
  1  2  1  0  0  0  0
  2  3  1  0  0  0  0
  3  4  1  0  0  0  0
  4  5  1  0  0  0  0
  5  6  1  0  0  0  0
  6  7  1  0  0  0  0
  7  8  1  0  0  0  0
  8  9  1  0  0  0  0
  9 10  1  0  0  0  0
 10 11  1  0  0  0  0
 11 12  1  0  0  0  0
 12 13  1  0  0  0  0
 13 14  1  0  0  0  0
M  END
>  <CHROM.1>
172.69113567,-175.38443906,-84.37733814,-92.51778448,58.04466334,173.84056349
-68.02648892,-136.71002326,-171.59255809,60.84437912,-69.10538102,54.58042865
0.70460906,0.80496225,-2.65841770,-0.43909423,0.88312624

>  <Name>
ligand

>  <RI>
0

>  <Rbt.Current_Directory>
/home/itssahil/PROJECTS/Mol_Feturizer/New_Systems/rnas/4E8Q

>  <Rbt.Executable>
rbdock ($Id: //depot/dev/client3/rdock/2013.1/src/exe/rbdock.cxx#4 $)

>  <Rbt.Library>
libRbt.so (2013.1, Build901 2013/11/27)

>  <Rbt.Parameter_File>
/export/apps/rDock/src/rDock_2013.1_src/data/scripts/dock_solv.prm

>  <Rbt.Receptor>
prm/pocket_docking_3.prm

>  <SCORE>
-11.031

>  <SCORE.INTER>
-0.445012

>  <SCORE.INTER.CONST>
1

>  <SCORE.INTER.POLAR>
0

>  <SCORE.INTER.ROT>
11

>  <SCORE.INTER.SOLV>
10.8961

>  <SCORE.INTER.VDW>
-14.862

>  <SCORE.INTER.norm>
-0.0317865

>  <SCORE.INTRA>
-10.603

>  <SCORE.INTRA.DIHEDRAL>
-22.7716

>  <SCORE.INTRA.DIHEDRAL.0>
25.9209

>  <SCORE.INTRA.POLAR>
0

>  <SCORE.INTRA.POLAR.0>
0

>  <SCORE.INTRA.REPUL>
0

>  <SCORE.INTRA.REPUL.0>
0

>  <SCORE.INTRA.SOLV>
1.08255

>  <SCORE.INTRA.SOLV.lig_0>
-47.4815

>  <SCORE.INTRA.VDW>
0.241476

>  <SCORE.INTRA.VDW.0>
-1.57492

>  <SCORE.INTRA.norm>
-0.75736

>  <SCORE.RESTR>
0.0170661

>  <SCORE.RESTR.CAVITY>
0.0170661

>  <SCORE.RESTR.norm>
0.00121901

>  <SCORE.SYSTEM>
0

>  <SCORE.SYSTEM.CONST>
0

>  <SCORE.SYSTEM.DIHEDRAL>
0

>  <SCORE.SYSTEM.SOLV>
0

>  <SCORE.SYSTEM.norm>
0

>  <SCORE.heavy>
14

>  <SCORE.norm>
-0.787928

>  <RMSD>
3.711

$$$$
ligand
 OpenBabel11021811493D
libRbt.so/2013.1/901 2013/11/27
 14 13  0  0  0  0  0  0  0  0999 V2000
   55.5934    4.8445    1.9043 N   0  0  0  0  0  0  0  0  0  0  0  0
   55.0311    4.6561    0.5725 C   0  0  0  0  0  0  0  0  0  0  0  0
   53.8213    3.6985    0.6158 C   0  0  0  0  0  0  0  0  0  0  0  0
   53.1800    3.4113   -0.7564 C   0  0  0  0  0  0  0  0  0  0  0  0
   52.0163    2.5133   -0.8029 N   0  0  0  0  0  0  0  0  0  0  0  0
   52.1103    1.1283   -0.3280 C   0  0  0  0  0  0  0  0  0  0  0  0
   51.0772    0.1660   -0.9213 C   0  0  0  0  0  0  0  0  0  0  0  0
   51.1744    0.0564   -2.4524 C   0  0  0  0  0  0  0  0  0  0  0  0
   50.1305   -0.8827   -3.0778 C   0  0  0  0  0  0  0  0  0  0  0  0
   50.1265   -0.9055   -4.5423 N   0  0  0  0  0  0  0  0  0  0  0  0
   49.0547   -0.2068   -5.2727 C   0  0  0  0  0  0  0  0  0  0  0  0
   49.3536    1.2362   -5.7436 C   0  0  0  0  0  0  0  0  0  0  0  0
   49.5281    2.2847   -4.6264 C   0  0  0  0  0  0  0  0  0  0  0  0
   49.8550    3.6134   -5.1357 N   0  0  0  0  0  0  0  0  0  0  0  0
  1  2  1  0  0  0  0
  2  3  1  0  0  0  0
  3  4  1  0  0  0  0
  4  5  1  0  0  0  0
  5  6  1  0  0  0  0
  6  7  1  0  0  0  0
  7  8  1  0  0  0  0
  8  9  1  0  0  0  0
  9 10  1  0  0  0  0
 10 11  1  0  0  0  0
 11 12  1  0  0  0  0
 12 13  1  0  0  0  0
 13 14  1  0  0  0  0
M  END
>  <CHROM.1>
-178.58393253,-179.67871732,-59.66846595,-156.38851551,60.13388870,-178.87314702
174.63897235,-104.70764544,94.96828501,-66.80106543,177.93260360,51.57503902
1.82926358,-2.18335917,0.09072481,-0.93600211,-0.45465544

>  <Name>
ligand

>  <RI>
0

>  <Rbt.Current_Directory>
/home/itssahil/PROJECTS/Mol_Feturizer/New_Systems/rnas/4E8Q

>  <Rbt.Executable>
rbdock ($Id: //depot/dev/client3/rdock/2013.1/src/exe/rbdock.cxx#4 $)

>  <Rbt.Library>
libRbt.so (2013.1, Build901 2013/11/27)

>  <Rbt.Parameter_File>
/export/apps/rDock/src/rDock_2013.1_src/data/scripts/dock_solv.prm

>  <Rbt.Receptor>
prm/pocket_docking_4.prm

>  <SCORE>
-11.167

>  <SCORE.INTER>
1.00562

>  <SCORE.INTER.CONST>
1

>  <SCORE.INTER.POLAR>
0

>  <SCORE.INTER.ROT>
11

>  <SCORE.INTER.SOLV>
6.66106

>  <SCORE.INTER.VDW>
-12.4833

>  <SCORE.INTER.norm>
0.0718302

>  <SCORE.INTRA>
-12.1726

>  <SCORE.INTRA.DIHEDRAL>
-23.435

>  <SCORE.INTRA.DIHEDRAL.0>
25.9209

>  <SCORE.INTRA.POLAR>
0

>  <SCORE.INTRA.POLAR.0>
0

>  <SCORE.INTRA.REPUL>
0

>  <SCORE.INTRA.REPUL.0>
0

>  <SCORE.INTRA.SOLV>
-1.35342

>  <SCORE.INTRA.SOLV.lig_0>
-47.4815

>  <SCORE.INTRA.VDW>
0.221601

>  <SCORE.INTRA.VDW.0>
-1.57492

>  <SCORE.INTRA.norm>
-0.869474

>  <SCORE.RESTR>
0

>  <SCORE.RESTR.CAVITY>
0

>  <SCORE.RESTR.norm>
0

>  <SCORE.SYSTEM>
0

>  <SCORE.SYSTEM.CONST>
0

>  <SCORE.SYSTEM.DIHEDRAL>
0

>  <SCORE.SYSTEM.SOLV>
0

>  <SCORE.SYSTEM.norm>
0

>  <SCORE.heavy>
14

>  <SCORE.norm>
-0.797643

>  <RMSD>
3.732

$$$$
ligand
 OpenBabel11021811493D
libRbt.so/2013.1/901 2013/11/27
 14 13  0  0  0  0  0  0  0  0999 V2000
   49.4212    4.8487   -3.4675 N   0  0  0  0  0  0  0  0  0  0  0  0
   49.6169    3.4082   -3.5762 C   0  0  0  0  0  0  0  0  0  0  0  0
   48.7462    2.8177   -4.7056 C   0  0  0  0  0  0  0  0  0  0  0  0
   48.8697    1.2910   -4.8804 C   0  0  0  0  0  0  0  0  0  0  0  0
   50.1864    0.7382   -5.2320 N   0  0  0  0  0  0  0  0  0  0  0  0
   50.6688   -0.5087   -4.6279 C   0  0  0  0  0  0  0  0  0  0  0  0
   50.7690   -0.4947   -3.0997 C   0  0  0  0  0  0  0  0  0  0  0  0
   51.5938    0.6892   -2.5669 C   0  0  0  0  0  0  0  0  0  0  0  0
   51.6309    0.7830   -1.0331 C   0  0  0  0  0  0  0  0  0  0  0  0
   52.3540    1.9434   -0.5077 N   0  0  0  0  0  0  0  0  0  0  0  0
   52.8012    1.9408    0.8960 C   0  0  0  0  0  0  0  0  0  0  0  0
   53.3912    3.2612    1.4454 C   0  0  0  0  0  0  0  0  0  0  0  0
   53.7975    3.2477    2.9330 C   0  0  0  0  0  0  0  0  0  0  0  0
   54.8295    2.2601    3.2345 N   0  0  0  0  0  0  0  0  0  0  0  0
  1  2  1  0  0  0  0
  2  3  1  0  0  0  0
  3  4  1  0  0  0  0
  4  5  1  0  0  0  0
  5  6  1  0  0  0  0
  6  7  1  0  0  0  0
  7  8  1  0  0  0  0
  8  9  1  0  0  0  0
  9 10  1  0  0  0  0
 10 11  1  0  0  0  0
 11 12  1  0  0  0  0
 12 13  1  0  0  0  0
 13 14  1  0  0  0  0
M  END
>  <CHROM.1>
-179.03703250,-61.50381993,139.93452289,-58.76382012,-53.21008343,176.04359066
-176.99820462,-161.99928050,-172.15060959,177.57659497,60.73827645,51.33387821
1.87302768,-1.79928743,2.61914157,0.92389180,-2.66895188

>  <Name>
ligand

>  <RI>
0

>  <Rbt.Current_Directory>
/home/itssahil/PROJECTS/Mol_Feturizer/New_Systems/rnas/4E8Q

>  <Rbt.Executable>
rbdock ($Id: //depot/dev/client3/rdock/2013.1/src/exe/rbdock.cxx#4 $)

>  <Rbt.Library>
libRbt.so (2013.1, Build901 2013/11/27)

>  <Rbt.Parameter_File>
/export/apps/rDock/src/rDock_2013.1_src/data/scripts/dock_solv.prm

>  <Rbt.Receptor>
prm/pocket_docking_3.prm

>  <SCORE>
-11.9107

>  <SCORE.INTER>
0.32014

>  <SCORE.INTER.CONST>
1

>  <SCORE.INTER.POLAR>
0

>  <SCORE.INTER.ROT>
11

>  <SCORE.INTER.SOLV>
5.54903

>  <SCORE.INTER.VDW>
-12.5696

>  <SCORE.INTER.norm>
0.0228672

>  <SCORE.INTRA>
-12.2309

>  <SCORE.INTRA.DIHEDRAL>
-24.4122

>  <SCORE.INTRA.DIHEDRAL.0>
25.9209

>  <SCORE.INTRA.POLAR>
0

>  <SCORE.INTRA.POLAR.0>
0

>  <SCORE.INTRA.REPUL>
0

>  <SCORE.INTRA.REPUL.0>
0

>  <SCORE.INTRA.SOLV>
-0.593065

>  <SCORE.INTRA.SOLV.lig_0>
-47.4815

>  <SCORE.INTRA.VDW>
0.271774

>  <SCORE.INTRA.VDW.0>
-1.57492

>  <SCORE.INTRA.norm>
-0.873633

>  <SCORE.RESTR>
0

>  <SCORE.RESTR.CAVITY>
0

>  <SCORE.RESTR.norm>
0

>  <SCORE.SYSTEM>
0

>  <SCORE.SYSTEM.CONST>
0

>  <SCORE.SYSTEM.DIHEDRAL>
0

>  <SCORE.SYSTEM.SOLV>
0

>  <SCORE.SYSTEM.norm>
0

>  <SCORE.heavy>
14

>  <SCORE.norm>
-0.850766

>  <RMSD>
3.773

$$$$
ligand
 OpenBabel11021811493D
libRbt.so/2013.1/901 2013/11/27
 14 13  0  0  0  0  0  0  0  0999 V2000
   54.7917    1.4653    2.5267 N   0  0  0  0  0  0  0  0  0  0  0  0
   54.4637    2.8255    2.1174 C   0  0  0  0  0  0  0  0  0  0  0  0
   53.7254    2.8298    0.7619 C   0  0  0  0  0  0  0  0  0  0  0  0
   52.3327    2.1693    0.7868 C   0  0  0  0  0  0  0  0  0  0  0  0
   51.5896    2.0713   -0.4785 N   0  0  0  0  0  0  0  0  0  0  0  0
   51.5561    0.8181   -1.2407 C   0  0  0  0  0  0  0  0  0  0  0  0
   51.3991    0.9822   -2.7552 C   0  0  0  0  0  0  0  0  0  0  0  0
   51.3293   -0.3635   -3.4969 C   0  0  0  0  0  0  0  0  0  0  0  0
   50.0427   -1.1593   -3.2248 C   0  0  0  0  0  0  0  0  0  0  0  0
   48.8294   -0.5794   -3.8054 N   0  0  0  0  0  0  0  0  0  0  0  0
   48.4177   -0.9759   -5.1632 C   0  0  0  0  0  0  0  0  0  0  0  0
   49.3952   -0.6452   -6.3160 C   0  0  0  0  0  0  0  0  0  0  0  0
   49.7310    0.8480   -6.5043 C   0  0  0  0  0  0  0  0  0  0  0  0
   50.6228    1.0950   -7.6335 N   0  0  0  0  0  0  0  0  0  0  0  0
  1  2  1  0  0  0  0
  2  3  1  0  0  0  0
  3  4  1  0  0  0  0
  4  5  1  0  0  0  0
  5  6  1  0  0  0  0
  6  7  1  0  0  0  0
  7  8  1  0  0  0  0
  8  9  1  0  0  0  0
  9 10  1  0  0  0  0
 10 11  1  0  0  0  0
 11 12  1  0  0  0  0
 12 13  1  0  0  0  0
 13 14  1  0  0  0  0
M  END
>  <CHROM.1>
65.68726439,-177.01010677,100.31304983,-150.71450798,-178.32808529,68.99599486
69.75793828,90.36441112,-61.96429670,-59.61162865,-178.14835528,51.30181729
0.81286535,-2.45902158,0.82011731,0.79262025,1.84174224

>  <Name>
ligand

>  <RI>
0

>  <Rbt.Current_Directory>
/home/itssahil/PROJECTS/Mol_Feturizer/New_Systems/rnas/4E8Q

>  <Rbt.Executable>
rbdock ($Id: //depot/dev/client3/rdock/2013.1/src/exe/rbdock.cxx#4 $)

>  <Rbt.Library>
libRbt.so (2013.1, Build901 2013/11/27)

>  <Rbt.Parameter_File>
/export/apps/rDock/src/rDock_2013.1_src/data/scripts/dock_solv.prm

>  <Rbt.Receptor>
prm/pocket_docking_3.prm

>  <SCORE>
-10.781

>  <SCORE.INTER>
0.268736

>  <SCORE.INTER.CONST>
1

>  <SCORE.INTER.POLAR>
0

>  <SCORE.INTER.ROT>
11

>  <SCORE.INTER.SOLV>
7.22674

>  <SCORE.INTER.VDW>
-13.1631

>  <SCORE.INTER.norm>
0.0191954

>  <SCORE.INTRA>
-11.0527

>  <SCORE.INTRA.DIHEDRAL>
-22.9552

>  <SCORE.INTRA.DIHEDRAL.0>
25.9209

>  <SCORE.INTRA.POLAR>
0

>  <SCORE.INTRA.POLAR.0>
0

>  <SCORE.INTRA.REPUL>
0

>  <SCORE.INTRA.REPUL.0>
0

>  <SCORE.INTRA.SOLV>
-0.374501

>  <SCORE.INTRA.SOLV.lig_0>
-47.4815

>  <SCORE.INTRA.VDW>
0.612176

>  <SCORE.INTRA.VDW.0>
-1.57492

>  <SCORE.INTRA.norm>
-0.789478

>  <SCORE.RESTR>
0.00297809

>  <SCORE.RESTR.CAVITY>
0.00297809

>  <SCORE.RESTR.norm>
0.000212721

>  <SCORE.SYSTEM>
0

>  <SCORE.SYSTEM.CONST>
0

>  <SCORE.SYSTEM.DIHEDRAL>
0

>  <SCORE.SYSTEM.SOLV>
0

>  <SCORE.SYSTEM.norm>
0

>  <SCORE.heavy>
14

>  <SCORE.norm>
-0.77007

>  <RMSD>
3.775

$$$$
ligand
 OpenBabel11021811493D
libRbt.so/2013.1/901 2013/11/27
 14 13  0  0  0  0  0  0  0  0999 V2000
   53.6386    4.6663    2.8938 N   0  0  0  0  0  0  0  0  0  0  0  0
   52.9959    3.3613    2.9884 C   0  0  0  0  0  0  0  0  0  0  0  0
   53.6785    2.3419    2.0518 C   0  0  0  0  0  0  0  0  0  0  0  0
   53.5959    2.6915    0.5526 C   0  0  0  0  0  0  0  0  0  0  0  0
   52.2645    2.7815   -0.0655 N   0  0  0  0  0  0  0  0  0  0  0  0
   51.2805    1.7057    0.0982 C   0  0  0  0  0  0  0  0  0  0  0  0
   51.4892    0.4899   -0.8095 C   0  0  0  0  0  0  0  0  0  0  0  0
   51.2272    0.8011   -2.2928 C   0  0  0  0  0  0  0  0  0  0  0  0
   51.2371   -0.4389   -3.2011 C   0  0  0  0  0  0  0  0  0  0  0  0
   50.7359   -0.2083   -4.5580 N   0  0  0  0  0  0  0  0  0  0  0  0
   49.2841   -0.0981   -4.7827 C   0  0  0  0  0  0  0  0  0  0  0  0
   48.4719   -1.4149   -4.7725 C   0  0  0  0  0  0  0  0  0  0  0  0
   48.8715   -2.4587   -5.8350 C   0  0  0  0  0  0  0  0  0  0  0  0
   47.9644   -3.6016   -5.8825 N   0  0  0  0  0  0  0  0  0  0  0  0
  1  2  1  0  0  0  0
  2  3  1  0  0  0  0
  3  4  1  0  0  0  0
  4  5  1  0  0  0  0
  5  6  1  0  0  0  0
  6  7  1  0  0  0  0
  7  8  1  0  0  0  0
  8  9  1  0  0  0  0
  9 10  1  0  0  0  0
 10 11  1  0  0  0  0
 11 12  1  0  0  0  0
 12 13  1  0  0  0  0
 13 14  1  0  0  0  0
M  END
>  <CHROM.1>
-62.57429227,-61.54379812,-50.41740246,-79.47001487,-68.46556037,-171.93805694
168.59150199,-76.74058427,-76.42952231,-60.26671072,-172.78307170,51.19539171
0.75841951,-1.68668242,-0.72092380,-0.95549319,-1.44239070

>  <Name>
ligand

>  <RI>
0

>  <Rbt.Current_Directory>
/home/itssahil/PROJECTS/Mol_Feturizer/New_Systems/rnas/4E8Q

>  <Rbt.Executable>
rbdock ($Id: //depot/dev/client3/rdock/2013.1/src/exe/rbdock.cxx#4 $)

>  <Rbt.Library>
libRbt.so (2013.1, Build901 2013/11/27)

>  <Rbt.Parameter_File>
/export/apps/rDock/src/rDock_2013.1_src/data/scripts/dock_solv.prm

>  <Rbt.Receptor>
prm/pocket_docking_5.prm

>  <SCORE>
-11.5843

>  <SCORE.INTER>
-0.553959

>  <SCORE.INTER.CONST>
1

>  <SCORE.INTER.POLAR>
0

>  <SCORE.INTER.ROT>
11

>  <SCORE.INTER.SOLV>
10.2321

>  <SCORE.INTER.VDW>
-14.7133

>  <SCORE.INTER.norm>
-0.0395685

>  <SCORE.INTRA>
-11.0303

>  <SCORE.INTRA.DIHEDRAL>
-23.8942

>  <SCORE.INTRA.DIHEDRAL.0>
25.9209

>  <SCORE.INTRA.POLAR>
0

>  <SCORE.INTRA.POLAR.0>
0

>  <SCORE.INTRA.REPUL>
0

>  <SCORE.INTRA.REPUL.0>
0

>  <SCORE.INTRA.SOLV>
0.122426

>  <SCORE.INTRA.SOLV.lig_0>
-47.4815

>  <SCORE.INTRA.VDW>
0.855569

>  <SCORE.INTRA.VDW.0>
-1.57492

>  <SCORE.INTRA.norm>
-0.787879

>  <SCORE.RESTR>
0

>  <SCORE.RESTR.CAVITY>
0

>  <SCORE.RESTR.norm>
0

>  <SCORE.SYSTEM>
0

>  <SCORE.SYSTEM.CONST>
0

>  <SCORE.SYSTEM.DIHEDRAL>
0

>  <SCORE.SYSTEM.SOLV>
0

>  <SCORE.SYSTEM.norm>
0

>  <SCORE.heavy>
14

>  <SCORE.norm>
-0.827448

>  <RMSD>
3.782

$$$$
ligand
 OpenBabel11021811493D
libRbt.so/2013.1/901 2013/11/27
 14 13  0  0  0  0  0  0  0  0999 V2000
   53.5996    3.9510    4.0268 N   0  0  0  0  0  0  0  0  0  0  0  0
   52.6461    3.9013    2.9251 C   0  0  0  0  0  0  0  0  0  0  0  0
   52.9718    2.7359    1.9669 C   0  0  0  0  0  0  0  0  0  0  0  0
   52.0166    2.6075    0.7637 C   0  0  0  0  0  0  0  0  0  0  0  0
   52.2399    1.5051   -0.1836 N   0  0  0  0  0  0  0  0  0  0  0  0
   51.3951    1.3470   -1.3728 C   0  0  0  0  0  0  0  0  0  0  0  0
   51.5985    0.0407   -2.1459 C   0  0  0  0  0  0  0  0  0  0  0  0
   50.7342   -0.0416   -3.4156 C   0  0  0  0  0  0  0  0  0  0  0  0
   51.1361    0.9607   -4.5094 C   0  0  0  0  0  0  0  0  0  0  0  0
   50.3093    0.9131   -5.7175 N   0  0  0  0  0  0  0  0  0  0  0  0
   50.4573    1.9673   -6.7360 C   0  0  0  0  0  0  0  0  0  0  0  0
   49.4330    1.9697   -7.8955 C   0  0  0  0  0  0  0  0  0  0  0  0
   49.4045    0.6992   -8.7691 C   0  0  0  0  0  0  0  0  0  0  0  0
   49.0179   -0.4966   -8.0261 N   0  0  0  0  0  0  0  0  0  0  0  0
  1  2  1  0  0  0  0
  2  3  1  0  0  0  0
  3  4  1  0  0  0  0
  4  5  1  0  0  0  0
  5  6  1  0  0  0  0
  6  7  1  0  0  0  0
  7  8  1  0  0  0  0
  8  9  1  0  0  0  0
  9 10  1  0  0  0  0
 10 11  1  0  0  0  0
 11 12  1  0  0  0  0
 12 13  1  0  0  0  0
 13 14  1  0  0  0  0
M  END
>  <CHROM.1>
-179.75862662,-178.75219380,-178.10911030,-170.82280177,-177.39166814,67.71011537
-178.98656244,170.05376825,-172.15527334,-60.36895582,62.86458478,51.21137865
1.57578378,-2.79219407,0.06449295,-1.26844847,-0.16323022

>  <Name>
ligand

>  <RI>
0

>  <Rbt.Current_Directory>
/home/itssahil/PROJECTS/Mol_Feturizer/New_Systems/rnas/4E8Q

>  <Rbt.Executable>
rbdock ($Id: //depot/dev/client3/rdock/2013.1/src/exe/rbdock.cxx#4 $)

>  <Rbt.Library>
libRbt.so (2013.1, Build901 2013/11/27)

>  <Rbt.Parameter_File>
/export/apps/rDock/src/rDock_2013.1_src/data/scripts/dock_solv.prm

>  <Rbt.Receptor>
prm/pocket_docking_4.prm

>  <SCORE>
-7.93237

>  <SCORE.INTER>
3.88696

>  <SCORE.INTER.CONST>
1

>  <SCORE.INTER.POLAR>
0

>  <SCORE.INTER.ROT>
11

>  <SCORE.INTER.SOLV>
4.59847

>  <SCORE.INTER.VDW>
-9.87485

>  <SCORE.INTER.norm>
0.27764

>  <SCORE.INTRA>
-11.8193

>  <SCORE.INTRA.DIHEDRAL>
-25.4074

>  <SCORE.INTRA.DIHEDRAL.0>
25.9209

>  <SCORE.INTRA.POLAR>
0

>  <SCORE.INTRA.POLAR.0>
0

>  <SCORE.INTRA.REPUL>
0

>  <SCORE.INTRA.REPUL.0>
0

>  <SCORE.INTRA.SOLV>
0.66535

>  <SCORE.INTRA.SOLV.lig_0>
-47.4815

>  <SCORE.INTRA.VDW>
0.551693

>  <SCORE.INTRA.VDW.0>
-1.57492

>  <SCORE.INTRA.norm>
-0.844238

>  <SCORE.RESTR>
0

>  <SCORE.RESTR.CAVITY>
0

>  <SCORE.RESTR.norm>
0

>  <SCORE.SYSTEM>
0

>  <SCORE.SYSTEM.CONST>
0

>  <SCORE.SYSTEM.DIHEDRAL>
0

>  <SCORE.SYSTEM.SOLV>
0

>  <SCORE.SYSTEM.norm>
0

>  <SCORE.heavy>
14

>  <SCORE.norm>
-0.566598

>  <RMSD>
3.837

$$$$
ligand
 OpenBabel11021811493D
libRbt.so/2013.1/901 2013/11/27
 14 13  0  0  0  0  0  0  0  0999 V2000
   48.8992   -2.4936   -6.6790 N   0  0  0  0  0  0  0  0  0  0  0  0
   48.3637   -2.6736   -5.3351 C   0  0  0  0  0  0  0  0  0  0  0  0
   48.1211   -1.3110   -4.6518 C   0  0  0  0  0  0  0  0  0  0  0  0
   49.3958   -0.4789   -4.4079 C   0  0  0  0  0  0  0  0  0  0  0  0
   50.4199   -1.0282   -3.5066 N   0  0  0  0  0  0  0  0  0  0  0  0
   51.4063   -0.1548   -2.8611 C   0  0  0  0  0  0  0  0  0  0  0  0
   51.0479    0.2927   -1.4409 C   0  0  0  0  0  0  0  0  0  0  0  0
   51.8992    1.4787   -0.9566 C   0  0  0  0  0  0  0  0  0  0  0  0
   51.4689    2.0385    0.4087 C   0  0  0  0  0  0  0  0  0  0  0  0
   52.2203    3.2149    0.8527 N   0  0  0  0  0  0  0  0  0  0  0  0
   53.6471    3.0749    1.1920 C   0  0  0  0  0  0  0  0  0  0  0  0
   54.6679    3.4166    0.0809 C   0  0  0  0  0  0  0  0  0  0  0  0
   54.6027    4.8547   -0.4720 C   0  0  0  0  0  0  0  0  0  0  0  0
   55.5141    5.0788   -1.5903 N   0  0  0  0  0  0  0  0  0  0  0  0
  1  2  1  0  0  0  0
  2  3  1  0  0  0  0
  3  4  1  0  0  0  0
  4  5  1  0  0  0  0
  5  6  1  0  0  0  0
  6  7  1  0  0  0  0
  7  8  1  0  0  0  0
  8  9  1  0  0  0  0
  9 10  1  0  0  0  0
 10 11  1  0  0  0  0
 11 12  1  0  0  0  0
 12 13  1  0  0  0  0
 13 14  1  0  0  0  0
M  END
>  <CHROM.1>
-63.92996828,-62.99363628,-158.65081948,95.71992851,-164.71639499,174.26022593
-176.78225543,-67.24858927,95.62978472,59.33756733,-175.23131520,51.54805998
1.09351009,-2.09737984,-2.39738918,0.71183442,1.35180963

>  <Name>
ligand

>  <RI>
0

>  <Rbt.Current_Directory>
/home/itssahil/PROJECTS/Mol_Feturizer/New_Systems/rnas/4E8Q

>  <Rbt.Executable>
rbdock ($Id: //depot/dev/client3/rdock/2013.1/src/exe/rbdock.cxx#4 $)

>  <Rbt.Library>
libRbt.so (2013.1, Build901 2013/11/27)

>  <Rbt.Parameter_File>
/export/apps/rDock/src/rDock_2013.1_src/data/scripts/dock_solv.prm

>  <Rbt.Receptor>
prm/pocket_docking_6.prm

>  <SCORE>
-12.029

>  <SCORE.INTER>
-0.972871

>  <SCORE.INTER.CONST>
1

>  <SCORE.INTER.POLAR>
0

>  <SCORE.INTER.ROT>
11

>  <SCORE.INTER.SOLV>
8.52039

>  <SCORE.INTER.VDW>
-14.422

>  <SCORE.INTER.norm>
-0.0694908

>  <SCORE.INTRA>
-11.0561

>  <SCORE.INTRA.DIHEDRAL>
-22.7963

>  <SCORE.INTRA.DIHEDRAL.0>
25.9209

>  <SCORE.INTRA.POLAR>
0

>  <SCORE.INTRA.POLAR.0>
0

>  <SCORE.INTRA.REPUL>
0

>  <SCORE.INTRA.REPUL.0>
0

>  <SCORE.INTRA.SOLV>
-0.24343

>  <SCORE.INTRA.SOLV.lig_0>
-47.4815

>  <SCORE.INTRA.VDW>
0.46376

>  <SCORE.INTRA.VDW.0>
-1.57492

>  <SCORE.INTRA.norm>
-0.789723

>  <SCORE.RESTR>
0

>  <SCORE.RESTR.CAVITY>
0

>  <SCORE.RESTR.norm>
0

>  <SCORE.SYSTEM>
0

>  <SCORE.SYSTEM.CONST>
0

>  <SCORE.SYSTEM.DIHEDRAL>
0

>  <SCORE.SYSTEM.SOLV>
0

>  <SCORE.SYSTEM.norm>
0

>  <SCORE.heavy>
14

>  <SCORE.norm>
-0.859213

>  <RMSD>
3.863

$$$$
ligand
 OpenBabel11021811493D
libRbt.so/2013.1/901 2013/11/27
 14 13  0  0  0  0  0  0  0  0999 V2000
   55.5461    0.5629    2.7902 N   0  0  0  0  0  0  0  0  0  0  0  0
   54.2011    1.1135    2.6767 C   0  0  0  0  0  0  0  0  0  0  0  0
   54.0167    1.8438    1.3294 C   0  0  0  0  0  0  0  0  0  0  0  0
   52.5997    2.4017    1.0899 C   0  0  0  0  0  0  0  0  0  0  0  0
   52.3158    3.0394   -0.2045 N   0  0  0  0  0  0  0  0  0  0  0  0
   52.2949    2.2563   -1.4450 C   0  0  0  0  0  0  0  0  0  0  0  0
   51.3806    1.0278   -1.4231 C   0  0  0  0  0  0  0  0  0  0  0  0
   51.2160    0.3821   -2.8094 C   0  0  0  0  0  0  0  0  0  0  0  0
   50.1843   -0.7567   -2.8481 C   0  0  0  0  0  0  0  0  0  0  0  0
   49.8190   -1.2067   -4.1933 N   0  0  0  0  0  0  0  0  0  0  0  0
   48.4188   -1.0938   -4.6373 C   0  0  0  0  0  0  0  0  0  0  0  0
   48.0117   -1.9121   -5.8856 C   0  0  0  0  0  0  0  0  0  0  0  0
   48.2368   -3.4348   -5.7932 C   0  0  0  0  0  0  0  0  0  0  0  0
   47.8580   -4.1434   -7.0122 N   0  0  0  0  0  0  0  0  0  0  0  0
  1  2  1  0  0  0  0
  2  3  1  0  0  0  0
  3  4  1  0  0  0  0
  4  5  1  0  0  0  0
  5  6  1  0  0  0  0
  6  7  1  0  0  0  0
  7  8  1  0  0  0  0
  8  9  1  0  0  0  0
  9 10  1  0  0  0  0
 10 11  1  0  0  0  0
 11 12  1  0  0  0  0
 12 13  1  0  0  0  0
 13 14  1  0  0  0  0
M  END
>  <CHROM.1>
177.17392441,-176.30624085,67.31709276,53.26260082,170.46242672,-173.61900679
168.54825159,-118.98810928,-164.03553494,57.63595122,-178.82812398,51.14987458
0.00589709,-2.02604364,-0.54843525,0.87612051,-3.00789114

>  <Name>
ligand

>  <RI>
0

>  <Rbt.Current_Directory>
/home/itssahil/PROJECTS/Mol_Feturizer/New_Systems/rnas/4E8Q

>  <Rbt.Executable>
rbdock ($Id: //depot/dev/client3/rdock/2013.1/src/exe/rbdock.cxx#4 $)

>  <Rbt.Library>
libRbt.so (2013.1, Build901 2013/11/27)

>  <Rbt.Parameter_File>
/export/apps/rDock/src/rDock_2013.1_src/data/scripts/dock_solv.prm

>  <Rbt.Receptor>
prm/pocket_docking_7.prm

>  <SCORE>
-13.5713

>  <SCORE.INTER>
-1.87417

>  <SCORE.INTER.CONST>
1

>  <SCORE.INTER.POLAR>
0

>  <SCORE.INTER.ROT>
11

>  <SCORE.INTER.SOLV>
7.68239

>  <SCORE.INTER.VDW>
-14.7436

>  <SCORE.INTER.norm>
-0.133869

>  <SCORE.INTRA>
-11.6971

>  <SCORE.INTRA.DIHEDRAL>
-23.3479

>  <SCORE.INTRA.DIHEDRAL.0>
25.9209

>  <SCORE.INTRA.POLAR>
0

>  <SCORE.INTRA.POLAR.0>
0

>  <SCORE.INTRA.REPUL>
0

>  <SCORE.INTRA.REPUL.0>
0

>  <SCORE.INTRA.SOLV>
-1.79901

>  <SCORE.INTRA.SOLV.lig_0>
-47.4815

>  <SCORE.INTRA.VDW>
0.876361

>  <SCORE.INTRA.VDW.0>
-1.57492

>  <SCORE.INTRA.norm>
-0.835508

>  <SCORE.RESTR>
0

>  <SCORE.RESTR.CAVITY>
0

>  <SCORE.RESTR.norm>
0

>  <SCORE.SYSTEM>
0

>  <SCORE.SYSTEM.CONST>
0

>  <SCORE.SYSTEM.DIHEDRAL>
0

>  <SCORE.SYSTEM.SOLV>
0

>  <SCORE.SYSTEM.norm>
0

>  <SCORE.heavy>
14

>  <SCORE.norm>
-0.969377

>  <RMSD>
3.866

$$$$
ligand
 OpenBabel11021811493D
libRbt.so/2013.1/901 2013/11/27
 14 13  0  0  0  0  0  0  0  0999 V2000
   47.7040   -2.4092   -5.9680 N   0  0  0  0  0  0  0  0  0  0  0  0
   48.9580   -2.2128   -5.2511 C   0  0  0  0  0  0  0  0  0  0  0  0
   49.4396   -0.7515   -5.3737 C   0  0  0  0  0  0  0  0  0  0  0  0
   50.8498   -0.4903   -4.8081 C   0  0  0  0  0  0  0  0  0  0  0  0
   51.0625   -0.6752   -3.3647 N   0  0  0  0  0  0  0  0  0  0  0  0
   51.1792    0.4769   -2.4638 C   0  0  0  0  0  0  0  0  0  0  0  0
   51.1266    0.1423   -0.9702 C   0  0  0  0  0  0  0  0  0  0  0  0
   51.1999    1.3918   -0.0762 C   0  0  0  0  0  0  0  0  0  0  0  0
   52.5817    2.0649   -0.0577 C   0  0  0  0  0  0  0  0  0  0  0  0
   52.6844    3.2285    0.8260 N   0  0  0  0  0  0  0  0  0  0  0  0
   53.9354    4.0063    0.8536 C   0  0  0  0  0  0  0  0  0  0  0  0
   53.8546    5.4425    1.4229 C   0  0  0  0  0  0  0  0  0  0  0  0
   55.1729    6.2426    1.4169 C   0  0  0  0  0  0  0  0  0  0  0  0
   55.0315    7.5811    1.9824 N   0  0  0  0  0  0  0  0  0  0  0  0
  1  2  1  0  0  0  0
  2  3  1  0  0  0  0
  3  4  1  0  0  0  0
  4  5  1  0  0  0  0
  5  6  1  0  0  0  0
  6  7  1  0  0  0  0
  7  8  1  0  0  0  0
  8  9  1  0  0  0  0
  9 10  1  0  0  0  0
 10 11  1  0  0  0  0
 11 12  1  0  0  0  0
 12 13  1  0  0  0  0
 13 14  1  0  0  0  0
M  END
>  <CHROM.1>
-172.23620623,-64.26401570,-104.42105654,168.70334472,-177.82944142,-71.16089837
-177.89610890,-175.88081167,160.80211206,-178.95759891,-179.25314750,51.77007524
1.71690351,-1.55938406,-2.69977085,1.03281986,1.80098170

>  <Name>
ligand

>  <RI>
0

>  <Rbt.Current_Directory>
/home/itssahil/PROJECTS/Mol_Feturizer/New_Systems/rnas/4E8Q

>  <Rbt.Executable>
rbdock ($Id: //depot/dev/client3/rdock/2013.1/src/exe/rbdock.cxx#4 $)

>  <Rbt.Library>
libRbt.so (2013.1, Build901 2013/11/27)

>  <Rbt.Parameter_File>
/export/apps/rDock/src/rDock_2013.1_src/data/scripts/dock_solv.prm

>  <Rbt.Receptor>
prm/pocket_docking_5.prm

>  <SCORE>
-9.87971

>  <SCORE.INTER>
2.24362

>  <SCORE.INTER.CONST>
1

>  <SCORE.INTER.POLAR>
0

>  <SCORE.INTER.ROT>
11

>  <SCORE.INTER.SOLV>
10.1858

>  <SCORE.INTER.VDW>
-12.8328

>  <SCORE.INTER.norm>
0.160258

>  <SCORE.INTRA>
-12.133

>  <SCORE.INTRA.DIHEDRAL>
-23.6734

>  <SCORE.INTRA.DIHEDRAL.0>
25.9209

>  <SCORE.INTRA.POLAR>
0

>  <SCORE.INTRA.POLAR.0>
0

>  <SCORE.INTRA.REPUL>
0

>  <SCORE.INTRA.REPUL.0>
0

>  <SCORE.INTRA.SOLV>
-1.71269

>  <SCORE.INTRA.SOLV.lig_0>
-47.4815

>  <SCORE.INTRA.VDW>
0.560104

>  <SCORE.INTRA.VDW.0>
-1.57492

>  <SCORE.INTRA.norm>
-0.86664

>  <SCORE.RESTR>
0.00962797

>  <SCORE.RESTR.CAVITY>
0.00962797

>  <SCORE.RESTR.norm>
0.000687712

>  <SCORE.SYSTEM>
0

>  <SCORE.SYSTEM.CONST>
0

>  <SCORE.SYSTEM.DIHEDRAL>
0

>  <SCORE.SYSTEM.SOLV>
0

>  <SCORE.SYSTEM.norm>
0

>  <SCORE.heavy>
14

>  <SCORE.norm>
-0.705694

>  <RMSD>
3.875

$$$$
ligand
 OpenBabel11021811493D
libRbt.so/2013.1/901 2013/11/27
 14 13  0  0  0  0  0  0  0  0999 V2000
   53.5033    2.7885   -7.5481 N   0  0  0  0  0  0  0  0  0  0  0  0
   52.5375    2.0132   -6.7791 C   0  0  0  0  0  0  0  0  0  0  0  0
   52.2058    0.6846   -7.4913 C   0  0  0  0  0  0  0  0  0  0  0  0
   51.0745   -0.1312   -6.8344 C   0  0  0  0  0  0  0  0  0  0  0  0
   51.2671   -0.5943   -5.4519 N   0  0  0  0  0  0  0  0  0  0  0  0
   50.1422   -0.6579   -4.5121 C   0  0  0  0  0  0  0  0  0  0  0  0
   50.5308   -0.6436   -3.0308 C   0  0  0  0  0  0  0  0  0  0  0  0
   51.2733    0.6398   -2.6214 C   0  0  0  0  0  0  0  0  0  0  0  0
   51.5972    0.7210   -1.1210 C   0  0  0  0  0  0  0  0  0  0  0  0
   52.1863    1.9907   -0.6894 N   0  0  0  0  0  0  0  0  0  0  0  0
   52.3448    2.2609    0.7502 C   0  0  0  0  0  0  0  0  0  0  0  0
   53.7584    2.0657    1.3479 C   0  0  0  0  0  0  0  0  0  0  0  0
   54.8449    3.0309    0.8322 C   0  0  0  0  0  0  0  0  0  0  0  0
   54.6139    4.4164    1.2304 N   0  0  0  0  0  0  0  0  0  0  0  0
  1  2  1  0  0  0  0
  2  3  1  0  0  0  0
  3  4  1  0  0  0  0
  4  5  1  0  0  0  0
  5  6  1  0  0  0  0
  6  7  1  0  0  0  0
  7  8  1  0  0  0  0
  8  9  1  0  0  0  0
  9 10  1  0  0  0  0
 10 11  1  0  0  0  0
 11 12  1  0  0  0  0
 12 13  1  0  0  0  0
 13 14  1  0  0  0  0
M  END
>  <CHROM.1>
-173.42395778,-61.13489029,144.53720338,-158.26159597,61.32795718,176.33662053
-174.32010969,170.62630956,101.12933918,65.47007699,66.56760942,52.27689003
1.32714046,-2.99414444,-1.92755544,0.81465779,1.55063472

>  <Name>
ligand

>  <RI>
0

>  <Rbt.Current_Directory>
/home/itssahil/PROJECTS/Mol_Feturizer/New_Systems/rnas/4E8Q

>  <Rbt.Executable>
rbdock ($Id: //depot/dev/client3/rdock/2013.1/src/exe/rbdock.cxx#4 $)

>  <Rbt.Library>
libRbt.so (2013.1, Build901 2013/11/27)

>  <Rbt.Parameter_File>
/export/apps/rDock/src/rDock_2013.1_src/data/scripts/dock_solv.prm

>  <Rbt.Receptor>
prm/pocket_docking_4.prm

>  <SCORE>
-10.8669

>  <SCORE.INTER>
0.650804

>  <SCORE.INTER.CONST>
1

>  <SCORE.INTER.POLAR>
0

>  <SCORE.INTER.ROT>
11

>  <SCORE.INTER.SOLV>
8.37689

>  <SCORE.INTER.VDW>
-13.2918

>  <SCORE.INTER.norm>
0.046486

>  <SCORE.INTRA>
-11.5177

>  <SCORE.INTRA.DIHEDRAL>
-23.1773

>  <SCORE.INTRA.DIHEDRAL.0>
25.9209

>  <SCORE.INTRA.POLAR>
0

>  <SCORE.INTRA.POLAR.0>
0

>  <SCORE.INTRA.REPUL>
0

>  <SCORE.INTRA.REPUL.0>
0

>  <SCORE.INTRA.SOLV>
-0.0696951

>  <SCORE.INTRA.SOLV.lig_0>
-47.4815

>  <SCORE.INTRA.VDW>
0.105808

>  <SCORE.INTRA.VDW.0>
-1.57492

>  <SCORE.INTRA.norm>
-0.822692

>  <SCORE.RESTR>
0

>  <SCORE.RESTR.CAVITY>
0

>  <SCORE.RESTR.norm>
0

>  <SCORE.SYSTEM>
0

>  <SCORE.SYSTEM.CONST>
0

>  <SCORE.SYSTEM.DIHEDRAL>
0

>  <SCORE.SYSTEM.SOLV>
0

>  <SCORE.SYSTEM.norm>
0

>  <SCORE.heavy>
14

>  <SCORE.norm>
-0.776206

>  <RMSD>
3.902

$$$$
ligand
 OpenBabel11021811493D
libRbt.so/2013.1/901 2013/11/27
 14 13  0  0  0  0  0  0  0  0999 V2000
   47.6374   -3.8466   -7.1369 N   0  0  0  0  0  0  0  0  0  0  0  0
   47.7110   -2.4977   -6.5889 C   0  0  0  0  0  0  0  0  0  0  0  0
   48.5850   -2.4668   -5.3170 C   0  0  0  0  0  0  0  0  0  0  0  0
   48.7200   -1.0768   -4.6641 C   0  0  0  0  0  0  0  0  0  0  0  0
   49.5602   -0.9541   -3.4633 N   0  0  0  0  0  0  0  0  0  0  0  0
   50.9500   -0.4934   -3.5566 C   0  0  0  0  0  0  0  0  0  0  0  0
   51.3242    0.6425   -2.5999 C   0  0  0  0  0  0  0  0  0  0  0  0
   51.0756    0.2859   -1.1245 C   0  0  0  0  0  0  0  0  0  0  0  0
   51.2795    1.4619   -0.1559 C   0  0  0  0  0  0  0  0  0  0  0  0
   52.6748    1.8659    0.0319 N   0  0  0  0  0  0  0  0  0  0  0  0
   53.0682    2.5465    1.2779 C   0  0  0  0  0  0  0  0  0  0  0  0
   54.5755    2.8360    1.4719 C   0  0  0  0  0  0  0  0  0  0  0  0
   54.9656    3.4989    2.8084 C   0  0  0  0  0  0  0  0  0  0  0  0
   54.5723    2.7112    3.9731 N   0  0  0  0  0  0  0  0  0  0  0  0
  1  2  1  0  0  0  0
  2  3  1  0  0  0  0
  3  4  1  0  0  0  0
  4  5  1  0  0  0  0
  5  6  1  0  0  0  0
  6  7  1  0  0  0  0
  7  8  1  0  0  0  0
  8  9  1  0  0  0  0
  9 10  1  0  0  0  0
 10 11  1  0  0  0  0
 11 12  1  0  0  0  0
 12 13  1  0  0  0  0
 13 14  1  0  0  0  0
M  END
>  <CHROM.1>
-179.93470054,-178.70358763,97.32077898,129.41893109,57.24525798,-172.96913853
-71.41968040,-154.86777519,174.74171629,-177.69075645,58.41923518,51.19284550
0.32254299,-1.78890170,2.23722783,-0.58624189,-1.73476853

>  <Name>
ligand

>  <RI>
0

>  <Rbt.Current_Directory>
/home/itssahil/PROJECTS/Mol_Feturizer/New_Systems/rnas/4E8Q

>  <Rbt.Executable>
rbdock ($Id: //depot/dev/client3/rdock/2013.1/src/exe/rbdock.cxx#4 $)

>  <Rbt.Library>
libRbt.so (2013.1, Build901 2013/11/27)

>  <Rbt.Parameter_File>
/export/apps/rDock/src/rDock_2013.1_src/data/scripts/dock_solv.prm

>  <Rbt.Receptor>
prm/pocket_docking_7.prm

>  <SCORE>
-13.1356

>  <SCORE.INTER>
-1.79868

>  <SCORE.INTER.CONST>
1

>  <SCORE.INTER.POLAR>
0

>  <SCORE.INTER.ROT>
11

>  <SCORE.INTER.SOLV>
7.67142

>  <SCORE.INTER.VDW>
-14.6896

>  <SCORE.INTER.norm>
-0.128477

>  <SCORE.INTRA>
-11.3369

>  <SCORE.INTRA.DIHEDRAL>
-22.7482

>  <SCORE.INTRA.DIHEDRAL.0>
25.9209

>  <SCORE.INTRA.POLAR>
0

>  <SCORE.INTRA.POLAR.0>
0

>  <SCORE.INTRA.REPUL>
0

>  <SCORE.INTRA.REPUL.0>
0

>  <SCORE.INTRA.SOLV>
-0.727467

>  <SCORE.INTRA.SOLV.lig_0>
-47.4815

>  <SCORE.INTRA.VDW>
0.400919

>  <SCORE.INTRA.VDW.0>
-1.57492

>  <SCORE.INTRA.norm>
-0.809779

>  <SCORE.RESTR>
0

>  <SCORE.RESTR.CAVITY>
0

>  <SCORE.RESTR.norm>
0

>  <SCORE.SYSTEM>
0

>  <SCORE.SYSTEM.CONST>
0

>  <SCORE.SYSTEM.DIHEDRAL>
0

>  <SCORE.SYSTEM.SOLV>
0

>  <SCORE.SYSTEM.norm>
0

>  <SCORE.heavy>
14

>  <SCORE.norm>
-0.938256

>  <RMSD>
3.905

$$$$
ligand
 OpenBabel11021811493D
libRbt.so/2013.1/901 2013/11/27
 14 13  0  0  0  0  0  0  0  0999 V2000
   54.1616    5.0512    0.9965 N   0  0  0  0  0  0  0  0  0  0  0  0
   53.2551    4.5504    2.0224 C   0  0  0  0  0  0  0  0  0  0  0  0
   53.4028    3.0231    2.1899 C   0  0  0  0  0  0  0  0  0  0  0  0
   53.0099    2.1997    0.9471 C   0  0  0  0  0  0  0  0  0  0  0  0
   51.6013    2.2120    0.5248 N   0  0  0  0  0  0  0  0  0  0  0  0
   51.2040    1.7172   -0.7980 C   0  0  0  0  0  0  0  0  0  0  0  0
   51.8553    0.3973   -1.2211 C   0  0  0  0  0  0  0  0  0  0  0  0
   51.4599   -0.0339   -2.6436 C   0  0  0  0  0  0  0  0  0  0  0  0
   50.1110   -0.7668   -2.7207 C   0  0  0  0  0  0  0  0  0  0  0  0
   49.6678   -1.0931   -4.0781 N   0  0  0  0  0  0  0  0  0  0  0  0
   48.5974   -0.2943   -4.7000 C   0  0  0  0  0  0  0  0  0  0  0  0
   49.0244    1.0012   -5.4300 C   0  0  0  0  0  0  0  0  0  0  0  0
   49.6835    2.0822   -4.5496 C   0  0  0  0  0  0  0  0  0  0  0  0
   49.9663    3.3165   -5.2762 N   0  0  0  0  0  0  0  0  0  0  0  0
  1  2  1  0  0  0  0
  2  3  1  0  0  0  0
  3  4  1  0  0  0  0
  4  5  1  0  0  0  0
  5  6  1  0  0  0  0
  6  7  1  0  0  0  0
  7  8  1  0  0  0  0
  8  9  1  0  0  0  0
  9 10  1  0  0  0  0
 10 11  1  0  0  0  0
 11 12  1  0  0  0  0
 12 13  1  0  0  0  0
 13 14  1  0  0  0  0
M  END
>  <CHROM.1>
-63.86747531,-65.90875952,165.90449715,44.42543920,-176.96216638,-82.79976848
175.46425006,-104.26961761,85.96800545,-62.66364377,-175.48697470,51.21425737
1.66848691,-1.76681699,0.10069881,-1.05567954,-0.36441801

>  <Name>
ligand

>  <RI>
0

>  <Rbt.Current_Directory>
/home/itssahil/PROJECTS/Mol_Feturizer/New_Systems/rnas/4E8Q

>  <Rbt.Executable>
rbdock ($Id: //depot/dev/client3/rdock/2013.1/src/exe/rbdock.cxx#4 $)

>  <Rbt.Library>
libRbt.so (2013.1, Build901 2013/11/27)

>  <Rbt.Parameter_File>
/export/apps/rDock/src/rDock_2013.1_src/data/scripts/dock_solv.prm

>  <Rbt.Receptor>
prm/pocket_docking_3.prm

>  <SCORE>
-9.04261

>  <SCORE.INTER>
0.926292

>  <SCORE.INTER.CONST>
1

>  <SCORE.INTER.POLAR>
0

>  <SCORE.INTER.ROT>
11

>  <SCORE.INTER.SOLV>
7.23706

>  <SCORE.INTER.VDW>
-12.7282

>  <SCORE.INTER.norm>
0.0661637

>  <SCORE.INTRA>
-10.0225

>  <SCORE.INTRA.DIHEDRAL>
-21.7573

>  <SCORE.INTRA.DIHEDRAL.0>
25.9209

>  <SCORE.INTRA.POLAR>
0

>  <SCORE.INTRA.POLAR.0>
0

>  <SCORE.INTRA.REPUL>
0

>  <SCORE.INTRA.REPUL.0>
0

>  <SCORE.INTRA.SOLV>
-0.0594469

>  <SCORE.INTRA.SOLV.lig_0>
-47.4815

>  <SCORE.INTRA.VDW>
0.885909

>  <SCORE.INTRA.VDW.0>
-1.57492

>  <SCORE.INTRA.norm>
-0.715892

>  <SCORE.RESTR>
0.0535826

>  <SCORE.RESTR.CAVITY>
0.0535826

>  <SCORE.RESTR.norm>
0.00382733

>  <SCORE.SYSTEM>
0

>  <SCORE.SYSTEM.CONST>
0

>  <SCORE.SYSTEM.DIHEDRAL>
0

>  <SCORE.SYSTEM.SOLV>
0

>  <SCORE.SYSTEM.norm>
0

>  <SCORE.heavy>
14

>  <SCORE.norm>
-0.645901

>  <RMSD>
3.919

$$$$
ligand
 OpenBabel11021811493D
libRbt.so/2013.1/901 2013/11/27
 14 13  0  0  0  0  0  0  0  0999 V2000
   50.2701    0.8820   -7.1503 N   0  0  0  0  0  0  0  0  0  0  0  0
   50.6065   -0.0579   -6.0878 C   0  0  0  0  0  0  0  0  0  0  0  0
   49.5626   -0.0019   -4.9521 C   0  0  0  0  0  0  0  0  0  0  0  0
   49.8621   -0.9301   -3.7582 C   0  0  0  0  0  0  0  0  0  0  0  0
   51.1127   -0.7196   -3.0136 N   0  0  0  0  0  0  0  0  0  0  0  0
   51.1365    0.0862   -1.7878 C   0  0  0  0  0  0  0  0  0  0  0  0
   51.7707    1.4726   -1.9331 C   0  0  0  0  0  0  0  0  0  0  0  0
   51.0317    2.3634   -2.9461 C   0  0  0  0  0  0  0  0  0  0  0  0
   51.7464    3.6904   -3.2473 C   0  0  0  0  0  0  0  0  0  0  0  0
   53.0298    3.5516   -3.9394 N   0  0  0  0  0  0  0  0  0  0  0  0
   54.2294    3.1801   -3.1689 C   0  0  0  0  0  0  0  0  0  0  0  0
   54.5782    4.0629   -1.9473 C   0  0  0  0  0  0  0  0  0  0  0  0
   55.8517    3.6661   -1.1735 C   0  0  0  0  0  0  0  0  0  0  0  0
   56.0700    4.4761    0.0213 N   0  0  0  0  0  0  0  0  0  0  0  0
  1  2  1  0  0  0  0
  2  3  1  0  0  0  0
  3  4  1  0  0  0  0
  4  5  1  0  0  0  0
  5  6  1  0  0  0  0
  6  7  1  0  0  0  0
  7  8  1  0  0  0  0
  8  9  1  0  0  0  0
  9 10  1  0  0  0  0
 10 11  1  0  0  0  0
 11 12  1  0  0  0  0
 12 13  1  0  0  0  0
 13 14  1  0  0  0  0
M  END
>  <CHROM.1>
-178.01081956,60.60078866,95.82619521,-106.07950566,60.99637015,-172.56123279
66.25105629,-79.33233280,-54.47658672,-178.99554900,-175.78518537,52.20400716
1.83719830,-3.22017006,-2.95095643,0.81503401,2.04050722

>  <Name>
ligand

>  <RI>
0

>  <Rbt.Current_Directory>
/home/itssahil/PROJECTS/Mol_Feturizer/New_Systems/rnas/4E8Q

>  <Rbt.Executable>
rbdock ($Id: //depot/dev/client3/rdock/2013.1/src/exe/rbdock.cxx#4 $)

>  <Rbt.Library>
libRbt.so (2013.1, Build901 2013/11/27)

>  <Rbt.Parameter_File>
/export/apps/rDock/src/rDock_2013.1_src/data/scripts/dock_solv.prm

>  <Rbt.Receptor>
prm/pocket_docking_6.prm

>  <SCORE>
-10.7731

>  <SCORE.INTER>
1.00345

>  <SCORE.INTER.CONST>
1

>  <SCORE.INTER.POLAR>
0

>  <SCORE.INTER.ROT>
11

>  <SCORE.INTER.SOLV>
7.9822

>  <SCORE.INTER.VDW>
-12.9251

>  <SCORE.INTER.norm>
0.0716748

>  <SCORE.INTRA>
-11.7766

>  <SCORE.INTRA.DIHEDRAL>
-23.3197

>  <SCORE.INTRA.DIHEDRAL.0>
25.9209

>  <SCORE.INTRA.POLAR>
0

>  <SCORE.INTRA.POLAR.0>
0

>  <SCORE.INTRA.REPUL>
0

>  <SCORE.INTRA.REPUL.0>
0

>  <SCORE.INTRA.SOLV>
-0.951314

>  <SCORE.INTRA.SOLV.lig_0>
-47.4815

>  <SCORE.INTRA.VDW>
0.358906

>  <SCORE.INTRA.VDW.0>
-1.57492

>  <SCORE.INTRA.norm>
-0.841184

>  <SCORE.RESTR>
0

>  <SCORE.RESTR.CAVITY>
0

>  <SCORE.RESTR.norm>
0

>  <SCORE.SYSTEM>
0

>  <SCORE.SYSTEM.CONST>
0

>  <SCORE.SYSTEM.DIHEDRAL>
0

>  <SCORE.SYSTEM.SOLV>
0

>  <SCORE.SYSTEM.norm>
0

>  <SCORE.heavy>
14

>  <SCORE.norm>
-0.76951

>  <RMSD>
3.939

$$$$
ligand
 OpenBabel11021811493D
libRbt.so/2013.1/901 2013/11/27
 14 13  0  0  0  0  0  0  0  0999 V2000
   52.0340    1.2149   -8.7574 N   0  0  0  0  0  0  0  0  0  0  0  0
   51.4690    0.4215   -7.6728 C   0  0  0  0  0  0  0  0  0  0  0  0
   50.0193    0.8562   -7.3696 C   0  0  0  0  0  0  0  0  0  0  0  0
   49.3377    0.0704   -6.2318 C   0  0  0  0  0  0  0  0  0  0  0  0
   49.8391    0.2594   -4.8623 N   0  0  0  0  0  0  0  0  0  0  0  0
   51.1546   -0.2516   -4.4612 C   0  0  0  0  0  0  0  0  0  0  0  0
   51.3420   -0.4539   -2.9548 C   0  0  0  0  0  0  0  0  0  0  0  0
   51.2480    0.8598   -2.1603 C   0  0  0  0  0  0  0  0  0  0  0  0
   51.4055    0.6827   -0.6416 C   0  0  0  0  0  0  0  0  0  0  0  0
   51.1901    1.9007    0.1428 N   0  0  0  0  0  0  0  0  0  0  0  0
   52.2952    2.4438    0.9518 C   0  0  0  0  0  0  0  0  0  0  0  0
   51.9082    3.2887    2.1886 C   0  0  0  0  0  0  0  0  0  0  0  0
   53.0841    3.8498    3.0134 C   0  0  0  0  0  0  0  0  0  0  0  0
   53.9545    2.8076    3.5498 N   0  0  0  0  0  0  0  0  0  0  0  0
  1  2  1  0  0  0  0
  2  3  1  0  0  0  0
  3  4  1  0  0  0  0
  4  5  1  0  0  0  0
  5  6  1  0  0  0  0
  6  7  1  0  0  0  0
  7  8  1  0  0  0  0
  8  9  1  0  0  0  0
  9 10  1  0  0  0  0
 10 11  1  0  0  0  0
 11 12  1  0  0  0  0
 12 13  1  0  0  0  0
 13 14  1  0  0  0  0
M  END
>  <CHROM.1>
-179.96465363,68.23567987,-69.88351483,-158.51440013,-63.23935818,178.88550551
-174.35110521,-118.01891974,-153.77779670,-179.73144692,-59.87856150,51.44854368
1.28204981,-2.51898014,-1.84814997,0.75845711,1.51051910

>  <Name>
ligand

>  <RI>
0

>  <Rbt.Current_Directory>
/home/itssahil/PROJECTS/Mol_Feturizer/New_Systems/rnas/4E8Q

>  <Rbt.Executable>
rbdock ($Id: //depot/dev/client3/rdock/2013.1/src/exe/rbdock.cxx#4 $)

>  <Rbt.Library>
libRbt.so (2013.1, Build901 2013/11/27)

>  <Rbt.Parameter_File>
/export/apps/rDock/src/rDock_2013.1_src/data/scripts/dock_solv.prm

>  <Rbt.Receptor>
prm/pocket_docking_4.prm

>  <SCORE>
-10.2984

>  <SCORE.INTER>
1.23087

>  <SCORE.INTER.CONST>
1

>  <SCORE.INTER.POLAR>
0

>  <SCORE.INTER.ROT>
11

>  <SCORE.INTER.SOLV>
6.77694

>  <SCORE.INTER.VDW>
-12.3717

>  <SCORE.INTER.norm>
0.0879191

>  <SCORE.INTRA>
-11.5293

>  <SCORE.INTRA.DIHEDRAL>
-23.4045

>  <SCORE.INTRA.DIHEDRAL.0>
25.9209

>  <SCORE.INTRA.POLAR>
0

>  <SCORE.INTRA.POLAR.0>
0

>  <SCORE.INTRA.REPUL>
0

>  <SCORE.INTRA.REPUL.0>
0

>  <SCORE.INTRA.SOLV>
-0.732762

>  <SCORE.INTRA.SOLV.lig_0>
-47.4815

>  <SCORE.INTRA.VDW>
0.539394

>  <SCORE.INTRA.VDW.0>
-1.57492

>  <SCORE.INTRA.norm>
-0.823518

>  <SCORE.RESTR>
0

>  <SCORE.RESTR.CAVITY>
0

>  <SCORE.RESTR.norm>
0

>  <SCORE.SYSTEM>
0

>  <SCORE.SYSTEM.CONST>
0

>  <SCORE.SYSTEM.DIHEDRAL>
0

>  <SCORE.SYSTEM.SOLV>
0

>  <SCORE.SYSTEM.norm>
0

>  <SCORE.heavy>
14

>  <SCORE.norm>
-0.735599

>  <RMSD>
3.946

$$$$
ligand
 OpenBabel11021811493D
libRbt.so/2013.1/901 2013/11/27
 14 13  0  0  0  0  0  0  0  0999 V2000
   55.1717    2.3917    2.6022 N   0  0  0  0  0  0  0  0  0  0  0  0
   54.0651    1.7075    1.9446 C   0  0  0  0  0  0  0  0  0  0  0  0
   53.2577    2.6854    1.0647 C   0  0  0  0  0  0  0  0  0  0  0  0
   52.0291    2.0622    0.3727 C   0  0  0  0  0  0  0  0  0  0  0  0
   52.2483    0.9314   -0.5416 N   0  0  0  0  0  0  0  0  0  0  0  0
   51.1180    0.1907   -1.1129 C   0  0  0  0  0  0  0  0  0  0  0  0
   51.1819   -0.0266   -2.6275 C   0  0  0  0  0  0  0  0  0  0  0  0
   49.9737   -0.8093   -3.1692 C   0  0  0  0  0  0  0  0  0  0  0  0
   49.9605   -0.9552   -4.6993 C   0  0  0  0  0  0  0  0  0  0  0  0
   49.8967    0.3099   -5.4348 N   0  0  0  0  0  0  0  0  0  0  0  0
   50.9892    0.6650   -6.3571 C   0  0  0  0  0  0  0  0  0  0  0  0
   51.1460   -0.2067   -7.6256 C   0  0  0  0  0  0  0  0  0  0  0  0
   52.2977    0.1866   -8.5727 C   0  0  0  0  0  0  0  0  0  0  0  0
   52.1552    1.5339   -9.1168 N   0  0  0  0  0  0  0  0  0  0  0  0
  1  2  1  0  0  0  0
  2  3  1  0  0  0  0
  3  4  1  0  0  0  0
  4  5  1  0  0  0  0
  5  6  1  0  0  0  0
  6  7  1  0  0  0  0
  7  8  1  0  0  0  0
  8  9  1  0  0  0  0
  9 10  1  0  0  0  0
 10 11  1  0  0  0  0
 11 12  1  0  0  0  0
 12 13  1  0  0  0  0
 13 14  1  0  0  0  0
M  END
>  <CHROM.1>
-177.61025296,-59.49835033,172.84595090,131.22903401,179.91228754,175.86109096
-61.34746770,119.42713378,67.18667579,-179.96040721,-61.53570952,51.82054357
0.76169028,-3.09095610,-1.26841129,-0.60121648,-1.57878025

>  <Name>
ligand

>  <RI>
0

>  <Rbt.Current_Directory>
/home/itssahil/PROJECTS/Mol_Feturizer/New_Systems/rnas/4E8Q

>  <Rbt.Executable>
rbdock ($Id: //depot/dev/client3/rdock/2013.1/src/exe/rbdock.cxx#4 $)

>  <Rbt.Library>
libRbt.so (2013.1, Build901 2013/11/27)

>  <Rbt.Parameter_File>
/export/apps/rDock/src/rDock_2013.1_src/data/scripts/dock_solv.prm

>  <Rbt.Receptor>
prm/pocket_docking_6.prm

>  <SCORE>
-12.4411

>  <SCORE.INTER>
-0.807152

>  <SCORE.INTER.CONST>
1

>  <SCORE.INTER.POLAR>
0

>  <SCORE.INTER.ROT>
11

>  <SCORE.INTER.SOLV>
6.44778

>  <SCORE.INTER.VDW>
-13.6207

>  <SCORE.INTER.norm>
-0.0576537

>  <SCORE.INTRA>
-11.6339

>  <SCORE.INTRA.DIHEDRAL>
-23.4284

>  <SCORE.INTRA.DIHEDRAL.0>
25.9209

>  <SCORE.INTRA.POLAR>
0

>  <SCORE.INTRA.POLAR.0>
0

>  <SCORE.INTRA.REPUL>
0

>  <SCORE.INTRA.REPUL.0>
0

>  <SCORE.INTRA.SOLV>
-0.7636

>  <SCORE.INTRA.SOLV.lig_0>
-47.4815

>  <SCORE.INTRA.VDW>
0.462091

>  <SCORE.INTRA.VDW.0>
-1.57492

>  <SCORE.INTRA.norm>
-0.830994

>  <SCORE.RESTR>
0

>  <SCORE.RESTR.CAVITY>
0

>  <SCORE.RESTR.norm>
0

>  <SCORE.SYSTEM>
0

>  <SCORE.SYSTEM.CONST>
0

>  <SCORE.SYSTEM.DIHEDRAL>
0

>  <SCORE.SYSTEM.SOLV>
0

>  <SCORE.SYSTEM.norm>
0

>  <SCORE.heavy>
14

>  <SCORE.norm>
-0.888648

>  <RMSD>
3.957

$$$$
ligand
 OpenBabel11021811493D
libRbt.so/2013.1/901 2013/11/27
 14 13  0  0  0  0  0  0  0  0999 V2000
   59.1125   -0.0832    2.9705 N   0  0  0  0  0  0  0  0  0  0  0  0
   58.4088   -1.2645    2.4863 C   0  0  0  0  0  0  0  0  0  0  0  0
   58.1058   -1.1453    0.9775 C   0  0  0  0  0  0  0  0  0  0  0  0
   57.1917    0.0365    0.5973 C   0  0  0  0  0  0  0  0  0  0  0  0
   57.6658    1.3989    0.8833 N   0  0  0  0  0  0  0  0  0  0  0  0
   56.8726    2.5719    0.4992 C   0  0  0  0  0  0  0  0  0  0  0  0
   57.2621    3.2111   -0.8369 C   0  0  0  0  0  0  0  0  0  0  0  0
   56.3913    4.4282   -1.1921 C   0  0  0  0  0  0  0  0  0  0  0  0
   54.9922    4.0629   -1.7134 C   0  0  0  0  0  0  0  0  0  0  0  0
   54.1379    3.3733   -0.7438 N   0  0  0  0  0  0  0  0  0  0  0  0
   52.6736    3.4720   -0.8725 C   0  0  0  0  0  0  0  0  0  0  0  0
   51.8310    2.4267   -0.1039 C   0  0  0  0  0  0  0  0  0  0  0  0
   51.8880    0.9855   -0.6495 C   0  0  0  0  0  0  0  0  0  0  0  0
   51.3826    0.8708   -2.0144 N   0  0  0  0  0  0  0  0  0  0  0  0
  1  2  1  0  0  0  0
  2  3  1  0  0  0  0
  3  4  1  0  0  0  0
  4  5  1  0  0  0  0
  5  6  1  0  0  0  0
  6  7  1  0  0  0  0
  7  8  1  0  0  0  0
  8  9  1  0  0  0  0
  9 10  1  0  0  0  0
 10 11  1  0  0  0  0
 11 12  1  0  0  0  0
 12 13  1  0  0  0  0
 13 14  1  0  0  0  0
M  END
>  <CHROM.1>
-61.76395191,61.86744994,177.49582954,-95.92891404,179.57716342,-76.82311290
63.93258938,154.29999905,162.87192297,-70.67589814,-61.65427450,55.56543177
1.73904922,0.02043102,0.55688059,0.25631706,2.71603880

>  <Name>
ligand

>  <RI>
0

>  <Rbt.Current_Directory>
/home/itssahil/PROJECTS/Mol_Feturizer/New_Systems/rnas/4E8Q

>  <Rbt.Executable>
rbdock ($Id: //depot/dev/client3/rdock/2013.1/src/exe/rbdock.cxx#4 $)

>  <Rbt.Library>
libRbt.so (2013.1, Build901 2013/11/27)

>  <Rbt.Parameter_File>
/export/apps/rDock/src/rDock_2013.1_src/data/scripts/dock_solv.prm

>  <Rbt.Receptor>
prm/pocket_docking_5.prm

>  <SCORE>
-9.47783

>  <SCORE.INTER>
0.240644

>  <SCORE.INTER.CONST>
1

>  <SCORE.INTER.POLAR>
0

>  <SCORE.INTER.ROT>
11

>  <SCORE.INTER.SOLV>
11.7391

>  <SCORE.INTER.VDW>
-14.6859

>  <SCORE.INTER.norm>
0.0171888

>  <SCORE.INTRA>
-9.71848

>  <SCORE.INTRA.DIHEDRAL>
-22.8142

>  <SCORE.INTRA.DIHEDRAL.0>
25.9209

>  <SCORE.INTRA.POLAR>
0

>  <SCORE.INTRA.POLAR.0>
0

>  <SCORE.INTRA.REPUL>
0

>  <SCORE.INTRA.REPUL.0>
0

>  <SCORE.INTRA.SOLV>
2.9638

>  <SCORE.INTRA.SOLV.lig_0>
-47.4815

>  <SCORE.INTRA.VDW>
0.206711

>  <SCORE.INTRA.VDW.0>
-1.57492

>  <SCORE.INTRA.norm>
-0.694177

>  <SCORE.RESTR>
0

>  <SCORE.RESTR.CAVITY>
0

>  <SCORE.RESTR.norm>
0

>  <SCORE.SYSTEM>
0

>  <SCORE.SYSTEM.CONST>
0

>  <SCORE.SYSTEM.DIHEDRAL>
0

>  <SCORE.SYSTEM.SOLV>
0

>  <SCORE.SYSTEM.norm>
0

>  <SCORE.heavy>
14

>  <SCORE.norm>
-0.676988

>  <RMSD>
3.979

$$$$
ligand
 OpenBabel11021811493D
libRbt.so/2013.1/901 2013/11/27
 14 13  0  0  0  0  0  0  0  0999 V2000
   52.0900    1.4512   -8.7358 N   0  0  0  0  0  0  0  0  0  0  0  0
   51.8751    0.3731   -7.7784 C   0  0  0  0  0  0  0  0  0  0  0  0
   50.4982    0.5103   -7.0943 C   0  0  0  0  0  0  0  0  0  0  0  0
   50.2082   -0.5523   -6.0156 C   0  0  0  0  0  0  0  0  0  0  0  0
   51.0686   -0.5818   -4.8233 N   0  0  0  0  0  0  0  0  0  0  0  0
   50.7213    0.1840   -3.6210 C   0  0  0  0  0  0  0  0  0  0  0  0
   51.5746   -0.1214   -2.3865 C   0  0  0  0  0  0  0  0  0  0  0  0
   51.1670    0.7110   -1.1589 C   0  0  0  0  0  0  0  0  0  0  0  0
   51.4607    2.2133   -1.2989 C   0  0  0  0  0  0  0  0  0  0  0  0
   50.9291    3.0447   -0.2165 N   0  0  0  0  0  0  0  0  0  0  0  0
   51.3886    2.8137    1.1641 C   0  0  0  0  0  0  0  0  0  0  0  0
   52.8727    3.1260    1.4698 C   0  0  0  0  0  0  0  0  0  0  0  0
   53.3377    2.8332    2.9107 C   0  0  0  0  0  0  0  0  0  0  0  0
   52.6432    3.6396    3.9101 N   0  0  0  0  0  0  0  0  0  0  0  0
  1  2  1  0  0  0  0
  2  3  1  0  0  0  0
  3  4  1  0  0  0  0
  4  5  1  0  0  0  0
  5  6  1  0  0  0  0
  6  7  1  0  0  0  0
  7  8  1  0  0  0  0
  8  9  1  0  0  0  0
  9 10  1  0  0  0  0
 10 11  1  0  0  0  0
 11 12  1  0  0  0  0
 12 13  1  0  0  0  0
 13 14  1  0  0  0  0
M  END
>  <CHROM.1>
-177.34143849,63.27517651,91.16231417,170.26246622,179.92515712,-67.74408135
172.66456428,60.98070977,66.53887093,-178.14753047,-62.69691175,51.55959699
1.40300233,-2.40529283,-1.81539383,1.03556857,1.49390501

>  <Name>
ligand

>  <RI>
0

>  <Rbt.Current_Directory>
/home/itssahil/PROJECTS/Mol_Feturizer/New_Systems/rnas/4E8Q

>  <Rbt.Executable>
rbdock ($Id: //depot/dev/client3/rdock/2013.1/src/exe/rbdock.cxx#4 $)

>  <Rbt.Library>
libRbt.so (2013.1, Build901 2013/11/27)

>  <Rbt.Parameter_File>
/export/apps/rDock/src/rDock_2013.1_src/data/scripts/dock_solv.prm

>  <Rbt.Receptor>
prm/pocket_docking_5.prm

>  <SCORE>
-9.65947

>  <SCORE.INTER>
1.89236

>  <SCORE.INTER.CONST>
1

>  <SCORE.INTER.POLAR>
0

>  <SCORE.INTER.ROT>
11

>  <SCORE.INTER.SOLV>
8.49532

>  <SCORE.INTER.VDW>
-12.5035

>  <SCORE.INTER.norm>
0.135168

>  <SCORE.INTRA>
-11.5518

>  <SCORE.INTRA.DIHEDRAL>
-24.6156

>  <SCORE.INTRA.DIHEDRAL.0>
25.9209

>  <SCORE.INTRA.POLAR>
0

>  <SCORE.INTRA.POLAR.0>
0

>  <SCORE.INTRA.REPUL>
0

>  <SCORE.INTRA.REPUL.0>
0

>  <SCORE.INTRA.SOLV>
-0.993007

>  <SCORE.INTRA.SOLV.lig_0>
-47.4815

>  <SCORE.INTRA.VDW>
1.25249

>  <SCORE.INTRA.VDW.0>
-1.57492

>  <SCORE.INTRA.norm>
-0.82513

>  <SCORE.RESTR>
0

>  <SCORE.RESTR.CAVITY>
0

>  <SCORE.RESTR.norm>
0

>  <SCORE.SYSTEM>
0

>  <SCORE.SYSTEM.CONST>
0

>  <SCORE.SYSTEM.DIHEDRAL>
0

>  <SCORE.SYSTEM.SOLV>
0

>  <SCORE.SYSTEM.norm>
0

>  <SCORE.heavy>
14

>  <SCORE.norm>
-0.689962

>  <RMSD>
3.984

$$$$
ligand
 OpenBabel11021811493D
libRbt.so/2013.1/901 2013/11/27
 14 13  0  0  0  0  0  0  0  0999 V2000
   54.9982    5.6133    0.8211 N   0  0  0  0  0  0  0  0  0  0  0  0
   54.6091    4.5316    1.7175 C   0  0  0  0  0  0  0  0  0  0  0  0
   54.1995    3.2754    0.9196 C   0  0  0  0  0  0  0  0  0  0  0  0
   52.8890    3.4209    0.1208 C   0  0  0  0  0  0  0  0  0  0  0  0
   52.5088    2.3315   -0.7910 N   0  0  0  0  0  0  0  0  0  0  0  0
   51.4437    1.3865   -0.4375 C   0  0  0  0  0  0  0  0  0  0  0  0
   51.2567    0.2222   -1.4147 C   0  0  0  0  0  0  0  0  0  0  0  0
   51.0325    0.6892   -2.8630 C   0  0  0  0  0  0  0  0  0  0  0  0
   50.9224   -0.4594   -3.8785 C   0  0  0  0  0  0  0  0  0  0  0  0
   49.7900   -1.3627   -3.6611 N   0  0  0  0  0  0  0  0  0  0  0  0
   48.4263   -0.8987   -3.9702 C   0  0  0  0  0  0  0  0  0  0  0  0
   48.0034   -0.9091   -5.4583 C   0  0  0  0  0  0  0  0  0  0  0  0
   47.8941   -2.2997   -6.1159 C   0  0  0  0  0  0  0  0  0  0  0  0
   49.1880   -2.9540   -6.2871 N   0  0  0  0  0  0  0  0  0  0  0  0
  1  2  1  0  0  0  0
  2  3  1  0  0  0  0
  3  4  1  0  0  0  0
  4  5  1  0  0  0  0
  5  6  1  0  0  0  0
  6  7  1  0  0  0  0
  7  8  1  0  0  0  0
  8  9  1  0  0  0  0
  9 10  1  0  0  0  0
 10 11  1  0  0  0  0
 11 12  1  0  0  0  0
 12 13  1  0  0  0  0
 13 14  1  0  0  0  0
M  END
>  <CHROM.1>
-68.55575782,172.89410340,104.45512332,-173.92551219,-54.78549796,176.67004178
62.45986333,72.69721490,78.93023583,66.02761212,-68.99791098,51.22566156
0.89906165,-2.23548483,-0.49797084,-0.91805100,-1.36376688

>  <Name>
ligand

>  <RI>
0

>  <Rbt.Current_Directory>
/home/itssahil/PROJECTS/Mol_Feturizer/New_Systems/rnas/4E8Q

>  <Rbt.Executable>
rbdock ($Id: //depot/dev/client3/rdock/2013.1/src/exe/rbdock.cxx#4 $)

>  <Rbt.Library>
libRbt.so (2013.1, Build901 2013/11/27)

>  <Rbt.Parameter_File>
/export/apps/rDock/src/rDock_2013.1_src/data/scripts/dock_solv.prm

>  <Rbt.Receptor>
prm/pocket_docking_5.prm

>  <SCORE>
-10.3865

>  <SCORE.INTER>
-0.14771

>  <SCORE.INTER.CONST>
1

>  <SCORE.INTER.POLAR>
0

>  <SCORE.INTER.ROT>
11

>  <SCORE.INTER.SOLV>
9.99885

>  <SCORE.INTER.VDW>
-14.3648

>  <SCORE.INTER.norm>
-0.0105507

>  <SCORE.INTRA>
-10.2388

>  <SCORE.INTRA.DIHEDRAL>
-23.41

>  <SCORE.INTRA.DIHEDRAL.0>
25.9209

>  <SCORE.INTRA.POLAR>
0

>  <SCORE.INTRA.POLAR.0>
0

>  <SCORE.INTRA.REPUL>
0

>  <SCORE.INTRA.REPUL.0>
0

>  <SCORE.INTRA.SOLV>
2.04086

>  <SCORE.INTRA.SOLV.lig_0>
-47.4815

>  <SCORE.INTRA.VDW>
0.445804

>  <SCORE.INTRA.VDW.0>
-1.57492

>  <SCORE.INTRA.norm>
-0.73134

>  <SCORE.RESTR>
0

>  <SCORE.RESTR.CAVITY>
0

>  <SCORE.RESTR.norm>
0

>  <SCORE.SYSTEM>
0

>  <SCORE.SYSTEM.CONST>
0

>  <SCORE.SYSTEM.DIHEDRAL>
0

>  <SCORE.SYSTEM.SOLV>
0

>  <SCORE.SYSTEM.norm>
0

>  <SCORE.heavy>
14

>  <SCORE.norm>
-0.74189

>  <RMSD>
4.008

$$$$
ligand
 OpenBabel11021811493D
libRbt.so/2013.1/901 2013/11/27
 14 13  0  0  0  0  0  0  0  0999 V2000
   53.6479    2.3669   -6.7469 N   0  0  0  0  0  0  0  0  0  0  0  0
   52.3225    2.1792   -6.1697 C   0  0  0  0  0  0  0  0  0  0  0  0
   51.6025    0.9797   -6.8219 C   0  0  0  0  0  0  0  0  0  0  0  0
   50.1294    0.8085   -6.4010 C   0  0  0  0  0  0  0  0  0  0  0  0
   49.8353    0.6080   -4.9741 N   0  0  0  0  0  0  0  0  0  0  0  0
   50.0430   -0.6964   -4.3352 C   0  0  0  0  0  0  0  0  0  0  0  0
   50.2926   -0.6484   -2.8250 C   0  0  0  0  0  0  0  0  0  0  0  0
   51.5556    0.1473   -2.4541 C   0  0  0  0  0  0  0  0  0  0  0  0
   51.8345    0.2058   -0.9437 C   0  0  0  0  0  0  0  0  0  0  0  0
   50.8783    1.0058   -0.1748 N   0  0  0  0  0  0  0  0  0  0  0  0
   51.1405    2.4404    0.0346 C   0  0  0  0  0  0  0  0  0  0  0  0
   51.9174    2.8308    1.3143 C   0  0  0  0  0  0  0  0  0  0  0  0
   53.3272    2.2222    1.4562 C   0  0  0  0  0  0  0  0  0  0  0  0
   53.9772    2.5739    2.7152 N   0  0  0  0  0  0  0  0  0  0  0  0
  1  2  1  0  0  0  0
  2  3  1  0  0  0  0
  3  4  1  0  0  0  0
  4  5  1  0  0  0  0
  5  6  1  0  0  0  0
  6  7  1  0  0  0  0
  7  8  1  0  0  0  0
  8  9  1  0  0  0  0
  9 10  1  0  0  0  0
 10 11  1  0  0  0  0
 11 12  1  0  0  0  0
 12 13  1  0  0  0  0
 13 14  1  0  0  0  0
M  END
>  <CHROM.1>
-172.80589528,-59.50076200,-77.74080873,154.64596491,-61.09790535,-179.70693603
-69.07619863,-90.28981888,-91.64796417,59.63957783,-177.01431708,51.60722383
1.21581485,-2.59485201,-1.79402481,0.70657270,1.56397312

>  <Name>
ligand

>  <RI>
0

>  <Rbt.Current_Directory>
/home/itssahil/PROJECTS/Mol_Feturizer/New_Systems/rnas/4E8Q

>  <Rbt.Executable>
rbdock ($Id: //depot/dev/client3/rdock/2013.1/src/exe/rbdock.cxx#4 $)

>  <Rbt.Library>
libRbt.so (2013.1, Build901 2013/11/27)

>  <Rbt.Parameter_File>
/export/apps/rDock/src/rDock_2013.1_src/data/scripts/dock_solv.prm

>  <Rbt.Receptor>
prm/pocket_docking_4.prm

>  <SCORE>
-11.3505

>  <SCORE.INTER>
0.659074

>  <SCORE.INTER.CONST>
1

>  <SCORE.INTER.POLAR>
0

>  <SCORE.INTER.ROT>
11

>  <SCORE.INTER.SOLV>
10.2863

>  <SCORE.INTER.VDW>
-13.9227

>  <SCORE.INTER.norm>
0.0470767

>  <SCORE.INTRA>
-12.0096

>  <SCORE.INTRA.DIHEDRAL>
-23.4245

>  <SCORE.INTRA.DIHEDRAL.0>
25.9209

>  <SCORE.INTRA.POLAR>
0

>  <SCORE.INTRA.POLAR.0>
0

>  <SCORE.INTRA.REPUL>
0

>  <SCORE.INTRA.REPUL.0>
0

>  <SCORE.INTRA.SOLV>
-0.825234

>  <SCORE.INTRA.SOLV.lig_0>
-47.4815

>  <SCORE.INTRA.VDW>
0.115237

>  <SCORE.INTRA.VDW.0>
-1.57492

>  <SCORE.INTRA.norm>
-0.85783

>  <SCORE.RESTR>
0

>  <SCORE.RESTR.CAVITY>
0

>  <SCORE.RESTR.norm>
0

>  <SCORE.SYSTEM>
0

>  <SCORE.SYSTEM.CONST>
0

>  <SCORE.SYSTEM.DIHEDRAL>
0

>  <SCORE.SYSTEM.SOLV>
0

>  <SCORE.SYSTEM.norm>
0

>  <SCORE.heavy>
14

>  <SCORE.norm>
-0.810754

>  <RMSD>
4.036

$$$$
ligand
 OpenBabel11021811493D
libRbt.so/2013.1/901 2013/11/27
 14 13  0  0  0  0  0  0  0  0999 V2000
   53.4342    2.8896    2.9464 N   0  0  0  0  0  0  0  0  0  0  0  0
   53.8451    3.1920    1.5808 C   0  0  0  0  0  0  0  0  0  0  0  0
   52.6257    3.5524    0.7057 C   0  0  0  0  0  0  0  0  0  0  0  0
   51.6634    2.3797    0.4308 C   0  0  0  0  0  0  0  0  0  0  0  0
   52.1874    1.2068   -0.2851 N   0  0  0  0  0  0  0  0  0  0  0  0
   51.2823    0.2092   -0.8666 C   0  0  0  0  0  0  0  0  0  0  0  0
   51.3022    0.1261   -2.3957 C   0  0  0  0  0  0  0  0  0  0  0  0
   50.2023   -0.7906   -2.9576 C   0  0  0  0  0  0  0  0  0  0  0  0
   50.0946   -0.7678   -4.4907 C   0  0  0  0  0  0  0  0  0  0  0  0
   49.9036    0.5632   -5.0716 N   0  0  0  0  0  0  0  0  0  0  0  0
   49.6163    0.6886   -6.5111 C   0  0  0  0  0  0  0  0  0  0  0  0
   49.9497    2.0451   -7.1762 C   0  0  0  0  0  0  0  0  0  0  0  0
   49.2223    3.2746   -6.5956 C   0  0  0  0  0  0  0  0  0  0  0  0
   49.6475    3.6016   -5.2377 N   0  0  0  0  0  0  0  0  0  0  0  0
  1  2  1  0  0  0  0
  2  3  1  0  0  0  0
  3  4  1  0  0  0  0
  4  5  1  0  0  0  0
  5  6  1  0  0  0  0
  6  7  1  0  0  0  0
  7  8  1  0  0  0  0
  8  9  1  0  0  0  0
  9 10  1  0  0  0  0
 10 11  1  0  0  0  0
 11 12  1  0  0  0  0
 12 13  1  0  0  0  0
 13 14  1  0  0  0  0
M  END
>  <CHROM.1>
-68.20078686,-61.06489139,-165.00145725,113.96251183,-172.05061817,173.35818696
-55.26664776,-172.26285079,-157.34366065,-59.68023520,67.93235607,51.06965586
1.58341400,-2.56628206,-0.11053275,-1.16275042,-0.26713253

>  <Name>
ligand

>  <RI>
0

>  <Rbt.Current_Directory>
/home/itssahil/PROJECTS/Mol_Feturizer/New_Systems/rnas/4E8Q

>  <Rbt.Executable>
rbdock ($Id: //depot/dev/client3/rdock/2013.1/src/exe/rbdock.cxx#4 $)

>  <Rbt.Library>
libRbt.so (2013.1, Build901 2013/11/27)

>  <Rbt.Parameter_File>
/export/apps/rDock/src/rDock_2013.1_src/data/scripts/dock_solv.prm

>  <Rbt.Receptor>
prm/pocket_docking_5.prm

>  <SCORE>
-9.29876

>  <SCORE.INTER>
1.06528

>  <SCORE.INTER.CONST>
1

>  <SCORE.INTER.POLAR>
0

>  <SCORE.INTER.ROT>
11

>  <SCORE.INTER.SOLV>
6.5085

>  <SCORE.INTER.VDW>
-12.3926

>  <SCORE.INTER.norm>
0.0760917

>  <SCORE.INTRA>
-10.364

>  <SCORE.INTRA.DIHEDRAL>
-23.1584

>  <SCORE.INTRA.DIHEDRAL.0>
25.9209

>  <SCORE.INTRA.POLAR>
0

>  <SCORE.INTRA.POLAR.0>
0

>  <SCORE.INTRA.REPUL>
0

>  <SCORE.INTRA.REPUL.0>
0

>  <SCORE.INTRA.SOLV>
2.2217

>  <SCORE.INTRA.SOLV.lig_0>
-47.4815

>  <SCORE.INTRA.VDW>
0.104298

>  <SCORE.INTRA.VDW.0>
-1.57492

>  <SCORE.INTRA.norm>
-0.740289

>  <SCORE.RESTR>
0

>  <SCORE.RESTR.CAVITY>
0

>  <SCORE.RESTR.norm>
0

>  <SCORE.SYSTEM>
0

>  <SCORE.SYSTEM.CONST>
0

>  <SCORE.SYSTEM.DIHEDRAL>
0

>  <SCORE.SYSTEM.SOLV>
0

>  <SCORE.SYSTEM.norm>
0

>  <SCORE.heavy>
14

>  <SCORE.norm>
-0.664197

>  <RMSD>
4.041

$$$$
ligand
 OpenBabel11021811493D
libRbt.so/2013.1/901 2013/11/27
 14 13  0  0  0  0  0  0  0  0999 V2000
   50.5091    4.3760   -3.4735 N   0  0  0  0  0  0  0  0  0  0  0  0
   49.2497    3.7018   -3.1826 C   0  0  0  0  0  0  0  0  0  0  0  0
   48.5715    3.2171   -4.4817 C   0  0  0  0  0  0  0  0  0  0  0  0
   49.3011    2.0611   -5.1944 C   0  0  0  0  0  0  0  0  0  0  0  0
   49.2881    0.7359   -4.5568 N   0  0  0  0  0  0  0  0  0  0  0  0
   50.5065   -0.0776   -4.4786 C   0  0  0  0  0  0  0  0  0  0  0  0
   50.9438   -0.4591   -3.0613 C   0  0  0  0  0  0  0  0  0  0  0  0
   51.2063    0.7653   -2.1682 C   0  0  0  0  0  0  0  0  0  0  0  0
   51.5338    0.4134   -0.7082 C   0  0  0  0  0  0  0  0  0  0  0  0
   51.6786    1.5672    0.1824 N   0  0  0  0  0  0  0  0  0  0  0  0
   52.7177    2.5725   -0.1010 C   0  0  0  0  0  0  0  0  0  0  0  0
   52.9234    3.6840    0.9552 C   0  0  0  0  0  0  0  0  0  0  0  0
   53.4436    3.2166    2.3296 C   0  0  0  0  0  0  0  0  0  0  0  0
   52.4859    2.3825    3.0495 N   0  0  0  0  0  0  0  0  0  0  0  0
  1  2  1  0  0  0  0
  2  3  1  0  0  0  0
  3  4  1  0  0  0  0
  4  5  1  0  0  0  0
  5  6  1  0  0  0  0
  6  7  1  0  0  0  0
  7  8  1  0  0  0  0
  8  9  1  0  0  0  0
  9 10  1  0  0  0  0
 10 11  1  0  0  0  0
 11 12  1  0  0  0  0
 12 13  1  0  0  0  0
 13 14  1  0  0  0  0
M  END
>  <CHROM.1>
69.10012639,69.99578456,-135.73777337,121.40788078,-58.71891251,175.21938044
-175.21572779,-60.18374665,-173.58762898,65.13823978,-66.40700250,51.02566965
2.01108998,-1.77806132,2.74926785,1.04423097,-2.84495207

>  <Name>
ligand

>  <RI>
0

>  <Rbt.Current_Directory>
/home/itssahil/PROJECTS/Mol_Feturizer/New_Systems/rnas/4E8Q

>  <Rbt.Executable>
rbdock ($Id: //depot/dev/client3/rdock/2013.1/src/exe/rbdock.cxx#4 $)

>  <Rbt.Library>
libRbt.so (2013.1, Build901 2013/11/27)

>  <Rbt.Parameter_File>
/export/apps/rDock/src/rDock_2013.1_src/data/scripts/dock_solv.prm

>  <Rbt.Receptor>
prm/pocket_docking_3.prm

>  <SCORE>
-9.03043

>  <SCORE.INTER>
0.868745

>  <SCORE.INTER.CONST>
1

>  <SCORE.INTER.POLAR>
0

>  <SCORE.INTER.ROT>
11

>  <SCORE.INTER.SOLV>
9.47738

>  <SCORE.INTER.VDW>
-13.5133

>  <SCORE.INTER.norm>
0.0620532

>  <SCORE.INTRA>
-9.89917

>  <SCORE.INTRA.DIHEDRAL>
-22.5637

>  <SCORE.INTRA.DIHEDRAL.0>
25.9209

>  <SCORE.INTRA.POLAR>
0

>  <SCORE.INTRA.POLAR.0>
0

>  <SCORE.INTRA.REPUL>
0

>  <SCORE.INTRA.REPUL.0>
0

>  <SCORE.INTRA.SOLV>
2.99678

>  <SCORE.INTRA.SOLV.lig_0>
-47.4815

>  <SCORE.INTRA.VDW>
-0.115714

>  <SCORE.INTRA.VDW.0>
-1.57492

>  <SCORE.INTRA.norm>
-0.707084

>  <SCORE.RESTR>
0

>  <SCORE.RESTR.CAVITY>
0

>  <SCORE.RESTR.norm>
0

>  <SCORE.SYSTEM>
0

>  <SCORE.SYSTEM.CONST>
0

>  <SCORE.SYSTEM.DIHEDRAL>
0

>  <SCORE.SYSTEM.SOLV>
0

>  <SCORE.SYSTEM.norm>
0

>  <SCORE.heavy>
14

>  <SCORE.norm>
-0.64503

>  <RMSD>
4.046

$$$$
ligand
 OpenBabel11021811493D
libRbt.so/2013.1/901 2013/11/27
 14 13  0  0  0  0  0  0  0  0999 V2000
   51.8533    1.2849   -7.7485 N   0  0  0  0  0  0  0  0  0  0  0  0
   51.4324    0.4195   -6.6534 C   0  0  0  0  0  0  0  0  0  0  0  0
   50.0395   -0.1843   -6.9327 C   0  0  0  0  0  0  0  0  0  0  0  0
   49.4985   -1.0960   -5.8134 C   0  0  0  0  0  0  0  0  0  0  0  0
   49.2998   -0.5110   -4.4788 N   0  0  0  0  0  0  0  0  0  0  0  0
   50.0834   -0.9716   -3.3270 C   0  0  0  0  0  0  0  0  0  0  0  0
   51.3461   -0.1568   -3.0319 C   0  0  0  0  0  0  0  0  0  0  0  0
   51.0406    1.3069   -2.6711 C   0  0  0  0  0  0  0  0  0  0  0  0
   52.2763    2.1141   -2.2417 C   0  0  0  0  0  0  0  0  0  0  0  0
   51.9791    3.4201   -1.6490 N   0  0  0  0  0  0  0  0  0  0  0  0
   51.2122    3.4855   -0.3928 C   0  0  0  0  0  0  0  0  0  0  0  0
   51.8371    2.8007    0.8458 C   0  0  0  0  0  0  0  0  0  0  0  0
   53.2152    3.3355    1.2851 C   0  0  0  0  0  0  0  0  0  0  0  0
   53.7590    2.6308    2.4423 N   0  0  0  0  0  0  0  0  0  0  0  0
  1  2  1  0  0  0  0
  2  3  1  0  0  0  0
  3  4  1  0  0  0  0
  4  5  1  0  0  0  0
  5  6  1  0  0  0  0
  6  7  1  0  0  0  0
  7  8  1  0  0  0  0
  8  9  1  0  0  0  0
  9 10  1  0  0  0  0
 10 11  1  0  0  0  0
 11 12  1  0  0  0  0
 12 13  1  0  0  0  0
 13 14  1  0  0  0  0
M  END
>  <CHROM.1>
-178.92108475,60.55848758,-115.49499929,94.15845065,62.50880860,174.55865017
-168.66899328,62.78651597,61.18581588,59.77458221,-178.92267008,51.34788280
1.27685391,-2.88335423,-2.04873845,0.93180282,1.54783115

>  <Name>
ligand

>  <RI>
0

>  <Rbt.Current_Directory>
/home/itssahil/PROJECTS/Mol_Feturizer/New_Systems/rnas/4E8Q

>  <Rbt.Executable>
rbdock ($Id: //depot/dev/client3/rdock/2013.1/src/exe/rbdock.cxx#4 $)

>  <Rbt.Library>
libRbt.so (2013.1, Build901 2013/11/27)

>  <Rbt.Parameter_File>
/export/apps/rDock/src/rDock_2013.1_src/data/scripts/dock_solv.prm

>  <Rbt.Receptor>
prm/pocket_docking_3.prm

>  <SCORE>
-9.86421

>  <SCORE.INTER>
1.99617

>  <SCORE.INTER.CONST>
1

>  <SCORE.INTER.POLAR>
0

>  <SCORE.INTER.ROT>
11

>  <SCORE.INTER.SOLV>
5.30454

>  <SCORE.INTER.VDW>
-11.3707

>  <SCORE.INTER.norm>
0.142583

>  <SCORE.INTRA>
-11.8604

>  <SCORE.INTRA.DIHEDRAL>
-23.3714

>  <SCORE.INTRA.DIHEDRAL.0>
25.9209

>  <SCORE.INTRA.POLAR>
0

>  <SCORE.INTRA.POLAR.0>
0

>  <SCORE.INTRA.REPUL>
0

>  <SCORE.INTRA.REPUL.0>
0

>  <SCORE.INTRA.SOLV>
-1.15041

>  <SCORE.INTRA.SOLV.lig_0>
-47.4815

>  <SCORE.INTRA.VDW>
0.400526

>  <SCORE.INTRA.VDW.0>
-1.57492

>  <SCORE.INTRA.norm>
-0.84717

>  <SCORE.RESTR>
0

>  <SCORE.RESTR.CAVITY>
0

>  <SCORE.RESTR.norm>
0

>  <SCORE.SYSTEM>
0

>  <SCORE.SYSTEM.CONST>
0

>  <SCORE.SYSTEM.DIHEDRAL>
0

>  <SCORE.SYSTEM.SOLV>
0

>  <SCORE.SYSTEM.norm>
0

>  <SCORE.heavy>
14

>  <SCORE.norm>
-0.704587

>  <RMSD>
4.089

$$$$
ligand
 OpenBabel11021811493D
libRbt.so/2013.1/901 2013/11/27
 14 13  0  0  0  0  0  0  0  0999 V2000
   53.5679    4.0686   -6.4137 N   0  0  0  0  0  0  0  0  0  0  0  0
   53.1460    2.7209   -6.0519 C   0  0  0  0  0  0  0  0  0  0  0  0
   52.2052    2.1317   -7.1244 C   0  0  0  0  0  0  0  0  0  0  0  0
   51.6098    0.7545   -6.7700 C   0  0  0  0  0  0  0  0  0  0  0  0
   50.8192    0.6385   -5.5354 N   0  0  0  0  0  0  0  0  0  0  0  0
   50.5403   -0.6714   -4.9362 C   0  0  0  0  0  0  0  0  0  0  0  0
   50.1917   -0.6435   -3.4452 C   0  0  0  0  0  0  0  0  0  0  0  0
   51.2975   -0.0072   -2.5860 C   0  0  0  0  0  0  0  0  0  0  0  0
   50.9778    0.0259   -1.0829 C   0  0  0  0  0  0  0  0  0  0  0  0
   51.9559    0.7461   -0.2643 N   0  0  0  0  0  0  0  0  0  0  0  0
   51.7933    2.1949   -0.0524 C   0  0  0  0  0  0  0  0  0  0  0  0
   52.3388    2.7742    1.2744 C   0  0  0  0  0  0  0  0  0  0  0  0
   53.8426    2.5539    1.5355 C   0  0  0  0  0  0  0  0  0  0  0  0
   54.2870    3.1026    2.8134 N   0  0  0  0  0  0  0  0  0  0  0  0
  1  2  1  0  0  0  0
  2  3  1  0  0  0  0
  3  4  1  0  0  0  0
  4  5  1  0  0  0  0
  5  6  1  0  0  0  0
  6  7  1  0  0  0  0
  7  8  1  0  0  0  0
  8  9  1  0  0  0  0
  9 10  1  0  0  0  0
 10 11  1  0  0  0  0
 11 12  1  0  0  0  0
 12 13  1  0  0  0  0
 13 14  1  0  0  0  0
M  END
>  <CHROM.1>
-174.99846159,58.26586896,-162.78770098,158.00709556,-57.97551319,-179.63304206
-174.19821132,88.53425391,150.57622834,58.37791791,-178.94678677,52.04067540
1.45611731,-2.76010236,-1.81476611,0.90252830,1.64995213

>  <Name>
ligand

>  <RI>
0

>  <Rbt.Current_Directory>
/home/itssahil/PROJECTS/Mol_Feturizer/New_Systems/rnas/4E8Q

>  <Rbt.Executable>
rbdock ($Id: //depot/dev/client3/rdock/2013.1/src/exe/rbdock.cxx#4 $)

>  <Rbt.Library>
libRbt.so (2013.1, Build901 2013/11/27)

>  <Rbt.Parameter_File>
/export/apps/rDock/src/rDock_2013.1_src/data/scripts/dock_solv.prm

>  <Rbt.Receptor>
prm/pocket_docking_4.prm

>  <SCORE>
-12.5061

>  <SCORE.INTER>
-0.240008

>  <SCORE.INTER.CONST>
1

>  <SCORE.INTER.POLAR>
0

>  <SCORE.INTER.ROT>
11

>  <SCORE.INTER.SOLV>
6.39122

>  <SCORE.INTER.VDW>
-13.2237

>  <SCORE.INTER.norm>
-0.0171434

>  <SCORE.INTRA>
-12.2661

>  <SCORE.INTRA.DIHEDRAL>
-23.9396

>  <SCORE.INTRA.DIHEDRAL.0>
25.9209

>  <SCORE.INTRA.POLAR>
0

>  <SCORE.INTRA.POLAR.0>
0

>  <SCORE.INTRA.REPUL>
0

>  <SCORE.INTRA.REPUL.0>
0

>  <SCORE.INTRA.SOLV>
-1.12631

>  <SCORE.INTRA.SOLV.lig_0>
-47.4815

>  <SCORE.INTRA.VDW>
0.266814

>  <SCORE.INTRA.VDW.0>
-1.57492

>  <SCORE.INTRA.norm>
-0.876153

>  <SCORE.RESTR>
0

>  <SCORE.RESTR.CAVITY>
0

>  <SCORE.RESTR.norm>
0

>  <SCORE.SYSTEM>
0

>  <SCORE.SYSTEM.CONST>
0

>  <SCORE.SYSTEM.DIHEDRAL>
0

>  <SCORE.SYSTEM.SOLV>
0

>  <SCORE.SYSTEM.norm>
0

>  <SCORE.heavy>
14

>  <SCORE.norm>
-0.893296

>  <RMSD>
4.103

$$$$
ligand
 OpenBabel11021811493D
libRbt.so/2013.1/901 2013/11/27
 14 13  0  0  0  0  0  0  0  0999 V2000
   50.8683    0.8431   -7.7378 N   0  0  0  0  0  0  0  0  0  0  0  0
   50.5854   -0.0054   -6.5866 C   0  0  0  0  0  0  0  0  0  0  0  0
   49.0744   -0.3015   -6.4787 C   0  0  0  0  0  0  0  0  0  0  0  0
   48.6698   -1.1366   -5.2477 C   0  0  0  0  0  0  0  0  0  0  0  0
   48.9536   -0.5865   -3.9136 N   0  0  0  0  0  0  0  0  0  0  0  0
   50.0830   -1.0790   -3.1171 C   0  0  0  0  0  0  0  0  0  0  0  0
   51.4077   -0.3445   -3.3435 C   0  0  0  0  0  0  0  0  0  0  0  0
   51.4163    1.0699   -2.7393 C   0  0  0  0  0  0  0  0  0  0  0  0
   51.3421    1.0925   -1.2042 C   0  0  0  0  0  0  0  0  0  0  0  0
   51.2005    2.4271   -0.6173 N   0  0  0  0  0  0  0  0  0  0  0  0
   51.2515    2.5814    0.8469 C   0  0  0  0  0  0  0  0  0  0  0  0
   52.6540    2.6806    1.4923 C   0  0  0  0  0  0  0  0  0  0  0  0
   52.6777    2.8546    3.0244 C   0  0  0  0  0  0  0  0  0  0  0  0
   54.0280    2.9855    3.5637 N   0  0  0  0  0  0  0  0  0  0  0  0
  1  2  1  0  0  0  0
  2  3  1  0  0  0  0
  3  4  1  0  0  0  0
  4  5  1  0  0  0  0
  5  6  1  0  0  0  0
  6  7  1  0  0  0  0
  7  8  1  0  0  0  0
  8  9  1  0  0  0  0
  9 10  1  0  0  0  0
 10 11  1  0  0  0  0
 11 12  1  0  0  0  0
 12 13  1  0  0  0  0
 13 14  1  0  0  0  0
M  END
>  <CHROM.1>
-177.10077068,60.61074576,-103.03761542,89.50891116,72.15345717,66.22873617
-173.58769165,-174.08212131,83.79895597,179.45552125,-178.10971829,51.01505990
0.93417388,-2.28994694,-2.01969655,0.75135738,1.53311860

>  <Name>
ligand

>  <RI>
0

>  <Rbt.Current_Directory>
/home/itssahil/PROJECTS/Mol_Feturizer/New_Systems/rnas/4E8Q

>  <Rbt.Executable>
rbdock ($Id: //depot/dev/client3/rdock/2013.1/src/exe/rbdock.cxx#4 $)

>  <Rbt.Library>
libRbt.so (2013.1, Build901 2013/11/27)

>  <Rbt.Parameter_File>
/export/apps/rDock/src/rDock_2013.1_src/data/scripts/dock_solv.prm

>  <Rbt.Receptor>
prm/pocket_docking_3.prm

>  <SCORE>
-12.1083

>  <SCORE.INTER>
-0.497482

>  <SCORE.INTER.CONST>
1

>  <SCORE.INTER.POLAR>
0

>  <SCORE.INTER.ROT>
11

>  <SCORE.INTER.SOLV>
7.57852

>  <SCORE.INTER.VDW>
-13.7912

>  <SCORE.INTER.norm>
-0.0355344

>  <SCORE.INTRA>
-11.6108

>  <SCORE.INTRA.DIHEDRAL>
-23.0172

>  <SCORE.INTRA.DIHEDRAL.0>
25.9209

>  <SCORE.INTRA.POLAR>
0

>  <SCORE.INTRA.POLAR.0>
0

>  <SCORE.INTRA.REPUL>
0

>  <SCORE.INTRA.REPUL.0>
0

>  <SCORE.INTRA.SOLV>
-1.11411

>  <SCORE.INTRA.SOLV.lig_0>
-47.4815

>  <SCORE.INTRA.VDW>
0.454862

>  <SCORE.INTRA.VDW.0>
-1.57492

>  <SCORE.INTRA.norm>
-0.829344

>  <SCORE.RESTR>
0

>  <SCORE.RESTR.CAVITY>
0

>  <SCORE.RESTR.norm>
0

>  <SCORE.SYSTEM>
0

>  <SCORE.SYSTEM.CONST>
0

>  <SCORE.SYSTEM.DIHEDRAL>
0

>  <SCORE.SYSTEM.SOLV>
0

>  <SCORE.SYSTEM.norm>
0

>  <SCORE.heavy>
14

>  <SCORE.norm>
-0.864878

>  <RMSD>
4.104

$$$$
ligand
 OpenBabel11021811493D
libRbt.so/2013.1/901 2013/11/27
 14 13  0  0  0  0  0  0  0  0999 V2000
   47.2508   -2.2864   -7.0762 N   0  0  0  0  0  0  0  0  0  0  0  0
   48.5451   -2.4654   -6.4296 C   0  0  0  0  0  0  0  0  0  0  0  0
   48.4525   -2.1627   -4.9188 C   0  0  0  0  0  0  0  0  0  0  0  0
   48.1886   -0.6832   -4.5752 C   0  0  0  0  0  0  0  0  0  0  0  0
   49.2144    0.3061   -4.9382 N   0  0  0  0  0  0  0  0  0  0  0  0
   50.6427   -0.0159   -4.8429 C   0  0  0  0  0  0  0  0  0  0  0  0
   51.1396   -0.3581   -3.4353 C   0  0  0  0  0  0  0  0  0  0  0  0
   51.1832    0.8654   -2.5043 C   0  0  0  0  0  0  0  0  0  0  0  0
   51.5808    0.5337   -1.0571 C   0  0  0  0  0  0  0  0  0  0  0  0
   51.6888    1.6944   -0.1701 N   0  0  0  0  0  0  0  0  0  0  0  0
   52.8250    1.7871    0.7631 C   0  0  0  0  0  0  0  0  0  0  0  0
   52.9940    3.1197    1.5305 C   0  0  0  0  0  0  0  0  0  0  0  0
   54.2044    3.1976    2.4829 C   0  0  0  0  0  0  0  0  0  0  0  0
   54.3016    4.4767    3.1799 N   0  0  0  0  0  0  0  0  0  0  0  0
  1  2  1  0  0  0  0
  2  3  1  0  0  0  0
  3  4  1  0  0  0  0
  4  5  1  0  0  0  0
  5  6  1  0  0  0  0
  6  7  1  0  0  0  0
  7  8  1  0  0  0  0
  8  9  1  0  0  0  0
  9 10  1  0  0  0  0
 10 11  1  0  0  0  0
 11 12  1  0  0  0  0
 12 13  1  0  0  0  0
 13 14  1  0  0  0  0
M  END
>  <CHROM.1>
-67.88756691,-64.30033733,-36.75618308,-61.54340611,-70.95372515,175.80644525
177.27354037,-136.82647077,171.72064500,-179.02846532,-179.69479562,50.87235355
0.57188065,-2.28511360,2.70978585,-1.00330532,-1.05085177

>  <Name>
ligand

>  <RI>
0

>  <Rbt.Current_Directory>
/home/itssahil/PROJECTS/Mol_Feturizer/New_Systems/rnas/4E8Q

>  <Rbt.Executable>
rbdock ($Id: //depot/dev/client3/rdock/2013.1/src/exe/rbdock.cxx#4 $)

>  <Rbt.Library>
libRbt.so (2013.1, Build901 2013/11/27)

>  <Rbt.Parameter_File>
/export/apps/rDock/src/rDock_2013.1_src/data/scripts/dock_solv.prm

>  <Rbt.Receptor>
prm/pocket_docking_7.prm

>  <SCORE>
-12.8573

>  <SCORE.INTER>
-1.9845

>  <SCORE.INTER.CONST>
1

>  <SCORE.INTER.POLAR>
0

>  <SCORE.INTER.ROT>
11

>  <SCORE.INTER.SOLV>
7.84041

>  <SCORE.INTER.VDW>
-14.8698

>  <SCORE.INTER.norm>
-0.14175

>  <SCORE.INTRA>
-10.8728

>  <SCORE.INTRA.DIHEDRAL>
-23.6407

>  <SCORE.INTRA.DIHEDRAL.0>
25.9209

>  <SCORE.INTRA.POLAR>
0

>  <SCORE.INTRA.POLAR.0>
0

>  <SCORE.INTRA.REPUL>
0

>  <SCORE.INTRA.REPUL.0>
0

>  <SCORE.INTRA.SOLV>
-0.327821

>  <SCORE.INTRA.SOLV.lig_0>
-47.4815

>  <SCORE.INTRA.VDW>
1.11145

>  <SCORE.INTRA.VDW.0>
-1.57492

>  <SCORE.INTRA.norm>
-0.776628

>  <SCORE.RESTR>
0

>  <SCORE.RESTR.CAVITY>
0

>  <SCORE.RESTR.norm>
0

>  <SCORE.SYSTEM>
0

>  <SCORE.SYSTEM.CONST>
0

>  <SCORE.SYSTEM.DIHEDRAL>
0

>  <SCORE.SYSTEM.SOLV>
0

>  <SCORE.SYSTEM.norm>
0

>  <SCORE.heavy>
14

>  <SCORE.norm>
-0.918378

>  <RMSD>
4.123

$$$$
ligand
 OpenBabel11021811493D
libRbt.so/2013.1/901 2013/11/27
 14 13  0  0  0  0  0  0  0  0999 V2000
   49.9357    3.6917   -6.6550 N   0  0  0  0  0  0  0  0  0  0  0  0
   49.8809    2.2729   -6.3246 C   0  0  0  0  0  0  0  0  0  0  0  0
   51.0410    1.5062   -6.9945 C   0  0  0  0  0  0  0  0  0  0  0  0
   51.0563   -0.0095   -6.7131 C   0  0  0  0  0  0  0  0  0  0  0  0
   51.2237   -0.4541   -5.3213 N   0  0  0  0  0  0  0  0  0  0  0  0
   50.0794   -0.5190   -4.4053 C   0  0  0  0  0  0  0  0  0  0  0  0
   50.4393   -0.6818   -2.9256 C   0  0  0  0  0  0  0  0  0  0  0  0
   51.2424    0.5079   -2.3728 C   0  0  0  0  0  0  0  0  0  0  0  0
   51.5133    0.4290   -0.8618 C   0  0  0  0  0  0  0  0  0  0  0  0
   52.1368    1.6237   -0.2880 N   0  0  0  0  0  0  0  0  0  0  0  0
   51.3592    2.4744    0.6295 C   0  0  0  0  0  0  0  0  0  0  0  0
   51.9969    3.8210    1.0460 C   0  0  0  0  0  0  0  0  0  0  0  0
   53.3399    3.7242    1.7977 C   0  0  0  0  0  0  0  0  0  0  0  0
   53.2183    3.0848    3.1046 N   0  0  0  0  0  0  0  0  0  0  0  0
  1  2  1  0  0  0  0
  2  3  1  0  0  0  0
  3  4  1  0  0  0  0
  4  5  1  0  0  0  0
  5  6  1  0  0  0  0
  6  7  1  0  0  0  0
  7  8  1  0  0  0  0
  8  9  1  0  0  0  0
  9 10  1  0  0  0  0
 10 11  1  0  0  0  0
 11 12  1  0  0  0  0
 12 13  1  0  0  0  0
 13 14  1  0  0  0  0
M  END
>  <CHROM.1>
-179.37984950,-62.41979870,82.92345010,-166.49629987,62.78530335,175.01152209
-173.12888431,111.06434338,-171.67597964,-60.96862189,-65.38377459,51.31866216
1.53349154,-2.59184238,3.13770153,1.32229634,2.90459912

>  <Name>
ligand

>  <RI>
0

>  <Rbt.Current_Directory>
/home/itssahil/PROJECTS/Mol_Feturizer/New_Systems/rnas/4E8Q

>  <Rbt.Executable>
rbdock ($Id: //depot/dev/client3/rdock/2013.1/src/exe/rbdock.cxx#4 $)

>  <Rbt.Library>
libRbt.so (2013.1, Build901 2013/11/27)

>  <Rbt.Parameter_File>
/export/apps/rDock/src/rDock_2013.1_src/data/scripts/dock_solv.prm

>  <Rbt.Receptor>
prm/pocket_docking_3.prm

>  <SCORE>
-10.7321

>  <SCORE.INTER>
0.968446

>  <SCORE.INTER.CONST>
1

>  <SCORE.INTER.POLAR>
0

>  <SCORE.INTER.ROT>
11

>  <SCORE.INTER.SOLV>
7.66308

>  <SCORE.INTER.VDW>
-12.8421

>  <SCORE.INTER.norm>
0.0691747

>  <SCORE.INTRA>
-11.7005

>  <SCORE.INTRA.DIHEDRAL>
-23.7569

>  <SCORE.INTRA.DIHEDRAL.0>
25.9209

>  <SCORE.INTRA.POLAR>
0

>  <SCORE.INTRA.POLAR.0>
0

>  <SCORE.INTRA.REPUL>
0

>  <SCORE.INTRA.REPUL.0>
0

>  <SCORE.INTRA.SOLV>
0.0329819

>  <SCORE.INTRA.SOLV.lig_0>
-47.4815

>  <SCORE.INTRA.VDW>
0.161423

>  <SCORE.INTRA.VDW.0>
-1.57492

>  <SCORE.INTRA.norm>
-0.835752

>  <SCORE.RESTR>
0

>  <SCORE.RESTR.CAVITY>
0

>  <SCORE.RESTR.norm>
0

>  <SCORE.SYSTEM>
0

>  <SCORE.SYSTEM.CONST>
0

>  <SCORE.SYSTEM.DIHEDRAL>
0

>  <SCORE.SYSTEM.SOLV>
0

>  <SCORE.SYSTEM.norm>
0

>  <SCORE.heavy>
14

>  <SCORE.norm>
-0.766577

>  <RMSD>
4.132

$$$$
ligand
 OpenBabel11021811493D
libRbt.so/2013.1/901 2013/11/27
 14 13  0  0  0  0  0  0  0  0999 V2000
   54.2154    4.6157    4.3280 N   0  0  0  0  0  0  0  0  0  0  0  0
   53.2135    3.6850    3.8229 C   0  0  0  0  0  0  0  0  0  0  0  0
   53.2177    3.6551    2.2797 C   0  0  0  0  0  0  0  0  0  0  0  0
   52.1998    2.6814    1.6533 C   0  0  0  0  0  0  0  0  0  0  0  0
   52.1713    2.5567    0.1883 N   0  0  0  0  0  0  0  0  0  0  0  0
   51.6860    1.3317   -0.4572 C   0  0  0  0  0  0  0  0  0  0  0  0
   51.7547    1.3318   -1.9871 C   0  0  0  0  0  0  0  0  0  0  0  0
   51.1154    0.0806   -2.6129 C   0  0  0  0  0  0  0  0  0  0  0  0
   51.0966    0.0925   -4.1498 C   0  0  0  0  0  0  0  0  0  0  0  0
   50.3894   -1.0344   -4.7625 N   0  0  0  0  0  0  0  0  0  0  0  0
   48.9169   -1.0675   -4.7288 C   0  0  0  0  0  0  0  0  0  0  0  0
   48.2327   -2.3473   -5.2650 C   0  0  0  0  0  0  0  0  0  0  0  0
   48.4417   -2.6429   -6.7640 C   0  0  0  0  0  0  0  0  0  0  0  0
   47.8892   -1.6079   -7.6330 N   0  0  0  0  0  0  0  0  0  0  0  0
  1  2  1  0  0  0  0
  2  3  1  0  0  0  0
  3  4  1  0  0  0  0
  4  5  1  0  0  0  0
  5  6  1  0  0  0  0
  6  7  1  0  0  0  0
  7  8  1  0  0  0  0
  8  9  1  0  0  0  0
  9 10  1  0  0  0  0
 10 11  1  0  0  0  0
 11 12  1  0  0  0  0
 12 13  1  0  0  0  0
 13 14  1  0  0  0  0
M  END
>  <CHROM.1>
179.22315719,-177.88669580,154.39838430,-178.24740726,-174.70072786,176.61552743
-174.97108026,74.17975281,-174.07265624,-64.10509048,-62.44100960,51.03852895
0.80917142,-1.86339584,-1.06427037,-0.62016451,-1.80287428

>  <Name>
ligand

>  <RI>
0

>  <Rbt.Current_Directory>
/home/itssahil/PROJECTS/Mol_Feturizer/New_Systems/rnas/4E8Q

>  <Rbt.Executable>
rbdock ($Id: //depot/dev/client3/rdock/2013.1/src/exe/rbdock.cxx#4 $)

>  <Rbt.Library>
libRbt.so (2013.1, Build901 2013/11/27)

>  <Rbt.Parameter_File>
/export/apps/rDock/src/rDock_2013.1_src/data/scripts/dock_solv.prm

>  <Rbt.Receptor>
prm/pocket_docking_5.prm

>  <SCORE>
-12.3187

>  <SCORE.INTER>
-0.0383584

>  <SCORE.INTER.CONST>
1

>  <SCORE.INTER.POLAR>
0

>  <SCORE.INTER.ROT>
11

>  <SCORE.INTER.SOLV>
6.27037

>  <SCORE.INTER.VDW>
-13.049

>  <SCORE.INTER.norm>
-0.00273989

>  <SCORE.INTRA>
-12.2803

>  <SCORE.INTRA.DIHEDRAL>
-24.915

>  <SCORE.INTRA.DIHEDRAL.0>
25.9209

>  <SCORE.INTRA.POLAR>
0

>  <SCORE.INTRA.POLAR.0>
0

>  <SCORE.INTRA.REPUL>
0

>  <SCORE.INTRA.REPUL.0>
0

>  <SCORE.INTRA.SOLV>
-0.60669

>  <SCORE.INTRA.SOLV.lig_0>
-47.4815

>  <SCORE.INTRA.VDW>
0.48049

>  <SCORE.INTRA.VDW.0>
-1.57492

>  <SCORE.INTRA.norm>
-0.877167

>  <SCORE.RESTR>
0

>  <SCORE.RESTR.CAVITY>
0

>  <SCORE.RESTR.norm>
0

>  <SCORE.SYSTEM>
0

>  <SCORE.SYSTEM.CONST>
0

>  <SCORE.SYSTEM.DIHEDRAL>
0

>  <SCORE.SYSTEM.SOLV>
0

>  <SCORE.SYSTEM.norm>
0

>  <SCORE.heavy>
14

>  <SCORE.norm>
-0.879907

>  <RMSD>
4.140

$$$$
ligand
 OpenBabel11021811493D
libRbt.so/2013.1/901 2013/11/27
 14 13  0  0  0  0  0  0  0  0999 V2000
   50.7894    3.6455   -6.2238 N   0  0  0  0  0  0  0  0  0  0  0  0
   49.3496    3.7798   -6.0387 C   0  0  0  0  0  0  0  0  0  0  0  0
   48.8788    2.9969   -4.7945 C   0  0  0  0  0  0  0  0  0  0  0  0
   49.0584    1.4688   -4.8913 C   0  0  0  0  0  0  0  0  0  0  0  0
   50.4211    0.9402   -5.0539 N   0  0  0  0  0  0  0  0  0  0  0  0
   50.7859   -0.3829   -4.5355 C   0  0  0  0  0  0  0  0  0  0  0  0
   50.7106   -0.5282   -3.0128 C   0  0  0  0  0  0  0  0  0  0  0  0
   51.5128    0.5539   -2.2701 C   0  0  0  0  0  0  0  0  0  0  0  0
   51.4909    0.4062   -0.7403 C   0  0  0  0  0  0  0  0  0  0  0  0
   52.0983    1.5203   -0.0087 N   0  0  0  0  0  0  0  0  0  0  0  0
   51.2294    2.5153    0.6437 C   0  0  0  0  0  0  0  0  0  0  0  0
   51.9079    3.8061    1.1604 C   0  0  0  0  0  0  0  0  0  0  0  0
   53.0135    3.6071    2.2168 C   0  0  0  0  0  0  0  0  0  0  0  0
   52.5210    3.0068    3.4532 N   0  0  0  0  0  0  0  0  0  0  0  0
  1  2  1  0  0  0  0
  2  3  1  0  0  0  0
  3  4  1  0  0  0  0
  4  5  1  0  0  0  0
  5  6  1  0  0  0  0
  6  7  1  0  0  0  0
  7  8  1  0  0  0  0
  8  9  1  0  0  0  0
  9 10  1  0  0  0  0
 10 11  1  0  0  0  0
 11 12  1  0  0  0  0
 12 13  1  0  0  0  0
 13 14  1  0  0  0  0
M  END
>  <CHROM.1>
-64.69926297,61.24699625,150.50167486,-63.98848153,-53.29484498,-178.18706899
-172.35343003,103.08451358,-168.42914364,-59.79562435,-62.80217531,50.98319372
1.95242297,-2.14975927,2.77926820,1.22427007,-2.87178034

>  <Name>
ligand

>  <RI>
0

>  <Rbt.Current_Directory>
/home/itssahil/PROJECTS/Mol_Feturizer/New_Systems/rnas/4E8Q

>  <Rbt.Executable>
rbdock ($Id: //depot/dev/client3/rdock/2013.1/src/exe/rbdock.cxx#4 $)

>  <Rbt.Library>
libRbt.so (2013.1, Build901 2013/11/27)

>  <Rbt.Parameter_File>
/export/apps/rDock/src/rDock_2013.1_src/data/scripts/dock_solv.prm

>  <Rbt.Receptor>
prm/pocket_docking_3.prm

>  <SCORE>
-10.4944

>  <SCORE.INTER>
-0.259502

>  <SCORE.INTER.CONST>
1

>  <SCORE.INTER.POLAR>
0

>  <SCORE.INTER.ROT>
11

>  <SCORE.INTER.SOLV>
7.80002

>  <SCORE.INTER.VDW>
-13.7063

>  <SCORE.INTER.norm>
-0.0185359

>  <SCORE.INTRA>
-10.2367

>  <SCORE.INTRA.DIHEDRAL>
-23.718

>  <SCORE.INTRA.DIHEDRAL.0>
25.9209

>  <SCORE.INTRA.POLAR>
0

>  <SCORE.INTRA.POLAR.0>
0

>  <SCORE.INTRA.REPUL>
0

>  <SCORE.INTRA.REPUL.0>
0

>  <SCORE.INTRA.SOLV>
2.48498

>  <SCORE.INTRA.SOLV.lig_0>
-47.4815

>  <SCORE.INTRA.VDW>
0.379755

>  <SCORE.INTRA.VDW.0>
-1.57492

>  <SCORE.INTRA.norm>
-0.731195

>  <SCORE.RESTR>
0.00182585

>  <SCORE.RESTR.CAVITY>
0.00182585

>  <SCORE.RESTR.norm>
0.000130418

>  <SCORE.SYSTEM>
0

>  <SCORE.SYSTEM.CONST>
0

>  <SCORE.SYSTEM.DIHEDRAL>
0

>  <SCORE.SYSTEM.SOLV>
0

>  <SCORE.SYSTEM.norm>
0

>  <SCORE.heavy>
14

>  <SCORE.norm>
-0.749601

>  <RMSD>
4.191

$$$$
ligand
 OpenBabel11021811493D
libRbt.so/2013.1/901 2013/11/27
 14 13  0  0  0  0  0  0  0  0999 V2000
   52.5378    3.5737    3.6922 N   0  0  0  0  0  0  0  0  0  0  0  0
   51.9172    3.5714    2.3730 C   0  0  0  0  0  0  0  0  0  0  0  0
   52.9871    3.5309    1.2611 C   0  0  0  0  0  0  0  0  0  0  0  0
   52.4227    3.5297   -0.1735 C   0  0  0  0  0  0  0  0  0  0  0  0
   51.4832    2.4619   -0.5475 N   0  0  0  0  0  0  0  0  0  0  0  0
   51.8072    1.0512   -0.3074 C   0  0  0  0  0  0  0  0  0  0  0  0
   50.9925    0.0480   -1.1291 C   0  0  0  0  0  0  0  0  0  0  0  0
   51.2797    0.1397   -2.6374 C   0  0  0  0  0  0  0  0  0  0  0  0
   50.4742   -0.8562   -3.4871 C   0  0  0  0  0  0  0  0  0  0  0  0
   49.0363   -0.5845   -3.5505 N   0  0  0  0  0  0  0  0  0  0  0  0
   48.4572   -0.0454   -4.7933 C   0  0  0  0  0  0  0  0  0  0  0  0
   49.1364    1.2068   -5.3968 C   0  0  0  0  0  0  0  0  0  0  0  0
   49.1182    2.4716   -4.5146 C   0  0  0  0  0  0  0  0  0  0  0  0
   49.8308    3.5963   -5.1137 N   0  0  0  0  0  0  0  0  0  0  0  0
  1  2  1  0  0  0  0
  2  3  1  0  0  0  0
  3  4  1  0  0  0  0
  4  5  1  0  0  0  0
  5  6  1  0  0  0  0
  6  7  1  0  0  0  0
  7  8  1  0  0  0  0
  8  9  1  0  0  0  0
  9 10  1  0  0  0  0
 10 11  1  0  0  0  0
 11 12  1  0  0  0  0
 12 13  1  0  0  0  0
 13 14  1  0  0  0  0
M  END
>  <CHROM.1>
-179.83753998,-56.99179890,-51.04751983,-160.88762024,65.86412004,-179.95879420
68.86509097,106.90221784,-51.30519024,-62.14935932,177.19372399,50.82006803
1.69227659,-1.73761394,-0.18676053,1.14366558,2.97490847

>  <Name>
ligand

>  <RI>
0

>  <Rbt.Current_Directory>
/home/itssahil/PROJECTS/Mol_Feturizer/New_Systems/rnas/4E8Q

>  <Rbt.Executable>
rbdock ($Id: //depot/dev/client3/rdock/2013.1/src/exe/rbdock.cxx#4 $)

>  <Rbt.Library>
libRbt.so (2013.1, Build901 2013/11/27)

>  <Rbt.Parameter_File>
/export/apps/rDock/src/rDock_2013.1_src/data/scripts/dock_solv.prm

>  <Rbt.Receptor>
prm/pocket_docking_4.prm

>  <SCORE>
-12.079

>  <SCORE.INTER>
-0.430188

>  <SCORE.INTER.CONST>
1

>  <SCORE.INTER.POLAR>
0

>  <SCORE.INTER.ROT>
11

>  <SCORE.INTER.SOLV>
7.89829

>  <SCORE.INTER.VDW>
-13.8529

>  <SCORE.INTER.norm>
-0.0307277

>  <SCORE.INTRA>
-11.6488

>  <SCORE.INTRA.DIHEDRAL>
-23.952

>  <SCORE.INTRA.DIHEDRAL.0>
25.9209

>  <SCORE.INTRA.POLAR>
0

>  <SCORE.INTRA.POLAR.0>
0

>  <SCORE.INTRA.REPUL>
0

>  <SCORE.INTRA.REPUL.0>
0

>  <SCORE.INTRA.SOLV>
-0.663304

>  <SCORE.INTRA.SOLV.lig_0>
-47.4815

>  <SCORE.INTRA.VDW>
0.65881

>  <SCORE.INTRA.VDW.0>
-1.57492

>  <SCORE.INTRA.norm>
-0.832059

>  <SCORE.RESTR>
0

>  <SCORE.RESTR.CAVITY>
0

>  <SCORE.RESTR.norm>
0

>  <SCORE.SYSTEM>
0

>  <SCORE.SYSTEM.CONST>
0

>  <SCORE.SYSTEM.DIHEDRAL>
0

>  <SCORE.SYSTEM.SOLV>
0

>  <SCORE.SYSTEM.norm>
0

>  <SCORE.heavy>
14

>  <SCORE.norm>
-0.862786

>  <RMSD>
4.197

$$$$
ligand
 OpenBabel11021811493D
libRbt.so/2013.1/901 2013/11/27
 14 13  0  0  0  0  0  0  0  0999 V2000
   48.8991   -1.5079   -7.0736 N   0  0  0  0  0  0  0  0  0  0  0  0
   47.9112   -1.4908   -6.0017 C   0  0  0  0  0  0  0  0  0  0  0  0
   48.5699   -1.8009   -4.6406 C   0  0  0  0  0  0  0  0  0  0  0  0
   49.6125   -0.7628   -4.1802 C   0  0  0  0  0  0  0  0  0  0  0  0
   50.2170   -0.9309   -2.8502 N   0  0  0  0  0  0  0  0  0  0  0  0
   51.1266    0.0800   -2.2996 C   0  0  0  0  0  0  0  0  0  0  0  0
   51.0973    0.2198   -0.7748 C   0  0  0  0  0  0  0  0  0  0  0  0
   52.0268    1.3318   -0.2598 C   0  0  0  0  0  0  0  0  0  0  0  0
   51.6049    2.7459   -0.6897 C   0  0  0  0  0  0  0  0  0  0  0  0
   51.7753    3.0287   -2.1168 N   0  0  0  0  0  0  0  0  0  0  0  0
   52.5103    4.2364   -2.5312 C   0  0  0  0  0  0  0  0  0  0  0  0
   54.0552    4.1564   -2.5137 C   0  0  0  0  0  0  0  0  0  0  0  0
   54.7023    3.9667   -1.1269 C   0  0  0  0  0  0  0  0  0  0  0  0
   56.1577    3.8666   -1.1844 N   0  0  0  0  0  0  0  0  0  0  0  0
  1  2  1  0  0  0  0
  2  3  1  0  0  0  0
  3  4  1  0  0  0  0
  4  5  1  0  0  0  0
  5  6  1  0  0  0  0
  6  7  1  0  0  0  0
  7  8  1  0  0  0  0
  8  9  1  0  0  0  0
  9 10  1  0  0  0  0
 10 11  1  0  0  0  0
 11 12  1  0  0  0  0
 12 13  1  0  0  0  0
 13 14  1  0  0  0  0
M  END
>  <CHROM.1>
63.45814856,175.68121603,-174.61192233,148.75079834,-177.65130908,65.71217590
-69.84899895,-128.31984430,80.60999808,-64.81452844,178.59368025,51.44745072
1.22425036,-2.73142246,-2.80041060,0.83527352,1.77246586

>  <Name>
ligand

>  <RI>
0

>  <Rbt.Current_Directory>
/home/itssahil/PROJECTS/Mol_Feturizer/New_Systems/rnas/4E8Q

>  <Rbt.Executable>
rbdock ($Id: //depot/dev/client3/rdock/2013.1/src/exe/rbdock.cxx#4 $)

>  <Rbt.Library>
libRbt.so (2013.1, Build901 2013/11/27)

>  <Rbt.Parameter_File>
/export/apps/rDock/src/rDock_2013.1_src/data/scripts/dock_solv.prm

>  <Rbt.Receptor>
prm/pocket_docking_4.prm

>  <SCORE>
-11.8944

>  <SCORE.INTER>
-0.878211

>  <SCORE.INTER.CONST>
1

>  <SCORE.INTER.POLAR>
0

>  <SCORE.INTER.ROT>
11

>  <SCORE.INTER.SOLV>
9.35364

>  <SCORE.INTER.VDW>
-14.6367

>  <SCORE.INTER.norm>
-0.0627294

>  <SCORE.INTRA>
-11.0162

>  <SCORE.INTRA.DIHEDRAL>
-23.0715

>  <SCORE.INTRA.DIHEDRAL.0>
25.9209

>  <SCORE.INTRA.POLAR>
0

>  <SCORE.INTRA.POLAR.0>
0

>  <SCORE.INTRA.REPUL>
0

>  <SCORE.INTRA.REPUL.0>
0

>  <SCORE.INTRA.SOLV>
-0.152921

>  <SCORE.INTRA.SOLV.lig_0>
-47.4815

>  <SCORE.INTRA.VDW>
0.596041

>  <SCORE.INTRA.VDW.0>
-1.57492

>  <SCORE.INTRA.norm>
-0.786871

>  <SCORE.RESTR>
0

>  <SCORE.RESTR.CAVITY>
0

>  <SCORE.RESTR.norm>
0

>  <SCORE.SYSTEM>
0

>  <SCORE.SYSTEM.CONST>
0

>  <SCORE.SYSTEM.DIHEDRAL>
0

>  <SCORE.SYSTEM.SOLV>
0

>  <SCORE.SYSTEM.norm>
0

>  <SCORE.heavy>
14

>  <SCORE.norm>
-0.8496

>  <RMSD>
4.220

$$$$
ligand
 OpenBabel11021811493D
libRbt.so/2013.1/901 2013/11/27
 14 13  0  0  0  0  0  0  0  0999 V2000
   47.4916   -0.9744   -5.2927 N   0  0  0  0  0  0  0  0  0  0  0  0
   48.6742   -1.8095   -5.4640 C   0  0  0  0  0  0  0  0  0  0  0  0
   49.9401   -1.0809   -4.9648 C   0  0  0  0  0  0  0  0  0  0  0  0
   49.9925   -0.8555   -3.4407 C   0  0  0  0  0  0  0  0  0  0  0  0
   51.1650   -0.1655   -2.8823 N   0  0  0  0  0  0  0  0  0  0  0  0
   51.1960    0.2569   -1.4775 C   0  0  0  0  0  0  0  0  0  0  0  0
   51.8586    1.6135   -1.2209 C   0  0  0  0  0  0  0  0  0  0  0  0
   51.9178    1.9753    0.2729 C   0  0  0  0  0  0  0  0  0  0  0  0
   52.6512    3.2938    0.5665 C   0  0  0  0  0  0  0  0  0  0  0  0
   54.0483    3.3285    0.1279 N   0  0  0  0  0  0  0  0  0  0  0  0
   54.5261    4.4697   -0.6721 C   0  0  0  0  0  0  0  0  0  0  0  0
   53.9275    4.6307   -2.0896 C   0  0  0  0  0  0  0  0  0  0  0  0
   54.1589    3.4503   -3.0545 C   0  0  0  0  0  0  0  0  0  0  0  0
   53.6331    3.6959   -4.3942 N   0  0  0  0  0  0  0  0  0  0  0  0
  1  2  1  0  0  0  0
  2  3  1  0  0  0  0
  3  4  1  0  0  0  0
  4  5  1  0  0  0  0
  5  6  1  0  0  0  0
  6  7  1  0  0  0  0
  7  8  1  0  0  0  0
  8  9  1  0  0  0  0
  9 10  1  0  0  0  0
 10 11  1  0  0  0  0
 11 12  1  0  0  0  0
 12 13  1  0  0  0  0
 13 14  1  0  0  0  0
M  END
>  <CHROM.1>
67.78602452,-179.89666550,170.99780058,-141.28546482,-177.45655636,176.62040505
-59.76182036,130.14893449,-66.15846510,-59.97204616,-176.86956410,51.79871086
1.55922332,-2.42730326,-2.66484145,0.81539303,1.60193141

>  <Name>
ligand

>  <RI>
0

>  <Rbt.Current_Directory>
/home/itssahil/PROJECTS/Mol_Feturizer/New_Systems/rnas/4E8Q

>  <Rbt.Executable>
rbdock ($Id: //depot/dev/client3/rdock/2013.1/src/exe/rbdock.cxx#4 $)

>  <Rbt.Library>
libRbt.so (2013.1, Build901 2013/11/27)

>  <Rbt.Parameter_File>
/export/apps/rDock/src/rDock_2013.1_src/data/scripts/dock_solv.prm

>  <Rbt.Receptor>
prm/pocket_docking_4.prm

>  <SCORE>
-9.47771

>  <SCORE.INTER>
2.42848

>  <SCORE.INTER.CONST>
1

>  <SCORE.INTER.POLAR>
0

>  <SCORE.INTER.ROT>
11

>  <SCORE.INTER.SOLV>
12.9332

>  <SCORE.INTER.VDW>
-13.6254

>  <SCORE.INTER.norm>
0.173463

>  <SCORE.INTRA>
-11.9062

>  <SCORE.INTRA.DIHEDRAL>
-23.5073

>  <SCORE.INTRA.DIHEDRAL.0>
25.9209

>  <SCORE.INTRA.POLAR>
0

>  <SCORE.INTRA.POLAR.0>
0

>  <SCORE.INTRA.REPUL>
0

>  <SCORE.INTRA.REPUL.0>
0

>  <SCORE.INTRA.SOLV>
-0.398654

>  <SCORE.INTRA.SOLV.lig_0>
-47.4815

>  <SCORE.INTRA.VDW>
0.0467696

>  <SCORE.INTRA.VDW.0>
-1.57492

>  <SCORE.INTRA.norm>
-0.850442

>  <SCORE.RESTR>
0

>  <SCORE.RESTR.CAVITY>
0

>  <SCORE.RESTR.norm>
0

>  <SCORE.SYSTEM>
0

>  <SCORE.SYSTEM.CONST>
0

>  <SCORE.SYSTEM.DIHEDRAL>
0

>  <SCORE.SYSTEM.SOLV>
0

>  <SCORE.SYSTEM.norm>
0

>  <SCORE.heavy>
14

>  <SCORE.norm>
-0.676979

>  <RMSD>
4.223

$$$$
ligand
 OpenBabel11021811493D
libRbt.so/2013.1/901 2013/11/27
 14 13  0  0  0  0  0  0  0  0999 V2000
   49.9663    0.8432   -7.3837 N   0  0  0  0  0  0  0  0  0  0  0  0
   49.9059   -0.1874   -6.3544 C   0  0  0  0  0  0  0  0  0  0  0  0
   49.1146    0.3077   -5.1251 C   0  0  0  0  0  0  0  0  0  0  0  0
   49.0432   -0.6986   -3.9593 C   0  0  0  0  0  0  0  0  0  0  0  0
   50.3068   -1.1711   -3.3737 N   0  0  0  0  0  0  0  0  0  0  0  0
   51.2486   -0.2343   -2.7508 C   0  0  0  0  0  0  0  0  0  0  0  0
   50.9215    0.1518   -1.3053 C   0  0  0  0  0  0  0  0  0  0  0  0
   52.0125    1.0222   -0.6589 C   0  0  0  0  0  0  0  0  0  0  0  0
   52.2384    2.3672   -1.3678 C   0  0  0  0  0  0  0  0  0  0  0  0
   53.3192    3.1813   -0.8070 N   0  0  0  0  0  0  0  0  0  0  0  0
   54.0305    4.1351   -1.6758 C   0  0  0  0  0  0  0  0  0  0  0  0
   55.2948    4.8074   -1.0903 C   0  0  0  0  0  0  0  0  0  0  0  0
   55.9815    5.8501   -1.9954 C   0  0  0  0  0  0  0  0  0  0  0  0
   55.1293    6.9974   -2.2936 N   0  0  0  0  0  0  0  0  0  0  0  0
  1  2  1  0  0  0  0
  2  3  1  0  0  0  0
  3  4  1  0  0  0  0
  4  5  1  0  0  0  0
  5  6  1  0  0  0  0
  6  7  1  0  0  0  0
  7  8  1  0  0  0  0
  8  9  1  0  0  0  0
  9 10  1  0  0  0  0
 10 11  1  0  0  0  0
 11 12  1  0  0  0  0
 12 13  1  0  0  0  0
 13 14  1  0  0  0  0
M  END
>  <CHROM.1>
-177.78308775,58.19010896,60.84921116,82.03330192,174.31255631,61.40002050
-177.10480450,152.83492414,-170.98696645,-177.22711489,62.44000723,52.03658779
1.95495298,-2.86698563,-3.03190121,0.88783262,1.96769094

>  <Name>
ligand

>  <RI>
0

>  <Rbt.Current_Directory>
/home/itssahil/PROJECTS/Mol_Feturizer/New_Systems/rnas/4E8Q

>  <Rbt.Executable>
rbdock ($Id: //depot/dev/client3/rdock/2013.1/src/exe/rbdock.cxx#4 $)

>  <Rbt.Library>
libRbt.so (2013.1, Build901 2013/11/27)

>  <Rbt.Parameter_File>
/export/apps/rDock/src/rDock_2013.1_src/data/scripts/dock_solv.prm

>  <Rbt.Receptor>
prm/pocket_docking_8.prm

>  <SCORE>
-11.8389

>  <SCORE.INTER>
-0.0157254

>  <SCORE.INTER.CONST>
1

>  <SCORE.INTER.POLAR>
0

>  <SCORE.INTER.ROT>
11

>  <SCORE.INTER.SOLV>
7.89204

>  <SCORE.INTER.VDW>
-13.5745

>  <SCORE.INTER.norm>
-0.00112324

>  <SCORE.INTRA>
-11.8232

>  <SCORE.INTRA.DIHEDRAL>
-24.7427

>  <SCORE.INTRA.DIHEDRAL.0>
25.9209

>  <SCORE.INTRA.POLAR>
0

>  <SCORE.INTRA.POLAR.0>
0

>  <SCORE.INTRA.REPUL>
0

>  <SCORE.INTRA.REPUL.0>
0

>  <SCORE.INTRA.SOLV>
-0.962138

>  <SCORE.INTRA.SOLV.lig_0>
-47.4815

>  <SCORE.INTRA.VDW>
1.02922

>  <SCORE.INTRA.VDW.0>
-1.57492

>  <SCORE.INTRA.norm>
-0.844515

>  <SCORE.RESTR>
0

>  <SCORE.RESTR.CAVITY>
0

>  <SCORE.RESTR.norm>
0

>  <SCORE.SYSTEM>
0

>  <SCORE.SYSTEM.CONST>
0

>  <SCORE.SYSTEM.DIHEDRAL>
0

>  <SCORE.SYSTEM.SOLV>
0

>  <SCORE.SYSTEM.norm>
0

>  <SCORE.heavy>
14

>  <SCORE.norm>
-0.845638

>  <RMSD>
4.241

$$$$
ligand
 OpenBabel11021811493D
libRbt.so/2013.1/901 2013/11/27
 14 13  0  0  0  0  0  0  0  0999 V2000
   49.9242   -0.1286   -6.8957 N   0  0  0  0  0  0  0  0  0  0  0  0
   50.6107   -0.3472   -5.6284 C   0  0  0  0  0  0  0  0  0  0  0  0
   49.6194   -0.8021   -4.5362 C   0  0  0  0  0  0  0  0  0  0  0  0
   50.2288   -0.9221   -3.1252 C   0  0  0  0  0  0  0  0  0  0  0  0
   50.7842    0.2902   -2.5050 N   0  0  0  0  0  0  0  0  0  0  0  0
   51.3068    0.2670   -1.1343 C   0  0  0  0  0  0  0  0  0  0  0  0
   51.4907    1.6418   -0.4851 C   0  0  0  0  0  0  0  0  0  0  0  0
   52.4051    2.5699   -1.3026 C   0  0  0  0  0  0  0  0  0  0  0  0
   52.6997    3.9148   -0.6192 C   0  0  0  0  0  0  0  0  0  0  0  0
   53.6516    4.7691   -1.3330 N   0  0  0  0  0  0  0  0  0  0  0  0
   55.0596    4.3488   -1.4404 C   0  0  0  0  0  0  0  0  0  0  0  0
   56.1248    5.4704   -1.4716 C   0  0  0  0  0  0  0  0  0  0  0  0
   56.1021    6.3839   -2.7138 C   0  0  0  0  0  0  0  0  0  0  0  0
   54.8946    7.1999   -2.8010 N   0  0  0  0  0  0  0  0  0  0  0  0
  1  2  1  0  0  0  0
  2  3  1  0  0  0  0
  3  4  1  0  0  0  0
  4  5  1  0  0  0  0
  5  6  1  0  0  0  0
  6  7  1  0  0  0  0
  7  8  1  0  0  0  0
  8  9  1  0  0  0  0
  9 10  1  0  0  0  0
 10 11  1  0  0  0  0
 11 12  1  0  0  0  0
 12 13  1  0  0  0  0
 13 14  1  0  0  0  0
M  END
>  <CHROM.1>
-174.15849008,61.44260655,176.30852454,-163.86679443,-56.63078291,-175.29021476
175.44773574,-67.43361724,-147.87453844,-66.38871621,66.25844347,52.49309283
2.47518755,-2.57050305,-2.87142020,0.90242738,1.61780943

>  <Name>
ligand

>  <RI>
0

>  <Rbt.Current_Directory>
/home/itssahil/PROJECTS/Mol_Feturizer/New_Systems/rnas/4E8Q

>  <Rbt.Executable>
rbdock ($Id: //depot/dev/client3/rdock/2013.1/src/exe/rbdock.cxx#4 $)

>  <Rbt.Library>
libRbt.so (2013.1, Build901 2013/11/27)

>  <Rbt.Parameter_File>
/export/apps/rDock/src/rDock_2013.1_src/data/scripts/dock_solv.prm

>  <Rbt.Receptor>
prm/pocket_docking_8.prm

>  <SCORE>
-11.7223

>  <SCORE.INTER>
-0.45927

>  <SCORE.INTER.CONST>
1

>  <SCORE.INTER.POLAR>
0

>  <SCORE.INTER.ROT>
11

>  <SCORE.INTER.SOLV>
6.89678

>  <SCORE.INTER.VDW>
-13.5384

>  <SCORE.INTER.norm>
-0.032805

>  <SCORE.INTRA>
-11.2631

>  <SCORE.INTRA.DIHEDRAL>
-24.3473

>  <SCORE.INTRA.DIHEDRAL.0>
25.9209

>  <SCORE.INTRA.POLAR>
0

>  <SCORE.INTRA.POLAR.0>
0

>  <SCORE.INTRA.REPUL>
0

>  <SCORE.INTRA.REPUL.0>
0

>  <SCORE.INTRA.SOLV>
0.925393

>  <SCORE.INTRA.SOLV.lig_0>
-47.4815

>  <SCORE.INTRA.VDW>
0.447905

>  <SCORE.INTRA.VDW.0>
-1.57492

>  <SCORE.INTRA.norm>
-0.804504

>  <SCORE.RESTR>
0

>  <SCORE.RESTR.CAVITY>
0

>  <SCORE.RESTR.norm>
0

>  <SCORE.SYSTEM>
0

>  <SCORE.SYSTEM.CONST>
0

>  <SCORE.SYSTEM.DIHEDRAL>
0

>  <SCORE.SYSTEM.SOLV>
0

>  <SCORE.SYSTEM.norm>
0

>  <SCORE.heavy>
14

>  <SCORE.norm>
-0.837309

>  <RMSD>
4.262

$$$$
ligand
 OpenBabel11021811493D
libRbt.so/2013.1/901 2013/11/27
 14 13  0  0  0  0  0  0  0  0999 V2000
   53.5270    4.8900    0.3606 N   0  0  0  0  0  0  0  0  0  0  0  0
   52.9264    4.3101    1.5557 C   0  0  0  0  0  0  0  0  0  0  0  0
   52.4385    2.8711    1.2842 C   0  0  0  0  0  0  0  0  0  0  0  0
   51.3010    2.7631    0.2493 C   0  0  0  0  0  0  0  0  0  0  0  0
   50.7795    1.4255   -0.0698 N   0  0  0  0  0  0  0  0  0  0  0  0
   51.6186    0.4272   -0.7420 C   0  0  0  0  0  0  0  0  0  0  0  0
   51.9694    0.7470   -2.1981 C   0  0  0  0  0  0  0  0  0  0  0  0
   50.7740    0.5766   -3.1509 C   0  0  0  0  0  0  0  0  0  0  0  0
   50.2267   -0.8583   -3.2140 C   0  0  0  0  0  0  0  0  0  0  0  0
   49.1074   -1.0468   -4.1399 N   0  0  0  0  0  0  0  0  0  0  0  0
   49.3773   -1.4915   -5.5183 C   0  0  0  0  0  0  0  0  0  0  0  0
   50.2318   -0.5525   -6.4024 C   0  0  0  0  0  0  0  0  0  0  0  0
   49.6792    0.8739   -6.5971 C   0  0  0  0  0  0  0  0  0  0  0  0
   50.5119    1.6949   -7.4712 N   0  0  0  0  0  0  0  0  0  0  0  0
  1  2  1  0  0  0  0
  2  3  1  0  0  0  0
  3  4  1  0  0  0  0
  4  5  1  0  0  0  0
  5  6  1  0  0  0  0
  6  7  1  0  0  0  0
  7  8  1  0  0  0  0
  8  9  1  0  0  0  0
  9 10  1  0  0  0  0
 10 11  1  0  0  0  0
 11 12  1  0  0  0  0
 12 13  1  0  0  0  0
 13 14  1  0  0  0  0
M  END
>  <CHROM.1>
-64.38496977,179.86797544,-65.82445823,-68.55558562,-72.57260797,-62.06721967
-178.65049102,93.61754864,-62.33116609,-58.12272386,-178.33806271,51.03349007
1.18764185,-2.57516541,-0.73471002,-1.11478275,-1.27805660

>  <Name>
ligand

>  <RI>
0

>  <Rbt.Current_Directory>
/home/itssahil/PROJECTS/Mol_Feturizer/New_Systems/rnas/4E8Q

>  <Rbt.Executable>
rbdock ($Id: //depot/dev/client3/rdock/2013.1/src/exe/rbdock.cxx#4 $)

>  <Rbt.Library>
libRbt.so (2013.1, Build901 2013/11/27)

>  <Rbt.Parameter_File>
/export/apps/rDock/src/rDock_2013.1_src/data/scripts/dock_solv.prm

>  <Rbt.Receptor>
prm/pocket_docking_3.prm

>  <SCORE>
-9.59983

>  <SCORE.INTER>
1.5995

>  <SCORE.INTER.CONST>
1

>  <SCORE.INTER.POLAR>
0

>  <SCORE.INTER.ROT>
11

>  <SCORE.INTER.SOLV>
7.81697

>  <SCORE.INTER.VDW>
-12.4727

>  <SCORE.INTER.norm>
0.11425

>  <SCORE.INTRA>
-11.1993

>  <SCORE.INTRA.DIHEDRAL>
-24.4188

>  <SCORE.INTRA.DIHEDRAL.0>
25.9209

>  <SCORE.INTRA.POLAR>
0

>  <SCORE.INTRA.POLAR.0>
0

>  <SCORE.INTRA.REPUL>
0

>  <SCORE.INTRA.REPUL.0>
0

>  <SCORE.INTRA.SOLV>
-0.327415

>  <SCORE.INTRA.SOLV.lig_0>
-47.4815

>  <SCORE.INTRA.VDW>
1.17377

>  <SCORE.INTRA.VDW.0>
-1.57492

>  <SCORE.INTRA.norm>
-0.799952

>  <SCORE.RESTR>
0

>  <SCORE.RESTR.CAVITY>
0

>  <SCORE.RESTR.norm>
0

>  <SCORE.SYSTEM>
0

>  <SCORE.SYSTEM.CONST>
0

>  <SCORE.SYSTEM.DIHEDRAL>
0

>  <SCORE.SYSTEM.SOLV>
0

>  <SCORE.SYSTEM.norm>
0

>  <SCORE.heavy>
14

>  <SCORE.norm>
-0.685702

>  <RMSD>
4.310

$$$$
ligand
 OpenBabel11021811493D
libRbt.so/2013.1/901 2013/11/27
 14 13  0  0  0  0  0  0  0  0999 V2000
   54.4899    4.0083    4.0279 N   0  0  0  0  0  0  0  0  0  0  0  0
   53.8519    4.1402    2.7238 C   0  0  0  0  0  0  0  0  0  0  0  0
   53.4831    2.7562    2.1486 C   0  0  0  0  0  0  0  0  0  0  0  0
   52.7939    2.7964    0.7701 C   0  0  0  0  0  0  0  0  0  0  0  0
   52.3813    1.5214    0.1644 N   0  0  0  0  0  0  0  0  0  0  0  0
   51.8999    1.4627   -1.2203 C   0  0  0  0  0  0  0  0  0  0  0  0
   51.2343    0.1433   -1.6220 C   0  0  0  0  0  0  0  0  0  0  0  0
   50.7945    0.1216   -3.0958 C   0  0  0  0  0  0  0  0  0  0  0  0
   49.9045   -1.0765   -3.4632 C   0  0  0  0  0  0  0  0  0  0  0  0
   49.4033   -1.0679   -4.8395 N   0  0  0  0  0  0  0  0  0  0  0  0
   48.4109   -2.0752   -5.2531 C   0  0  0  0  0  0  0  0  0  0  0  0
   47.6206   -1.7878   -6.5517 C   0  0  0  0  0  0  0  0  0  0  0  0
   48.4639   -1.6571   -7.8361 C   0  0  0  0  0  0  0  0  0  0  0  0
   47.6600   -1.3716   -9.0209 N   0  0  0  0  0  0  0  0  0  0  0  0
  1  2  1  0  0  0  0
  2  3  1  0  0  0  0
  3  4  1  0  0  0  0
  4  5  1  0  0  0  0
  5  6  1  0  0  0  0
  6  7  1  0  0  0  0
  7  8  1  0  0  0  0
  8  9  1  0  0  0  0
  9 10  1  0  0  0  0
 10 11  1  0  0  0  0
 11 12  1  0  0  0  0
 12 13  1  0  0  0  0
 13 14  1  0  0  0  0
M  END
>  <CHROM.1>
179.67910370,-178.62911254,-171.05745628,-167.71405773,-177.99034508,-169.58692684
176.16466357,-172.56842530,162.86023439,60.95686005,-179.35551435,50.88510804
0.56519229,-2.36196227,-0.38881941,-1.05599422,-0.92541991

>  <Name>
ligand

>  <RI>
0

>  <Rbt.Current_Directory>
/home/itssahil/PROJECTS/Mol_Feturizer/New_Systems/rnas/4E8Q

>  <Rbt.Executable>
rbdock ($Id: //depot/dev/client3/rdock/2013.1/src/exe/rbdock.cxx#4 $)

>  <Rbt.Library>
libRbt.so (2013.1, Build901 2013/11/27)

>  <Rbt.Parameter_File>
/export/apps/rDock/src/rDock_2013.1_src/data/scripts/dock_solv.prm

>  <Rbt.Receptor>
prm/pocket_docking_6.prm

>  <SCORE>
-12.6448

>  <SCORE.INTER>
0.412985

>  <SCORE.INTER.CONST>
1

>  <SCORE.INTER.POLAR>
0

>  <SCORE.INTER.ROT>
11

>  <SCORE.INTER.SOLV>
7.67468

>  <SCORE.INTER.VDW>
-13.2162

>  <SCORE.INTER.norm>
0.0294989

>  <SCORE.INTRA>
-13.0577

>  <SCORE.INTRA.DIHEDRAL>
-24.9388

>  <SCORE.INTRA.DIHEDRAL.0>
25.9209

>  <SCORE.INTRA.POLAR>
0

>  <SCORE.INTRA.POLAR.0>
0

>  <SCORE.INTRA.REPUL>
0

>  <SCORE.INTRA.REPUL.0>
0

>  <SCORE.INTRA.SOLV>
-1.82434

>  <SCORE.INTRA.SOLV.lig_0>
-47.4815

>  <SCORE.INTRA.VDW>
0.323825

>  <SCORE.INTRA.VDW.0>
-1.57492

>  <SCORE.INTRA.norm>
-0.932695

>  <SCORE.RESTR>
0

>  <SCORE.RESTR.CAVITY>
0

>  <SCORE.RESTR.norm>
0

>  <SCORE.SYSTEM>
0

>  <SCORE.SYSTEM.CONST>
0

>  <SCORE.SYSTEM.DIHEDRAL>
0

>  <SCORE.SYSTEM.SOLV>
0

>  <SCORE.SYSTEM.norm>
0

>  <SCORE.heavy>
14

>  <SCORE.norm>
-0.903197

>  <RMSD>
4.347

$$$$
ligand
 OpenBabel11021811493D
libRbt.so/2013.1/901 2013/11/27
 14 13  0  0  0  0  0  0  0  0999 V2000
   51.0633    3.8063    4.4183 N   0  0  0  0  0  0  0  0  0  0  0  0
   52.1487    4.0921    3.4880 C   0  0  0  0  0  0  0  0  0  0  0  0
   52.2176    3.0230    2.3768 C   0  0  0  0  0  0  0  0  0  0  0  0
   50.9740    2.9604    1.4677 C   0  0  0  0  0  0  0  0  0  0  0  0
   50.9894    2.0208    0.3365 N   0  0  0  0  0  0  0  0  0  0  0  0
   51.8924    2.2228   -0.8021 C   0  0  0  0  0  0  0  0  0  0  0  0
   51.4260    1.5987   -2.1206 C   0  0  0  0  0  0  0  0  0  0  0  0
   51.2940    0.0682   -2.0422 C   0  0  0  0  0  0  0  0  0  0  0  0
   50.6269   -0.5639   -3.2742 C   0  0  0  0  0  0  0  0  0  0  0  0
   51.1706   -0.1208   -4.5601 N   0  0  0  0  0  0  0  0  0  0  0  0
   50.5049   -0.5356   -5.8073 C   0  0  0  0  0  0  0  0  0  0  0  0
   50.6853    0.3853   -7.0372 C   0  0  0  0  0  0  0  0  0  0  0  0
   52.1274    0.5260   -7.5652 C   0  0  0  0  0  0  0  0  0  0  0  0
   52.2335    1.4365   -8.7016 N   0  0  0  0  0  0  0  0  0  0  0  0
  1  2  1  0  0  0  0
  2  3  1  0  0  0  0
  3  4  1  0  0  0  0
  4  5  1  0  0  0  0
  5  6  1  0  0  0  0
  6  7  1  0  0  0  0
  7  8  1  0  0  0  0
  8  9  1  0  0  0  0
  9 10  1  0  0  0  0
 10 11  1  0  0  0  0
 11 12  1  0  0  0  0
 12 13  1  0  0  0  0
 13 14  1  0  0  0  0
M  END
>  <CHROM.1>
63.35084792,176.61937164,-67.66920947,-154.55180819,-61.82948366,171.18300191
48.76906633,-172.76037410,154.14717746,63.70505216,-178.39440918,51.38242303
1.49415700,-2.13021990,-1.53558183,-1.06620800,-1.84129383

>  <Name>
ligand

>  <RI>
0

>  <Rbt.Current_Directory>
/home/itssahil/PROJECTS/Mol_Feturizer/New_Systems/rnas/4E8Q

>  <Rbt.Executable>
rbdock ($Id: //depot/dev/client3/rdock/2013.1/src/exe/rbdock.cxx#4 $)

>  <Rbt.Library>
libRbt.so (2013.1, Build901 2013/11/27)

>  <Rbt.Parameter_File>
/export/apps/rDock/src/rDock_2013.1_src/data/scripts/dock_solv.prm

>  <Rbt.Receptor>
prm/pocket_docking_6.prm

>  <SCORE>
-10.7383

>  <SCORE.INTER>
0.858358

>  <SCORE.INTER.CONST>
1

>  <SCORE.INTER.POLAR>
0

>  <SCORE.INTER.ROT>
11

>  <SCORE.INTER.SOLV>
9.11489

>  <SCORE.INTER.VDW>
-13.3994

>  <SCORE.INTER.norm>
0.0613113

>  <SCORE.INTRA>
-11.5967

>  <SCORE.INTRA.DIHEDRAL>
-23.9579

>  <SCORE.INTRA.DIHEDRAL.0>
25.9209

>  <SCORE.INTRA.POLAR>
0

>  <SCORE.INTRA.POLAR.0>
0

>  <SCORE.INTRA.REPUL>
0

>  <SCORE.INTRA.REPUL.0>
0

>  <SCORE.INTRA.SOLV>
-0.359912

>  <SCORE.INTRA.SOLV.lig_0>
-47.4815

>  <SCORE.INTRA.VDW>
0.562213

>  <SCORE.INTRA.VDW.0>
-1.57492

>  <SCORE.INTRA.norm>
-0.828335

>  <SCORE.RESTR>
0

>  <SCORE.RESTR.CAVITY>
0

>  <SCORE.RESTR.norm>
0

>  <SCORE.SYSTEM>
0

>  <SCORE.SYSTEM.CONST>
0

>  <SCORE.SYSTEM.DIHEDRAL>
0

>  <SCORE.SYSTEM.SOLV>
0

>  <SCORE.SYSTEM.norm>
0

>  <SCORE.heavy>
14

>  <SCORE.norm>
-0.767023

>  <RMSD>
4.359

$$$$
ligand
 OpenBabel11021811493D
libRbt.so/2013.1/901 2013/11/27
 14 13  0  0  0  0  0  0  0  0999 V2000
   53.8097    2.9495    2.5971 N   0  0  0  0  0  0  0  0  0  0  0  0
   52.6134    2.7583    1.7864 C   0  0  0  0  0  0  0  0  0  0  0  0
   52.9710    2.1584    0.4098 C   0  0  0  0  0  0  0  0  0  0  0  0
   51.7620    1.8955   -0.5099 C   0  0  0  0  0  0  0  0  0  0  0  0
   52.0037    1.2291   -1.7984 N   0  0  0  0  0  0  0  0  0  0  0  0
   51.0561    0.2428   -2.3293 C   0  0  0  0  0  0  0  0  0  0  0  0
   51.4997   -0.4576   -3.6170 C   0  0  0  0  0  0  0  0  0  0  0  0
   50.4451   -0.3763   -4.7337 C   0  0  0  0  0  0  0  0  0  0  0  0
   50.2600    1.0346   -5.3149 C   0  0  0  0  0  0  0  0  0  0  0  0
   49.4847    1.9475   -4.4718 N   0  0  0  0  0  0  0  0  0  0  0  0
   50.1868    2.8112   -3.5065 C   0  0  0  0  0  0  0  0  0  0  0  0
   49.9086    4.3305   -3.5946 C   0  0  0  0  0  0  0  0  0  0  0  0
   50.2923    5.0075   -4.9259 C   0  0  0  0  0  0  0  0  0  0  0  0
   49.6150    4.4236   -6.0800 N   0  0  0  0  0  0  0  0  0  0  0  0
  1  2  1  0  0  0  0
  2  3  1  0  0  0  0
  3  4  1  0  0  0  0
  4  5  1  0  0  0  0
  5  6  1  0  0  0  0
  6  7  1  0  0  0  0
  7  8  1  0  0  0  0
  8  9  1  0  0  0  0
  9 10  1  0  0  0  0
 10 11  1  0  0  0  0
 11 12  1  0  0  0  0
 12 13  1  0  0  0  0
 13 14  1  0  0  0  0
M  END
>  <CHROM.1>
178.91332236,-175.36765811,141.81992748,-174.81621755,-127.26724850,69.57675770
-76.64776549,92.02109173,125.61671949,-61.18926805,58.33551527,51.13624693
2.13941883,-2.57782020,0.19751197,-1.12185361,0.25784776

>  <Name>
ligand

>  <RI>
0

>  <Rbt.Current_Directory>
/home/itssahil/PROJECTS/Mol_Feturizer/New_Systems/rnas/4E8Q

>  <Rbt.Executable>
rbdock ($Id: //depot/dev/client3/rdock/2013.1/src/exe/rbdock.cxx#4 $)

>  <Rbt.Library>
libRbt.so (2013.1, Build901 2013/11/27)

>  <Rbt.Parameter_File>
/export/apps/rDock/src/rDock_2013.1_src/data/scripts/dock_solv.prm

>  <Rbt.Receptor>
prm/pocket_docking_2.prm

>  <SCORE>
1.94257

>  <SCORE.INTER>
3.71079

>  <SCORE.INTER.CONST>
1

>  <SCORE.INTER.POLAR>
0

>  <SCORE.INTER.ROT>
11

>  <SCORE.INTER.SOLV>
5.78561

>  <SCORE.INTER.VDW>
-10.388

>  <SCORE.INTER.norm>
0.265056

>  <SCORE.INTRA>
-5.21218

>  <SCORE.INTRA.DIHEDRAL>
-16.4279

>  <SCORE.INTRA.DIHEDRAL.0>
25.9209

>  <SCORE.INTRA.POLAR>
0

>  <SCORE.INTRA.POLAR.0>
0

>  <SCORE.INTRA.REPUL>
0

>  <SCORE.INTRA.REPUL.0>
0

>  <SCORE.INTRA.SOLV>
3.50792

>  <SCORE.INTRA.SOLV.lig_0>
-47.4815

>  <SCORE.INTRA.VDW>
1.24782

>  <SCORE.INTRA.VDW.0>
-1.57492

>  <SCORE.INTRA.norm>
-0.372299

>  <SCORE.RESTR>
3.44396

>  <SCORE.RESTR.CAVITY>
3.44396

>  <SCORE.RESTR.norm>
0.245997

>  <SCORE.SYSTEM>
0

>  <SCORE.SYSTEM.CONST>
0

>  <SCORE.SYSTEM.DIHEDRAL>
0

>  <SCORE.SYSTEM.SOLV>
0

>  <SCORE.SYSTEM.norm>
0

>  <SCORE.heavy>
14

>  <SCORE.norm>
0.138755

>  <RMSD>
4.385

$$$$
ligand
 OpenBabel11021811493D
libRbt.so/2013.1/901 2013/11/27
 14 13  0  0  0  0  0  0  0  0999 V2000
   51.7398    2.8858   -7.4686 N   0  0  0  0  0  0  0  0  0  0  0  0
   52.7371    1.8420   -7.2659 C   0  0  0  0  0  0  0  0  0  0  0  0
   52.1787    0.4609   -7.6702 C   0  0  0  0  0  0  0  0  0  0  0  0
   50.9956   -0.0298   -6.8122 C   0  0  0  0  0  0  0  0  0  0  0  0
   51.2106   -0.1983   -5.3672 N   0  0  0  0  0  0  0  0  0  0  0  0
   50.0874   -0.4639   -4.4614 C   0  0  0  0  0  0  0  0  0  0  0  0
   50.4760   -0.7282   -3.0038 C   0  0  0  0  0  0  0  0  0  0  0  0
   51.2138    0.4574   -2.3589 C   0  0  0  0  0  0  0  0  0  0  0  0
   51.5061    0.2699   -0.8615 C   0  0  0  0  0  0  0  0  0  0  0  0
   52.1306    1.4236   -0.2101 N   0  0  0  0  0  0  0  0  0  0  0  0
   51.3023    2.5897    0.1428 C   0  0  0  0  0  0  0  0  0  0  0  0
   51.2507    2.9855    1.6375 C   0  0  0  0  0  0  0  0  0  0  0  0
   52.6020    3.3575    2.2808 C   0  0  0  0  0  0  0  0  0  0  0  0
   52.4819    3.7296    3.6874 N   0  0  0  0  0  0  0  0  0  0  0  0
  1  2  1  0  0  0  0
  2  3  1  0  0  0  0
  3  4  1  0  0  0  0
  4  5  1  0  0  0  0
  5  6  1  0  0  0  0
  6  7  1  0  0  0  0
  7  8  1  0  0  0  0
  8  9  1  0  0  0  0
  9 10  1  0  0  0  0
 10 11  1  0  0  0  0
 11 12  1  0  0  0  0
 12 13  1  0  0  0  0
 13 14  1  0  0  0  0
M  END
>  <CHROM.1>
-64.29209197,-59.75265876,170.68094433,175.27925115,60.37609913,174.88229286
-176.23251318,77.21609083,120.55558172,60.19361165,179.59220477,51.56505697
1.32700276,-2.69523771,-1.67714414,1.11725239,1.42983574

>  <Name>
ligand

>  <RI>
0

>  <Rbt.Current_Directory>
/home/itssahil/PROJECTS/Mol_Feturizer/New_Systems/rnas/4E8Q

>  <Rbt.Executable>
rbdock ($Id: //depot/dev/client3/rdock/2013.1/src/exe/rbdock.cxx#4 $)

>  <Rbt.Library>
libRbt.so (2013.1, Build901 2013/11/27)

>  <Rbt.Parameter_File>
/export/apps/rDock/src/rDock_2013.1_src/data/scripts/dock_solv.prm

>  <Rbt.Receptor>
prm/pocket_docking_4.prm

>  <SCORE>
-13.2072

>  <SCORE.INTER>
-1.58408

>  <SCORE.INTER.CONST>
1

>  <SCORE.INTER.POLAR>
0

>  <SCORE.INTER.ROT>
11

>  <SCORE.INTER.SOLV>
7.58355

>  <SCORE.INTER.VDW>
-14.5172

>  <SCORE.INTER.norm>
-0.113149

>  <SCORE.INTRA>
-11.6231

>  <SCORE.INTRA.DIHEDRAL>
-24.1715

>  <SCORE.INTRA.DIHEDRAL.0>
25.9209

>  <SCORE.INTRA.POLAR>
0

>  <SCORE.INTRA.POLAR.0>
0

>  <SCORE.INTRA.REPUL>
0

>  <SCORE.INTRA.REPUL.0>
0

>  <SCORE.INTRA.SOLV>
0.140949

>  <SCORE.INTRA.SOLV.lig_0>
-47.4815

>  <SCORE.INTRA.VDW>
0.392183

>  <SCORE.INTRA.VDW.0>
-1.57492

>  <SCORE.INTRA.norm>
-0.830222

>  <SCORE.RESTR>
0

>  <SCORE.RESTR.CAVITY>
0

>  <SCORE.RESTR.norm>
0

>  <SCORE.SYSTEM>
0

>  <SCORE.SYSTEM.CONST>
0

>  <SCORE.SYSTEM.DIHEDRAL>
0

>  <SCORE.SYSTEM.SOLV>
0

>  <SCORE.SYSTEM.norm>
0

>  <SCORE.heavy>
14

>  <SCORE.norm>
-0.94337

>  <RMSD>
4.389

$$$$
ligand
 OpenBabel11021811493D
libRbt.so/2013.1/901 2013/11/27
 14 13  0  0  0  0  0  0  0  0999 V2000
   47.8446   -3.0810   -8.6487 N   0  0  0  0  0  0  0  0  0  0  0  0
   48.7498   -2.7704   -7.5490 C   0  0  0  0  0  0  0  0  0  0  0  0
   47.9626   -2.4724   -6.2551 C   0  0  0  0  0  0  0  0  0  0  0  0
   48.8306   -2.0131   -5.0666 C   0  0  0  0  0  0  0  0  0  0  0  0
   49.5881   -0.7602   -5.2054 N   0  0  0  0  0  0  0  0  0  0  0  0
   49.9287    0.0515   -4.0317 C   0  0  0  0  0  0  0  0  0  0  0  0
   51.0772   -0.4916   -3.1765 C   0  0  0  0  0  0  0  0  0  0  0  0
   51.1347    0.1484   -1.7790 C   0  0  0  0  0  0  0  0  0  0  0  0
   51.4102    1.6605   -1.7967 C   0  0  0  0  0  0  0  0  0  0  0  0
   51.3059    2.3174   -0.4917 N   0  0  0  0  0  0  0  0  0  0  0  0
   52.5134    2.4711    0.3381 C   0  0  0  0  0  0  0  0  0  0  0  0
   52.3091    2.9823    1.7840 C   0  0  0  0  0  0  0  0  0  0  0  0
   53.5948    3.2034    2.6062 C   0  0  0  0  0  0  0  0  0  0  0  0
   54.3741    1.9822    2.7877 N   0  0  0  0  0  0  0  0  0  0  0  0
  1  2  1  0  0  0  0
  2  3  1  0  0  0  0
  3  4  1  0  0  0  0
  4  5  1  0  0  0  0
  5  6  1  0  0  0  0
  6  7  1  0  0  0  0
  7  8  1  0  0  0  0
  8  9  1  0  0  0  0
  9 10  1  0  0  0  0
 10 11  1  0  0  0  0
 11 12  1  0  0  0  0
 12 13  1  0  0  0  0
 13 14  1  0  0  0  0
M  END
>  <CHROM.1>
-174.93844681,62.23311352,152.32998655,76.02394293,-163.72169066,-63.33035288
172.83704925,92.75381785,-171.33722134,-176.95479281,-61.03312619,50.75883084
0.23063670,-2.60591700,2.24624264,0.83694846,-2.63535925

>  <Name>
ligand

>  <RI>
0

>  <Rbt.Current_Directory>
/home/itssahil/PROJECTS/Mol_Feturizer/New_Systems/rnas/4E8Q

>  <Rbt.Executable>
rbdock ($Id: //depot/dev/client3/rdock/2013.1/src/exe/rbdock.cxx#4 $)

>  <Rbt.Library>
libRbt.so (2013.1, Build901 2013/11/27)

>  <Rbt.Parameter_File>
/export/apps/rDock/src/rDock_2013.1_src/data/scripts/dock_solv.prm

>  <Rbt.Receptor>
prm/pocket_docking_8.prm

>  <SCORE>
-11.2545

>  <SCORE.INTER>
-0.18296

>  <SCORE.INTER.CONST>
1

>  <SCORE.INTER.POLAR>
0

>  <SCORE.INTER.ROT>
11

>  <SCORE.INTER.SOLV>
6.10196

>  <SCORE.INTER.VDW>
-13.0893

>  <SCORE.INTER.norm>
-0.0130686

>  <SCORE.INTRA>
-11.0716

>  <SCORE.INTRA.DIHEDRAL>
-23.1122

>  <SCORE.INTRA.DIHEDRAL.0>
25.9209

>  <SCORE.INTRA.POLAR>
0

>  <SCORE.INTRA.POLAR.0>
0

>  <SCORE.INTRA.REPUL>
0

>  <SCORE.INTRA.REPUL.0>
0

>  <SCORE.INTRA.SOLV>
-0.979484

>  <SCORE.INTRA.SOLV.lig_0>
-47.4815

>  <SCORE.INTRA.VDW>
0.974259

>  <SCORE.INTRA.VDW.0>
-1.57492

>  <SCORE.INTRA.norm>
-0.790826

>  <SCORE.RESTR>
0

>  <SCORE.RESTR.CAVITY>
0

>  <SCORE.RESTR.norm>
0

>  <SCORE.SYSTEM>
0

>  <SCORE.SYSTEM.CONST>
0

>  <SCORE.SYSTEM.DIHEDRAL>
0

>  <SCORE.SYSTEM.SOLV>
0

>  <SCORE.SYSTEM.norm>
0

>  <SCORE.heavy>
14

>  <SCORE.norm>
-0.803895

>  <RMSD>
4.405

$$$$
ligand
 OpenBabel11021811493D
libRbt.so/2013.1/901 2013/11/27
 14 13  0  0  0  0  0  0  0  0999 V2000
   52.7852    3.7640    3.6480 N   0  0  0  0  0  0  0  0  0  0  0  0
   52.7600    3.2292    2.2921 C   0  0  0  0  0  0  0  0  0  0  0  0
   51.3097    3.0838    1.7842 C   0  0  0  0  0  0  0  0  0  0  0  0
   51.1815    2.4840    0.3698 C   0  0  0  0  0  0  0  0  0  0  0  0
   51.7349    1.1420    0.1337 N   0  0  0  0  0  0  0  0  0  0  0  0
   51.1140    0.2268   -0.8303 C   0  0  0  0  0  0  0  0  0  0  0  0
   51.4989    0.4644   -2.2935 C   0  0  0  0  0  0  0  0  0  0  0  0
   50.6615   -0.3739   -3.2742 C   0  0  0  0  0  0  0  0  0  0  0  0
   51.0275   -0.1556   -4.7510 C   0  0  0  0  0  0  0  0  0  0  0  0
   50.0676   -0.7102   -5.7084 N   0  0  0  0  0  0  0  0  0  0  0  0
   50.3331   -0.5851   -7.1521 C   0  0  0  0  0  0  0  0  0  0  0  0
   50.6185    0.8367   -7.6911 C   0  0  0  0  0  0  0  0  0  0  0  0
   49.5379    1.8965   -7.3956 C   0  0  0  0  0  0  0  0  0  0  0  0
   49.8710    3.2154   -7.9259 N   0  0  0  0  0  0  0  0  0  0  0  0
  1  2  1  0  0  0  0
  2  3  1  0  0  0  0
  3  4  1  0  0  0  0
  4  5  1  0  0  0  0
  5  6  1  0  0  0  0
  6  7  1  0  0  0  0
  7  8  1  0  0  0  0
  8  9  1  0  0  0  0
  9 10  1  0  0  0  0
 10 11  1  0  0  0  0
 11 12  1  0  0  0  0
 12 13  1  0  0  0  0
 13 14  1  0  0  0  0
M  END
>  <CHROM.1>
-178.25259792,59.16064999,147.55923490,81.66539412,-171.19884902,-179.96801393
-167.38870815,-178.66356021,-53.42913563,-55.64986001,179.76137857,51.03577194
1.32251073,-2.77114887,0.26913080,-1.35760222,0.05896321

>  <Name>
ligand

>  <RI>
0

>  <Rbt.Current_Directory>
/home/itssahil/PROJECTS/Mol_Feturizer/New_Systems/rnas/4E8Q

>  <Rbt.Executable>
rbdock ($Id: //depot/dev/client3/rdock/2013.1/src/exe/rbdock.cxx#4 $)

>  <Rbt.Library>
libRbt.so (2013.1, Build901 2013/11/27)

>  <Rbt.Parameter_File>
/export/apps/rDock/src/rDock_2013.1_src/data/scripts/dock_solv.prm

>  <Rbt.Receptor>
prm/pocket_docking_4.prm

>  <SCORE>
-11.1808

>  <SCORE.INTER>
0.772907

>  <SCORE.INTER.CONST>
1

>  <SCORE.INTER.POLAR>
0

>  <SCORE.INTER.ROT>
11

>  <SCORE.INTER.SOLV>
7.33644

>  <SCORE.INTER.VDW>
-12.8635

>  <SCORE.INTER.norm>
0.0552076

>  <SCORE.INTRA>
-11.9537

>  <SCORE.INTRA.DIHEDRAL>
-23.9076

>  <SCORE.INTRA.DIHEDRAL.0>
25.9209

>  <SCORE.INTRA.POLAR>
0

>  <SCORE.INTRA.POLAR.0>
0

>  <SCORE.INTRA.REPUL>
0

>  <SCORE.INTRA.REPUL.0>
0

>  <SCORE.INTRA.SOLV>
-1.4763

>  <SCORE.INTRA.SOLV.lig_0>
-47.4815

>  <SCORE.INTRA.VDW>
0.738258

>  <SCORE.INTRA.VDW.0>
-1.57492

>  <SCORE.INTRA.norm>
-0.853836

>  <SCORE.RESTR>
0

>  <SCORE.RESTR.CAVITY>
0

>  <SCORE.RESTR.norm>
0

>  <SCORE.SYSTEM>
0

>  <SCORE.SYSTEM.CONST>
0

>  <SCORE.SYSTEM.DIHEDRAL>
0

>  <SCORE.SYSTEM.SOLV>
0

>  <SCORE.SYSTEM.norm>
0

>  <SCORE.heavy>
14

>  <SCORE.norm>
-0.798628

>  <RMSD>
4.415

$$$$
ligand
 OpenBabel11021811493D
libRbt.so/2013.1/901 2013/11/27
 14 13  0  0  0  0  0  0  0  0999 V2000
   53.5489    2.7995    2.3584 N   0  0  0  0  0  0  0  0  0  0  0  0
   52.2347    2.8442    2.9878 C   0  0  0  0  0  0  0  0  0  0  0  0
   51.1765    3.4050    2.0142 C   0  0  0  0  0  0  0  0  0  0  0  0
   50.8958    2.5140    0.7878 C   0  0  0  0  0  0  0  0  0  0  0  0
   51.9871    2.2942   -0.1731 N   0  0  0  0  0  0  0  0  0  0  0  0
   51.7205    1.7475   -1.5083 C   0  0  0  0  0  0  0  0  0  0  0  0
   51.2304    0.2967   -1.5309 C   0  0  0  0  0  0  0  0  0  0  0  0
   51.4624   -0.3901   -2.8875 C   0  0  0  0  0  0  0  0  0  0  0  0
   50.5787    0.1544   -4.0212 C   0  0  0  0  0  0  0  0  0  0  0  0
   49.2458   -0.4475   -4.1018 N   0  0  0  0  0  0  0  0  0  0  0  0
   48.6253   -0.6543   -5.4219 C   0  0  0  0  0  0  0  0  0  0  0  0
   47.9446   -2.0214   -5.6693 C   0  0  0  0  0  0  0  0  0  0  0  0
   48.8575   -3.2582   -5.5470 C   0  0  0  0  0  0  0  0  0  0  0  0
   48.1969   -4.4976   -5.9458 N   0  0  0  0  0  0  0  0  0  0  0  0
  1  2  1  0  0  0  0
  2  3  1  0  0  0  0
  3  4  1  0  0  0  0
  4  5  1  0  0  0  0
  5  6  1  0  0  0  0
  6  7  1  0  0  0  0
  7  8  1  0  0  0  0
  8  9  1  0  0  0  0
  9 10  1  0  0  0  0
 10 11  1  0  0  0  0
 11 12  1  0  0  0  0
 12 13  1  0  0  0  0
 13 14  1  0  0  0  0
M  END
>  <CHROM.1>
65.97794053,-64.34230463,-164.83125791,-66.84495917,-158.58568360,-69.29111098
-84.82592283,-144.96693479,135.08619527,-59.69827366,-173.15050021,50.55027371
0.34201677,-2.04708638,-0.92876267,0.91523666,-2.73848997

>  <Name>
ligand

>  <RI>
0

>  <Rbt.Current_Directory>
/home/itssahil/PROJECTS/Mol_Feturizer/New_Systems/rnas/4E8Q

>  <Rbt.Executable>
rbdock ($Id: //depot/dev/client3/rdock/2013.1/src/exe/rbdock.cxx#4 $)

>  <Rbt.Library>
libRbt.so (2013.1, Build901 2013/11/27)

>  <Rbt.Parameter_File>
/export/apps/rDock/src/rDock_2013.1_src/data/scripts/dock_solv.prm

>  <Rbt.Receptor>
prm/pocket_docking_7.prm

>  <SCORE>
-10.0564

>  <SCORE.INTER>
-1.44172

>  <SCORE.INTER.CONST>
1

>  <SCORE.INTER.POLAR>
0

>  <SCORE.INTER.ROT>
11

>  <SCORE.INTER.SOLV>
11.522

>  <SCORE.INTER.VDW>
-15.7351

>  <SCORE.INTER.norm>
-0.10298

>  <SCORE.INTRA>
-8.61469

>  <SCORE.INTRA.DIHEDRAL>
-19.6065

>  <SCORE.INTRA.DIHEDRAL.0>
25.9209

>  <SCORE.INTRA.POLAR>
0

>  <SCORE.INTRA.POLAR.0>
0

>  <SCORE.INTRA.REPUL>
0

>  <SCORE.INTRA.REPUL.0>
0

>  <SCORE.INTRA.SOLV>
1.17393

>  <SCORE.INTRA.SOLV.lig_0>
-47.4815

>  <SCORE.INTRA.VDW>
0.601617

>  <SCORE.INTRA.VDW.0>
-1.57492

>  <SCORE.INTRA.norm>
-0.615335

>  <SCORE.RESTR>
0

>  <SCORE.RESTR.CAVITY>
0

>  <SCORE.RESTR.norm>
0

>  <SCORE.SYSTEM>
0

>  <SCORE.SYSTEM.CONST>
0

>  <SCORE.SYSTEM.DIHEDRAL>
0

>  <SCORE.SYSTEM.SOLV>
0

>  <SCORE.SYSTEM.norm>
0

>  <SCORE.heavy>
14

>  <SCORE.norm>
-0.718315

>  <RMSD>
4.442

$$$$
ligand
 OpenBabel11021811493D
libRbt.so/2013.1/901 2013/11/27
 14 13  0  0  0  0  0  0  0  0999 V2000
   55.7761    2.6379    2.2872 N   0  0  0  0  0  0  0  0  0  0  0  0
   54.8782    2.9670    1.1869 C   0  0  0  0  0  0  0  0  0  0  0  0
   53.6840    1.9902    1.1395 C   0  0  0  0  0  0  0  0  0  0  0  0
   52.6185    2.3292    0.0782 C   0  0  0  0  0  0  0  0  0  0  0  0
   51.4023    1.5038    0.0291 N   0  0  0  0  0  0  0  0  0  0  0  0
   51.3606    0.2646   -0.7552 C   0  0  0  0  0  0  0  0  0  0  0  0
   51.1584    0.4547   -2.2613 C   0  0  0  0  0  0  0  0  0  0  0  0
   50.5184   -0.7702   -2.9365 C   0  0  0  0  0  0  0  0  0  0  0  0
   50.1568   -0.5496   -4.4141 C   0  0  0  0  0  0  0  0  0  0  0  0
   49.3951   -1.6399   -5.0276 N   0  0  0  0  0  0  0  0  0  0  0  0
   48.1952   -1.3249   -5.8223 C   0  0  0  0  0  0  0  0  0  0  0  0
   47.5600   -2.4868   -6.6223 C   0  0  0  0  0  0  0  0  0  0  0  0
   46.3935   -2.1016   -7.5545 C   0  0  0  0  0  0  0  0  0  0  0  0
   46.7876   -1.1712   -8.6083 N   0  0  0  0  0  0  0  0  0  0  0  0
  1  2  1  0  0  0  0
  2  3  1  0  0  0  0
  3  4  1  0  0  0  0
  4  5  1  0  0  0  0
  5  6  1  0  0  0  0
  6  7  1  0  0  0  0
  7  8  1  0  0  0  0
  8  9  1  0  0  0  0
  9 10  1  0  0  0  0
 10 11  1  0  0  0  0
 11 12  1  0  0  0  0
 12 13  1  0  0  0  0
 13 14  1  0  0  0  0
M  END
>  <CHROM.1>
175.23266999,-175.81127540,-86.89973915,-79.11031047,-154.69940529,173.40152998
-172.63252154,132.58982200,170.83129464,-174.08839764,62.17678428,50.70599386
0.15015779,-2.80579096,-0.38366994,-0.88774208,-0.94178148

>  <Name>
ligand

>  <RI>
0

>  <Rbt.Current_Directory>
/home/itssahil/PROJECTS/Mol_Feturizer/New_Systems/rnas/4E8Q

>  <Rbt.Executable>
rbdock ($Id: //depot/dev/client3/rdock/2013.1/src/exe/rbdock.cxx#4 $)

>  <Rbt.Library>
libRbt.so (2013.1, Build901 2013/11/27)

>  <Rbt.Parameter_File>
/export/apps/rDock/src/rDock_2013.1_src/data/scripts/dock_solv.prm

>  <Rbt.Receptor>
prm/pocket_docking_8.prm

>  <SCORE>
-12.5264

>  <SCORE.INTER>
-1.71761

>  <SCORE.INTER.CONST>
1

>  <SCORE.INTER.POLAR>
0

>  <SCORE.INTER.ROT>
11

>  <SCORE.INTER.SOLV>
12.1745

>  <SCORE.INTER.VDW>
-16.1366

>  <SCORE.INTER.norm>
-0.122686

>  <SCORE.INTRA>
-10.8088

>  <SCORE.INTRA.DIHEDRAL>
-21.2276

>  <SCORE.INTRA.DIHEDRAL.0>
25.9209

>  <SCORE.INTRA.POLAR>
0

>  <SCORE.INTRA.POLAR.0>
0

>  <SCORE.INTRA.REPUL>
0

>  <SCORE.INTRA.REPUL.0>
0

>  <SCORE.INTRA.SOLV>
-1.43124

>  <SCORE.INTRA.SOLV.lig_0>
-47.4815

>  <SCORE.INTRA.VDW>
0.52056

>  <SCORE.INTRA.VDW.0>
-1.57492

>  <SCORE.INTRA.norm>
-0.77206

>  <SCORE.RESTR>
0

>  <SCORE.RESTR.CAVITY>
0

>  <SCORE.RESTR.norm>
0

>  <SCORE.SYSTEM>
0

>  <SCORE.SYSTEM.CONST>
0

>  <SCORE.SYSTEM.DIHEDRAL>
0

>  <SCORE.SYSTEM.SOLV>
0

>  <SCORE.SYSTEM.norm>
0

>  <SCORE.heavy>
14

>  <SCORE.norm>
-0.894746

>  <RMSD>
4.442

$$$$
ligand
 OpenBabel11021811493D
libRbt.so/2013.1/901 2013/11/27
 14 13  0  0  0  0  0  0  0  0999 V2000
   50.1598    3.0371   -6.8355 N   0  0  0  0  0  0  0  0  0  0  0  0
   49.1251    3.2628   -5.8337 C   0  0  0  0  0  0  0  0  0  0  0  0
   49.2735    2.2756   -4.6565 C   0  0  0  0  0  0  0  0  0  0  0  0
   49.0694    0.7941   -5.0309 C   0  0  0  0  0  0  0  0  0  0  0  0
   49.2595   -0.2183   -3.9813 N   0  0  0  0  0  0  0  0  0  0  0  0
   50.5916   -0.7544   -3.6800 C   0  0  0  0  0  0  0  0  0  0  0  0
   51.5058    0.1836   -2.8864 C   0  0  0  0  0  0  0  0  0  0  0  0
   51.0159    0.4171   -1.4472 C   0  0  0  0  0  0  0  0  0  0  0  0
   51.7287    1.5721   -0.7257 C   0  0  0  0  0  0  0  0  0  0  0  0
   51.1707    1.9130    0.5849 N   0  0  0  0  0  0  0  0  0  0  0  0
   51.7891    2.9919    1.3749 C   0  0  0  0  0  0  0  0  0  0  0  0
   51.3628    3.1070    2.8576 C   0  0  0  0  0  0  0  0  0  0  0  0
   52.0276    4.2427    3.6615 C   0  0  0  0  0  0  0  0  0  0  0  0
   51.6233    4.2623    5.0642 N   0  0  0  0  0  0  0  0  0  0  0  0
  1  2  1  0  0  0  0
  2  3  1  0  0  0  0
  3  4  1  0  0  0  0
  4  5  1  0  0  0  0
  5  6  1  0  0  0  0
  6  7  1  0  0  0  0
  7  8  1  0  0  0  0
  8  9  1  0  0  0  0
  9 10  1  0  0  0  0
 10 11  1  0  0  0  0
 11 12  1  0  0  0  0
 12 13  1  0  0  0  0
 13 14  1  0  0  0  0
M  END
>  <CHROM.1>
-64.14184174,177.00756190,-85.31427447,75.55966354,67.66554467,-167.63850460
173.12597686,179.06296216,-167.23438721,179.87669786,-177.67820344,50.69311978
1.93463211,-1.53824671,2.48084314,1.28041678,-2.70029669

>  <Name>
ligand

>  <RI>
0

>  <Rbt.Current_Directory>
/home/itssahil/PROJECTS/Mol_Feturizer/New_Systems/rnas/4E8Q

>  <Rbt.Executable>
rbdock ($Id: //depot/dev/client3/rdock/2013.1/src/exe/rbdock.cxx#4 $)

>  <Rbt.Library>
libRbt.so (2013.1, Build901 2013/11/27)

>  <Rbt.Parameter_File>
/export/apps/rDock/src/rDock_2013.1_src/data/scripts/dock_solv.prm

>  <Rbt.Receptor>
prm/pocket_docking_6.prm

>  <SCORE>
-11.5097

>  <SCORE.INTER>
0.753017

>  <SCORE.INTER.CONST>
1

>  <SCORE.INTER.POLAR>
0

>  <SCORE.INTER.ROT>
11

>  <SCORE.INTER.SOLV>
8.14764

>  <SCORE.INTER.VDW>
-13.1472

>  <SCORE.INTER.norm>
0.053787

>  <SCORE.INTRA>
-12.2628

>  <SCORE.INTRA.DIHEDRAL>
-24.0145

>  <SCORE.INTRA.DIHEDRAL.0>
25.9209

>  <SCORE.INTRA.POLAR>
0

>  <SCORE.INTRA.POLAR.0>
0

>  <SCORE.INTRA.REPUL>
0

>  <SCORE.INTRA.REPUL.0>
0

>  <SCORE.INTRA.SOLV>
-1.09435

>  <SCORE.INTRA.SOLV.lig_0>
-47.4815

>  <SCORE.INTRA.VDW>
0.29165

>  <SCORE.INTRA.VDW.0>
-1.57492

>  <SCORE.INTRA.norm>
-0.875912

>  <SCORE.RESTR>
0

>  <SCORE.RESTR.CAVITY>
0

>  <SCORE.RESTR.norm>
0

>  <SCORE.SYSTEM>
0

>  <SCORE.SYSTEM.CONST>
0

>  <SCORE.SYSTEM.DIHEDRAL>
0

>  <SCORE.SYSTEM.SOLV>
0

>  <SCORE.SYSTEM.norm>
0

>  <SCORE.heavy>
14

>  <SCORE.norm>
-0.822125

>  <RMSD>
4.449

$$$$
ligand
 OpenBabel11021811493D
libRbt.so/2013.1/901 2013/11/27
 14 13  0  0  0  0  0  0  0  0999 V2000
   52.5602    5.3599    3.6235 N   0  0  0  0  0  0  0  0  0  0  0  0
   52.7282    3.9719    4.0361 C   0  0  0  0  0  0  0  0  0  0  0  0
   51.8349    3.0353    3.1951 C   0  0  0  0  0  0  0  0  0  0  0  0
   52.1319    3.0519    1.6824 C   0  0  0  0  0  0  0  0  0  0  0  0
   51.4692    2.0489    0.8352 N   0  0  0  0  0  0  0  0  0  0  0  0
   51.6479    2.0520   -0.6210 C   0  0  0  0  0  0  0  0  0  0  0  0
   51.2642    0.7477   -1.3260 C   0  0  0  0  0  0  0  0  0  0  0  0
   51.4678    0.8108   -2.8493 C   0  0  0  0  0  0  0  0  0  0  0  0
   51.0472   -0.4697   -3.5882 C   0  0  0  0  0  0  0  0  0  0  0  0
   49.6176   -0.7793   -3.5119 N   0  0  0  0  0  0  0  0  0  0  0  0
   49.0375   -1.7504   -4.4559 C   0  0  0  0  0  0  0  0  0  0  0  0
   48.5636   -1.2013   -5.8224 C   0  0  0  0  0  0  0  0  0  0  0  0
   47.9410   -2.2352   -6.7823 C   0  0  0  0  0  0  0  0  0  0  0  0
   47.6103   -1.6748   -8.0893 N   0  0  0  0  0  0  0  0  0  0  0  0
  1  2  1  0  0  0  0
  2  3  1  0  0  0  0
  3  4  1  0  0  0  0
  4  5  1  0  0  0  0
  5  6  1  0  0  0  0
  6  7  1  0  0  0  0
  7  8  1  0  0  0  0
  8  9  1  0  0  0  0
  9 10  1  0  0  0  0
 10 11  1  0  0  0  0
 11 12  1  0  0  0  0
 12 13  1  0  0  0  0
 13 14  1  0  0  0  0
M  END
>  <CHROM.1>
60.79140481,171.09150626,176.62695982,162.52481568,179.81655295,-178.11056851
64.37407855,163.68487195,-86.75995604,-179.10030754,-175.54983058,50.63738094
0.92613420,-1.69096213,-0.45965928,-1.18532133,-1.02298579

>  <Name>
ligand

>  <RI>
0

>  <Rbt.Current_Directory>
/home/itssahil/PROJECTS/Mol_Feturizer/New_Systems/rnas/4E8Q

>  <Rbt.Executable>
rbdock ($Id: //depot/dev/client3/rdock/2013.1/src/exe/rbdock.cxx#4 $)

>  <Rbt.Library>
libRbt.so (2013.1, Build901 2013/11/27)

>  <Rbt.Parameter_File>
/export/apps/rDock/src/rDock_2013.1_src/data/scripts/dock_solv.prm

>  <Rbt.Receptor>
prm/pocket_docking_5.prm

>  <SCORE>
-12.2765

>  <SCORE.INTER>
0.034749

>  <SCORE.INTER.CONST>
1

>  <SCORE.INTER.POLAR>
0

>  <SCORE.INTER.ROT>
11

>  <SCORE.INTER.SOLV>
8.65788

>  <SCORE.INTER.VDW>
-13.7961

>  <SCORE.INTER.norm>
0.00248207

>  <SCORE.INTRA>
-12.3112

>  <SCORE.INTRA.DIHEDRAL>
-24.5108

>  <SCORE.INTRA.DIHEDRAL.0>
25.9209

>  <SCORE.INTRA.POLAR>
0

>  <SCORE.INTRA.POLAR.0>
0

>  <SCORE.INTRA.REPUL>
0

>  <SCORE.INTRA.REPUL.0>
0

>  <SCORE.INTRA.SOLV>
-1.06721

>  <SCORE.INTRA.SOLV.lig_0>
-47.4815

>  <SCORE.INTRA.VDW>
0.477798

>  <SCORE.INTRA.VDW.0>
-1.57492

>  <SCORE.INTRA.norm>
-0.879372

>  <SCORE.RESTR>
0

>  <SCORE.RESTR.CAVITY>
0

>  <SCORE.RESTR.norm>
0

>  <SCORE.SYSTEM>
0

>  <SCORE.SYSTEM.CONST>
0

>  <SCORE.SYSTEM.DIHEDRAL>
0

>  <SCORE.SYSTEM.SOLV>
0

>  <SCORE.SYSTEM.norm>
0

>  <SCORE.heavy>
14

>  <SCORE.norm>
-0.876889

>  <RMSD>
4.476

$$$$
ligand
 OpenBabel11021811493D
libRbt.so/2013.1/901 2013/11/27
 14 13  0  0  0  0  0  0  0  0999 V2000
   48.6157   -3.2166   -7.0332 N   0  0  0  0  0  0  0  0  0  0  0  0
   48.4073   -2.7520   -5.6672 C   0  0  0  0  0  0  0  0  0  0  0  0
   48.5020   -1.2133   -5.5883 C   0  0  0  0  0  0  0  0  0  0  0  0
   48.4782   -0.6409   -4.1571 C   0  0  0  0  0  0  0  0  0  0  0  0
   49.5676   -1.0154   -3.2429 N   0  0  0  0  0  0  0  0  0  0  0  0
   50.9476   -0.5858   -3.4950 C   0  0  0  0  0  0  0  0  0  0  0  0
   51.3161    0.7866   -2.9240 C   0  0  0  0  0  0  0  0  0  0  0  0
   51.3846    0.7944   -1.3874 C   0  0  0  0  0  0  0  0  0  0  0  0
   51.7632    2.1578   -0.7871 C   0  0  0  0  0  0  0  0  0  0  0  0
   51.8635    2.1772    0.6741 N   0  0  0  0  0  0  0  0  0  0  0  0
   50.8114    2.8433    1.4615 C   0  0  0  0  0  0  0  0  0  0  0  0
   51.0669    3.0018    2.9791 C   0  0  0  0  0  0  0  0  0  0  0  0
   52.3402    3.7800    3.3682 C   0  0  0  0  0  0  0  0  0  0  0  0
   52.5632    3.8262    4.8103 N   0  0  0  0  0  0  0  0  0  0  0  0
  1  2  1  0  0  0  0
  2  3  1  0  0  0  0
  3  4  1  0  0  0  0
  4  5  1  0  0  0  0
  5  6  1  0  0  0  0
  6  7  1  0  0  0  0
  7  8  1  0  0  0  0
  8  9  1  0  0  0  0
  9 10  1  0  0  0  0
 10 11  1  0  0  0  0
 11 12  1  0  0  0  0
 12 13  1  0  0  0  0
 13 14  1  0  0  0  0
M  END
>  <CHROM.1>
-172.40967153,62.28783219,65.94122501,87.26280992,69.45276526,179.56007542
-178.66551438,-106.80222909,-171.83237390,58.13141136,-176.63786766,50.54477343
0.71034625,-1.49932966,-1.88879034,0.33739437,1.12211248

>  <Name>
ligand

>  <RI>
0

>  <Rbt.Current_Directory>
/home/itssahil/PROJECTS/Mol_Feturizer/New_Systems/rnas/4E8Q

>  <Rbt.Executable>
rbdock ($Id: //depot/dev/client3/rdock/2013.1/src/exe/rbdock.cxx#4 $)

>  <Rbt.Library>
libRbt.so (2013.1, Build901 2013/11/27)

>  <Rbt.Parameter_File>
/export/apps/rDock/src/rDock_2013.1_src/data/scripts/dock_solv.prm

>  <Rbt.Receptor>
prm/pocket_docking_6.prm

>  <SCORE>
-14.4381

>  <SCORE.INTER>
-2.39737

>  <SCORE.INTER.CONST>
1

>  <SCORE.INTER.POLAR>
0

>  <SCORE.INTER.ROT>
11

>  <SCORE.INTER.SOLV>
9.55488

>  <SCORE.INTER.VDW>
-15.7165

>  <SCORE.INTER.norm>
-0.171241

>  <SCORE.INTRA>
-12.0407

>  <SCORE.INTRA.DIHEDRAL>
-23.6319

>  <SCORE.INTRA.DIHEDRAL.0>
25.9209

>  <SCORE.INTRA.POLAR>
0

>  <SCORE.INTRA.POLAR.0>
0

>  <SCORE.INTRA.REPUL>
0

>  <SCORE.INTRA.REPUL.0>
0

>  <SCORE.INTRA.SOLV>
-1.19655

>  <SCORE.INTRA.SOLV.lig_0>
-47.4815

>  <SCORE.INTRA.VDW>
0.373509

>  <SCORE.INTRA.VDW.0>
-1.57492

>  <SCORE.INTRA.norm>
-0.860051

>  <SCORE.RESTR>
0

>  <SCORE.RESTR.CAVITY>
0

>  <SCORE.RESTR.norm>
0

>  <SCORE.SYSTEM>
0

>  <SCORE.SYSTEM.CONST>
0

>  <SCORE.SYSTEM.DIHEDRAL>
0

>  <SCORE.SYSTEM.SOLV>
0

>  <SCORE.SYSTEM.norm>
0

>  <SCORE.heavy>
14

>  <SCORE.norm>
-1.03129

>  <RMSD>
4.478

$$$$
ligand
 OpenBabel11021811493D
libRbt.so/2013.1/901 2013/11/27
 14 13  0  0  0  0  0  0  0  0999 V2000
   51.8632    0.9031   -8.9591 N   0  0  0  0  0  0  0  0  0  0  0  0
   51.3559   -0.1718   -8.1150 C   0  0  0  0  0  0  0  0  0  0  0  0
   49.9479    0.1656   -7.5803 C   0  0  0  0  0  0  0  0  0  0  0  0
   49.3564   -0.8858   -6.6203 C   0  0  0  0  0  0  0  0  0  0  0  0
   50.0740   -1.1605   -5.3664 N   0  0  0  0  0  0  0  0  0  0  0  0
   50.4556   -0.0723   -4.4594 C   0  0  0  0  0  0  0  0  0  0  0  0
   50.8556   -0.5121   -3.0480 C   0  0  0  0  0  0  0  0  0  0  0  0
   51.3503    0.6553   -2.1772 C   0  0  0  0  0  0  0  0  0  0  0  0
   51.6079    0.2736   -0.7108 C   0  0  0  0  0  0  0  0  0  0  0  0
   52.0412    1.3817    0.1435 N   0  0  0  0  0  0  0  0  0  0  0  0
   51.0530    2.3795    0.5889 C   0  0  0  0  0  0  0  0  0  0  0  0
   51.3772    3.1549    1.8878 C   0  0  0  0  0  0  0  0  0  0  0  0
   52.6439    4.0334    1.8473 C   0  0  0  0  0  0  0  0  0  0  0  0
   52.9464    4.6593    3.1311 N   0  0  0  0  0  0  0  0  0  0  0  0
  1  2  1  0  0  0  0
  2  3  1  0  0  0  0
  3  4  1  0  0  0  0
  4  5  1  0  0  0  0
  5  6  1  0  0  0  0
  6  7  1  0  0  0  0
  7  8  1  0  0  0  0
  8  9  1  0  0  0  0
  9 10  1  0  0  0  0
 10 11  1  0  0  0  0
 11 12  1  0  0  0  0
 12 13  1  0  0  0  0
 13 14  1  0  0  0  0
M  END
>  <CHROM.1>
-177.19361526,61.15515805,52.17876451,164.60624513,175.48503793,173.46386512
-178.24819511,75.57608434,155.80413949,62.52761410,-175.78866633,51.20896660
1.05724889,-2.81701945,-1.89093585,1.04935403,1.48726300

>  <Name>
ligand

>  <RI>
0

>  <Rbt.Current_Directory>
/home/itssahil/PROJECTS/Mol_Feturizer/New_Systems/rnas/4E8Q

>  <Rbt.Executable>
rbdock ($Id: //depot/dev/client3/rdock/2013.1/src/exe/rbdock.cxx#4 $)

>  <Rbt.Library>
libRbt.so (2013.1, Build901 2013/11/27)

>  <Rbt.Parameter_File>
/export/apps/rDock/src/rDock_2013.1_src/data/scripts/dock_solv.prm

>  <Rbt.Receptor>
prm/pocket_docking_4.prm

>  <SCORE>
-12.3929

>  <SCORE.INTER>
-0.000120585

>  <SCORE.INTER.CONST>
1

>  <SCORE.INTER.POLAR>
0

>  <SCORE.INTER.ROT>
11

>  <SCORE.INTER.SOLV>
6.94538

>  <SCORE.INTER.VDW>
-13.2485

>  <SCORE.INTER.norm>
-8.61324e-06

>  <SCORE.INTRA>
-12.3928

>  <SCORE.INTRA.DIHEDRAL>
-24.686

>  <SCORE.INTRA.DIHEDRAL.0>
25.9209

>  <SCORE.INTRA.POLAR>
0

>  <SCORE.INTRA.POLAR.0>
0

>  <SCORE.INTRA.REPUL>
0

>  <SCORE.INTRA.REPUL.0>
0

>  <SCORE.INTRA.SOLV>
-1.51324

>  <SCORE.INTRA.SOLV.lig_0>
-47.4815

>  <SCORE.INTRA.VDW>
0.70682

>  <SCORE.INTRA.VDW.0>
-1.57492

>  <SCORE.INTRA.norm>
-0.885199

>  <SCORE.RESTR>
0

>  <SCORE.RESTR.CAVITY>
0

>  <SCORE.RESTR.norm>
0

>  <SCORE.SYSTEM>
0

>  <SCORE.SYSTEM.CONST>
0

>  <SCORE.SYSTEM.DIHEDRAL>
0

>  <SCORE.SYSTEM.SOLV>
0

>  <SCORE.SYSTEM.norm>
0

>  <SCORE.heavy>
14

>  <SCORE.norm>
-0.885208

>  <RMSD>
4.479

$$$$
ligand
 OpenBabel11021811493D
libRbt.so/2013.1/901 2013/11/27
 14 13  0  0  0  0  0  0  0  0999 V2000
   54.3253    4.8611    2.9853 N   0  0  0  0  0  0  0  0  0  0  0  0
   54.2488    3.4936    2.4861 C   0  0  0  0  0  0  0  0  0  0  0  0
   53.0381    3.3177    1.5449 C   0  0  0  0  0  0  0  0  0  0  0  0
   52.9382    1.9308    0.8792 C   0  0  0  0  0  0  0  0  0  0  0  0
   51.8638    1.7082   -0.1000 N   0  0  0  0  0  0  0  0  0  0  0  0
   51.8894    0.5501   -1.0004 C   0  0  0  0  0  0  0  0  0  0  0  0
   51.0401    0.6922   -2.2669 C   0  0  0  0  0  0  0  0  0  0  0  0
   51.3484   -0.3893   -3.3162 C   0  0  0  0  0  0  0  0  0  0  0  0
   50.3293   -0.4517   -4.4652 C   0  0  0  0  0  0  0  0  0  0  0  0
   48.9964   -0.9191   -4.0771 N   0  0  0  0  0  0  0  0  0  0  0  0
   48.1180   -1.5223   -5.0944 C   0  0  0  0  0  0  0  0  0  0  0  0
   48.3638   -3.0104   -5.4386 C   0  0  0  0  0  0  0  0  0  0  0  0
   47.5390   -3.5732   -6.6137 C   0  0  0  0  0  0  0  0  0  0  0  0
   47.8867   -2.9695   -7.8967 N   0  0  0  0  0  0  0  0  0  0  0  0
  1  2  1  0  0  0  0
  2  3  1  0  0  0  0
  3  4  1  0  0  0  0
  4  5  1  0  0  0  0
  5  6  1  0  0  0  0
  6  7  1  0  0  0  0
  7  8  1  0  0  0  0
  8  9  1  0  0  0  0
  9 10  1  0  0  0  0
 10 11  1  0  0  0  0
 11 12  1  0  0  0  0
 12 13  1  0  0  0  0
 13 14  1  0  0  0  0
M  END
>  <CHROM.1>
175.42363259,-176.07965643,165.31135247,-158.70154797,166.81612340,168.21887331
-68.19561807,-155.97223188,81.22483543,-173.44570199,66.15364103,50.85183820
0.26542478,-2.31242058,-0.98135091,-0.55385855,-1.86763820

>  <Name>
ligand

>  <RI>
0

>  <Rbt.Current_Directory>
/home/itssahil/PROJECTS/Mol_Feturizer/New_Systems/rnas/4E8Q

>  <Rbt.Executable>
rbdock ($Id: //depot/dev/client3/rdock/2013.1/src/exe/rbdock.cxx#4 $)

>  <Rbt.Library>
libRbt.so (2013.1, Build901 2013/11/27)

>  <Rbt.Parameter_File>
/export/apps/rDock/src/rDock_2013.1_src/data/scripts/dock_solv.prm

>  <Rbt.Receptor>
prm/pocket_docking_7.prm

>  <SCORE>
-12.8904

>  <SCORE.INTER>
-1.31199

>  <SCORE.INTER.CONST>
1

>  <SCORE.INTER.POLAR>
0

>  <SCORE.INTER.ROT>
11

>  <SCORE.INTER.SOLV>
6.42944

>  <SCORE.INTER.VDW>
-13.9511

>  <SCORE.INTER.norm>
-0.0937139

>  <SCORE.INTRA>
-11.5784

>  <SCORE.INTRA.DIHEDRAL>
-22.7808

>  <SCORE.INTRA.DIHEDRAL.0>
25.9209

>  <SCORE.INTRA.POLAR>
0

>  <SCORE.INTRA.POLAR.0>
0

>  <SCORE.INTRA.REPUL>
0

>  <SCORE.INTRA.REPUL.0>
0

>  <SCORE.INTRA.SOLV>
-1.12489

>  <SCORE.INTRA.SOLV.lig_0>
-47.4815

>  <SCORE.INTRA.VDW>
0.374469

>  <SCORE.INTRA.VDW.0>
-1.57492

>  <SCORE.INTRA.norm>
-0.827028

>  <SCORE.RESTR>
0

>  <SCORE.RESTR.CAVITY>
0

>  <SCORE.RESTR.norm>
0

>  <SCORE.SYSTEM>
0

>  <SCORE.SYSTEM.CONST>
0

>  <SCORE.SYSTEM.DIHEDRAL>
0

>  <SCORE.SYSTEM.SOLV>
0

>  <SCORE.SYSTEM.norm>
0

>  <SCORE.heavy>
14

>  <SCORE.norm>
-0.920742

>  <RMSD>
4.485

$$$$
ligand
 OpenBabel11021811493D
libRbt.so/2013.1/901 2013/11/27
 14 13  0  0  0  0  0  0  0  0999 V2000
   51.6420    0.2487   -9.6722 N   0  0  0  0  0  0  0  0  0  0  0  0
   50.8908   -0.7908   -8.9792 C   0  0  0  0  0  0  0  0  0  0  0  0
   50.3444   -0.2706   -7.6325 C   0  0  0  0  0  0  0  0  0  0  0  0
   51.4277    0.1364   -6.6140 C   0  0  0  0  0  0  0  0  0  0  0  0
   50.9917    0.6466   -5.3055 N   0  0  0  0  0  0  0  0  0  0  0  0
   50.2287   -0.1986   -4.3802 C   0  0  0  0  0  0  0  0  0  0  0  0
   50.9462   -0.5424   -3.0716 C   0  0  0  0  0  0  0  0  0  0  0  0
   51.2759    0.7006   -2.2278 C   0  0  0  0  0  0  0  0  0  0  0  0
   51.7780    0.3775   -0.8115 C   0  0  0  0  0  0  0  0  0  0  0  0
   52.1219    1.5484   -0.0015 N   0  0  0  0  0  0  0  0  0  0  0  0
   51.0565    2.4770    0.4147 C   0  0  0  0  0  0  0  0  0  0  0  0
   51.4332    3.5505    1.4631 C   0  0  0  0  0  0  0  0  0  0  0  0
   51.8825    3.0175    2.8386 C   0  0  0  0  0  0  0  0  0  0  0  0
   52.1745    4.0805    3.7957 N   0  0  0  0  0  0  0  0  0  0  0  0
  1  2  1  0  0  0  0
  2  3  1  0  0  0  0
  3  4  1  0  0  0  0
  4  5  1  0  0  0  0
  5  6  1  0  0  0  0
  6  7  1  0  0  0  0
  7  8  1  0  0  0  0
  8  9  1  0  0  0  0
  9 10  1  0  0  0  0
 10 11  1  0  0  0  0
 11 12  1  0  0  0  0
 12 13  1  0  0  0  0
 13 14  1  0  0  0  0
M  END
>  <CHROM.1>
-63.04518097,179.83942066,62.95701902,114.73855891,61.69054661,170.23536527
178.87385940,66.67377502,169.72264414,-62.24558463,-177.82444463,51.29939032
1.06985785,-2.87030125,-1.88378379,1.32365021,1.56556450

>  <Name>
ligand

>  <RI>
0

>  <Rbt.Current_Directory>
/home/itssahil/PROJECTS/Mol_Feturizer/New_Systems/rnas/4E8Q

>  <Rbt.Executable>
rbdock ($Id: //depot/dev/client3/rdock/2013.1/src/exe/rbdock.cxx#4 $)

>  <Rbt.Library>
libRbt.so (2013.1, Build901 2013/11/27)

>  <Rbt.Parameter_File>
/export/apps/rDock/src/rDock_2013.1_src/data/scripts/dock_solv.prm

>  <Rbt.Receptor>
prm/pocket_docking_5.prm

>  <SCORE>
-11.8603

>  <SCORE.INTER>
-0.272169

>  <SCORE.INTER.CONST>
1

>  <SCORE.INTER.POLAR>
0

>  <SCORE.INTER.ROT>
11

>  <SCORE.INTER.SOLV>
6.38536

>  <SCORE.INTER.VDW>
-13.2432

>  <SCORE.INTER.norm>
-0.0194406

>  <SCORE.INTRA>
-11.5881

>  <SCORE.INTRA.DIHEDRAL>
-24.1363

>  <SCORE.INTRA.DIHEDRAL.0>
25.9209

>  <SCORE.INTRA.POLAR>
0

>  <SCORE.INTRA.POLAR.0>
0

>  <SCORE.INTRA.REPUL>
0

>  <SCORE.INTRA.REPUL.0>
0

>  <SCORE.INTRA.SOLV>
-0.788333

>  <SCORE.INTRA.SOLV.lig_0>
-47.4815

>  <SCORE.INTRA.VDW>
0.874221

>  <SCORE.INTRA.VDW.0>
-1.57492

>  <SCORE.INTRA.norm>
-0.827722

>  <SCORE.RESTR>
0

>  <SCORE.RESTR.CAVITY>
0

>  <SCORE.RESTR.norm>
0

>  <SCORE.SYSTEM>
0

>  <SCORE.SYSTEM.CONST>
0

>  <SCORE.SYSTEM.DIHEDRAL>
0

>  <SCORE.SYSTEM.SOLV>
0

>  <SCORE.SYSTEM.norm>
0

>  <SCORE.heavy>
14

>  <SCORE.norm>
-0.847163

>  <RMSD>
4.489

$$$$
ligand
 OpenBabel11021811493D
libRbt.so/2013.1/901 2013/11/27
 14 13  0  0  0  0  0  0  0  0999 V2000
   49.4154    4.5036   -3.8881 N   0  0  0  0  0  0  0  0  0  0  0  0
   48.8498    3.5012   -4.7828 C   0  0  0  0  0  0  0  0  0  0  0  0
   49.8469    2.3464   -5.0169 C   0  0  0  0  0  0  0  0  0  0  0  0
   49.3786    1.2904   -6.0378 C   0  0  0  0  0  0  0  0  0  0  0  0
   50.1940    0.0779   -6.2039 N   0  0  0  0  0  0  0  0  0  0  0  0
   49.9204   -1.1308   -5.4185 C   0  0  0  0  0  0  0  0  0  0  0  0
   49.9019   -0.9296   -3.9005 C   0  0  0  0  0  0  0  0  0  0  0  0
   51.1634   -0.2221   -3.3771 C   0  0  0  0  0  0  0  0  0  0  0  0
   51.1105    0.1199   -1.8795 C   0  0  0  0  0  0  0  0  0  0  0  0
   52.0474    1.1631   -1.4560 N   0  0  0  0  0  0  0  0  0  0  0  0
   52.0620    1.5920   -0.0466 C   0  0  0  0  0  0  0  0  0  0  0  0
   52.5470    3.0324    0.2421 C   0  0  0  0  0  0  0  0  0  0  0  0
   53.9690    3.3732   -0.2476 C   0  0  0  0  0  0  0  0  0  0  0  0
   54.4019    4.7120    0.1418 N   0  0  0  0  0  0  0  0  0  0  0  0
  1  2  1  0  0  0  0
  2  3  1  0  0  0  0
  3  4  1  0  0  0  0
  4  5  1  0  0  0  0
  5  6  1  0  0  0  0
  6  7  1  0  0  0  0
  7  8  1  0  0  0  0
  8  9  1  0  0  0  0
  9 10  1  0  0  0  0
 10 11  1  0  0  0  0
 11 12  1  0  0  0  0
 12 13  1  0  0  0  0
 13 14  1  0  0  0  0
M  END
>  <CHROM.1>
-175.49811209,-172.97976991,91.79628665,-54.92877572,-51.94610603,174.16889778
-160.15136687,178.66517693,-153.53202847,-57.81460346,-175.75728256,51.05756184
1.67316243,-2.99088312,2.67578611,0.94795964,-3.05156314

>  <Name>
ligand

>  <RI>
0

>  <Rbt.Current_Directory>
/home/itssahil/PROJECTS/Mol_Feturizer/New_Systems/rnas/4E8Q

>  <Rbt.Executable>
rbdock ($Id: //depot/dev/client3/rdock/2013.1/src/exe/rbdock.cxx#4 $)

>  <Rbt.Library>
libRbt.so (2013.1, Build901 2013/11/27)

>  <Rbt.Parameter_File>
/export/apps/rDock/src/rDock_2013.1_src/data/scripts/dock_solv.prm

>  <Rbt.Receptor>
prm/pocket_docking_3.prm

>  <SCORE>
-10.692

>  <SCORE.INTER>
0.68106

>  <SCORE.INTER.CONST>
1

>  <SCORE.INTER.POLAR>
0

>  <SCORE.INTER.ROT>
11

>  <SCORE.INTER.SOLV>
6.15341

>  <SCORE.INTER.VDW>
-12.5304

>  <SCORE.INTER.norm>
0.0486471

>  <SCORE.INTRA>
-11.3731

>  <SCORE.INTRA.DIHEDRAL>
-22.6614

>  <SCORE.INTRA.DIHEDRAL.0>
25.9209

>  <SCORE.INTRA.POLAR>
0

>  <SCORE.INTRA.POLAR.0>
0

>  <SCORE.INTRA.REPUL>
0

>  <SCORE.INTRA.REPUL.0>
0

>  <SCORE.INTRA.SOLV>
-1.25416

>  <SCORE.INTRA.SOLV.lig_0>
-47.4815

>  <SCORE.INTRA.VDW>
0.584737

>  <SCORE.INTRA.VDW.0>
-1.57492

>  <SCORE.INTRA.norm>
-0.812361

>  <SCORE.RESTR>
0

>  <SCORE.RESTR.CAVITY>
0

>  <SCORE.RESTR.norm>
0

>  <SCORE.SYSTEM>
0

>  <SCORE.SYSTEM.CONST>
0

>  <SCORE.SYSTEM.DIHEDRAL>
0

>  <SCORE.SYSTEM.SOLV>
0

>  <SCORE.SYSTEM.norm>
0

>  <SCORE.heavy>
14

>  <SCORE.norm>
-0.763714

>  <RMSD>
4.499

$$$$
ligand
 OpenBabel11021811493D
libRbt.so/2013.1/901 2013/11/27
 14 13  0  0  0  0  0  0  0  0999 V2000
   57.4759    1.7923    6.9694 N   0  0  0  0  0  0  0  0  0  0  0  0
   58.1237    2.0209    5.6836 C   0  0  0  0  0  0  0  0  0  0  0  0
   58.1036    3.5197    5.3155 C   0  0  0  0  0  0  0  0  0  0  0  0
   58.7535    3.8567    3.9588 C   0  0  0  0  0  0  0  0  0  0  0  0
   58.1269    3.3246    2.7393 N   0  0  0  0  0  0  0  0  0  0  0  0
   58.8435    3.3249    1.4590 C   0  0  0  0  0  0  0  0  0  0  0  0
   58.0018    2.9279    0.2427 C   0  0  0  0  0  0  0  0  0  0  0  0
   56.8716    3.9284   -0.0527 C   0  0  0  0  0  0  0  0  0  0  0  0
   56.0904    3.6240   -1.3410 C   0  0  0  0  0  0  0  0  0  0  0  0
   54.9645    4.5239   -1.6018 N   0  0  0  0  0  0  0  0  0  0  0  0
   54.3014    4.4888   -2.9170 C   0  0  0  0  0  0  0  0  0  0  0  0
   53.7018    3.1342   -3.3630 C   0  0  0  0  0  0  0  0  0  0  0  0
   53.1249    3.0932   -4.7926 C   0  0  0  0  0  0  0  0  0  0  0  0
   52.0100    4.0158   -4.9855 N   0  0  0  0  0  0  0  0  0  0  0  0
  1  2  1  0  0  0  0
  2  3  1  0  0  0  0
  3  4  1  0  0  0  0
  4  5  1  0  0  0  0
  5  6  1  0  0  0  0
  6  7  1  0  0  0  0
  7  8  1  0  0  0  0
  8  9  1  0  0  0  0
  9 10  1  0  0  0  0
 10 11  1  0  0  0  0
 11 12  1  0  0  0  0
 12 13  1  0  0  0  0
 13 14  1  0  0  0  0
M  END
>  <CHROM.1>
-179.28716958,64.57097081,-165.28217227,-171.66151510,64.76393258,174.77450500
176.88447382,168.79614392,58.10978816,-174.80226784,-61.93888855,56.32124552
3.39824069,0.52236585,1.06897938,0.23878441,1.80960521

>  <Name>
ligand

>  <RI>
0

>  <Rbt.Current_Directory>
/home/itssahil/PROJECTS/Mol_Feturizer/New_Systems/rnas/4E8Q

>  <Rbt.Executable>
rbdock ($Id: //depot/dev/client3/rdock/2013.1/src/exe/rbdock.cxx#4 $)

>  <Rbt.Library>
libRbt.so (2013.1, Build901 2013/11/27)

>  <Rbt.Parameter_File>
/export/apps/rDock/src/rDock_2013.1_src/data/scripts/dock_solv.prm

>  <Rbt.Receptor>
prm/pocket_docking_6.prm

>  <SCORE>
-9.09341

>  <SCORE.INTER>
3.25443

>  <SCORE.INTER.CONST>
1

>  <SCORE.INTER.POLAR>
0

>  <SCORE.INTER.ROT>
11

>  <SCORE.INTER.SOLV>
4.31775

>  <SCORE.INTER.VDW>
-10.203

>  <SCORE.INTER.norm>
0.232459

>  <SCORE.INTRA>
-12.3478

>  <SCORE.INTRA.DIHEDRAL>
-25.1596

>  <SCORE.INTRA.DIHEDRAL.0>
25.9209

>  <SCORE.INTRA.POLAR>
0

>  <SCORE.INTRA.POLAR.0>
0

>  <SCORE.INTRA.REPUL>
0

>  <SCORE.INTRA.REPUL.0>
0

>  <SCORE.INTRA.SOLV>
-0.832933

>  <SCORE.INTRA.SOLV.lig_0>
-47.4815

>  <SCORE.INTRA.VDW>
0.648418

>  <SCORE.INTRA.VDW.0>
-1.57492

>  <SCORE.INTRA.norm>
-0.881989

>  <SCORE.RESTR>
0

>  <SCORE.RESTR.CAVITY>
0

>  <SCORE.RESTR.norm>
0

>  <SCORE.SYSTEM>
0

>  <SCORE.SYSTEM.CONST>
0

>  <SCORE.SYSTEM.DIHEDRAL>
0

>  <SCORE.SYSTEM.SOLV>
0

>  <SCORE.SYSTEM.norm>
0

>  <SCORE.heavy>
14

>  <SCORE.norm>
-0.649529

>  <RMSD>
4.522

$$$$
ligand
 OpenBabel11021811493D
libRbt.so/2013.1/901 2013/11/27
 14 13  0  0  0  0  0  0  0  0999 V2000
   51.7187    3.0992    4.1873 N   0  0  0  0  0  0  0  0  0  0  0  0
   50.4895    3.5438    3.5419 C   0  0  0  0  0  0  0  0  0  0  0  0
   50.3097    2.8606    2.1695 C   0  0  0  0  0  0  0  0  0  0  0  0
   51.3914    3.2142    1.1294 C   0  0  0  0  0  0  0  0  0  0  0  0
   51.4026    2.4699   -0.1389 N   0  0  0  0  0  0  0  0  0  0  0  0
   51.9786    1.1230   -0.2203 C   0  0  0  0  0  0  0  0  0  0  0  0
   51.2214    0.1454   -1.1238 C   0  0  0  0  0  0  0  0  0  0  0  0
   51.3630    0.4823   -2.6179 C   0  0  0  0  0  0  0  0  0  0  0  0
   50.6590   -0.5154   -3.5514 C   0  0  0  0  0  0  0  0  0  0  0  0
   50.9489   -0.3314   -4.9753 N   0  0  0  0  0  0  0  0  0  0  0  0
   49.8348   -0.1446   -5.9210 C   0  0  0  0  0  0  0  0  0  0  0  0
   50.0245   -0.7121   -7.3477 C   0  0  0  0  0  0  0  0  0  0  0  0
   51.2691   -0.2128   -8.1091 C   0  0  0  0  0  0  0  0  0  0  0  0
   51.2534    1.2274   -8.3478 N   0  0  0  0  0  0  0  0  0  0  0  0
  1  2  1  0  0  0  0
  2  3  1  0  0  0  0
  3  4  1  0  0  0  0
  4  5  1  0  0  0  0
  5  6  1  0  0  0  0
  6  7  1  0  0  0  0
  7  8  1  0  0  0  0
  8  9  1  0  0  0  0
  9 10  1  0  0  0  0
 10 11  1  0  0  0  0
 11 12  1  0  0  0  0
 12 13  1  0  0  0  0
 13 14  1  0  0  0  0
M  END
>  <CHROM.1>
-64.04539845,171.79050409,-79.29184912,141.74913935,70.71185502,177.69759176
-171.15800999,-124.54236450,-147.12996202,-55.94060348,-62.46807952,50.99018488
1.16049686,-2.23748410,1.14612569,1.47294581,1.69045852

>  <Name>
ligand

>  <RI>
0

>  <Rbt.Current_Directory>
/home/itssahil/PROJECTS/Mol_Feturizer/New_Systems/rnas/4E8Q

>  <Rbt.Executable>
rbdock ($Id: //depot/dev/client3/rdock/2013.1/src/exe/rbdock.cxx#4 $)

>  <Rbt.Library>
libRbt.so (2013.1, Build901 2013/11/27)

>  <Rbt.Parameter_File>
/export/apps/rDock/src/rDock_2013.1_src/data/scripts/dock_solv.prm

>  <Rbt.Receptor>
prm/pocket_docking_5.prm

>  <SCORE>
-10.6955

>  <SCORE.INTER>
-0.414274

>  <SCORE.INTER.CONST>
1

>  <SCORE.INTER.POLAR>
0

>  <SCORE.INTER.ROT>
11

>  <SCORE.INTER.SOLV>
9.52629

>  <SCORE.INTER.VDW>
-14.3849

>  <SCORE.INTER.norm>
-0.029591

>  <SCORE.INTRA>
-10.2813

>  <SCORE.INTRA.DIHEDRAL>
-21.7823

>  <SCORE.INTRA.DIHEDRAL.0>
25.9209

>  <SCORE.INTRA.POLAR>
0

>  <SCORE.INTRA.POLAR.0>
0

>  <SCORE.INTRA.REPUL>
0

>  <SCORE.INTRA.REPUL.0>
0

>  <SCORE.INTRA.SOLV>
0.546959

>  <SCORE.INTRA.SOLV.lig_0>
-47.4815

>  <SCORE.INTRA.VDW>
0.336415

>  <SCORE.INTRA.VDW.0>
-1.57492

>  <SCORE.INTRA.norm>
-0.734376

>  <SCORE.RESTR>
0

>  <SCORE.RESTR.CAVITY>
0

>  <SCORE.RESTR.norm>
0

>  <SCORE.SYSTEM>
0

>  <SCORE.SYSTEM.CONST>
0

>  <SCORE.SYSTEM.DIHEDRAL>
0

>  <SCORE.SYSTEM.SOLV>
0

>  <SCORE.SYSTEM.norm>
0

>  <SCORE.heavy>
14

>  <SCORE.norm>
-0.763967

>  <RMSD>
4.557

$$$$
ligand
 OpenBabel11021811493D
libRbt.so/2013.1/901 2013/11/27
 14 13  0  0  0  0  0  0  0  0999 V2000
   50.5077    3.2279    3.0976 N   0  0  0  0  0  0  0  0  0  0  0  0
   51.8827    3.2179    2.6133 C   0  0  0  0  0  0  0  0  0  0  0  0
   51.9438    3.6066    1.1207 C   0  0  0  0  0  0  0  0  0  0  0  0
   51.2505    2.6115    0.1690 C   0  0  0  0  0  0  0  0  0  0  0  0
   51.8711    1.2926   -0.0263 N   0  0  0  0  0  0  0  0  0  0  0  0
   51.2057    0.2538   -0.8206 C   0  0  0  0  0  0  0  0  0  0  0  0
   51.3683    0.3909   -2.3372 C   0  0  0  0  0  0  0  0  0  0  0  0
   50.5192   -0.6234   -3.1222 C   0  0  0  0  0  0  0  0  0  0  0  0
   50.6717   -0.5157   -4.6479 C   0  0  0  0  0  0  0  0  0  0  0  0
   50.2545    0.7682   -5.2160 N   0  0  0  0  0  0  0  0  0  0  0  0
   50.5554    1.0655   -6.6273 C   0  0  0  0  0  0  0  0  0  0  0  0
   52.0449    1.2527   -7.0013 C   0  0  0  0  0  0  0  0  0  0  0  0
   52.7815    2.3960   -6.2743 C   0  0  0  0  0  0  0  0  0  0  0  0
   54.1151    2.6492   -6.8117 N   0  0  0  0  0  0  0  0  0  0  0  0
  1  2  1  0  0  0  0
  2  3  1  0  0  0  0
  3  4  1  0  0  0  0
  4  5  1  0  0  0  0
  5  6  1  0  0  0  0
  6  7  1  0  0  0  0
  7  8  1  0  0  0  0
  8  9  1  0  0  0  0
  9 10  1  0  0  0  0
 10 11  1  0  0  0  0
 11 12  1  0  0  0  0
 12 13  1  0  0  0  0
 13 14  1  0  0  0  0
M  END
>  <CHROM.1>
-64.66972049,-69.79552708,174.44713181,80.89069046,-173.30280851,-179.53944417
-61.78595180,170.20917380,-67.58980230,-59.97720578,-171.36274248,51.49793090
1.54222531,-2.56329142,-1.66670300,-0.92567856,-1.83285030

>  <Name>
ligand

>  <RI>
0

>  <Rbt.Current_Directory>
/home/itssahil/PROJECTS/Mol_Feturizer/New_Systems/rnas/4E8Q

>  <Rbt.Executable>
rbdock ($Id: //depot/dev/client3/rdock/2013.1/src/exe/rbdock.cxx#4 $)

>  <Rbt.Library>
libRbt.so (2013.1, Build901 2013/11/27)

>  <Rbt.Parameter_File>
/export/apps/rDock/src/rDock_2013.1_src/data/scripts/dock_solv.prm

>  <Rbt.Receptor>
prm/pocket_docking_5.prm

>  <SCORE>
-11.4855

>  <SCORE.INTER>
0.371458

>  <SCORE.INTER.CONST>
1

>  <SCORE.INTER.POLAR>
0

>  <SCORE.INTER.ROT>
11

>  <SCORE.INTER.SOLV>
10.6899

>  <SCORE.INTER.VDW>
-14.249

>  <SCORE.INTER.norm>
0.0265327

>  <SCORE.INTRA>
-11.857

>  <SCORE.INTRA.DIHEDRAL>
-24.5517

>  <SCORE.INTRA.DIHEDRAL.0>
25.9209

>  <SCORE.INTRA.POLAR>
0

>  <SCORE.INTRA.POLAR.0>
0

>  <SCORE.INTRA.REPUL>
0

>  <SCORE.INTRA.REPUL.0>
0

>  <SCORE.INTRA.SOLV>
-0.0308735

>  <SCORE.INTRA.SOLV.lig_0>
-47.4815

>  <SCORE.INTRA.VDW>
0.434272

>  <SCORE.INTRA.VDW.0>
-1.57492

>  <SCORE.INTRA.norm>
-0.846929

>  <SCORE.RESTR>
0

>  <SCORE.RESTR.CAVITY>
0

>  <SCORE.RESTR.norm>
0

>  <SCORE.SYSTEM>
0

>  <SCORE.SYSTEM.CONST>
0

>  <SCORE.SYSTEM.DIHEDRAL>
0

>  <SCORE.SYSTEM.SOLV>
0

>  <SCORE.SYSTEM.norm>
0

>  <SCORE.heavy>
14

>  <SCORE.norm>
-0.820396

>  <RMSD>
4.560

$$$$
ligand
 OpenBabel11021811493D
libRbt.so/2013.1/901 2013/11/27
 14 13  0  0  0  0  0  0  0  0999 V2000
   51.5388    3.8496    3.8820 N   0  0  0  0  0  0  0  0  0  0  0  0
   51.9322    3.3656    2.5643 C   0  0  0  0  0  0  0  0  0  0  0  0
   50.6958    3.1445    1.6671 C   0  0  0  0  0  0  0  0  0  0  0  0
   51.0149    2.6289    0.2496 C   0  0  0  0  0  0  0  0  0  0  0  0
   51.7129    1.3408    0.1218 N   0  0  0  0  0  0  0  0  0  0  0  0
   51.2742    0.3364   -0.8536 C   0  0  0  0  0  0  0  0  0  0  0  0
   51.6206    0.6513   -2.3118 C   0  0  0  0  0  0  0  0  0  0  0  0
   51.3534   -0.5322   -3.2572 C   0  0  0  0  0  0  0  0  0  0  0  0
   49.8654   -0.7559   -3.5709 C   0  0  0  0  0  0  0  0  0  0  0  0
   49.2936    0.1886   -4.5334 N   0  0  0  0  0  0  0  0  0  0  0  0
   49.5540    0.0011   -5.9713 C   0  0  0  0  0  0  0  0  0  0  0  0
   51.0195    0.1533   -6.4432 C   0  0  0  0  0  0  0  0  0  0  0  0
   51.2712   -0.0957   -7.9441 C   0  0  0  0  0  0  0  0  0  0  0  0
   50.5707    0.8520   -8.8058 N   0  0  0  0  0  0  0  0  0  0  0  0
  1  2  1  0  0  0  0
  2  3  1  0  0  0  0
  3  4  1  0  0  0  0
  4  5  1  0  0  0  0
  5  6  1  0  0  0  0
  6  7  1  0  0  0  0
  7  8  1  0  0  0  0
  8  9  1  0  0  0  0
  9 10  1  0  0  0  0
 10 11  1  0  0  0  0
 11 12  1  0  0  0  0
 12 13  1  0  0  0  0
 13 14  1  0  0  0  0
M  END
>  <CHROM.1>
-179.90111059,60.04302030,135.10679410,74.38862968,170.31583426,75.43655822
76.48626781,78.45260359,-65.05015800,177.97536073,62.61387105,50.90841578
1.08039617,-2.51481568,-1.01518305,-1.38567172,-1.33286672

>  <Name>
ligand

>  <RI>
0

>  <Rbt.Current_Directory>
/home/itssahil/PROJECTS/Mol_Feturizer/New_Systems/rnas/4E8Q

>  <Rbt.Executable>
rbdock ($Id: //depot/dev/client3/rdock/2013.1/src/exe/rbdock.cxx#4 $)

>  <Rbt.Library>
libRbt.so (2013.1, Build901 2013/11/27)

>  <Rbt.Parameter_File>
/export/apps/rDock/src/rDock_2013.1_src/data/scripts/dock_solv.prm

>  <Rbt.Receptor>
prm/pocket_docking_5.prm

>  <SCORE>
-12.1003

>  <SCORE.INTER>
-1.71266

>  <SCORE.INTER.CONST>
1

>  <SCORE.INTER.POLAR>
0

>  <SCORE.INTER.ROT>
11

>  <SCORE.INTER.SOLV>
7.35292

>  <SCORE.INTER.VDW>
-14.5261

>  <SCORE.INTER.norm>
-0.122333

>  <SCORE.INTRA>
-10.3876

>  <SCORE.INTRA.DIHEDRAL>
-22.156

>  <SCORE.INTRA.DIHEDRAL.0>
25.9209

>  <SCORE.INTRA.POLAR>
0

>  <SCORE.INTRA.POLAR.0>
0

>  <SCORE.INTRA.REPUL>
0

>  <SCORE.INTRA.REPUL.0>
0

>  <SCORE.INTRA.SOLV>
-0.701039

>  <SCORE.INTRA.SOLV.lig_0>
-47.4815

>  <SCORE.INTRA.VDW>
1.04088

>  <SCORE.INTRA.VDW.0>
-1.57492

>  <SCORE.INTRA.norm>
-0.741973

>  <SCORE.RESTR>
0

>  <SCORE.RESTR.CAVITY>
0

>  <SCORE.RESTR.norm>
0

>  <SCORE.SYSTEM>
0

>  <SCORE.SYSTEM.CONST>
0

>  <SCORE.SYSTEM.DIHEDRAL>
0

>  <SCORE.SYSTEM.SOLV>
0

>  <SCORE.SYSTEM.norm>
0

>  <SCORE.heavy>
14

>  <SCORE.norm>
-0.864306

>  <RMSD>
4.575

$$$$
ligand
 OpenBabel11021811493D
libRbt.so/2013.1/901 2013/11/27
 14 13  0  0  0  0  0  0  0  0999 V2000
   49.9329    0.0021   -6.9305 N   0  0  0  0  0  0  0  0  0  0  0  0
   50.6281   -0.3511   -5.6988 C   0  0  0  0  0  0  0  0  0  0  0  0
   49.6286   -0.5468   -4.5390 C   0  0  0  0  0  0  0  0  0  0  0  0
   50.2806   -0.7880   -3.1630 C   0  0  0  0  0  0  0  0  0  0  0  0
   51.1475    0.2650   -2.6130 N   0  0  0  0  0  0  0  0  0  0  0  0
   51.6884    0.1655   -1.2528 C   0  0  0  0  0  0  0  0  0  0  0  0
   51.1353    1.1887   -0.2566 C   0  0  0  0  0  0  0  0  0  0  0  0
   51.6050    2.6232   -0.5522 C   0  0  0  0  0  0  0  0  0  0  0  0
   50.9521    3.6897    0.3415 C   0  0  0  0  0  0  0  0  0  0  0  0
   51.1896    3.5155    1.7764 N   0  0  0  0  0  0  0  0  0  0  0  0
   50.3792    4.2796    2.7406 C   0  0  0  0  0  0  0  0  0  0  0  0
   50.6895    4.0655    4.2411 C   0  0  0  0  0  0  0  0  0  0  0  0
   50.4788    2.6335    4.7729 C   0  0  0  0  0  0  0  0  0  0  0  0
   50.7592    2.5070    6.2000 N   0  0  0  0  0  0  0  0  0  0  0  0
  1  2  1  0  0  0  0
  2  3  1  0  0  0  0
  3  4  1  0  0  0  0
  4  5  1  0  0  0  0
  5  6  1  0  0  0  0
  6  7  1  0  0  0  0
  7  8  1  0  0  0  0
  8  9  1  0  0  0  0
  9 10  1  0  0  0  0
 10 11  1  0  0  0  0
 11 12  1  0  0  0  0
 12 13  1  0  0  0  0
 13 14  1  0  0  0  0
M  END
>  <CHROM.1>
-174.31878738,61.08504295,173.61089321,-111.94046822,-69.40557664,174.04372387
59.66136246,-166.28136837,-179.24759843,-61.90550872,-178.67021897,50.74962410
1.66071461,-0.35236609,-2.40560609,1.51749677,2.02638155

>  <Name>
ligand

>  <RI>
0

>  <Rbt.Current_Directory>
/home/itssahil/PROJECTS/Mol_Feturizer/New_Systems/rnas/4E8Q

>  <Rbt.Executable>
rbdock ($Id: //depot/dev/client3/rdock/2013.1/src/exe/rbdock.cxx#4 $)

>  <Rbt.Library>
libRbt.so (2013.1, Build901 2013/11/27)

>  <Rbt.Parameter_File>
/export/apps/rDock/src/rDock_2013.1_src/data/scripts/dock_solv.prm

>  <Rbt.Receptor>
prm/pocket_docking_7.prm

>  <SCORE>
-10.7124

>  <SCORE.INTER>
1.53983

>  <SCORE.INTER.CONST>
1

>  <SCORE.INTER.POLAR>
0

>  <SCORE.INTER.ROT>
11

>  <SCORE.INTER.SOLV>
9.27105

>  <SCORE.INTER.VDW>
-12.9971

>  <SCORE.INTER.norm>
0.109988

>  <SCORE.INTRA>
-12.2522

>  <SCORE.INTRA.DIHEDRAL>
-23.9695

>  <SCORE.INTRA.DIHEDRAL.0>
25.9209

>  <SCORE.INTRA.POLAR>
0

>  <SCORE.INTRA.POLAR.0>
0

>  <SCORE.INTRA.REPUL>
0

>  <SCORE.INTRA.REPUL.0>
0

>  <SCORE.INTRA.SOLV>
-0.857612

>  <SCORE.INTRA.SOLV.lig_0>
-47.4815

>  <SCORE.INTRA.VDW>
0.161329

>  <SCORE.INTRA.VDW.0>
-1.57492

>  <SCORE.INTRA.norm>
-0.875158

>  <SCORE.RESTR>
0

>  <SCORE.RESTR.CAVITY>
0

>  <SCORE.RESTR.norm>
0

>  <SCORE.SYSTEM>
0

>  <SCORE.SYSTEM.CONST>
0

>  <SCORE.SYSTEM.DIHEDRAL>
0

>  <SCORE.SYSTEM.SOLV>
0

>  <SCORE.SYSTEM.norm>
0

>  <SCORE.heavy>
14

>  <SCORE.norm>
-0.76517

>  <RMSD>
4.618

$$$$
ligand
 OpenBabel11021811493D
libRbt.so/2013.1/901 2013/11/27
 14 13  0  0  0  0  0  0  0  0999 V2000
   52.3547    4.3655    1.9615 N   0  0  0  0  0  0  0  0  0  0  0  0
   51.5138    3.1848    2.1169 C   0  0  0  0  0  0  0  0  0  0  0  0
   51.0848    2.6292    0.7422 C   0  0  0  0  0  0  0  0  0  0  0  0
   52.2476    2.1405   -0.1443 C   0  0  0  0  0  0  0  0  0  0  0  0
   51.9226    1.5644   -1.4577 N   0  0  0  0  0  0  0  0  0  0  0  0
   51.4111    0.1944   -1.5770 C   0  0  0  0  0  0  0  0  0  0  0  0
   51.3974   -0.3730   -2.9994 C   0  0  0  0  0  0  0  0  0  0  0  0
   50.4071    0.3563   -3.9230 C   0  0  0  0  0  0  0  0  0  0  0  0
   50.3305   -0.2297   -5.3419 C   0  0  0  0  0  0  0  0  0  0  0  0
   49.3772    0.4392   -6.2303 N   0  0  0  0  0  0  0  0  0  0  0  0
   49.6532    1.8139   -6.6823 C   0  0  0  0  0  0  0  0  0  0  0  0
   50.5059    1.9720   -7.9635 C   0  0  0  0  0  0  0  0  0  0  0  0
   51.9493    1.4357   -7.8801 C   0  0  0  0  0  0  0  0  0  0  0  0
   52.7198    1.6773   -9.0965 N   0  0  0  0  0  0  0  0  0  0  0  0
  1  2  1  0  0  0  0
  2  3  1  0  0  0  0
  3  4  1  0  0  0  0
  4  5  1  0  0  0  0
  5  6  1  0  0  0  0
  6  7  1  0  0  0  0
  7  8  1  0  0  0  0
  8  9  1  0  0  0  0
  9 10  1  0  0  0  0
 10 11  1  0  0  0  0
 11 12  1  0  0  0  0
 12 13  1  0  0  0  0
 13 14  1  0  0  0  0
M  END
>  <CHROM.1>
62.79014494,178.47910734,-77.54642117,-167.61903292,-66.39493256,-177.62871396
179.10513216,68.74923227,87.66100711,-63.11715038,-177.02739236,51.20519054
1.51197637,-3.46243618,-1.37315611,-1.07347481,-1.57956832

>  <Name>
ligand

>  <RI>
0

>  <Rbt.Current_Directory>
/home/itssahil/PROJECTS/Mol_Feturizer/New_Systems/rnas/4E8Q

>  <Rbt.Executable>
rbdock ($Id: //depot/dev/client3/rdock/2013.1/src/exe/rbdock.cxx#4 $)

>  <Rbt.Library>
libRbt.so (2013.1, Build901 2013/11/27)

>  <Rbt.Parameter_File>
/export/apps/rDock/src/rDock_2013.1_src/data/scripts/dock_solv.prm

>  <Rbt.Receptor>
prm/pocket_docking_4.prm

>  <SCORE>
-10.478

>  <SCORE.INTER>
1.62106

>  <SCORE.INTER.CONST>
1

>  <SCORE.INTER.POLAR>
0

>  <SCORE.INTER.ROT>
11

>  <SCORE.INTER.SOLV>
7.03447

>  <SCORE.INTER.VDW>
-12.1974

>  <SCORE.INTER.norm>
0.11579

>  <SCORE.INTRA>
-12.099

>  <SCORE.INTRA.DIHEDRAL>
-24.6867

>  <SCORE.INTRA.DIHEDRAL.0>
25.9209

>  <SCORE.INTRA.POLAR>
0

>  <SCORE.INTRA.POLAR.0>
0

>  <SCORE.INTRA.REPUL>
0

>  <SCORE.INTRA.REPUL.0>
0

>  <SCORE.INTRA.SOLV>
-0.78599

>  <SCORE.INTRA.SOLV.lig_0>
-47.4815

>  <SCORE.INTRA.VDW>
0.637292

>  <SCORE.INTRA.VDW.0>
-1.57492

>  <SCORE.INTRA.norm>
-0.864217

>  <SCORE.RESTR>
0

>  <SCORE.RESTR.CAVITY>
0

>  <SCORE.RESTR.norm>
0

>  <SCORE.SYSTEM>
0

>  <SCORE.SYSTEM.CONST>
0

>  <SCORE.SYSTEM.DIHEDRAL>
0

>  <SCORE.SYSTEM.SOLV>
0

>  <SCORE.SYSTEM.norm>
0

>  <SCORE.heavy>
14

>  <SCORE.norm>
-0.748426

>  <RMSD>
4.624

$$$$
ligand
 OpenBabel11021811493D
libRbt.so/2013.1/901 2013/11/27
 14 13  0  0  0  0  0  0  0  0999 V2000
   53.3116    4.1037   -6.7975 N   0  0  0  0  0  0  0  0  0  0  0  0
   52.3467    3.0945   -7.2166 C   0  0  0  0  0  0  0  0  0  0  0  0
   52.8980    1.6727   -6.9777 C   0  0  0  0  0  0  0  0  0  0  0  0
   51.9583    0.5357   -7.4261 C   0  0  0  0  0  0  0  0  0  0  0  0
   50.6463    0.4225   -6.7712 N   0  0  0  0  0  0  0  0  0  0  0  0
   50.4881   -0.3261   -5.5193 C   0  0  0  0  0  0  0  0  0  0  0  0
   51.1204    0.3271   -4.2868 C   0  0  0  0  0  0  0  0  0  0  0  0
   50.8242   -0.4403   -2.9871 C   0  0  0  0  0  0  0  0  0  0  0  0
   51.4542    0.1889   -1.7342 C   0  0  0  0  0  0  0  0  0  0  0  0
   51.0423    1.5693   -1.4689 N   0  0  0  0  0  0  0  0  0  0  0  0
   51.2217    2.1297   -0.1182 C   0  0  0  0  0  0  0  0  0  0  0  0
   52.6762    2.3303    0.3693 C   0  0  0  0  0  0  0  0  0  0  0  0
   52.8348    2.8884    1.7980 C   0  0  0  0  0  0  0  0  0  0  0  0
   52.2247    4.2037    1.9686 N   0  0  0  0  0  0  0  0  0  0  0  0
  1  2  1  0  0  0  0
  2  3  1  0  0  0  0
  3  4  1  0  0  0  0
  4  5  1  0  0  0  0
  5  6  1  0  0  0  0
  6  7  1  0  0  0  0
  7  8  1  0  0  0  0
  8  9  1  0  0  0  0
  9 10  1  0  0  0  0
 10 11  1  0  0  0  0
 11 12  1  0  0  0  0
 12 13  1  0  0  0  0
 13 14  1  0  0  0  0
M  END
>  <CHROM.1>
-178.49738530,-62.11812010,-86.28559082,70.28980487,175.24373636,179.65866684
58.59703518,160.84930587,66.73076634,-178.67654375,-60.35679003,51.78910725
1.62104733,-3.36916657,-1.63056756,1.06006896,1.46151093

>  <Name>
ligand

>  <RI>
0

>  <Rbt.Current_Directory>
/home/itssahil/PROJECTS/Mol_Feturizer/New_Systems/rnas/4E8Q

>  <Rbt.Executable>
rbdock ($Id: //depot/dev/client3/rdock/2013.1/src/exe/rbdock.cxx#4 $)

>  <Rbt.Library>
libRbt.so (2013.1, Build901 2013/11/27)

>  <Rbt.Parameter_File>
/export/apps/rDock/src/rDock_2013.1_src/data/scripts/dock_solv.prm

>  <Rbt.Receptor>
prm/pocket_docking_5.prm

>  <SCORE>
-11.4619

>  <SCORE.INTER>
0.700272

>  <SCORE.INTER.CONST>
1

>  <SCORE.INTER.POLAR>
0

>  <SCORE.INTER.ROT>
11

>  <SCORE.INTER.SOLV>
5.55714

>  <SCORE.INTER.VDW>
-12.3189

>  <SCORE.INTER.norm>
0.0500194

>  <SCORE.INTRA>
-12.1622

>  <SCORE.INTRA.DIHEDRAL>
-24.9121

>  <SCORE.INTRA.DIHEDRAL.0>
25.9209

>  <SCORE.INTRA.POLAR>
0

>  <SCORE.INTRA.POLAR.0>
0

>  <SCORE.INTRA.REPUL>
0

>  <SCORE.INTRA.REPUL.0>
0

>  <SCORE.INTRA.SOLV>
-0.760323

>  <SCORE.INTRA.SOLV.lig_0>
-47.4815

>  <SCORE.INTRA.VDW>
0.674

>  <SCORE.INTRA.VDW.0>
-1.57492

>  <SCORE.INTRA.norm>
-0.86873

>  <SCORE.RESTR>
0

>  <SCORE.RESTR.CAVITY>
0

>  <SCORE.RESTR.norm>
0

>  <SCORE.SYSTEM>
0

>  <SCORE.SYSTEM.CONST>
0

>  <SCORE.SYSTEM.DIHEDRAL>
0

>  <SCORE.SYSTEM.SOLV>
0

>  <SCORE.SYSTEM.norm>
0

>  <SCORE.heavy>
14

>  <SCORE.norm>
-0.818711

>  <RMSD>
4.625

$$$$
ligand
 OpenBabel11021811493D
libRbt.so/2013.1/901 2013/11/27
 14 13  0  0  0  0  0  0  0  0999 V2000
   53.4919    1.8995    1.0889 N   0  0  0  0  0  0  0  0  0  0  0  0
   52.4890    2.9267    1.3427 C   0  0  0  0  0  0  0  0  0  0  0  0
   51.1800    2.6174    0.5855 C   0  0  0  0  0  0  0  0  0  0  0  0
   51.3216    2.5691   -0.9489 C   0  0  0  0  0  0  0  0  0  0  0  0
   52.1186    1.4821   -1.5372 N   0  0  0  0  0  0  0  0  0  0  0  0
   51.5005    0.2018   -1.8996 C   0  0  0  0  0  0  0  0  0  0  0  0
   50.7517    0.1964   -3.2355 C   0  0  0  0  0  0  0  0  0  0  0  0
   49.8843   -1.0592   -3.4279 C   0  0  0  0  0  0  0  0  0  0  0  0
   49.0434   -1.0449   -4.7145 C   0  0  0  0  0  0  0  0  0  0  0  0
   49.8219   -1.0097   -5.9547 N   0  0  0  0  0  0  0  0  0  0  0  0
   50.4274    0.2603   -6.3916 C   0  0  0  0  0  0  0  0  0  0  0  0
   51.6563    0.1651   -7.3267 C   0  0  0  0  0  0  0  0  0  0  0  0
   52.3650    1.4978   -7.6424 C   0  0  0  0  0  0  0  0  0  0  0  0
   51.4990    2.4592   -8.3185 N   0  0  0  0  0  0  0  0  0  0  0  0
  1  2  1  0  0  0  0
  2  3  1  0  0  0  0
  3  4  1  0  0  0  0
  4  5  1  0  0  0  0
  5  6  1  0  0  0  0
  6  7  1  0  0  0  0
  7  8  1  0  0  0  0
  8  9  1  0  0  0  0
  9 10  1  0  0  0  0
 10 11  1  0  0  0  0
 11 12  1  0  0  0  0
 12 13  1  0  0  0  0
 13 14  1  0  0  0  0
M  END
>  <CHROM.1>
-61.34413772,67.13567637,89.37231398,80.18358037,-167.95464227,175.85252349
62.52751728,-77.33079277,156.09911773,-173.46388139,-60.95099623,51.25341120
0.93999897,-3.45566195,-1.30515315,-0.90131487,-1.59067284

>  <Name>
ligand

>  <RI>
0

>  <Rbt.Current_Directory>
/home/itssahil/PROJECTS/Mol_Feturizer/New_Systems/rnas/4E8Q

>  <Rbt.Executable>
rbdock ($Id: //depot/dev/client3/rdock/2013.1/src/exe/rbdock.cxx#4 $)

>  <Rbt.Library>
libRbt.so (2013.1, Build901 2013/11/27)

>  <Rbt.Parameter_File>
/export/apps/rDock/src/rDock_2013.1_src/data/scripts/dock_solv.prm

>  <Rbt.Receptor>
prm/pocket_docking_3.prm

>  <SCORE>
-10.1806

>  <SCORE.INTER>
-0.0706379

>  <SCORE.INTER.CONST>
1

>  <SCORE.INTER.POLAR>
0

>  <SCORE.INTER.ROT>
11

>  <SCORE.INTER.SOLV>
7.82558

>  <SCORE.INTER.VDW>
-13.589

>  <SCORE.INTER.norm>
-0.00504556

>  <SCORE.INTRA>
-10.1154

>  <SCORE.INTRA.DIHEDRAL>
-23.4057

>  <SCORE.INTRA.DIHEDRAL.0>
25.9209

>  <SCORE.INTRA.POLAR>
0

>  <SCORE.INTRA.POLAR.0>
0

>  <SCORE.INTRA.REPUL>
0

>  <SCORE.INTRA.REPUL.0>
0

>  <SCORE.INTRA.SOLV>
1.83648

>  <SCORE.INTRA.SOLV.lig_0>
-47.4815

>  <SCORE.INTRA.VDW>
0.669239

>  <SCORE.INTRA.VDW.0>
-1.57492

>  <SCORE.INTRA.norm>
-0.722528

>  <SCORE.RESTR>
0.00547297

>  <SCORE.RESTR.CAVITY>
0.00547297

>  <SCORE.RESTR.norm>
0.000390927

>  <SCORE.SYSTEM>
0

>  <SCORE.SYSTEM.CONST>
0

>  <SCORE.SYSTEM.DIHEDRAL>
0

>  <SCORE.SYSTEM.SOLV>
0

>  <SCORE.SYSTEM.norm>
0

>  <SCORE.heavy>
14

>  <SCORE.norm>
-0.727183

>  <RMSD>
4.640

$$$$
ligand
 OpenBabel11021811493D
libRbt.so/2013.1/901 2013/11/27
 14 13  0  0  0  0  0  0  0  0999 V2000
   51.0775    4.9300    3.3371 N   0  0  0  0  0  0  0  0  0  0  0  0
   50.5424    4.2047    2.1913 C   0  0  0  0  0  0  0  0  0  0  0  0
   51.5493    3.1480    1.6893 C   0  0  0  0  0  0  0  0  0  0  0  0
   51.0784    2.3448    0.4606 C   0  0  0  0  0  0  0  0  0  0  0  0
   51.9624    1.2901   -0.0581 N   0  0  0  0  0  0  0  0  0  0  0  0
   51.4486    0.2421   -0.9470 C   0  0  0  0  0  0  0  0  0  0  0  0
   51.4898    0.5785   -2.4406 C   0  0  0  0  0  0  0  0  0  0  0  0
   50.8550   -0.5154   -3.3160 C   0  0  0  0  0  0  0  0  0  0  0  0
   50.9578   -0.2438   -4.8254 C   0  0  0  0  0  0  0  0  0  0  0  0
   50.3310    1.0041   -5.2673 N   0  0  0  0  0  0  0  0  0  0  0  0
   50.1539    1.2526   -6.7086 C   0  0  0  0  0  0  0  0  0  0  0  0
   51.4364    1.4856   -7.5419 C   0  0  0  0  0  0  0  0  0  0  0  0
   52.2324    0.2195   -7.9179 C   0  0  0  0  0  0  0  0  0  0  0  0
   51.5244   -0.6415   -8.8607 N   0  0  0  0  0  0  0  0  0  0  0  0
  1  2  1  0  0  0  0
  2  3  1  0  0  0  0
  3  4  1  0  0  0  0
  4  5  1  0  0  0  0
  5  6  1  0  0  0  0
  6  7  1  0  0  0  0
  7  8  1  0  0  0  0
  8  9  1  0  0  0  0
  9 10  1  0  0  0  0
 10 11  1  0  0  0  0
 11 12  1  0  0  0  0
 12 13  1  0  0  0  0
 13 14  1  0  0  0  0
M  END
>  <CHROM.1>
-179.00961483,-178.26052935,162.08741832,88.79770693,-176.21487402,-176.52069321
-59.03351791,-169.10365523,-68.41832355,78.56315318,67.76869076,51.18850221
1.37841631,-2.87185854,1.63096030,-1.39444738,1.30357842

>  <Name>
ligand

>  <RI>
0

>  <Rbt.Current_Directory>
/home/itssahil/PROJECTS/Mol_Feturizer/New_Systems/rnas/4E8Q

>  <Rbt.Executable>
rbdock ($Id: //depot/dev/client3/rdock/2013.1/src/exe/rbdock.cxx#4 $)

>  <Rbt.Library>
libRbt.so (2013.1, Build901 2013/11/27)

>  <Rbt.Parameter_File>
/export/apps/rDock/src/rDock_2013.1_src/data/scripts/dock_solv.prm

>  <Rbt.Receptor>
prm/pocket_docking_5.prm

>  <SCORE>
-11.4958

>  <SCORE.INTER>
-0.239975

>  <SCORE.INTER.CONST>
1

>  <SCORE.INTER.POLAR>
0

>  <SCORE.INTER.ROT>
11

>  <SCORE.INTER.SOLV>
8.14939

>  <SCORE.INTER.VDW>
-13.8098

>  <SCORE.INTER.norm>
-0.0171411

>  <SCORE.INTRA>
-11.2558

>  <SCORE.INTRA.DIHEDRAL>
-23.4084

>  <SCORE.INTRA.DIHEDRAL.0>
25.9209

>  <SCORE.INTRA.POLAR>
0

>  <SCORE.INTRA.POLAR.0>
0

>  <SCORE.INTRA.REPUL>
0

>  <SCORE.INTRA.REPUL.0>
0

>  <SCORE.INTRA.SOLV>
-0.154211

>  <SCORE.INTRA.SOLV.lig_0>
-47.4815

>  <SCORE.INTRA.VDW>
0.525443

>  <SCORE.INTRA.VDW.0>
-1.57492

>  <SCORE.INTRA.norm>
-0.803989

>  <SCORE.RESTR>
0

>  <SCORE.RESTR.CAVITY>
0

>  <SCORE.RESTR.norm>
0

>  <SCORE.SYSTEM>
0

>  <SCORE.SYSTEM.CONST>
0

>  <SCORE.SYSTEM.DIHEDRAL>
0

>  <SCORE.SYSTEM.SOLV>
0

>  <SCORE.SYSTEM.norm>
0

>  <SCORE.heavy>
14

>  <SCORE.norm>
-0.82113

>  <RMSD>
4.667

$$$$
ligand
 OpenBabel11021811493D
libRbt.so/2013.1/901 2013/11/27
 14 13  0  0  0  0  0  0  0  0999 V2000
   52.3376    4.1480   -1.3862 N   0  0  0  0  0  0  0  0  0  0  0  0
   53.1893    3.1905   -0.6911 C   0  0  0  0  0  0  0  0  0  0  0  0
   52.3983    2.4428    0.4033 C   0  0  0  0  0  0  0  0  0  0  0  0
   51.2091    1.6117   -0.1180 C   0  0  0  0  0  0  0  0  0  0  0  0
   51.4857    0.5346   -1.0804 N   0  0  0  0  0  0  0  0  0  0  0  0
   51.5432    0.8043   -2.5214 C   0  0  0  0  0  0  0  0  0  0  0  0
   51.3416   -0.4189   -3.4205 C   0  0  0  0  0  0  0  0  0  0  0  0
   49.9209   -1.0008   -3.3263 C   0  0  0  0  0  0  0  0  0  0  0  0
   49.0020   -0.5936   -4.4892 C   0  0  0  0  0  0  0  0  0  0  0  0
   48.6325    0.8236   -4.5106 N   0  0  0  0  0  0  0  0  0  0  0  0
   49.5907    1.8120   -5.0355 C   0  0  0  0  0  0  0  0  0  0  0  0
   49.9916    1.6769   -6.5236 C   0  0  0  0  0  0  0  0  0  0  0  0
   50.9979    2.7223   -7.0458 C   0  0  0  0  0  0  0  0  0  0  0  0
   51.3998    2.4872   -8.4295 N   0  0  0  0  0  0  0  0  0  0  0  0
  1  2  1  0  0  0  0
  2  3  1  0  0  0  0
  3  4  1  0  0  0  0
  4  5  1  0  0  0  0
  5  6  1  0  0  0  0
  6  7  1  0  0  0  0
  7  8  1  0  0  0  0
  8  9  1  0  0  0  0
  9 10  1  0  0  0  0
 10 11  1  0  0  0  0
 11 12  1  0  0  0  0
 12 13  1  0  0  0  0
 13 14  1  0  0  0  0
M  END
>  <CHROM.1>
61.40859186,59.92073278,-86.96771585,-159.26155200,66.66802790,100.52851500
-68.55672206,79.33493295,62.59165491,-179.87197554,176.25879645,50.93142831
1.44552891,-3.44089781,-1.00802617,-0.96549112,-1.20254096

>  <Name>
ligand

>  <RI>
0

>  <Rbt.Current_Directory>
/home/itssahil/PROJECTS/Mol_Feturizer/New_Systems/rnas/4E8Q

>  <Rbt.Executable>
rbdock ($Id: //depot/dev/client3/rdock/2013.1/src/exe/rbdock.cxx#4 $)

>  <Rbt.Library>
libRbt.so (2013.1, Build901 2013/11/27)

>  <Rbt.Parameter_File>
/export/apps/rDock/src/rDock_2013.1_src/data/scripts/dock_solv.prm

>  <Rbt.Receptor>
prm/pocket_docking_3.prm

>  <SCORE>
-8.49519

>  <SCORE.INTER>
0.104172

>  <SCORE.INTER.CONST>
1

>  <SCORE.INTER.POLAR>
0

>  <SCORE.INTER.ROT>
11

>  <SCORE.INTER.SOLV>
7.8162

>  <SCORE.INTER.VDW>
-13.4693

>  <SCORE.INTER.norm>
0.00744087

>  <SCORE.INTRA>
-8.59937

>  <SCORE.INTRA.DIHEDRAL>
-19.6458

>  <SCORE.INTRA.DIHEDRAL.0>
25.9209

>  <SCORE.INTRA.POLAR>
0

>  <SCORE.INTRA.POLAR.0>
0

>  <SCORE.INTRA.REPUL>
0

>  <SCORE.INTRA.REPUL.0>
0

>  <SCORE.INTRA.SOLV>
1.51946

>  <SCORE.INTRA.SOLV.lig_0>
-47.4815

>  <SCORE.INTRA.VDW>
0.463814

>  <SCORE.INTRA.VDW.0>
-1.57492

>  <SCORE.INTRA.norm>
-0.61424

>  <SCORE.RESTR>
0

>  <SCORE.RESTR.CAVITY>
0

>  <SCORE.RESTR.norm>
0

>  <SCORE.SYSTEM>
0

>  <SCORE.SYSTEM.CONST>
0

>  <SCORE.SYSTEM.DIHEDRAL>
0

>  <SCORE.SYSTEM.SOLV>
0

>  <SCORE.SYSTEM.norm>
0

>  <SCORE.heavy>
14

>  <SCORE.norm>
-0.6068

>  <RMSD>
4.700

$$$$
ligand
 OpenBabel11021811493D
libRbt.so/2013.1/901 2013/11/27
 14 13  0  0  0  0  0  0  0  0999 V2000
   52.7121    4.2760    3.8177 N   0  0  0  0  0  0  0  0  0  0  0  0
   52.5302    3.9464    2.4093 C   0  0  0  0  0  0  0  0  0  0  0  0
   51.2713    3.0769    2.2052 C   0  0  0  0  0  0  0  0  0  0  0  0
   51.0187    2.6446    0.7472 C   0  0  0  0  0  0  0  0  0  0  0  0
   52.0460    1.8331    0.0773 N   0  0  0  0  0  0  0  0  0  0  0  0
   51.9360    1.4991   -1.3471 C   0  0  0  0  0  0  0  0  0  0  0  0
   51.1403    0.2279   -1.6574 C   0  0  0  0  0  0  0  0  0  0  0  0
   50.8538    0.0551   -3.1587 C   0  0  0  0  0  0  0  0  0  0  0  0
   49.8648   -1.0772   -3.4785 C   0  0  0  0  0  0  0  0  0  0  0  0
   49.4401   -1.1423   -4.8787 N   0  0  0  0  0  0  0  0  0  0  0  0
   48.4702   -2.1714   -5.2922 C   0  0  0  0  0  0  0  0  0  0  0  0
   47.5532   -1.8284   -6.4901 C   0  0  0  0  0  0  0  0  0  0  0  0
   48.2649   -1.6149   -7.8413 C   0  0  0  0  0  0  0  0  0  0  0  0
   49.1674   -0.4673   -7.8367 N   0  0  0  0  0  0  0  0  0  0  0  0
  1  2  1  0  0  0  0
  2  3  1  0  0  0  0
  3  4  1  0  0  0  0
  4  5  1  0  0  0  0
  5  6  1  0  0  0  0
  6  7  1  0  0  0  0
  7  8  1  0  0  0  0
  8  9  1  0  0  0  0
  9 10  1  0  0  0  0
 10 11  1  0  0  0  0
 11 12  1  0  0  0  0
 12 13  1  0  0  0  0
 13 14  1  0  0  0  0
M  END
>  <CHROM.1>
-178.37208625,60.49602754,-173.84592631,-87.67790939,170.25651560,-170.37544587
172.14793022,-178.69001205,151.08801432,64.00421282,-63.84951289,50.44763245
0.66107962,-2.33749760,-0.99470322,-0.91243210,-1.60202927

>  <Name>
ligand

>  <RI>
0

>  <Rbt.Current_Directory>
/home/itssahil/PROJECTS/Mol_Feturizer/New_Systems/rnas/4E8Q

>  <Rbt.Executable>
rbdock ($Id: //depot/dev/client3/rdock/2013.1/src/exe/rbdock.cxx#4 $)

>  <Rbt.Library>
libRbt.so (2013.1, Build901 2013/11/27)

>  <Rbt.Parameter_File>
/export/apps/rDock/src/rDock_2013.1_src/data/scripts/dock_solv.prm

>  <Rbt.Receptor>
prm/pocket_docking_5.prm

>  <SCORE>
-12.3876

>  <SCORE.INTER>
-1.08121

>  <SCORE.INTER.CONST>
1

>  <SCORE.INTER.POLAR>
0

>  <SCORE.INTER.ROT>
11

>  <SCORE.INTER.SOLV>
6.88456

>  <SCORE.INTER.VDW>
-13.949

>  <SCORE.INTER.norm>
-0.0772293

>  <SCORE.INTRA>
-11.3064

>  <SCORE.INTRA.DIHEDRAL>
-23.7064

>  <SCORE.INTRA.DIHEDRAL.0>
25.9209

>  <SCORE.INTRA.POLAR>
0

>  <SCORE.INTRA.POLAR.0>
0

>  <SCORE.INTRA.REPUL>
0

>  <SCORE.INTRA.REPUL.0>
0

>  <SCORE.INTRA.SOLV>
0.682959

>  <SCORE.INTRA.SOLV.lig_0>
-47.4815

>  <SCORE.INTRA.VDW>
0.205362

>  <SCORE.INTRA.VDW.0>
-1.57492

>  <SCORE.INTRA.norm>
-0.807598

>  <SCORE.RESTR>
0

>  <SCORE.RESTR.CAVITY>
0

>  <SCORE.RESTR.norm>
0

>  <SCORE.SYSTEM>
0

>  <SCORE.SYSTEM.CONST>
0

>  <SCORE.SYSTEM.DIHEDRAL>
0

>  <SCORE.SYSTEM.SOLV>
0

>  <SCORE.SYSTEM.norm>
0

>  <SCORE.heavy>
14

>  <SCORE.norm>
-0.884828

>  <RMSD>
4.720

$$$$
ligand
 OpenBabel11021811493D
libRbt.so/2013.1/901 2013/11/27
 14 13  0  0  0  0  0  0  0  0999 V2000
   50.6798   -1.5893  -10.6969 N   0  0  0  0  0  0  0  0  0  0  0  0
   51.6109   -1.1296   -9.6738 C   0  0  0  0  0  0  0  0  0  0  0  0
   50.8534   -0.5610   -8.4550 C   0  0  0  0  0  0  0  0  0  0  0  0
   51.7586    0.0078   -7.3443 C   0  0  0  0  0  0  0  0  0  0  0  0
   51.1279    0.4281   -6.0840 N   0  0  0  0  0  0  0  0  0  0  0  0
   50.3017   -0.5011   -5.3051 C   0  0  0  0  0  0  0  0  0  0  0  0
   50.1489   -0.1492   -3.8224 C   0  0  0  0  0  0  0  0  0  0  0  0
   51.4524   -0.3367   -3.0275 C   0  0  0  0  0  0  0  0  0  0  0  0
   51.4719    0.4010   -1.6792 C   0  0  0  0  0  0  0  0  0  0  0  0
   51.6399    1.8527   -1.7776 N   0  0  0  0  0  0  0  0  0  0  0  0
   50.9705    2.7254   -0.7973 C   0  0  0  0  0  0  0  0  0  0  0  0
   51.8687    3.4053    0.2632 C   0  0  0  0  0  0  0  0  0  0  0  0
   52.7086    2.4554    1.1408 C   0  0  0  0  0  0  0  0  0  0  0  0
   53.4767    3.1548    2.1666 N   0  0  0  0  0  0  0  0  0  0  0  0
  1  2  1  0  0  0  0
  2  3  1  0  0  0  0
  3  4  1  0  0  0  0
  4  5  1  0  0  0  0
  5  6  1  0  0  0  0
  6  7  1  0  0  0  0
  7  8  1  0  0  0  0
  8  9  1  0  0  0  0
  9 10  1  0  0  0  0
 10 11  1  0  0  0  0
 11 12  1  0  0  0  0
 12 13  1  0  0  0  0
 13 14  1  0  0  0  0
M  END
>  <CHROM.1>
-177.45323576,-173.13399605,55.82280153,157.98088524,-69.64630514,161.93038642
-74.06411449,146.10697943,107.53812412,-57.54323232,-176.87841603,51.43343618
0.72585831,-3.93510485,-1.74770184,0.79185797,1.34053641

>  <Name>
ligand

>  <RI>
0

>  <Rbt.Current_Directory>
/home/itssahil/PROJECTS/Mol_Feturizer/New_Systems/rnas/4E8Q

>  <Rbt.Executable>
rbdock ($Id: //depot/dev/client3/rdock/2013.1/src/exe/rbdock.cxx#4 $)

>  <Rbt.Library>
libRbt.so (2013.1, Build901 2013/11/27)

>  <Rbt.Parameter_File>
/export/apps/rDock/src/rDock_2013.1_src/data/scripts/dock_solv.prm

>  <Rbt.Receptor>
prm/pocket_docking_6.prm

>  <SCORE>
-9.96958

>  <SCORE.INTER>
0.79789

>  <SCORE.INTER.CONST>
1

>  <SCORE.INTER.POLAR>
0

>  <SCORE.INTER.ROT>
11

>  <SCORE.INTER.SOLV>
6.25434

>  <SCORE.INTER.VDW>
-12.4862

>  <SCORE.INTER.norm>
0.0569921

>  <SCORE.INTRA>
-10.7675

>  <SCORE.INTRA.DIHEDRAL>
-21.1612

>  <SCORE.INTRA.DIHEDRAL.0>
25.9209

>  <SCORE.INTRA.POLAR>
0

>  <SCORE.INTRA.POLAR.0>
0

>  <SCORE.INTRA.REPUL>
0

>  <SCORE.INTRA.REPUL.0>
0

>  <SCORE.INTRA.SOLV>
-1.08686

>  <SCORE.INTRA.SOLV.lig_0>
-47.4815

>  <SCORE.INTRA.VDW>
0.35656

>  <SCORE.INTRA.VDW.0>
-1.57492

>  <SCORE.INTRA.norm>
-0.769105

>  <SCORE.RESTR>
0

>  <SCORE.RESTR.CAVITY>
0

>  <SCORE.RESTR.norm>
0

>  <SCORE.SYSTEM>
0

>  <SCORE.SYSTEM.CONST>
0

>  <SCORE.SYSTEM.DIHEDRAL>
0

>  <SCORE.SYSTEM.SOLV>
0

>  <SCORE.SYSTEM.norm>
0

>  <SCORE.heavy>
14

>  <SCORE.norm>
-0.712113

>  <RMSD>
4.722

$$$$
ligand
 OpenBabel11021811493D
libRbt.so/2013.1/901 2013/11/27
 14 13  0  0  0  0  0  0  0  0999 V2000
   50.9823    3.8353    3.0924 N   0  0  0  0  0  0  0  0  0  0  0  0
   50.9289    4.4569    1.7748 C   0  0  0  0  0  0  0  0  0  0  0  0
   51.8016    3.6822    0.7645 C   0  0  0  0  0  0  0  0  0  0  0  0
   51.3088    2.2552    0.4518 C   0  0  0  0  0  0  0  0  0  0  0  0
   52.1224    1.4228   -0.4472 N   0  0  0  0  0  0  0  0  0  0  0  0
   51.5520    0.2443   -1.1093 C   0  0  0  0  0  0  0  0  0  0  0  0
   51.1163    0.4615   -2.5613 C   0  0  0  0  0  0  0  0  0  0  0  0
   50.4082   -0.7651   -3.1613 C   0  0  0  0  0  0  0  0  0  0  0  0
   49.9727   -0.5801   -4.6238 C   0  0  0  0  0  0  0  0  0  0  0  0
   51.0611   -0.2640   -5.5517 N   0  0  0  0  0  0  0  0  0  0  0  0
   50.8125   -0.3205   -7.0027 C   0  0  0  0  0  0  0  0  0  0  0  0
   51.9953    0.0445   -7.9307 C   0  0  0  0  0  0  0  0  0  0  0  0
   52.4643    1.5125   -7.8752 C   0  0  0  0  0  0  0  0  0  0  0  0
   52.9093    1.9204   -6.5459 N   0  0  0  0  0  0  0  0  0  0  0  0
  1  2  1  0  0  0  0
  2  3  1  0  0  0  0
  3  4  1  0  0  0  0
  4  5  1  0  0  0  0
  5  6  1  0  0  0  0
  6  7  1  0  0  0  0
  7  8  1  0  0  0  0
  8  9  1  0  0  0  0
  9 10  1  0  0  0  0
 10 11  1  0  0  0  0
 11 12  1  0  0  0  0
 12 13  1  0  0  0  0
 13 14  1  0  0  0  0
M  END
>  <CHROM.1>
65.78772315,-176.83866272,-161.41152420,99.12476832,-174.64684103,-179.39253935
58.27083708,168.30407270,179.10758412,-66.47399573,59.72548178,51.38809576
1.27881097,-2.90919563,-1.65012979,-1.09001623,-1.97972615

>  <Name>
ligand

>  <RI>
0

>  <Rbt.Current_Directory>
/home/itssahil/PROJECTS/Mol_Feturizer/New_Systems/rnas/4E8Q

>  <Rbt.Executable>
rbdock ($Id: //depot/dev/client3/rdock/2013.1/src/exe/rbdock.cxx#4 $)

>  <Rbt.Library>
libRbt.so (2013.1, Build901 2013/11/27)

>  <Rbt.Parameter_File>
/export/apps/rDock/src/rDock_2013.1_src/data/scripts/dock_solv.prm

>  <Rbt.Receptor>
prm/pocket_docking_4.prm

>  <SCORE>
-11.4758

>  <SCORE.INTER>
-0.375078

>  <SCORE.INTER.CONST>
1

>  <SCORE.INTER.POLAR>
0

>  <SCORE.INTER.ROT>
11

>  <SCORE.INTER.SOLV>
9.36049

>  <SCORE.INTER.VDW>
-14.3035

>  <SCORE.INTER.norm>
-0.0267913

>  <SCORE.INTRA>
-11.1089

>  <SCORE.INTRA.DIHEDRAL>
-24.2315

>  <SCORE.INTRA.DIHEDRAL.0>
25.9209

>  <SCORE.INTRA.POLAR>
0

>  <SCORE.INTRA.POLAR.0>
0

>  <SCORE.INTRA.REPUL>
0

>  <SCORE.INTRA.REPUL.0>
0

>  <SCORE.INTRA.SOLV>
1.5906

>  <SCORE.INTRA.SOLV.lig_0>
-47.4815

>  <SCORE.INTRA.VDW>
0.211587

>  <SCORE.INTRA.VDW.0>
-1.57492

>  <SCORE.INTRA.norm>
-0.79349

>  <SCORE.RESTR>
0.0081477

>  <SCORE.RESTR.CAVITY>
0.0081477

>  <SCORE.RESTR.norm>
0.000581978

>  <SCORE.SYSTEM>
0

>  <SCORE.SYSTEM.CONST>
0

>  <SCORE.SYSTEM.DIHEDRAL>
0

>  <SCORE.SYSTEM.SOLV>
0

>  <SCORE.SYSTEM.norm>
0

>  <SCORE.heavy>
14

>  <SCORE.norm>
-0.819699

>  <RMSD>
4.770

$$$$
ligand
 OpenBabel11021811493D
libRbt.so/2013.1/901 2013/11/27
 14 13  0  0  0  0  0  0  0  0999 V2000
   51.2357    0.3621   -9.2170 N   0  0  0  0  0  0  0  0  0  0  0  0
   52.2823    0.5617   -8.2220 C   0  0  0  0  0  0  0  0  0  0  0  0
   51.6748    0.7844   -6.8207 C   0  0  0  0  0  0  0  0  0  0  0  0
   50.9181   -0.4306   -6.2481 C   0  0  0  0  0  0  0  0  0  0  0  0
   50.3713   -0.3276   -4.8868 N   0  0  0  0  0  0  0  0  0  0  0  0
   51.2368   -0.0069   -3.7464 C   0  0  0  0  0  0  0  0  0  0  0  0
   50.6386   -0.3119   -2.3700 C   0  0  0  0  0  0  0  0  0  0  0  0
   51.4837    0.2506   -1.2144 C   0  0  0  0  0  0  0  0  0  0  0  0
   51.5145    1.7861   -1.1545 C   0  0  0  0  0  0  0  0  0  0  0  0
   52.2897    2.3403   -0.0421 N   0  0  0  0  0  0  0  0  0  0  0  0
   51.6016    2.6965    1.2110 C   0  0  0  0  0  0  0  0  0  0  0  0
   50.6446    3.9112    1.1636 C   0  0  0  0  0  0  0  0  0  0  0  0
   49.9283    4.2539    2.4856 C   0  0  0  0  0  0  0  0  0  0  0  0
   50.8449    4.6847    3.5371 N   0  0  0  0  0  0  0  0  0  0  0  0
  1  2  1  0  0  0  0
  2  3  1  0  0  0  0
  3  4  1  0  0  0  0
  4  5  1  0  0  0  0
  5  6  1  0  0  0  0
  6  7  1  0  0  0  0
  7  8  1  0  0  0  0
  8  9  1  0  0  0  0
  9 10  1  0  0  0  0
 10 11  1  0  0  0  0
 11 12  1  0  0  0  0
 12 13  1  0  0  0  0
 13 14  1  0  0  0  0
M  END
>  <CHROM.1>
65.25785207,176.72923011,-56.60697423,-163.62504554,-170.62125297,67.01429561
178.67292860,-94.37053161,-69.23936658,179.47011916,65.07093711,51.19034940
1.46805753,-2.53744289,-1.15757834,1.45024879,0.79899084

>  <Name>
ligand

>  <RI>
0

>  <Rbt.Current_Directory>
/home/itssahil/PROJECTS/Mol_Feturizer/New_Systems/rnas/4E8Q

>  <Rbt.Executable>
rbdock ($Id: //depot/dev/client3/rdock/2013.1/src/exe/rbdock.cxx#4 $)

>  <Rbt.Library>
libRbt.so (2013.1, Build901 2013/11/27)

>  <Rbt.Parameter_File>
/export/apps/rDock/src/rDock_2013.1_src/data/scripts/dock_solv.prm

>  <Rbt.Receptor>
prm/pocket_docking_5.prm

>  <SCORE>
-10.6475

>  <SCORE.INTER>
0.478189

>  <SCORE.INTER.CONST>
1

>  <SCORE.INTER.POLAR>
0

>  <SCORE.INTER.ROT>
11

>  <SCORE.INTER.SOLV>
6.34565

>  <SCORE.INTER.VDW>
-12.7298

>  <SCORE.INTER.norm>
0.0341564

>  <SCORE.INTRA>
-11.1257

>  <SCORE.INTRA.DIHEDRAL>
-24.1202

>  <SCORE.INTRA.DIHEDRAL.0>
25.9209

>  <SCORE.INTRA.POLAR>
0

>  <SCORE.INTRA.POLAR.0>
0

>  <SCORE.INTRA.REPUL>
0

>  <SCORE.INTRA.REPUL.0>
0

>  <SCORE.INTRA.SOLV>
-0.626346

>  <SCORE.INTRA.SOLV.lig_0>
-47.4815

>  <SCORE.INTRA.VDW>
1.24756

>  <SCORE.INTRA.VDW.0>
-1.57492

>  <SCORE.INTRA.norm>
-0.794693

>  <SCORE.RESTR>
0

>  <SCORE.RESTR.CAVITY>
0

>  <SCORE.RESTR.norm>
0

>  <SCORE.SYSTEM>
0

>  <SCORE.SYSTEM.CONST>
0

>  <SCORE.SYSTEM.DIHEDRAL>
0

>  <SCORE.SYSTEM.SOLV>
0

>  <SCORE.SYSTEM.norm>
0

>  <SCORE.heavy>
14

>  <SCORE.norm>
-0.760537

>  <RMSD>
4.778

$$$$
ligand
 OpenBabel11021811493D
libRbt.so/2013.1/901 2013/11/27
 14 13  0  0  0  0  0  0  0  0999 V2000
   50.1438    3.2107   -6.3970 N   0  0  0  0  0  0  0  0  0  0  0  0
   49.9306    1.7821   -6.2002 C   0  0  0  0  0  0  0  0  0  0  0  0
   48.9687    1.5261   -5.0205 C   0  0  0  0  0  0  0  0  0  0  0  0
   48.6339    0.0414   -4.7752 C   0  0  0  0  0  0  0  0  0  0  0  0
   49.7295   -0.8618   -4.3921 N   0  0  0  0  0  0  0  0  0  0  0  0
   50.1976   -0.9364   -3.0036 C   0  0  0  0  0  0  0  0  0  0  0  0
   51.0119    0.2696   -2.5262 C   0  0  0  0  0  0  0  0  0  0  0  0
   51.3697    0.1941   -1.0322 C   0  0  0  0  0  0  0  0  0  0  0  0
   52.0670    1.4535   -0.4936 C   0  0  0  0  0  0  0  0  0  0  0  0
   51.2204    2.6476   -0.4414 N   0  0  0  0  0  0  0  0  0  0  0  0
   50.8738    3.3425   -1.6934 C   0  0  0  0  0  0  0  0  0  0  0  0
   51.9625    4.2483   -2.3161 C   0  0  0  0  0  0  0  0  0  0  0  0
   53.2362    3.5291   -2.8043 C   0  0  0  0  0  0  0  0  0  0  0  0
   54.2258    4.4409   -3.3706 N   0  0  0  0  0  0  0  0  0  0  0  0
  1  2  1  0  0  0  0
  2  3  1  0  0  0  0
  3  4  1  0  0  0  0
  4  5  1  0  0  0  0
  5  6  1  0  0  0  0
  6  7  1  0  0  0  0
  7  8  1  0  0  0  0
  8  9  1  0  0  0  0
  9 10  1  0  0  0  0
 10 11  1  0  0  0  0
 11 12  1  0  0  0  0
 12 13  1  0  0  0  0
 13 14  1  0  0  0  0
M  END
>  <CHROM.1>
177.44607700,63.35704425,81.43506229,-73.13208364,174.95095125,-174.33899769
68.11232570,-73.63844502,-77.68709492,64.74119001,-179.55280156,50.96922648
1.77746425,-3.17598938,-2.97089401,0.92435110,2.19650880

>  <Name>
ligand

>  <RI>
0

>  <Rbt.Current_Directory>
/home/itssahil/PROJECTS/Mol_Feturizer/New_Systems/rnas/4E8Q

>  <Rbt.Executable>
rbdock ($Id: //depot/dev/client3/rdock/2013.1/src/exe/rbdock.cxx#4 $)

>  <Rbt.Library>
libRbt.so (2013.1, Build901 2013/11/27)

>  <Rbt.Parameter_File>
/export/apps/rDock/src/rDock_2013.1_src/data/scripts/dock_solv.prm

>  <Rbt.Receptor>
prm/pocket_docking_4.prm

>  <SCORE>
-12.1969

>  <SCORE.INTER>
0.308503

>  <SCORE.INTER.CONST>
1

>  <SCORE.INTER.POLAR>
0

>  <SCORE.INTER.ROT>
11

>  <SCORE.INTER.SOLV>
8.09926

>  <SCORE.INTER.VDW>
-13.4274

>  <SCORE.INTER.norm>
0.0220359

>  <SCORE.INTRA>
-12.5054

>  <SCORE.INTRA.DIHEDRAL>
-24.4316

>  <SCORE.INTRA.DIHEDRAL.0>
25.9209

>  <SCORE.INTRA.POLAR>
0

>  <SCORE.INTRA.POLAR.0>
0

>  <SCORE.INTRA.REPUL>
0

>  <SCORE.INTRA.REPUL.0>
0

>  <SCORE.INTRA.SOLV>
-1.07359

>  <SCORE.INTRA.SOLV.lig_0>
-47.4815

>  <SCORE.INTRA.VDW>
0.247189

>  <SCORE.INTRA.VDW.0>
-1.57492

>  <SCORE.INTRA.norm>
-0.893243

>  <SCORE.RESTR>
0

>  <SCORE.RESTR.CAVITY>
0

>  <SCORE.RESTR.norm>
0

>  <SCORE.SYSTEM>
0

>  <SCORE.SYSTEM.CONST>
0

>  <SCORE.SYSTEM.DIHEDRAL>
0

>  <SCORE.SYSTEM.SOLV>
0

>  <SCORE.SYSTEM.norm>
0

>  <SCORE.heavy>
14

>  <SCORE.norm>
-0.871207

>  <RMSD>
4.780

$$$$
ligand
 OpenBabel11021811493D
libRbt.so/2013.1/901 2013/11/27
 14 13  0  0  0  0  0  0  0  0999 V2000
   52.9053    3.5346   -6.4263 N   0  0  0  0  0  0  0  0  0  0  0  0
   52.4034    2.2167   -6.0569 C   0  0  0  0  0  0  0  0  0  0  0  0
   52.0839    1.3772   -7.3121 C   0  0  0  0  0  0  0  0  0  0  0  0
   51.4633   -0.0036   -7.0205 C   0  0  0  0  0  0  0  0  0  0  0  0
   50.1795   -0.0490   -6.3047 N   0  0  0  0  0  0  0  0  0  0  0  0
   49.8124   -1.2076   -5.4829 C   0  0  0  0  0  0  0  0  0  0  0  0
   49.7391   -0.9396   -3.9768 C   0  0  0  0  0  0  0  0  0  0  0  0
   51.0298   -0.3164   -3.4185 C   0  0  0  0  0  0  0  0  0  0  0  0
   50.9610    0.0232   -1.9210 C   0  0  0  0  0  0  0  0  0  0  0  0
   52.0378    0.8918   -1.4397 N   0  0  0  0  0  0  0  0  0  0  0  0
   52.0816    2.2979   -1.8772 C   0  0  0  0  0  0  0  0  0  0  0  0
   52.7946    3.3011   -0.9398 C   0  0  0  0  0  0  0  0  0  0  0  0
   52.1525    3.4960    0.4486 C   0  0  0  0  0  0  0  0  0  0  0  0
   52.2095    2.2960    1.2781 N   0  0  0  0  0  0  0  0  0  0  0  0
  1  2  1  0  0  0  0
  2  3  1  0  0  0  0
  3  4  1  0  0  0  0
  4  5  1  0  0  0  0
  5  6  1  0  0  0  0
  6  7  1  0  0  0  0
  7  8  1  0  0  0  0
  8  9  1  0  0  0  0
  9 10  1  0  0  0  0
 10 11  1  0  0  0  0
 11 12  1  0  0  0  0
 12 13  1  0  0  0  0
 13 14  1  0  0  0  0
M  END
>  <CHROM.1>
-176.38012188,60.52014850,-152.61072181,112.44059512,-53.94238242,177.33415770
-166.32428457,68.91796034,154.33086454,-63.65167190,65.67618751,51.56085818
1.20826068,-3.60369809,-1.85661348,1.00481340,1.50810302

>  <Name>
ligand

>  <RI>
0

>  <Rbt.Current_Directory>
/home/itssahil/PROJECTS/Mol_Feturizer/New_Systems/rnas/4E8Q

>  <Rbt.Executable>
rbdock ($Id: //depot/dev/client3/rdock/2013.1/src/exe/rbdock.cxx#4 $)

>  <Rbt.Library>
libRbt.so (2013.1, Build901 2013/11/27)

>  <Rbt.Parameter_File>
/export/apps/rDock/src/rDock_2013.1_src/data/scripts/dock_solv.prm

>  <Rbt.Receptor>
prm/pocket_docking_3.prm

>  <SCORE>
-9.74852

>  <SCORE.INTER>
1.03498

>  <SCORE.INTER.CONST>
1

>  <SCORE.INTER.POLAR>
0

>  <SCORE.INTER.ROT>
11

>  <SCORE.INTER.SOLV>
6.95993

>  <SCORE.INTER.VDW>
-12.5633

>  <SCORE.INTER.norm>
0.0739272

>  <SCORE.INTRA>
-10.7835

>  <SCORE.INTRA.DIHEDRAL>
-22.6527

>  <SCORE.INTRA.DIHEDRAL.0>
25.9209

>  <SCORE.INTRA.POLAR>
0

>  <SCORE.INTRA.POLAR.0>
0

>  <SCORE.INTRA.REPUL>
0

>  <SCORE.INTRA.REPUL.0>
0

>  <SCORE.INTRA.SOLV>
1.32301

>  <SCORE.INTRA.SOLV.lig_0>
-47.4815

>  <SCORE.INTRA.VDW>
-0.118666

>  <SCORE.INTRA.VDW.0>
-1.57492

>  <SCORE.INTRA.norm>
-0.77025

>  <SCORE.RESTR>
0

>  <SCORE.RESTR.CAVITY>
0

>  <SCORE.RESTR.norm>
0

>  <SCORE.SYSTEM>
0

>  <SCORE.SYSTEM.CONST>
0

>  <SCORE.SYSTEM.DIHEDRAL>
0

>  <SCORE.SYSTEM.SOLV>
0

>  <SCORE.SYSTEM.norm>
0

>  <SCORE.heavy>
14

>  <SCORE.norm>
-0.696323

>  <RMSD>
4.794

$$$$
ligand
 OpenBabel11021811493D
libRbt.so/2013.1/901 2013/11/27
 14 13  0  0  0  0  0  0  0  0999 V2000
   45.9936   -2.9915   -8.8347 N   0  0  0  0  0  0  0  0  0  0  0  0
   46.3592   -1.8999   -7.9403 C   0  0  0  0  0  0  0  0  0  0  0  0
   47.3180   -2.3912   -6.8350 C   0  0  0  0  0  0  0  0  0  0  0  0
   47.7993   -1.2920   -5.8670 C   0  0  0  0  0  0  0  0  0  0  0  0
   48.7383   -1.6707   -4.8005 N   0  0  0  0  0  0  0  0  0  0  0  0
   49.8242   -0.7714   -4.3945 C   0  0  0  0  0  0  0  0  0  0  0  0
   50.1581   -0.7884   -2.8999 C   0  0  0  0  0  0  0  0  0  0  0  0
   51.2085    0.2659   -2.5115 C   0  0  0  0  0  0  0  0  0  0  0  0
   51.3785    0.4472   -0.9946 C   0  0  0  0  0  0  0  0  0  0  0  0
   52.3596    1.4627   -0.6052 N   0  0  0  0  0  0  0  0  0  0  0  0
   52.2141    2.1482    0.6907 C   0  0  0  0  0  0  0  0  0  0  0  0
   53.5112    2.6555    1.3641 C   0  0  0  0  0  0  0  0  0  0  0  0
   54.3495    3.6539    0.5404 C   0  0  0  0  0  0  0  0  0  0  0  0
   55.5432    4.1144    1.2437 N   0  0  0  0  0  0  0  0  0  0  0  0
  1  2  1  0  0  0  0
  2  3  1  0  0  0  0
  3  4  1  0  0  0  0
  4  5  1  0  0  0  0
  5  6  1  0  0  0  0
  6  7  1  0  0  0  0
  7  8  1  0  0  0  0
  8  9  1  0  0  0  0
  9 10  1  0  0  0  0
 10 11  1  0  0  0  0
 11 12  1  0  0  0  0
 12 13  1  0  0  0  0
 13 14  1  0  0  0  0
M  END
>  <CHROM.1>
177.98427023,-178.74909248,142.40971723,144.41410458,-174.57008320,169.55259633
-179.07117004,153.25460724,151.46453282,58.48859990,178.76251497,50.48244860
0.21018533,-2.98877316,-2.61973268,0.83351902,1.91102532

>  <Name>
ligand

>  <RI>
0

>  <Rbt.Current_Directory>
/home/itssahil/PROJECTS/Mol_Feturizer/New_Systems/rnas/4E8Q

>  <Rbt.Executable>
rbdock ($Id: //depot/dev/client3/rdock/2013.1/src/exe/rbdock.cxx#4 $)

>  <Rbt.Library>
libRbt.so (2013.1, Build901 2013/11/27)

>  <Rbt.Parameter_File>
/export/apps/rDock/src/rDock_2013.1_src/data/scripts/dock_solv.prm

>  <Rbt.Receptor>
prm/pocket_docking_8.prm

>  <SCORE>
-13.8803

>  <SCORE.INTER>
-1.95697

>  <SCORE.INTER.CONST>
1

>  <SCORE.INTER.POLAR>
0

>  <SCORE.INTER.ROT>
11

>  <SCORE.INTER.SOLV>
11.6701

>  <SCORE.INTER.VDW>
-16.128

>  <SCORE.INTER.norm>
-0.139783

>  <SCORE.INTRA>
-11.9234

>  <SCORE.INTRA.DIHEDRAL>
-22.6671

>  <SCORE.INTRA.DIHEDRAL.0>
25.9209

>  <SCORE.INTRA.POLAR>
0

>  <SCORE.INTRA.POLAR.0>
0

>  <SCORE.INTRA.REPUL>
0

>  <SCORE.INTRA.REPUL.0>
0

>  <SCORE.INTRA.SOLV>
-1.81423

>  <SCORE.INTRA.SOLV.lig_0>
-47.4815

>  <SCORE.INTRA.VDW>
0.317294

>  <SCORE.INTRA.VDW.0>
-1.57492

>  <SCORE.INTRA.norm>
-0.85167

>  <SCORE.RESTR>
0

>  <SCORE.RESTR.CAVITY>
0

>  <SCORE.RESTR.norm>
0

>  <SCORE.SYSTEM>
0

>  <SCORE.SYSTEM.CONST>
0

>  <SCORE.SYSTEM.DIHEDRAL>
0

>  <SCORE.SYSTEM.SOLV>
0

>  <SCORE.SYSTEM.norm>
0

>  <SCORE.heavy>
14

>  <SCORE.norm>
-0.991453

>  <RMSD>
4.796

$$$$
ligand
 OpenBabel11021811493D
libRbt.so/2013.1/901 2013/11/27
 14 13  0  0  0  0  0  0  0  0999 V2000
   50.5131    3.6227    3.3859 N   0  0  0  0  0  0  0  0  0  0  0  0
   51.5650    3.5121    2.3827 C   0  0  0  0  0  0  0  0  0  0  0  0
   51.0547    2.7697    1.1293 C   0  0  0  0  0  0  0  0  0  0  0  0
   52.1319    2.4993    0.0600 C   0  0  0  0  0  0  0  0  0  0  0  0
   51.7379    1.7599   -1.1487 N   0  0  0  0  0  0  0  0  0  0  0  0
   51.5472    0.3055   -1.1171 C   0  0  0  0  0  0  0  0  0  0  0  0
   50.7016   -0.2644   -2.2596 C   0  0  0  0  0  0  0  0  0  0  0  0
   51.3407   -0.0453   -3.6414 C   0  0  0  0  0  0  0  0  0  0  0  0
   50.4381   -0.4517   -4.8173 C   0  0  0  0  0  0  0  0  0  0  0  0
   49.1442    0.2333   -4.8615 N   0  0  0  0  0  0  0  0  0  0  0  0
   49.1027    1.6828   -5.1219 C   0  0  0  0  0  0  0  0  0  0  0  0
   49.4142    2.1442   -6.5653 C   0  0  0  0  0  0  0  0  0  0  0  0
   49.2484    3.6528   -6.8387 C   0  0  0  0  0  0  0  0  0  0  0  0
   49.4968    4.0116   -8.2320 N   0  0  0  0  0  0  0  0  0  0  0  0
  1  2  1  0  0  0  0
  2  3  1  0  0  0  0
  3  4  1  0  0  0  0
  4  5  1  0  0  0  0
  5  6  1  0  0  0  0
  6  7  1  0  0  0  0
  7  8  1  0  0  0  0
  8  9  1  0  0  0  0
  9 10  1  0  0  0  0
 10 11  1  0  0  0  0
 11 12  1  0  0  0  0
 12 13  1  0  0  0  0
 13 14  1  0  0  0  0
M  END
>  <CHROM.1>
-175.08238942,178.17946366,-76.63650919,160.05917036,62.96973727,-172.92563190
57.75772199,66.67695249,72.62045307,175.05851396,-177.31172869,50.53130271
1.81635100,-2.68896640,0.72037684,-1.27851915,0.66936415

>  <Name>
ligand

>  <RI>
0

>  <Rbt.Current_Directory>
/home/itssahil/PROJECTS/Mol_Feturizer/New_Systems/rnas/4E8Q

>  <Rbt.Executable>
rbdock ($Id: //depot/dev/client3/rdock/2013.1/src/exe/rbdock.cxx#4 $)

>  <Rbt.Library>
libRbt.so (2013.1, Build901 2013/11/27)

>  <Rbt.Parameter_File>
/export/apps/rDock/src/rDock_2013.1_src/data/scripts/dock_solv.prm

>  <Rbt.Receptor>
prm/pocket_docking_5.prm

>  <SCORE>
-12.2051

>  <SCORE.INTER>
0.0698997

>  <SCORE.INTER.CONST>
1

>  <SCORE.INTER.POLAR>
0

>  <SCORE.INTER.ROT>
11

>  <SCORE.INTER.SOLV>
7.69376

>  <SCORE.INTER.VDW>
-13.4513

>  <SCORE.INTER.norm>
0.00499284

>  <SCORE.INTRA>
-12.275

>  <SCORE.INTRA.DIHEDRAL>
-24.7638

>  <SCORE.INTRA.DIHEDRAL.0>
25.9209

>  <SCORE.INTRA.POLAR>
0

>  <SCORE.INTRA.POLAR.0>
0

>  <SCORE.INTRA.REPUL>
0

>  <SCORE.INTRA.REPUL.0>
0

>  <SCORE.INTRA.SOLV>
-1.33933

>  <SCORE.INTRA.SOLV.lig_0>
-47.4815

>  <SCORE.INTRA.VDW>
0.776554

>  <SCORE.INTRA.VDW.0>
-1.57492

>  <SCORE.INTRA.norm>
-0.876787

>  <SCORE.RESTR>
0

>  <SCORE.RESTR.CAVITY>
0

>  <SCORE.RESTR.norm>
0

>  <SCORE.SYSTEM>
0

>  <SCORE.SYSTEM.CONST>
0

>  <SCORE.SYSTEM.DIHEDRAL>
0

>  <SCORE.SYSTEM.SOLV>
0

>  <SCORE.SYSTEM.norm>
0

>  <SCORE.heavy>
14

>  <SCORE.norm>
-0.871794

>  <RMSD>
4.811

$$$$
ligand
 OpenBabel11021811493D
libRbt.so/2013.1/901 2013/11/27
 14 13  0  0  0  0  0  0  0  0999 V2000
   52.5141    3.1178   -6.9940 N   0  0  0  0  0  0  0  0  0  0  0  0
   52.4501    2.1213   -8.0561 C   0  0  0  0  0  0  0  0  0  0  0  0
   52.0764    0.7351   -7.4891 C   0  0  0  0  0  0  0  0  0  0  0  0
   50.6815    0.6629   -6.8365 C   0  0  0  0  0  0  0  0  0  0  0  0
   50.4457    1.4501   -5.6169 N   0  0  0  0  0  0  0  0  0  0  0  0
   49.5404    0.9669   -4.5683 C   0  0  0  0  0  0  0  0  0  0  0  0
   49.8815   -0.4137   -4.0000 C   0  0  0  0  0  0  0  0  0  0  0  0
   51.2693   -0.4600   -3.3384 C   0  0  0  0  0  0  0  0  0  0  0  0
   51.2980    0.1054   -1.9094 C   0  0  0  0  0  0  0  0  0  0  0  0
   51.0883    1.5522   -1.8188 N   0  0  0  0  0  0  0  0  0  0  0  0
   51.1948    2.2168   -0.5083 C   0  0  0  0  0  0  0  0  0  0  0  0
   50.9897    3.7501   -0.4819 C   0  0  0  0  0  0  0  0  0  0  0  0
   51.1104    4.4201    0.9018 C   0  0  0  0  0  0  0  0  0  0  0  0
   52.4353    4.2690    1.4961 N   0  0  0  0  0  0  0  0  0  0  0  0
  1  2  1  0  0  0  0
  2  3  1  0  0  0  0
  3  4  1  0  0  0  0
  4  5  1  0  0  0  0
  5  6  1  0  0  0  0
  6  7  1  0  0  0  0
  7  8  1  0  0  0  0
  8  9  1  0  0  0  0
  9 10  1  0  0  0  0
 10 11  1  0  0  0  0
 11 12  1  0  0  0  0
 12 13  1  0  0  0  0
 13 14  1  0  0  0  0
M  END
>  <CHROM.1>
63.01585024,-65.42953723,-146.93037260,56.39760784,61.04467910,80.44905841
-68.67742144,-175.50187183,178.86048726,-179.83942016,62.19432526,51.21236172
1.74923717,-3.51581334,-1.56404175,1.12333000,1.27573709

>  <Name>
ligand

>  <RI>
0

>  <Rbt.Current_Directory>
/home/itssahil/PROJECTS/Mol_Feturizer/New_Systems/rnas/4E8Q

>  <Rbt.Executable>
rbdock ($Id: //depot/dev/client3/rdock/2013.1/src/exe/rbdock.cxx#4 $)

>  <Rbt.Library>
libRbt.so (2013.1, Build901 2013/11/27)

>  <Rbt.Parameter_File>
/export/apps/rDock/src/rDock_2013.1_src/data/scripts/dock_solv.prm

>  <Rbt.Receptor>
prm/pocket_docking_3.prm

>  <SCORE>
-8.58699

>  <SCORE.INTER>
1.11542

>  <SCORE.INTER.CONST>
1

>  <SCORE.INTER.POLAR>
0

>  <SCORE.INTER.ROT>
11

>  <SCORE.INTER.SOLV>
5.22235

>  <SCORE.INTER.VDW>
-11.9305

>  <SCORE.INTER.norm>
0.0796728

>  <SCORE.INTRA>
-9.70241

>  <SCORE.INTRA.DIHEDRAL>
-23.1563

>  <SCORE.INTRA.DIHEDRAL.0>
25.9209

>  <SCORE.INTRA.POLAR>
0

>  <SCORE.INTRA.POLAR.0>
0

>  <SCORE.INTRA.REPUL>
0

>  <SCORE.INTRA.REPUL.0>
0

>  <SCORE.INTRA.SOLV>
2.76113

>  <SCORE.INTRA.SOLV.lig_0>
-47.4815

>  <SCORE.INTRA.VDW>
0.495187

>  <SCORE.INTRA.VDW.0>
-1.57492

>  <SCORE.INTRA.norm>
-0.693029

>  <SCORE.RESTR>
0

>  <SCORE.RESTR.CAVITY>
0

>  <SCORE.RESTR.norm>
0

>  <SCORE.SYSTEM>
0

>  <SCORE.SYSTEM.CONST>
0

>  <SCORE.SYSTEM.DIHEDRAL>
0

>  <SCORE.SYSTEM.SOLV>
0

>  <SCORE.SYSTEM.norm>
0

>  <SCORE.heavy>
14

>  <SCORE.norm>
-0.613357

>  <RMSD>
4.850

$$$$
ligand
 OpenBabel11021811493D
libRbt.so/2013.1/901 2013/11/27
 14 13  0  0  0  0  0  0  0  0999 V2000
   52.1525    2.2085   -8.2718 N   0  0  0  0  0  0  0  0  0  0  0  0
   52.4354    0.8131   -7.9587 C   0  0  0  0  0  0  0  0  0  0  0  0
   51.2345    0.1538   -7.2475 C   0  0  0  0  0  0  0  0  0  0  0  0
   50.8140    0.8363   -5.9307 C   0  0  0  0  0  0  0  0  0  0  0  0
   49.6974    0.2515   -5.1731 N   0  0  0  0  0  0  0  0  0  0  0  0
   49.8435   -1.0349   -4.4829 C   0  0  0  0  0  0  0  0  0  0  0  0
   49.9418   -0.9467   -2.9571 C   0  0  0  0  0  0  0  0  0  0  0  0
   51.0785   -0.0244   -2.4850 C   0  0  0  0  0  0  0  0  0  0  0  0
   51.1407    0.1581   -0.9600 C   0  0  0  0  0  0  0  0  0  0  0  0
   52.1426    1.1220   -0.4988 N   0  0  0  0  0  0  0  0  0  0  0  0
   51.8741    2.5641   -0.6355 C   0  0  0  0  0  0  0  0  0  0  0  0
   52.7936    3.3601   -1.5917 C   0  0  0  0  0  0  0  0  0  0  0  0
   52.7859    2.9046   -3.0650 C   0  0  0  0  0  0  0  0  0  0  0  0
   53.6564    3.7099   -3.9165 N   0  0  0  0  0  0  0  0  0  0  0  0
  1  2  1  0  0  0  0
  2  3  1  0  0  0  0
  3  4  1  0  0  0  0
  4  5  1  0  0  0  0
  5  6  1  0  0  0  0
  6  7  1  0  0  0  0
  7  8  1  0  0  0  0
  8  9  1  0  0  0  0
  9 10  1  0  0  0  0
 10 11  1  0  0  0  0
 11 12  1  0  0  0  0
 12 13  1  0  0  0  0
 13 14  1  0  0  0  0
M  END
>  <CHROM.1>
-58.64531255,-178.57980711,70.17847869,106.68643049,-55.51712567,176.07973455
-175.00364146,76.24492490,-115.00642365,60.37303720,179.04090834,51.54206298
1.14801206,-3.94080693,-1.71073265,0.91905399,1.53297684

>  <Name>
ligand

>  <RI>
0

>  <Rbt.Current_Directory>
/home/itssahil/PROJECTS/Mol_Feturizer/New_Systems/rnas/4E8Q

>  <Rbt.Executable>
rbdock ($Id: //depot/dev/client3/rdock/2013.1/src/exe/rbdock.cxx#4 $)

>  <Rbt.Library>
libRbt.so (2013.1, Build901 2013/11/27)

>  <Rbt.Parameter_File>
/export/apps/rDock/src/rDock_2013.1_src/data/scripts/dock_solv.prm

>  <Rbt.Receptor>
prm/pocket_docking_5.prm

>  <SCORE>
-11.9716

>  <SCORE.INTER>
-0.316296

>  <SCORE.INTER.CONST>
1

>  <SCORE.INTER.POLAR>
0

>  <SCORE.INTER.ROT>
11

>  <SCORE.INTER.SOLV>
7.41168

>  <SCORE.INTER.VDW>
-13.6148

>  <SCORE.INTER.norm>
-0.0225925

>  <SCORE.INTRA>
-11.6553

>  <SCORE.INTRA.DIHEDRAL>
-23.1414

>  <SCORE.INTRA.DIHEDRAL.0>
25.9209

>  <SCORE.INTRA.POLAR>
0

>  <SCORE.INTRA.POLAR.0>
0

>  <SCORE.INTRA.REPUL>
0

>  <SCORE.INTRA.REPUL.0>
0

>  <SCORE.INTRA.SOLV>
-0.469089

>  <SCORE.INTRA.SOLV.lig_0>
-47.4815

>  <SCORE.INTRA.VDW>
0.14993

>  <SCORE.INTRA.VDW.0>
-1.57492

>  <SCORE.INTRA.norm>
-0.832522

>  <SCORE.RESTR>
0

>  <SCORE.RESTR.CAVITY>
0

>  <SCORE.RESTR.norm>
0

>  <SCORE.SYSTEM>
0

>  <SCORE.SYSTEM.CONST>
0

>  <SCORE.SYSTEM.DIHEDRAL>
0

>  <SCORE.SYSTEM.SOLV>
0

>  <SCORE.SYSTEM.norm>
0

>  <SCORE.heavy>
14

>  <SCORE.norm>
-0.855115

>  <RMSD>
4.852

$$$$
ligand
 OpenBabel11021811493D
libRbt.so/2013.1/901 2013/11/27
 14 13  0  0  0  0  0  0  0  0999 V2000
   48.5149    5.3508   -3.3470 N   0  0  0  0  0  0  0  0  0  0  0  0
   48.1655    3.9978   -3.7625 C   0  0  0  0  0  0  0  0  0  0  0  0
   49.4131    3.2330   -4.2535 C   0  0  0  0  0  0  0  0  0  0  0  0
   49.1350    1.7983   -4.7443 C   0  0  0  0  0  0  0  0  0  0  0  0
   50.2763    0.9854   -5.1909 N   0  0  0  0  0  0  0  0  0  0  0  0
   50.4473   -0.3966   -4.7289 C   0  0  0  0  0  0  0  0  0  0  0  0
   50.3680   -0.5896   -3.2117 C   0  0  0  0  0  0  0  0  0  0  0  0
   51.3163    0.3448   -2.4413 C   0  0  0  0  0  0  0  0  0  0  0  0
   51.2385    0.1906   -0.9139 C   0  0  0  0  0  0  0  0  0  0  0  0
   51.9527    1.2214   -0.1571 N   0  0  0  0  0  0  0  0  0  0  0  0
   51.2035    2.3674    0.3870 C   0  0  0  0  0  0  0  0  0  0  0  0
   51.8014    3.0685    1.6298 C   0  0  0  0  0  0  0  0  0  0  0  0
   50.9534    4.2074    2.2313 C   0  0  0  0  0  0  0  0  0  0  0  0
   51.5850    4.8421    3.3845 N   0  0  0  0  0  0  0  0  0  0  0  0
  1  2  1  0  0  0  0
  2  3  1  0  0  0  0
  3  4  1  0  0  0  0
  4  5  1  0  0  0  0
  5  6  1  0  0  0  0
  6  7  1  0  0  0  0
  7  8  1  0  0  0  0
  8  9  1  0  0  0  0
  9 10  1  0  0  0  0
 10 11  1  0  0  0  0
 11 12  1  0  0  0  0
 12 13  1  0  0  0  0
 13 14  1  0  0  0  0
M  END
>  <CHROM.1>
-178.71283283,-178.16501512,132.69302615,-50.81264496,-52.56470746,178.92935983
-169.85738928,97.96247682,154.33875692,-176.31328982,-178.93260374,50.45501107
2.18687136,-1.79435842,2.05148370,1.01901835,-2.32811178

>  <Name>
ligand

>  <RI>
0

>  <Rbt.Current_Directory>
/home/itssahil/PROJECTS/Mol_Feturizer/New_Systems/rnas/4E8Q

>  <Rbt.Executable>
rbdock ($Id: //depot/dev/client3/rdock/2013.1/src/exe/rbdock.cxx#4 $)

>  <Rbt.Library>
libRbt.so (2013.1, Build901 2013/11/27)

>  <Rbt.Parameter_File>
/export/apps/rDock/src/rDock_2013.1_src/data/scripts/dock_solv.prm

>  <Rbt.Receptor>
prm/pocket_docking_5.prm

>  <SCORE>
-13.3757

>  <SCORE.INTER>
-1.81116

>  <SCORE.INTER.CONST>
1

>  <SCORE.INTER.POLAR>
0

>  <SCORE.INTER.ROT>
11

>  <SCORE.INTER.SOLV>
7.27951

>  <SCORE.INTER.VDW>
-14.5673

>  <SCORE.INTER.norm>
-0.129369

>  <SCORE.INTRA>
-11.5646

>  <SCORE.INTRA.DIHEDRAL>
-22.8066

>  <SCORE.INTRA.DIHEDRAL.0>
25.9209

>  <SCORE.INTRA.POLAR>
0

>  <SCORE.INTRA.POLAR.0>
0

>  <SCORE.INTRA.REPUL>
0

>  <SCORE.INTRA.REPUL.0>
0

>  <SCORE.INTRA.SOLV>
-1.70468

>  <SCORE.INTRA.SOLV.lig_0>
-47.4815

>  <SCORE.INTRA.VDW>
0.691086

>  <SCORE.INTRA.VDW.0>
-1.57492

>  <SCORE.INTRA.norm>
-0.826041

>  <SCORE.RESTR>
0

>  <SCORE.RESTR.CAVITY>
0

>  <SCORE.RESTR.norm>
0

>  <SCORE.SYSTEM>
0

>  <SCORE.SYSTEM.CONST>
0

>  <SCORE.SYSTEM.DIHEDRAL>
0

>  <SCORE.SYSTEM.SOLV>
0

>  <SCORE.SYSTEM.norm>
0

>  <SCORE.heavy>
14

>  <SCORE.norm>
-0.95541

>  <RMSD>
4.858

$$$$
ligand
 OpenBabel11021811493D
libRbt.so/2013.1/901 2013/11/27
 14 13  0  0  0  0  0  0  0  0999 V2000
   49.3257    5.4916   -2.3718 N   0  0  0  0  0  0  0  0  0  0  0  0
   49.4319    4.0937   -2.7717 C   0  0  0  0  0  0  0  0  0  0  0  0
   48.6750    3.8397   -4.0927 C   0  0  0  0  0  0  0  0  0  0  0  0
   48.7524    2.3890   -4.6085 C   0  0  0  0  0  0  0  0  0  0  0  0
   50.0816    1.8164   -4.8692 N   0  0  0  0  0  0  0  0  0  0  0  0
   50.2352    0.4139   -5.2718 C   0  0  0  0  0  0  0  0  0  0  0  0
   50.1088   -0.6061   -4.1364 C   0  0  0  0  0  0  0  0  0  0  0  0
   51.2288   -0.4758   -3.0902 C   0  0  0  0  0  0  0  0  0  0  0  0
   51.1506    0.8089   -2.2499 C   0  0  0  0  0  0  0  0  0  0  0  0
   52.0704    0.8526   -1.1108 N   0  0  0  0  0  0  0  0  0  0  0  0
   52.1634    2.0821   -0.3044 C   0  0  0  0  0  0  0  0  0  0  0  0
   51.0058    2.3610    0.6834 C   0  0  0  0  0  0  0  0  0  0  0  0
   51.1125    3.6706    1.4906 C   0  0  0  0  0  0  0  0  0  0  0  0
   52.2909    3.7169    2.3513 N   0  0  0  0  0  0  0  0  0  0  0  0
  1  2  1  0  0  0  0
  2  3  1  0  0  0  0
  3  4  1  0  0  0  0
  4  5  1  0  0  0  0
  5  6  1  0  0  0  0
  6  7  1  0  0  0  0
  7  8  1  0  0  0  0
  8  9  1  0  0  0  0
  9 10  1  0  0  0  0
 10 11  1  0  0  0  0
 11 12  1  0  0  0  0
 12 13  1  0  0  0  0
 13 14  1  0  0  0  0
M  END
>  <CHROM.1>
178.98474687,-58.10344279,175.71926474,-77.67953624,-64.74744797,68.81903271
170.58505086,174.82287521,75.86163471,-178.63071752,-61.73296672,50.54506892
2.17500026,-2.16826603,1.01086188,-0.99012523,0.75449868

>  <Name>
ligand

>  <RI>
0

>  <Rbt.Current_Directory>
/home/itssahil/PROJECTS/Mol_Feturizer/New_Systems/rnas/4E8Q

>  <Rbt.Executable>
rbdock ($Id: //depot/dev/client3/rdock/2013.1/src/exe/rbdock.cxx#4 $)

>  <Rbt.Library>
libRbt.so (2013.1, Build901 2013/11/27)

>  <Rbt.Parameter_File>
/export/apps/rDock/src/rDock_2013.1_src/data/scripts/dock_solv.prm

>  <Rbt.Receptor>
prm/pocket_docking_4.prm

>  <SCORE>
-12.2977

>  <SCORE.INTER>
-0.12106

>  <SCORE.INTER.CONST>
1

>  <SCORE.INTER.POLAR>
0

>  <SCORE.INTER.ROT>
11

>  <SCORE.INTER.SOLV>
7.96764

>  <SCORE.INTER.VDW>
-13.6699

>  <SCORE.INTER.norm>
-0.00864715

>  <SCORE.INTRA>
-12.1766

>  <SCORE.INTRA.DIHEDRAL>
-24.6796

>  <SCORE.INTRA.DIHEDRAL.0>
25.9209

>  <SCORE.INTRA.POLAR>
0

>  <SCORE.INTRA.POLAR.0>
0

>  <SCORE.INTRA.REPUL>
0

>  <SCORE.INTRA.REPUL.0>
0

>  <SCORE.INTRA.SOLV>
0.0108405

>  <SCORE.INTRA.SOLV.lig_0>
-47.4815

>  <SCORE.INTRA.VDW>
0.157755

>  <SCORE.INTRA.VDW.0>
-1.57492

>  <SCORE.INTRA.norm>
-0.869758

>  <SCORE.RESTR>
0

>  <SCORE.RESTR.CAVITY>
0

>  <SCORE.RESTR.norm>
0

>  <SCORE.SYSTEM>
0

>  <SCORE.SYSTEM.CONST>
0

>  <SCORE.SYSTEM.DIHEDRAL>
0

>  <SCORE.SYSTEM.SOLV>
0

>  <SCORE.SYSTEM.norm>
0

>  <SCORE.heavy>
14

>  <SCORE.norm>
-0.878405

>  <RMSD>
4.859

$$$$
ligand
 OpenBabel11021811493D
libRbt.so/2013.1/901 2013/11/27
 14 13  0  0  0  0  0  0  0  0999 V2000
   53.4723    3.8064   -5.5929 N   0  0  0  0  0  0  0  0  0  0  0  0
   53.8630    4.2013   -4.2450 C   0  0  0  0  0  0  0  0  0  0  0  0
   52.8864    3.6254   -3.1976 C   0  0  0  0  0  0  0  0  0  0  0  0
   53.1485    4.0902   -1.7512 C   0  0  0  0  0  0  0  0  0  0  0  0
   52.2961    3.5460   -0.6834 N   0  0  0  0  0  0  0  0  0  0  0  0
   52.6073    2.2604   -0.0486 C   0  0  0  0  0  0  0  0  0  0  0  0
   51.6337    1.1232   -0.3713 C   0  0  0  0  0  0  0  0  0  0  0  0
   51.5806    0.7913   -1.8723 C   0  0  0  0  0  0  0  0  0  0  0  0
   50.6095   -0.3466   -2.2253 C   0  0  0  0  0  0  0  0  0  0  0  0
   50.3733   -0.5275   -3.6595 N   0  0  0  0  0  0  0  0  0  0  0  0
   49.2006   -1.2991   -4.1066 C   0  0  0  0  0  0  0  0  0  0  0  0
   49.1594   -1.7096   -5.5977 C   0  0  0  0  0  0  0  0  0  0  0  0
   49.0443   -0.5521   -6.6101 C   0  0  0  0  0  0  0  0  0  0  0  0
   50.2033    0.3356   -6.5974 N   0  0  0  0  0  0  0  0  0  0  0  0
  1  2  1  0  0  0  0
  2  3  1  0  0  0  0
  3  4  1  0  0  0  0
  4  5  1  0  0  0  0
  5  6  1  0  0  0  0
  6  7  1  0  0  0  0
  7  8  1  0  0  0  0
  8  9  1  0  0  0  0
  9 10  1  0  0  0  0
 10 11  1  0  0  0  0
 11 12  1  0  0  0  0
 12 13  1  0  0  0  0
 13 14  1  0  0  0  0
M  END
>  <CHROM.1>
-174.98213020,-177.61769153,85.07217118,-110.47647036,60.95862744,-179.94384666
170.16478814,-162.56368343,-167.53214629,-65.60124251,64.14012441,51.43409939
1.38162116,-3.32530827,-0.46082950,-0.93466464,-1.44860094

>  <Name>
ligand

>  <RI>
0

>  <Rbt.Current_Directory>
/home/itssahil/PROJECTS/Mol_Feturizer/New_Systems/rnas/4E8Q

>  <Rbt.Executable>
rbdock ($Id: //depot/dev/client3/rdock/2013.1/src/exe/rbdock.cxx#4 $)

>  <Rbt.Library>
libRbt.so (2013.1, Build901 2013/11/27)

>  <Rbt.Parameter_File>
/export/apps/rDock/src/rDock_2013.1_src/data/scripts/dock_solv.prm

>  <Rbt.Receptor>
prm/pocket_docking_3.prm

>  <SCORE>
-9.58967

>  <SCORE.INTER>
1.73946

>  <SCORE.INTER.CONST>
1

>  <SCORE.INTER.POLAR>
0

>  <SCORE.INTER.ROT>
11

>  <SCORE.INTER.SOLV>
6.39994

>  <SCORE.INTER.VDW>
-11.907

>  <SCORE.INTER.norm>
0.124247

>  <SCORE.INTRA>
-11.3291

>  <SCORE.INTRA.DIHEDRAL>
-23.3305

>  <SCORE.INTRA.DIHEDRAL.0>
25.9209

>  <SCORE.INTRA.POLAR>
0

>  <SCORE.INTRA.POLAR.0>
0

>  <SCORE.INTRA.REPUL>
0

>  <SCORE.INTRA.REPUL.0>
0

>  <SCORE.INTRA.SOLV>
0.717576

>  <SCORE.INTRA.SOLV.lig_0>
-47.4815

>  <SCORE.INTRA.VDW>
-0.0226737

>  <SCORE.INTRA.VDW.0>
-1.57492

>  <SCORE.INTRA.norm>
-0.809224

>  <SCORE.RESTR>
0

>  <SCORE.RESTR.CAVITY>
0

>  <SCORE.RESTR.norm>
0

>  <SCORE.SYSTEM>
0

>  <SCORE.SYSTEM.CONST>
0

>  <SCORE.SYSTEM.DIHEDRAL>
0

>  <SCORE.SYSTEM.SOLV>
0

>  <SCORE.SYSTEM.norm>
0

>  <SCORE.heavy>
14

>  <SCORE.norm>
-0.684976

>  <RMSD>
4.876

$$$$
ligand
 OpenBabel11021811493D
libRbt.so/2013.1/901 2013/11/27
 14 13  0  0  0  0  0  0  0  0999 V2000
   53.4073    2.9802    0.0739 N   0  0  0  0  0  0  0  0  0  0  0  0
   52.2277    2.9521   -0.7823 C   0  0  0  0  0  0  0  0  0  0  0  0
   51.2348    1.8659   -0.3165 C   0  0  0  0  0  0  0  0  0  0  0  0
   51.6979    0.4186   -0.5761 C   0  0  0  0  0  0  0  0  0  0  0  0
   51.8659   -0.0154   -1.9712 N   0  0  0  0  0  0  0  0  0  0  0  0
   50.7157   -0.1125   -2.8767 C   0  0  0  0  0  0  0  0  0  0  0  0
   51.0596   -0.4453   -4.3315 C   0  0  0  0  0  0  0  0  0  0  0  0
   49.8215   -0.4831   -5.2434 C   0  0  0  0  0  0  0  0  0  0  0  0
   49.2417    0.9035   -5.5653 C   0  0  0  0  0  0  0  0  0  0  0  0
   48.7292    1.6373   -4.4059 N   0  0  0  0  0  0  0  0  0  0  0  0
   48.7892    3.1093   -4.3986 C   0  0  0  0  0  0  0  0  0  0  0  0
   50.1540    3.7528   -4.0570 C   0  0  0  0  0  0  0  0  0  0  0  0
   51.2997    3.4639   -5.0479 C   0  0  0  0  0  0  0  0  0  0  0  0
   52.5654    4.0743   -4.6518 N   0  0  0  0  0  0  0  0  0  0  0  0
  1  2  1  0  0  0  0
  2  3  1  0  0  0  0
  3  4  1  0  0  0  0
  4  5  1  0  0  0  0
  5  6  1  0  0  0  0
  6  7  1  0  0  0  0
  7  8  1  0  0  0  0
  8  9  1  0  0  0  0
  9 10  1  0  0  0  0
 10 11  1  0  0  0  0
 11 12  1  0  0  0  0
 12 13  1  0  0  0  0
 13 14  1  0  0  0  0
M  END
>  <CHROM.1>
-71.12898911,-64.24752989,-65.60769930,174.31716694,-177.88690320,73.51665609
-63.56600593,149.18083259,-79.06387772,63.56651748,-178.69066990,50.91468325
1.72137016,-3.15377090,-0.23682647,-1.01794906,-0.40160883

>  <Name>
ligand

>  <RI>
0

>  <Rbt.Current_Directory>
/home/itssahil/PROJECTS/Mol_Feturizer/New_Systems/rnas/4E8Q

>  <Rbt.Executable>
rbdock ($Id: //depot/dev/client3/rdock/2013.1/src/exe/rbdock.cxx#4 $)

>  <Rbt.Library>
libRbt.so (2013.1, Build901 2013/11/27)

>  <Rbt.Parameter_File>
/export/apps/rDock/src/rDock_2013.1_src/data/scripts/dock_solv.prm

>  <Rbt.Receptor>
prm/pocket_docking_3.prm

>  <SCORE>
-10.3662

>  <SCORE.INTER>
1.32238

>  <SCORE.INTER.CONST>
1

>  <SCORE.INTER.POLAR>
0

>  <SCORE.INTER.ROT>
11

>  <SCORE.INTER.SOLV>
10.6966

>  <SCORE.INTER.VDW>
-13.6173

>  <SCORE.INTER.norm>
0.0944561

>  <SCORE.INTRA>
-11.6886

>  <SCORE.INTRA.DIHEDRAL>
-23.5906

>  <SCORE.INTRA.DIHEDRAL.0>
25.9209

>  <SCORE.INTRA.POLAR>
0

>  <SCORE.INTRA.POLAR.0>
0

>  <SCORE.INTRA.REPUL>
0

>  <SCORE.INTRA.REPUL.0>
0

>  <SCORE.INTRA.SOLV>
1.13129

>  <SCORE.INTRA.SOLV.lig_0>
-47.4815

>  <SCORE.INTRA.VDW>
-0.458987

>  <SCORE.INTRA.VDW.0>
-1.57492

>  <SCORE.INTRA.norm>
-0.834902

>  <SCORE.RESTR>
0

>  <SCORE.RESTR.CAVITY>
0

>  <SCORE.RESTR.norm>
0

>  <SCORE.SYSTEM>
0

>  <SCORE.SYSTEM.CONST>
0

>  <SCORE.SYSTEM.DIHEDRAL>
0

>  <SCORE.SYSTEM.SOLV>
0

>  <SCORE.SYSTEM.norm>
0

>  <SCORE.heavy>
14

>  <SCORE.norm>
-0.740446

>  <RMSD>
4.880

$$$$
ligand
 OpenBabel11021811493D
libRbt.so/2013.1/901 2013/11/27
 14 13  0  0  0  0  0  0  0  0999 V2000
   50.5382   -0.4399   -8.0279 N   0  0  0  0  0  0  0  0  0  0  0  0
   49.5211    0.6045   -8.0251 C   0  0  0  0  0  0  0  0  0  0  0  0
   49.7544    1.5973   -6.8664 C   0  0  0  0  0  0  0  0  0  0  0  0
   49.5677    0.9970   -5.4588 C   0  0  0  0  0  0  0  0  0  0  0  0
   50.5099   -0.0429   -5.0186 N   0  0  0  0  0  0  0  0  0  0  0  0
   50.5627   -0.4710   -3.6162 C   0  0  0  0  0  0  0  0  0  0  0  0
   51.2495    0.5105   -2.6621 C   0  0  0  0  0  0  0  0  0  0  0  0
   51.1510    0.0784   -1.1892 C   0  0  0  0  0  0  0  0  0  0  0  0
   51.9354    0.9788   -0.2215 C   0  0  0  0  0  0  0  0  0  0  0  0
   51.4426    2.3550   -0.1297 N   0  0  0  0  0  0  0  0  0  0  0  0
   51.9999    3.2549    0.8952 C   0  0  0  0  0  0  0  0  0  0  0  0
   51.7104    4.7659    0.7326 C   0  0  0  0  0  0  0  0  0  0  0  0
   50.2221    5.1698    0.7445 C   0  0  0  0  0  0  0  0  0  0  0  0
   50.0137    6.5910    0.4835 N   0  0  0  0  0  0  0  0  0  0  0  0
  1  2  1  0  0  0  0
  2  3  1  0  0  0  0
  3  4  1  0  0  0  0
  4  5  1  0  0  0  0
  5  6  1  0  0  0  0
  6  7  1  0  0  0  0
  7  8  1  0  0  0  0
  8  9  1  0  0  0  0
  9 10  1  0  0  0  0
 10 11  1  0  0  0  0
 11 12  1  0  0  0  0
 12 13  1  0  0  0  0
 13 14  1  0  0  0  0
M  END
>  <CHROM.1>
-66.29661418,65.73429234,167.92969693,-75.19664441,174.21705625,174.95463737
64.91080094,171.87798874,165.42681211,60.36809915,-175.52598845,50.72707346
1.85342300,-2.73980687,1.89640225,1.17329900,-2.37093776

>  <Name>
ligand

>  <RI>
0

>  <Rbt.Current_Directory>
/home/itssahil/PROJECTS/Mol_Feturizer/New_Systems/rnas/4E8Q

>  <Rbt.Executable>
rbdock ($Id: //depot/dev/client3/rdock/2013.1/src/exe/rbdock.cxx#4 $)

>  <Rbt.Library>
libRbt.so (2013.1, Build901 2013/11/27)

>  <Rbt.Parameter_File>
/export/apps/rDock/src/rDock_2013.1_src/data/scripts/dock_solv.prm

>  <Rbt.Receptor>
prm/pocket_docking_4.prm

>  <SCORE>
-8.89504

>  <SCORE.INTER>
2.64912

>  <SCORE.INTER.CONST>
1

>  <SCORE.INTER.POLAR>
0

>  <SCORE.INTER.ROT>
11

>  <SCORE.INTER.SOLV>
6.74441

>  <SCORE.INTER.VDW>
-11.4154

>  <SCORE.INTER.norm>
0.189223

>  <SCORE.INTRA>
-11.5442

>  <SCORE.INTRA.DIHEDRAL>
-24.7346

>  <SCORE.INTRA.DIHEDRAL.0>
25.9209

>  <SCORE.INTRA.POLAR>
0

>  <SCORE.INTRA.POLAR.0>
0

>  <SCORE.INTRA.REPUL>
0

>  <SCORE.INTRA.REPUL.0>
0

>  <SCORE.INTRA.SOLV>
1.02882

>  <SCORE.INTRA.SOLV.lig_0>
-47.4815

>  <SCORE.INTRA.VDW>
0.308739

>  <SCORE.INTRA.VDW.0>
-1.57492

>  <SCORE.INTRA.norm>
-0.824583

>  <SCORE.RESTR>
0

>  <SCORE.RESTR.CAVITY>
0

>  <SCORE.RESTR.norm>
0

>  <SCORE.SYSTEM>
0

>  <SCORE.SYSTEM.CONST>
0

>  <SCORE.SYSTEM.DIHEDRAL>
0

>  <SCORE.SYSTEM.SOLV>
0

>  <SCORE.SYSTEM.norm>
0

>  <SCORE.heavy>
14

>  <SCORE.norm>
-0.63536

>  <RMSD>
4.894

$$$$
ligand
 OpenBabel11021811493D
libRbt.so/2013.1/901 2013/11/27
 14 13  0  0  0  0  0  0  0  0999 V2000
   51.8364    3.1091   -8.5542 N   0  0  0  0  0  0  0  0  0  0  0  0
   50.6962    2.3609   -9.0692 C   0  0  0  0  0  0  0  0  0  0  0  0
   49.3887    2.8058   -8.3800 C   0  0  0  0  0  0  0  0  0  0  0  0
   49.3342    2.5267   -6.8648 C   0  0  0  0  0  0  0  0  0  0  0  0
   49.3964    1.1277   -6.4154 N   0  0  0  0  0  0  0  0  0  0  0  0
   49.4909    0.7950   -4.9896 C   0  0  0  0  0  0  0  0  0  0  0  0
   50.0607   -0.5929   -4.6821 C   0  0  0  0  0  0  0  0  0  0  0  0
   50.2320   -0.8468   -3.1748 C   0  0  0  0  0  0  0  0  0  0  0  0
   51.2357    0.0971   -2.4936 C   0  0  0  0  0  0  0  0  0  0  0  0
   51.3079   -0.0338   -1.0365 N   0  0  0  0  0  0  0  0  0  0  0  0
   51.9882    1.0102   -0.2504 C   0  0  0  0  0  0  0  0  0  0  0  0
   51.1308    2.2155    0.2033 C   0  0  0  0  0  0  0  0  0  0  0  0
   51.8664    3.2899    1.0295 C   0  0  0  0  0  0  0  0  0  0  0  0
   52.8954    3.9914    0.2675 N   0  0  0  0  0  0  0  0  0  0  0  0
  1  2  1  0  0  0  0
  2  3  1  0  0  0  0
  3  4  1  0  0  0  0
  4  5  1  0  0  0  0
  5  6  1  0  0  0  0
  6  7  1  0  0  0  0
  7  8  1  0  0  0  0
  8  9  1  0  0  0  0
  9 10  1  0  0  0  0
 10 11  1  0  0  0  0
 11 12  1  0  0  0  0
 12 13  1  0  0  0  0
 13 14  1  0  0  0  0
M  END
>  <CHROM.1>
-63.77129597,-62.54071808,173.54929433,-158.17529481,175.81689806,-63.05125992
173.83094510,-165.98014038,88.00297521,179.74497885,65.78780358,50.77547957
1.56092643,-3.88641444,-2.10845601,1.15872065,2.09546592

>  <Name>
ligand

>  <RI>
0

>  <Rbt.Current_Directory>
/home/itssahil/PROJECTS/Mol_Feturizer/New_Systems/rnas/4E8Q

>  <Rbt.Executable>
rbdock ($Id: //depot/dev/client3/rdock/2013.1/src/exe/rbdock.cxx#4 $)

>  <Rbt.Library>
libRbt.so (2013.1, Build901 2013/11/27)

>  <Rbt.Parameter_File>
/export/apps/rDock/src/rDock_2013.1_src/data/scripts/dock_solv.prm

>  <Rbt.Receptor>
prm/pocket_docking_4.prm

>  <SCORE>
-9.97011

>  <SCORE.INTER>
1.31076

>  <SCORE.INTER.CONST>
1

>  <SCORE.INTER.POLAR>
0

>  <SCORE.INTER.ROT>
11

>  <SCORE.INTER.SOLV>
7.41613

>  <SCORE.INTER.VDW>
-12.5315

>  <SCORE.INTER.norm>
0.0936258

>  <SCORE.INTRA>
-11.2809

>  <SCORE.INTRA.DIHEDRAL>
-24.3925

>  <SCORE.INTRA.DIHEDRAL.0>
25.9209

>  <SCORE.INTRA.POLAR>
0

>  <SCORE.INTRA.POLAR.0>
0

>  <SCORE.INTRA.REPUL>
0

>  <SCORE.INTRA.REPUL.0>
0

>  <SCORE.INTRA.SOLV>
0.292733

>  <SCORE.INTRA.SOLV.lig_0>
-47.4815

>  <SCORE.INTRA.VDW>
0.769002

>  <SCORE.INTRA.VDW.0>
-1.57492

>  <SCORE.INTRA.norm>
-0.805777

>  <SCORE.RESTR>
0

>  <SCORE.RESTR.CAVITY>
0

>  <SCORE.RESTR.norm>
0

>  <SCORE.SYSTEM>
0

>  <SCORE.SYSTEM.CONST>
0

>  <SCORE.SYSTEM.DIHEDRAL>
0

>  <SCORE.SYSTEM.SOLV>
0

>  <SCORE.SYSTEM.norm>
0

>  <SCORE.heavy>
14

>  <SCORE.norm>
-0.712151

>  <RMSD>
4.929

$$$$
ligand
 OpenBabel11021811493D
libRbt.so/2013.1/901 2013/11/27
 14 13  0  0  0  0  0  0  0  0999 V2000
   53.9001    3.0474   -7.7253 N   0  0  0  0  0  0  0  0  0  0  0  0
   52.8286    2.4059   -6.9732 C   0  0  0  0  0  0  0  0  0  0  0  0
   52.4476    1.0500   -7.6049 C   0  0  0  0  0  0  0  0  0  0  0  0
   51.2369    0.3545   -6.9513 C   0  0  0  0  0  0  0  0  0  0  0  0
   51.3466   -0.0465   -5.5406 N   0  0  0  0  0  0  0  0  0  0  0  0
   50.1834    0.0027   -4.6478 C   0  0  0  0  0  0  0  0  0  0  0  0
   50.3642   -0.7100   -3.3044 C   0  0  0  0  0  0  0  0  0  0  0  0
   51.5184   -0.1278   -2.4709 C   0  0  0  0  0  0  0  0  0  0  0  0
   51.2138    1.2498   -1.8609 C   0  0  0  0  0  0  0  0  0  0  0  0
   52.2307    1.7463   -0.9309 N   0  0  0  0  0  0  0  0  0  0  0  0
   51.9384    2.9319   -0.1067 C   0  0  0  0  0  0  0  0  0  0  0  0
   51.0288    2.7203    1.1268 C   0  0  0  0  0  0  0  0  0  0  0  0
   50.7614    3.9721    1.9868 C   0  0  0  0  0  0  0  0  0  0  0  0
   49.9540    3.6906    3.1701 N   0  0  0  0  0  0  0  0  0  0  0  0
  1  2  1  0  0  0  0
  2  3  1  0  0  0  0
  3  4  1  0  0  0  0
  4  5  1  0  0  0  0
  5  6  1  0  0  0  0
  6  7  1  0  0  0  0
  7  8  1  0  0  0  0
  8  9  1  0  0  0  0
  9 10  1  0  0  0  0
 10 11  1  0  0  0  0
 11 12  1  0  0  0  0
 12 13  1  0  0  0  0
 13 14  1  0  0  0  0
M  END
>  <CHROM.1>
-174.82959100,-62.70723540,145.46515100,167.77951264,60.01369050,72.76501766
172.77969755,-169.15951610,77.34681892,178.86874840,-177.06381929,51.49647568
1.59172994,-2.98818114,-1.27509961,1.00236836,1.09629509

>  <Name>
ligand

>  <RI>
0

>  <Rbt.Current_Directory>
/home/itssahil/PROJECTS/Mol_Feturizer/New_Systems/rnas/4E8Q

>  <Rbt.Executable>
rbdock ($Id: //depot/dev/client3/rdock/2013.1/src/exe/rbdock.cxx#4 $)

>  <Rbt.Library>
libRbt.so (2013.1, Build901 2013/11/27)

>  <Rbt.Parameter_File>
/export/apps/rDock/src/rDock_2013.1_src/data/scripts/dock_solv.prm

>  <Rbt.Receptor>
prm/pocket_docking_6.prm

>  <SCORE>
-10.9212

>  <SCORE.INTER>
1.00819

>  <SCORE.INTER.CONST>
1

>  <SCORE.INTER.POLAR>
0

>  <SCORE.INTER.ROT>
11

>  <SCORE.INTER.SOLV>
9.59385

>  <SCORE.INTER.VDW>
-13.4592

>  <SCORE.INTER.norm>
0.0720138

>  <SCORE.INTRA>
-11.9294

>  <SCORE.INTRA.DIHEDRAL>
-23.7171

>  <SCORE.INTRA.DIHEDRAL.0>
25.9209

>  <SCORE.INTRA.POLAR>
0

>  <SCORE.INTRA.POLAR.0>
0

>  <SCORE.INTRA.REPUL>
0

>  <SCORE.INTRA.REPUL.0>
0

>  <SCORE.INTRA.SOLV>
-1.20279

>  <SCORE.INTRA.SOLV.lig_0>
-47.4815

>  <SCORE.INTRA.VDW>
0.530593

>  <SCORE.INTRA.VDW.0>
-1.57492

>  <SCORE.INTRA.norm>
-0.852098

>  <SCORE.RESTR>
0

>  <SCORE.RESTR.CAVITY>
0

>  <SCORE.RESTR.norm>
0

>  <SCORE.SYSTEM>
0

>  <SCORE.SYSTEM.CONST>
0

>  <SCORE.SYSTEM.DIHEDRAL>
0

>  <SCORE.SYSTEM.SOLV>
0

>  <SCORE.SYSTEM.norm>
0

>  <SCORE.heavy>
14

>  <SCORE.norm>
-0.780084

>  <RMSD>
4.941

$$$$
ligand
 OpenBabel11021811493D
libRbt.so/2013.1/901 2013/11/27
 14 13  0  0  0  0  0  0  0  0999 V2000
   50.5956    4.2731   -6.3707 N   0  0  0  0  0  0  0  0  0  0  0  0
   49.1454    4.2420   -6.2255 C   0  0  0  0  0  0  0  0  0  0  0  0
   48.7435    3.7787   -4.8090 C   0  0  0  0  0  0  0  0  0  0  0  0
   49.1735    2.3405   -4.4575 C   0  0  0  0  0  0  0  0  0  0  0  0
   48.6489    1.2400   -5.2799 N   0  0  0  0  0  0  0  0  0  0  0  0
   48.5274   -0.1179   -4.7376 C   0  0  0  0  0  0  0  0  0  0  0  0
   49.7958   -0.9710   -4.8302 C   0  0  0  0  0  0  0  0  0  0  0  0
   50.9829   -0.3596   -4.0666 C   0  0  0  0  0  0  0  0  0  0  0  0
   50.7750   -0.2876   -2.5454 C   0  0  0  0  0  0  0  0  0  0  0  0
   51.7968    0.4736   -1.8229 N   0  0  0  0  0  0  0  0  0  0  0  0
   51.4811    1.0261   -0.4941 C   0  0  0  0  0  0  0  0  0  0  0  0
   52.3252    2.2323   -0.0187 C   0  0  0  0  0  0  0  0  0  0  0  0
   51.9578    2.8055    1.3650 C   0  0  0  0  0  0  0  0  0  0  0  0
   52.7610    3.9676    1.7336 N   0  0  0  0  0  0  0  0  0  0  0  0
  1  2  1  0  0  0  0
  2  3  1  0  0  0  0
  3  4  1  0  0  0  0
  4  5  1  0  0  0  0
  5  6  1  0  0  0  0
  6  7  1  0  0  0  0
  7  8  1  0  0  0  0
  8  9  1  0  0  0  0
  9 10  1  0  0  0  0
 10 11  1  0  0  0  0
 11 12  1  0  0  0  0
 12 13  1  0  0  0  0
 13 14  1  0  0  0  0
M  END
>  <CHROM.1>
-63.15414083,-60.74078639,-154.40350434,-85.29309187,60.34323007,65.06233169
-171.04735685,158.02082328,-157.00308592,179.00765627,-178.07677010,50.47909583
1.75993344,-3.04000124,-3.13488527,1.12062042,3.07903002

>  <Name>
ligand

>  <RI>
0

>  <Rbt.Current_Directory>
/home/itssahil/PROJECTS/Mol_Feturizer/New_Systems/rnas/4E8Q

>  <Rbt.Executable>
rbdock ($Id: //depot/dev/client3/rdock/2013.1/src/exe/rbdock.cxx#4 $)

>  <Rbt.Library>
libRbt.so (2013.1, Build901 2013/11/27)

>  <Rbt.Parameter_File>
/export/apps/rDock/src/rDock_2013.1_src/data/scripts/dock_solv.prm

>  <Rbt.Receptor>
prm/pocket_docking_4.prm

>  <SCORE>
-12.2612

>  <SCORE.INTER>
-1.26393

>  <SCORE.INTER.CONST>
1

>  <SCORE.INTER.POLAR>
0

>  <SCORE.INTER.ROT>
11

>  <SCORE.INTER.SOLV>
9.23684

>  <SCORE.INTER.VDW>
-14.8549

>  <SCORE.INTER.norm>
-0.090281

>  <SCORE.INTRA>
-10.9973

>  <SCORE.INTRA.DIHEDRAL>
-23.8018

>  <SCORE.INTRA.DIHEDRAL.0>
25.9209

>  <SCORE.INTRA.POLAR>
0

>  <SCORE.INTRA.POLAR.0>
0

>  <SCORE.INTRA.REPUL>
0

>  <SCORE.INTRA.REPUL.0>
0

>  <SCORE.INTRA.SOLV>
0.422213

>  <SCORE.INTRA.SOLV.lig_0>
-47.4815

>  <SCORE.INTRA.VDW>
0.692511

>  <SCORE.INTRA.VDW.0>
-1.57492

>  <SCORE.INTRA.norm>
-0.78552

>  <SCORE.RESTR>
0

>  <SCORE.RESTR.CAVITY>
0

>  <SCORE.RESTR.norm>
0

>  <SCORE.SYSTEM>
0

>  <SCORE.SYSTEM.CONST>
0

>  <SCORE.SYSTEM.DIHEDRAL>
0

>  <SCORE.SYSTEM.SOLV>
0

>  <SCORE.SYSTEM.norm>
0

>  <SCORE.heavy>
14

>  <SCORE.norm>
-0.875801

>  <RMSD>
4.943

$$$$
ligand
 OpenBabel11021811493D
libRbt.so/2013.1/901 2013/11/27
 14 13  0  0  0  0  0  0  0  0999 V2000
   48.5251    1.7897   -9.7492 N   0  0  0  0  0  0  0  0  0  0  0  0
   49.6582    0.9404   -9.4030 C   0  0  0  0  0  0  0  0  0  0  0  0
   49.6333    0.5727   -7.9041 C   0  0  0  0  0  0  0  0  0  0  0  0
   50.8030   -0.3190   -7.4420 C   0  0  0  0  0  0  0  0  0  0  0  0
   50.8410   -0.7363   -6.0323 N   0  0  0  0  0  0  0  0  0  0  0  0
   50.9880    0.2494   -4.9556 C   0  0  0  0  0  0  0  0  0  0  0  0
   51.1676   -0.3408   -3.5538 C   0  0  0  0  0  0  0  0  0  0  0  0
   51.2063    0.7343   -2.4545 C   0  0  0  0  0  0  0  0  0  0  0  0
   51.3573    0.1679   -1.0336 C   0  0  0  0  0  0  0  0  0  0  0  0
   51.1109    1.1334    0.0400 N   0  0  0  0  0  0  0  0  0  0  0  0
   52.0468    2.2549    0.2317 C   0  0  0  0  0  0  0  0  0  0  0  0
   51.9948    2.9855    1.5944 C   0  0  0  0  0  0  0  0  0  0  0  0
   50.6074    3.5005    2.0279 C   0  0  0  0  0  0  0  0  0  0  0  0
   50.6188    4.1354    3.3425 N   0  0  0  0  0  0  0  0  0  0  0  0
  1  2  1  0  0  0  0
  2  3  1  0  0  0  0
  3  4  1  0  0  0  0
  4  5  1  0  0  0  0
  5  6  1  0  0  0  0
  6  7  1  0  0  0  0
  7  8  1  0  0  0  0
  8  9  1  0  0  0  0
  9 10  1  0  0  0  0
 10 11  1  0  0  0  0
 11 12  1  0  0  0  0
 12 13  1  0  0  0  0
 13 14  1  0  0  0  0
M  END
>  <CHROM.1>
-179.60800735,-178.88819548,-63.65776583,-173.50887931,-175.51604875,178.82769518
-167.53800725,-67.50459733,-162.35805192,-53.46020296,177.88252660,50.75437515
1.21899156,-3.23515736,1.85531234,1.05422636,-2.04561299

>  <Name>
ligand

>  <RI>
0

>  <Rbt.Current_Directory>
/home/itssahil/PROJECTS/Mol_Feturizer/New_Systems/rnas/4E8Q

>  <Rbt.Executable>
rbdock ($Id: //depot/dev/client3/rdock/2013.1/src/exe/rbdock.cxx#4 $)

>  <Rbt.Library>
libRbt.so (2013.1, Build901 2013/11/27)

>  <Rbt.Parameter_File>
/export/apps/rDock/src/rDock_2013.1_src/data/scripts/dock_solv.prm

>  <Rbt.Receptor>
prm/pocket_docking_8.prm

>  <SCORE>
-11.2966

>  <SCORE.INTER>
1.1624

>  <SCORE.INTER.CONST>
1

>  <SCORE.INTER.POLAR>
0

>  <SCORE.INTER.ROT>
11

>  <SCORE.INTER.SOLV>
8.6638

>  <SCORE.INTER.VDW>
-13.0463

>  <SCORE.INTER.norm>
0.0830287

>  <SCORE.INTRA>
-12.459

>  <SCORE.INTRA.DIHEDRAL>
-24.7607

>  <SCORE.INTRA.DIHEDRAL.0>
25.9209

>  <SCORE.INTRA.POLAR>
0

>  <SCORE.INTRA.POLAR.0>
0

>  <SCORE.INTRA.REPUL>
0

>  <SCORE.INTRA.REPUL.0>
0

>  <SCORE.INTRA.SOLV>
-1.78781

>  <SCORE.INTRA.SOLV.lig_0>
-47.4815

>  <SCORE.INTRA.VDW>
0.815197

>  <SCORE.INTRA.VDW.0>
-1.57492

>  <SCORE.INTRA.norm>
-0.889932

>  <SCORE.RESTR>
0

>  <SCORE.RESTR.CAVITY>
0

>  <SCORE.RESTR.norm>
0

>  <SCORE.SYSTEM>
0

>  <SCORE.SYSTEM.CONST>
0

>  <SCORE.SYSTEM.DIHEDRAL>
0

>  <SCORE.SYSTEM.SOLV>
0

>  <SCORE.SYSTEM.norm>
0

>  <SCORE.heavy>
14

>  <SCORE.norm>
-0.806903

>  <RMSD>
4.947

$$$$
ligand
 OpenBabel11021811493D
libRbt.so/2013.1/901 2013/11/27
 14 13  0  0  0  0  0  0  0  0999 V2000
   53.1600    2.3027   -9.6521 N   0  0  0  0  0  0  0  0  0  0  0  0
   52.1689    1.2806   -9.3386 C   0  0  0  0  0  0  0  0  0  0  0  0
   52.2990    0.8190   -7.8714 C   0  0  0  0  0  0  0  0  0  0  0  0
   51.2329   -0.1998   -7.4217 C   0  0  0  0  0  0  0  0  0  0  0  0
   51.2508   -0.6488   -6.0214 N   0  0  0  0  0  0  0  0  0  0  0  0
   51.0796    0.3046   -4.9194 C   0  0  0  0  0  0  0  0  0  0  0  0
   51.3302   -0.2666   -3.5207 C   0  0  0  0  0  0  0  0  0  0  0  0
   51.2072    0.7933   -2.4128 C   0  0  0  0  0  0  0  0  0  0  0  0
   51.3536    0.2286   -0.9907 C   0  0  0  0  0  0  0  0  0  0  0  0
   51.1555    1.2077    0.0805 N   0  0  0  0  0  0  0  0  0  0  0  0
   52.1833    2.2361    0.3183 C   0  0  0  0  0  0  0  0  0  0  0  0
   52.1774    2.9251    1.7035 C   0  0  0  0  0  0  0  0  0  0  0  0
   50.8730    3.6534    2.0858 C   0  0  0  0  0  0  0  0  0  0  0  0
   50.6051    4.8211    1.2516 N   0  0  0  0  0  0  0  0  0  0  0  0
  1  2  1  0  0  0  0
  2  3  1  0  0  0  0
  3  4  1  0  0  0  0
  4  5  1  0  0  0  0
  5  6  1  0  0  0  0
  6  7  1  0  0  0  0
  7  8  1  0  0  0  0
  8  9  1  0  0  0  0
  9 10  1  0  0  0  0
 10 11  1  0  0  0  0
 11 12  1  0  0  0  0
 12 13  1  0  0  0  0
 13 14  1  0  0  0  0
M  END
>  <CHROM.1>
176.36136642,-177.48059060,60.48203311,-171.15908620,177.04434740,175.82487418
-176.32382378,-71.91602851,-160.17450833,-58.65279603,-66.88376213,51.57691386
1.38956765,-3.33626772,-1.22971785,1.33401872,1.01958882

>  <Name>
ligand

>  <RI>
0

>  <Rbt.Current_Directory>
/home/itssahil/PROJECTS/Mol_Feturizer/New_Systems/rnas/4E8Q

>  <Rbt.Executable>
rbdock ($Id: //depot/dev/client3/rdock/2013.1/src/exe/rbdock.cxx#4 $)

>  <Rbt.Library>
libRbt.so (2013.1, Build901 2013/11/27)

>  <Rbt.Parameter_File>
/export/apps/rDock/src/rDock_2013.1_src/data/scripts/dock_solv.prm

>  <Rbt.Receptor>
prm/pocket_docking_6.prm

>  <SCORE>
-11.2867

>  <SCORE.INTER>
0.803716

>  <SCORE.INTER.CONST>
1

>  <SCORE.INTER.POLAR>
0

>  <SCORE.INTER.ROT>
11

>  <SCORE.INTER.SOLV>
11.0142

>  <SCORE.INTER.VDW>
-14.0689

>  <SCORE.INTER.norm>
0.0574083

>  <SCORE.INTRA>
-12.0905

>  <SCORE.INTRA.DIHEDRAL>
-25.0343

>  <SCORE.INTRA.DIHEDRAL.0>
25.9209

>  <SCORE.INTRA.POLAR>
0

>  <SCORE.INTRA.POLAR.0>
0

>  <SCORE.INTRA.REPUL>
0

>  <SCORE.INTRA.REPUL.0>
0

>  <SCORE.INTRA.SOLV>
-0.606424

>  <SCORE.INTRA.SOLV.lig_0>
-47.4815

>  <SCORE.INTRA.VDW>
0.729928

>  <SCORE.INTRA.VDW.0>
-1.57492

>  <SCORE.INTRA.norm>
-0.863604

>  <SCORE.RESTR>
0

>  <SCORE.RESTR.CAVITY>
0

>  <SCORE.RESTR.norm>
0

>  <SCORE.SYSTEM>
0

>  <SCORE.SYSTEM.CONST>
0

>  <SCORE.SYSTEM.DIHEDRAL>
0

>  <SCORE.SYSTEM.SOLV>
0

>  <SCORE.SYSTEM.norm>
0

>  <SCORE.heavy>
14

>  <SCORE.norm>
-0.806196

>  <RMSD>
4.949

$$$$
ligand
 OpenBabel11021811493D
libRbt.so/2013.1/901 2013/11/27
 14 13  0  0  0  0  0  0  0  0999 V2000
   51.4429    6.1170   -1.3169 N   0  0  0  0  0  0  0  0  0  0  0  0
   50.1907    5.5873   -0.7910 C   0  0  0  0  0  0  0  0  0  0  0  0
   50.3885    5.0125    0.6278 C   0  0  0  0  0  0  0  0  0  0  0  0
   51.3657    3.8228    0.7083 C   0  0  0  0  0  0  0  0  0  0  0  0
   51.0453    2.6099   -0.0590 N   0  0  0  0  0  0  0  0  0  0  0  0
   51.9373    1.4452   -0.0399 C   0  0  0  0  0  0  0  0  0  0  0  0
   51.4794    0.2612   -0.8967 C   0  0  0  0  0  0  0  0  0  0  0  0
   51.3808    0.6097   -2.3915 C   0  0  0  0  0  0  0  0  0  0  0  0
   50.8976   -0.5536   -3.2723 C   0  0  0  0  0  0  0  0  0  0  0  0
   50.7952   -0.2400   -4.6994 N   0  0  0  0  0  0  0  0  0  0  0  0
   49.6119    0.4829   -5.1970 C   0  0  0  0  0  0  0  0  0  0  0  0
   49.5798    0.8182   -6.7070 C   0  0  0  0  0  0  0  0  0  0  0  0
   50.6986    1.7517   -7.2117 C   0  0  0  0  0  0  0  0  0  0  0  0
   52.0268    1.1520   -7.1223 N   0  0  0  0  0  0  0  0  0  0  0  0
  1  2  1  0  0  0  0
  2  3  1  0  0  0  0
  3  4  1  0  0  0  0
  4  5  1  0  0  0  0
  5  6  1  0  0  0  0
  6  7  1  0  0  0  0
  7  8  1  0  0  0  0
  8  9  1  0  0  0  0
  9 10  1  0  0  0  0
 10 11  1  0  0  0  0
 11 12  1  0  0  0  0
 12 13  1  0  0  0  0
 13 14  1  0  0  0  0
M  END
>  <CHROM.1>
-62.36511305,-60.35251076,179.35783042,-179.46985040,61.65743674,-178.90963766
179.90815325,-80.51888479,178.40302952,-62.36007788,65.90554882,50.91700170
2.06248525,-2.74038227,1.22412289,-1.41481095,0.69273911

>  <Name>
ligand

>  <RI>
0

>  <Rbt.Current_Directory>
/home/itssahil/PROJECTS/Mol_Feturizer/New_Systems/rnas/4E8Q

>  <Rbt.Executable>
rbdock ($Id: //depot/dev/client3/rdock/2013.1/src/exe/rbdock.cxx#4 $)

>  <Rbt.Library>
libRbt.so (2013.1, Build901 2013/11/27)

>  <Rbt.Parameter_File>
/export/apps/rDock/src/rDock_2013.1_src/data/scripts/dock_solv.prm

>  <Rbt.Receptor>
prm/pocket_docking_4.prm

>  <SCORE>
-9.2242

>  <SCORE.INTER>
2.03345

>  <SCORE.INTER.CONST>
1

>  <SCORE.INTER.POLAR>
0

>  <SCORE.INTER.ROT>
11

>  <SCORE.INTER.SOLV>
8.42596

>  <SCORE.INTER.VDW>
-12.3864

>  <SCORE.INTER.norm>
0.145247

>  <SCORE.INTRA>
-11.2576

>  <SCORE.INTRA.DIHEDRAL>
-25.4151

>  <SCORE.INTRA.DIHEDRAL.0>
25.9209

>  <SCORE.INTRA.POLAR>
0

>  <SCORE.INTRA.POLAR.0>
0

>  <SCORE.INTRA.REPUL>
0

>  <SCORE.INTRA.REPUL.0>
0

>  <SCORE.INTRA.SOLV>
2.42665

>  <SCORE.INTRA.SOLV.lig_0>
-47.4815

>  <SCORE.INTRA.VDW>
0.236556

>  <SCORE.INTRA.VDW.0>
-1.57492

>  <SCORE.INTRA.norm>
-0.804118

>  <SCORE.RESTR>
0

>  <SCORE.RESTR.CAVITY>
0

>  <SCORE.RESTR.norm>
0

>  <SCORE.SYSTEM>
0

>  <SCORE.SYSTEM.CONST>
0

>  <SCORE.SYSTEM.DIHEDRAL>
0

>  <SCORE.SYSTEM.SOLV>
0

>  <SCORE.SYSTEM.norm>
0

>  <SCORE.heavy>
14

>  <SCORE.norm>
-0.658871

>  <RMSD>
4.952

$$$$
ligand
 OpenBabel11021811493D
libRbt.so/2013.1/901 2013/11/27
 14 13  0  0  0  0  0  0  0  0999 V2000
   50.0267    2.9293   -6.8779 N   0  0  0  0  0  0  0  0  0  0  0  0
   49.7343    1.6693   -6.2056 C   0  0  0  0  0  0  0  0  0  0  0  0
   50.9940    0.7806   -6.1290 C   0  0  0  0  0  0  0  0  0  0  0  0
   50.7963   -0.5505   -5.3768 C   0  0  0  0  0  0  0  0  0  0  0  0
   50.4777   -0.4948   -3.9421 N   0  0  0  0  0  0  0  0  0  0  0  0
   51.4068    0.1151   -2.9843 C   0  0  0  0  0  0  0  0  0  0  0  0
   50.9652    0.0513   -1.5192 C   0  0  0  0  0  0  0  0  0  0  0  0
   51.8525    0.8984   -0.5914 C   0  0  0  0  0  0  0  0  0  0  0  0
   51.6728    2.4145   -0.7701 C   0  0  0  0  0  0  0  0  0  0  0  0
   52.0042    2.9174   -2.1053 N   0  0  0  0  0  0  0  0  0  0  0  0
   53.4070    2.9028   -2.5551 C   0  0  0  0  0  0  0  0  0  0  0  0
   53.6993    3.4890   -3.9566 C   0  0  0  0  0  0  0  0  0  0  0  0
   53.5210    5.0143   -4.0973 C   0  0  0  0  0  0  0  0  0  0  0  0
   52.1412    5.4488   -3.9001 N   0  0  0  0  0  0  0  0  0  0  0  0
  1  2  1  0  0  0  0
  2  3  1  0  0  0  0
  3  4  1  0  0  0  0
  4  5  1  0  0  0  0
  5  6  1  0  0  0  0
  6  7  1  0  0  0  0
  7  8  1  0  0  0  0
  8  9  1  0  0  0  0
  9 10  1  0  0  0  0
 10 11  1  0  0  0  0
 11 12  1  0  0  0  0
 12 13  1  0  0  0  0
 13 14  1  0  0  0  0
M  END
>  <CHROM.1>
177.40888035,-64.40148514,-61.17981875,-177.71932946,-170.63275689,70.88869072
-61.20782822,-68.46380372,-178.08277200,68.88025565,-64.35143370,51.62154772
1.97009584,-3.64340682,-2.98637611,1.05460508,2.16387209

>  <Name>
ligand

>  <RI>
0

>  <Rbt.Current_Directory>
/home/itssahil/PROJECTS/Mol_Feturizer/New_Systems/rnas/4E8Q

>  <Rbt.Executable>
rbdock ($Id: //depot/dev/client3/rdock/2013.1/src/exe/rbdock.cxx#4 $)

>  <Rbt.Library>
libRbt.so (2013.1, Build901 2013/11/27)

>  <Rbt.Parameter_File>
/export/apps/rDock/src/rDock_2013.1_src/data/scripts/dock_solv.prm

>  <Rbt.Receptor>
prm/pocket_docking_4.prm

>  <SCORE>
-9.94656

>  <SCORE.INTER>
1.24579

>  <SCORE.INTER.CONST>
1

>  <SCORE.INTER.POLAR>
0

>  <SCORE.INTER.ROT>
11

>  <SCORE.INTER.SOLV>
6.19172

>  <SCORE.INTER.VDW>
-12.1667

>  <SCORE.INTER.norm>
0.0889847

>  <SCORE.INTRA>
-11.1923

>  <SCORE.INTRA.DIHEDRAL>
-24.5769

>  <SCORE.INTRA.DIHEDRAL.0>
25.9209

>  <SCORE.INTRA.POLAR>
0

>  <SCORE.INTRA.POLAR.0>
0

>  <SCORE.INTRA.REPUL>
0

>  <SCORE.INTRA.REPUL.0>
0

>  <SCORE.INTRA.SOLV>
1.73025

>  <SCORE.INTRA.SOLV.lig_0>
-47.4815

>  <SCORE.INTRA.VDW>
0.231

>  <SCORE.INTRA.VDW.0>
-1.57492

>  <SCORE.INTRA.norm>
-0.799454

>  <SCORE.RESTR>
0

>  <SCORE.RESTR.CAVITY>
0

>  <SCORE.RESTR.norm>
0

>  <SCORE.SYSTEM>
0

>  <SCORE.SYSTEM.CONST>
0

>  <SCORE.SYSTEM.DIHEDRAL>
0

>  <SCORE.SYSTEM.SOLV>
0

>  <SCORE.SYSTEM.norm>
0

>  <SCORE.heavy>
14

>  <SCORE.norm>
-0.710469

>  <RMSD>
4.967

$$$$
ligand
 OpenBabel11021811493D
libRbt.so/2013.1/901 2013/11/27
 14 13  0  0  0  0  0  0  0  0999 V2000
   51.6580    5.5610    2.4495 N   0  0  0  0  0  0  0  0  0  0  0  0
   50.9423    4.4246    1.8825 C   0  0  0  0  0  0  0  0  0  0  0  0
   51.8954    3.5244    1.0677 C   0  0  0  0  0  0  0  0  0  0  0  0
   51.2198    2.3071    0.4056 C   0  0  0  0  0  0  0  0  0  0  0  0
   52.0629    1.3813   -0.3657 N   0  0  0  0  0  0  0  0  0  0  0  0
   51.4902    0.1918   -1.0058 C   0  0  0  0  0  0  0  0  0  0  0  0
   51.1267    0.3602   -2.4840 C   0  0  0  0  0  0  0  0  0  0  0  0
   50.3319   -0.8325   -3.0423 C   0  0  0  0  0  0  0  0  0  0  0  0
   49.8260   -0.6267   -4.4791 C   0  0  0  0  0  0  0  0  0  0  0  0
   48.9147    0.5070   -4.6511 N   0  0  0  0  0  0  0  0  0  0  0  0
   49.4705    1.8535   -4.8710 C   0  0  0  0  0  0  0  0  0  0  0  0
   48.6309    3.0493   -4.3624 C   0  0  0  0  0  0  0  0  0  0  0  0
   49.2403    4.4463   -4.5976 C   0  0  0  0  0  0  0  0  0  0  0  0
   48.4522    5.5211   -4.0016 N   0  0  0  0  0  0  0  0  0  0  0  0
  1  2  1  0  0  0  0
  2  3  1  0  0  0  0
  3  4  1  0  0  0  0
  4  5  1  0  0  0  0
  5  6  1  0  0  0  0
  6  7  1  0  0  0  0
  7  8  1  0  0  0  0
  8  9  1  0  0  0  0
  9 10  1  0  0  0  0
 10 11  1  0  0  0  0
 11 12  1  0  0  0  0
 12 13  1  0  0  0  0
 13 14  1  0  0  0  0
M  END
>  <CHROM.1>
-178.89078557,-178.70158617,179.08783549,96.06773778,-170.90698184,173.89962714
-60.75170770,85.11920380,-150.34232963,179.62452285,-175.41443108,50.37588464
2.26162599,-2.00410700,0.86711673,-1.06532855,0.50168910

>  <Name>
ligand

>  <RI>
0

>  <Rbt.Current_Directory>
/home/itssahil/PROJECTS/Mol_Feturizer/New_Systems/rnas/4E8Q

>  <Rbt.Executable>
rbdock ($Id: //depot/dev/client3/rdock/2013.1/src/exe/rbdock.cxx#4 $)

>  <Rbt.Library>
libRbt.so (2013.1, Build901 2013/11/27)

>  <Rbt.Parameter_File>
/export/apps/rDock/src/rDock_2013.1_src/data/scripts/dock_solv.prm

>  <Rbt.Receptor>
prm/pocket_docking_4.prm

>  <SCORE>
-13.1501

>  <SCORE.INTER>
-0.921751

>  <SCORE.INTER.CONST>
1

>  <SCORE.INTER.POLAR>
0

>  <SCORE.INTER.ROT>
11

>  <SCORE.INTER.SOLV>
7.64306

>  <SCORE.INTER.VDW>
-14.0955

>  <SCORE.INTER.norm>
-0.0658394

>  <SCORE.INTRA>
-12.2283

>  <SCORE.INTRA.DIHEDRAL>
-23.5406

>  <SCORE.INTRA.DIHEDRAL.0>
25.9209

>  <SCORE.INTRA.POLAR>
0

>  <SCORE.INTRA.POLAR.0>
0

>  <SCORE.INTRA.REPUL>
0

>  <SCORE.INTRA.REPUL.0>
0

>  <SCORE.INTRA.SOLV>
-1.74

>  <SCORE.INTRA.SOLV.lig_0>
-47.4815

>  <SCORE.INTRA.VDW>
0.411999

>  <SCORE.INTRA.VDW.0>
-1.57492

>  <SCORE.INTRA.norm>
-0.873451

>  <SCORE.RESTR>
0

>  <SCORE.RESTR.CAVITY>
0

>  <SCORE.RESTR.norm>
0

>  <SCORE.SYSTEM>
0

>  <SCORE.SYSTEM.CONST>
0

>  <SCORE.SYSTEM.DIHEDRAL>
0

>  <SCORE.SYSTEM.SOLV>
0

>  <SCORE.SYSTEM.norm>
0

>  <SCORE.heavy>
14

>  <SCORE.norm>
-0.93929

>  <RMSD>
4.972

$$$$
ligand
 OpenBabel11021811493D
libRbt.so/2013.1/901 2013/11/27
 14 13  0  0  0  0  0  0  0  0999 V2000
   50.5367    5.3532    0.7705 N   0  0  0  0  0  0  0  0  0  0  0  0
   50.4665    4.3467    1.8228 C   0  0  0  0  0  0  0  0  0  0  0  0
   51.4080    3.1626    1.5161 C   0  0  0  0  0  0  0  0  0  0  0  0
   51.0726    2.3937    0.2226 C   0  0  0  0  0  0  0  0  0  0  0  0
   51.8650    1.1969   -0.0972 N   0  0  0  0  0  0  0  0  0  0  0  0
   51.4083    0.2349   -1.1064 C   0  0  0  0  0  0  0  0  0  0  0  0
   51.5507    0.6991   -2.5588 C   0  0  0  0  0  0  0  0  0  0  0  0
   51.3493   -0.4407   -3.5718 C   0  0  0  0  0  0  0  0  0  0  0  0
   49.8948   -0.9250   -3.6843 C   0  0  0  0  0  0  0  0  0  0  0  0
   48.9416    0.0960   -4.1251 N   0  0  0  0  0  0  0  0  0  0  0  0
   49.2625    0.9243   -5.3005 C   0  0  0  0  0  0  0  0  0  0  0  0
   48.9545    2.4369   -5.1964 C   0  0  0  0  0  0  0  0  0  0  0  0
   49.6026    3.1741   -4.0072 C   0  0  0  0  0  0  0  0  0  0  0  0
   49.2429    4.5878   -3.9466 N   0  0  0  0  0  0  0  0  0  0  0  0
  1  2  1  0  0  0  0
  2  3  1  0  0  0  0
  3  4  1  0  0  0  0
  4  5  1  0  0  0  0
  5  6  1  0  0  0  0
  6  7  1  0  0  0  0
  7  8  1  0  0  0  0
  8  9  1  0  0  0  0
  9 10  1  0  0  0  0
 10 11  1  0  0  0  0
 11 12  1  0  0  0  0
 12 13  1  0  0  0  0
 13 14  1  0  0  0  0
M  END
>  <CHROM.1>
-61.93739802,-176.01170206,164.68372912,74.35612972,167.58255781,71.20844661
60.98492354,47.98431037,-137.05594313,55.72046636,-178.42265554,50.39695928
1.94539758,-2.09025524,1.10587918,-1.08701738,0.66956904

>  <Name>
ligand

>  <RI>
0

>  <Rbt.Current_Directory>
/home/itssahil/PROJECTS/Mol_Feturizer/New_Systems/rnas/4E8Q

>  <Rbt.Executable>
rbdock ($Id: //depot/dev/client3/rdock/2013.1/src/exe/rbdock.cxx#4 $)

>  <Rbt.Library>
libRbt.so (2013.1, Build901 2013/11/27)

>  <Rbt.Parameter_File>
/export/apps/rDock/src/rDock_2013.1_src/data/scripts/dock_solv.prm

>  <Rbt.Receptor>
prm/pocket_docking_6.prm

>  <SCORE>
-12.3322

>  <SCORE.INTER>
-1.56196

>  <SCORE.INTER.CONST>
1

>  <SCORE.INTER.POLAR>
0

>  <SCORE.INTER.ROT>
11

>  <SCORE.INTER.SOLV>
9.11312

>  <SCORE.INTER.VDW>
-15.0123

>  <SCORE.INTER.norm>
-0.111569

>  <SCORE.INTRA>
-10.7702

>  <SCORE.INTRA.DIHEDRAL>
-23.254

>  <SCORE.INTRA.DIHEDRAL.0>
25.9209

>  <SCORE.INTRA.POLAR>
0

>  <SCORE.INTRA.POLAR.0>
0

>  <SCORE.INTRA.REPUL>
0

>  <SCORE.INTRA.REPUL.0>
0

>  <SCORE.INTRA.SOLV>
-0.477182

>  <SCORE.INTRA.SOLV.lig_0>
-47.4815

>  <SCORE.INTRA.VDW>
1.09536

>  <SCORE.INTRA.VDW.0>
-1.57492

>  <SCORE.INTRA.norm>
-0.769301

>  <SCORE.RESTR>
0

>  <SCORE.RESTR.CAVITY>
0

>  <SCORE.RESTR.norm>
0

>  <SCORE.SYSTEM>
0

>  <SCORE.SYSTEM.CONST>
0

>  <SCORE.SYSTEM.DIHEDRAL>
0

>  <SCORE.SYSTEM.SOLV>
0

>  <SCORE.SYSTEM.norm>
0

>  <SCORE.heavy>
14

>  <SCORE.norm>
-0.88087

>  <RMSD>
4.997

$$$$
ligand
 OpenBabel11021811493D
libRbt.so/2013.1/901 2013/11/27
 14 13  0  0  0  0  0  0  0  0999 V2000
   52.9258    2.9980    1.7988 N   0  0  0  0  0  0  0  0  0  0  0  0
   51.4740    3.0312    1.6703 C   0  0  0  0  0  0  0  0  0  0  0  0
   51.0448    2.7865    0.2080 C   0  0  0  0  0  0  0  0  0  0  0  0
   51.4527    1.4125   -0.3597 C   0  0  0  0  0  0  0  0  0  0  0  0
   51.0401    1.0794   -1.7315 N   0  0  0  0  0  0  0  0  0  0  0  0
   51.5932   -0.0892   -2.4249 C   0  0  0  0  0  0  0  0  0  0  0  0
   50.9140   -0.4396   -3.7521 C   0  0  0  0  0  0  0  0  0  0  0  0
   49.4639   -0.9196   -3.5714 C   0  0  0  0  0  0  0  0  0  0  0  0
   48.8330   -1.4927   -4.8505 C   0  0  0  0  0  0  0  0  0  0  0  0
   48.7964   -0.5657   -5.9840 N   0  0  0  0  0  0  0  0  0  0  0  0
   49.9281   -0.5324   -6.9267 C   0  0  0  0  0  0  0  0  0  0  0  0
   50.7327    0.7864   -7.0087 C   0  0  0  0  0  0  0  0  0  0  0  0
   51.9245    0.7864   -7.9874 C   0  0  0  0  0  0  0  0  0  0  0  0
   52.6380    2.0597   -8.0188 N   0  0  0  0  0  0  0  0  0  0  0  0
  1  2  1  0  0  0  0
  2  3  1  0  0  0  0
  3  4  1  0  0  0  0
  4  5  1  0  0  0  0
  5  6  1  0  0  0  0
  6  7  1  0  0  0  0
  7  8  1  0  0  0  0
  8  9  1  0  0  0  0
  9 10  1  0  0  0  0
 10 11  1  0  0  0  0
 11 12  1  0  0  0  0
 12 13  1  0  0  0  0
 13 14  1  0  0  0  0
M  END
>  <CHROM.1>
61.89711250,177.84391513,168.58851211,170.71546210,-66.93380106,-170.59179110
-58.44745502,90.27201961,-116.40538929,179.10842144,179.86489351,50.91132093
0.77838759,-3.49560963,-1.36452856,-0.80038173,-1.70738381

>  <Name>
ligand

>  <RI>
0

>  <Rbt.Current_Directory>
/home/itssahil/PROJECTS/Mol_Feturizer/New_Systems/rnas/4E8Q

>  <Rbt.Executable>
rbdock ($Id: //depot/dev/client3/rdock/2013.1/src/exe/rbdock.cxx#4 $)

>  <Rbt.Library>
libRbt.so (2013.1, Build901 2013/11/27)

>  <Rbt.Parameter_File>
/export/apps/rDock/src/rDock_2013.1_src/data/scripts/dock_solv.prm

>  <Rbt.Receptor>
prm/pocket_docking_4.prm

>  <SCORE>
-12.7227

>  <SCORE.INTER>
-0.979319

>  <SCORE.INTER.CONST>
1

>  <SCORE.INTER.POLAR>
0

>  <SCORE.INTER.ROT>
11

>  <SCORE.INTER.SOLV>
8.17724

>  <SCORE.INTER.VDW>
-14.312

>  <SCORE.INTER.norm>
-0.0699514

>  <SCORE.INTRA>
-11.7434

>  <SCORE.INTRA.DIHEDRAL>
-23.3624

>  <SCORE.INTRA.DIHEDRAL.0>
25.9209

>  <SCORE.INTRA.POLAR>
0

>  <SCORE.INTRA.POLAR.0>
0

>  <SCORE.INTRA.REPUL>
0

>  <SCORE.INTRA.REPUL.0>
0

>  <SCORE.INTRA.SOLV>
-0.7598

>  <SCORE.INTRA.SOLV.lig_0>
-47.4815

>  <SCORE.INTRA.VDW>
0.317717

>  <SCORE.INTRA.VDW.0>
-1.57492

>  <SCORE.INTRA.norm>
-0.838813

>  <SCORE.RESTR>
0

>  <SCORE.RESTR.CAVITY>
0

>  <SCORE.RESTR.norm>
0

>  <SCORE.SYSTEM>
0

>  <SCORE.SYSTEM.CONST>
0

>  <SCORE.SYSTEM.DIHEDRAL>
0

>  <SCORE.SYSTEM.SOLV>
0

>  <SCORE.SYSTEM.norm>
0

>  <SCORE.heavy>
14

>  <SCORE.norm>
-0.908764

>  <RMSD>
5.004

$$$$
ligand
 OpenBabel11021811493D
libRbt.so/2013.1/901 2013/11/27
 14 13  0  0  0  0  0  0  0  0999 V2000
   50.2287    1.2899   -9.1079 N   0  0  0  0  0  0  0  0  0  0  0  0
   49.3254    0.4562   -8.3242 C   0  0  0  0  0  0  0  0  0  0  0  0
   50.0961   -0.6824   -7.6227 C   0  0  0  0  0  0  0  0  0  0  0  0
   51.0931   -0.2139   -6.5442 C   0  0  0  0  0  0  0  0  0  0  0  0
   50.5598    0.4800   -5.3623 N   0  0  0  0  0  0  0  0  0  0  0  0
   49.7503   -0.2330   -4.3680 C   0  0  0  0  0  0  0  0  0  0  0  0
   50.4992   -0.6527   -3.0997 C   0  0  0  0  0  0  0  0  0  0  0  0
   51.1145    0.5399   -2.3482 C   0  0  0  0  0  0  0  0  0  0  0  0
   51.5817    0.2046   -0.9227 C   0  0  0  0  0  0  0  0  0  0  0  0
   52.2158    1.3153   -0.2088 N   0  0  0  0  0  0  0  0  0  0  0  0
   51.3853    2.4335    0.2710 C   0  0  0  0  0  0  0  0  0  0  0  0
   50.9777    3.5010   -0.7720 C   0  0  0  0  0  0  0  0  0  0  0  0
   52.1394    4.1995   -1.5074 C   0  0  0  0  0  0  0  0  0  0  0  0
   51.6876    5.2104   -2.4589 N   0  0  0  0  0  0  0  0  0  0  0  0
  1  2  1  0  0  0  0
  2  3  1  0  0  0  0
  3  4  1  0  0  0  0
  4  5  1  0  0  0  0
  5  6  1  0  0  0  0
  6  7  1  0  0  0  0
  7  8  1  0  0  0  0
  8  9  1  0  0  0  0
  9 10  1  0  0  0  0
 10 11  1  0  0  0  0
 11 12  1  0  0  0  0
 12 13  1  0  0  0  0
 13 14  1  0  0  0  0
M  END
>  <CHROM.1>
65.86972454,63.31691376,68.80218170,100.39944760,58.89929266,166.45947985
177.83699475,72.36004169,-79.52039951,-57.32276079,-178.97761429,50.90379138
1.27455841,-3.74092726,-2.84545301,1.35119475,2.48699231

>  <Name>
ligand

>  <RI>
0

>  <Rbt.Current_Directory>
/home/itssahil/PROJECTS/Mol_Feturizer/New_Systems/rnas/4E8Q

>  <Rbt.Executable>
rbdock ($Id: //depot/dev/client3/rdock/2013.1/src/exe/rbdock.cxx#4 $)

>  <Rbt.Library>
libRbt.so (2013.1, Build901 2013/11/27)

>  <Rbt.Parameter_File>
/export/apps/rDock/src/rDock_2013.1_src/data/scripts/dock_solv.prm

>  <Rbt.Receptor>
prm/pocket_docking_5.prm

>  <SCORE>
-10.3581

>  <SCORE.INTER>
0.834795

>  <SCORE.INTER.CONST>
1

>  <SCORE.INTER.POLAR>
0

>  <SCORE.INTER.ROT>
11

>  <SCORE.INTER.SOLV>
5.49031

>  <SCORE.INTER.VDW>
-12.2069

>  <SCORE.INTER.norm>
0.0596282

>  <SCORE.INTRA>
-11.1929

>  <SCORE.INTRA.DIHEDRAL>
-23.5776

>  <SCORE.INTRA.DIHEDRAL.0>
25.9209

>  <SCORE.INTRA.POLAR>
0

>  <SCORE.INTRA.POLAR.0>
0

>  <SCORE.INTRA.REPUL>
0

>  <SCORE.INTRA.REPUL.0>
0

>  <SCORE.INTRA.SOLV>
0.0553029

>  <SCORE.INTRA.SOLV.lig_0>
-47.4815

>  <SCORE.INTRA.VDW>
0.56824

>  <SCORE.INTRA.VDW.0>
-1.57492

>  <SCORE.INTRA.norm>
-0.799494

>  <SCORE.RESTR>
0

>  <SCORE.RESTR.CAVITY>
0

>  <SCORE.RESTR.norm>
0

>  <SCORE.SYSTEM>
0

>  <SCORE.SYSTEM.CONST>
0

>  <SCORE.SYSTEM.DIHEDRAL>
0

>  <SCORE.SYSTEM.SOLV>
0

>  <SCORE.SYSTEM.norm>
0

>  <SCORE.heavy>
14

>  <SCORE.norm>
-0.739866

>  <RMSD>
5.017

$$$$
ligand
 OpenBabel11021811493D
libRbt.so/2013.1/901 2013/11/27
 14 13  0  0  0  0  0  0  0  0999 V2000
   51.9395    3.3064    1.5394 N   0  0  0  0  0  0  0  0  0  0  0  0
   52.4074    2.2296    0.6753 C   0  0  0  0  0  0  0  0  0  0  0  0
   51.2390    1.6230   -0.1307 C   0  0  0  0  0  0  0  0  0  0  0  0
   51.6294    0.4353   -1.0328 C   0  0  0  0  0  0  0  0  0  0  0  0
   50.6108   -0.1056   -1.9454 N   0  0  0  0  0  0  0  0  0  0  0  0
   50.9673   -0.5541   -3.2960 C   0  0  0  0  0  0  0  0  0  0  0  0
   49.7872   -0.9916   -4.1686 C   0  0  0  0  0  0  0  0  0  0  0  0
   48.8375    0.1685   -4.5125 C   0  0  0  0  0  0  0  0  0  0  0  0
   49.5012    1.3017   -5.3112 C   0  0  0  0  0  0  0  0  0  0  0  0
   48.6908    2.5147   -5.4425 N   0  0  0  0  0  0  0  0  0  0  0  0
   49.3578    3.8275   -5.4888 C   0  0  0  0  0  0  0  0  0  0  0  0
   49.8178    4.4273   -4.1389 C   0  0  0  0  0  0  0  0  0  0  0  0
   51.0050    3.7168   -3.4579 C   0  0  0  0  0  0  0  0  0  0  0  0
   52.2622    3.8844   -4.1811 N   0  0  0  0  0  0  0  0  0  0  0  0
  1  2  1  0  0  0  0
  2  3  1  0  0  0  0
  3  4  1  0  0  0  0
  4  5  1  0  0  0  0
  5  6  1  0  0  0  0
  6  7  1  0  0  0  0
  7  8  1  0  0  0  0
  8  9  1  0  0  0  0
  9 10  1  0  0  0  0
 10 11  1  0  0  0  0
 11 12  1  0  0  0  0
 12 13  1  0  0  0  0
 13 14  1  0  0  0  0
M  END
>  <CHROM.1>
-177.62951476,-173.35947731,141.66616007,-175.48348335,66.00345173,61.30488124
-169.59008217,146.96753277,-79.35149788,70.11237405,68.61202075,50.57507664
1.84146488,-2.92099670,-0.29233529,-1.12513505,-0.31249387

>  <Name>
ligand

>  <RI>
0

>  <Rbt.Current_Directory>
/home/itssahil/PROJECTS/Mol_Feturizer/New_Systems/rnas/4E8Q

>  <Rbt.Executable>
rbdock ($Id: //depot/dev/client3/rdock/2013.1/src/exe/rbdock.cxx#4 $)

>  <Rbt.Library>
libRbt.so (2013.1, Build901 2013/11/27)

>  <Rbt.Parameter_File>
/export/apps/rDock/src/rDock_2013.1_src/data/scripts/dock_solv.prm

>  <Rbt.Receptor>
prm/pocket_docking_3.prm

>  <SCORE>
-10.6177

>  <SCORE.INTER>
0.418794

>  <SCORE.INTER.CONST>
1

>  <SCORE.INTER.POLAR>
0

>  <SCORE.INTER.ROT>
11

>  <SCORE.INTER.SOLV>
8.84292

>  <SCORE.INTER.VDW>
-13.6018

>  <SCORE.INTER.norm>
0.0299139

>  <SCORE.INTRA>
-11.0365

>  <SCORE.INTRA.DIHEDRAL>
-22.6907

>  <SCORE.INTRA.DIHEDRAL.0>
25.9209

>  <SCORE.INTRA.POLAR>
0

>  <SCORE.INTRA.POLAR.0>
0

>  <SCORE.INTRA.REPUL>
0

>  <SCORE.INTRA.REPUL.0>
0

>  <SCORE.INTRA.SOLV>
0.676862

>  <SCORE.INTRA.SOLV.lig_0>
-47.4815

>  <SCORE.INTRA.VDW>
-0.0295603

>  <SCORE.INTRA.VDW.0>
-1.57492

>  <SCORE.INTRA.norm>
-0.78832

>  <SCORE.RESTR>
0

>  <SCORE.RESTR.CAVITY>
0

>  <SCORE.RESTR.norm>
0

>  <SCORE.SYSTEM>
0

>  <SCORE.SYSTEM.CONST>
0

>  <SCORE.SYSTEM.DIHEDRAL>
0

>  <SCORE.SYSTEM.SOLV>
0

>  <SCORE.SYSTEM.norm>
0

>  <SCORE.heavy>
14

>  <SCORE.norm>
-0.758406

>  <RMSD>
5.027

$$$$
ligand
 OpenBabel11021811493D
libRbt.so/2013.1/901 2013/11/27
 14 13  0  0  0  0  0  0  0  0999 V2000
   52.2626    3.9212    1.2637 N   0  0  0  0  0  0  0  0  0  0  0  0
   51.7880    2.5650    1.0170 C   0  0  0  0  0  0  0  0  0  0  0  0
   51.9199    2.1985   -0.4766 C   0  0  0  0  0  0  0  0  0  0  0  0
   51.3978    0.7947   -0.8419 C   0  0  0  0  0  0  0  0  0  0  0  0
   51.4048    0.3999   -2.2586 N   0  0  0  0  0  0  0  0  0  0  0  0
   50.5006   -0.6421   -2.7578 C   0  0  0  0  0  0  0  0  0  0  0  0
   49.9932   -0.4325   -4.1874 C   0  0  0  0  0  0  0  0  0  0  0  0
   51.1333   -0.2865   -5.2096 C   0  0  0  0  0  0  0  0  0  0  0  0
   50.7309    0.4636   -6.4895 C   0  0  0  0  0  0  0  0  0  0  0  0
   50.3725    1.8695   -6.2885 N   0  0  0  0  0  0  0  0  0  0  0  0
   49.0832    2.2033   -5.6585 C   0  0  0  0  0  0  0  0  0  0  0  0
   49.0139    3.5299   -4.8655 C   0  0  0  0  0  0  0  0  0  0  0  0
   49.9161    3.6145   -3.6178 C   0  0  0  0  0  0  0  0  0  0  0  0
   49.8252    4.9008   -2.9332 N   0  0  0  0  0  0  0  0  0  0  0  0
  1  2  1  0  0  0  0
  2  3  1  0  0  0  0
  3  4  1  0  0  0  0
  4  5  1  0  0  0  0
  5  6  1  0  0  0  0
  6  7  1  0  0  0  0
  7  8  1  0  0  0  0
  8  9  1  0  0  0  0
  9 10  1  0  0  0  0
 10 11  1  0  0  0  0
 11 12  1  0  0  0  0
 12 13  1  0  0  0  0
 13 14  1  0  0  0  0
M  END
>  <CHROM.1>
-178.08375107,176.05988502,-156.51282439,145.85136346,56.32613936,-156.65821628
64.98522242,-73.75762223,151.41251646,-64.08938421,178.73507251,50.66716375
1.79242999,-3.09336894,0.83095548,-1.16573569,0.61482572

>  <Name>
ligand

>  <RI>
0

>  <Rbt.Current_Directory>
/home/itssahil/PROJECTS/Mol_Feturizer/New_Systems/rnas/4E8Q

>  <Rbt.Executable>
rbdock ($Id: //depot/dev/client3/rdock/2013.1/src/exe/rbdock.cxx#4 $)

>  <Rbt.Library>
libRbt.so (2013.1, Build901 2013/11/27)

>  <Rbt.Parameter_File>
/export/apps/rDock/src/rDock_2013.1_src/data/scripts/dock_solv.prm

>  <Rbt.Receptor>
prm/pocket_docking_3.prm

>  <SCORE>
-10.7031

>  <SCORE.INTER>
0.37076

>  <SCORE.INTER.CONST>
1

>  <SCORE.INTER.POLAR>
0

>  <SCORE.INTER.ROT>
11

>  <SCORE.INTER.SOLV>
6.87168

>  <SCORE.INTER.VDW>
-12.9767

>  <SCORE.INTER.norm>
0.0264828

>  <SCORE.INTRA>
-11.0738

>  <SCORE.INTRA.DIHEDRAL>
-21.787

>  <SCORE.INTRA.DIHEDRAL.0>
25.9209

>  <SCORE.INTRA.POLAR>
0

>  <SCORE.INTRA.POLAR.0>
0

>  <SCORE.INTRA.REPUL>
0

>  <SCORE.INTRA.REPUL.0>
0

>  <SCORE.INTRA.SOLV>
-0.17113

>  <SCORE.INTRA.SOLV.lig_0>
-47.4815

>  <SCORE.INTRA.VDW>
-0.0947839

>  <SCORE.INTRA.VDW.0>
-1.57492

>  <SCORE.INTRA.norm>
-0.790988

>  <SCORE.RESTR>
0

>  <SCORE.RESTR.CAVITY>
0

>  <SCORE.RESTR.norm>
0

>  <SCORE.SYSTEM>
0

>  <SCORE.SYSTEM.CONST>
0

>  <SCORE.SYSTEM.DIHEDRAL>
0

>  <SCORE.SYSTEM.SOLV>
0

>  <SCORE.SYSTEM.norm>
0

>  <SCORE.heavy>
14

>  <SCORE.norm>
-0.764505

>  <RMSD>
5.033

$$$$
ligand
 OpenBabel11021811493D
libRbt.so/2013.1/901 2013/11/27
 14 13  0  0  0  0  0  0  0  0999 V2000
   52.9232    2.5410   -6.9242 N   0  0  0  0  0  0  0  0  0  0  0  0
   51.7362    2.6811   -6.0895 C   0  0  0  0  0  0  0  0  0  0  0  0
   50.4617    2.3120   -6.8780 C   0  0  0  0  0  0  0  0  0  0  0  0
   49.1449    2.5173   -6.1030 C   0  0  0  0  0  0  0  0  0  0  0  0
   48.9712    1.8014   -4.8302 N   0  0  0  0  0  0  0  0  0  0  0  0
   48.5527    0.3955   -4.8043 C   0  0  0  0  0  0  0  0  0  0  0  0
   49.6611   -0.6186   -5.1018 C   0  0  0  0  0  0  0  0  0  0  0  0
   50.9200   -0.3940   -4.2471 C   0  0  0  0  0  0  0  0  0  0  0  0
   50.6555   -0.4041   -2.7330 C   0  0  0  0  0  0  0  0  0  0  0  0
   51.8053   -0.0264   -1.9078 N   0  0  0  0  0  0  0  0  0  0  0  0
   51.5770    0.5430   -0.5684 C   0  0  0  0  0  0  0  0  0  0  0  0
   51.4301    2.0804   -0.4767 C   0  0  0  0  0  0  0  0  0  0  0  0
   51.2837    2.6575    0.9459 C   0  0  0  0  0  0  0  0  0  0  0  0
   51.2912    4.1172    0.9738 N   0  0  0  0  0  0  0  0  0  0  0  0
  1  2  1  0  0  0  0
  2  3  1  0  0  0  0
  3  4  1  0  0  0  0
  4  5  1  0  0  0  0
  5  6  1  0  0  0  0
  6  7  1  0  0  0  0
  7  8  1  0  0  0  0
  8  9  1  0  0  0  0
  9 10  1  0  0  0  0
 10 11  1  0  0  0  0
 11 12  1  0  0  0  0
 12 13  1  0  0  0  0
 13 14  1  0  0  0  0
M  END
>  <CHROM.1>
-176.24153576,-58.03819754,-81.02450100,78.84230569,50.73049473,56.18709626
-172.68418487,154.52245001,-89.49637466,-176.18296715,173.91980999,50.74363222
1.44282719,-3.48186240,-1.97906117,1.17438739,1.86498387

>  <Name>
ligand

>  <RI>
0

>  <Rbt.Current_Directory>
/home/itssahil/PROJECTS/Mol_Feturizer/New_Systems/rnas/4E8Q

>  <Rbt.Executable>
rbdock ($Id: //depot/dev/client3/rdock/2013.1/src/exe/rbdock.cxx#4 $)

>  <Rbt.Library>
libRbt.so (2013.1, Build901 2013/11/27)

>  <Rbt.Parameter_File>
/export/apps/rDock/src/rDock_2013.1_src/data/scripts/dock_solv.prm

>  <Rbt.Receptor>
prm/pocket_docking_3.prm

>  <SCORE>
-11.2166

>  <SCORE.INTER>
0.256005

>  <SCORE.INTER.CONST>
1

>  <SCORE.INTER.POLAR>
0

>  <SCORE.INTER.ROT>
11

>  <SCORE.INTER.SOLV>
11.6446

>  <SCORE.INTER.VDW>
-14.6442

>  <SCORE.INTER.norm>
0.0182861

>  <SCORE.INTRA>
-11.4791

>  <SCORE.INTRA.DIHEDRAL>
-23.4391

>  <SCORE.INTRA.DIHEDRAL.0>
25.9209

>  <SCORE.INTRA.POLAR>
0

>  <SCORE.INTRA.POLAR.0>
0

>  <SCORE.INTRA.REPUL>
0

>  <SCORE.INTRA.REPUL.0>
0

>  <SCORE.INTRA.SOLV>
-0.736446

>  <SCORE.INTRA.SOLV.lig_0>
-47.4815

>  <SCORE.INTRA.VDW>
0.608656

>  <SCORE.INTRA.VDW.0>
-1.57492

>  <SCORE.INTRA.norm>
-0.819937

>  <SCORE.RESTR>
0.00651325

>  <SCORE.RESTR.CAVITY>
0.00651325

>  <SCORE.RESTR.norm>
0.000465232

>  <SCORE.SYSTEM>
0

>  <SCORE.SYSTEM.CONST>
0

>  <SCORE.SYSTEM.DIHEDRAL>
0

>  <SCORE.SYSTEM.SOLV>
0

>  <SCORE.SYSTEM.norm>
0

>  <SCORE.heavy>
14

>  <SCORE.norm>
-0.801186

>  <RMSD>
5.046

$$$$
ligand
 OpenBabel11021811493D
libRbt.so/2013.1/901 2013/11/27
 14 13  0  0  0  0  0  0  0  0999 V2000
   48.6691   -3.7574   -6.5947 N   0  0  0  0  0  0  0  0  0  0  0  0
   48.9785   -2.3840   -6.2160 C   0  0  0  0  0  0  0  0  0  0  0  0
   48.2028   -1.9748   -4.9458 C   0  0  0  0  0  0  0  0  0  0  0  0
   48.4205   -0.5143   -4.5028 C   0  0  0  0  0  0  0  0  0  0  0  0
   49.7963   -0.0697   -4.2339 N   0  0  0  0  0  0  0  0  0  0  0  0
   50.5372   -0.5656   -3.0688 C   0  0  0  0  0  0  0  0  0  0  0  0
   51.6899    0.3284   -2.6025 C   0  0  0  0  0  0  0  0  0  0  0  0
   51.2248    1.7360   -2.1925 C   0  0  0  0  0  0  0  0  0  0  0  0
   52.3598    2.6497   -1.7030 C   0  0  0  0  0  0  0  0  0  0  0  0
   53.3964    2.9267   -2.7000 N   0  0  0  0  0  0  0  0  0  0  0  0
   54.6260    3.6261   -2.2884 C   0  0  0  0  0  0  0  0  0  0  0  0
   54.6328    5.1675   -2.4211 C   0  0  0  0  0  0  0  0  0  0  0  0
   54.4707    5.7192   -3.8519 C   0  0  0  0  0  0  0  0  0  0  0  0
   54.6870    7.1606   -3.9365 N   0  0  0  0  0  0  0  0  0  0  0  0
  1  2  1  0  0  0  0
  2  3  1  0  0  0  0
  3  4  1  0  0  0  0
  4  5  1  0  0  0  0
  5  6  1  0  0  0  0
  6  7  1  0  0  0  0
  7  8  1  0  0  0  0
  8  9  1  0  0  0  0
  9 10  1  0  0  0  0
 10 11  1  0  0  0  0
 11 12  1  0  0  0  0
 12 13  1  0  0  0  0
 13 14  1  0  0  0  0
M  END
>  <CHROM.1>
-177.49211314,-57.08286494,-69.59416727,-157.62802708,60.17450079,179.26817721
61.82992626,-171.21643936,-92.06453249,-62.20198776,-171.27622250,51.54936456
1.43196633,-3.66099242,3.13839206,0.94556319,1.88686367

>  <Name>
ligand

>  <RI>
0

>  <Rbt.Current_Directory>
/home/itssahil/PROJECTS/Mol_Feturizer/New_Systems/rnas/4E8Q

>  <Rbt.Executable>
rbdock ($Id: //depot/dev/client3/rdock/2013.1/src/exe/rbdock.cxx#4 $)

>  <Rbt.Library>
libRbt.so (2013.1, Build901 2013/11/27)

>  <Rbt.Parameter_File>
/export/apps/rDock/src/rDock_2013.1_src/data/scripts/dock_solv.prm

>  <Rbt.Receptor>
prm/pocket_docking_5.prm

>  <SCORE>
-12.2802

>  <SCORE.INTER>
-0.0415843

>  <SCORE.INTER.CONST>
1

>  <SCORE.INTER.POLAR>
0

>  <SCORE.INTER.ROT>
11

>  <SCORE.INTER.SOLV>
7.9692

>  <SCORE.INTER.VDW>
-13.6175

>  <SCORE.INTER.norm>
-0.00297031

>  <SCORE.INTRA>
-12.2386

>  <SCORE.INTRA.DIHEDRAL>
-24.3808

>  <SCORE.INTRA.DIHEDRAL.0>
25.9209

>  <SCORE.INTRA.POLAR>
0

>  <SCORE.INTRA.POLAR.0>
0

>  <SCORE.INTRA.REPUL>
0

>  <SCORE.INTRA.REPUL.0>
0

>  <SCORE.INTRA.SOLV>
-0.791002

>  <SCORE.INTRA.SOLV.lig_0>
-47.4815

>  <SCORE.INTRA.VDW>
0.347284

>  <SCORE.INTRA.VDW.0>
-1.57492

>  <SCORE.INTRA.norm>
-0.874188

>  <SCORE.RESTR>
0

>  <SCORE.RESTR.CAVITY>
0

>  <SCORE.RESTR.norm>
0

>  <SCORE.SYSTEM>
0

>  <SCORE.SYSTEM.CONST>
0

>  <SCORE.SYSTEM.DIHEDRAL>
0

>  <SCORE.SYSTEM.SOLV>
0

>  <SCORE.SYSTEM.norm>
0

>  <SCORE.heavy>
14

>  <SCORE.norm>
-0.877158

>  <RMSD>
5.064

$$$$
ligand
 OpenBabel11021811493D
libRbt.so/2013.1/901 2013/11/27
 14 13  0  0  0  0  0  0  0  0999 V2000
   52.0148   -0.9706  -10.9130 N   0  0  0  0  0  0  0  0  0  0  0  0
   52.5057   -0.5568   -9.6042 C   0  0  0  0  0  0  0  0  0  0  0  0
   51.3355   -0.1774   -8.6717 C   0  0  0  0  0  0  0  0  0  0  0  0
   51.7605    0.2923   -7.2662 C   0  0  0  0  0  0  0  0  0  0  0  0
   50.7085    0.7144   -6.3293 N   0  0  0  0  0  0  0  0  0  0  0  0
   50.4543   -0.0315   -5.0917 C   0  0  0  0  0  0  0  0  0  0  0  0
   51.2062    0.4787   -3.8589 C   0  0  0  0  0  0  0  0  0  0  0  0
   50.8924   -0.3332   -2.5907 C   0  0  0  0  0  0  0  0  0  0  0  0
   51.5942    0.1889   -1.3267 C   0  0  0  0  0  0  0  0  0  0  0  0
   51.1392    1.5051   -0.8729 N   0  0  0  0  0  0  0  0  0  0  0  0
   51.7466    2.1048    0.3280 C   0  0  0  0  0  0  0  0  0  0  0  0
   50.9268    3.1956    1.0571 C   0  0  0  0  0  0  0  0  0  0  0  0
   51.5796    3.7955    2.3189 C   0  0  0  0  0  0  0  0  0  0  0  0
   50.7652    4.8326    2.9454 N   0  0  0  0  0  0  0  0  0  0  0  0
  1  2  1  0  0  0  0
  2  3  1  0  0  0  0
  3  4  1  0  0  0  0
  4  5  1  0  0  0  0
  5  6  1  0  0  0  0
  6  7  1  0  0  0  0
  7  8  1  0  0  0  0
  8  9  1  0  0  0  0
  9 10  1  0  0  0  0
 10 11  1  0  0  0  0
 11 12  1  0  0  0  0
 12 13  1  0  0  0  0
 13 14  1  0  0  0  0
M  END
>  <CHROM.1>
-179.24065031,178.05319178,115.34232010,92.83884087,179.53296046,-177.88577810
66.95138503,-179.82502326,-158.33944233,179.37973081,179.05759004,51.33073807
1.07399114,-3.56248097,-1.13743518,1.45730291,0.80639138

>  <Name>
ligand

>  <RI>
0

>  <Rbt.Current_Directory>
/home/itssahil/PROJECTS/Mol_Feturizer/New_Systems/rnas/4E8Q

>  <Rbt.Executable>
rbdock ($Id: //depot/dev/client3/rdock/2013.1/src/exe/rbdock.cxx#4 $)

>  <Rbt.Library>
libRbt.so (2013.1, Build901 2013/11/27)

>  <Rbt.Parameter_File>
/export/apps/rDock/src/rDock_2013.1_src/data/scripts/dock_solv.prm

>  <Rbt.Receptor>
prm/pocket_docking_6.prm

>  <SCORE>
-12.7999

>  <SCORE.INTER>
-0.536225

>  <SCORE.INTER.CONST>
1

>  <SCORE.INTER.POLAR>
0

>  <SCORE.INTER.ROT>
11

>  <SCORE.INTER.SOLV>
6.74237

>  <SCORE.INTER.VDW>
-13.5383

>  <SCORE.INTER.norm>
-0.0383018

>  <SCORE.INTRA>
-12.2637

>  <SCORE.INTRA.DIHEDRAL>
-23.4818

>  <SCORE.INTRA.DIHEDRAL.0>
25.9209

>  <SCORE.INTRA.POLAR>
0

>  <SCORE.INTRA.POLAR.0>
0

>  <SCORE.INTRA.REPUL>
0

>  <SCORE.INTRA.REPUL.0>
0

>  <SCORE.INTRA.SOLV>
-1.7875

>  <SCORE.INTRA.SOLV.lig_0>
-47.4815

>  <SCORE.INTRA.VDW>
0.370967

>  <SCORE.INTRA.VDW.0>
-1.57492

>  <SCORE.INTRA.norm>
-0.875979

>  <SCORE.RESTR>
0

>  <SCORE.RESTR.CAVITY>
0

>  <SCORE.RESTR.norm>
0

>  <SCORE.SYSTEM>
0

>  <SCORE.SYSTEM.CONST>
0

>  <SCORE.SYSTEM.DIHEDRAL>
0

>  <SCORE.SYSTEM.SOLV>
0

>  <SCORE.SYSTEM.norm>
0

>  <SCORE.heavy>
14

>  <SCORE.norm>
-0.914281

>  <RMSD>
5.066

$$$$
ligand
 OpenBabel11021811493D
libRbt.so/2013.1/901 2013/11/27
 14 13  0  0  0  0  0  0  0  0999 V2000
   54.1774    5.3893    1.4586 N   0  0  0  0  0  0  0  0  0  0  0  0
   53.0039    4.7114    0.9216 C   0  0  0  0  0  0  0  0  0  0  0  0
   53.2815    3.2065    0.7195 C   0  0  0  0  0  0  0  0  0  0  0  0
   52.1053    2.4114    0.1186 C   0  0  0  0  0  0  0  0  0  0  0  0
   52.2805    0.9661   -0.0892 N   0  0  0  0  0  0  0  0  0  0  0  0
   51.2125    0.1522   -0.6805 C   0  0  0  0  0  0  0  0  0  0  0  0
   51.1478    0.1763   -2.2104 C   0  0  0  0  0  0  0  0  0  0  0  0
   50.1437   -0.8396   -2.7810 C   0  0  0  0  0  0  0  0  0  0  0  0
   49.9659   -0.7517   -4.3052 C   0  0  0  0  0  0  0  0  0  0  0  0
   49.1146   -1.7939   -4.8837 N   0  0  0  0  0  0  0  0  0  0  0  0
   47.9989   -1.4083   -5.7653 C   0  0  0  0  0  0  0  0  0  0  0  0
   47.5093   -2.4688   -6.7798 C   0  0  0  0  0  0  0  0  0  0  0  0
   46.4002   -2.0102   -7.7481 C   0  0  0  0  0  0  0  0  0  0  0  0
   46.0405   -3.0301   -8.7289 N   0  0  0  0  0  0  0  0  0  0  0  0
  1  2  1  0  0  0  0
  2  3  1  0  0  0  0
  3  4  1  0  0  0  0
  4  5  1  0  0  0  0
  5  6  1  0  0  0  0
  6  7  1  0  0  0  0
  7  8  1  0  0  0  0
  8  9  1  0  0  0  0
  9 10  1  0  0  0  0
 10 11  1  0  0  0  0
 11 12  1  0  0  0  0
 12 13  1  0  0  0  0
 13 14  1  0  0  0  0
M  END
>  <CHROM.1>
-178.48491575,-179.16770642,-178.82140504,82.72724168,172.00704544,174.85527622
174.33341842,128.32375285,155.76785253,-176.36841469,176.55647290,50.31295238
0.33644439,-2.91091946,0.41756936,-0.96985210,-0.14501302

>  <Name>
ligand

>  <RI>
0

>  <Rbt.Current_Directory>
/home/itssahil/PROJECTS/Mol_Feturizer/New_Systems/rnas/4E8Q

>  <Rbt.Executable>
rbdock ($Id: //depot/dev/client3/rdock/2013.1/src/exe/rbdock.cxx#4 $)

>  <Rbt.Library>
libRbt.so (2013.1, Build901 2013/11/27)

>  <Rbt.Parameter_File>
/export/apps/rDock/src/rDock_2013.1_src/data/scripts/dock_solv.prm

>  <Rbt.Receptor>
prm/pocket_docking_8.prm

>  <SCORE>
-13.8791

>  <SCORE.INTER>
-1.58357

>  <SCORE.INTER.CONST>
1

>  <SCORE.INTER.POLAR>
0

>  <SCORE.INTER.ROT>
11

>  <SCORE.INTER.SOLV>
11.6007

>  <SCORE.INTER.VDW>
-15.8559

>  <SCORE.INTER.norm>
-0.113112

>  <SCORE.INTRA>
-12.2955

>  <SCORE.INTRA.DIHEDRAL>
-23.4024

>  <SCORE.INTRA.DIHEDRAL.0>
25.9209

>  <SCORE.INTRA.POLAR>
0

>  <SCORE.INTRA.POLAR.0>
0

>  <SCORE.INTRA.REPUL>
0

>  <SCORE.INTRA.REPUL.0>
0

>  <SCORE.INTRA.SOLV>
-2.11943

>  <SCORE.INTRA.SOLV.lig_0>
-47.4815

>  <SCORE.INTRA.VDW>
0.465386

>  <SCORE.INTRA.VDW.0>
-1.57492

>  <SCORE.INTRA.norm>
-0.878251

>  <SCORE.RESTR>
0

>  <SCORE.RESTR.CAVITY>
0

>  <SCORE.RESTR.norm>
0

>  <SCORE.SYSTEM>
0

>  <SCORE.SYSTEM.CONST>
0

>  <SCORE.SYSTEM.DIHEDRAL>
0

>  <SCORE.SYSTEM.SOLV>
0

>  <SCORE.SYSTEM.norm>
0

>  <SCORE.heavy>
14

>  <SCORE.norm>
-0.991363

>  <RMSD>
5.077

$$$$
ligand
 OpenBabel11021811493D
libRbt.so/2013.1/901 2013/11/27
 14 13  0  0  0  0  0  0  0  0999 V2000
   51.5261    3.0524    2.0345 N   0  0  0  0  0  0  0  0  0  0  0  0
   51.1453    2.5408    0.7236 C   0  0  0  0  0  0  0  0  0  0  0  0
   52.3741    2.4348   -0.2045 C   0  0  0  0  0  0  0  0  0  0  0  0
   52.0529    2.0006   -1.6484 C   0  0  0  0  0  0  0  0  0  0  0  0
   51.5502    0.6358   -1.8659 N   0  0  0  0  0  0  0  0  0  0  0  0
   51.0169    0.2251   -3.1695 C   0  0  0  0  0  0  0  0  0  0  0  0
   50.1108   -1.0093   -3.1418 C   0  0  0  0  0  0  0  0  0  0  0  0
   49.4378   -1.2857   -4.4969 C   0  0  0  0  0  0  0  0  0  0  0  0
   48.3037   -0.3069   -4.8410 C   0  0  0  0  0  0  0  0  0  0  0  0
   48.7037    1.1013   -4.8899 N   0  0  0  0  0  0  0  0  0  0  0  0
   49.5634    1.5701   -5.9906 C   0  0  0  0  0  0  0  0  0  0  0  0
   50.3392    2.8887   -5.7604 C   0  0  0  0  0  0  0  0  0  0  0  0
   49.4758    4.1376   -5.4904 C   0  0  0  0  0  0  0  0  0  0  0  0
   48.6571    4.5246   -6.6356 N   0  0  0  0  0  0  0  0  0  0  0  0
  1  2  1  0  0  0  0
  2  3  1  0  0  0  0
  3  4  1  0  0  0  0
  4  5  1  0  0  0  0
  5  6  1  0  0  0  0
  6  7  1  0  0  0  0
  7  8  1  0  0  0  0
  8  9  1  0  0  0  0
  9 10  1  0  0  0  0
 10 11  1  0  0  0  0
 11 12  1  0  0  0  0
 12 13  1  0  0  0  0
 13 14  1  0  0  0  0
M  END
>  <CHROM.1>
-175.69879527,-66.81394678,169.81967599,-159.92698139,172.58670340,-73.58652495
58.60827583,70.38916339,-159.81960139,-60.35885239,-65.58367750,50.30414654
1.60754148,-3.24137374,-0.13674485,-1.16579344,-0.19429456

>  <Name>
ligand

>  <RI>
0

>  <Rbt.Current_Directory>
/home/itssahil/PROJECTS/Mol_Feturizer/New_Systems/rnas/4E8Q

>  <Rbt.Executable>
rbdock ($Id: //depot/dev/client3/rdock/2013.1/src/exe/rbdock.cxx#4 $)

>  <Rbt.Library>
libRbt.so (2013.1, Build901 2013/11/27)

>  <Rbt.Parameter_File>
/export/apps/rDock/src/rDock_2013.1_src/data/scripts/dock_solv.prm

>  <Rbt.Receptor>
prm/pocket_docking_5.prm

>  <SCORE>
-11.0031

>  <SCORE.INTER>
0.230995

>  <SCORE.INTER.CONST>
1

>  <SCORE.INTER.POLAR>
0

>  <SCORE.INTER.ROT>
11

>  <SCORE.INTER.SOLV>
10.9952

>  <SCORE.INTER.VDW>
-14.4444

>  <SCORE.INTER.norm>
0.0164997

>  <SCORE.INTRA>
-11.2341

>  <SCORE.INTRA.DIHEDRAL>
-23.8282

>  <SCORE.INTRA.DIHEDRAL.0>
25.9209

>  <SCORE.INTRA.POLAR>
0

>  <SCORE.INTRA.POLAR.0>
0

>  <SCORE.INTRA.REPUL>
0

>  <SCORE.INTRA.REPUL.0>
0

>  <SCORE.INTRA.SOLV>
0.779571

>  <SCORE.INTRA.SOLV.lig_0>
-47.4815

>  <SCORE.INTRA.VDW>
0.29025

>  <SCORE.INTRA.VDW.0>
-1.57492

>  <SCORE.INTRA.norm>
-0.802434

>  <SCORE.RESTR>
0

>  <SCORE.RESTR.CAVITY>
0

>  <SCORE.RESTR.norm>
0

>  <SCORE.SYSTEM>
0

>  <SCORE.SYSTEM.CONST>
0

>  <SCORE.SYSTEM.DIHEDRAL>
0

>  <SCORE.SYSTEM.SOLV>
0

>  <SCORE.SYSTEM.norm>
0

>  <SCORE.heavy>
14

>  <SCORE.norm>
-0.785934

>  <RMSD>
5.115

$$$$
ligand
 OpenBabel11021811493D
libRbt.so/2013.1/901 2013/11/27
 14 13  0  0  0  0  0  0  0  0999 V2000
   52.4288    1.9071   -6.2819 N   0  0  0  0  0  0  0  0  0  0  0  0
   52.4775    1.5215   -7.6869 C   0  0  0  0  0  0  0  0  0  0  0  0
   51.9463    0.0855   -7.8827 C   0  0  0  0  0  0  0  0  0  0  0  0
   50.4521   -0.0975   -7.5502 C   0  0  0  0  0  0  0  0  0  0  0  0
   50.0306    0.0535   -6.1494 N   0  0  0  0  0  0  0  0  0  0  0  0
   49.8551   -1.1168   -5.2821 C   0  0  0  0  0  0  0  0  0  0  0  0
   49.8038   -0.8127   -3.7820 C   0  0  0  0  0  0  0  0  0  0  0  0
   51.1010   -0.1730   -3.2585 C   0  0  0  0  0  0  0  0  0  0  0  0
   51.0747    0.1495   -1.7559 C   0  0  0  0  0  0  0  0  0  0  0  0
   52.1564    1.0247   -1.2982 N   0  0  0  0  0  0  0  0  0  0  0  0
   52.1333    1.5407    0.0815 C   0  0  0  0  0  0  0  0  0  0  0  0
   51.1436    2.6911    0.3825 C   0  0  0  0  0  0  0  0  0  0  0  0
   51.3608    3.9908   -0.4186 C   0  0  0  0  0  0  0  0  0  0  0  0
   50.4497    5.0623   -0.0272 N   0  0  0  0  0  0  0  0  0  0  0  0
  1  2  1  0  0  0  0
  2  3  1  0  0  0  0
  3  4  1  0  0  0  0
  4  5  1  0  0  0  0
  5  6  1  0  0  0  0
  6  7  1  0  0  0  0
  7  8  1  0  0  0  0
  8  9  1  0  0  0  0
  9 10  1  0  0  0  0
 10 11  1  0  0  0  0
 11 12  1  0  0  0  0
 12 13  1  0  0  0  0
 13 14  1  0  0  0  0
M  END
>  <CHROM.1>
65.10224744,-66.95221178,-97.24192625,163.56028478,-61.66686370,179.71499329
-166.69332480,172.14710859,-75.91400021,-60.86391905,-176.33188565,51.17237684
1.13009871,-3.63646652,-1.61702436,1.21161026,1.23322968

>  <Name>
ligand

>  <RI>
0

>  <Rbt.Current_Directory>
/home/itssahil/PROJECTS/Mol_Feturizer/New_Systems/rnas/4E8Q

>  <Rbt.Executable>
rbdock ($Id: //depot/dev/client3/rdock/2013.1/src/exe/rbdock.cxx#4 $)

>  <Rbt.Library>
libRbt.so (2013.1, Build901 2013/11/27)

>  <Rbt.Parameter_File>
/export/apps/rDock/src/rDock_2013.1_src/data/scripts/dock_solv.prm

>  <Rbt.Receptor>
prm/pocket_docking_4.prm

>  <SCORE>
-10.847

>  <SCORE.INTER>
-0.00822513

>  <SCORE.INTER.CONST>
1

>  <SCORE.INTER.POLAR>
0

>  <SCORE.INTER.ROT>
11

>  <SCORE.INTER.SOLV>
8.88004

>  <SCORE.INTER.VDW>
-13.8988

>  <SCORE.INTER.norm>
-0.000587509

>  <SCORE.INTRA>
-10.8388

>  <SCORE.INTRA.DIHEDRAL>
-23.657

>  <SCORE.INTRA.DIHEDRAL.0>
25.9209

>  <SCORE.INTRA.POLAR>
0

>  <SCORE.INTRA.POLAR.0>
0

>  <SCORE.INTRA.REPUL>
0

>  <SCORE.INTRA.REPUL.0>
0

>  <SCORE.INTRA.SOLV>
1.94323

>  <SCORE.INTRA.SOLV.lig_0>
-47.4815

>  <SCORE.INTRA.VDW>
0.0180487

>  <SCORE.INTRA.VDW.0>
-1.57492

>  <SCORE.INTRA.norm>
-0.774201

>  <SCORE.RESTR>
0

>  <SCORE.RESTR.CAVITY>
0

>  <SCORE.RESTR.norm>
0

>  <SCORE.SYSTEM>
0

>  <SCORE.SYSTEM.CONST>
0

>  <SCORE.SYSTEM.DIHEDRAL>
0

>  <SCORE.SYSTEM.SOLV>
0

>  <SCORE.SYSTEM.norm>
0

>  <SCORE.heavy>
14

>  <SCORE.norm>
-0.774789

>  <RMSD>
5.118

$$$$
ligand
 OpenBabel11021811493D
libRbt.so/2013.1/901 2013/11/27
 14 13  0  0  0  0  0  0  0  0999 V2000
   51.6789   -0.1716   -9.5522 N   0  0  0  0  0  0  0  0  0  0  0  0
   51.0180   -0.2053   -8.2533 C   0  0  0  0  0  0  0  0  0  0  0  0
   49.9788   -1.3450   -8.1934 C   0  0  0  0  0  0  0  0  0  0  0  0
   49.0899   -1.3383   -6.9338 C   0  0  0  0  0  0  0  0  0  0  0  0
   49.7469   -1.4349   -5.6217 N   0  0  0  0  0  0  0  0  0  0  0  0
   49.0120   -1.1472   -4.3849 C   0  0  0  0  0  0  0  0  0  0  0  0
   49.8847   -0.9338   -3.1446 C   0  0  0  0  0  0  0  0  0  0  0  0
   50.9281    0.1803   -3.3340 C   0  0  0  0  0  0  0  0  0  0  0  0
   51.7471    0.4889   -2.0704 C   0  0  0  0  0  0  0  0  0  0  0  0
   50.9808    1.0869   -0.9746 N   0  0  0  0  0  0  0  0  0  0  0  0
   51.6847    1.8702    0.0556 C   0  0  0  0  0  0  0  0  0  0  0  0
   50.8075    2.6415    1.0700 C   0  0  0  0  0  0  0  0  0  0  0  0
   51.5699    3.4397    2.1468 C   0  0  0  0  0  0  0  0  0  0  0  0
   52.3592    4.5362    1.5934 N   0  0  0  0  0  0  0  0  0  0  0  0
  1  2  1  0  0  0  0
  2  3  1  0  0  0  0
  3  4  1  0  0  0  0
  4  5  1  0  0  0  0
  5  6  1  0  0  0  0
  6  7  1  0  0  0  0
  7  8  1  0  0  0  0
  8  9  1  0  0  0  0
  9 10  1  0  0  0  0
 10 11  1  0  0  0  0
 11 12  1  0  0  0  0
 12 13  1  0  0  0  0
 13 14  1  0  0  0  0
M  END
>  <CHROM.1>
-171.83633258,-58.92641254,166.69974883,-164.92560379,56.03734871,175.62829862
-67.26281975,-157.44527956,171.57016179,179.32684522,64.91423154,50.74884991
0.54749431,-3.39968605,-1.77730979,0.85498013,1.31169867

>  <Name>
ligand

>  <RI>
0

>  <Rbt.Current_Directory>
/home/itssahil/PROJECTS/Mol_Feturizer/New_Systems/rnas/4E8Q

>  <Rbt.Executable>
rbdock ($Id: //depot/dev/client3/rdock/2013.1/src/exe/rbdock.cxx#4 $)

>  <Rbt.Library>
libRbt.so (2013.1, Build901 2013/11/27)

>  <Rbt.Parameter_File>
/export/apps/rDock/src/rDock_2013.1_src/data/scripts/dock_solv.prm

>  <Rbt.Receptor>
prm/pocket_docking_5.prm

>  <SCORE>
-11.8967

>  <SCORE.INTER>
0.323286

>  <SCORE.INTER.CONST>
1

>  <SCORE.INTER.POLAR>
0

>  <SCORE.INTER.ROT>
11

>  <SCORE.INTER.SOLV>
8.16177

>  <SCORE.INTER.VDW>
-13.4384

>  <SCORE.INTER.norm>
0.0230918

>  <SCORE.INTRA>
-12.2199

>  <SCORE.INTRA.DIHEDRAL>
-24.4929

>  <SCORE.INTRA.DIHEDRAL.0>
25.9209

>  <SCORE.INTRA.POLAR>
0

>  <SCORE.INTRA.POLAR.0>
0

>  <SCORE.INTRA.REPUL>
0

>  <SCORE.INTRA.REPUL.0>
0

>  <SCORE.INTRA.SOLV>
-0.452336

>  <SCORE.INTRA.SOLV.lig_0>
-47.4815

>  <SCORE.INTRA.VDW>
0.252669

>  <SCORE.INTRA.VDW.0>
-1.57492

>  <SCORE.INTRA.norm>
-0.872853

>  <SCORE.RESTR>
0

>  <SCORE.RESTR.CAVITY>
0

>  <SCORE.RESTR.norm>
0

>  <SCORE.SYSTEM>
0

>  <SCORE.SYSTEM.CONST>
0

>  <SCORE.SYSTEM.DIHEDRAL>
0

>  <SCORE.SYSTEM.SOLV>
0

>  <SCORE.SYSTEM.norm>
0

>  <SCORE.heavy>
14

>  <SCORE.norm>
-0.849761

>  <RMSD>
5.122

$$$$
ligand
 OpenBabel11021811493D
libRbt.so/2013.1/901 2013/11/27
 14 13  0  0  0  0  0  0  0  0999 V2000
   48.0632   -3.8584   -5.4069 N   0  0  0  0  0  0  0  0  0  0  0  0
   48.7790   -2.7548   -6.0352 C   0  0  0  0  0  0  0  0  0  0  0  0
   47.9298   -1.4659   -6.0166 C   0  0  0  0  0  0  0  0  0  0  0  0
   47.8423   -0.7742   -4.6417 C   0  0  0  0  0  0  0  0  0  0  0  0
   49.0629   -0.1628   -4.0948 N   0  0  0  0  0  0  0  0  0  0  0  0
   50.0416   -0.9634   -3.3507 C   0  0  0  0  0  0  0  0  0  0  0  0
   51.4538   -0.3737   -3.2915 C   0  0  0  0  0  0  0  0  0  0  0  0
   51.5630    0.8165   -2.3233 C   0  0  0  0  0  0  0  0  0  0  0  0
   51.5612    0.4153   -0.8395 C   0  0  0  0  0  0  0  0  0  0  0  0
   52.0028    1.4667    0.0798 N   0  0  0  0  0  0  0  0  0  0  0  0
   51.0054    2.3776    0.6680 C   0  0  0  0  0  0  0  0  0  0  0  0
   51.5465    3.5818    1.4746 C   0  0  0  0  0  0  0  0  0  0  0  0
   50.4841    4.4526    2.1754 C   0  0  0  0  0  0  0  0  0  0  0  0
   49.7778    3.7459    3.2399 N   0  0  0  0  0  0  0  0  0  0  0  0
  1  2  1  0  0  0  0
  2  3  1  0  0  0  0
  3  4  1  0  0  0  0
  4  5  1  0  0  0  0
  5  6  1  0  0  0  0
  6  7  1  0  0  0  0
  7  8  1  0  0  0  0
  8  9  1  0  0  0  0
  9 10  1  0  0  0  0
 10 11  1  0  0  0  0
 11 12  1  0  0  0  0
 12 13  1  0  0  0  0
 13 14  1  0  0  0  0
M  END
>  <CHROM.1>
74.90024473,67.93146485,-84.44136985,158.30788978,74.69649398,74.75377572
165.07013926,91.43527704,-171.90666767,-175.17044268,66.04651453,50.07966876
0.46457188,-2.02609782,1.83313313,0.13754356,-2.26167336

>  <Name>
ligand

>  <RI>
0

>  <Rbt.Current_Directory>
/home/itssahil/PROJECTS/Mol_Feturizer/New_Systems/rnas/4E8Q

>  <Rbt.Executable>
rbdock ($Id: //depot/dev/client3/rdock/2013.1/src/exe/rbdock.cxx#4 $)

>  <Rbt.Library>
libRbt.so (2013.1, Build901 2013/11/27)

>  <Rbt.Parameter_File>
/export/apps/rDock/src/rDock_2013.1_src/data/scripts/dock_solv.prm

>  <Rbt.Receptor>
prm/pocket_docking_8.prm

>  <SCORE>
-12.3004

>  <SCORE.INTER>
-2.70699

>  <SCORE.INTER.CONST>
1

>  <SCORE.INTER.POLAR>
0

>  <SCORE.INTER.ROT>
11

>  <SCORE.INTER.SOLV>
14.0845

>  <SCORE.INTER.VDW>
-17.4328

>  <SCORE.INTER.norm>
-0.193356

>  <SCORE.INTRA>
-9.59341

>  <SCORE.INTRA.DIHEDRAL>
-20.7427

>  <SCORE.INTRA.DIHEDRAL.0>
25.9209

>  <SCORE.INTRA.POLAR>
0

>  <SCORE.INTRA.POLAR.0>
0

>  <SCORE.INTRA.REPUL>
0

>  <SCORE.INTRA.REPUL.0>
0

>  <SCORE.INTRA.SOLV>
0.689436

>  <SCORE.INTRA.SOLV.lig_0>
-47.4815

>  <SCORE.INTRA.VDW>
0.433198

>  <SCORE.INTRA.VDW.0>
-1.57492

>  <SCORE.INTRA.norm>
-0.685244

>  <SCORE.RESTR>
0

>  <SCORE.RESTR.CAVITY>
0

>  <SCORE.RESTR.norm>
0

>  <SCORE.SYSTEM>
0

>  <SCORE.SYSTEM.CONST>
0

>  <SCORE.SYSTEM.DIHEDRAL>
0

>  <SCORE.SYSTEM.SOLV>
0

>  <SCORE.SYSTEM.norm>
0

>  <SCORE.heavy>
14

>  <SCORE.norm>
-0.8786

>  <RMSD>
5.126

$$$$
ligand
 OpenBabel11021811493D
libRbt.so/2013.1/901 2013/11/27
 14 13  0  0  0  0  0  0  0  0999 V2000
   53.8358    5.1982   -2.7943 N   0  0  0  0  0  0  0  0  0  0  0  0
   54.0038    4.3336   -1.6326 C   0  0  0  0  0  0  0  0  0  0  0  0
   52.7415    3.4775   -1.3960 C   0  0  0  0  0  0  0  0  0  0  0  0
   52.8297    2.5231   -0.1885 C   0  0  0  0  0  0  0  0  0  0  0  0
   51.7341    1.5641    0.0181 N   0  0  0  0  0  0  0  0  0  0  0  0
   51.5946    0.3797   -0.8365 C   0  0  0  0  0  0  0  0  0  0  0  0
   51.1228    0.6612   -2.2660 C   0  0  0  0  0  0  0  0  0  0  0  0
   50.7300   -0.6165   -3.0269 C   0  0  0  0  0  0  0  0  0  0  0  0
   50.0062   -0.3525   -4.3570 C   0  0  0  0  0  0  0  0  0  0  0  0
   49.5123   -1.5534   -5.0345 N   0  0  0  0  0  0  0  0  0  0  0  0
   48.5978   -1.4115   -6.1809 C   0  0  0  0  0  0  0  0  0  0  0  0
   47.7660   -2.6561   -6.5715 C   0  0  0  0  0  0  0  0  0  0  0  0
   48.5753   -3.9137   -6.9479 C   0  0  0  0  0  0  0  0  0  0  0  0
   47.7342   -5.0264   -7.3794 N   0  0  0  0  0  0  0  0  0  0  0  0
  1  2  1  0  0  0  0
  2  3  1  0  0  0  0
  3  4  1  0  0  0  0
  4  5  1  0  0  0  0
  5  6  1  0  0  0  0
  6  7  1  0  0  0  0
  7  8  1  0  0  0  0
  8  9  1  0  0  0  0
  9 10  1  0  0  0  0
 10 11  1  0  0  0  0
 11 12  1  0  0  0  0
 12 13  1  0  0  0  0
 13 14  1  0  0  0  0
M  END
>  <CHROM.1>
179.69565849,-173.20328439,74.28376814,-71.95439455,-168.70558663,169.00903335
-174.49655375,168.97638684,-161.22248149,-59.15471411,-176.68781526,50.77031829
0.18628751,-3.47084619,-0.30466610,-1.03661982,-1.24127263

>  <Name>
ligand

>  <RI>
0

>  <Rbt.Current_Directory>
/home/itssahil/PROJECTS/Mol_Feturizer/New_Systems/rnas/4E8Q

>  <Rbt.Executable>
rbdock ($Id: //depot/dev/client3/rdock/2013.1/src/exe/rbdock.cxx#4 $)

>  <Rbt.Library>
libRbt.so (2013.1, Build901 2013/11/27)

>  <Rbt.Parameter_File>
/export/apps/rDock/src/rDock_2013.1_src/data/scripts/dock_solv.prm

>  <Rbt.Receptor>
prm/pocket_docking_7.prm

>  <SCORE>
-12.8263

>  <SCORE.INTER>
-0.507038

>  <SCORE.INTER.CONST>
1

>  <SCORE.INTER.POLAR>
0

>  <SCORE.INTER.ROT>
11

>  <SCORE.INTER.SOLV>
7.06898

>  <SCORE.INTER.VDW>
-13.6277

>  <SCORE.INTER.norm>
-0.036217

>  <SCORE.INTRA>
-12.3192

>  <SCORE.INTRA.DIHEDRAL>
-23.9897

>  <SCORE.INTRA.DIHEDRAL.0>
25.9209

>  <SCORE.INTRA.POLAR>
0

>  <SCORE.INTRA.POLAR.0>
0

>  <SCORE.INTRA.REPUL>
0

>  <SCORE.INTRA.REPUL.0>
0

>  <SCORE.INTRA.SOLV>
-1.81579

>  <SCORE.INTRA.SOLV.lig_0>
-47.4815

>  <SCORE.INTRA.VDW>
0.58348

>  <SCORE.INTRA.VDW.0>
-1.57492

>  <SCORE.INTRA.norm>
-0.879946

>  <SCORE.RESTR>
0

>  <SCORE.RESTR.CAVITY>
0

>  <SCORE.RESTR.norm>
0

>  <SCORE.SYSTEM>
0

>  <SCORE.SYSTEM.CONST>
0

>  <SCORE.SYSTEM.DIHEDRAL>
0

>  <SCORE.SYSTEM.SOLV>
0

>  <SCORE.SYSTEM.norm>
0

>  <SCORE.heavy>
14

>  <SCORE.norm>
-0.916163

>  <RMSD>
5.144

$$$$
ligand
 OpenBabel11021811493D
libRbt.so/2013.1/901 2013/11/27
 14 13  0  0  0  0  0  0  0  0999 V2000
   46.9819   -4.5705   -8.4671 N   0  0  0  0  0  0  0  0  0  0  0  0
   47.9402   -3.7291   -7.7609 C   0  0  0  0  0  0  0  0  0  0  0  0
   47.9013   -4.0048   -6.2426 C   0  0  0  0  0  0  0  0  0  0  0  0
   48.8816   -3.1548   -5.4101 C   0  0  0  0  0  0  0  0  0  0  0  0
   48.6943   -1.6962   -5.3959 N   0  0  0  0  0  0  0  0  0  0  0  0
   49.7715   -0.7996   -4.9617 C   0  0  0  0  0  0  0  0  0  0  0  0
   50.0457   -0.7948   -3.4549 C   0  0  0  0  0  0  0  0  0  0  0  0
   51.1181    0.2297   -3.0472 C   0  0  0  0  0  0  0  0  0  0  0  0
   51.2945    0.3762   -1.5273 C   0  0  0  0  0  0  0  0  0  0  0  0
   52.1534    1.4886   -1.1147 N   0  0  0  0  0  0  0  0  0  0  0  0
   52.2754    1.8145    0.3169 C   0  0  0  0  0  0  0  0  0  0  0  0
   53.3126    2.8955    0.7031 C   0  0  0  0  0  0  0  0  0  0  0  0
   53.4276    3.2084    2.2088 C   0  0  0  0  0  0  0  0  0  0  0  0
   54.4029    4.2545    2.5020 N   0  0  0  0  0  0  0  0  0  0  0  0
  1  2  1  0  0  0  0
  2  3  1  0  0  0  0
  3  4  1  0  0  0  0
  4  5  1  0  0  0  0
  5  6  1  0  0  0  0
  6  7  1  0  0  0  0
  7  8  1  0  0  0  0
  8  9  1  0  0  0  0
  9 10  1  0  0  0  0
 10 11  1  0  0  0  0
 11 12  1  0  0  0  0
 12 13  1  0  0  0  0
 13 14  1  0  0  0  0
M  END
>  <CHROM.1>
-179.81610915,63.26564480,-162.47430572,-72.82845406,-176.17217185,173.08169643
-170.86229846,173.35934249,173.51240308,-179.51305480,-178.82829498,50.58579272
-0.32024690,-2.97505678,-2.68423100,1.03934506,1.95100632

>  <Name>
ligand

>  <RI>
0

>  <Rbt.Current_Directory>
/home/itssahil/PROJECTS/Mol_Feturizer/New_Systems/rnas/4E8Q

>  <Rbt.Executable>
rbdock ($Id: //depot/dev/client3/rdock/2013.1/src/exe/rbdock.cxx#4 $)

>  <Rbt.Library>
libRbt.so (2013.1, Build901 2013/11/27)

>  <Rbt.Parameter_File>
/export/apps/rDock/src/rDock_2013.1_src/data/scripts/dock_solv.prm

>  <Rbt.Receptor>
prm/pocket_docking_7.prm

>  <SCORE>
-14.1157

>  <SCORE.INTER>
-1.25657

>  <SCORE.INTER.CONST>
1

>  <SCORE.INTER.POLAR>
0

>  <SCORE.INTER.ROT>
11

>  <SCORE.INTER.SOLV>
6.42375

>  <SCORE.INTER.VDW>
-13.9123

>  <SCORE.INTER.norm>
-0.0897552

>  <SCORE.INTRA>
-12.8591

>  <SCORE.INTRA.DIHEDRAL>
-24.8748

>  <SCORE.INTRA.DIHEDRAL.0>
25.9209

>  <SCORE.INTRA.POLAR>
0

>  <SCORE.INTRA.POLAR.0>
0

>  <SCORE.INTRA.REPUL>
0

>  <SCORE.INTRA.REPUL.0>
0

>  <SCORE.INTRA.SOLV>
-1.82531

>  <SCORE.INTRA.SOLV.lig_0>
-47.4815

>  <SCORE.INTRA.VDW>
0.490953

>  <SCORE.INTRA.VDW.0>
-1.57492

>  <SCORE.INTRA.norm>
-0.918506

>  <SCORE.RESTR>
0

>  <SCORE.RESTR.CAVITY>
0

>  <SCORE.RESTR.norm>
0

>  <SCORE.SYSTEM>
0

>  <SCORE.SYSTEM.CONST>
0

>  <SCORE.SYSTEM.DIHEDRAL>
0

>  <SCORE.SYSTEM.SOLV>
0

>  <SCORE.SYSTEM.norm>
0

>  <SCORE.heavy>
14

>  <SCORE.norm>
-1.00826

>  <RMSD>
5.150

$$$$
ligand
 OpenBabel11021811493D
libRbt.so/2013.1/901 2013/11/27
 14 13  0  0  0  0  0  0  0  0999 V2000
   51.0247    4.0379    2.6538 N   0  0  0  0  0  0  0  0  0  0  0  0
   50.7383    2.8273    1.8938 C   0  0  0  0  0  0  0  0  0  0  0  0
   51.5020    2.8254    0.5524 C   0  0  0  0  0  0  0  0  0  0  0  0
   51.3357    1.5383   -0.2796 C   0  0  0  0  0  0  0  0  0  0  0  0
   52.0311    1.4545   -1.5727 N   0  0  0  0  0  0  0  0  0  0  0  0
   51.3070    1.1033   -2.7994 C   0  0  0  0  0  0  0  0  0  0  0  0
   50.9027   -0.3691   -2.9169 C   0  0  0  0  0  0  0  0  0  0  0  0
   50.0025   -0.6452   -4.1332 C   0  0  0  0  0  0  0  0  0  0  0  0
   50.7404   -0.5895   -5.4804 C   0  0  0  0  0  0  0  0  0  0  0  0
   51.2932    0.7231   -5.8223 N   0  0  0  0  0  0  0  0  0  0  0  0
   51.8796    0.9345   -7.1572 C   0  0  0  0  0  0  0  0  0  0  0  0
   52.4885    2.3279   -7.4419 C   0  0  0  0  0  0  0  0  0  0  0  0
   52.9996    2.5567   -8.8788 C   0  0  0  0  0  0  0  0  0  0  0  0
   53.5603    3.8895   -9.0803 N   0  0  0  0  0  0  0  0  0  0  0  0
  1  2  1  0  0  0  0
  2  3  1  0  0  0  0
  3  4  1  0  0  0  0
  4  5  1  0  0  0  0
  5  6  1  0  0  0  0
  6  7  1  0  0  0  0
  7  8  1  0  0  0  0
  8  9  1  0  0  0  0
  9 10  1  0  0  0  0
 10 11  1  0  0  0  0
 11 12  1  0  0  0  0
 12 13  1  0  0  0  0
 13 14  1  0  0  0  0
M  END
>  <CHROM.1>
176.06727458,179.99894766,-127.62871179,-73.41399353,173.00447705,72.62644303
-63.78225294,-172.77750679,-178.05172763,-175.58722857,179.96986211,51.55736776
1.61495382,-3.60453659,-1.90426382,-1.11009398,-1.94429129

>  <Name>
ligand

>  <RI>
0

>  <Rbt.Current_Directory>
/home/itssahil/PROJECTS/Mol_Feturizer/New_Systems/rnas/4E8Q

>  <Rbt.Executable>
rbdock ($Id: //depot/dev/client3/rdock/2013.1/src/exe/rbdock.cxx#4 $)

>  <Rbt.Library>
libRbt.so (2013.1, Build901 2013/11/27)

>  <Rbt.Parameter_File>
/export/apps/rDock/src/rDock_2013.1_src/data/scripts/dock_solv.prm

>  <Rbt.Receptor>
prm/pocket_docking_5.prm

>  <SCORE>
-11.5735

>  <SCORE.INTER>
0.0798231

>  <SCORE.INTER.CONST>
1

>  <SCORE.INTER.POLAR>
0

>  <SCORE.INTER.ROT>
11

>  <SCORE.INTER.SOLV>
7.18684

>  <SCORE.INTER.VDW>
-13.2757

>  <SCORE.INTER.norm>
0.00570165

>  <SCORE.INTRA>
-11.6533

>  <SCORE.INTRA.DIHEDRAL>
-23.5672

>  <SCORE.INTRA.DIHEDRAL.0>
25.9209

>  <SCORE.INTRA.POLAR>
0

>  <SCORE.INTRA.POLAR.0>
0

>  <SCORE.INTRA.REPUL>
0

>  <SCORE.INTRA.REPUL.0>
0

>  <SCORE.INTRA.SOLV>
-1.16849

>  <SCORE.INTRA.SOLV.lig_0>
-47.4815

>  <SCORE.INTRA.VDW>
0.714524

>  <SCORE.INTRA.VDW.0>
-1.57492

>  <SCORE.INTRA.norm>
-0.83238

>  <SCORE.RESTR>
0

>  <SCORE.RESTR.CAVITY>
0

>  <SCORE.RESTR.norm>
0

>  <SCORE.SYSTEM>
0

>  <SCORE.SYSTEM.CONST>
0

>  <SCORE.SYSTEM.DIHEDRAL>
0

>  <SCORE.SYSTEM.SOLV>
0

>  <SCORE.SYSTEM.norm>
0

>  <SCORE.heavy>
14

>  <SCORE.norm>
-0.826679

>  <RMSD>
5.152

$$$$
ligand
 OpenBabel11021811493D
libRbt.so/2013.1/901 2013/11/27
 14 13  0  0  0  0  0  0  0  0999 V2000
   54.3453    3.9085   -2.5134 N   0  0  0  0  0  0  0  0  0  0  0  0
   53.3625    3.0907   -3.2139 C   0  0  0  0  0  0  0  0  0  0  0  0
   51.9834    3.1772   -2.5261 C   0  0  0  0  0  0  0  0  0  0  0  0
   51.9351    2.5788   -1.1062 C   0  0  0  0  0  0  0  0  0  0  0  0
   52.1527    1.1321   -0.9563 N   0  0  0  0  0  0  0  0  0  0  0  0
   51.1264    0.1666   -1.3652 C   0  0  0  0  0  0  0  0  0  0  0  0
   51.0114   -0.0597   -2.8755 C   0  0  0  0  0  0  0  0  0  0  0  0
   49.7991   -0.9255   -3.2582 C   0  0  0  0  0  0  0  0  0  0  0  0
   49.7167   -1.2550   -4.7573 C   0  0  0  0  0  0  0  0  0  0  0  0
   49.5808   -0.0896   -5.6341 N   0  0  0  0  0  0  0  0  0  0  0  0
   49.7861   -0.2488   -7.0843 C   0  0  0  0  0  0  0  0  0  0  0  0
   48.6182   -0.8602   -7.8940 C   0  0  0  0  0  0  0  0  0  0  0  0
   48.1816   -2.2790   -7.4764 C   0  0  0  0  0  0  0  0  0  0  0  0
   47.1714   -2.8499   -8.3624 N   0  0  0  0  0  0  0  0  0  0  0  0
  1  2  1  0  0  0  0
  2  3  1  0  0  0  0
  3  4  1  0  0  0  0
  4  5  1  0  0  0  0
  5  6  1  0  0  0  0
  6  7  1  0  0  0  0
  7  8  1  0  0  0  0
  8  9  1  0  0  0  0
  9 10  1  0  0  0  0
 10 11  1  0  0  0  0
 11 12  1  0  0  0  0
 12 13  1  0  0  0  0
 13 14  1  0  0  0  0
M  END
>  <CHROM.1>
-65.48365797,-65.05921309,-72.90617833,76.20061692,-172.01538618,-175.75252217
-61.55951529,166.76275090,78.64472056,-59.80010476,-174.15665989,50.62640225
0.39181737,-4.21588485,-0.53799390,-0.90399520,-1.31613017

>  <Name>
ligand

>  <RI>
0

>  <Rbt.Current_Directory>
/home/itssahil/PROJECTS/Mol_Feturizer/New_Systems/rnas/4E8Q

>  <Rbt.Executable>
rbdock ($Id: //depot/dev/client3/rdock/2013.1/src/exe/rbdock.cxx#4 $)

>  <Rbt.Library>
libRbt.so (2013.1, Build901 2013/11/27)

>  <Rbt.Parameter_File>
/export/apps/rDock/src/rDock_2013.1_src/data/scripts/dock_solv.prm

>  <Rbt.Receptor>
prm/pocket_docking_8.prm

>  <SCORE>
-10.8227

>  <SCORE.INTER>
0.853278

>  <SCORE.INTER.CONST>
1

>  <SCORE.INTER.POLAR>
0

>  <SCORE.INTER.ROT>
11

>  <SCORE.INTER.SOLV>
7.42914

>  <SCORE.INTER.VDW>
-12.8409

>  <SCORE.INTER.norm>
0.0609484

>  <SCORE.INTRA>
-11.676

>  <SCORE.INTRA.DIHEDRAL>
-24.5236

>  <SCORE.INTRA.DIHEDRAL.0>
25.9209

>  <SCORE.INTRA.POLAR>
0

>  <SCORE.INTRA.POLAR.0>
0

>  <SCORE.INTRA.REPUL>
0

>  <SCORE.INTRA.REPUL.0>
0

>  <SCORE.INTRA.SOLV>
0.0476317

>  <SCORE.INTRA.SOLV.lig_0>
-47.4815

>  <SCORE.INTRA.VDW>
0.562001

>  <SCORE.INTRA.VDW.0>
-1.57492

>  <SCORE.INTRA.norm>
-0.833999

>  <SCORE.RESTR>
0

>  <SCORE.RESTR.CAVITY>
0

>  <SCORE.RESTR.norm>
0

>  <SCORE.SYSTEM>
0

>  <SCORE.SYSTEM.CONST>
0

>  <SCORE.SYSTEM.DIHEDRAL>
0

>  <SCORE.SYSTEM.SOLV>
0

>  <SCORE.SYSTEM.norm>
0

>  <SCORE.heavy>
14

>  <SCORE.norm>
-0.773051

>  <RMSD>
5.173

$$$$
ligand
 OpenBabel11021811493D
libRbt.so/2013.1/901 2013/11/27
 14 13  0  0  0  0  0  0  0  0999 V2000
   50.4382    5.0830   -2.3895 N   0  0  0  0  0  0  0  0  0  0  0  0
   50.7979    4.2236   -1.2682 C   0  0  0  0  0  0  0  0  0  0  0  0
   52.1091    3.4619   -1.5566 C   0  0  0  0  0  0  0  0  0  0  0  0
   52.5396    2.4816   -0.4474 C   0  0  0  0  0  0  0  0  0  0  0  0
   51.6063    1.4097   -0.0696 N   0  0  0  0  0  0  0  0  0  0  0  0
   51.4535    0.2116   -0.9024 C   0  0  0  0  0  0  0  0  0  0  0  0
   51.0424    0.4766   -2.3537 C   0  0  0  0  0  0  0  0  0  0  0  0
   50.4968   -0.7776   -3.0575 C   0  0  0  0  0  0  0  0  0  0  0  0
   50.0669   -0.5380   -4.5137 C   0  0  0  0  0  0  0  0  0  0  0  0
   51.1439   -0.1050   -5.4070 N   0  0  0  0  0  0  0  0  0  0  0  0
   50.8996   -0.0494   -6.8588 C   0  0  0  0  0  0  0  0  0  0  0  0
   52.0994    0.3352   -7.7566 C   0  0  0  0  0  0  0  0  0  0  0  0
   52.7012    1.7336   -7.5108 C   0  0  0  0  0  0  0  0  0  0  0  0
   51.7530    2.8155   -7.7596 N   0  0  0  0  0  0  0  0  0  0  0  0
  1  2  1  0  0  0  0
  2  3  1  0  0  0  0
  3  4  1  0  0  0  0
  4  5  1  0  0  0  0
  5  6  1  0  0  0  0
  6  7  1  0  0  0  0
  7  8  1  0  0  0  0
  8  9  1  0  0  0  0
  9 10  1  0  0  0  0
 10 11  1  0  0  0  0
 11 12  1  0  0  0  0
 12 13  1  0  0  0  0
 13 14  1  0  0  0  0
M  END
>  <CHROM.1>
-177.61543988,58.10482518,77.69941163,-57.39451779,-162.95910719,179.59346650
61.79609910,170.47295257,-176.50570989,-61.36024269,-61.82915499,51.36775054
1.48270468,-3.70359402,-1.74722736,-1.42679463,-2.02802879

>  <Name>
ligand

>  <RI>
0

>  <Rbt.Current_Directory>
/home/itssahil/PROJECTS/Mol_Feturizer/New_Systems/rnas/4E8Q

>  <Rbt.Executable>
rbdock ($Id: //depot/dev/client3/rdock/2013.1/src/exe/rbdock.cxx#4 $)

>  <Rbt.Library>
libRbt.so (2013.1, Build901 2013/11/27)

>  <Rbt.Parameter_File>
/export/apps/rDock/src/rDock_2013.1_src/data/scripts/dock_solv.prm

>  <Rbt.Receptor>
prm/pocket_docking_6.prm

>  <SCORE>
-11.4748

>  <SCORE.INTER>
0.0287332

>  <SCORE.INTER.CONST>
1

>  <SCORE.INTER.POLAR>
0

>  <SCORE.INTER.ROT>
11

>  <SCORE.INTER.SOLV>
7.30974

>  <SCORE.INTER.VDW>
-13.3508

>  <SCORE.INTER.norm>
0.00205237

>  <SCORE.INTRA>
-11.5036

>  <SCORE.INTRA.DIHEDRAL>
-24.4972

>  <SCORE.INTRA.DIHEDRAL.0>
25.9209

>  <SCORE.INTRA.POLAR>
0

>  <SCORE.INTRA.POLAR.0>
0

>  <SCORE.INTRA.REPUL>
0

>  <SCORE.INTRA.REPUL.0>
0

>  <SCORE.INTRA.SOLV>
0.156287

>  <SCORE.INTRA.SOLV.lig_0>
-47.4815

>  <SCORE.INTRA.VDW>
0.666876

>  <SCORE.INTRA.VDW.0>
-1.57492

>  <SCORE.INTRA.norm>
-0.821684

>  <SCORE.RESTR>
0

>  <SCORE.RESTR.CAVITY>
0

>  <SCORE.RESTR.norm>
0

>  <SCORE.SYSTEM>
0

>  <SCORE.SYSTEM.CONST>
0

>  <SCORE.SYSTEM.DIHEDRAL>
0

>  <SCORE.SYSTEM.SOLV>
0

>  <SCORE.SYSTEM.norm>
0

>  <SCORE.heavy>
14

>  <SCORE.norm>
-0.819632

>  <RMSD>
5.178

$$$$
ligand
 OpenBabel11021811493D
libRbt.so/2013.1/901 2013/11/27
 14 13  0  0  0  0  0  0  0  0999 V2000
   52.9175    3.2520   -4.6115 N   0  0  0  0  0  0  0  0  0  0  0  0
   54.1642    3.4603   -3.8852 C   0  0  0  0  0  0  0  0  0  0  0  0
   53.9849    4.5175   -2.7750 C   0  0  0  0  0  0  0  0  0  0  0  0
   55.2782    4.8801   -2.0184 C   0  0  0  0  0  0  0  0  0  0  0  0
   56.0202    3.7969   -1.3559 N   0  0  0  0  0  0  0  0  0  0  0  0
   57.0842    4.0902   -0.3892 C   0  0  0  0  0  0  0  0  0  0  0  0
   57.6496    2.8711    0.3454 C   0  0  0  0  0  0  0  0  0  0  0  0
   58.6289    3.2527    1.4683 C   0  0  0  0  0  0  0  0  0  0  0  0
   59.1949    2.0485    2.2379 C   0  0  0  0  0  0  0  0  0  0  0  0
   58.1854    1.1968    2.8710 N   0  0  0  0  0  0  0  0  0  0  0  0
   58.5679   -0.1431    3.3494 C   0  0  0  0  0  0  0  0  0  0  0  0
   58.9462   -1.1891    2.2741 C   0  0  0  0  0  0  0  0  0  0  0  0
   59.4556   -2.5443    2.8051 C   0  0  0  0  0  0  0  0  0  0  0  0
   60.7289   -2.4390    3.5116 N   0  0  0  0  0  0  0  0  0  0  0  0
  1  2  1  0  0  0  0
  2  3  1  0  0  0  0
  3  4  1  0  0  0  0
  4  5  1  0  0  0  0
  5  6  1  0  0  0  0
  6  7  1  0  0  0  0
  7  8  1  0  0  0  0
  8  9  1  0  0  0  0
  9 10  1  0  0  0  0
 10 11  1  0  0  0  0
 11 12  1  0  0  0  0
 12 13  1  0  0  0  0
 13 14  1  0  0  0  0
M  END
>  <CHROM.1>
-175.75984665,-57.11754043,-166.81605942,172.83335793,-172.68383725,179.06971193
-58.22747559,165.26596130,-67.47521867,175.06370353,-65.59449428,57.20057954
1.93239785,0.27345457,2.56941994,-0.86667669,-0.01149398

>  <Name>
ligand

>  <RI>
0

>  <Rbt.Current_Directory>
/home/itssahil/PROJECTS/Mol_Feturizer/New_Systems/rnas/4E8Q

>  <Rbt.Executable>
rbdock ($Id: //depot/dev/client3/rdock/2013.1/src/exe/rbdock.cxx#4 $)

>  <Rbt.Library>
libRbt.so (2013.1, Build901 2013/11/27)

>  <Rbt.Parameter_File>
/export/apps/rDock/src/rDock_2013.1_src/data/scripts/dock_solv.prm

>  <Rbt.Receptor>
prm/pocket_docking_6.prm

>  <SCORE>
-10.9045

>  <SCORE.INTER>
1.50468

>  <SCORE.INTER.CONST>
1

>  <SCORE.INTER.POLAR>
0

>  <SCORE.INTER.ROT>
11

>  <SCORE.INTER.SOLV>
8.65511

>  <SCORE.INTER.VDW>
-12.8153

>  <SCORE.INTER.norm>
0.107477

>  <SCORE.INTRA>
-12.4091

>  <SCORE.INTRA.DIHEDRAL>
-25.0026

>  <SCORE.INTRA.DIHEDRAL.0>
25.9209

>  <SCORE.INTRA.POLAR>
0

>  <SCORE.INTRA.POLAR.0>
0

>  <SCORE.INTRA.REPUL>
0

>  <SCORE.INTRA.REPUL.0>
0

>  <SCORE.INTRA.SOLV>
-0.784377

>  <SCORE.INTRA.SOLV.lig_0>
-47.4815

>  <SCORE.INTRA.VDW>
0.484358

>  <SCORE.INTRA.VDW.0>
-1.57492

>  <SCORE.INTRA.norm>
-0.886368

>  <SCORE.RESTR>
0

>  <SCORE.RESTR.CAVITY>
0

>  <SCORE.RESTR.norm>
0

>  <SCORE.SYSTEM>
0

>  <SCORE.SYSTEM.CONST>
0

>  <SCORE.SYSTEM.DIHEDRAL>
0

>  <SCORE.SYSTEM.SOLV>
0

>  <SCORE.SYSTEM.norm>
0

>  <SCORE.heavy>
14

>  <SCORE.norm>
-0.778891

>  <RMSD>
5.185

$$$$
ligand
 OpenBabel11021811493D
libRbt.so/2013.1/901 2013/11/27
 14 13  0  0  0  0  0  0  0  0999 V2000
   54.5804    3.8941   -2.9847 N   0  0  0  0  0  0  0  0  0  0  0  0
   53.4172    3.8484   -3.8623 C   0  0  0  0  0  0  0  0  0  0  0  0
   52.5133    2.6460   -3.5166 C   0  0  0  0  0  0  0  0  0  0  0  0
   52.0564    2.5879   -2.0454 C   0  0  0  0  0  0  0  0  0  0  0  0
   51.0316    1.5997   -1.6767 N   0  0  0  0  0  0  0  0  0  0  0  0
   51.3153    0.1611   -1.7275 C   0  0  0  0  0  0  0  0  0  0  0  0
   51.3072   -0.4541   -3.1300 C   0  0  0  0  0  0  0  0  0  0  0  0
   49.9668   -0.2594   -3.8589 C   0  0  0  0  0  0  0  0  0  0  0  0
   49.9142   -0.9087   -5.2511 C   0  0  0  0  0  0  0  0  0  0  0  0
   51.0438   -0.5797   -6.1235 N   0  0  0  0  0  0  0  0  0  0  0  0
   51.3185    0.8308   -6.4485 C   0  0  0  0  0  0  0  0  0  0  0  0
   52.4419    1.1068   -7.4758 C   0  0  0  0  0  0  0  0  0  0  0  0
   52.7742    2.5919   -7.7249 C   0  0  0  0  0  0  0  0  0  0  0  0
   51.6514    3.3436   -8.2781 N   0  0  0  0  0  0  0  0  0  0  0  0
  1  2  1  0  0  0  0
  2  3  1  0  0  0  0
  3  4  1  0  0  0  0
  4  5  1  0  0  0  0
  5  6  1  0  0  0  0
  6  7  1  0  0  0  0
  7  8  1  0  0  0  0
  8  9  1  0  0  0  0
  9 10  1  0  0  0  0
 10 11  1  0  0  0  0
 11 12  1  0  0  0  0
 12 13  1  0  0  0  0
 13 14  1  0  0  0  0
M  END
>  <CHROM.1>
55.12799933,170.75126865,66.92159043,-76.97831393,-58.11499910,-178.03770408
-50.24524501,-58.29462342,-174.54942717,-175.96180081,-62.27173821,51.80932164
1.45749071,-4.57877876,-1.60657391,-0.95679359,-1.54517747

>  <Name>
ligand

>  <RI>
0

>  <Rbt.Current_Directory>
/home/itssahil/PROJECTS/Mol_Feturizer/New_Systems/rnas/4E8Q

>  <Rbt.Executable>
rbdock ($Id: //depot/dev/client3/rdock/2013.1/src/exe/rbdock.cxx#4 $)

>  <Rbt.Library>
libRbt.so (2013.1, Build901 2013/11/27)

>  <Rbt.Parameter_File>
/export/apps/rDock/src/rDock_2013.1_src/data/scripts/dock_solv.prm

>  <Rbt.Receptor>
prm/pocket_docking_4.prm

>  <SCORE>
-10.249

>  <SCORE.INTER>
1.51309

>  <SCORE.INTER.CONST>
1

>  <SCORE.INTER.POLAR>
0

>  <SCORE.INTER.ROT>
11

>  <SCORE.INTER.SOLV>
8.74589

>  <SCORE.INTER.VDW>
-12.8399

>  <SCORE.INTER.norm>
0.108078

>  <SCORE.INTRA>
-11.762

>  <SCORE.INTRA.DIHEDRAL>
-24.7639

>  <SCORE.INTRA.DIHEDRAL.0>
25.9209

>  <SCORE.INTRA.POLAR>
0

>  <SCORE.INTRA.POLAR.0>
0

>  <SCORE.INTRA.REPUL>
0

>  <SCORE.INTRA.REPUL.0>
0

>  <SCORE.INTRA.SOLV>
0.218329

>  <SCORE.INTRA.SOLV.lig_0>
-47.4815

>  <SCORE.INTRA.VDW>
0.510759

>  <SCORE.INTRA.VDW.0>
-1.57492

>  <SCORE.INTRA.norm>
-0.840146

>  <SCORE.RESTR>
0

>  <SCORE.RESTR.CAVITY>
0

>  <SCORE.RESTR.norm>
0

>  <SCORE.SYSTEM>
0

>  <SCORE.SYSTEM.CONST>
0

>  <SCORE.SYSTEM.DIHEDRAL>
0

>  <SCORE.SYSTEM.SOLV>
0

>  <SCORE.SYSTEM.norm>
0

>  <SCORE.heavy>
14

>  <SCORE.norm>
-0.732068

>  <RMSD>
5.201

$$$$
ligand
 OpenBabel11021811493D
libRbt.so/2013.1/901 2013/11/27
 14 13  0  0  0  0  0  0  0  0999 V2000
   51.2836    4.7745    0.0054 N   0  0  0  0  0  0  0  0  0  0  0  0
   51.2395    3.8378    1.1216 C   0  0  0  0  0  0  0  0  0  0  0  0
   50.9630    2.4025    0.6257 C   0  0  0  0  0  0  0  0  0  0  0  0
   52.0239    1.8418   -0.3422 C   0  0  0  0  0  0  0  0  0  0  0  0
   51.9029    0.4386   -0.7654 N   0  0  0  0  0  0  0  0  0  0  0  0
   50.8577    0.0199   -1.7061 C   0  0  0  0  0  0  0  0  0  0  0  0
   51.3524   -0.3381   -3.1106 C   0  0  0  0  0  0  0  0  0  0  0  0
   50.2318   -0.8705   -4.0198 C   0  0  0  0  0  0  0  0  0  0  0  0
   49.1852    0.1875   -4.4043 C   0  0  0  0  0  0  0  0  0  0  0  0
   49.7311    1.3813   -5.0540 N   0  0  0  0  0  0  0  0  0  0  0  0
   48.9262    2.6146   -5.0924 C   0  0  0  0  0  0  0  0  0  0  0  0
   48.8692    3.4545   -3.7944 C   0  0  0  0  0  0  0  0  0  0  0  0
   47.9381    4.6833   -3.8298 C   0  0  0  0  0  0  0  0  0  0  0  0
   47.9952    5.4788   -2.6069 N   0  0  0  0  0  0  0  0  0  0  0  0
  1  2  1  0  0  0  0
  2  3  1  0  0  0  0
  3  4  1  0  0  0  0
  4  5  1  0  0  0  0
  5  6  1  0  0  0  0
  6  7  1  0  0  0  0
  7  8  1  0  0  0  0
  8  9  1  0  0  0  0
  9 10  1  0  0  0  0
 10 11  1  0  0  0  0
 11 12  1  0  0  0  0
 12 13  1  0  0  0  0
 13 14  1  0  0  0  0
M  END
>  <CHROM.1>
60.63035367,174.49231430,72.54018407,108.13811510,175.64157200,68.50674121
56.26488954,-161.26855001,77.71731150,-175.67863399,-176.32092372,50.17854018
2.13583074,-2.35532430,0.87670574,-0.94375479,0.65731708

>  <Name>
ligand

>  <RI>
0

>  <Rbt.Current_Directory>
/home/itssahil/PROJECTS/Mol_Feturizer/New_Systems/rnas/4E8Q

>  <Rbt.Executable>
rbdock ($Id: //depot/dev/client3/rdock/2013.1/src/exe/rbdock.cxx#4 $)

>  <Rbt.Library>
libRbt.so (2013.1, Build901 2013/11/27)

>  <Rbt.Parameter_File>
/export/apps/rDock/src/rDock_2013.1_src/data/scripts/dock_solv.prm

>  <Rbt.Receptor>
prm/pocket_docking_5.prm

>  <SCORE>
-11.8756

>  <SCORE.INTER>
-0.489849

>  <SCORE.INTER.CONST>
1

>  <SCORE.INTER.POLAR>
0

>  <SCORE.INTER.ROT>
11

>  <SCORE.INTER.SOLV>
9.62045

>  <SCORE.INTER.VDW>
-14.4667

>  <SCORE.INTER.norm>
-0.0349892

>  <SCORE.INTRA>
-11.3857

>  <SCORE.INTRA.DIHEDRAL>
-23.5422

>  <SCORE.INTRA.DIHEDRAL.0>
25.9209

>  <SCORE.INTRA.POLAR>
0

>  <SCORE.INTRA.POLAR.0>
0

>  <SCORE.INTRA.REPUL>
0

>  <SCORE.INTRA.REPUL.0>
0

>  <SCORE.INTRA.SOLV>
-0.495227

>  <SCORE.INTRA.SOLV.lig_0>
-47.4815

>  <SCORE.INTRA.VDW>
0.63303

>  <SCORE.INTRA.VDW.0>
-1.57492

>  <SCORE.INTRA.norm>
-0.813265

>  <SCORE.RESTR>
0

>  <SCORE.RESTR.CAVITY>
0

>  <SCORE.RESTR.norm>
0

>  <SCORE.SYSTEM>
0

>  <SCORE.SYSTEM.CONST>
0

>  <SCORE.SYSTEM.DIHEDRAL>
0

>  <SCORE.SYSTEM.SOLV>
0

>  <SCORE.SYSTEM.norm>
0

>  <SCORE.heavy>
14

>  <SCORE.norm>
-0.848254

>  <RMSD>
5.216

$$$$
ligand
 OpenBabel11021811493D
libRbt.so/2013.1/901 2013/11/27
 14 13  0  0  0  0  0  0  0  0999 V2000
   51.3157    3.9158    0.6870 N   0  0  0  0  0  0  0  0  0  0  0  0
   51.0304    2.4907    0.5735 C   0  0  0  0  0  0  0  0  0  0  0  0
   52.1285    1.7721   -0.2392 C   0  0  0  0  0  0  0  0  0  0  0  0
   51.9145    0.2546   -0.4067 C   0  0  0  0  0  0  0  0  0  0  0  0
   50.8366   -0.1988   -1.2985 N   0  0  0  0  0  0  0  0  0  0  0  0
   50.9464   -0.0496   -2.7540 C   0  0  0  0  0  0  0  0  0  0  0  0
   49.9322   -0.8576   -3.5688 C   0  0  0  0  0  0  0  0  0  0  0  0
   49.9764   -0.5290   -5.0707 C   0  0  0  0  0  0  0  0  0  0  0  0
   49.4415    0.8692   -5.4190 C   0  0  0  0  0  0  0  0  0  0  0  0
   49.7462    1.3204   -6.7788 N   0  0  0  0  0  0  0  0  0  0  0  0
   49.1551    2.5764   -7.2726 C   0  0  0  0  0  0  0  0  0  0  0  0
   49.5580    3.8766   -6.5373 C   0  0  0  0  0  0  0  0  0  0  0  0
   49.0612    4.0074   -5.0833 C   0  0  0  0  0  0  0  0  0  0  0  0
   49.3758    5.3021   -4.4864 N   0  0  0  0  0  0  0  0  0  0  0  0
  1  2  1  0  0  0  0
  2  3  1  0  0  0  0
  3  4  1  0  0  0  0
  4  5  1  0  0  0  0
  5  6  1  0  0  0  0
  6  7  1  0  0  0  0
  7  8  1  0  0  0  0
  8  9  1  0  0  0  0
  9 10  1  0  0  0  0
 10 11  1  0  0  0  0
 11 12  1  0  0  0  0
 12 13  1  0  0  0  0
 13 14  1  0  0  0  0
M  END
>  <CHROM.1>
179.72184037,71.47014774,71.04318601,165.70670993,172.77041082,-70.13938098
166.90478422,173.13742507,63.22657911,-67.16018943,-175.03365957,50.31561139
1.76753983,-3.40408810,0.15834876,-1.24467041,0.32649932

>  <Name>
ligand

>  <RI>
0

>  <Rbt.Current_Directory>
/home/itssahil/PROJECTS/Mol_Feturizer/New_Systems/rnas/4E8Q

>  <Rbt.Executable>
rbdock ($Id: //depot/dev/client3/rdock/2013.1/src/exe/rbdock.cxx#4 $)

>  <Rbt.Library>
libRbt.so (2013.1, Build901 2013/11/27)

>  <Rbt.Parameter_File>
/export/apps/rDock/src/rDock_2013.1_src/data/scripts/dock_solv.prm

>  <Rbt.Receptor>
prm/pocket_docking_4.prm

>  <SCORE>
-11.0277

>  <SCORE.INTER>
0.305755

>  <SCORE.INTER.CONST>
1

>  <SCORE.INTER.POLAR>
0

>  <SCORE.INTER.ROT>
11

>  <SCORE.INTER.SOLV>
8.69961

>  <SCORE.INTER.VDW>
-13.6294

>  <SCORE.INTER.norm>
0.0218396

>  <SCORE.INTRA>
-11.3334

>  <SCORE.INTRA.DIHEDRAL>
-23.6081

>  <SCORE.INTRA.DIHEDRAL.0>
25.9209

>  <SCORE.INTRA.POLAR>
0

>  <SCORE.INTRA.POLAR.0>
0

>  <SCORE.INTRA.REPUL>
0

>  <SCORE.INTRA.REPUL.0>
0

>  <SCORE.INTRA.SOLV>
-1.22448

>  <SCORE.INTRA.SOLV.lig_0>
-47.4815

>  <SCORE.INTRA.VDW>
1.08284

>  <SCORE.INTRA.VDW.0>
-1.57492

>  <SCORE.INTRA.norm>
-0.809531

>  <SCORE.RESTR>
0

>  <SCORE.RESTR.CAVITY>
0

>  <SCORE.RESTR.norm>
0

>  <SCORE.SYSTEM>
0

>  <SCORE.SYSTEM.CONST>
0

>  <SCORE.SYSTEM.DIHEDRAL>
0

>  <SCORE.SYSTEM.SOLV>
0

>  <SCORE.SYSTEM.norm>
0

>  <SCORE.heavy>
14

>  <SCORE.norm>
-0.787691

>  <RMSD>
5.218

$$$$
ligand
 OpenBabel11021811493D
libRbt.so/2013.1/901 2013/11/27
 14 13  0  0  0  0  0  0  0  0999 V2000
   52.1601    3.2958   -7.2464 N   0  0  0  0  0  0  0  0  0  0  0  0
   51.3226    3.0962   -6.0699 C   0  0  0  0  0  0  0  0  0  0  0  0
   49.8516    2.8614   -6.4745 C   0  0  0  0  0  0  0  0  0  0  0  0
   48.8901    2.6261   -5.2926 C   0  0  0  0  0  0  0  0  0  0  0  0
   49.1590    1.4918   -4.3960 N   0  0  0  0  0  0  0  0  0  0  0  0
   49.3119    0.1311   -4.9230 C   0  0  0  0  0  0  0  0  0  0  0  0
   49.9018   -0.8845   -3.9400 C   0  0  0  0  0  0  0  0  0  0  0  0
   51.2267   -0.4120   -3.3178 C   0  0  0  0  0  0  0  0  0  0  0  0
   51.0578    0.6669   -2.2362 C   0  0  0  0  0  0  0  0  0  0  0  0
   52.2915    1.3672   -1.8715 N   0  0  0  0  0  0  0  0  0  0  0  0
   52.6218    2.6410   -2.5339 C   0  0  0  0  0  0  0  0  0  0  0  0
   51.6520    3.8237   -2.3008 C   0  0  0  0  0  0  0  0  0  0  0  0
   51.4404    4.2391   -0.8309 C   0  0  0  0  0  0  0  0  0  0  0  0
   50.4905    5.3373   -0.6786 N   0  0  0  0  0  0  0  0  0  0  0  0
  1  2  1  0  0  0  0
  2  3  1  0  0  0  0
  3  4  1  0  0  0  0
  4  5  1  0  0  0  0
  5  6  1  0  0  0  0
  6  7  1  0  0  0  0
  7  8  1  0  0  0  0
  8  9  1  0  0  0  0
  9 10  1  0  0  0  0
 10 11  1  0  0  0  0
 11 12  1  0  0  0  0
 12 13  1  0  0  0  0
 13 14  1  0  0  0  0
M  END
>  <CHROM.1>
179.43459795,-59.00727005,-54.25088216,166.46326620,-52.75733033,75.32574211
-165.40291046,94.40801832,63.48745144,58.14448132,-178.58717755,50.81261391
2.16264168,-3.72235393,-2.87490458,1.28991312,2.38417756

>  <Name>
ligand

>  <RI>
0

>  <Rbt.Current_Directory>
/home/itssahil/PROJECTS/Mol_Feturizer/New_Systems/rnas/4E8Q

>  <Rbt.Executable>
rbdock ($Id: //depot/dev/client3/rdock/2013.1/src/exe/rbdock.cxx#4 $)

>  <Rbt.Library>
libRbt.so (2013.1, Build901 2013/11/27)

>  <Rbt.Parameter_File>
/export/apps/rDock/src/rDock_2013.1_src/data/scripts/dock_solv.prm

>  <Rbt.Receptor>
prm/pocket_docking_3.prm

>  <SCORE>
-7.76914

>  <SCORE.INTER>
3.6611

>  <SCORE.INTER.CONST>
1

>  <SCORE.INTER.POLAR>
0

>  <SCORE.INTER.ROT>
11

>  <SCORE.INTER.SOLV>
6.97696

>  <SCORE.INTER.VDW>
-10.8183

>  <SCORE.INTER.norm>
0.261507

>  <SCORE.INTRA>
-11.4302

>  <SCORE.INTRA.DIHEDRAL>
-23.0795

>  <SCORE.INTRA.DIHEDRAL.0>
25.9209

>  <SCORE.INTRA.POLAR>
0

>  <SCORE.INTRA.POLAR.0>
0

>  <SCORE.INTRA.REPUL>
0

>  <SCORE.INTRA.REPUL.0>
0

>  <SCORE.INTRA.SOLV>
0.192

>  <SCORE.INTRA.SOLV.lig_0>
-47.4815

>  <SCORE.INTRA.VDW>
0.0134935

>  <SCORE.INTRA.VDW.0>
-1.57492

>  <SCORE.INTRA.norm>
-0.816446

>  <SCORE.RESTR>
0

>  <SCORE.RESTR.CAVITY>
0

>  <SCORE.RESTR.norm>
0

>  <SCORE.SYSTEM>
0

>  <SCORE.SYSTEM.CONST>
0

>  <SCORE.SYSTEM.DIHEDRAL>
0

>  <SCORE.SYSTEM.SOLV>
0

>  <SCORE.SYSTEM.norm>
0

>  <SCORE.heavy>
14

>  <SCORE.norm>
-0.554939

>  <RMSD>
5.240

$$$$
ligand
 OpenBabel11021811493D
libRbt.so/2013.1/901 2013/11/27
 14 13  0  0  0  0  0  0  0  0999 V2000
   48.4206   -3.3660   -7.1737 N   0  0  0  0  0  0  0  0  0  0  0  0
   48.9493   -2.6075   -6.0466 C   0  0  0  0  0  0  0  0  0  0  0  0
   47.9402   -1.5359   -5.5820 C   0  0  0  0  0  0  0  0  0  0  0  0
   48.4419   -0.6352   -4.4359 C   0  0  0  0  0  0  0  0  0  0  0  0
   49.5773    0.2601   -4.7046 N   0  0  0  0  0  0  0  0  0  0  0  0
   50.9596   -0.1944   -4.5172 C   0  0  0  0  0  0  0  0  0  0  0  0
   51.3579   -0.4843   -3.0671 C   0  0  0  0  0  0  0  0  0  0  0  0
   51.1701    0.7306   -2.1427 C   0  0  0  0  0  0  0  0  0  0  0  0
   51.4467    0.4345   -0.6600 C   0  0  0  0  0  0  0  0  0  0  0  0
   51.0830    1.5157    0.2587 N   0  0  0  0  0  0  0  0  0  0  0  0
   51.9477    2.7047    0.3535 C   0  0  0  0  0  0  0  0  0  0  0  0
   51.8693    3.7221   -0.8093 C   0  0  0  0  0  0  0  0  0  0  0  0
   50.4914    4.3755   -1.0384 C   0  0  0  0  0  0  0  0  0  0  0  0
   50.4928    5.3439   -2.1310 N   0  0  0  0  0  0  0  0  0  0  0  0
  1  2  1  0  0  0  0
  2  3  1  0  0  0  0
  3  4  1  0  0  0  0
  4  5  1  0  0  0  0
  5  6  1  0  0  0  0
  6  7  1  0  0  0  0
  7  8  1  0  0  0  0
  8  9  1  0  0  0  0
  9 10  1  0  0  0  0
 10 11  1  0  0  0  0
 11 12  1  0  0  0  0
 12 13  1  0  0  0  0
 13 14  1  0  0  0  0
M  END
>  <CHROM.1>
-177.11564114,65.43666256,-88.31599361,-66.73932104,-57.56635221,175.01968448
-171.29481477,-75.90347869,75.43952986,60.98893820,178.82561589,50.29642389
0.73304372,-2.97812683,2.19533070,0.99654509,-2.91330996

>  <Name>
ligand

>  <RI>
0

>  <Rbt.Current_Directory>
/home/itssahil/PROJECTS/Mol_Feturizer/New_Systems/rnas/4E8Q

>  <Rbt.Executable>
rbdock ($Id: //depot/dev/client3/rdock/2013.1/src/exe/rbdock.cxx#4 $)

>  <Rbt.Library>
libRbt.so (2013.1, Build901 2013/11/27)

>  <Rbt.Parameter_File>
/export/apps/rDock/src/rDock_2013.1_src/data/scripts/dock_solv.prm

>  <Rbt.Receptor>
prm/pocket_docking_6.prm

>  <SCORE>
-14.9263

>  <SCORE.INTER>
-2.7574

>  <SCORE.INTER.CONST>
1

>  <SCORE.INTER.POLAR>
0

>  <SCORE.INTER.ROT>
11

>  <SCORE.INTER.SOLV>
8.79944

>  <SCORE.INTER.VDW>
-15.7048

>  <SCORE.INTER.norm>
-0.196957

>  <SCORE.INTRA>
-12.1689

>  <SCORE.INTRA.DIHEDRAL>
-24.3959

>  <SCORE.INTRA.DIHEDRAL.0>
25.9209

>  <SCORE.INTRA.POLAR>
0

>  <SCORE.INTRA.POLAR.0>
0

>  <SCORE.INTRA.REPUL>
0

>  <SCORE.INTRA.REPUL.0>
0

>  <SCORE.INTRA.SOLV>
-1.09425

>  <SCORE.INTRA.SOLV.lig_0>
-47.4815

>  <SCORE.INTRA.VDW>
0.576187

>  <SCORE.INTRA.VDW.0>
-1.57492

>  <SCORE.INTRA.norm>
-0.869206

>  <SCORE.RESTR>
0

>  <SCORE.RESTR.CAVITY>
0

>  <SCORE.RESTR.norm>
0

>  <SCORE.SYSTEM>
0

>  <SCORE.SYSTEM.CONST>
0

>  <SCORE.SYSTEM.DIHEDRAL>
0

>  <SCORE.SYSTEM.SOLV>
0

>  <SCORE.SYSTEM.norm>
0

>  <SCORE.heavy>
14

>  <SCORE.norm>
-1.06616

>  <RMSD>
5.256

$$$$
ligand
 OpenBabel11021811493D
libRbt.so/2013.1/901 2013/11/27
 14 13  0  0  0  0  0  0  0  0999 V2000
   49.9207    5.2319   -5.2404 N   0  0  0  0  0  0  0  0  0  0  0  0
   49.5223    5.0829   -6.6348 C   0  0  0  0  0  0  0  0  0  0  0  0
   48.8980    3.6933   -6.8837 C   0  0  0  0  0  0  0  0  0  0  0  0
   49.8788    2.5130   -6.7373 C   0  0  0  0  0  0  0  0  0  0  0  0
   50.4703    2.2637   -5.4140 N   0  0  0  0  0  0  0  0  0  0  0  0
   51.4549    1.1945   -5.2151 C   0  0  0  0  0  0  0  0  0  0  0  0
   50.9290   -0.2252   -5.4463 C   0  0  0  0  0  0  0  0  0  0  0  0
   49.7952   -0.6061   -4.4792 C   0  0  0  0  0  0  0  0  0  0  0  0
   50.2654   -0.8677   -3.0394 C   0  0  0  0  0  0  0  0  0  0  0  0
   50.8756    0.2863   -2.3751 N   0  0  0  0  0  0  0  0  0  0  0  0
   51.2928    0.1718   -0.9668 C   0  0  0  0  0  0  0  0  0  0  0  0
   52.0158    1.3921   -0.3491 C   0  0  0  0  0  0  0  0  0  0  0  0
   51.1821    2.6853   -0.2457 C   0  0  0  0  0  0  0  0  0  0  0  0
   51.9268    3.8006    0.3313 N   0  0  0  0  0  0  0  0  0  0  0  0
  1  2  1  0  0  0  0
  2  3  1  0  0  0  0
  3  4  1  0  0  0  0
  4  5  1  0  0  0  0
  5  6  1  0  0  0  0
  6  7  1  0  0  0  0
  7  8  1  0  0  0  0
  8  9  1  0  0  0  0
  9 10  1  0  0  0  0
 10 11  1  0  0  0  0
 11 12  1  0  0  0  0
 12 13  1  0  0  0  0
 13 14  1  0  0  0  0
M  END
>  <CHROM.1>
-66.75647325,64.00551470,-177.34318300,-64.35707321,-61.85897292,-73.02170036
62.24624433,176.54227310,176.04357562,64.03796291,-179.35910574,50.60188615
1.90077371,-3.76421180,-2.95433042,1.28819696,-2.97536288

>  <Name>
ligand

>  <RI>
0

>  <Rbt.Current_Directory>
/home/itssahil/PROJECTS/Mol_Feturizer/New_Systems/rnas/4E8Q

>  <Rbt.Executable>
rbdock ($Id: //depot/dev/client3/rdock/2013.1/src/exe/rbdock.cxx#4 $)

>  <Rbt.Library>
libRbt.so (2013.1, Build901 2013/11/27)

>  <Rbt.Parameter_File>
/export/apps/rDock/src/rDock_2013.1_src/data/scripts/dock_solv.prm

>  <Rbt.Receptor>
prm/pocket_docking_4.prm

>  <SCORE>
-9.99888

>  <SCORE.INTER>
0.684839

>  <SCORE.INTER.CONST>
1

>  <SCORE.INTER.POLAR>
0

>  <SCORE.INTER.ROT>
11

>  <SCORE.INTER.SOLV>
6.07289

>  <SCORE.INTER.VDW>
-12.5011

>  <SCORE.INTER.norm>
0.0489171

>  <SCORE.INTRA>
-10.6837

>  <SCORE.INTRA.DIHEDRAL>
-24.8663

>  <SCORE.INTRA.DIHEDRAL.0>
25.9209

>  <SCORE.INTRA.POLAR>
0

>  <SCORE.INTRA.POLAR.0>
0

>  <SCORE.INTRA.REPUL>
0

>  <SCORE.INTRA.REPUL.0>
0

>  <SCORE.INTRA.SOLV>
2.58524

>  <SCORE.INTRA.SOLV.lig_0>
-47.4815

>  <SCORE.INTRA.VDW>
0.456796

>  <SCORE.INTRA.VDW.0>
-1.57492

>  <SCORE.INTRA.norm>
-0.763123

>  <SCORE.RESTR>
0

>  <SCORE.RESTR.CAVITY>
0

>  <SCORE.RESTR.norm>
0

>  <SCORE.SYSTEM>
0

>  <SCORE.SYSTEM.CONST>
0

>  <SCORE.SYSTEM.DIHEDRAL>
0

>  <SCORE.SYSTEM.SOLV>
0

>  <SCORE.SYSTEM.norm>
0

>  <SCORE.heavy>
14

>  <SCORE.norm>
-0.714206

>  <RMSD>
5.269

$$$$
ligand
 OpenBabel11021811493D
libRbt.so/2013.1/901 2013/11/27
 14 13  0  0  0  0  0  0  0  0999 V2000
   53.1274    2.2903   -9.7720 N   0  0  0  0  0  0  0  0  0  0  0  0
   52.2397    1.3330   -9.1235 C   0  0  0  0  0  0  0  0  0  0  0  0
   52.4075    1.3775   -7.5897 C   0  0  0  0  0  0  0  0  0  0  0  0
   51.4431    0.4608   -6.8112 C   0  0  0  0  0  0  0  0  0  0  0  0
   51.4952    0.4889   -5.3417 N   0  0  0  0  0  0  0  0  0  0  0  0
   50.6039   -0.3542   -4.5371 C   0  0  0  0  0  0  0  0  0  0  0  0
   51.0729   -0.6122   -3.1022 C   0  0  0  0  0  0  0  0  0  0  0  0
   51.1390    0.6708   -2.2565 C   0  0  0  0  0  0  0  0  0  0  0  0
   51.5204    0.4300   -0.7871 C   0  0  0  0  0  0  0  0  0  0  0  0
   51.4444    1.6169    0.0679 N   0  0  0  0  0  0  0  0  0  0  0  0
   52.3438    2.7541   -0.1934 C   0  0  0  0  0  0  0  0  0  0  0  0
   51.6854    4.1443   -0.3580 C   0  0  0  0  0  0  0  0  0  0  0  0
   50.6913    4.2823   -1.5289 C   0  0  0  0  0  0  0  0  0  0  0  0
   50.1298    5.6248   -1.6465 N   0  0  0  0  0  0  0  0  0  0  0  0
  1  2  1  0  0  0  0
  2  3  1  0  0  0  0
  3  4  1  0  0  0  0
  4  5  1  0  0  0  0
  5  6  1  0  0  0  0
  6  7  1  0  0  0  0
  7  8  1  0  0  0  0
  8  9  1  0  0  0  0
  9 10  1  0  0  0  0
 10 11  1  0  0  0  0
 11 12  1  0  0  0  0
 12 13  1  0  0  0  0
 13 14  1  0  0  0  0
M  END
>  <CHROM.1>
176.29552005,-177.28098229,179.82212043,159.13107909,63.79073411,176.30637498
-173.54186558,-64.24749024,126.85805410,-61.17052314,-178.69210986,51.52454257
1.75021657,-3.78412764,-0.39504808,1.43953972,0.17401073

>  <Name>
ligand

>  <RI>
0

>  <Rbt.Current_Directory>
/home/itssahil/PROJECTS/Mol_Feturizer/New_Systems/rnas/4E8Q

>  <Rbt.Executable>
rbdock ($Id: //depot/dev/client3/rdock/2013.1/src/exe/rbdock.cxx#4 $)

>  <Rbt.Library>
libRbt.so (2013.1, Build901 2013/11/27)

>  <Rbt.Parameter_File>
/export/apps/rDock/src/rDock_2013.1_src/data/scripts/dock_solv.prm

>  <Rbt.Receptor>
prm/pocket_docking_6.prm

>  <SCORE>
-10.9642

>  <SCORE.INTER>
1.40938

>  <SCORE.INTER.CONST>
1

>  <SCORE.INTER.POLAR>
0

>  <SCORE.INTER.ROT>
11

>  <SCORE.INTER.SOLV>
8.91465

>  <SCORE.INTER.VDW>
-12.9653

>  <SCORE.INTER.norm>
0.10067

>  <SCORE.INTRA>
-12.3735

>  <SCORE.INTRA.DIHEDRAL>
-24.0616

>  <SCORE.INTRA.DIHEDRAL.0>
25.9209

>  <SCORE.INTRA.POLAR>
0

>  <SCORE.INTRA.POLAR.0>
0

>  <SCORE.INTRA.REPUL>
0

>  <SCORE.INTRA.REPUL.0>
0

>  <SCORE.INTRA.SOLV>
-1.46586

>  <SCORE.INTRA.SOLV.lig_0>
-47.4815

>  <SCORE.INTRA.VDW>
0.390179

>  <SCORE.INTRA.VDW.0>
-1.57492

>  <SCORE.INTRA.norm>
-0.883824

>  <SCORE.RESTR>
0

>  <SCORE.RESTR.CAVITY>
0

>  <SCORE.RESTR.norm>
0

>  <SCORE.SYSTEM>
0

>  <SCORE.SYSTEM.CONST>
0

>  <SCORE.SYSTEM.DIHEDRAL>
0

>  <SCORE.SYSTEM.SOLV>
0

>  <SCORE.SYSTEM.norm>
0

>  <SCORE.heavy>
14

>  <SCORE.norm>
-0.783154

>  <RMSD>
5.286

$$$$
ligand
 OpenBabel11021811493D
libRbt.so/2013.1/901 2013/11/27
 14 13  0  0  0  0  0  0  0  0999 V2000
   48.3430   -1.6248  -10.2641 N   0  0  0  0  0  0  0  0  0  0  0  0
   47.6349   -2.1551   -9.1054 C   0  0  0  0  0  0  0  0  0  0  0  0
   48.1207   -1.4785   -7.8059 C   0  0  0  0  0  0  0  0  0  0  0  0
   47.4836   -2.0328   -6.5162 C   0  0  0  0  0  0  0  0  0  0  0  0
   47.9158   -1.4647   -5.2304 N   0  0  0  0  0  0  0  0  0  0  0  0
   49.3299   -1.4673   -4.8395 C   0  0  0  0  0  0  0  0  0  0  0  0
   49.7005   -0.4757   -3.7329 C   0  0  0  0  0  0  0  0  0  0  0  0
   51.2160   -0.4030   -3.4803 C   0  0  0  0  0  0  0  0  0  0  0  0
   51.6251    0.6551   -2.4430 C   0  0  0  0  0  0  0  0  0  0  0  0
   51.0790    0.4404   -1.1010 N   0  0  0  0  0  0  0  0  0  0  0  0
   51.1570    1.5255   -0.1074 C   0  0  0  0  0  0  0  0  0  0  0  0
   52.5634    1.8861    0.4268 C   0  0  0  0  0  0  0  0  0  0  0  0
   52.6056    2.9489    1.5433 C   0  0  0  0  0  0  0  0  0  0  0  0
   53.9614    3.2543    1.9906 N   0  0  0  0  0  0  0  0  0  0  0  0
  1  2  1  0  0  0  0
  2  3  1  0  0  0  0
  3  4  1  0  0  0  0
  4  5  1  0  0  0  0
  5  6  1  0  0  0  0
  6  7  1  0  0  0  0
  7  8  1  0  0  0  0
  8  9  1  0  0  0  0
  9 10  1  0  0  0  0
 10 11  1  0  0  0  0
 11 12  1  0  0  0  0
 12 13  1  0  0  0  0
 13 14  1  0  0  0  0
M  END
>  <CHROM.1>
-176.70574335,178.56908420,-56.46151092,161.13863622,-173.21777731,175.97603106
61.71630081,-166.89487529,-68.99258687,-175.48407433,-179.30745069,50.19538355
-0.02804421,-3.61894435,-2.11067470,0.58961758,1.46391199

>  <Name>
ligand

>  <RI>
0

>  <Rbt.Current_Directory>
/home/itssahil/PROJECTS/Mol_Feturizer/New_Systems/rnas/4E8Q

>  <Rbt.Executable>
rbdock ($Id: //depot/dev/client3/rdock/2013.1/src/exe/rbdock.cxx#4 $)

>  <Rbt.Library>
libRbt.so (2013.1, Build901 2013/11/27)

>  <Rbt.Parameter_File>
/export/apps/rDock/src/rDock_2013.1_src/data/scripts/dock_solv.prm

>  <Rbt.Receptor>
prm/pocket_docking_8.prm

>  <SCORE>
-13.7365

>  <SCORE.INTER>
-1.14472

>  <SCORE.INTER.CONST>
1

>  <SCORE.INTER.POLAR>
0

>  <SCORE.INTER.ROT>
11

>  <SCORE.INTER.SOLV>
9.49879

>  <SCORE.INTER.VDW>
-14.8627

>  <SCORE.INTER.norm>
-0.0817654

>  <SCORE.INTRA>
-12.5918

>  <SCORE.INTRA.DIHEDRAL>
-25.0617

>  <SCORE.INTRA.DIHEDRAL.0>
25.9209

>  <SCORE.INTRA.POLAR>
0

>  <SCORE.INTRA.POLAR.0>
0

>  <SCORE.INTRA.REPUL>
0

>  <SCORE.INTRA.REPUL.0>
0

>  <SCORE.INTRA.SOLV>
-1.7607

>  <SCORE.INTRA.SOLV.lig_0>
-47.4815

>  <SCORE.INTRA.VDW>
0.819352

>  <SCORE.INTRA.VDW.0>
-1.57492

>  <SCORE.INTRA.norm>
-0.899416

>  <SCORE.RESTR>
0

>  <SCORE.RESTR.CAVITY>
0

>  <SCORE.RESTR.norm>
0

>  <SCORE.SYSTEM>
0

>  <SCORE.SYSTEM.CONST>
0

>  <SCORE.SYSTEM.DIHEDRAL>
0

>  <SCORE.SYSTEM.SOLV>
0

>  <SCORE.SYSTEM.norm>
0

>  <SCORE.heavy>
14

>  <SCORE.norm>
-0.981181

>  <RMSD>
5.287

$$$$
ligand
 OpenBabel11021811493D
libRbt.so/2013.1/901 2013/11/27
 14 13  0  0  0  0  0  0  0  0999 V2000
   48.0481   -3.3391   -6.5099 N   0  0  0  0  0  0  0  0  0  0  0  0
   49.0019   -2.4690   -5.8328 C   0  0  0  0  0  0  0  0  0  0  0  0
   48.2992   -1.6118   -4.7586 C   0  0  0  0  0  0  0  0  0  0  0  0
   49.2025   -0.5605   -4.0837 C   0  0  0  0  0  0  0  0  0  0  0  0
   50.3712   -1.0344   -3.3272 N   0  0  0  0  0  0  0  0  0  0  0  0
   51.2470   -0.0932   -2.6205 C   0  0  0  0  0  0  0  0  0  0  0  0
   50.9469    0.0797   -1.1287 C   0  0  0  0  0  0  0  0  0  0  0  0
   51.8512    1.1261   -0.4556 C   0  0  0  0  0  0  0  0  0  0  0  0
   51.6415    2.5576   -0.9746 C   0  0  0  0  0  0  0  0  0  0  0  0
   52.7676    3.1047   -1.7347 N   0  0  0  0  0  0  0  0  0  0  0  0
   52.8524    2.8511   -3.1835 C   0  0  0  0  0  0  0  0  0  0  0  0
   54.1668    3.2591   -3.8901 C   0  0  0  0  0  0  0  0  0  0  0  0
   54.2105    3.0261   -5.4139 C   0  0  0  0  0  0  0  0  0  0  0  0
   53.2109    3.8041   -6.1398 N   0  0  0  0  0  0  0  0  0  0  0  0
  1  2  1  0  0  0  0
  2  3  1  0  0  0  0
  3  4  1  0  0  0  0
  4  5  1  0  0  0  0
  5  6  1  0  0  0  0
  6  7  1  0  0  0  0
  7  8  1  0  0  0  0
  8  9  1  0  0  0  0
  9 10  1  0  0  0  0
 10 11  1  0  0  0  0
 11 12  1  0  0  0  0
 12 13  1  0  0  0  0
 13 14  1  0  0  0  0
M  END
>  <CHROM.1>
-174.29624559,-61.79240732,-177.83646906,96.66699420,-177.26429841,65.13144421
-111.88589590,87.01740359,-170.65467820,-178.02556775,62.34122012,51.27277468
0.76437026,-3.57488962,-2.81440792,0.84794388,1.50229817

>  <Name>
ligand

>  <RI>
0

>  <Rbt.Current_Directory>
/home/itssahil/PROJECTS/Mol_Feturizer/New_Systems/rnas/4E8Q

>  <Rbt.Executable>
rbdock ($Id: //depot/dev/client3/rdock/2013.1/src/exe/rbdock.cxx#4 $)

>  <Rbt.Library>
libRbt.so (2013.1, Build901 2013/11/27)

>  <Rbt.Parameter_File>
/export/apps/rDock/src/rDock_2013.1_src/data/scripts/dock_solv.prm

>  <Rbt.Receptor>
prm/pocket_docking_5.prm

>  <SCORE>
-12.7428

>  <SCORE.INTER>
-3.51862

>  <SCORE.INTER.CONST>
1

>  <SCORE.INTER.POLAR>
0

>  <SCORE.INTER.ROT>
11

>  <SCORE.INTER.SOLV>
9.62627

>  <SCORE.INTER.VDW>
-16.4878

>  <SCORE.INTER.norm>
-0.25133

>  <SCORE.INTRA>
-9.2242

>  <SCORE.INTRA.DIHEDRAL>
-18.9523

>  <SCORE.INTRA.DIHEDRAL.0>
25.9209

>  <SCORE.INTRA.POLAR>
0

>  <SCORE.INTRA.POLAR.0>
0

>  <SCORE.INTRA.REPUL>
0

>  <SCORE.INTRA.REPUL.0>
0

>  <SCORE.INTRA.SOLV>
-0.518342

>  <SCORE.INTRA.SOLV.lig_0>
-47.4815

>  <SCORE.INTRA.VDW>
0.511117

>  <SCORE.INTRA.VDW.0>
-1.57492

>  <SCORE.INTRA.norm>
-0.658872

>  <SCORE.RESTR>
0

>  <SCORE.RESTR.CAVITY>
0

>  <SCORE.RESTR.norm>
0

>  <SCORE.SYSTEM>
0

>  <SCORE.SYSTEM.CONST>
0

>  <SCORE.SYSTEM.DIHEDRAL>
0

>  <SCORE.SYSTEM.SOLV>
0

>  <SCORE.SYSTEM.norm>
0

>  <SCORE.heavy>
14

>  <SCORE.norm>
-0.910201

>  <RMSD>
5.302

$$$$
ligand
 OpenBabel11021811493D
libRbt.so/2013.1/901 2013/11/27
 14 13  0  0  0  0  0  0  0  0999 V2000
   49.7219    4.6773   -5.1245 N   0  0  0  0  0  0  0  0  0  0  0  0
   48.9375    4.5272   -6.3441 C   0  0  0  0  0  0  0  0  0  0  0  0
   49.8183    4.0224   -7.5068 C   0  0  0  0  0  0  0  0  0  0  0  0
   50.3316    2.5779   -7.3435 C   0  0  0  0  0  0  0  0  0  0  0  0
   49.3435    1.4888   -7.3311 N   0  0  0  0  0  0  0  0  0  0  0  0
   49.5981    0.2450   -6.5957 C   0  0  0  0  0  0  0  0  0  0  0  0
   49.7323    0.4026   -5.0783 C   0  0  0  0  0  0  0  0  0  0  0  0
   49.8992   -0.9426   -4.3514 C   0  0  0  0  0  0  0  0  0  0  0  0
   50.1339   -0.8087   -2.8383 C   0  0  0  0  0  0  0  0  0  0  0  0
   51.3962   -0.1642   -2.4688 N   0  0  0  0  0  0  0  0  0  0  0  0
   51.5631    0.3689   -1.1056 C   0  0  0  0  0  0  0  0  0  0  0  0
   51.2297    1.8646   -0.8928 C   0  0  0  0  0  0  0  0  0  0  0  0
   51.3795    2.3875    0.5502 C   0  0  0  0  0  0  0  0  0  0  0  0
   52.7671    2.4278    1.0022 N   0  0  0  0  0  0  0  0  0  0  0  0
  1  2  1  0  0  0  0
  2  3  1  0  0  0  0
  3  4  1  0  0  0  0
  4  5  1  0  0  0  0
  5  6  1  0  0  0  0
  6  7  1  0  0  0  0
  7  8  1  0  0  0  0
  8  9  1  0  0  0  0
  9 10  1  0  0  0  0
 10 11  1  0  0  0  0
 11 12  1  0  0  0  0
 12 13  1  0  0  0  0
 13 14  1  0  0  0  0
M  END
>  <CHROM.1>
67.86326538,64.61324757,-151.19723818,63.55160106,175.96141631,175.97930157
-65.69336411,162.41663558,-93.87305633,178.53393271,68.31972890,50.41783494
1.64799988,-3.95938877,-2.86284580,1.25552818,3.05556645

>  <Name>
ligand

>  <RI>
0

>  <Rbt.Current_Directory>
/home/itssahil/PROJECTS/Mol_Feturizer/New_Systems/rnas/4E8Q

>  <Rbt.Executable>
rbdock ($Id: //depot/dev/client3/rdock/2013.1/src/exe/rbdock.cxx#4 $)

>  <Rbt.Library>
libRbt.so (2013.1, Build901 2013/11/27)

>  <Rbt.Parameter_File>
/export/apps/rDock/src/rDock_2013.1_src/data/scripts/dock_solv.prm

>  <Rbt.Receptor>
prm/pocket_docking_5.prm

>  <SCORE>
-8.9992

>  <SCORE.INTER>
2.08604

>  <SCORE.INTER.CONST>
1

>  <SCORE.INTER.POLAR>
0

>  <SCORE.INTER.ROT>
11

>  <SCORE.INTER.SOLV>
8.71881

>  <SCORE.INTER.VDW>
-12.4489

>  <SCORE.INTER.norm>
0.149003

>  <SCORE.INTRA>
-11.0852

>  <SCORE.INTRA.DIHEDRAL>
-23.5631

>  <SCORE.INTRA.DIHEDRAL.0>
25.9209

>  <SCORE.INTRA.POLAR>
0

>  <SCORE.INTRA.POLAR.0>
0

>  <SCORE.INTRA.REPUL>
0

>  <SCORE.INTRA.REPUL.0>
0

>  <SCORE.INTRA.SOLV>
0.619162

>  <SCORE.INTRA.SOLV.lig_0>
-47.4815

>  <SCORE.INTRA.VDW>
0.386699

>  <SCORE.INTRA.VDW.0>
-1.57492

>  <SCORE.INTRA.norm>
-0.791804

>  <SCORE.RESTR>
0

>  <SCORE.RESTR.CAVITY>
0

>  <SCORE.RESTR.norm>
0

>  <SCORE.SYSTEM>
0

>  <SCORE.SYSTEM.CONST>
0

>  <SCORE.SYSTEM.DIHEDRAL>
0

>  <SCORE.SYSTEM.SOLV>
0

>  <SCORE.SYSTEM.norm>
0

>  <SCORE.heavy>
14

>  <SCORE.norm>
-0.6428

>  <RMSD>
5.302

$$$$
ligand
 OpenBabel11021811493D
libRbt.so/2013.1/901 2013/11/27
 14 13  0  0  0  0  0  0  0  0999 V2000
   50.0062    5.6885   -1.6066 N   0  0  0  0  0  0  0  0  0  0  0  0
   50.3666    4.8448   -0.4737 C   0  0  0  0  0  0  0  0  0  0  0  0
   51.0363    3.5385   -0.9509 C   0  0  0  0  0  0  0  0  0  0  0  0
   51.4484    2.5771    0.1816 C   0  0  0  0  0  0  0  0  0  0  0  0
   52.0954    1.3090   -0.1873 N   0  0  0  0  0  0  0  0  0  0  0  0
   51.3502    0.2542   -0.8835 C   0  0  0  0  0  0  0  0  0  0  0  0
   51.2936    0.3956   -2.4074 C   0  0  0  0  0  0  0  0  0  0  0  0
   50.3830   -0.6520   -3.0701 C   0  0  0  0  0  0  0  0  0  0  0  0
   50.1607   -0.4229   -4.5737 C   0  0  0  0  0  0  0  0  0  0  0  0
   51.3769   -0.4780   -5.3881 N   0  0  0  0  0  0  0  0  0  0  0  0
   51.3251   -0.0407   -6.7940 C   0  0  0  0  0  0  0  0  0  0  0  0
   51.5224    1.4696   -7.0654 C   0  0  0  0  0  0  0  0  0  0  0  0
   52.8938    2.0504   -6.6651 C   0  0  0  0  0  0  0  0  0  0  0  0
   52.9948    3.4884   -6.8965 N   0  0  0  0  0  0  0  0  0  0  0  0
  1  2  1  0  0  0  0
  2  3  1  0  0  0  0
  3  4  1  0  0  0  0
  4  5  1  0  0  0  0
  5  6  1  0  0  0  0
  6  7  1  0  0  0  0
  7  8  1  0  0  0  0
  8  9  1  0  0  0  0
  9 10  1  0  0  0  0
 10 11  1  0  0  0  0
 11 12  1  0  0  0  0
 12 13  1  0  0  0  0
 13 14  1  0  0  0  0
M  END
>  <CHROM.1>
-179.75870085,-179.92037928,-68.35157729,85.18701786,-174.12043143,172.41910151
61.51217573,-169.23627362,85.92933966,63.00658139,-177.63718540,51.30368797
1.71556637,-3.34139753,-2.40293779,-1.39887171,-2.77991231

>  <Name>
ligand

>  <RI>
0

>  <Rbt.Current_Directory>
/home/itssahil/PROJECTS/Mol_Feturizer/New_Systems/rnas/4E8Q

>  <Rbt.Executable>
rbdock ($Id: //depot/dev/client3/rdock/2013.1/src/exe/rbdock.cxx#4 $)

>  <Rbt.Library>
libRbt.so (2013.1, Build901 2013/11/27)

>  <Rbt.Parameter_File>
/export/apps/rDock/src/rDock_2013.1_src/data/scripts/dock_solv.prm

>  <Rbt.Receptor>
prm/pocket_docking_4.prm

>  <SCORE>
-12.696

>  <SCORE.INTER>
-0.111295

>  <SCORE.INTER.CONST>
1

>  <SCORE.INTER.POLAR>
0

>  <SCORE.INTER.ROT>
11

>  <SCORE.INTER.SOLV>
8.87111

>  <SCORE.INTER.VDW>
-13.9646

>  <SCORE.INTER.norm>
-0.00794961

>  <SCORE.INTRA>
-12.5847

>  <SCORE.INTRA.DIHEDRAL>
-24.4164

>  <SCORE.INTRA.DIHEDRAL.0>
25.9209

>  <SCORE.INTRA.POLAR>
0

>  <SCORE.INTRA.POLAR.0>
0

>  <SCORE.INTRA.REPUL>
0

>  <SCORE.INTRA.REPUL.0>
0

>  <SCORE.INTRA.SOLV>
-1.49688

>  <SCORE.INTRA.SOLV.lig_0>
-47.4815

>  <SCORE.INTRA.VDW>
0.371896

>  <SCORE.INTRA.VDW.0>
-1.57492

>  <SCORE.INTRA.norm>
-0.89891

>  <SCORE.RESTR>
0

>  <SCORE.RESTR.CAVITY>
0

>  <SCORE.RESTR.norm>
0

>  <SCORE.SYSTEM>
0

>  <SCORE.SYSTEM.CONST>
0

>  <SCORE.SYSTEM.DIHEDRAL>
0

>  <SCORE.SYSTEM.SOLV>
0

>  <SCORE.SYSTEM.norm>
0

>  <SCORE.heavy>
14

>  <SCORE.norm>
-0.90686

>  <RMSD>
5.310

$$$$
ligand
 OpenBabel11021811493D
libRbt.so/2013.1/901 2013/11/27
 14 13  0  0  0  0  0  0  0  0999 V2000
   50.6791    3.8894    1.9233 N   0  0  0  0  0  0  0  0  0  0  0  0
   51.1107    2.8991    0.9444 C   0  0  0  0  0  0  0  0  0  0  0  0
   51.4713    3.5717   -0.3973 C   0  0  0  0  0  0  0  0  0  0  0  0
   52.0019    2.6076   -1.4770 C   0  0  0  0  0  0  0  0  0  0  0  0
   51.0982    1.5596   -1.9746 N   0  0  0  0  0  0  0  0  0  0  0  0
   51.6230    0.2875   -2.4834 C   0  0  0  0  0  0  0  0  0  0  0  0
   50.5626   -0.7086   -2.9618 C   0  0  0  0  0  0  0  0  0  0  0  0
   49.8303   -0.2371   -4.2296 C   0  0  0  0  0  0  0  0  0  0  0  0
   48.9943   -1.3325   -4.9105 C   0  0  0  0  0  0  0  0  0  0  0  0
   48.3367   -0.9185   -6.1521 N   0  0  0  0  0  0  0  0  0  0  0  0
   49.1598   -0.5515   -7.3177 C   0  0  0  0  0  0  0  0  0  0  0  0
   49.6553    0.9122   -7.3922 C   0  0  0  0  0  0  0  0  0  0  0  0
   50.3803    1.3105   -8.6936 C   0  0  0  0  0  0  0  0  0  0  0  0
   51.5727    0.5086   -8.9517 N   0  0  0  0  0  0  0  0  0  0  0  0
  1  2  1  0  0  0  0
  2  3  1  0  0  0  0
  3  4  1  0  0  0  0
  4  5  1  0  0  0  0
  5  6  1  0  0  0  0
  6  7  1  0  0  0  0
  7  8  1  0  0  0  0
  8  9  1  0  0  0  0
  9 10  1  0  0  0  0
 10 11  1  0  0  0  0
 11 12  1  0  0  0  0
 12 13  1  0  0  0  0
 13 14  1  0  0  0  0
M  END
>  <CHROM.1>
177.32429863,63.62440344,-151.67973104,179.76108843,67.83400197,167.08948398
-177.43260288,64.89232185,-85.76086741,-173.49135902,-59.53956633,50.46259405
0.98546317,-3.86245541,-1.25869610,-1.01839725,-1.65779841

>  <Name>
ligand

>  <RI>
0

>  <Rbt.Current_Directory>
/home/itssahil/PROJECTS/Mol_Feturizer/New_Systems/rnas/4E8Q

>  <Rbt.Executable>
rbdock ($Id: //depot/dev/client3/rdock/2013.1/src/exe/rbdock.cxx#4 $)

>  <Rbt.Library>
libRbt.so (2013.1, Build901 2013/11/27)

>  <Rbt.Parameter_File>
/export/apps/rDock/src/rDock_2013.1_src/data/scripts/dock_solv.prm

>  <Rbt.Receptor>
prm/pocket_docking_4.prm

>  <SCORE>
-9.6557

>  <SCORE.INTER>
2.02584

>  <SCORE.INTER.CONST>
1

>  <SCORE.INTER.POLAR>
0

>  <SCORE.INTER.ROT>
11

>  <SCORE.INTER.SOLV>
7.25244

>  <SCORE.INTER.VDW>
-12.0003

>  <SCORE.INTER.norm>
0.144703

>  <SCORE.INTRA>
-11.6815

>  <SCORE.INTRA.DIHEDRAL>
-23.7232

>  <SCORE.INTRA.DIHEDRAL.0>
25.9209

>  <SCORE.INTRA.POLAR>
0

>  <SCORE.INTRA.POLAR.0>
0

>  <SCORE.INTRA.REPUL>
0

>  <SCORE.INTRA.REPUL.0>
0

>  <SCORE.INTRA.SOLV>
-0.849306

>  <SCORE.INTRA.SOLV.lig_0>
-47.4815

>  <SCORE.INTRA.VDW>
0.604689

>  <SCORE.INTRA.VDW.0>
-1.57492

>  <SCORE.INTRA.norm>
-0.834396

>  <SCORE.RESTR>
0

>  <SCORE.RESTR.CAVITY>
0

>  <SCORE.RESTR.norm>
0

>  <SCORE.SYSTEM>
0

>  <SCORE.SYSTEM.CONST>
0

>  <SCORE.SYSTEM.DIHEDRAL>
0

>  <SCORE.SYSTEM.SOLV>
0

>  <SCORE.SYSTEM.norm>
0

>  <SCORE.heavy>
14

>  <SCORE.norm>
-0.689693

>  <RMSD>
5.318

$$$$
ligand
 OpenBabel11021811493D
libRbt.so/2013.1/901 2013/11/27
 14 13  0  0  0  0  0  0  0  0999 V2000
   50.0942    2.8022   -6.8968 N   0  0  0  0  0  0  0  0  0  0  0  0
   51.4670    2.4966   -7.2804 C   0  0  0  0  0  0  0  0  0  0  0  0
   51.5813    1.0528   -7.8141 C   0  0  0  0  0  0  0  0  0  0  0  0
   51.3529   -0.0437   -6.7547 C   0  0  0  0  0  0  0  0  0  0  0  0
   50.0105   -0.1708   -6.1676 N   0  0  0  0  0  0  0  0  0  0  0  0
   49.6818   -1.2798   -5.2650 C   0  0  0  0  0  0  0  0  0  0  0  0
   49.6316   -0.9153   -3.7784 C   0  0  0  0  0  0  0  0  0  0  0  0
   50.9533   -0.3186   -3.2656 C   0  0  0  0  0  0  0  0  0  0  0  0
   50.9208    0.0867   -1.7833 C   0  0  0  0  0  0  0  0  0  0  0  0
   52.0807    0.8603   -1.3342 N   0  0  0  0  0  0  0  0  0  0  0  0
   52.1701    2.2910   -1.6739 C   0  0  0  0  0  0  0  0  0  0  0  0
   52.8077    2.6486   -3.0374 C   0  0  0  0  0  0  0  0  0  0  0  0
   52.9367    4.1543   -3.3443 C   0  0  0  0  0  0  0  0  0  0  0  0
   53.4952    4.4221   -4.6663 N   0  0  0  0  0  0  0  0  0  0  0  0
  1  2  1  0  0  0  0
  2  3  1  0  0  0  0
  3  4  1  0  0  0  0
  4  5  1  0  0  0  0
  5  6  1  0  0  0  0
  6  7  1  0  0  0  0
  7  8  1  0  0  0  0
  8  9  1  0  0  0  0
  9 10  1  0  0  0  0
 10 11  1  0  0  0  0
 11 12  1  0  0  0  0
 12 13  1  0  0  0  0
 13 14  1  0  0  0  0
M  END
>  <CHROM.1>
-67.87047125,66.39967550,173.29755261,103.26485005,-57.75424947,178.66937397
-170.09812810,77.40701542,-86.77504792,-177.79845872,-177.66504252,51.37025462
1.29160522,-4.50431851,-2.34557364,1.02539334,1.86450923

>  <Name>
ligand

>  <RI>
0

>  <Rbt.Current_Directory>
/home/itssahil/PROJECTS/Mol_Feturizer/New_Systems/rnas/4E8Q

>  <Rbt.Executable>
rbdock ($Id: //depot/dev/client3/rdock/2013.1/src/exe/rbdock.cxx#4 $)

>  <Rbt.Library>
libRbt.so (2013.1, Build901 2013/11/27)

>  <Rbt.Parameter_File>
/export/apps/rDock/src/rDock_2013.1_src/data/scripts/dock_solv.prm

>  <Rbt.Receptor>
prm/pocket_docking_5.prm

>  <SCORE>
-9.7526

>  <SCORE.INTER>
1.48218

>  <SCORE.INTER.CONST>
1

>  <SCORE.INTER.POLAR>
0

>  <SCORE.INTER.ROT>
11

>  <SCORE.INTER.SOLV>
6.12717

>  <SCORE.INTER.VDW>
-11.9876

>  <SCORE.INTER.norm>
0.10587

>  <SCORE.INTRA>
-11.2348

>  <SCORE.INTRA.DIHEDRAL>
-23.356

>  <SCORE.INTRA.DIHEDRAL.0>
25.9209

>  <SCORE.INTRA.POLAR>
0

>  <SCORE.INTRA.POLAR.0>
0

>  <SCORE.INTRA.REPUL>
0

>  <SCORE.INTRA.REPUL.0>
0

>  <SCORE.INTRA.SOLV>
1.45602

>  <SCORE.INTRA.SOLV.lig_0>
-47.4815

>  <SCORE.INTRA.VDW>
-0.284765

>  <SCORE.INTRA.VDW.0>
-1.57492

>  <SCORE.INTRA.norm>
-0.802484

>  <SCORE.RESTR>
0

>  <SCORE.RESTR.CAVITY>
0

>  <SCORE.RESTR.norm>
0

>  <SCORE.SYSTEM>
0

>  <SCORE.SYSTEM.CONST>
0

>  <SCORE.SYSTEM.DIHEDRAL>
0

>  <SCORE.SYSTEM.SOLV>
0

>  <SCORE.SYSTEM.norm>
0

>  <SCORE.heavy>
14

>  <SCORE.norm>
-0.696614

>  <RMSD>
5.322

$$$$
ligand
 OpenBabel11021811493D
libRbt.so/2013.1/901 2013/11/27
 14 13  0  0  0  0  0  0  0  0999 V2000
   50.6817    2.3007   -6.9107 N   0  0  0  0  0  0  0  0  0  0  0  0
   49.7789    1.1813   -7.1494 C   0  0  0  0  0  0  0  0  0  0  0  0
   50.5075   -0.1654   -6.9538 C   0  0  0  0  0  0  0  0  0  0  0  0
   50.9866   -0.4331   -5.5132 C   0  0  0  0  0  0  0  0  0  0  0  0
   49.9724   -0.5311   -4.4527 N   0  0  0  0  0  0  0  0  0  0  0  0
   50.3581   -0.7649   -3.0566 C   0  0  0  0  0  0  0  0  0  0  0  0
   51.1201    0.3850   -2.3913 C   0  0  0  0  0  0  0  0  0  0  0  0
   51.3542    0.1546   -0.8886 C   0  0  0  0  0  0  0  0  0  0  0  0
   52.0113    1.3443   -0.1705 C   0  0  0  0  0  0  0  0  0  0  0  0
   51.1848    2.5516   -0.1033 N   0  0  0  0  0  0  0  0  0  0  0  0
   51.1273    3.4533   -1.2670 C   0  0  0  0  0  0  0  0  0  0  0  0
   50.2466    4.7178   -1.1303 C   0  0  0  0  0  0  0  0  0  0  0  0
   50.1832    5.6297   -2.3722 C   0  0  0  0  0  0  0  0  0  0  0  0
   51.4783    6.2027   -2.7271 N   0  0  0  0  0  0  0  0  0  0  0  0
  1  2  1  0  0  0  0
  2  3  1  0  0  0  0
  3  4  1  0  0  0  0
  4  5  1  0  0  0  0
  5  6  1  0  0  0  0
  6  7  1  0  0  0  0
  7  8  1  0  0  0  0
  8  9  1  0  0  0  0
  9 10  1  0  0  0  0
 10 11  1  0  0  0  0
 11 12  1  0  0  0  0
 12 13  1  0  0  0  0
 13 14  1  0  0  0  0
M  END
>  <CHROM.1>
64.86088432,62.33303678,-179.10068857,67.35519262,173.31036490,-175.10781441
66.27066553,-81.49478642,-179.50036678,-178.87828146,-62.99082555,50.78504880
1.85872544,-3.22033213,2.26623017,1.41032380,-2.92256823

>  <Name>
ligand

>  <RI>
0

>  <Rbt.Current_Directory>
/home/itssahil/PROJECTS/Mol_Feturizer/New_Systems/rnas/4E8Q

>  <Rbt.Executable>
rbdock ($Id: //depot/dev/client3/rdock/2013.1/src/exe/rbdock.cxx#4 $)

>  <Rbt.Library>
libRbt.so (2013.1, Build901 2013/11/27)

>  <Rbt.Parameter_File>
/export/apps/rDock/src/rDock_2013.1_src/data/scripts/dock_solv.prm

>  <Rbt.Receptor>
prm/pocket_docking_6.prm

>  <SCORE>
-10.1532

>  <SCORE.INTER>
1.38056

>  <SCORE.INTER.CONST>
1

>  <SCORE.INTER.POLAR>
0

>  <SCORE.INTER.ROT>
11

>  <SCORE.INTER.SOLV>
6.60459

>  <SCORE.INTER.VDW>
-12.2145

>  <SCORE.INTER.norm>
0.0986117

>  <SCORE.INTRA>
-11.5338

>  <SCORE.INTRA.DIHEDRAL>
-24.9717

>  <SCORE.INTRA.DIHEDRAL.0>
25.9209

>  <SCORE.INTRA.POLAR>
0

>  <SCORE.INTRA.POLAR.0>
0

>  <SCORE.INTRA.REPUL>
0

>  <SCORE.INTRA.REPUL.0>
0

>  <SCORE.INTRA.SOLV>
0.447858

>  <SCORE.INTRA.SOLV.lig_0>
-47.4815

>  <SCORE.INTRA.VDW>
0.728144

>  <SCORE.INTRA.VDW.0>
-1.57492

>  <SCORE.INTRA.norm>
-0.82384

>  <SCORE.RESTR>
0

>  <SCORE.RESTR.CAVITY>
0

>  <SCORE.RESTR.norm>
0

>  <SCORE.SYSTEM>
0

>  <SCORE.SYSTEM.CONST>
0

>  <SCORE.SYSTEM.DIHEDRAL>
0

>  <SCORE.SYSTEM.SOLV>
0

>  <SCORE.SYSTEM.norm>
0

>  <SCORE.heavy>
14

>  <SCORE.norm>
-0.725228

>  <RMSD>
5.338

$$$$
ligand
 OpenBabel11021811493D
libRbt.so/2013.1/901 2013/11/27
 14 13  0  0  0  0  0  0  0  0999 V2000
   51.9138    3.8416    0.7466 N   0  0  0  0  0  0  0  0  0  0  0  0
   51.5879    2.4254    0.6309 C   0  0  0  0  0  0  0  0  0  0  0  0
   51.6175    1.9721   -0.8442 C   0  0  0  0  0  0  0  0  0  0  0  0
   51.2681    0.4872   -1.0670 C   0  0  0  0  0  0  0  0  0  0  0  0
   51.2291   -0.0157   -2.4484 N   0  0  0  0  0  0  0  0  0  0  0  0
   50.1211   -0.8560   -2.9163 C   0  0  0  0  0  0  0  0  0  0  0  0
   49.9311   -0.8950   -4.4354 C   0  0  0  0  0  0  0  0  0  0  0  0
   49.6278    0.4890   -5.0343 C   0  0  0  0  0  0  0  0  0  0  0  0
   49.6059    0.5121   -6.5710 C   0  0  0  0  0  0  0  0  0  0  0  0
   50.8599    0.1031   -7.2078 N   0  0  0  0  0  0  0  0  0  0  0  0
   52.0788    0.8986   -6.9798 C   0  0  0  0  0  0  0  0  0  0  0  0
   52.2189    2.2119   -7.7856 C   0  0  0  0  0  0  0  0  0  0  0  0
   53.4616    3.0670   -7.4656 C   0  0  0  0  0  0  0  0  0  0  0  0
   53.4133    3.6703   -6.1370 N   0  0  0  0  0  0  0  0  0  0  0  0
  1  2  1  0  0  0  0
  2  3  1  0  0  0  0
  3  4  1  0  0  0  0
  4  5  1  0  0  0  0
  5  6  1  0  0  0  0
  6  7  1  0  0  0  0
  7  8  1  0  0  0  0
  8  9  1  0  0  0  0
  9 10  1  0  0  0  0
 10 11  1  0  0  0  0
 11 12  1  0  0  0  0
 12 13  1  0  0  0  0
 13 14  1  0  0  0  0
M  END
>  <CHROM.1>
-179.31688019,177.98556354,-134.10439547,159.12635248,-60.81735564,172.77604723
-59.57894015,-62.67389261,-78.49456780,176.44226527,-69.01579341,51.35227979
1.27915373,-4.10834689,-1.64321671,-0.92436992,-1.69279792

>  <Name>
ligand

>  <RI>
0

>  <Rbt.Current_Directory>
/home/itssahil/PROJECTS/Mol_Feturizer/New_Systems/rnas/4E8Q

>  <Rbt.Executable>
rbdock ($Id: //depot/dev/client3/rdock/2013.1/src/exe/rbdock.cxx#4 $)

>  <Rbt.Library>
libRbt.so (2013.1, Build901 2013/11/27)

>  <Rbt.Parameter_File>
/export/apps/rDock/src/rDock_2013.1_src/data/scripts/dock_solv.prm

>  <Rbt.Receptor>
prm/pocket_docking_4.prm

>  <SCORE>
-11.5441

>  <SCORE.INTER>
0.0519348

>  <SCORE.INTER.CONST>
1

>  <SCORE.INTER.POLAR>
0

>  <SCORE.INTER.ROT>
11

>  <SCORE.INTER.SOLV>
6.93507

>  <SCORE.INTER.VDW>
-13.2104

>  <SCORE.INTER.norm>
0.00370963

>  <SCORE.INTRA>
-11.596

>  <SCORE.INTRA.DIHEDRAL>
-23.7011

>  <SCORE.INTRA.DIHEDRAL.0>
25.9209

>  <SCORE.INTRA.POLAR>
0

>  <SCORE.INTRA.POLAR.0>
0

>  <SCORE.INTRA.REPUL>
0

>  <SCORE.INTRA.REPUL.0>
0

>  <SCORE.INTRA.SOLV>
-0.728701

>  <SCORE.INTRA.SOLV.lig_0>
-47.4815

>  <SCORE.INTRA.VDW>
0.618872

>  <SCORE.INTRA.VDW.0>
-1.57492

>  <SCORE.INTRA.norm>
-0.828286

>  <SCORE.RESTR>
0

>  <SCORE.RESTR.CAVITY>
0

>  <SCORE.RESTR.norm>
0

>  <SCORE.SYSTEM>
0

>  <SCORE.SYSTEM.CONST>
0

>  <SCORE.SYSTEM.DIHEDRAL>
0

>  <SCORE.SYSTEM.SOLV>
0

>  <SCORE.SYSTEM.norm>
0

>  <SCORE.heavy>
14

>  <SCORE.norm>
-0.824576

>  <RMSD>
5.355

$$$$
ligand
 OpenBabel11021811493D
libRbt.so/2013.1/901 2013/11/27
 14 13  0  0  0  0  0  0  0  0999 V2000
   52.3800    1.4548   -9.7428 N   0  0  0  0  0  0  0  0  0  0  0  0
   52.3390    0.4832   -8.6568 C   0  0  0  0  0  0  0  0  0  0  0  0
   51.0732    0.6743   -7.7943 C   0  0  0  0  0  0  0  0  0  0  0  0
   50.9637   -0.2853   -6.5927 C   0  0  0  0  0  0  0  0  0  0  0  0
   49.7212   -0.2717   -5.8061 N   0  0  0  0  0  0  0  0  0  0  0  0
   49.4880   -1.2561   -4.7435 C   0  0  0  0  0  0  0  0  0  0  0  0
   49.8097   -0.7719   -3.3266 C   0  0  0  0  0  0  0  0  0  0  0  0
   51.2768   -0.3401   -3.1625 C   0  0  0  0  0  0  0  0  0  0  0  0
   51.6337    0.1286   -1.7429 C   0  0  0  0  0  0  0  0  0  0  0  0
   51.0281    1.4025   -1.3480 N   0  0  0  0  0  0  0  0  0  0  0  0
   51.3738    1.9929   -0.0433 C   0  0  0  0  0  0  0  0  0  0  0  0
   50.9700    3.4686    0.1867 C   0  0  0  0  0  0  0  0  0  0  0  0
   51.5756    4.4916   -0.7955 C   0  0  0  0  0  0  0  0  0  0  0  0
   51.1904    5.8678   -0.4966 N   0  0  0  0  0  0  0  0  0  0  0  0
  1  2  1  0  0  0  0
  2  3  1  0  0  0  0
  3  4  1  0  0  0  0
  4  5  1  0  0  0  0
  5  6  1  0  0  0  0
  6  7  1  0  0  0  0
  7  8  1  0  0  0  0
  8  9  1  0  0  0  0
  9 10  1  0  0  0  0
 10 11  1  0  0  0  0
 11 12  1  0  0  0  0
 12 13  1  0  0  0  0
 13 14  1  0  0  0  0
M  END
>  <CHROM.1>
-178.30151691,-173.40377449,173.23822923,97.51574709,-59.19908852,-179.03150897
-69.47601241,-175.88609714,166.47265726,-59.84019767,-178.09801799,51.05878675
1.21671948,-3.86158464,-1.53050906,1.23102658,1.13267861

>  <Name>
ligand

>  <RI>
0

>  <Rbt.Current_Directory>
/home/itssahil/PROJECTS/Mol_Feturizer/New_Systems/rnas/4E8Q

>  <Rbt.Executable>
rbdock ($Id: //depot/dev/client3/rdock/2013.1/src/exe/rbdock.cxx#4 $)

>  <Rbt.Library>
libRbt.so (2013.1, Build901 2013/11/27)

>  <Rbt.Parameter_File>
/export/apps/rDock/src/rDock_2013.1_src/data/scripts/dock_solv.prm

>  <Rbt.Receptor>
prm/pocket_docking_5.prm

>  <SCORE>
-12.6169

>  <SCORE.INTER>
-0.109513

>  <SCORE.INTER.CONST>
1

>  <SCORE.INTER.POLAR>
0

>  <SCORE.INTER.ROT>
11

>  <SCORE.INTER.SOLV>
7.31269

>  <SCORE.INTER.VDW>
-13.4439

>  <SCORE.INTER.norm>
-0.00782237

>  <SCORE.INTRA>
-12.5074

>  <SCORE.INTRA.DIHEDRAL>
-24.3686

>  <SCORE.INTRA.DIHEDRAL.0>
25.9209

>  <SCORE.INTRA.POLAR>
0

>  <SCORE.INTRA.POLAR.0>
0

>  <SCORE.INTRA.REPUL>
0

>  <SCORE.INTRA.REPUL.0>
0

>  <SCORE.INTRA.SOLV>
-1.1361

>  <SCORE.INTRA.SOLV.lig_0>
-47.4815

>  <SCORE.INTRA.VDW>
0.244957

>  <SCORE.INTRA.VDW.0>
-1.57492

>  <SCORE.INTRA.norm>
-0.893385

>  <SCORE.RESTR>
0

>  <SCORE.RESTR.CAVITY>
0

>  <SCORE.RESTR.norm>
0

>  <SCORE.SYSTEM>
0

>  <SCORE.SYSTEM.CONST>
0

>  <SCORE.SYSTEM.DIHEDRAL>
0

>  <SCORE.SYSTEM.SOLV>
0

>  <SCORE.SYSTEM.norm>
0

>  <SCORE.heavy>
14

>  <SCORE.norm>
-0.901208

>  <RMSD>
5.361

$$$$
ligand
 OpenBabel11021811493D
libRbt.so/2013.1/901 2013/11/27
 14 13  0  0  0  0  0  0  0  0999 V2000
   48.3744   -4.7599   -6.6456 N   0  0  0  0  0  0  0  0  0  0  0  0
   47.8292   -3.4895   -6.1829 C   0  0  0  0  0  0  0  0  0  0  0  0
   48.9062   -2.6623   -5.4493 C   0  0  0  0  0  0  0  0  0  0  0  0
   48.3939   -1.3477   -4.8280 C   0  0  0  0  0  0  0  0  0  0  0  0
   49.3733   -0.4549   -4.1905 N   0  0  0  0  0  0  0  0  0  0  0  0
   50.3274   -0.9638   -3.1989 C   0  0  0  0  0  0  0  0  0  0  0  0
   51.0858    0.1111   -2.4148 C   0  0  0  0  0  0  0  0  0  0  0  0
   51.7611    1.1495   -3.3266 C   0  0  0  0  0  0  0  0  0  0  0  0
   52.5028    2.2596   -2.5648 C   0  0  0  0  0  0  0  0  0  0  0  0
   53.0685    3.3116   -3.4126 N   0  0  0  0  0  0  0  0  0  0  0  0
   54.0947    4.2119   -2.8586 C   0  0  0  0  0  0  0  0  0  0  0  0
   54.3518    5.5336   -3.6204 C   0  0  0  0  0  0  0  0  0  0  0  0
   55.4430    6.4486   -3.0287 C   0  0  0  0  0  0  0  0  0  0  0  0
   55.1348    6.9048   -1.6766 N   0  0  0  0  0  0  0  0  0  0  0  0
  1  2  1  0  0  0  0
  2  3  1  0  0  0  0
  3  4  1  0  0  0  0
  4  5  1  0  0  0  0
  5  6  1  0  0  0  0
  6  7  1  0  0  0  0
  7  8  1  0  0  0  0
  8  9  1  0  0  0  0
  9 10  1  0  0  0  0
 10 11  1  0  0  0  0
 11 12  1  0  0  0  0
 12 13  1  0  0  0  0
 13 14  1  0  0  0  0
M  END
>  <CHROM.1>
-175.50399858,-175.88654703,-50.34995428,-168.03952708,-51.97914731,178.65530967
-175.71399567,-163.41744318,-162.42111275,-179.25886924,-61.54537079,51.47477739
1.16086334,-3.81408848,-2.88093871,0.95338970,1.57071004

>  <Name>
ligand

>  <RI>
0

>  <Rbt.Current_Directory>
/home/itssahil/PROJECTS/Mol_Feturizer/New_Systems/rnas/4E8Q

>  <Rbt.Executable>
rbdock ($Id: //depot/dev/client3/rdock/2013.1/src/exe/rbdock.cxx#4 $)

>  <Rbt.Library>
libRbt.so (2013.1, Build901 2013/11/27)

>  <Rbt.Parameter_File>
/export/apps/rDock/src/rDock_2013.1_src/data/scripts/dock_solv.prm

>  <Rbt.Receptor>
prm/pocket_docking_7.prm

>  <SCORE>
-12.8482

>  <SCORE.INTER>
-0.791553

>  <SCORE.INTER.CONST>
1

>  <SCORE.INTER.POLAR>
0

>  <SCORE.INTER.ROT>
11

>  <SCORE.INTER.SOLV>
7.89811

>  <SCORE.INTER.VDW>
-14.0937

>  <SCORE.INTER.norm>
-0.0565395

>  <SCORE.INTRA>
-12.0566

>  <SCORE.INTRA.DIHEDRAL>
-24.8154

>  <SCORE.INTRA.DIHEDRAL.0>
25.9209

>  <SCORE.INTRA.POLAR>
0

>  <SCORE.INTRA.POLAR.0>
0

>  <SCORE.INTRA.REPUL>
0

>  <SCORE.INTRA.REPUL.0>
0

>  <SCORE.INTRA.SOLV>
-1.02084

>  <SCORE.INTRA.SOLV.lig_0>
-47.4815

>  <SCORE.INTRA.VDW>
0.861488

>  <SCORE.INTRA.VDW.0>
-1.57492

>  <SCORE.INTRA.norm>
-0.861189

>  <SCORE.RESTR>
0

>  <SCORE.RESTR.CAVITY>
0

>  <SCORE.RESTR.norm>
0

>  <SCORE.SYSTEM>
0

>  <SCORE.SYSTEM.CONST>
0

>  <SCORE.SYSTEM.DIHEDRAL>
0

>  <SCORE.SYSTEM.SOLV>
0

>  <SCORE.SYSTEM.norm>
0

>  <SCORE.heavy>
14

>  <SCORE.norm>
-0.917728

>  <RMSD>
5.361

$$$$
ligand
 OpenBabel11021811493D
libRbt.so/2013.1/901 2013/11/27
 14 13  0  0  0  0  0  0  0  0999 V2000
   53.3067    3.7223   -6.3943 N   0  0  0  0  0  0  0  0  0  0  0  0
   53.3564    2.2986   -6.7039 C   0  0  0  0  0  0  0  0  0  0  0  0
   51.9443    1.7493   -6.9984 C   0  0  0  0  0  0  0  0  0  0  0  0
   51.8843    0.2277   -7.2390 C   0  0  0  0  0  0  0  0  0  0  0  0
   50.5751   -0.3769   -7.5275 N   0  0  0  0  0  0  0  0  0  0  0  0
   49.4127   -0.1067   -6.6740 C   0  0  0  0  0  0  0  0  0  0  0  0
   49.4785   -0.7201   -5.2723 C   0  0  0  0  0  0  0  0  0  0  0  0
   50.5619   -0.0769   -4.3901 C   0  0  0  0  0  0  0  0  0  0  0  0
   50.6135   -0.6357   -2.9591 C   0  0  0  0  0  0  0  0  0  0  0  0
   51.6559   -0.0528   -2.1111 N   0  0  0  0  0  0  0  0  0  0  0  0
   51.2903    0.5049   -0.7974 C   0  0  0  0  0  0  0  0  0  0  0  0
   51.6886    1.9748   -0.5252 C   0  0  0  0  0  0  0  0  0  0  0  0
   51.2783    2.5382    0.8504 C   0  0  0  0  0  0  0  0  0  0  0  0
   51.6795    3.9290    1.0410 N   0  0  0  0  0  0  0  0  0  0  0  0
  1  2  1  0  0  0  0
  2  3  1  0  0  0  0
  3  4  1  0  0  0  0
  4  5  1  0  0  0  0
  5  6  1  0  0  0  0
  6  7  1  0  0  0  0
  7  8  1  0  0  0  0
  8  9  1  0  0  0  0
  9 10  1  0  0  0  0
 10 11  1  0  0  0  0
 11 12  1  0  0  0  0
 12 13  1  0  0  0  0
 13 14  1  0  0  0  0
M  END
>  <CHROM.1>
-175.87016710,-179.96174826,-50.13029574,-69.47949043,68.04438701,177.72884741
178.90984430,127.24698311,-124.59403481,179.26831811,-179.80362663,51.33740272
1.06940066,-3.97871482,-1.61041957,0.94280109,1.39408241

>  <Name>
ligand

>  <RI>
0

>  <Rbt.Current_Directory>
/home/itssahil/PROJECTS/Mol_Feturizer/New_Systems/rnas/4E8Q

>  <Rbt.Executable>
rbdock ($Id: //depot/dev/client3/rdock/2013.1/src/exe/rbdock.cxx#4 $)

>  <Rbt.Library>
libRbt.so (2013.1, Build901 2013/11/27)

>  <Rbt.Parameter_File>
/export/apps/rDock/src/rDock_2013.1_src/data/scripts/dock_solv.prm

>  <Rbt.Receptor>
prm/pocket_docking_4.prm

>  <SCORE>
-12.6285

>  <SCORE.INTER>
-1.19918

>  <SCORE.INTER.CONST>
1

>  <SCORE.INTER.POLAR>
0

>  <SCORE.INTER.ROT>
11

>  <SCORE.INTER.SOLV>
8.22261

>  <SCORE.INTER.VDW>
-14.4737

>  <SCORE.INTER.norm>
-0.0856559

>  <SCORE.INTRA>
-11.4294

>  <SCORE.INTRA.DIHEDRAL>
-23.0963

>  <SCORE.INTRA.DIHEDRAL.0>
25.9209

>  <SCORE.INTRA.POLAR>
0

>  <SCORE.INTRA.POLAR.0>
0

>  <SCORE.INTRA.REPUL>
0

>  <SCORE.INTRA.REPUL.0>
0

>  <SCORE.INTRA.SOLV>
-1.79852

>  <SCORE.INTRA.SOLV.lig_0>
-47.4815

>  <SCORE.INTRA.VDW>
1.01807

>  <SCORE.INTRA.VDW.0>
-1.57492

>  <SCORE.INTRA.norm>
-0.816382

>  <SCORE.RESTR>
0

>  <SCORE.RESTR.CAVITY>
0

>  <SCORE.RESTR.norm>
0

>  <SCORE.SYSTEM>
0

>  <SCORE.SYSTEM.CONST>
0

>  <SCORE.SYSTEM.DIHEDRAL>
0

>  <SCORE.SYSTEM.SOLV>
0

>  <SCORE.SYSTEM.norm>
0

>  <SCORE.heavy>
14

>  <SCORE.norm>
-0.902038

>  <RMSD>
5.369

$$$$
ligand
 OpenBabel11021811493D
libRbt.so/2013.1/901 2013/11/27
 14 13  0  0  0  0  0  0  0  0999 V2000
   51.1417    5.1785   -2.2489 N   0  0  0  0  0  0  0  0  0  0  0  0
   51.6166    3.8709   -1.8130 C   0  0  0  0  0  0  0  0  0  0  0  0
   51.9802    3.8890   -0.3130 C   0  0  0  0  0  0  0  0  0  0  0  0
   52.5250    2.5537    0.2319 C   0  0  0  0  0  0  0  0  0  0  0  0
   51.6496    1.3734    0.1748 N   0  0  0  0  0  0  0  0  0  0  0  0
   51.8271    0.3496   -0.8610 C   0  0  0  0  0  0  0  0  0  0  0  0
   51.0351    0.5851   -2.1505 C   0  0  0  0  0  0  0  0  0  0  0  0
   51.2791   -0.5051   -3.2078 C   0  0  0  0  0  0  0  0  0  0  0  0
   50.2779   -0.4780   -4.3738 C   0  0  0  0  0  0  0  0  0  0  0  0
   48.9013   -0.8187   -4.0072 N   0  0  0  0  0  0  0  0  0  0  0  0
   47.8650   -0.8626   -5.0535 C   0  0  0  0  0  0  0  0  0  0  0  0
   47.9244   -2.0455   -6.0489 C   0  0  0  0  0  0  0  0  0  0  0  0
   46.8428   -2.0533   -7.1480 C   0  0  0  0  0  0  0  0  0  0  0  0
   46.9629   -3.1874   -8.0596 N   0  0  0  0  0  0  0  0  0  0  0  0
  1  2  1  0  0  0  0
  2  3  1  0  0  0  0
  3  4  1  0  0  0  0
  4  5  1  0  0  0  0
  5  6  1  0  0  0  0
  6  7  1  0  0  0  0
  7  8  1  0  0  0  0
  8  9  1  0  0  0  0
  9 10  1  0  0  0  0
 10 11  1  0  0  0  0
 11 12  1  0  0  0  0
 12 13  1  0  0  0  0
 13 14  1  0  0  0  0
M  END
>  <CHROM.1>
-178.64765048,-61.41866937,101.81405941,-89.87035912,178.99276945,167.00913445
-66.89452578,-178.23184959,71.92334753,-178.97957414,179.46321298,50.13082287
0.56065028,-3.20548545,0.58202297,-0.95176702,-0.04137442

>  <Name>
ligand

>  <RI>
0

>  <Rbt.Current_Directory>
/home/itssahil/PROJECTS/Mol_Feturizer/New_Systems/rnas/4E8Q

>  <Rbt.Executable>
rbdock ($Id: //depot/dev/client3/rdock/2013.1/src/exe/rbdock.cxx#4 $)

>  <Rbt.Library>
libRbt.so (2013.1, Build901 2013/11/27)

>  <Rbt.Parameter_File>
/export/apps/rDock/src/rDock_2013.1_src/data/scripts/dock_solv.prm

>  <Rbt.Receptor>
prm/pocket_docking_8.prm

>  <SCORE>
-14.3951

>  <SCORE.INTER>
-2.31292

>  <SCORE.INTER.CONST>
1

>  <SCORE.INTER.POLAR>
0

>  <SCORE.INTER.ROT>
11

>  <SCORE.INTER.SOLV>
8.68456

>  <SCORE.INTER.VDW>
-15.3701

>  <SCORE.INTER.norm>
-0.165209

>  <SCORE.INTRA>
-12.0821

>  <SCORE.INTRA.DIHEDRAL>
-23.379

>  <SCORE.INTRA.DIHEDRAL.0>
25.9209

>  <SCORE.INTRA.POLAR>
0

>  <SCORE.INTRA.POLAR.0>
0

>  <SCORE.INTRA.REPUL>
0

>  <SCORE.INTRA.REPUL.0>
0

>  <SCORE.INTRA.SOLV>
-1.35501

>  <SCORE.INTRA.SOLV.lig_0>
-47.4815

>  <SCORE.INTRA.VDW>
0.284857

>  <SCORE.INTRA.VDW.0>
-1.57492

>  <SCORE.INTRA.norm>
-0.863011

>  <SCORE.RESTR>
0

>  <SCORE.RESTR.CAVITY>
0

>  <SCORE.RESTR.norm>
0

>  <SCORE.SYSTEM>
0

>  <SCORE.SYSTEM.CONST>
0

>  <SCORE.SYSTEM.DIHEDRAL>
0

>  <SCORE.SYSTEM.SOLV>
0

>  <SCORE.SYSTEM.norm>
0

>  <SCORE.heavy>
14

>  <SCORE.norm>
-1.02822

>  <RMSD>
5.369

$$$$
ligand
 OpenBabel11021811493D
libRbt.so/2013.1/901 2013/11/27
 14 13  0  0  0  0  0  0  0  0999 V2000
   51.2427    1.1422   -7.4543 N   0  0  0  0  0  0  0  0  0  0  0  0
   51.0203    0.1307   -6.4283 C   0  0  0  0  0  0  0  0  0  0  0  0
   49.7319   -0.6698   -6.7141 C   0  0  0  0  0  0  0  0  0  0  0  0
   49.3547   -1.6910   -5.6225 C   0  0  0  0  0  0  0  0  0  0  0  0
   49.0040   -1.1812   -4.2883 N   0  0  0  0  0  0  0  0  0  0  0  0
   50.0204   -1.0473   -3.2387 C   0  0  0  0  0  0  0  0  0  0  0  0
   50.7266    0.3106   -3.1868 C   0  0  0  0  0  0  0  0  0  0  0  0
   51.5705    0.4957   -1.9142 C   0  0  0  0  0  0  0  0  0  0  0  0
   52.1108    1.9224   -1.7265 C   0  0  0  0  0  0  0  0  0  0  0  0
   53.0006    2.3859   -2.7937 N   0  0  0  0  0  0  0  0  0  0  0  0
   53.7592    3.6353   -2.6099 C   0  0  0  0  0  0  0  0  0  0  0  0
   54.1756    4.3967   -3.8907 C   0  0  0  0  0  0  0  0  0  0  0  0
   53.0239    5.0147   -4.7090 C   0  0  0  0  0  0  0  0  0  0  0  0
   52.2682    6.0178   -3.9646 N   0  0  0  0  0  0  0  0  0  0  0  0
  1  2  1  0  0  0  0
  2  3  1  0  0  0  0
  3  4  1  0  0  0  0
  4  5  1  0  0  0  0
  5  6  1  0  0  0  0
  6  7  1  0  0  0  0
  7  8  1  0  0  0  0
  8  9  1  0  0  0  0
  9 10  1  0  0  0  0
 10 11  1  0  0  0  0
 11 12  1  0  0  0  0
 12 13  1  0  0  0  0
 13 14  1  0  0  0  0
M  END
>  <CHROM.1>
-175.47801805,64.52047625,-92.56309336,90.68754866,168.67229322,-170.91264075
-61.11926115,-169.48499032,-154.32784827,67.43003542,61.61992192,51.50072448
1.48996296,-4.18135245,-3.12549239,1.02348884,1.87492801

>  <Name>
ligand

>  <RI>
0

>  <Rbt.Current_Directory>
/home/itssahil/PROJECTS/Mol_Feturizer/New_Systems/rnas/4E8Q

>  <Rbt.Executable>
rbdock ($Id: //depot/dev/client3/rdock/2013.1/src/exe/rbdock.cxx#4 $)

>  <Rbt.Library>
libRbt.so (2013.1, Build901 2013/11/27)

>  <Rbt.Parameter_File>
/export/apps/rDock/src/rDock_2013.1_src/data/scripts/dock_solv.prm

>  <Rbt.Receptor>
prm/pocket_docking_3.prm

>  <SCORE>
-9.27216

>  <SCORE.INTER>
1.93857

>  <SCORE.INTER.CONST>
1

>  <SCORE.INTER.POLAR>
0

>  <SCORE.INTER.ROT>
11

>  <SCORE.INTER.SOLV>
6.4982

>  <SCORE.INTER.VDW>
-11.807

>  <SCORE.INTER.norm>
0.138469

>  <SCORE.INTRA>
-11.2332

>  <SCORE.INTRA.DIHEDRAL>
-22.879

>  <SCORE.INTRA.DIHEDRAL.0>
25.9209

>  <SCORE.INTRA.POLAR>
0

>  <SCORE.INTRA.POLAR.0>
0

>  <SCORE.INTRA.REPUL>
0

>  <SCORE.INTRA.REPUL.0>
0

>  <SCORE.INTRA.SOLV>
0.265899

>  <SCORE.INTRA.SOLV.lig_0>
-47.4815

>  <SCORE.INTRA.VDW>
0.0733485

>  <SCORE.INTRA.VDW.0>
-1.57492

>  <SCORE.INTRA.norm>
-0.802372

>  <SCORE.RESTR>
0.0224759

>  <SCORE.RESTR.CAVITY>
0.0224759

>  <SCORE.RESTR.norm>
0.00160542

>  <SCORE.SYSTEM>
0

>  <SCORE.SYSTEM.CONST>
0

>  <SCORE.SYSTEM.DIHEDRAL>
0

>  <SCORE.SYSTEM.SOLV>
0

>  <SCORE.SYSTEM.norm>
0

>  <SCORE.heavy>
14

>  <SCORE.norm>
-0.662297

>  <RMSD>
5.378

$$$$
ligand
 OpenBabel11021811493D
libRbt.so/2013.1/901 2013/11/27
 14 13  0  0  0  0  0  0  0  0999 V2000
   51.4181    3.9878    0.9042 N   0  0  0  0  0  0  0  0  0  0  0  0
   51.2246    2.5443    0.8401 C   0  0  0  0  0  0  0  0  0  0  0  0
   51.5915    2.0010   -0.5573 C   0  0  0  0  0  0  0  0  0  0  0  0
   51.4021    0.4802   -0.7251 C   0  0  0  0  0  0  0  0  0  0  0  0
   51.7763   -0.1267   -2.0114 N   0  0  0  0  0  0  0  0  0  0  0  0
   50.9266    0.0299   -3.1971 C   0  0  0  0  0  0  0  0  0  0  0  0
   49.7785   -0.9771   -3.3121 C   0  0  0  0  0  0  0  0  0  0  0  0
   48.9028   -0.7440   -4.5549 C   0  0  0  0  0  0  0  0  0  0  0  0
   49.6040   -1.0737   -5.8824 C   0  0  0  0  0  0  0  0  0  0  0  0
   50.7993   -0.2736   -6.1590 N   0  0  0  0  0  0  0  0  0  0  0  0
   51.2260   -0.0712   -7.5545 C   0  0  0  0  0  0  0  0  0  0  0  0
   52.4951    0.7838   -7.7818 C   0  0  0  0  0  0  0  0  0  0  0  0
   52.4675    2.2014   -7.1754 C   0  0  0  0  0  0  0  0  0  0  0  0
   53.6589    2.9826   -7.4944 N   0  0  0  0  0  0  0  0  0  0  0  0
  1  2  1  0  0  0  0
  2  3  1  0  0  0  0
  3  4  1  0  0  0  0
  4  5  1  0  0  0  0
  5  6  1  0  0  0  0
  6  7  1  0  0  0  0
  7  8  1  0  0  0  0
  8  9  1  0  0  0  0
  9 10  1  0  0  0  0
 10 11  1  0  0  0  0
 11 12  1  0  0  0  0
 12 13  1  0  0  0  0
 13 14  1  0  0  0  0
M  END
>  <CHROM.1>
-179.32043363,-177.77137823,-75.52262161,-84.63092879,178.62542367,69.61986876
-61.28975385,-154.69518265,179.95754926,-56.02016099,-176.50084263,51.23337087
0.83858163,-3.90445059,-1.65180184,-0.91111056,-1.82877324

>  <Name>
ligand

>  <RI>
0

>  <Rbt.Current_Directory>
/home/itssahil/PROJECTS/Mol_Feturizer/New_Systems/rnas/4E8Q

>  <Rbt.Executable>
rbdock ($Id: //depot/dev/client3/rdock/2013.1/src/exe/rbdock.cxx#4 $)

>  <Rbt.Library>
libRbt.so (2013.1, Build901 2013/11/27)

>  <Rbt.Parameter_File>
/export/apps/rDock/src/rDock_2013.1_src/data/scripts/dock_solv.prm

>  <Rbt.Receptor>
prm/pocket_docking_4.prm

>  <SCORE>
-14.1668

>  <SCORE.INTER>
-2.31863

>  <SCORE.INTER.CONST>
1

>  <SCORE.INTER.POLAR>
0

>  <SCORE.INTER.ROT>
11

>  <SCORE.INTER.SOLV>
10.5134

>  <SCORE.INTER.VDW>
-15.9836

>  <SCORE.INTER.norm>
-0.165616

>  <SCORE.INTRA>
-11.8482

>  <SCORE.INTRA.DIHEDRAL>
-24.326

>  <SCORE.INTRA.DIHEDRAL.0>
25.9209

>  <SCORE.INTRA.POLAR>
0

>  <SCORE.INTRA.POLAR.0>
0

>  <SCORE.INTRA.REPUL>
0

>  <SCORE.INTRA.REPUL.0>
0

>  <SCORE.INTRA.SOLV>
-0.762721

>  <SCORE.INTRA.SOLV.lig_0>
-47.4815

>  <SCORE.INTRA.VDW>
0.696146

>  <SCORE.INTRA.VDW.0>
-1.57492

>  <SCORE.INTRA.norm>
-0.846301

>  <SCORE.RESTR>
0

>  <SCORE.RESTR.CAVITY>
0

>  <SCORE.RESTR.norm>
0

>  <SCORE.SYSTEM>
0

>  <SCORE.SYSTEM.CONST>
0

>  <SCORE.SYSTEM.DIHEDRAL>
0

>  <SCORE.SYSTEM.SOLV>
0

>  <SCORE.SYSTEM.norm>
0

>  <SCORE.heavy>
14

>  <SCORE.norm>
-1.01192

>  <RMSD>
5.381

$$$$
ligand
 OpenBabel11021811493D
libRbt.so/2013.1/901 2013/11/27
 14 13  0  0  0  0  0  0  0  0999 V2000
   52.2166    3.9423    2.3123 N   0  0  0  0  0  0  0  0  0  0  0  0
   50.9087    4.0847    1.6843 C   0  0  0  0  0  0  0  0  0  0  0  0
   50.9470    3.6060    0.2174 C   0  0  0  0  0  0  0  0  0  0  0  0
   51.1790    2.0921    0.0416 C   0  0  0  0  0  0  0  0  0  0  0  0
   51.1194    1.5354   -1.3183 N   0  0  0  0  0  0  0  0  0  0  0  0
   51.5904    0.1747   -1.5998 C   0  0  0  0  0  0  0  0  0  0  0  0
   51.4117   -0.2887   -3.0485 C   0  0  0  0  0  0  0  0  0  0  0  0
   49.9431   -0.5721   -3.4071 C   0  0  0  0  0  0  0  0  0  0  0  0
   49.7384   -1.0756   -4.8449 C   0  0  0  0  0  0  0  0  0  0  0  0
   48.3409   -1.2989   -5.2226 N   0  0  0  0  0  0  0  0  0  0  0  0
   48.0244   -2.2879   -6.2677 C   0  0  0  0  0  0  0  0  0  0  0  0
   48.9805   -2.3538   -7.4822 C   0  0  0  0  0  0  0  0  0  0  0  0
   49.1630   -1.0381   -8.2656 C   0  0  0  0  0  0  0  0  0  0  0  0
   47.9732   -0.6516   -9.0182 N   0  0  0  0  0  0  0  0  0  0  0  0
  1  2  1  0  0  0  0
  2  3  1  0  0  0  0
  3  4  1  0  0  0  0
  4  5  1  0  0  0  0
  5  6  1  0  0  0  0
  6  7  1  0  0  0  0
  7  8  1  0  0  0  0
  8  9  1  0  0  0  0
  9 10  1  0  0  0  0
 10 11  1  0  0  0  0
 11 12  1  0  0  0  0
 12 13  1  0  0  0  0
 13 14  1  0  0  0  0
M  END
>  <CHROM.1>
67.09439855,175.07339660,167.55508874,177.54461087,-72.16728403,-178.43596845
-177.61858473,-153.25498660,-39.15807038,-57.18533890,-70.19212480,50.10981795
0.41899855,-3.30138302,0.96699660,-1.04692869,0.51498563

>  <Name>
ligand

>  <RI>
0

>  <Rbt.Current_Directory>
/home/itssahil/PROJECTS/Mol_Feturizer/New_Systems/rnas/4E8Q

>  <Rbt.Executable>
rbdock ($Id: //depot/dev/client3/rdock/2013.1/src/exe/rbdock.cxx#4 $)

>  <Rbt.Library>
libRbt.so (2013.1, Build901 2013/11/27)

>  <Rbt.Parameter_File>
/export/apps/rDock/src/rDock_2013.1_src/data/scripts/dock_solv.prm

>  <Rbt.Receptor>
prm/pocket_docking_5.prm

>  <SCORE>
-10.5521

>  <SCORE.INTER>
-0.00676858

>  <SCORE.INTER.CONST>
1

>  <SCORE.INTER.POLAR>
0

>  <SCORE.INTER.ROT>
11

>  <SCORE.INTER.SOLV>
9.41592

>  <SCORE.INTER.VDW>
-14.0765

>  <SCORE.INTER.norm>
-0.00048347

>  <SCORE.INTRA>
-10.5453

>  <SCORE.INTRA.DIHEDRAL>
-23.7053

>  <SCORE.INTRA.DIHEDRAL.0>
25.9209

>  <SCORE.INTRA.POLAR>
0

>  <SCORE.INTRA.POLAR.0>
0

>  <SCORE.INTRA.REPUL>
0

>  <SCORE.INTRA.REPUL.0>
0

>  <SCORE.INTRA.SOLV>
0.411305

>  <SCORE.INTRA.SOLV.lig_0>
-47.4815

>  <SCORE.INTRA.VDW>
1.10164

>  <SCORE.INTRA.VDW.0>
-1.57492

>  <SCORE.INTRA.norm>
-0.753238

>  <SCORE.RESTR>
0

>  <SCORE.RESTR.CAVITY>
0

>  <SCORE.RESTR.norm>
0

>  <SCORE.SYSTEM>
0

>  <SCORE.SYSTEM.CONST>
0

>  <SCORE.SYSTEM.DIHEDRAL>
0

>  <SCORE.SYSTEM.SOLV>
0

>  <SCORE.SYSTEM.norm>
0

>  <SCORE.heavy>
14

>  <SCORE.norm>
-0.753722

>  <RMSD>
5.383

$$$$
ligand
 OpenBabel11021811493D
libRbt.so/2013.1/901 2013/11/27
 14 13  0  0  0  0  0  0  0  0999 V2000
   48.8284   -1.8618   -7.2014 N   0  0  0  0  0  0  0  0  0  0  0  0
   47.8583   -1.5204   -6.1682 C   0  0  0  0  0  0  0  0  0  0  0  0
   48.4344   -1.7885   -4.7615 C   0  0  0  0  0  0  0  0  0  0  0  0
   49.5950   -0.8587   -4.3549 C   0  0  0  0  0  0  0  0  0  0  0  0
   50.1735   -1.0193   -3.0124 N   0  0  0  0  0  0  0  0  0  0  0  0
   51.0672   -0.0021   -2.4474 C   0  0  0  0  0  0  0  0  0  0  0  0
   50.9960    0.1530   -0.9255 C   0  0  0  0  0  0  0  0  0  0  0  0
   51.9700    1.2153   -0.3880 C   0  0  0  0  0  0  0  0  0  0  0  0
   51.6607    2.6432   -0.8656 C   0  0  0  0  0  0  0  0  0  0  0  0
   52.0046    2.9093   -2.2643 N   0  0  0  0  0  0  0  0  0  0  0  0
   53.4160    3.1114   -2.6353 C   0  0  0  0  0  0  0  0  0  0  0  0
   53.7590    3.0536   -4.1428 C   0  0  0  0  0  0  0  0  0  0  0  0
   53.0556    4.0987   -5.0322 C   0  0  0  0  0  0  0  0  0  0  0  0
   53.3938    3.9658   -6.4463 N   0  0  0  0  0  0  0  0  0  0  0  0
  1  2  1  0  0  0  0
  2  3  1  0  0  0  0
  3  4  1  0  0  0  0
  4  5  1  0  0  0  0
  5  6  1  0  0  0  0
  6  7  1  0  0  0  0
  7  8  1  0  0  0  0
  8  9  1  0  0  0  0
  9 10  1  0  0  0  0
 10 11  1  0  0  0  0
 11 12  1  0  0  0  0
 12 13  1  0  0  0  0
 13 14  1  0  0  0  0
M  END
>  <CHROM.1>
67.75675376,178.11130106,-166.64225657,148.14351971,179.03924655,64.51128158
-73.97577745,-75.95769467,165.92058247,60.44350805,-178.39591284,51.15806152
1.00711879,-3.61709988,-2.89285679,0.87119208,1.70194707

>  <Name>
ligand

>  <RI>
0

>  <Rbt.Current_Directory>
/home/itssahil/PROJECTS/Mol_Feturizer/New_Systems/rnas/4E8Q

>  <Rbt.Executable>
rbdock ($Id: //depot/dev/client3/rdock/2013.1/src/exe/rbdock.cxx#4 $)

>  <Rbt.Library>
libRbt.so (2013.1, Build901 2013/11/27)

>  <Rbt.Parameter_File>
/export/apps/rDock/src/rDock_2013.1_src/data/scripts/dock_solv.prm

>  <Rbt.Receptor>
prm/pocket_docking_6.prm

>  <SCORE>
-13.5349

>  <SCORE.INTER>
-2.21319

>  <SCORE.INTER.CONST>
1

>  <SCORE.INTER.POLAR>
0

>  <SCORE.INTER.ROT>
11

>  <SCORE.INTER.SOLV>
8.14223

>  <SCORE.INTER.VDW>
-15.1229

>  <SCORE.INTER.norm>
-0.158085

>  <SCORE.INTRA>
-11.3217

>  <SCORE.INTRA.DIHEDRAL>
-23.725

>  <SCORE.INTRA.DIHEDRAL.0>
25.9209

>  <SCORE.INTRA.POLAR>
0

>  <SCORE.INTRA.POLAR.0>
0

>  <SCORE.INTRA.REPUL>
0

>  <SCORE.INTRA.REPUL.0>
0

>  <SCORE.INTRA.SOLV>
-0.270464

>  <SCORE.INTRA.SOLV.lig_0>
-47.4815

>  <SCORE.INTRA.VDW>
0.675993

>  <SCORE.INTRA.VDW.0>
-1.57492

>  <SCORE.INTRA.norm>
-0.808694

>  <SCORE.RESTR>
0

>  <SCORE.RESTR.CAVITY>
0

>  <SCORE.RESTR.norm>
0

>  <SCORE.SYSTEM>
0

>  <SCORE.SYSTEM.CONST>
0

>  <SCORE.SYSTEM.DIHEDRAL>
0

>  <SCORE.SYSTEM.SOLV>
0

>  <SCORE.SYSTEM.norm>
0

>  <SCORE.heavy>
14

>  <SCORE.norm>
-0.96678

>  <RMSD>
5.383

$$$$
ligand
 OpenBabel11021811493D
libRbt.so/2013.1/901 2013/11/27
 14 13  0  0  0  0  0  0  0  0999 V2000
   52.0088    4.0853   -0.2725 N   0  0  0  0  0  0  0  0  0  0  0  0
   52.3804    2.7257   -0.6446 C   0  0  0  0  0  0  0  0  0  0  0  0
   51.2995    1.7178   -0.1992 C   0  0  0  0  0  0  0  0  0  0  0  0
   51.6187    0.2461   -0.5292 C   0  0  0  0  0  0  0  0  0  0  0  0
   51.8148   -0.1208   -1.9398 N   0  0  0  0  0  0  0  0  0  0  0  0
   50.6926   -0.1182   -2.8849 C   0  0  0  0  0  0  0  0  0  0  0  0
   51.0720   -0.3797   -4.3455 C   0  0  0  0  0  0  0  0  0  0  0  0
   49.8696   -0.2856   -5.3000 C   0  0  0  0  0  0  0  0  0  0  0  0
   49.3903    1.1517   -5.5592 C   0  0  0  0  0  0  0  0  0  0  0  0
   49.0295    1.9036   -4.3551 N   0  0  0  0  0  0  0  0  0  0  0  0
   48.4857    3.2661   -4.4903 C   0  0  0  0  0  0  0  0  0  0  0  0
   49.4678    4.3699   -4.9494 C   0  0  0  0  0  0  0  0  0  0  0  0
   48.8867    5.7962   -5.0270 C   0  0  0  0  0  0  0  0  0  0  0  0
   49.8686    6.7910   -5.4486 N   0  0  0  0  0  0  0  0  0  0  0  0
  1  2  1  0  0  0  0
  2  3  1  0  0  0  0
  3  4  1  0  0  0  0
  4  5  1  0  0  0  0
  5  6  1  0  0  0  0
  6  7  1  0  0  0  0
  7  8  1  0  0  0  0
  8  9  1  0  0  0  0
  9 10  1  0  0  0  0
 10 11  1  0  0  0  0
 11 12  1  0  0  0  0
 12 13  1  0  0  0  0
 13 14  1  0  0  0  0
M  END
>  <CHROM.1>
-178.97375585,-59.78784986,-69.47887856,173.93142916,-176.71321061,73.91917055
-56.70369373,-176.61649787,-70.76914163,-177.59995015,179.22596181,50.42025581
2.22454603,-3.28192924,-0.61139838,-1.07687038,0.16193746

>  <Name>
ligand

>  <RI>
0

>  <Rbt.Current_Directory>
/home/itssahil/PROJECTS/Mol_Feturizer/New_Systems/rnas/4E8Q

>  <Rbt.Executable>
rbdock ($Id: //depot/dev/client3/rdock/2013.1/src/exe/rbdock.cxx#4 $)

>  <Rbt.Library>
libRbt.so (2013.1, Build901 2013/11/27)

>  <Rbt.Parameter_File>
/export/apps/rDock/src/rDock_2013.1_src/data/scripts/dock_solv.prm

>  <Rbt.Receptor>
prm/pocket_docking_5.prm

>  <SCORE>
-11.0797

>  <SCORE.INTER>
1.04563

>  <SCORE.INTER.CONST>
1

>  <SCORE.INTER.POLAR>
0

>  <SCORE.INTER.ROT>
11

>  <SCORE.INTER.SOLV>
9.69838

>  <SCORE.INTER.VDW>
-13.469

>  <SCORE.INTER.norm>
0.0746876

>  <SCORE.INTRA>
-12.1253

>  <SCORE.INTRA.DIHEDRAL>
-24.8289

>  <SCORE.INTRA.DIHEDRAL.0>
25.9209

>  <SCORE.INTRA.POLAR>
0

>  <SCORE.INTRA.POLAR.0>
0

>  <SCORE.INTRA.REPUL>
0

>  <SCORE.INTRA.REPUL.0>
0

>  <SCORE.INTRA.SOLV>
-0.696324

>  <SCORE.INTRA.SOLV.lig_0>
-47.4815

>  <SCORE.INTRA.VDW>
0.637333

>  <SCORE.INTRA.VDW.0>
-1.57492

>  <SCORE.INTRA.norm>
-0.866092

>  <SCORE.RESTR>
0

>  <SCORE.RESTR.CAVITY>
0

>  <SCORE.RESTR.norm>
0

>  <SCORE.SYSTEM>
0

>  <SCORE.SYSTEM.CONST>
0

>  <SCORE.SYSTEM.DIHEDRAL>
0

>  <SCORE.SYSTEM.SOLV>
0

>  <SCORE.SYSTEM.norm>
0

>  <SCORE.heavy>
14

>  <SCORE.norm>
-0.791404

>  <RMSD>
5.393

$$$$
ligand
 OpenBabel11021811493D
libRbt.so/2013.1/901 2013/11/27
 14 13  0  0  0  0  0  0  0  0999 V2000
   51.4179    3.4318   -8.0422 N   0  0  0  0  0  0  0  0  0  0  0  0
   52.5613    2.8140   -7.3817 C   0  0  0  0  0  0  0  0  0  0  0  0
   52.1087    1.6598   -6.4622 C   0  0  0  0  0  0  0  0  0  0  0  0
   51.5016    0.4505   -7.2009 C   0  0  0  0  0  0  0  0  0  0  0  0
   51.0442   -0.6936   -6.3979 N   0  0  0  0  0  0  0  0  0  0  0  0
   49.6259   -0.8637   -6.0631 C   0  0  0  0  0  0  0  0  0  0  0  0
   49.3514   -1.4589   -4.6789 C   0  0  0  0  0  0  0  0  0  0  0  0
   49.8160   -0.5437   -3.5333 C   0  0  0  0  0  0  0  0  0  0  0  0
   51.3436   -0.4319   -3.4051 C   0  0  0  0  0  0  0  0  0  0  0  0
   51.8109    0.7253   -2.6383 N   0  0  0  0  0  0  0  0  0  0  0  0
   51.4453    0.8448   -1.2161 C   0  0  0  0  0  0  0  0  0  0  0  0
   51.5346    2.2550   -0.5862 C   0  0  0  0  0  0  0  0  0  0  0  0
   51.1195    2.3563    0.8955 C   0  0  0  0  0  0  0  0  0  0  0  0
   51.2363    3.7097    1.4304 N   0  0  0  0  0  0  0  0  0  0  0  0
  1  2  1  0  0  0  0
  2  3  1  0  0  0  0
  3  4  1  0  0  0  0
  4  5  1  0  0  0  0
  5  6  1  0  0  0  0
  6  7  1  0  0  0  0
  7  8  1  0  0  0  0
  8  9  1  0  0  0  0
  9 10  1  0  0  0  0
 10 11  1  0  0  0  0
 11 12  1  0  0  0  0
 12 13  1  0  0  0  0
 13 14  1  0  0  0  0
M  END
>  <CHROM.1>
66.23843346,-179.98781262,99.09238912,-144.63687896,64.77669950,-69.98887165
161.35972400,62.52275091,-159.89328314,178.82876356,179.57789179,51.13684154
1.01792428,-3.94859180,-1.58093060,1.14336390,1.40286429

>  <Name>
ligand

>  <RI>
0

>  <Rbt.Current_Directory>
/home/itssahil/PROJECTS/Mol_Feturizer/New_Systems/rnas/4E8Q

>  <Rbt.Executable>
rbdock ($Id: //depot/dev/client3/rdock/2013.1/src/exe/rbdock.cxx#4 $)

>  <Rbt.Library>
libRbt.so (2013.1, Build901 2013/11/27)

>  <Rbt.Parameter_File>
/export/apps/rDock/src/rDock_2013.1_src/data/scripts/dock_solv.prm

>  <Rbt.Receptor>
prm/pocket_docking_3.prm

>  <SCORE>
-10.4131

>  <SCORE.INTER>
-0.0247241

>  <SCORE.INTER.CONST>
1

>  <SCORE.INTER.POLAR>
0

>  <SCORE.INTER.ROT>
11

>  <SCORE.INTER.SOLV>
8.7199

>  <SCORE.INTER.VDW>
-13.8564

>  <SCORE.INTER.norm>
-0.001766

>  <SCORE.INTRA>
-10.3884

>  <SCORE.INTRA.DIHEDRAL>
-22.1113

>  <SCORE.INTRA.DIHEDRAL.0>
25.9209

>  <SCORE.INTRA.POLAR>
0

>  <SCORE.INTRA.POLAR.0>
0

>  <SCORE.INTRA.REPUL>
0

>  <SCORE.INTRA.REPUL.0>
0

>  <SCORE.INTRA.SOLV>
0.06048

>  <SCORE.INTRA.SOLV.lig_0>
-47.4815

>  <SCORE.INTRA.VDW>
0.63703

>  <SCORE.INTRA.VDW.0>
-1.57492

>  <SCORE.INTRA.norm>
-0.742027

>  <SCORE.RESTR>
0

>  <SCORE.RESTR.CAVITY>
0

>  <SCORE.RESTR.norm>
0

>  <SCORE.SYSTEM>
0

>  <SCORE.SYSTEM.CONST>
0

>  <SCORE.SYSTEM.DIHEDRAL>
0

>  <SCORE.SYSTEM.SOLV>
0

>  <SCORE.SYSTEM.norm>
0

>  <SCORE.heavy>
14

>  <SCORE.norm>
-0.743793

>  <RMSD>
5.406

$$$$
ligand
 OpenBabel11021811493D
libRbt.so/2013.1/901 2013/11/27
 14 13  0  0  0  0  0  0  0  0999 V2000
   51.8867    4.1456    1.1805 N   0  0  0  0  0  0  0  0  0  0  0  0
   52.8149    3.4084    0.3318 C   0  0  0  0  0  0  0  0  0  0  0  0
   52.5147    1.8949    0.3720 C   0  0  0  0  0  0  0  0  0  0  0  0
   51.2054    1.4809   -0.3288 C   0  0  0  0  0  0  0  0  0  0  0  0
   51.0494    1.8074   -1.7542 N   0  0  0  0  0  0  0  0  0  0  0  0
   51.8258    1.1032   -2.7807 C   0  0  0  0  0  0  0  0  0  0  0  0
   51.3063   -0.2901   -3.1473 C   0  0  0  0  0  0  0  0  0  0  0  0
   49.9163   -0.2544   -3.8049 C   0  0  0  0  0  0  0  0  0  0  0  0
   49.3632   -1.6414   -4.1695 C   0  0  0  0  0  0  0  0  0  0  0  0
   47.9886   -1.6392   -4.6754 N   0  0  0  0  0  0  0  0  0  0  0  0
   47.7414   -1.3256   -6.0935 C   0  0  0  0  0  0  0  0  0  0  0  0
   47.1280   -2.4490   -6.9625 C   0  0  0  0  0  0  0  0  0  0  0  0
   46.8790   -2.0933   -8.4422 C   0  0  0  0  0  0  0  0  0  0  0  0
   48.1066   -1.7873   -9.1707 N   0  0  0  0  0  0  0  0  0  0  0  0
  1  2  1  0  0  0  0
  2  3  1  0  0  0  0
  3  4  1  0  0  0  0
  4  5  1  0  0  0  0
  5  6  1  0  0  0  0
  6  7  1  0  0  0  0
  7  8  1  0  0  0  0
  8  9  1  0  0  0  0
  9 10  1  0  0  0  0
 10 11  1  0  0  0  0
 11 12  1  0  0  0  0
 12 13  1  0  0  0  0
 13 14  1  0  0  0  0
M  END
>  <CHROM.1>
70.10706557,58.53304530,71.06336371,78.63535720,64.83694052,-179.36287500
174.28637235,82.12819592,116.19304770,179.96138972,63.02522692,49.98053930
0.16838649,-3.53179385,-0.84959076,-0.80525591,-1.56378903

>  <Name>
ligand

>  <RI>
0

>  <Rbt.Current_Directory>
/home/itssahil/PROJECTS/Mol_Feturizer/New_Systems/rnas/4E8Q

>  <Rbt.Executable>
rbdock ($Id: //depot/dev/client3/rdock/2013.1/src/exe/rbdock.cxx#4 $)

>  <Rbt.Library>
libRbt.so (2013.1, Build901 2013/11/27)

>  <Rbt.Parameter_File>
/export/apps/rDock/src/rDock_2013.1_src/data/scripts/dock_solv.prm

>  <Rbt.Receptor>
prm/pocket_docking_6.prm

>  <SCORE>
-12.18

>  <SCORE.INTER>
-1.26594

>  <SCORE.INTER.CONST>
1

>  <SCORE.INTER.POLAR>
0

>  <SCORE.INTER.ROT>
11

>  <SCORE.INTER.SOLV>
9.09749

>  <SCORE.INTER.VDW>
-14.8098

>  <SCORE.INTER.norm>
-0.0904239

>  <SCORE.INTRA>
-10.9351

>  <SCORE.INTRA.DIHEDRAL>
-23.379

>  <SCORE.INTRA.DIHEDRAL.0>
25.9209

>  <SCORE.INTRA.POLAR>
0

>  <SCORE.INTRA.POLAR.0>
0

>  <SCORE.INTRA.REPUL>
0

>  <SCORE.INTRA.REPUL.0>
0

>  <SCORE.INTRA.SOLV>
0.372849

>  <SCORE.INTRA.SOLV.lig_0>
-47.4815

>  <SCORE.INTRA.VDW>
0.568017

>  <SCORE.INTRA.VDW.0>
-1.57492

>  <SCORE.INTRA.norm>
-0.781076

>  <SCORE.RESTR>
0.0210361

>  <SCORE.RESTR.CAVITY>
0.0210361

>  <SCORE.RESTR.norm>
0.00150258

>  <SCORE.SYSTEM>
0

>  <SCORE.SYSTEM.CONST>
0

>  <SCORE.SYSTEM.DIHEDRAL>
0

>  <SCORE.SYSTEM.SOLV>
0

>  <SCORE.SYSTEM.norm>
0

>  <SCORE.heavy>
14

>  <SCORE.norm>
-0.869998

>  <RMSD>
5.406

$$$$
ligand
 OpenBabel11021811493D
libRbt.so/2013.1/901 2013/11/27
 14 13  0  0  0  0  0  0  0  0999 V2000
   48.9403   -1.3797   -9.0480 N   0  0  0  0  0  0  0  0  0  0  0  0
   48.5909   -1.4585   -7.6349 C   0  0  0  0  0  0  0  0  0  0  0  0
   48.6788   -2.9131   -7.1261 C   0  0  0  0  0  0  0  0  0  0  0  0
   48.2980   -3.0992   -5.6438 C   0  0  0  0  0  0  0  0  0  0  0  0
   49.2002   -2.5469   -4.6222 N   0  0  0  0  0  0  0  0  0  0  0  0
   49.4465   -1.1034   -4.5313 C   0  0  0  0  0  0  0  0  0  0  0  0
   50.3915   -0.6746   -3.4051 C   0  0  0  0  0  0  0  0  0  0  0  0
   50.8289    0.7955   -3.5208 C   0  0  0  0  0  0  0  0  0  0  0  0
   51.7502    1.2633   -2.3829 C   0  0  0  0  0  0  0  0  0  0  0  0
   51.1018    1.3684   -1.0737 N   0  0  0  0  0  0  0  0  0  0  0  0
   51.8279    1.9971    0.0435 C   0  0  0  0  0  0  0  0  0  0  0  0
   50.9746    2.6980    1.1271 C   0  0  0  0  0  0  0  0  0  0  0  0
   51.7606    3.3590    2.2774 C   0  0  0  0  0  0  0  0  0  0  0  0
   50.8987    4.0246    3.2499 N   0  0  0  0  0  0  0  0  0  0  0  0
  1  2  1  0  0  0  0
  2  3  1  0  0  0  0
  3  4  1  0  0  0  0
  4  5  1  0  0  0  0
  5  6  1  0  0  0  0
  6  7  1  0  0  0  0
  7  8  1  0  0  0  0
  8  9  1  0  0  0  0
  9 10  1  0  0  0  0
 10 11  1  0  0  0  0
 11 12  1  0  0  0  0
 12 13  1  0  0  0  0
 13 14  1  0  0  0  0
M  END
>  <CHROM.1>
-178.83022536,-69.08574630,62.97328042,179.10347421,168.83978903,178.53767423
-69.24983555,-170.85534179,151.16050506,-179.43625725,178.83835959,50.19212982
0.16637661,-3.02083389,-2.11883744,1.06904197,1.51960469

>  <Name>
ligand

>  <RI>
0

>  <Rbt.Current_Directory>
/home/itssahil/PROJECTS/Mol_Feturizer/New_Systems/rnas/4E8Q

>  <Rbt.Executable>
rbdock ($Id: //depot/dev/client3/rdock/2013.1/src/exe/rbdock.cxx#4 $)

>  <Rbt.Library>
libRbt.so (2013.1, Build901 2013/11/27)

>  <Rbt.Parameter_File>
/export/apps/rDock/src/rDock_2013.1_src/data/scripts/dock_solv.prm

>  <Rbt.Receptor>
prm/pocket_docking_5.prm

>  <SCORE>
-12.6401

>  <SCORE.INTER>
-0.449921

>  <SCORE.INTER.CONST>
1

>  <SCORE.INTER.POLAR>
0

>  <SCORE.INTER.ROT>
11

>  <SCORE.INTER.SOLV>
8.92751

>  <SCORE.INTER.VDW>
-14.2091

>  <SCORE.INTER.norm>
-0.0321372

>  <SCORE.INTRA>
-12.1943

>  <SCORE.INTRA.DIHEDRAL>
-24.1796

>  <SCORE.INTRA.DIHEDRAL.0>
25.9209

>  <SCORE.INTRA.POLAR>
0

>  <SCORE.INTRA.POLAR.0>
0

>  <SCORE.INTRA.REPUL>
0

>  <SCORE.INTRA.REPUL.0>
0

>  <SCORE.INTRA.SOLV>
-1.39143

>  <SCORE.INTRA.SOLV.lig_0>
-47.4815

>  <SCORE.INTRA.VDW>
0.591226

>  <SCORE.INTRA.VDW.0>
-1.57492

>  <SCORE.INTRA.norm>
-0.871022

>  <SCORE.RESTR>
0.004163

>  <SCORE.RESTR.CAVITY>
0.004163

>  <SCORE.RESTR.norm>
0.000297357

>  <SCORE.SYSTEM>
0

>  <SCORE.SYSTEM.CONST>
0

>  <SCORE.SYSTEM.DIHEDRAL>
0

>  <SCORE.SYSTEM.SOLV>
0

>  <SCORE.SYSTEM.norm>
0

>  <SCORE.heavy>
14

>  <SCORE.norm>
-0.902862

>  <RMSD>
5.420

$$$$
ligand
 OpenBabel11021811493D
libRbt.so/2013.1/901 2013/11/27
 14 13  0  0  0  0  0  0  0  0999 V2000
   54.5113    4.8394   -2.5487 N   0  0  0  0  0  0  0  0  0  0  0  0
   53.1385    4.4487   -2.8455 C   0  0  0  0  0  0  0  0  0  0  0  0
   52.7988    3.0917   -2.1929 C   0  0  0  0  0  0  0  0  0  0  0  0
   51.3490    2.6170   -2.4155 C   0  0  0  0  0  0  0  0  0  0  0  0
   50.9480    1.3233   -1.8427 N   0  0  0  0  0  0  0  0  0  0  0  0
   51.5203    0.0667   -2.3387 C   0  0  0  0  0  0  0  0  0  0  0  0
   50.9451   -0.4296   -3.6685 C   0  0  0  0  0  0  0  0  0  0  0  0
   49.4896   -0.9117   -3.5459 C   0  0  0  0  0  0  0  0  0  0  0  0
   48.9184   -1.5062   -4.8431 C   0  0  0  0  0  0  0  0  0  0  0  0
   48.8469   -0.5693   -5.9668 N   0  0  0  0  0  0  0  0  0  0  0  0
   49.0732   -1.0646   -7.3357 C   0  0  0  0  0  0  0  0  0  0  0  0
   48.9887   -0.0260   -8.4792 C   0  0  0  0  0  0  0  0  0  0  0  0
   50.0261    1.1139   -8.4293 C   0  0  0  0  0  0  0  0  0  0  0  0
   51.3963    0.6483   -8.6221 N   0  0  0  0  0  0  0  0  0  0  0  0
  1  2  1  0  0  0  0
  2  3  1  0  0  0  0
  3  4  1  0  0  0  0
  4  5  1  0  0  0  0
  5  6  1  0  0  0  0
  6  7  1  0  0  0  0
  7  8  1  0  0  0  0
  8  9  1  0  0  0  0
  9 10  1  0  0  0  0
 10 11  1  0  0  0  0
 11 12  1  0  0  0  0
 12 13  1  0  0  0  0
 13 14  1  0  0  0  0
M  END
>  <CHROM.1>
178.14159860,179.14163304,-66.85401357,-77.37837935,-69.49944536,-175.97245718
-62.36990292,145.45371214,-179.81661413,62.35792717,65.90181692,50.85335269
0.97416832,-4.64812877,-0.65193296,-0.91487473,-1.41076712

>  <Name>
ligand

>  <RI>
0

>  <Rbt.Current_Directory>
/home/itssahil/PROJECTS/Mol_Feturizer/New_Systems/rnas/4E8Q

>  <Rbt.Executable>
rbdock ($Id: //depot/dev/client3/rdock/2013.1/src/exe/rbdock.cxx#4 $)

>  <Rbt.Library>
libRbt.so (2013.1, Build901 2013/11/27)

>  <Rbt.Parameter_File>
/export/apps/rDock/src/rDock_2013.1_src/data/scripts/dock_solv.prm

>  <Rbt.Receptor>
prm/pocket_docking_4.prm

>  <SCORE>
-9.80378

>  <SCORE.INTER>
2.03255

>  <SCORE.INTER.CONST>
1

>  <SCORE.INTER.POLAR>
0

>  <SCORE.INTER.ROT>
11

>  <SCORE.INTER.SOLV>
5.91444

>  <SCORE.INTER.VDW>
-11.5498

>  <SCORE.INTER.norm>
0.145182

>  <SCORE.INTRA>
-11.8363

>  <SCORE.INTRA.DIHEDRAL>
-24.3184

>  <SCORE.INTRA.DIHEDRAL.0>
25.9209

>  <SCORE.INTRA.POLAR>
0

>  <SCORE.INTRA.POLAR.0>
0

>  <SCORE.INTRA.REPUL>
0

>  <SCORE.INTRA.REPUL.0>
0

>  <SCORE.INTRA.SOLV>
-0.0150669

>  <SCORE.INTRA.SOLV.lig_0>
-47.4815

>  <SCORE.INTRA.VDW>
0.33042

>  <SCORE.INTRA.VDW.0>
-1.57492

>  <SCORE.INTRA.norm>
-0.845452

>  <SCORE.RESTR>
0

>  <SCORE.RESTR.CAVITY>
0

>  <SCORE.RESTR.norm>
0

>  <SCORE.SYSTEM>
0

>  <SCORE.SYSTEM.CONST>
0

>  <SCORE.SYSTEM.DIHEDRAL>
0

>  <SCORE.SYSTEM.SOLV>
0

>  <SCORE.SYSTEM.norm>
0

>  <SCORE.heavy>
14

>  <SCORE.norm>
-0.70027

>  <RMSD>
5.422

$$$$
ligand
 OpenBabel11021811493D
libRbt.so/2013.1/901 2013/11/27
 14 13  0  0  0  0  0  0  0  0999 V2000
   51.4331    0.1272   -9.8317 N   0  0  0  0  0  0  0  0  0  0  0  0
   51.0778   -0.5660   -8.5995 C   0  0  0  0  0  0  0  0  0  0  0  0
   49.5872   -0.9667   -8.6031 C   0  0  0  0  0  0  0  0  0  0  0  0
   49.1128   -1.6875   -7.3256 C   0  0  0  0  0  0  0  0  0  0  0  0
   49.2442   -0.9813   -6.0423 N   0  0  0  0  0  0  0  0  0  0  0  0
   49.1259   -1.6994   -4.7683 C   0  0  0  0  0  0  0  0  0  0  0  0
   49.5633   -0.9077   -3.5325 C   0  0  0  0  0  0  0  0  0  0  0  0
   51.0446   -0.4964   -3.5812 C   0  0  0  0  0  0  0  0  0  0  0  0
   51.5128    0.2946   -2.3492 C   0  0  0  0  0  0  0  0  0  0  0  0
   50.9132    1.6238   -2.2105 N   0  0  0  0  0  0  0  0  0  0  0  0
   51.4526    2.5583   -1.2074 C   0  0  0  0  0  0  0  0  0  0  0  0
   51.0842    2.2884    0.2707 C   0  0  0  0  0  0  0  0  0  0  0  0
   51.5605    3.3471    1.2858 C   0  0  0  0  0  0  0  0  0  0  0  0
   51.1276    3.0649    2.6512 N   0  0  0  0  0  0  0  0  0  0  0  0
  1  2  1  0  0  0  0
  2  3  1  0  0  0  0
  3  4  1  0  0  0  0
  4  5  1  0  0  0  0
  5  6  1  0  0  0  0
  6  7  1  0  0  0  0
  7  8  1  0  0  0  0
  8  9  1  0  0  0  0
  9 10  1  0  0  0  0
 10 11  1  0  0  0  0
 11 12  1  0  0  0  0
 12 13  1  0  0  0  0
 13 14  1  0  0  0  0
M  END
>  <CHROM.1>
-179.05333787,59.31414139,-165.07123346,168.05711875,-61.31148249,-179.72870169
-67.01725751,-169.57709375,-75.67572696,-174.98561377,177.32301091,50.55993994
0.42831075,-3.84595286,-1.76477542,0.89563841,1.34352442

>  <Name>
ligand

>  <RI>
0

>  <Rbt.Current_Directory>
/home/itssahil/PROJECTS/Mol_Feturizer/New_Systems/rnas/4E8Q

>  <Rbt.Executable>
rbdock ($Id: //depot/dev/client3/rdock/2013.1/src/exe/rbdock.cxx#4 $)

>  <Rbt.Library>
libRbt.so (2013.1, Build901 2013/11/27)

>  <Rbt.Parameter_File>
/export/apps/rDock/src/rDock_2013.1_src/data/scripts/dock_solv.prm

>  <Rbt.Receptor>
prm/pocket_docking_5.prm

>  <SCORE>
-12.6868

>  <SCORE.INTER>
0.0588066

>  <SCORE.INTER.CONST>
1

>  <SCORE.INTER.POLAR>
0

>  <SCORE.INTER.ROT>
11

>  <SCORE.INTER.SOLV>
7.42283

>  <SCORE.INTER.VDW>
-13.3684

>  <SCORE.INTER.norm>
0.00420047

>  <SCORE.INTRA>
-12.7456

>  <SCORE.INTRA.DIHEDRAL>
-25.0372

>  <SCORE.INTRA.DIHEDRAL.0>
25.9209

>  <SCORE.INTRA.POLAR>
0

>  <SCORE.INTRA.POLAR.0>
0

>  <SCORE.INTRA.REPUL>
0

>  <SCORE.INTRA.REPUL.0>
0

>  <SCORE.INTRA.SOLV>
-1.12968

>  <SCORE.INTRA.SOLV.lig_0>
-47.4815

>  <SCORE.INTRA.VDW>
0.33787

>  <SCORE.INTRA.VDW.0>
-1.57492

>  <SCORE.INTRA.norm>
-0.910398

>  <SCORE.RESTR>
0

>  <SCORE.RESTR.CAVITY>
0

>  <SCORE.RESTR.norm>
0

>  <SCORE.SYSTEM>
0

>  <SCORE.SYSTEM.CONST>
0

>  <SCORE.SYSTEM.DIHEDRAL>
0

>  <SCORE.SYSTEM.SOLV>
0

>  <SCORE.SYSTEM.norm>
0

>  <SCORE.heavy>
14

>  <SCORE.norm>
-0.906198

>  <RMSD>
5.427

$$$$
ligand
 OpenBabel11021811493D
libRbt.so/2013.1/901 2013/11/27
 14 13  0  0  0  0  0  0  0  0999 V2000
   48.9432    5.8605   -4.0087 N   0  0  0  0  0  0  0  0  0  0  0  0
   48.4230    4.5470   -4.3681 C   0  0  0  0  0  0  0  0  0  0  0  0
   49.4945    3.7117   -5.1007 C   0  0  0  0  0  0  0  0  0  0  0  0
   49.0277    2.3088   -5.5374 C   0  0  0  0  0  0  0  0  0  0  0  0
   48.4695    1.4142   -4.5123 N   0  0  0  0  0  0  0  0  0  0  0  0
   48.3608   -0.0300   -4.7470 C   0  0  0  0  0  0  0  0  0  0  0  0
   49.6657   -0.7234   -5.1496 C   0  0  0  0  0  0  0  0  0  0  0  0
   50.8638   -0.2852   -4.2904 C   0  0  0  0  0  0  0  0  0  0  0  0
   50.6826   -0.5493   -2.7871 C   0  0  0  0  0  0  0  0  0  0  0  0
   51.7785   -0.0662   -1.9438 N   0  0  0  0  0  0  0  0  0  0  0  0
   51.4760    0.4835   -0.6109 C   0  0  0  0  0  0  0  0  0  0  0  0
   51.4701    2.0245   -0.4737 C   0  0  0  0  0  0  0  0  0  0  0  0
   51.2126    2.5716    0.9449 C   0  0  0  0  0  0  0  0  0  0  0  0
   51.2401    4.0299    1.0085 N   0  0  0  0  0  0  0  0  0  0  0  0
  1  2  1  0  0  0  0
  2  3  1  0  0  0  0
  3  4  1  0  0  0  0
  4  5  1  0  0  0  0
  5  6  1  0  0  0  0
  6  7  1  0  0  0  0
  7  8  1  0  0  0  0
  8  9  1  0  0  0  0
  9 10  1  0  0  0  0
 10 11  1  0  0  0  0
 11 12  1  0  0  0  0
 12 13  1  0  0  0  0
 13 14  1  0  0  0  0
M  END
>  <CHROM.1>
-179.25402746,-54.87544874,-162.44017714,54.54434940,44.79962324,58.75435949
-176.52112609,143.93014526,-101.48989909,-177.38081629,179.13337826,50.07914188
1.80655321,-2.96997818,2.70285642,1.07541427,-2.68011222

>  <Name>
ligand

>  <RI>
0

>  <Rbt.Current_Directory>
/home/itssahil/PROJECTS/Mol_Feturizer/New_Systems/rnas/4E8Q

>  <Rbt.Executable>
rbdock ($Id: //depot/dev/client3/rdock/2013.1/src/exe/rbdock.cxx#4 $)

>  <Rbt.Library>
libRbt.so (2013.1, Build901 2013/11/27)

>  <Rbt.Parameter_File>
/export/apps/rDock/src/rDock_2013.1_src/data/scripts/dock_solv.prm

>  <Rbt.Receptor>
prm/pocket_docking_4.prm

>  <SCORE>
-12.5676

>  <SCORE.INTER>
-1.87522

>  <SCORE.INTER.CONST>
1

>  <SCORE.INTER.POLAR>
0

>  <SCORE.INTER.ROT>
11

>  <SCORE.INTER.SOLV>
11.958

>  <SCORE.INTER.VDW>
-16.1695

>  <SCORE.INTER.norm>
-0.133945

>  <SCORE.INTRA>
-10.6924

>  <SCORE.INTRA.DIHEDRAL>
-22.9225

>  <SCORE.INTRA.DIHEDRAL.0>
25.9209

>  <SCORE.INTRA.POLAR>
0

>  <SCORE.INTRA.POLAR.0>
0

>  <SCORE.INTRA.REPUL>
0

>  <SCORE.INTRA.REPUL.0>
0

>  <SCORE.INTRA.SOLV>
-0.912531

>  <SCORE.INTRA.SOLV.lig_0>
-47.4815

>  <SCORE.INTRA.VDW>
1.22516

>  <SCORE.INTRA.VDW.0>
-1.57492

>  <SCORE.INTRA.norm>
-0.76374

>  <SCORE.RESTR>
0

>  <SCORE.RESTR.CAVITY>
0

>  <SCORE.RESTR.norm>
0

>  <SCORE.SYSTEM>
0

>  <SCORE.SYSTEM.CONST>
0

>  <SCORE.SYSTEM.DIHEDRAL>
0

>  <SCORE.SYSTEM.SOLV>
0

>  <SCORE.SYSTEM.norm>
0

>  <SCORE.heavy>
14

>  <SCORE.norm>
-0.897685

>  <RMSD>
5.429

$$$$
ligand
 OpenBabel11021811493D
libRbt.so/2013.1/901 2013/11/27
 14 13  0  0  0  0  0  0  0  0999 V2000
   52.4405    6.1742    1.0009 N   0  0  0  0  0  0  0  0  0  0  0  0
   51.5300    5.0987    0.6272 C   0  0  0  0  0  0  0  0  0  0  0  0
   52.3086    3.8066    0.3003 C   0  0  0  0  0  0  0  0  0  0  0  0
   51.4231    2.5955   -0.0543 C   0  0  0  0  0  0  0  0  0  0  0  0
   52.0866    1.3247   -0.3825 N   0  0  0  0  0  0  0  0  0  0  0  0
   51.3358    0.2092   -0.9695 C   0  0  0  0  0  0  0  0  0  0  0  0
   51.1550    0.2751   -2.4888 C   0  0  0  0  0  0  0  0  0  0  0  0
   50.2157   -0.8182   -3.0257 C   0  0  0  0  0  0  0  0  0  0  0  0
   49.9081   -0.6941   -4.5266 C   0  0  0  0  0  0  0  0  0  0  0  0
   48.8127   -1.5435   -4.9997 N   0  0  0  0  0  0  0  0  0  0  0  0
   48.4230   -1.4956   -6.4197 C   0  0  0  0  0  0  0  0  0  0  0  0
   47.0291   -2.0601   -6.7828 C   0  0  0  0  0  0  0  0  0  0  0  0
   46.6386   -1.9785   -8.2724 C   0  0  0  0  0  0  0  0  0  0  0  0
   47.5372   -2.7334   -9.1408 N   0  0  0  0  0  0  0  0  0  0  0  0
  1  2  1  0  0  0  0
  2  3  1  0  0  0  0
  3  4  1  0  0  0  0
  4  5  1  0  0  0  0
  5  6  1  0  0  0  0
  6  7  1  0  0  0  0
  7  8  1  0  0  0  0
  8  9  1  0  0  0  0
  9 10  1  0  0  0  0
 10 11  1  0  0  0  0
 11 12  1  0  0  0  0
 12 13  1  0  0  0  0
 13 14  1  0  0  0  0
M  END
>  <CHROM.1>
177.75964114,179.84594022,-168.39531842,83.49214382,-172.78081320,174.41113411
-167.97462564,179.40260165,-162.04684889,179.13268511,61.38187446,50.06023259
0.58281882,-3.22381365,0.79130046,-0.95445616,0.23184268

>  <Name>
ligand

>  <RI>
0

>  <Rbt.Current_Directory>
/home/itssahil/PROJECTS/Mol_Feturizer/New_Systems/rnas/4E8Q

>  <Rbt.Executable>
rbdock ($Id: //depot/dev/client3/rdock/2013.1/src/exe/rbdock.cxx#4 $)

>  <Rbt.Library>
libRbt.so (2013.1, Build901 2013/11/27)

>  <Rbt.Parameter_File>
/export/apps/rDock/src/rDock_2013.1_src/data/scripts/dock_solv.prm

>  <Rbt.Receptor>
prm/pocket_docking_7.prm

>  <SCORE>
-14.5082

>  <SCORE.INTER>
-2.12179

>  <SCORE.INTER.CONST>
1

>  <SCORE.INTER.POLAR>
0

>  <SCORE.INTER.ROT>
11

>  <SCORE.INTER.SOLV>
7.78258

>  <SCORE.INTER.VDW>
-14.9421

>  <SCORE.INTER.norm>
-0.151556

>  <SCORE.INTRA>
-12.3864

>  <SCORE.INTRA.DIHEDRAL>
-24.2843

>  <SCORE.INTRA.DIHEDRAL.0>
25.9209

>  <SCORE.INTRA.POLAR>
0

>  <SCORE.INTRA.POLAR.0>
0

>  <SCORE.INTRA.REPUL>
0

>  <SCORE.INTRA.REPUL.0>
0

>  <SCORE.INTRA.SOLV>
-1.44435

>  <SCORE.INTRA.SOLV.lig_0>
-47.4815

>  <SCORE.INTRA.VDW>
0.477888

>  <SCORE.INTRA.VDW.0>
-1.57492

>  <SCORE.INTRA.norm>
-0.884745

>  <SCORE.RESTR>
0

>  <SCORE.RESTR.CAVITY>
0

>  <SCORE.RESTR.norm>
0

>  <SCORE.SYSTEM>
0

>  <SCORE.SYSTEM.CONST>
0

>  <SCORE.SYSTEM.DIHEDRAL>
0

>  <SCORE.SYSTEM.SOLV>
0

>  <SCORE.SYSTEM.norm>
0

>  <SCORE.heavy>
14

>  <SCORE.norm>
-1.0363

>  <RMSD>
5.441

$$$$
ligand
 OpenBabel11021811493D
libRbt.so/2013.1/901 2013/11/27
 14 13  0  0  0  0  0  0  0  0999 V2000
   55.6172    7.4003   -2.4300 N   0  0  0  0  0  0  0  0  0  0  0  0
   55.1201    6.3097   -3.2598 C   0  0  0  0  0  0  0  0  0  0  0  0
   54.2434    5.3445   -2.4338 C   0  0  0  0  0  0  0  0  0  0  0  0
   53.6361    4.1791   -3.2399 C   0  0  0  0  0  0  0  0  0  0  0  0
   52.7604    3.2312   -2.5346 N   0  0  0  0  0  0  0  0  0  0  0  0
   52.1910    2.0693   -3.2263 C   0  0  0  0  0  0  0  0  0  0  0  0
   51.7063    0.9410   -2.3113 C   0  0  0  0  0  0  0  0  0  0  0  0
   51.2530   -0.3055   -3.0903 C   0  0  0  0  0  0  0  0  0  0  0  0
   49.9864   -0.0873   -3.9334 C   0  0  0  0  0  0  0  0  0  0  0  0
   49.5262   -1.2700   -4.6648 N   0  0  0  0  0  0  0  0  0  0  0  0
   48.1438   -1.3127   -5.1724 C   0  0  0  0  0  0  0  0  0  0  0  0
   47.8363   -2.3474   -6.2807 C   0  0  0  0  0  0  0  0  0  0  0  0
   48.0744   -3.8241   -5.9057 C   0  0  0  0  0  0  0  0  0  0  0  0
   47.8145   -4.7431   -7.0099 N   0  0  0  0  0  0  0  0  0  0  0  0
  1  2  1  0  0  0  0
  2  3  1  0  0  0  0
  3  4  1  0  0  0  0
  4  5  1  0  0  0  0
  5  6  1  0  0  0  0
  6  7  1  0  0  0  0
  7  8  1  0  0  0  0
  8  9  1  0  0  0  0
  9 10  1  0  0  0  0
 10 11  1  0  0  0  0
 11 12  1  0  0  0  0
 12 13  1  0  0  0  0
 13 14  1  0  0  0  0
M  END
>  <CHROM.1>
178.22461329,-178.53694532,-177.56025827,160.43374558,-174.16032255,-67.02885886
-179.00806148,162.01514333,161.78857854,60.26698283,-177.80537976,51.27915989
1.11317939,-3.96370285,0.10837151,-0.96491242,-1.08845303

>  <Name>
ligand

>  <RI>
0

>  <Rbt.Current_Directory>
/home/itssahil/PROJECTS/Mol_Feturizer/New_Systems/rnas/4E8Q

>  <Rbt.Executable>
rbdock ($Id: //depot/dev/client3/rdock/2013.1/src/exe/rbdock.cxx#4 $)

>  <Rbt.Library>
libRbt.so (2013.1, Build901 2013/11/27)

>  <Rbt.Parameter_File>
/export/apps/rDock/src/rDock_2013.1_src/data/scripts/dock_solv.prm

>  <Rbt.Receptor>
prm/pocket_docking_7.prm

>  <SCORE>
-13.3191

>  <SCORE.INTER>
-0.773719

>  <SCORE.INTER.CONST>
1

>  <SCORE.INTER.POLAR>
0

>  <SCORE.INTER.ROT>
11

>  <SCORE.INTER.SOLV>
6.95438

>  <SCORE.INTER.VDW>
-13.7673

>  <SCORE.INTER.norm>
-0.0552657

>  <SCORE.INTRA>
-12.5453

>  <SCORE.INTRA.DIHEDRAL>
-24.7529

>  <SCORE.INTRA.DIHEDRAL.0>
25.9209

>  <SCORE.INTRA.POLAR>
0

>  <SCORE.INTRA.POLAR.0>
0

>  <SCORE.INTRA.REPUL>
0

>  <SCORE.INTRA.REPUL.0>
0

>  <SCORE.INTRA.SOLV>
-1.68684

>  <SCORE.INTRA.SOLV.lig_0>
-47.4815

>  <SCORE.INTRA.VDW>
0.674546

>  <SCORE.INTRA.VDW.0>
-1.57492

>  <SCORE.INTRA.norm>
-0.896096

>  <SCORE.RESTR>
0

>  <SCORE.RESTR.CAVITY>
0

>  <SCORE.RESTR.norm>
0

>  <SCORE.SYSTEM>
0

>  <SCORE.SYSTEM.CONST>
0

>  <SCORE.SYSTEM.DIHEDRAL>
0

>  <SCORE.SYSTEM.SOLV>
0

>  <SCORE.SYSTEM.norm>
0

>  <SCORE.heavy>
14

>  <SCORE.norm>
-0.951362

>  <RMSD>
5.450

$$$$
ligand
 OpenBabel11021811493D
libRbt.so/2013.1/901 2013/11/27
 14 13  0  0  0  0  0  0  0  0999 V2000
   55.2011    4.1840   -8.8770 N   0  0  0  0  0  0  0  0  0  0  0  0
   54.9453    3.6108   -7.5612 C   0  0  0  0  0  0  0  0  0  0  0  0
   53.5117    3.0450   -7.4761 C   0  0  0  0  0  0  0  0  0  0  0  0
   53.1212    2.4905   -6.0917 C   0  0  0  0  0  0  0  0  0  0  0  0
   51.7812    1.9057   -5.9324 N   0  0  0  0  0  0  0  0  0  0  0  0
   51.5385    0.4852   -6.2075 C   0  0  0  0  0  0  0  0  0  0  0  0
   50.1667   -0.0368   -5.7701 C   0  0  0  0  0  0  0  0  0  0  0  0
   49.8778    0.2202   -4.2814 C   0  0  0  0  0  0  0  0  0  0  0  0
   50.8679   -0.4659   -3.3267 C   0  0  0  0  0  0  0  0  0  0  0  0
   50.5292   -0.3506   -1.9063 N   0  0  0  0  0  0  0  0  0  0  0  0
   51.5019    0.2521   -0.9784 C   0  0  0  0  0  0  0  0  0  0  0  0
   51.3755    1.7725   -0.7216 C   0  0  0  0  0  0  0  0  0  0  0  0
   52.3859    2.3712    0.2777 C   0  0  0  0  0  0  0  0  0  0  0  0
   52.2012    3.8042    0.4875 N   0  0  0  0  0  0  0  0  0  0  0  0
  1  2  1  0  0  0  0
  2  3  1  0  0  0  0
  3  4  1  0  0  0  0
  4  5  1  0  0  0  0
  5  6  1  0  0  0  0
  6  7  1  0  0  0  0
  7  8  1  0  0  0  0
  8  9  1  0  0  0  0
  9 10  1  0  0  0  0
 10 11  1  0  0  0  0
 11 12  1  0  0  0  0
 12 13  1  0  0  0  0
 13 14  1  0  0  0  0
M  END
>  <CHROM.1>
-176.59259139,-178.70869991,88.40313867,169.84569499,-55.15704976,-61.28719675
-173.86803675,-122.80040098,92.59991050,178.67541815,-179.25294521,52.07164535
1.66314504,-4.16898827,-1.03491324,0.84178307,1.40786190

>  <Name>
ligand

>  <RI>
0

>  <Rbt.Current_Directory>
/home/itssahil/PROJECTS/Mol_Feturizer/New_Systems/rnas/4E8Q

>  <Rbt.Executable>
rbdock ($Id: //depot/dev/client3/rdock/2013.1/src/exe/rbdock.cxx#4 $)

>  <Rbt.Library>
libRbt.so (2013.1, Build901 2013/11/27)

>  <Rbt.Parameter_File>
/export/apps/rDock/src/rDock_2013.1_src/data/scripts/dock_solv.prm

>  <Rbt.Receptor>
prm/pocket_docking_8.prm

>  <SCORE>
-11.8201

>  <SCORE.INTER>
-0.370111

>  <SCORE.INTER.CONST>
1

>  <SCORE.INTER.POLAR>
0

>  <SCORE.INTER.ROT>
11

>  <SCORE.INTER.SOLV>
8.52595

>  <SCORE.INTER.VDW>
-14.0221

>  <SCORE.INTER.norm>
-0.0264365

>  <SCORE.INTRA>
-11.45

>  <SCORE.INTRA.DIHEDRAL>
-23.1181

>  <SCORE.INTRA.DIHEDRAL.0>
25.9209

>  <SCORE.INTRA.POLAR>
0

>  <SCORE.INTRA.POLAR.0>
0

>  <SCORE.INTRA.REPUL>
0

>  <SCORE.INTRA.REPUL.0>
0

>  <SCORE.INTRA.SOLV>
-1.33438

>  <SCORE.INTRA.SOLV.lig_0>
-47.4815

>  <SCORE.INTRA.VDW>
0.776253

>  <SCORE.INTRA.VDW.0>
-1.57492

>  <SCORE.INTRA.norm>
-0.817856

>  <SCORE.RESTR>
0

>  <SCORE.RESTR.CAVITY>
0

>  <SCORE.RESTR.norm>
0

>  <SCORE.SYSTEM>
0

>  <SCORE.SYSTEM.CONST>
0

>  <SCORE.SYSTEM.DIHEDRAL>
0

>  <SCORE.SYSTEM.SOLV>
0

>  <SCORE.SYSTEM.norm>
0

>  <SCORE.heavy>
14

>  <SCORE.norm>
-0.844292

>  <RMSD>
5.463

$$$$
ligand
 OpenBabel11021811493D
libRbt.so/2013.1/901 2013/11/27
 14 13  0  0  0  0  0  0  0  0999 V2000
   50.0639    5.7169   -1.7524 N   0  0  0  0  0  0  0  0  0  0  0  0
   50.3261    4.8438   -0.6147 C   0  0  0  0  0  0  0  0  0  0  0  0
   51.0529    3.5581   -1.0631 C   0  0  0  0  0  0  0  0  0  0  0  0
   51.3499    2.5588    0.0726 C   0  0  0  0  0  0  0  0  0  0  0  0
   52.0854    1.3297   -0.2607 N   0  0  0  0  0  0  0  0  0  0  0  0
   51.4367    0.2346   -0.9905 C   0  0  0  0  0  0  0  0  0  0  0  0
   51.2543    0.4724   -2.4924 C   0  0  0  0  0  0  0  0  0  0  0  0
   50.5187   -0.6820   -3.1940 C   0  0  0  0  0  0  0  0  0  0  0  0
   50.1708   -0.3977   -4.6639 C   0  0  0  0  0  0  0  0  0  0  0  0
   51.3219   -0.1002   -5.5194 N   0  0  0  0  0  0  0  0  0  0  0  0
   51.1317    0.0014   -6.9767 C   0  0  0  0  0  0  0  0  0  0  0  0
   52.3978    0.2393   -7.8334 C   0  0  0  0  0  0  0  0  0  0  0  0
   52.1775    0.2865   -9.3589 C   0  0  0  0  0  0  0  0  0  0  0  0
   51.3561    1.4166   -9.7829 N   0  0  0  0  0  0  0  0  0  0  0  0
  1  2  1  0  0  0  0
  2  3  1  0  0  0  0
  3  4  1  0  0  0  0
  4  5  1  0  0  0  0
  5  6  1  0  0  0  0
  6  7  1  0  0  0  0
  7  8  1  0  0  0  0
  8  9  1  0  0  0  0
  9 10  1  0  0  0  0
 10 11  1  0  0  0  0
 11 12  1  0  0  0  0
 12 13  1  0  0  0  0
 13 14  1  0  0  0  0
M  END
>  <CHROM.1>
-178.92508720,-177.74443444,-73.81626139,76.13869564,-177.65393519,172.98710471
58.68704370,171.48578404,-176.68986865,177.69844443,64.92067875,51.18883826
1.39101435,-3.88771427,2.26068750,-1.44090147,1.90338338

>  <Name>
ligand

>  <RI>
0

>  <Rbt.Current_Directory>
/home/itssahil/PROJECTS/Mol_Feturizer/New_Systems/rnas/4E8Q

>  <Rbt.Executable>
rbdock ($Id: //depot/dev/client3/rdock/2013.1/src/exe/rbdock.cxx#4 $)

>  <Rbt.Library>
libRbt.so (2013.1, Build901 2013/11/27)

>  <Rbt.Parameter_File>
/export/apps/rDock/src/rDock_2013.1_src/data/scripts/dock_solv.prm

>  <Rbt.Receptor>
prm/pocket_docking_5.prm

>  <SCORE>
-13.5967

>  <SCORE.INTER>
-1.04019

>  <SCORE.INTER.CONST>
1

>  <SCORE.INTER.POLAR>
0

>  <SCORE.INTER.ROT>
11

>  <SCORE.INTER.SOLV>
8.46001

>  <SCORE.INTER.VDW>
-14.4468

>  <SCORE.INTER.norm>
-0.0742991

>  <SCORE.INTRA>
-12.5565

>  <SCORE.INTRA.DIHEDRAL>
-25.1352

>  <SCORE.INTRA.DIHEDRAL.0>
25.9209

>  <SCORE.INTRA.POLAR>
0

>  <SCORE.INTRA.POLAR.0>
0

>  <SCORE.INTRA.REPUL>
0

>  <SCORE.INTRA.REPUL.0>
0

>  <SCORE.INTRA.SOLV>
-1.11985

>  <SCORE.INTRA.SOLV.lig_0>
-47.4815

>  <SCORE.INTRA.VDW>
0.571043

>  <SCORE.INTRA.VDW.0>
-1.57492

>  <SCORE.INTRA.norm>
-0.896892

>  <SCORE.RESTR>
0

>  <SCORE.RESTR.CAVITY>
0

>  <SCORE.RESTR.norm>
0

>  <SCORE.SYSTEM>
0

>  <SCORE.SYSTEM.CONST>
0

>  <SCORE.SYSTEM.DIHEDRAL>
0

>  <SCORE.SYSTEM.SOLV>
0

>  <SCORE.SYSTEM.norm>
0

>  <SCORE.heavy>
14

>  <SCORE.norm>
-0.971191

>  <RMSD>
5.474

$$$$
ligand
 OpenBabel11021811493D
libRbt.so/2013.1/901 2013/11/27
 14 13  0  0  0  0  0  0  0  0999 V2000
   53.4453    3.8828   -5.8026 N   0  0  0  0  0  0  0  0  0  0  0  0
   53.3219    3.0896   -4.5857 C   0  0  0  0  0  0  0  0  0  0  0  0
   53.3277    3.9946   -3.3354 C   0  0  0  0  0  0  0  0  0  0  0  0
   53.2149    3.2400   -1.9957 C   0  0  0  0  0  0  0  0  0  0  0  0
   51.9911    2.4666   -1.7371 N   0  0  0  0  0  0  0  0  0  0  0  0
   52.0320    1.2247   -0.9571 C   0  0  0  0  0  0  0  0  0  0  0  0
   50.9761    0.1827   -1.3375 C   0  0  0  0  0  0  0  0  0  0  0  0
   50.9437   -0.1099   -2.8472 C   0  0  0  0  0  0  0  0  0  0  0  0
   49.8088   -1.0541   -3.2751 C   0  0  0  0  0  0  0  0  0  0  0  0
   49.6763   -1.2360   -4.7224 N   0  0  0  0  0  0  0  0  0  0  0  0
   48.6695   -2.1773   -5.2429 C   0  0  0  0  0  0  0  0  0  0  0  0
   47.7657   -1.6713   -6.3920 C   0  0  0  0  0  0  0  0  0  0  0  0
   48.4795   -1.3716   -7.7257 C   0  0  0  0  0  0  0  0  0  0  0  0
   49.0622   -2.5601   -8.3416 N   0  0  0  0  0  0  0  0  0  0  0  0
  1  2  1  0  0  0  0
  2  3  1  0  0  0  0
  3  4  1  0  0  0  0
  4  5  1  0  0  0  0
  5  6  1  0  0  0  0
  6  7  1  0  0  0  0
  7  8  1  0  0  0  0
  8  9  1  0  0  0  0
  9 10  1  0  0  0  0
 10 11  1  0  0  0  0
 11 12  1  0  0  0  0
 12 13  1  0  0  0  0
 13 14  1  0  0  0  0
M  END
>  <CHROM.1>
-179.43260134,-62.90345912,146.65973644,-149.57708448,50.92534188,-174.67514152
174.01673308,176.66118706,132.42665019,65.55210304,64.50961907,50.90813589
0.56429889,-4.16375046,-0.45074211,-0.89460949,-1.45496517

>  <Name>
ligand

>  <RI>
0

>  <Rbt.Current_Directory>
/home/itssahil/PROJECTS/Mol_Feturizer/New_Systems/rnas/4E8Q

>  <Rbt.Executable>
rbdock ($Id: //depot/dev/client3/rdock/2013.1/src/exe/rbdock.cxx#4 $)

>  <Rbt.Library>
libRbt.so (2013.1, Build901 2013/11/27)

>  <Rbt.Parameter_File>
/export/apps/rDock/src/rDock_2013.1_src/data/scripts/dock_solv.prm

>  <Rbt.Receptor>
prm/pocket_docking_5.prm

>  <SCORE>
-11.6389

>  <SCORE.INTER>
-0.401119

>  <SCORE.INTER.CONST>
1

>  <SCORE.INTER.POLAR>
0

>  <SCORE.INTER.ROT>
11

>  <SCORE.INTER.SOLV>
6.55891

>  <SCORE.INTER.VDW>
-13.387

>  <SCORE.INTER.norm>
-0.0286513

>  <SCORE.INTRA>
-11.2378

>  <SCORE.INTRA.DIHEDRAL>
-22.733

>  <SCORE.INTRA.DIHEDRAL.0>
25.9209

>  <SCORE.INTRA.POLAR>
0

>  <SCORE.INTRA.POLAR.0>
0

>  <SCORE.INTRA.REPUL>
0

>  <SCORE.INTRA.REPUL.0>
0

>  <SCORE.INTRA.SOLV>
0.0387475

>  <SCORE.INTRA.SOLV.lig_0>
-47.4815

>  <SCORE.INTRA.VDW>
0.109345

>  <SCORE.INTRA.VDW.0>
-1.57492

>  <SCORE.INTRA.norm>
-0.802698

>  <SCORE.RESTR>
0

>  <SCORE.RESTR.CAVITY>
0

>  <SCORE.RESTR.norm>
0

>  <SCORE.SYSTEM>
0

>  <SCORE.SYSTEM.CONST>
0

>  <SCORE.SYSTEM.DIHEDRAL>
0

>  <SCORE.SYSTEM.SOLV>
0

>  <SCORE.SYSTEM.norm>
0

>  <SCORE.heavy>
14

>  <SCORE.norm>
-0.831349

>  <RMSD>
5.511

$$$$
ligand
 OpenBabel11021811493D
libRbt.so/2013.1/901 2013/11/27
 14 13  0  0  0  0  0  0  0  0999 V2000
   52.6005    4.0423   -0.4657 N   0  0  0  0  0  0  0  0  0  0  0  0
   53.5506    3.1788    0.2248 C   0  0  0  0  0  0  0  0  0  0  0  0
   53.9846    3.8014    1.5689 C   0  0  0  0  0  0  0  0  0  0  0  0
   54.8489    5.0714    1.4392 C   0  0  0  0  0  0  0  0  0  0  0  0
   56.2349    4.9214    0.9709 N   0  0  0  0  0  0  0  0  0  0  0  0
   56.5279    4.5575   -0.4199 C   0  0  0  0  0  0  0  0  0  0  0  0
   57.4330    3.3346   -0.5952 C   0  0  0  0  0  0  0  0  0  0  0  0
   56.8821    2.0798    0.1031 C   0  0  0  0  0  0  0  0  0  0  0  0
   57.6709    0.7973   -0.2059 C   0  0  0  0  0  0  0  0  0  0  0  0
   57.2720   -0.3718    0.5811 N   0  0  0  0  0  0  0  0  0  0  0  0
   57.1693   -0.2555    2.0462 C   0  0  0  0  0  0  0  0  0  0  0  0
   58.2439    0.6003    2.7578 C   0  0  0  0  0  0  0  0  0  0  0  0
   59.6921    0.0798    2.6571 C   0  0  0  0  0  0  0  0  0  0  0  0
   59.9302   -1.1080    3.4719 N   0  0  0  0  0  0  0  0  0  0  0  0
  1  2  1  0  0  0  0
  2  3  1  0  0  0  0
  3  4  1  0  0  0  0
  4  5  1  0  0  0  0
  5  6  1  0  0  0  0
  6  7  1  0  0  0  0
  7  8  1  0  0  0  0
  8  9  1  0  0  0  0
  9 10  1  0  0  0  0
 10 11  1  0  0  0  0
 11 12  1  0  0  0  0
 12 13  1  0  0  0  0
 13 14  1  0  0  0  0
M  END
>  <CHROM.1>
-68.51352085,-71.85280457,70.25267576,-126.00087989,56.19787214,172.49047139
172.44392945,-50.21504761,-38.82178848,-63.81454490,-72.39579787,56.57438392
2.19507340,1.00953473,2.30910672,-0.06868812,-0.35031550

>  <Name>
ligand

>  <RI>
0

>  <Rbt.Current_Directory>
/home/itssahil/PROJECTS/Mol_Feturizer/New_Systems/rnas/4E8Q

>  <Rbt.Executable>
rbdock ($Id: //depot/dev/client3/rdock/2013.1/src/exe/rbdock.cxx#4 $)

>  <Rbt.Library>
libRbt.so (2013.1, Build901 2013/11/27)

>  <Rbt.Parameter_File>
/export/apps/rDock/src/rDock_2013.1_src/data/scripts/dock_solv.prm

>  <Rbt.Receptor>
prm/pocket_docking_3.prm

>  <SCORE>
-4.3578

>  <SCORE.INTER>
4.75438

>  <SCORE.INTER.CONST>
1

>  <SCORE.INTER.POLAR>
0

>  <SCORE.INTER.ROT>
11

>  <SCORE.INTER.SOLV>
9.23001

>  <SCORE.INTER.VDW>
-10.8404

>  <SCORE.INTER.norm>
0.339599

>  <SCORE.INTRA>
-9.12023

>  <SCORE.INTRA.DIHEDRAL>
-22.3545

>  <SCORE.INTRA.DIHEDRAL.0>
25.9209

>  <SCORE.INTRA.POLAR>
0

>  <SCORE.INTRA.POLAR.0>
0

>  <SCORE.INTRA.REPUL>
0

>  <SCORE.INTRA.REPUL.0>
0

>  <SCORE.INTRA.SOLV>
1.41483

>  <SCORE.INTRA.SOLV.lig_0>
-47.4815

>  <SCORE.INTRA.VDW>
1.34963

>  <SCORE.INTRA.VDW.0>
-1.57492

>  <SCORE.INTRA.norm>
-0.651445

>  <SCORE.RESTR>
0.00804318

>  <SCORE.RESTR.CAVITY>
0.00804318

>  <SCORE.RESTR.norm>
0.000574513

>  <SCORE.SYSTEM>
0

>  <SCORE.SYSTEM.CONST>
0

>  <SCORE.SYSTEM.DIHEDRAL>
0

>  <SCORE.SYSTEM.SOLV>
0

>  <SCORE.SYSTEM.norm>
0

>  <SCORE.heavy>
14

>  <SCORE.norm>
-0.311272

>  <RMSD>
5.518

$$$$
ligand
 OpenBabel11021811493D
libRbt.so/2013.1/901 2013/11/27
 14 13  0  0  0  0  0  0  0  0999 V2000
   52.4734    4.4071   -0.5659 N   0  0  0  0  0  0  0  0  0  0  0  0
   51.0839    3.9817   -0.4498 C   0  0  0  0  0  0  0  0  0  0  0  0
   50.9769    2.6593    0.3391 C   0  0  0  0  0  0  0  0  0  0  0  0
   51.5965    1.4375   -0.3681 C   0  0  0  0  0  0  0  0  0  0  0  0
   51.0264    1.0210   -1.6582 N   0  0  0  0  0  0  0  0  0  0  0  0
   51.6087   -0.0903   -2.4188 C   0  0  0  0  0  0  0  0  0  0  0  0
   50.9272   -0.3899   -3.7571 C   0  0  0  0  0  0  0  0  0  0  0  0
   49.5003   -0.9393   -3.5900 C   0  0  0  0  0  0  0  0  0  0  0  0
   48.8915   -1.4978   -4.8862 C   0  0  0  0  0  0  0  0  0  0  0  0
   48.8396   -0.5460   -5.9983 N   0  0  0  0  0  0  0  0  0  0  0  0
   49.9412   -0.5169   -6.9760 C   0  0  0  0  0  0  0  0  0  0  0  0
   49.7601   -1.3600   -8.2605 C   0  0  0  0  0  0  0  0  0  0  0  0
   50.9205   -1.2974   -9.2742 C   0  0  0  0  0  0  0  0  0  0  0  0
   50.6541   -2.0528  -10.4949 N   0  0  0  0  0  0  0  0  0  0  0  0
  1  2  1  0  0  0  0
  2  3  1  0  0  0  0
  3  4  1  0  0  0  0
  4  5  1  0  0  0  0
  5  6  1  0  0  0  0
  6  7  1  0  0  0  0
  7  8  1  0  0  0  0
  8  9  1  0  0  0  0
  9 10  1  0  0  0  0
 10 11  1  0  0  0  0
 11 12  1  0  0  0  0
 12 13  1  0  0  0  0
 13 14  1  0  0  0  0
M  END
>  <CHROM.1>
-66.61750694,-62.11726418,176.89950372,-178.73854365,-67.55243964,-168.97890787
-57.07115673,93.71019180,94.31705549,179.27117537,-176.72752653,50.58566275
0.34385956,-4.16828265,-1.29933750,-0.97547246,-1.82693852

>  <Name>
ligand

>  <RI>
0

>  <Rbt.Current_Directory>
/home/itssahil/PROJECTS/Mol_Feturizer/New_Systems/rnas/4E8Q

>  <Rbt.Executable>
rbdock ($Id: //depot/dev/client3/rdock/2013.1/src/exe/rbdock.cxx#4 $)

>  <Rbt.Library>
libRbt.so (2013.1, Build901 2013/11/27)

>  <Rbt.Parameter_File>
/export/apps/rDock/src/rDock_2013.1_src/data/scripts/dock_solv.prm

>  <Rbt.Receptor>
prm/pocket_docking_6.prm

>  <SCORE>
-11.6741

>  <SCORE.INTER>
-0.326737

>  <SCORE.INTER.CONST>
1

>  <SCORE.INTER.POLAR>
0

>  <SCORE.INTER.ROT>
11

>  <SCORE.INTER.SOLV>
6.80382

>  <SCORE.INTER.VDW>
-13.4191

>  <SCORE.INTER.norm>
-0.0233384

>  <SCORE.INTRA>
-11.3474

>  <SCORE.INTRA.DIHEDRAL>
-23.4971

>  <SCORE.INTRA.DIHEDRAL.0>
25.9209

>  <SCORE.INTRA.POLAR>
0

>  <SCORE.INTRA.POLAR.0>
0

>  <SCORE.INTRA.REPUL>
0

>  <SCORE.INTRA.REPUL.0>
0

>  <SCORE.INTRA.SOLV>
0.0605508

>  <SCORE.INTRA.SOLV.lig_0>
-47.4815

>  <SCORE.INTRA.VDW>
0.370868

>  <SCORE.INTRA.VDW.0>
-1.57492

>  <SCORE.INTRA.norm>
-0.810529

>  <SCORE.RESTR>
0

>  <SCORE.RESTR.CAVITY>
0

>  <SCORE.RESTR.norm>
0

>  <SCORE.SYSTEM>
0

>  <SCORE.SYSTEM.CONST>
0

>  <SCORE.SYSTEM.DIHEDRAL>
0

>  <SCORE.SYSTEM.SOLV>
0

>  <SCORE.SYSTEM.norm>
0

>  <SCORE.heavy>
14

>  <SCORE.norm>
-0.833868

>  <RMSD>
5.519

$$$$
ligand
 OpenBabel11021811493D
libRbt.so/2013.1/901 2013/11/27
 14 13  0  0  0  0  0  0  0  0999 V2000
   51.2070    4.0969    2.6094 N   0  0  0  0  0  0  0  0  0  0  0  0
   51.9357    3.4572    1.5209 C   0  0  0  0  0  0  0  0  0  0  0  0
   51.0441    2.4313    0.7893 C   0  0  0  0  0  0  0  0  0  0  0  0
   51.7072    1.7567   -0.4281 C   0  0  0  0  0  0  0  0  0  0  0  0
   50.9378    0.7404   -1.1614 N   0  0  0  0  0  0  0  0  0  0  0  0
   51.3915    0.2433   -2.4651 C   0  0  0  0  0  0  0  0  0  0  0  0
   50.5379   -0.8769   -3.0668 C   0  0  0  0  0  0  0  0  0  0  0  0
   49.4615   -0.3531   -4.0327 C   0  0  0  0  0  0  0  0  0  0  0  0
   48.5242   -1.4450   -4.5730 C   0  0  0  0  0  0  0  0  0  0  0  0
   47.6087   -1.0001   -5.6263 N   0  0  0  0  0  0  0  0  0  0  0  0
   47.3170   -1.8988   -6.7567 C   0  0  0  0  0  0  0  0  0  0  0  0
   48.5153   -2.3320   -7.6342 C   0  0  0  0  0  0  0  0  0  0  0  0
   49.3867   -1.1890   -8.1929 C   0  0  0  0  0  0  0  0  0  0  0  0
   48.6365   -0.2531   -9.0253 N   0  0  0  0  0  0  0  0  0  0  0  0
  1  2  1  0  0  0  0
  2  3  1  0  0  0  0
  3  4  1  0  0  0  0
  4  5  1  0  0  0  0
  5  6  1  0  0  0  0
  6  7  1  0  0  0  0
  7  8  1  0  0  0  0
  8  9  1  0  0  0  0
  9 10  1  0  0  0  0
 10 11  1  0  0  0  0
 11 12  1  0  0  0  0
 12 13  1  0  0  0  0
 13 14  1  0  0  0  0
M  END
>  <CHROM.1>
176.88837924,178.46888063,168.27630039,176.22488208,94.23054281,-175.79738524
-172.27675302,141.39626261,-60.45888172,-52.98383304,-59.16757776,49.87232550
0.24099754,-3.43169557,-1.08557393,-0.84263646,-1.65770488

>  <Name>
ligand

>  <RI>
0

>  <Rbt.Current_Directory>
/home/itssahil/PROJECTS/Mol_Feturizer/New_Systems/rnas/4E8Q

>  <Rbt.Executable>
rbdock ($Id: //depot/dev/client3/rdock/2013.1/src/exe/rbdock.cxx#4 $)

>  <Rbt.Library>
libRbt.so (2013.1, Build901 2013/11/27)

>  <Rbt.Parameter_File>
/export/apps/rDock/src/rDock_2013.1_src/data/scripts/dock_solv.prm

>  <Rbt.Receptor>
prm/pocket_docking_5.prm

>  <SCORE>
-10.8942

>  <SCORE.INTER>
-0.755126

>  <SCORE.INTER.CONST>
1

>  <SCORE.INTER.POLAR>
0

>  <SCORE.INTER.ROT>
11

>  <SCORE.INTER.SOLV>
9.17466

>  <SCORE.INTER.VDW>
-14.495

>  <SCORE.INTER.norm>
-0.0539376

>  <SCORE.INTRA>
-10.1391

>  <SCORE.INTRA.DIHEDRAL>
-21.0433

>  <SCORE.INTRA.DIHEDRAL.0>
25.9209

>  <SCORE.INTRA.POLAR>
0

>  <SCORE.INTRA.POLAR.0>
0

>  <SCORE.INTRA.REPUL>
0

>  <SCORE.INTRA.REPUL.0>
0

>  <SCORE.INTRA.SOLV>
-0.0593943

>  <SCORE.INTRA.SOLV.lig_0>
-47.4815

>  <SCORE.INTRA.VDW>
0.412273

>  <SCORE.INTRA.VDW.0>
-1.57492

>  <SCORE.INTRA.norm>
-0.724219

>  <SCORE.RESTR>
0

>  <SCORE.RESTR.CAVITY>
0

>  <SCORE.RESTR.norm>
0

>  <SCORE.SYSTEM>
0

>  <SCORE.SYSTEM.CONST>
0

>  <SCORE.SYSTEM.DIHEDRAL>
0

>  <SCORE.SYSTEM.SOLV>
0

>  <SCORE.SYSTEM.norm>
0

>  <SCORE.heavy>
14

>  <SCORE.norm>
-0.778157

>  <RMSD>
5.525

$$$$
ligand
 OpenBabel11021811493D
libRbt.so/2013.1/901 2013/11/27
 14 13  0  0  0  0  0  0  0  0999 V2000
   48.2537   -1.3778   -5.6753 N   0  0  0  0  0  0  0  0  0  0  0  0
   49.0764   -1.4427   -4.4736 C   0  0  0  0  0  0  0  0  0  0  0  0
   50.1409   -0.3250   -4.4738 C   0  0  0  0  0  0  0  0  0  0  0  0
   51.1208   -0.3710   -3.2846 C   0  0  0  0  0  0  0  0  0  0  0  0
   50.5610   -0.3582   -1.9247 N   0  0  0  0  0  0  0  0  0  0  0  0
   51.3196    0.2002   -0.7998 C   0  0  0  0  0  0  0  0  0  0  0  0
   51.3028    1.7282   -0.6989 C   0  0  0  0  0  0  0  0  0  0  0  0
   52.0887    2.2545    0.5141 C   0  0  0  0  0  0  0  0  0  0  0  0
   52.0054    3.7783    0.6976 C   0  0  0  0  0  0  0  0  0  0  0  0
   50.6584    4.2911    0.9587 N   0  0  0  0  0  0  0  0  0  0  0  0
   50.2469    5.5754    0.3655 C   0  0  0  0  0  0  0  0  0  0  0  0
   49.3944    5.5101   -0.9239 C   0  0  0  0  0  0  0  0  0  0  0  0
   50.0502    4.8037   -2.1276 C   0  0  0  0  0  0  0  0  0  0  0  0
   49.2354    4.8621   -3.3377 N   0  0  0  0  0  0  0  0  0  0  0  0
  1  2  1  0  0  0  0
  2  3  1  0  0  0  0
  3  4  1  0  0  0  0
  4  5  1  0  0  0  0
  5  6  1  0  0  0  0
  6  7  1  0  0  0  0
  7  8  1  0  0  0  0
  8  9  1  0  0  0  0
  9 10  1  0  0  0  0
 10 11  1  0  0  0  0
 11 12  1  0  0  0  0
 12 13  1  0  0  0  0
 13 14  1  0  0  0  0
M  END
>  <CHROM.1>
-176.11885517,-55.63634379,-151.75959228,79.22548692,178.79544589,-175.86550949
62.83119177,-142.28274202,98.99187351,-60.02920804,-175.79472079,50.38990354
2.08073570,-1.79857199,1.83272177,0.96318039,-2.71214890

>  <Name>
ligand

>  <RI>
0

>  <Rbt.Current_Directory>
/home/itssahil/PROJECTS/Mol_Feturizer/New_Systems/rnas/4E8Q

>  <Rbt.Executable>
rbdock ($Id: //depot/dev/client3/rdock/2013.1/src/exe/rbdock.cxx#4 $)

>  <Rbt.Library>
libRbt.so (2013.1, Build901 2013/11/27)

>  <Rbt.Parameter_File>
/export/apps/rDock/src/rDock_2013.1_src/data/scripts/dock_solv.prm

>  <Rbt.Receptor>
prm/pocket_docking_4.prm

>  <SCORE>
-11.2076

>  <SCORE.INTER>
0.961518

>  <SCORE.INTER.CONST>
1

>  <SCORE.INTER.POLAR>
0

>  <SCORE.INTER.ROT>
11

>  <SCORE.INTER.SOLV>
10.0053

>  <SCORE.INTER.VDW>
-13.6274

>  <SCORE.INTER.norm>
0.0686798

>  <SCORE.INTRA>
-12.1692

>  <SCORE.INTRA.DIHEDRAL>
-23.0865

>  <SCORE.INTRA.DIHEDRAL.0>
25.9209

>  <SCORE.INTRA.POLAR>
0

>  <SCORE.INTRA.POLAR.0>
0

>  <SCORE.INTRA.REPUL>
0

>  <SCORE.INTRA.REPUL.0>
0

>  <SCORE.INTRA.SOLV>
-1.04682

>  <SCORE.INTRA.SOLV.lig_0>
-47.4815

>  <SCORE.INTRA.VDW>
-0.102494

>  <SCORE.INTRA.VDW.0>
-1.57492

>  <SCORE.INTRA.norm>
-0.869226

>  <SCORE.RESTR>
0

>  <SCORE.RESTR.CAVITY>
0

>  <SCORE.RESTR.norm>
0

>  <SCORE.SYSTEM>
0

>  <SCORE.SYSTEM.CONST>
0

>  <SCORE.SYSTEM.DIHEDRAL>
0

>  <SCORE.SYSTEM.SOLV>
0

>  <SCORE.SYSTEM.norm>
0

>  <SCORE.heavy>
14

>  <SCORE.norm>
-0.800546

>  <RMSD>
5.555

$$$$
ligand
 OpenBabel11021811493D
libRbt.so/2013.1/901 2013/11/27
 14 13  0  0  0  0  0  0  0  0999 V2000
   49.0228    5.4685   -2.7882 N   0  0  0  0  0  0  0  0  0  0  0  0
   49.3555    5.0510   -1.4317 C   0  0  0  0  0  0  0  0  0  0  0  0
   50.8841    4.9362   -1.2500 C   0  0  0  0  0  0  0  0  0  0  0  0
   51.3335    4.5251    0.1662 C   0  0  0  0  0  0  0  0  0  0  0  0
   50.9017    3.2154    0.6772 N   0  0  0  0  0  0  0  0  0  0  0  0
   51.5166    1.9745    0.1928 C   0  0  0  0  0  0  0  0  0  0  0  0
   51.1201    1.5639   -1.2283 C   0  0  0  0  0  0  0  0  0  0  0  0
   51.7038    0.2018   -1.6403 C   0  0  0  0  0  0  0  0  0  0  0  0
   51.3570   -0.2159   -3.0783 C   0  0  0  0  0  0  0  0  0  0  0  0
   49.9544   -0.5820   -3.2885 N   0  0  0  0  0  0  0  0  0  0  0  0
   49.2766   -0.1634   -4.5278 C   0  0  0  0  0  0  0  0  0  0  0  0
   48.0251   -0.9700   -4.9483 C   0  0  0  0  0  0  0  0  0  0  0  0
   48.2795   -2.4293   -5.3772 C   0  0  0  0  0  0  0  0  0  0  0  0
   49.0316   -2.5355   -6.6240 N   0  0  0  0  0  0  0  0  0  0  0  0
  1  2  1  0  0  0  0
  2  3  1  0  0  0  0
  3  4  1  0  0  0  0
  4  5  1  0  0  0  0
  5  6  1  0  0  0  0
  6  7  1  0  0  0  0
  7  8  1  0  0  0  0
  8  9  1  0  0  0  0
  9 10  1  0  0  0  0
 10 11  1  0  0  0  0
 11 12  1  0  0  0  0
 12 13  1  0  0  0  0
 13 14  1  0  0  0  0
M  END
>  <CHROM.1>
178.87151363,61.72192679,74.78590944,-73.02468836,-175.38702918,-178.23552695
-70.78609317,140.23653154,158.27008562,-67.44378802,-67.49110207,50.12604313
1.43146261,-2.51026100,1.22127191,-0.87250360,0.39180816

>  <Name>
ligand

>  <RI>
0

>  <Rbt.Current_Directory>
/home/itssahil/PROJECTS/Mol_Feturizer/New_Systems/rnas/4E8Q

>  <Rbt.Executable>
rbdock ($Id: //depot/dev/client3/rdock/2013.1/src/exe/rbdock.cxx#4 $)

>  <Rbt.Library>
libRbt.so (2013.1, Build901 2013/11/27)

>  <Rbt.Parameter_File>
/export/apps/rDock/src/rDock_2013.1_src/data/scripts/dock_solv.prm

>  <Rbt.Receptor>
prm/pocket_docking_6.prm

>  <SCORE>
-12.1133

>  <SCORE.INTER>
-0.545098

>  <SCORE.INTER.CONST>
1

>  <SCORE.INTER.POLAR>
0

>  <SCORE.INTER.ROT>
11

>  <SCORE.INTER.SOLV>
9.73895

>  <SCORE.INTER.VDW>
-14.543

>  <SCORE.INTER.norm>
-0.0389356

>  <SCORE.INTRA>
-11.5682

>  <SCORE.INTRA.DIHEDRAL>
-23.4196

>  <SCORE.INTRA.DIHEDRAL.0>
25.9209

>  <SCORE.INTRA.POLAR>
0

>  <SCORE.INTRA.POLAR.0>
0

>  <SCORE.INTRA.REPUL>
0

>  <SCORE.INTRA.REPUL.0>
0

>  <SCORE.INTRA.SOLV>
-0.192819

>  <SCORE.INTRA.SOLV.lig_0>
-47.4815

>  <SCORE.INTRA.VDW>
0.237966

>  <SCORE.INTRA.VDW.0>
-1.57492

>  <SCORE.INTRA.norm>
-0.826302

>  <SCORE.RESTR>
0

>  <SCORE.RESTR.CAVITY>
0

>  <SCORE.RESTR.norm>
0

>  <SCORE.SYSTEM>
0

>  <SCORE.SYSTEM.CONST>
0

>  <SCORE.SYSTEM.DIHEDRAL>
0

>  <SCORE.SYSTEM.SOLV>
0

>  <SCORE.SYSTEM.norm>
0

>  <SCORE.heavy>
14

>  <SCORE.norm>
-0.865237

>  <RMSD>
5.573

$$$$
ligand
 OpenBabel11021811493D
libRbt.so/2013.1/901 2013/11/27
 14 13  0  0  0  0  0  0  0  0999 V2000
   49.4880   -0.5741   -9.5700 N   0  0  0  0  0  0  0  0  0  0  0  0
   48.7670   -0.6233   -8.3039 C   0  0  0  0  0  0  0  0  0  0  0  0
   48.1201   -2.0086   -8.0919 C   0  0  0  0  0  0  0  0  0  0  0  0
   47.3263   -2.1525   -6.7782 C   0  0  0  0  0  0  0  0  0  0  0  0
   48.0464   -1.9660   -5.5096 N   0  0  0  0  0  0  0  0  0  0  0  0
   47.8987   -0.7316   -4.7305 C   0  0  0  0  0  0  0  0  0  0  0  0
   49.2117   -0.0368   -4.3579 C   0  0  0  0  0  0  0  0  0  0  0  0
   50.1481   -0.9348   -3.5318 C   0  0  0  0  0  0  0  0  0  0  0  0
   51.2882   -0.1740   -2.8362 C   0  0  0  0  0  0  0  0  0  0  0  0
   50.8673    0.6690   -1.7148 N   0  0  0  0  0  0  0  0  0  0  0  0
   51.8873    1.3692   -0.9149 C   0  0  0  0  0  0  0  0  0  0  0  0
   51.3849    2.1928    0.2946 C   0  0  0  0  0  0  0  0  0  0  0  0
   52.4652    2.9716    1.0722 C   0  0  0  0  0  0  0  0  0  0  0  0
   51.9212    3.7512    2.1802 N   0  0  0  0  0  0  0  0  0  0  0  0
  1  2  1  0  0  0  0
  2  3  1  0  0  0  0
  3  4  1  0  0  0  0
  4  5  1  0  0  0  0
  5  6  1  0  0  0  0
  6  7  1  0  0  0  0
  7  8  1  0  0  0  0
  8  9  1  0  0  0  0
  9 10  1  0  0  0  0
 10 11  1  0  0  0  0
 11 12  1  0  0  0  0
 12 13  1  0  0  0  0
 13 14  1  0  0  0  0
M  END
>  <CHROM.1>
-179.64882064,-60.33780288,104.00775438,-127.13662617,-58.82440442,-164.86418053
71.06633660,175.70206983,-177.31944781,-177.07984520,178.64653920,49.91568031
0.12501825,-3.77097018,-2.07664850,0.73683227,1.48829486

>  <Name>
ligand

>  <RI>
0

>  <Rbt.Current_Directory>
/home/itssahil/PROJECTS/Mol_Feturizer/New_Systems/rnas/4E8Q

>  <Rbt.Executable>
rbdock ($Id: //depot/dev/client3/rdock/2013.1/src/exe/rbdock.cxx#4 $)

>  <Rbt.Library>
libRbt.so (2013.1, Build901 2013/11/27)

>  <Rbt.Parameter_File>
/export/apps/rDock/src/rDock_2013.1_src/data/scripts/dock_solv.prm

>  <Rbt.Receptor>
prm/pocket_docking_5.prm

>  <SCORE>
-13.8768

>  <SCORE.INTER>
-2.21578

>  <SCORE.INTER.CONST>
1

>  <SCORE.INTER.POLAR>
0

>  <SCORE.INTER.ROT>
11

>  <SCORE.INTER.SOLV>
7.35864

>  <SCORE.INTER.VDW>
-14.8634

>  <SCORE.INTER.norm>
-0.15827

>  <SCORE.INTRA>
-11.6611

>  <SCORE.INTRA.DIHEDRAL>
-22.3322

>  <SCORE.INTRA.DIHEDRAL.0>
25.9209

>  <SCORE.INTRA.POLAR>
0

>  <SCORE.INTRA.POLAR.0>
0

>  <SCORE.INTRA.REPUL>
0

>  <SCORE.INTRA.REPUL.0>
0

>  <SCORE.INTRA.SOLV>
-1.11223

>  <SCORE.INTRA.SOLV.lig_0>
-47.4815

>  <SCORE.INTRA.VDW>
0.0611471

>  <SCORE.INTRA.VDW.0>
-1.57492

>  <SCORE.INTRA.norm>
-0.832932

>  <SCORE.RESTR>
0

>  <SCORE.RESTR.CAVITY>
0

>  <SCORE.RESTR.norm>
0

>  <SCORE.SYSTEM>
0

>  <SCORE.SYSTEM.CONST>
0

>  <SCORE.SYSTEM.DIHEDRAL>
0

>  <SCORE.SYSTEM.SOLV>
0

>  <SCORE.SYSTEM.norm>
0

>  <SCORE.heavy>
14

>  <SCORE.norm>
-0.991202

>  <RMSD>
5.576

$$$$
ligand
 OpenBabel11021811493D
libRbt.so/2013.1/901 2013/11/27
 14 13  0  0  0  0  0  0  0  0999 V2000
   47.6522   -3.4245   -9.7421 N   0  0  0  0  0  0  0  0  0  0  0  0
   48.6315   -2.7943   -8.8653 C   0  0  0  0  0  0  0  0  0  0  0  0
   47.9980   -1.6243   -8.0828 C   0  0  0  0  0  0  0  0  0  0  0  0
   48.9750   -0.8601   -7.1674 C   0  0  0  0  0  0  0  0  0  0  0  0
   49.6687   -1.6135   -6.1120 N   0  0  0  0  0  0  0  0  0  0  0  0
   49.0719   -1.7753   -4.7815 C   0  0  0  0  0  0  0  0  0  0  0  0
   49.4360   -0.6859   -3.7686 C   0  0  0  0  0  0  0  0  0  0  0  0
   50.9498   -0.5906   -3.5134 C   0  0  0  0  0  0  0  0  0  0  0  0
   51.3281    0.3332   -2.3446 C   0  0  0  0  0  0  0  0  0  0  0  0
   50.9738    1.7413   -2.5372 N   0  0  0  0  0  0  0  0  0  0  0  0
   51.2293    2.7053   -1.4529 C   0  0  0  0  0  0  0  0  0  0  0  0
   52.7059    3.0788   -1.1815 C   0  0  0  0  0  0  0  0  0  0  0  0
   53.4592    3.7363   -2.3555 C   0  0  0  0  0  0  0  0  0  0  0  0
   54.8531    4.0374   -2.0430 N   0  0  0  0  0  0  0  0  0  0  0  0
  1  2  1  0  0  0  0
  2  3  1  0  0  0  0
  3  4  1  0  0  0  0
  4  5  1  0  0  0  0
  5  6  1  0  0  0  0
  6  7  1  0  0  0  0
  7  8  1  0  0  0  0
  8  9  1  0  0  0  0
  9 10  1  0  0  0  0
 10 11  1  0  0  0  0
 11 12  1  0  0  0  0
 12 13  1  0  0  0  0
 13 14  1  0  0  0  0
M  END
>  <CHROM.1>
-177.73611349,-58.88092485,-88.72630205,-90.25166394,-59.67436738,-170.79597819
-63.53699456,176.99935204,71.71667698,60.61572161,-178.78930799,50.49507080
0.16170110,-4.56746473,-2.33571112,0.80890108,1.47083115

>  <Name>
ligand

>  <RI>
0

>  <Rbt.Current_Directory>
/home/itssahil/PROJECTS/Mol_Feturizer/New_Systems/rnas/4E8Q

>  <Rbt.Executable>
rbdock ($Id: //depot/dev/client3/rdock/2013.1/src/exe/rbdock.cxx#4 $)

>  <Rbt.Library>
libRbt.so (2013.1, Build901 2013/11/27)

>  <Rbt.Parameter_File>
/export/apps/rDock/src/rDock_2013.1_src/data/scripts/dock_solv.prm

>  <Rbt.Receptor>
prm/pocket_docking_7.prm

>  <SCORE>
-10.4943

>  <SCORE.INTER>
1.62767

>  <SCORE.INTER.CONST>
1

>  <SCORE.INTER.POLAR>
0

>  <SCORE.INTER.ROT>
11

>  <SCORE.INTER.SOLV>
7.05556

>  <SCORE.INTER.VDW>
-12.2001

>  <SCORE.INTER.norm>
0.116262

>  <SCORE.INTRA>
-12.1219

>  <SCORE.INTRA.DIHEDRAL>
-24.209

>  <SCORE.INTRA.DIHEDRAL.0>
25.9209

>  <SCORE.INTRA.POLAR>
0

>  <SCORE.INTRA.POLAR.0>
0

>  <SCORE.INTRA.REPUL>
0

>  <SCORE.INTRA.REPUL.0>
0

>  <SCORE.INTRA.SOLV>
-0.832649

>  <SCORE.INTRA.SOLV.lig_0>
-47.4815

>  <SCORE.INTRA.VDW>
0.398874

>  <SCORE.INTRA.VDW.0>
-1.57492

>  <SCORE.INTRA.norm>
-0.865853

>  <SCORE.RESTR>
0

>  <SCORE.RESTR.CAVITY>
0

>  <SCORE.RESTR.norm>
0

>  <SCORE.SYSTEM>
0

>  <SCORE.SYSTEM.CONST>
0

>  <SCORE.SYSTEM.DIHEDRAL>
0

>  <SCORE.SYSTEM.SOLV>
0

>  <SCORE.SYSTEM.norm>
0

>  <SCORE.heavy>
14

>  <SCORE.norm>
-0.749591

>  <RMSD>
5.579

$$$$
ligand
 OpenBabel11021811493D
libRbt.so/2013.1/901 2013/11/27
 14 13  0  0  0  0  0  0  0  0999 V2000
   51.0084    4.7380   -3.0445 N   0  0  0  0  0  0  0  0  0  0  0  0
   51.7530    3.9052   -2.1080 C   0  0  0  0  0  0  0  0  0  0  0  0
   50.8433    3.4188   -0.9598 C   0  0  0  0  0  0  0  0  0  0  0  0
   51.5577    2.5691    0.1098 C   0  0  0  0  0  0  0  0  0  0  0  0
   52.2472    1.3449   -0.3247 N   0  0  0  0  0  0  0  0  0  0  0  0
   51.4973    0.2073   -0.8688 C   0  0  0  0  0  0  0  0  0  0  0  0
   51.2449    0.2572   -2.3786 C   0  0  0  0  0  0  0  0  0  0  0  0
   50.1875   -0.7598   -2.8404 C   0  0  0  0  0  0  0  0  0  0  0  0
   49.6525   -0.5027   -4.2582 C   0  0  0  0  0  0  0  0  0  0  0  0
   48.4195   -1.2215   -4.5875 N   0  0  0  0  0  0  0  0  0  0  0  0
   48.5041   -2.5787   -5.1545 C   0  0  0  0  0  0  0  0  0  0  0  0
   49.0647   -2.7038   -6.5910 C   0  0  0  0  0  0  0  0  0  0  0  0
   48.3194   -1.8994   -7.6753 C   0  0  0  0  0  0  0  0  0  0  0  0
   48.9409   -2.0034   -8.9922 N   0  0  0  0  0  0  0  0  0  0  0  0
  1  2  1  0  0  0  0
  2  3  1  0  0  0  0
  3  4  1  0  0  0  0
  4  5  1  0  0  0  0
  5  6  1  0  0  0  0
  6  7  1  0  0  0  0
  7  8  1  0  0  0  0
  8  9  1  0  0  0  0
  9 10  1  0  0  0  0
 10 11  1  0  0  0  0
 11 12  1  0  0  0  0
 12 13  1  0  0  0  0
 13 14  1  0  0  0  0
M  END
>  <CHROM.1>
-177.95283832,-57.56686955,-65.81591043,87.63502265,-166.29589447,165.27307433
-164.76351801,-88.25259348,-68.99915074,-57.19922968,176.88051069,50.23150014
0.34065723,-3.54784298,0.17553276,-1.21185695,-0.50970568

>  <Name>
ligand

>  <RI>
0

>  <Rbt.Current_Directory>
/home/itssahil/PROJECTS/Mol_Feturizer/New_Systems/rnas/4E8Q

>  <Rbt.Executable>
rbdock ($Id: //depot/dev/client3/rdock/2013.1/src/exe/rbdock.cxx#4 $)

>  <Rbt.Library>
libRbt.so (2013.1, Build901 2013/11/27)

>  <Rbt.Parameter_File>
/export/apps/rDock/src/rDock_2013.1_src/data/scripts/dock_solv.prm

>  <Rbt.Receptor>
prm/pocket_docking_5.prm

>  <SCORE>
-13.1831

>  <SCORE.INTER>
-1.75689

>  <SCORE.INTER.CONST>
1

>  <SCORE.INTER.POLAR>
0

>  <SCORE.INTER.ROT>
11

>  <SCORE.INTER.SOLV>
7.35748

>  <SCORE.INTER.VDW>
-14.5571

>  <SCORE.INTER.norm>
-0.125492

>  <SCORE.INTRA>
-11.4262

>  <SCORE.INTRA.DIHEDRAL>
-22.2735

>  <SCORE.INTRA.DIHEDRAL.0>
25.9209

>  <SCORE.INTRA.POLAR>
0

>  <SCORE.INTRA.POLAR.0>
0

>  <SCORE.INTRA.REPUL>
0

>  <SCORE.INTRA.REPUL.0>
0

>  <SCORE.INTRA.SOLV>
-1.343

>  <SCORE.INTRA.SOLV.lig_0>
-47.4815

>  <SCORE.INTRA.VDW>
0.382058

>  <SCORE.INTRA.VDW.0>
-1.57492

>  <SCORE.INTRA.norm>
-0.816156

>  <SCORE.RESTR>
0

>  <SCORE.RESTR.CAVITY>
0

>  <SCORE.RESTR.norm>
0

>  <SCORE.SYSTEM>
0

>  <SCORE.SYSTEM.CONST>
0

>  <SCORE.SYSTEM.DIHEDRAL>
0

>  <SCORE.SYSTEM.SOLV>
0

>  <SCORE.SYSTEM.norm>
0

>  <SCORE.heavy>
14

>  <SCORE.norm>
-0.941648

>  <RMSD>
5.621

$$$$
ligand
 OpenBabel11021811493D
libRbt.so/2013.1/901 2013/11/27
 14 13  0  0  0  0  0  0  0  0999 V2000
   51.3726    1.9258   -7.0622 N   0  0  0  0  0  0  0  0  0  0  0  0
   51.7039    0.6920   -7.7644 C   0  0  0  0  0  0  0  0  0  0  0  0
   50.8587   -0.4865   -7.2360 C   0  0  0  0  0  0  0  0  0  0  0  0
   49.3366   -0.3146   -7.4108 C   0  0  0  0  0  0  0  0  0  0  0  0
   48.4659   -1.4434   -7.0497 N   0  0  0  0  0  0  0  0  0  0  0  0
   48.3922   -1.9296   -5.6674 C   0  0  0  0  0  0  0  0  0  0  0  0
   48.1062   -0.8549   -4.6145 C   0  0  0  0  0  0  0  0  0  0  0  0
   49.3573   -0.0452   -4.2336 C   0  0  0  0  0  0  0  0  0  0  0  0
   50.3820   -0.8347   -3.4034 C   0  0  0  0  0  0  0  0  0  0  0  0
   51.6213   -0.1109   -3.1107 N   0  0  0  0  0  0  0  0  0  0  0  0
   51.5780    1.0687   -2.2292 C   0  0  0  0  0  0  0  0  0  0  0  0
   51.4578    0.8034   -0.7097 C   0  0  0  0  0  0  0  0  0  0  0  0
   51.3163    2.0540    0.1814 C   0  0  0  0  0  0  0  0  0  0  0  0
   52.4263    2.9905    0.0320 N   0  0  0  0  0  0  0  0  0  0  0  0
  1  2  1  0  0  0  0
  2  3  1  0  0  0  0
  3  4  1  0  0  0  0
  4  5  1  0  0  0  0
  5  6  1  0  0  0  0
  6  7  1  0  0  0  0
  7  8  1  0  0  0  0
  8  9  1  0  0  0  0
  9 10  1  0  0  0  0
 10 11  1  0  0  0  0
 11 12  1  0  0  0  0
 12 13  1  0  0  0  0
 13 14  1  0  0  0  0
M  END
>  <CHROM.1>
60.92024699,174.39260558,63.52024812,51.95759658,-79.87969244,-71.24792859
175.91813637,66.73624468,76.90082578,-175.93111947,-57.91747095,50.45516338
0.25080750,-4.30560054,-1.97750499,0.72988169,1.50721193

>  <Name>
ligand

>  <RI>
0

>  <Rbt.Current_Directory>
/home/itssahil/PROJECTS/Mol_Feturizer/New_Systems/rnas/4E8Q

>  <Rbt.Executable>
rbdock ($Id: //depot/dev/client3/rdock/2013.1/src/exe/rbdock.cxx#4 $)

>  <Rbt.Library>
libRbt.so (2013.1, Build901 2013/11/27)

>  <Rbt.Parameter_File>
/export/apps/rDock/src/rDock_2013.1_src/data/scripts/dock_solv.prm

>  <Rbt.Receptor>
prm/pocket_docking_5.prm

>  <SCORE>
-12.4604

>  <SCORE.INTER>
-2.46645

>  <SCORE.INTER.CONST>
1

>  <SCORE.INTER.POLAR>
0

>  <SCORE.INTER.ROT>
11

>  <SCORE.INTER.SOLV>
8.5392

>  <SCORE.INTER.VDW>
-15.424

>  <SCORE.INTER.norm>
-0.176175

>  <SCORE.INTRA>
-9.99398

>  <SCORE.INTRA.DIHEDRAL>
-23.458

>  <SCORE.INTRA.DIHEDRAL.0>
25.9209

>  <SCORE.INTRA.POLAR>
0

>  <SCORE.INTRA.POLAR.0>
0

>  <SCORE.INTRA.REPUL>
0

>  <SCORE.INTRA.REPUL.0>
0

>  <SCORE.INTRA.SOLV>
0.508263

>  <SCORE.INTRA.SOLV.lig_0>
-47.4815

>  <SCORE.INTRA.VDW>
1.4809

>  <SCORE.INTRA.VDW.0>
-1.57492

>  <SCORE.INTRA.norm>
-0.713856

>  <SCORE.RESTR>
0

>  <SCORE.RESTR.CAVITY>
0

>  <SCORE.RESTR.norm>
0

>  <SCORE.SYSTEM>
0

>  <SCORE.SYSTEM.CONST>
0

>  <SCORE.SYSTEM.DIHEDRAL>
0

>  <SCORE.SYSTEM.SOLV>
0

>  <SCORE.SYSTEM.norm>
0

>  <SCORE.heavy>
14

>  <SCORE.norm>
-0.89003

>  <RMSD>
5.648

$$$$
ligand
 OpenBabel11021811493D
libRbt.so/2013.1/901 2013/11/27
 14 13  0  0  0  0  0  0  0  0999 V2000
   47.2983   -5.8159   -7.2796 N   0  0  0  0  0  0  0  0  0  0  0  0
   48.2831   -5.1782   -6.4143 C   0  0  0  0  0  0  0  0  0  0  0  0
   48.0012   -3.6666   -6.2796 C   0  0  0  0  0  0  0  0  0  0  0  0
   48.9357   -2.9233   -5.3044 C   0  0  0  0  0  0  0  0  0  0  0  0
   48.8048   -1.4625   -5.1971 N   0  0  0  0  0  0  0  0  0  0  0  0
   49.8399   -0.6567   -4.5400 C   0  0  0  0  0  0  0  0  0  0  0  0
   49.9677   -0.8692   -3.0288 C   0  0  0  0  0  0  0  0  0  0  0  0
   50.9865    0.0810   -2.3769 C   0  0  0  0  0  0  0  0  0  0  0  0
   51.0101    0.0116   -0.8415 C   0  0  0  0  0  0  0  0  0  0  0  0
   51.8772    1.0005   -0.1969 N   0  0  0  0  0  0  0  0  0  0  0  0
   51.2949    2.2625    0.2917 C   0  0  0  0  0  0  0  0  0  0  0  0
   52.2235    3.1925    1.1080 C   0  0  0  0  0  0  0  0  0  0  0  0
   51.5648    4.4625    1.6835 C   0  0  0  0  0  0  0  0  0  0  0  0
   50.5012    4.1711    2.6401 N   0  0  0  0  0  0  0  0  0  0  0  0
  1  2  1  0  0  0  0
  2  3  1  0  0  0  0
  3  4  1  0  0  0  0
  4  5  1  0  0  0  0
  5  6  1  0  0  0  0
  6  7  1  0  0  0  0
  7  8  1  0  0  0  0
  8  9  1  0  0  0  0
  9 10  1  0  0  0  0
 10 11  1  0  0  0  0
 11 12  1  0  0  0  0
 12 13  1  0  0  0  0
 13 14  1  0  0  0  0
M  END
>  <CHROM.1>
176.01344371,175.26608768,-165.85170103,-67.87847104,-175.34125154,172.82823902
-174.26695224,95.91313382,173.06058610,-176.23647943,62.53881964,50.04223732
-0.38498930,-2.55256976,1.93707666,0.59866661,-2.55507801

>  <Name>
ligand

>  <RI>
0

>  <Rbt.Current_Directory>
/home/itssahil/PROJECTS/Mol_Feturizer/New_Systems/rnas/4E8Q

>  <Rbt.Executable>
rbdock ($Id: //depot/dev/client3/rdock/2013.1/src/exe/rbdock.cxx#4 $)

>  <Rbt.Library>
libRbt.so (2013.1, Build901 2013/11/27)

>  <Rbt.Parameter_File>
/export/apps/rDock/src/rDock_2013.1_src/data/scripts/dock_solv.prm

>  <Rbt.Receptor>
prm/pocket_docking_8.prm

>  <SCORE>
-14.6381

>  <SCORE.INTER>
-2.46228

>  <SCORE.INTER.CONST>
1

>  <SCORE.INTER.POLAR>
0

>  <SCORE.INTER.ROT>
11

>  <SCORE.INTER.SOLV>
8.77215

>  <SCORE.INTER.VDW>
-15.4989

>  <SCORE.INTER.norm>
-0.175877

>  <SCORE.INTRA>
-12.1759

>  <SCORE.INTRA.DIHEDRAL>
-24.251

>  <SCORE.INTRA.DIHEDRAL.0>
25.9209

>  <SCORE.INTRA.POLAR>
0

>  <SCORE.INTRA.POLAR.0>
0

>  <SCORE.INTRA.REPUL>
0

>  <SCORE.INTRA.REPUL.0>
0

>  <SCORE.INTRA.SOLV>
-1.45364

>  <SCORE.INTRA.SOLV.lig_0>
-47.4815

>  <SCORE.INTRA.VDW>
0.676443

>  <SCORE.INTRA.VDW.0>
-1.57492

>  <SCORE.INTRA.norm>
-0.869704

>  <SCORE.RESTR>
0

>  <SCORE.RESTR.CAVITY>
0

>  <SCORE.RESTR.norm>
0

>  <SCORE.SYSTEM>
0

>  <SCORE.SYSTEM.CONST>
0

>  <SCORE.SYSTEM.DIHEDRAL>
0

>  <SCORE.SYSTEM.SOLV>
0

>  <SCORE.SYSTEM.norm>
0

>  <SCORE.heavy>
14

>  <SCORE.norm>
-1.04558

>  <RMSD>
5.686

$$$$
ligand
 OpenBabel11021811493D
libRbt.so/2013.1/901 2013/11/27
 14 13  0  0  0  0  0  0  0  0999 V2000
   55.2512    5.3238   -0.7014 N   0  0  0  0  0  0  0  0  0  0  0  0
   55.1087    4.3073   -1.7367 C   0  0  0  0  0  0  0  0  0  0  0  0
   53.6202    3.9969   -2.0024 C   0  0  0  0  0  0  0  0  0  0  0  0
   53.3711    2.9044   -3.0613 C   0  0  0  0  0  0  0  0  0  0  0  0
   51.9794    2.5410   -3.3675 N   0  0  0  0  0  0  0  0  0  0  0  0
   51.5982    1.1452   -3.6105 C   0  0  0  0  0  0  0  0  0  0  0  0
   50.1766    0.9425   -4.1430 C   0  0  0  0  0  0  0  0  0  0  0  0
   49.8035   -0.5417   -4.2973 C   0  0  0  0  0  0  0  0  0  0  0  0
   48.3306   -0.7790   -4.6671 C   0  0  0  0  0  0  0  0  0  0  0  0
   47.9696   -2.1834   -4.8741 N   0  0  0  0  0  0  0  0  0  0  0  0
   47.7578   -2.6803   -6.2447 C   0  0  0  0  0  0  0  0  0  0  0  0
   46.6237   -2.0178   -7.0624 C   0  0  0  0  0  0  0  0  0  0  0  0
   46.3367   -2.6437   -8.4422 C   0  0  0  0  0  0  0  0  0  0  0  0
   47.5086   -2.6706   -9.3124 N   0  0  0  0  0  0  0  0  0  0  0  0
  1  2  1  0  0  0  0
  2  3  1  0  0  0  0
  3  4  1  0  0  0  0
  4  5  1  0  0  0  0
  5  6  1  0  0  0  0
  6  7  1  0  0  0  0
  7  8  1  0  0  0  0
  8  9  1  0  0  0  0
  9 10  1  0  0  0  0
 10 11  1  0  0  0  0
 11 12  1  0  0  0  0
 12 13  1  0  0  0  0
 13 14  1  0  0  0  0
M  END
>  <CHROM.1>
-178.55961427,179.57189212,-140.95639810,-170.26498657,-176.49798139,173.02429772
177.53066316,-105.27901581,-60.97113669,-174.49193976,-56.94779819,50.38816205
0.54594726,-4.53734087,-0.52772041,-0.73762874,-1.58672793

>  <Name>
ligand

>  <RI>
0

>  <Rbt.Current_Directory>
/home/itssahil/PROJECTS/Mol_Feturizer/New_Systems/rnas/4E8Q

>  <Rbt.Executable>
rbdock ($Id: //depot/dev/client3/rdock/2013.1/src/exe/rbdock.cxx#4 $)

>  <Rbt.Library>
libRbt.so (2013.1, Build901 2013/11/27)

>  <Rbt.Parameter_File>
/export/apps/rDock/src/rDock_2013.1_src/data/scripts/dock_solv.prm

>  <Rbt.Receptor>
prm/pocket_docking_8.prm

>  <SCORE>
-12.6068

>  <SCORE.INTER>
-0.858778

>  <SCORE.INTER.CONST>
1

>  <SCORE.INTER.POLAR>
0

>  <SCORE.INTER.ROT>
11

>  <SCORE.INTER.SOLV>
7.68377

>  <SCORE.INTER.VDW>
-14.0671

>  <SCORE.INTER.norm>
-0.0613413

>  <SCORE.INTRA>
-11.748

>  <SCORE.INTRA.DIHEDRAL>
-23.511

>  <SCORE.INTRA.DIHEDRAL.0>
25.9209

>  <SCORE.INTRA.POLAR>
0

>  <SCORE.INTRA.POLAR.0>
0

>  <SCORE.INTRA.REPUL>
0

>  <SCORE.INTRA.REPUL.0>
0

>  <SCORE.INTRA.SOLV>
-1.4074

>  <SCORE.INTRA.SOLV.lig_0>
-47.4815

>  <SCORE.INTRA.VDW>
0.711159

>  <SCORE.INTRA.VDW.0>
-1.57492

>  <SCORE.INTRA.norm>
-0.839145

>  <SCORE.RESTR>
0

>  <SCORE.RESTR.CAVITY>
0

>  <SCORE.RESTR.norm>
0

>  <SCORE.SYSTEM>
0

>  <SCORE.SYSTEM.CONST>
0

>  <SCORE.SYSTEM.DIHEDRAL>
0

>  <SCORE.SYSTEM.SOLV>
0

>  <SCORE.SYSTEM.norm>
0

>  <SCORE.heavy>
14

>  <SCORE.norm>
-0.900486

>  <RMSD>
5.741

$$$$
ligand
 OpenBabel11021811493D
libRbt.so/2013.1/901 2013/11/27
 14 13  0  0  0  0  0  0  0  0999 V2000
   53.4461    3.7421    1.5347 N   0  0  0  0  0  0  0  0  0  0  0  0
   52.2266    3.0478    1.1399 C   0  0  0  0  0  0  0  0  0  0  0  0
   52.5267    1.9678    0.0787 C   0  0  0  0  0  0  0  0  0  0  0  0
   51.2825    1.2350   -0.4616 C   0  0  0  0  0  0  0  0  0  0  0  0
   51.4759    0.2230   -1.5110 N   0  0  0  0  0  0  0  0  0  0  0  0
   51.6839    0.6142   -2.9096 C   0  0  0  0  0  0  0  0  0  0  0  0
   50.4327    0.5653   -3.7915 C   0  0  0  0  0  0  0  0  0  0  0  0
   49.8079   -0.8384   -3.8631 C   0  0  0  0  0  0  0  0  0  0  0  0
   48.5332   -0.9106   -4.7188 C   0  0  0  0  0  0  0  0  0  0  0  0
   47.9493   -2.2487   -4.8365 N   0  0  0  0  0  0  0  0  0  0  0  0
   48.4567   -3.1700   -5.8681 C   0  0  0  0  0  0  0  0  0  0  0  0
   47.7858   -4.5613   -5.9557 C   0  0  0  0  0  0  0  0  0  0  0  0
   48.2871   -5.4786   -7.0895 C   0  0  0  0  0  0  0  0  0  0  0  0
   48.0307   -4.9347   -8.4199 N   0  0  0  0  0  0  0  0  0  0  0  0
  1  2  1  0  0  0  0
  2  3  1  0  0  0  0
  3  4  1  0  0  0  0
  4  5  1  0  0  0  0
  5  6  1  0  0  0  0
  6  7  1  0  0  0  0
  7  8  1  0  0  0  0
  8  9  1  0  0  0  0
  9 10  1  0  0  0  0
 10 11  1  0  0  0  0
 11 12  1  0  0  0  0
 12 13  1  0  0  0  0
 13 14  1  0  0  0  0
M  END
>  <CHROM.1>
-176.59238696,177.89650522,-78.56222468,-97.89861718,-59.68821320,178.80867232
178.00077018,-84.82208858,-179.13923372,177.02221234,-62.87573778,50.13746048
-0.76765216,-3.33372947,-0.68470748,1.01761882,-3.13531032

>  <Name>
ligand

>  <RI>
0

>  <Rbt.Current_Directory>
/home/itssahil/PROJECTS/Mol_Feturizer/New_Systems/rnas/4E8Q

>  <Rbt.Executable>
rbdock ($Id: //depot/dev/client3/rdock/2013.1/src/exe/rbdock.cxx#4 $)

>  <Rbt.Library>
libRbt.so (2013.1, Build901 2013/11/27)

>  <Rbt.Parameter_File>
/export/apps/rDock/src/rDock_2013.1_src/data/scripts/dock_solv.prm

>  <Rbt.Receptor>
prm/pocket_docking_8.prm

>  <SCORE>
-14.8949

>  <SCORE.INTER>
-2.80221

>  <SCORE.INTER.CONST>
1

>  <SCORE.INTER.POLAR>
0

>  <SCORE.INTER.ROT>
11

>  <SCORE.INTER.SOLV>
9.25658

>  <SCORE.INTER.VDW>
-15.887

>  <SCORE.INTER.norm>
-0.200158

>  <SCORE.INTRA>
-12.0927

>  <SCORE.INTRA.DIHEDRAL>
-24.2314

>  <SCORE.INTRA.DIHEDRAL.0>
25.9209

>  <SCORE.INTRA.POLAR>
0

>  <SCORE.INTRA.POLAR.0>
0

>  <SCORE.INTRA.REPUL>
0

>  <SCORE.INTRA.REPUL.0>
0

>  <SCORE.INTRA.SOLV>
-1.07599

>  <SCORE.INTRA.SOLV.lig_0>
-47.4815

>  <SCORE.INTRA.VDW>
0.561014

>  <SCORE.INTRA.VDW.0>
-1.57492

>  <SCORE.INTRA.norm>
-0.863763

>  <SCORE.RESTR>
0

>  <SCORE.RESTR.CAVITY>
0

>  <SCORE.RESTR.norm>
0

>  <SCORE.SYSTEM>
0

>  <SCORE.SYSTEM.CONST>
0

>  <SCORE.SYSTEM.DIHEDRAL>
0

>  <SCORE.SYSTEM.SOLV>
0

>  <SCORE.SYSTEM.norm>
0

>  <SCORE.heavy>
14

>  <SCORE.norm>
-1.06392

>  <RMSD>
5.755

$$$$
ligand
 OpenBabel11021811493D
libRbt.so/2013.1/901 2013/11/27
 14 13  0  0  0  0  0  0  0  0999 V2000
   48.5730   -0.5005   -8.2563 N   0  0  0  0  0  0  0  0  0  0  0  0
   48.3040   -1.8440   -7.7585 C   0  0  0  0  0  0  0  0  0  0  0  0
   47.4143   -1.7966   -6.4981 C   0  0  0  0  0  0  0  0  0  0  0  0
   48.0550   -1.0918   -5.2858 C   0  0  0  0  0  0  0  0  0  0  0  0
   49.2646   -1.6870   -4.6981 N   0  0  0  0  0  0  0  0  0  0  0  0
   49.8237   -1.1777   -3.4409 C   0  0  0  0  0  0  0  0  0  0  0  0
   50.7919   -0.0004   -3.5895 C   0  0  0  0  0  0  0  0  0  0  0  0
   51.3505    0.4863   -2.2415 C   0  0  0  0  0  0  0  0  0  0  0  0
   52.2152    1.7528   -2.3457 C   0  0  0  0  0  0  0  0  0  0  0  0
   51.5110    2.9358   -2.8457 N   0  0  0  0  0  0  0  0  0  0  0  0
   50.5057    3.5925   -1.9922 C   0  0  0  0  0  0  0  0  0  0  0  0
   51.0359    4.5101   -0.8650 C   0  0  0  0  0  0  0  0  0  0  0  0
   49.9640    5.2677   -0.0557 C   0  0  0  0  0  0  0  0  0  0  0  0
   50.5292    6.1002    1.0022 N   0  0  0  0  0  0  0  0  0  0  0  0
  1  2  1  0  0  0  0
  2  3  1  0  0  0  0
  3  4  1  0  0  0  0
  4  5  1  0  0  0  0
  5  6  1  0  0  0  0
  6  7  1  0  0  0  0
  7  8  1  0  0  0  0
  8  9  1  0  0  0  0
  9 10  1  0  0  0  0
 10 11  1  0  0  0  0
 11 12  1  0  0  0  0
 12 13  1  0  0  0  0
 13 14  1  0  0  0  0
M  END
>  <CHROM.1>
-63.56156044,-63.60325051,-171.74294755,-86.39838807,-179.73102278,-174.28565324
62.15007954,70.76407923,78.39214530,175.54863336,179.21290019,49.95271420
1.18173761,-3.49069025,1.95249591,0.76934817,-2.63271191

>  <Name>
ligand

>  <RI>
0

>  <Rbt.Current_Directory>
/home/itssahil/PROJECTS/Mol_Feturizer/New_Systems/rnas/4E8Q

>  <Rbt.Executable>
rbdock ($Id: //depot/dev/client3/rdock/2013.1/src/exe/rbdock.cxx#4 $)

>  <Rbt.Library>
libRbt.so (2013.1, Build901 2013/11/27)

>  <Rbt.Parameter_File>
/export/apps/rDock/src/rDock_2013.1_src/data/scripts/dock_solv.prm

>  <Rbt.Receptor>
prm/pocket_docking_5.prm

>  <SCORE>
-11.0111

>  <SCORE.INTER>
0.786908

>  <SCORE.INTER.CONST>
1

>  <SCORE.INTER.POLAR>
0

>  <SCORE.INTER.ROT>
11

>  <SCORE.INTER.SOLV>
6.86609

>  <SCORE.INTER.VDW>
-12.6974

>  <SCORE.INTER.norm>
0.0562077

>  <SCORE.INTRA>
-11.798

>  <SCORE.INTRA.DIHEDRAL>
-24.7005

>  <SCORE.INTRA.DIHEDRAL.0>
25.9209

>  <SCORE.INTRA.POLAR>
0

>  <SCORE.INTRA.POLAR.0>
0

>  <SCORE.INTRA.REPUL>
0

>  <SCORE.INTRA.REPUL.0>
0

>  <SCORE.INTRA.SOLV>
-0.181536

>  <SCORE.INTRA.SOLV.lig_0>
-47.4815

>  <SCORE.INTRA.VDW>
0.642976

>  <SCORE.INTRA.VDW.0>
-1.57492

>  <SCORE.INTRA.norm>
-0.842718

>  <SCORE.RESTR>
0

>  <SCORE.RESTR.CAVITY>
0

>  <SCORE.RESTR.norm>
0

>  <SCORE.SYSTEM>
0

>  <SCORE.SYSTEM.CONST>
0

>  <SCORE.SYSTEM.DIHEDRAL>
0

>  <SCORE.SYSTEM.SOLV>
0

>  <SCORE.SYSTEM.norm>
0

>  <SCORE.heavy>
14

>  <SCORE.norm>
-0.78651

>  <RMSD>
5.770

$$$$
ligand
 OpenBabel11021811493D
libRbt.so/2013.1/901 2013/11/27
 14 13  0  0  0  0  0  0  0  0999 V2000
   47.9564   -3.7665   -7.9825 N   0  0  0  0  0  0  0  0  0  0  0  0
   48.6131   -4.2493   -6.7738 C   0  0  0  0  0  0  0  0  0  0  0  0
   48.1473   -3.4510   -5.5376 C   0  0  0  0  0  0  0  0  0  0  0  0
   48.5502   -1.9630   -5.5447 C   0  0  0  0  0  0  0  0  0  0  0  0
   49.9817   -1.6331   -5.6136 N   0  0  0  0  0  0  0  0  0  0  0  0
   50.4425   -0.2430   -5.5263 C   0  0  0  0  0  0  0  0  0  0  0  0
   50.3786    0.3766   -4.1272 C   0  0  0  0  0  0  0  0  0  0  0  0
   51.1108   -0.4650   -3.0682 C   0  0  0  0  0  0  0  0  0  0  0  0
   51.1759    0.1963   -1.6822 C   0  0  0  0  0  0  0  0  0  0  0  0
   52.1789    1.2563   -1.5557 N   0  0  0  0  0  0  0  0  0  0  0  0
   52.0771    2.4526   -2.4095 C   0  0  0  0  0  0  0  0  0  0  0  0
   53.3964    3.0096   -2.9948 C   0  0  0  0  0  0  0  0  0  0  0  0
   53.2544    4.2232   -3.9355 C   0  0  0  0  0  0  0  0  0  0  0  0
   52.6979    5.3985   -3.2718 N   0  0  0  0  0  0  0  0  0  0  0  0
  1  2  1  0  0  0  0
  2  3  1  0  0  0  0
  3  4  1  0  0  0  0
  4  5  1  0  0  0  0
  5  6  1  0  0  0  0
  6  7  1  0  0  0  0
  7  8  1  0  0  0  0
  8  9  1  0  0  0  0
  9 10  1  0  0  0  0
 10 11  1  0  0  0  0
 11 12  1  0  0  0  0
 12 13  1  0  0  0  0
 13 14  1  0  0  0  0
M  END
>  <CHROM.1>
-65.33241659,-59.12036376,-175.52635842,74.17669528,53.82369874,174.59607070
-77.46555502,61.21603984,-139.37917494,177.34776334,62.87680931,50.71151505
0.08149333,-4.28725893,-3.10760997,1.06591263,2.03518584

>  <Name>
ligand

>  <RI>
0

>  <Rbt.Current_Directory>
/home/itssahil/PROJECTS/Mol_Feturizer/New_Systems/rnas/4E8Q

>  <Rbt.Executable>
rbdock ($Id: //depot/dev/client3/rdock/2013.1/src/exe/rbdock.cxx#4 $)

>  <Rbt.Library>
libRbt.so (2013.1, Build901 2013/11/27)

>  <Rbt.Parameter_File>
/export/apps/rDock/src/rDock_2013.1_src/data/scripts/dock_solv.prm

>  <Rbt.Receptor>
prm/pocket_docking_6.prm

>  <SCORE>
-11.5795

>  <SCORE.INTER>
-1.22936

>  <SCORE.INTER.CONST>
1

>  <SCORE.INTER.POLAR>
0

>  <SCORE.INTER.ROT>
11

>  <SCORE.INTER.SOLV>
6.7025

>  <SCORE.INTER.VDW>
-13.9871

>  <SCORE.INTER.norm>
-0.0878112

>  <SCORE.INTRA>
-10.3502

>  <SCORE.INTRA.DIHEDRAL>
-23.3205

>  <SCORE.INTRA.DIHEDRAL.0>
25.9209

>  <SCORE.INTRA.POLAR>
0

>  <SCORE.INTRA.POLAR.0>
0

>  <SCORE.INTRA.REPUL>
0

>  <SCORE.INTRA.REPUL.0>
0

>  <SCORE.INTRA.SOLV>
0.800576

>  <SCORE.INTRA.SOLV.lig_0>
-47.4815

>  <SCORE.INTRA.VDW>
0.909768

>  <SCORE.INTRA.VDW.0>
-1.57492

>  <SCORE.INTRA.norm>
-0.739299

>  <SCORE.RESTR>
0

>  <SCORE.RESTR.CAVITY>
0

>  <SCORE.RESTR.norm>
0

>  <SCORE.SYSTEM>
0

>  <SCORE.SYSTEM.CONST>
0

>  <SCORE.SYSTEM.DIHEDRAL>
0

>  <SCORE.SYSTEM.SOLV>
0

>  <SCORE.SYSTEM.norm>
0

>  <SCORE.heavy>
14

>  <SCORE.norm>
-0.82711

>  <RMSD>
5.771

$$$$
ligand
 OpenBabel11021811493D
libRbt.so/2013.1/901 2013/11/27
 14 13  0  0  0  0  0  0  0  0999 V2000
   52.1382    1.2176   -9.1172 N   0  0  0  0  0  0  0  0  0  0  0  0
   52.3926    0.2095   -8.0954 C   0  0  0  0  0  0  0  0  0  0  0  0
   51.1909    0.0832   -7.1349 C   0  0  0  0  0  0  0  0  0  0  0  0
   49.9017   -0.4555   -7.7865 C   0  0  0  0  0  0  0  0  0  0  0  0
   48.6734   -0.4766   -6.9781 N   0  0  0  0  0  0  0  0  0  0  0  0
   48.3808   -1.5961   -6.0761 C   0  0  0  0  0  0  0  0  0  0  0  0
   48.5240   -1.2834   -4.5838 C   0  0  0  0  0  0  0  0  0  0  0  0
   49.9550   -0.8751   -4.1945 C   0  0  0  0  0  0  0  0  0  0  0  0
   50.1703   -0.7247   -2.6801 C   0  0  0  0  0  0  0  0  0  0  0  0
   51.4995   -0.2447   -2.2950 N   0  0  0  0  0  0  0  0  0  0  0  0
   51.7074    0.2973   -0.9410 C   0  0  0  0  0  0  0  0  0  0  0  0
   51.2954    1.7698   -0.7052 C   0  0  0  0  0  0  0  0  0  0  0  0
   52.0535    2.8214   -1.5404 C   0  0  0  0  0  0  0  0  0  0  0  0
   51.6231    4.1889   -1.2642 N   0  0  0  0  0  0  0  0  0  0  0  0
  1  2  1  0  0  0  0
  2  3  1  0  0  0  0
  3  4  1  0  0  0  0
  4  5  1  0  0  0  0
  5  6  1  0  0  0  0
  6  7  1  0  0  0  0
  7  8  1  0  0  0  0
  8  9  1  0  0  0  0
  9 10  1  0  0  0  0
 10 11  1  0  0  0  0
 11 12  1  0  0  0  0
 12 13  1  0  0  0  0
 13 14  1  0  0  0  0
M  END
>  <CHROM.1>
65.71869889,-173.81702478,-84.74421396,107.69386423,-61.58285781,-172.81793820
-175.87167034,162.80285135,-81.74255689,-62.17448695,-179.63882887,50.67887654
0.35192462,-4.52787105,-1.81497527,0.83139657,1.43640932

>  <Name>
ligand

>  <RI>
0

>  <Rbt.Current_Directory>
/home/itssahil/PROJECTS/Mol_Feturizer/New_Systems/rnas/4E8Q

>  <Rbt.Executable>
rbdock ($Id: //depot/dev/client3/rdock/2013.1/src/exe/rbdock.cxx#4 $)

>  <Rbt.Library>
libRbt.so (2013.1, Build901 2013/11/27)

>  <Rbt.Parameter_File>
/export/apps/rDock/src/rDock_2013.1_src/data/scripts/dock_solv.prm

>  <Rbt.Receptor>
prm/pocket_docking_4.prm

>  <SCORE>
-13.3472

>  <SCORE.INTER>
-1.53954

>  <SCORE.INTER.CONST>
1

>  <SCORE.INTER.POLAR>
0

>  <SCORE.INTER.ROT>
11

>  <SCORE.INTER.SOLV>
8.71761

>  <SCORE.INTER.VDW>
-14.8656

>  <SCORE.INTER.norm>
-0.109967

>  <SCORE.INTRA>
-11.8077

>  <SCORE.INTRA.DIHEDRAL>
-23.2563

>  <SCORE.INTRA.DIHEDRAL.0>
25.9209

>  <SCORE.INTRA.POLAR>
0

>  <SCORE.INTRA.POLAR.0>
0

>  <SCORE.INTRA.REPUL>
0

>  <SCORE.INTRA.REPUL.0>
0

>  <SCORE.INTRA.SOLV>
-0.820156

>  <SCORE.INTRA.SOLV.lig_0>
-47.4815

>  <SCORE.INTRA.VDW>
0.230586

>  <SCORE.INTRA.VDW.0>
-1.57492

>  <SCORE.INTRA.norm>
-0.843404

>  <SCORE.RESTR>
0

>  <SCORE.RESTR.CAVITY>
0

>  <SCORE.RESTR.norm>
0

>  <SCORE.SYSTEM>
0

>  <SCORE.SYSTEM.CONST>
0

>  <SCORE.SYSTEM.DIHEDRAL>
0

>  <SCORE.SYSTEM.SOLV>
0

>  <SCORE.SYSTEM.norm>
0

>  <SCORE.heavy>
14

>  <SCORE.norm>
-0.953372

>  <RMSD>
5.784

$$$$
ligand
 OpenBabel11021811493D
libRbt.so/2013.1/901 2013/11/27
 14 13  0  0  0  0  0  0  0  0999 V2000
   51.6680    2.9459   -2.2231 N   0  0  0  0  0  0  0  0  0  0  0  0
   51.5065    2.7776   -0.7840 C   0  0  0  0  0  0  0  0  0  0  0  0
   51.9819    1.3791   -0.3362 C   0  0  0  0  0  0  0  0  0  0  0  0
   51.1334    0.2096   -0.8739 C   0  0  0  0  0  0  0  0  0  0  0  0
   51.0133    0.0535   -2.3312 N   0  0  0  0  0  0  0  0  0  0  0  0
   50.0170   -0.8513   -2.9153 C   0  0  0  0  0  0  0  0  0  0  0  0
   49.9769   -0.8735   -4.4461 C   0  0  0  0  0  0  0  0  0  0  0  0
   48.9095   -1.8319   -5.0010 C   0  0  0  0  0  0  0  0  0  0  0  0
   48.9690   -2.0159   -6.5259 C   0  0  0  0  0  0  0  0  0  0  0  0
   48.6988   -0.8023   -7.3003 N   0  0  0  0  0  0  0  0  0  0  0  0
   49.7845    0.1677   -7.5251 C   0  0  0  0  0  0  0  0  0  0  0  0
   51.0664   -0.3622   -8.2103 C   0  0  0  0  0  0  0  0  0  0  0  0
   52.1827    0.6762   -8.4418 C   0  0  0  0  0  0  0  0  0  0  0  0
   52.6325    1.3160   -7.2089 N   0  0  0  0  0  0  0  0  0  0  0  0
  1  2  1  0  0  0  0
  2  3  1  0  0  0  0
  3  4  1  0  0  0  0
  4  5  1  0  0  0  0
  5  6  1  0  0  0  0
  6  7  1  0  0  0  0
  7  8  1  0  0  0  0
  8  9  1  0  0  0  0
  9 10  1  0  0  0  0
 10 11  1  0  0  0  0
 11 12  1  0  0  0  0
 12 13  1  0  0  0  0
 13 14  1  0  0  0  0
M  END
>  <CHROM.1>
-66.07374117,59.02127280,-167.37668902,177.97853126,-179.65669727,-172.35790759
-63.75727422,82.45956178,56.89475764,179.60924824,57.97416086,50.68132370
0.19888667,-4.58014635,-1.32068215,-0.84061042,-1.66967495

>  <Name>
ligand

>  <RI>
0

>  <Rbt.Current_Directory>
/home/itssahil/PROJECTS/Mol_Feturizer/New_Systems/rnas/4E8Q

>  <Rbt.Executable>
rbdock ($Id: //depot/dev/client3/rdock/2013.1/src/exe/rbdock.cxx#4 $)

>  <Rbt.Library>
libRbt.so (2013.1, Build901 2013/11/27)

>  <Rbt.Parameter_File>
/export/apps/rDock/src/rDock_2013.1_src/data/scripts/dock_solv.prm

>  <Rbt.Receptor>
prm/pocket_docking_4.prm

>  <SCORE>
-11.7279

>  <SCORE.INTER>
-0.872252

>  <SCORE.INTER.CONST>
1

>  <SCORE.INTER.POLAR>
0

>  <SCORE.INTER.ROT>
11

>  <SCORE.INTER.SOLV>
9.48914

>  <SCORE.INTER.VDW>
-14.6779

>  <SCORE.INTER.norm>
-0.0623037

>  <SCORE.INTRA>
-10.8557

>  <SCORE.INTRA.DIHEDRAL>
-24.9605

>  <SCORE.INTRA.DIHEDRAL.0>
25.9209

>  <SCORE.INTRA.POLAR>
0

>  <SCORE.INTRA.POLAR.0>
0

>  <SCORE.INTRA.REPUL>
0

>  <SCORE.INTRA.REPUL.0>
0

>  <SCORE.INTRA.SOLV>
1.90814

>  <SCORE.INTRA.SOLV.lig_0>
-47.4815

>  <SCORE.INTRA.VDW>
0.670542

>  <SCORE.INTRA.VDW.0>
-1.57492

>  <SCORE.INTRA.norm>
-0.775405

>  <SCORE.RESTR>
0

>  <SCORE.RESTR.CAVITY>
0

>  <SCORE.RESTR.norm>
0

>  <SCORE.SYSTEM>
0

>  <SCORE.SYSTEM.CONST>
0

>  <SCORE.SYSTEM.DIHEDRAL>
0

>  <SCORE.SYSTEM.SOLV>
0

>  <SCORE.SYSTEM.norm>
0

>  <SCORE.heavy>
14

>  <SCORE.norm>
-0.837708

>  <RMSD>
5.846

$$$$
ligand
 OpenBabel11021811493D
libRbt.so/2013.1/901 2013/11/27
 14 13  0  0  0  0  0  0  0  0999 V2000
   48.2799   -1.7607   -9.6739 N   0  0  0  0  0  0  0  0  0  0  0  0
   47.5470   -1.4860   -8.4440 C   0  0  0  0  0  0  0  0  0  0  0  0
   48.4386   -1.7238   -7.2067 C   0  0  0  0  0  0  0  0  0  0  0  0
   47.7449   -1.4615   -5.8551 C   0  0  0  0  0  0  0  0  0  0  0  0
   48.5364   -1.6261   -4.6266 N   0  0  0  0  0  0  0  0  0  0  0  0
   49.5351   -0.6267   -4.2309 C   0  0  0  0  0  0  0  0  0  0  0  0
   50.1469   -0.8333   -2.8422 C   0  0  0  0  0  0  0  0  0  0  0  0
   51.0645    0.3253   -2.4163 C   0  0  0  0  0  0  0  0  0  0  0  0
   51.4782    0.2814   -0.9366 C   0  0  0  0  0  0  0  0  0  0  0  0
   52.1385    1.4945   -0.4489 N   0  0  0  0  0  0  0  0  0  0  0  0
   51.3305    2.5529    0.1815 C   0  0  0  0  0  0  0  0  0  0  0  0
   51.1006    3.8425   -0.6416 C   0  0  0  0  0  0  0  0  0  0  0  0
   50.3913    3.6560   -1.9981 C   0  0  0  0  0  0  0  0  0  0  0  0
   50.2170    4.9080   -2.7286 N   0  0  0  0  0  0  0  0  0  0  0  0
  1  2  1  0  0  0  0
  2  3  1  0  0  0  0
  3  4  1  0  0  0  0
  4  5  1  0  0  0  0
  5  6  1  0  0  0  0
  6  7  1  0  0  0  0
  7  8  1  0  0  0  0
  8  9  1  0  0  0  0
  9 10  1  0  0  0  0
 10 11  1  0  0  0  0
 11 12  1  0  0  0  0
 12 13  1  0  0  0  0
 13 14  1  0  0  0  0
M  END
>  <CHROM.1>
-179.83019528,-178.22277567,74.91536136,172.21993342,-173.51060008,168.98421248
-169.12444867,92.81047874,-106.77546082,59.42841825,-179.45898465,49.85355332
0.53867530,-3.70458918,2.58702496,1.13505766,-3.12177479

>  <Name>
ligand

>  <RI>
0

>  <Rbt.Current_Directory>
/home/itssahil/PROJECTS/Mol_Feturizer/New_Systems/rnas/4E8Q

>  <Rbt.Executable>
rbdock ($Id: //depot/dev/client3/rdock/2013.1/src/exe/rbdock.cxx#4 $)

>  <Rbt.Library>
libRbt.so (2013.1, Build901 2013/11/27)

>  <Rbt.Parameter_File>
/export/apps/rDock/src/rDock_2013.1_src/data/scripts/dock_solv.prm

>  <Rbt.Receptor>
prm/pocket_docking_8.prm

>  <SCORE>
-13.7627

>  <SCORE.INTER>
-1.64877

>  <SCORE.INTER.CONST>
1

>  <SCORE.INTER.POLAR>
0

>  <SCORE.INTER.ROT>
11

>  <SCORE.INTER.SOLV>
9.02215

>  <SCORE.INTER.VDW>
-15.0399

>  <SCORE.INTER.norm>
-0.117769

>  <SCORE.INTRA>
-12.1139

>  <SCORE.INTRA.DIHEDRAL>
-22.8454

>  <SCORE.INTRA.DIHEDRAL.0>
25.9209

>  <SCORE.INTRA.POLAR>
0

>  <SCORE.INTRA.POLAR.0>
0

>  <SCORE.INTRA.REPUL>
0

>  <SCORE.INTRA.REPUL.0>
0

>  <SCORE.INTRA.SOLV>
-1.76711

>  <SCORE.INTRA.SOLV.lig_0>
-47.4815

>  <SCORE.INTRA.VDW>
0.192352

>  <SCORE.INTRA.VDW.0>
-1.57492

>  <SCORE.INTRA.norm>
-0.865279

>  <SCORE.RESTR>
0

>  <SCORE.RESTR.CAVITY>
0

>  <SCORE.RESTR.norm>
0

>  <SCORE.SYSTEM>
0

>  <SCORE.SYSTEM.CONST>
0

>  <SCORE.SYSTEM.DIHEDRAL>
0

>  <SCORE.SYSTEM.SOLV>
0

>  <SCORE.SYSTEM.norm>
0

>  <SCORE.heavy>
14

>  <SCORE.norm>
-0.983048

>  <RMSD>
5.855

$$$$
ligand
 OpenBabel11021811493D
libRbt.so/2013.1/901 2013/11/27
 14 13  0  0  0  0  0  0  0  0999 V2000
   53.0412    5.2845   -3.8648 N   0  0  0  0  0  0  0  0  0  0  0  0
   53.7443    4.1104   -4.3672 C   0  0  0  0  0  0  0  0  0  0  0  0
   53.7667    2.9871   -3.3088 C   0  0  0  0  0  0  0  0  0  0  0  0
   52.3805    2.4178   -2.9469 C   0  0  0  0  0  0  0  0  0  0  0  0
   52.3155    1.3215   -1.9688 N   0  0  0  0  0  0  0  0  0  0  0  0
   51.1599    0.4189   -1.9202 C   0  0  0  0  0  0  0  0  0  0  0  0
   50.9929   -0.4901   -3.1413 C   0  0  0  0  0  0  0  0  0  0  0  0
   50.5889    0.2819   -4.4088 C   0  0  0  0  0  0  0  0  0  0  0  0
   50.3256   -0.6159   -5.6283 C   0  0  0  0  0  0  0  0  0  0  0  0
   49.9658    0.1035   -6.8524 N   0  0  0  0  0  0  0  0  0  0  0  0
   49.6987   -0.6573   -8.0854 C   0  0  0  0  0  0  0  0  0  0  0  0
   49.5635    0.1558   -9.3946 C   0  0  0  0  0  0  0  0  0  0  0  0
   49.2786   -0.6650  -10.6686 C   0  0  0  0  0  0  0  0  0  0  0  0
   49.2185    0.1550  -11.8750 N   0  0  0  0  0  0  0  0  0  0  0  0
  1  2  1  0  0  0  0
  2  3  1  0  0  0  0
  3  4  1  0  0  0  0
  4  5  1  0  0  0  0
  5  6  1  0  0  0  0
  6  7  1  0  0  0  0
  7  8  1  0  0  0  0
  8  9  1  0  0  0  0
  9 10  1  0  0  0  0
 10 11  1  0  0  0  0
 11 12  1  0  0  0  0
 12 13  1  0  0  0  0
 13 14  1  0  0  0  0
M  END
>  <CHROM.1>
64.48531442,178.58880091,-157.91190125,67.10229041,-69.38347613,-176.25036624
-178.82177569,179.66275908,-169.81114840,-179.76223499,-177.57910949,51.14576075
1.05746122,-5.60200316,-0.74459513,-1.00572643,-1.21454277

>  <Name>
ligand

>  <RI>
0

>  <Rbt.Current_Directory>
/home/itssahil/PROJECTS/Mol_Feturizer/New_Systems/rnas/4E8Q

>  <Rbt.Executable>
rbdock ($Id: //depot/dev/client3/rdock/2013.1/src/exe/rbdock.cxx#4 $)

>  <Rbt.Library>
libRbt.so (2013.1, Build901 2013/11/27)

>  <Rbt.Parameter_File>
/export/apps/rDock/src/rDock_2013.1_src/data/scripts/dock_solv.prm

>  <Rbt.Receptor>
prm/pocket_docking_7.prm

>  <SCORE>
-9.52086

>  <SCORE.INTER>
2.66368

>  <SCORE.INTER.CONST>
1

>  <SCORE.INTER.POLAR>
0

>  <SCORE.INTER.ROT>
11

>  <SCORE.INTER.SOLV>
5.16336

>  <SCORE.INTER.VDW>
-10.8787

>  <SCORE.INTER.norm>
0.190263

>  <SCORE.INTRA>
-12.1845

>  <SCORE.INTRA.DIHEDRAL>
-24.9418

>  <SCORE.INTRA.DIHEDRAL.0>
25.9209

>  <SCORE.INTRA.POLAR>
0

>  <SCORE.INTRA.POLAR.0>
0

>  <SCORE.INTRA.REPUL>
0

>  <SCORE.INTRA.REPUL.0>
0

>  <SCORE.INTRA.SOLV>
-1.1377

>  <SCORE.INTRA.SOLV.lig_0>
-47.4815

>  <SCORE.INTRA.VDW>
0.855195

>  <SCORE.INTRA.VDW.0>
-1.57492

>  <SCORE.INTRA.norm>
-0.870324

>  <SCORE.RESTR>
0

>  <SCORE.RESTR.CAVITY>
0

>  <SCORE.RESTR.norm>
0

>  <SCORE.SYSTEM>
0

>  <SCORE.SYSTEM.CONST>
0

>  <SCORE.SYSTEM.DIHEDRAL>
0

>  <SCORE.SYSTEM.SOLV>
0

>  <SCORE.SYSTEM.norm>
0

>  <SCORE.heavy>
14

>  <SCORE.norm>
-0.680062

>  <RMSD>
5.857

$$$$
ligand
 OpenBabel11021811493D
libRbt.so/2013.1/901 2013/11/27
 14 13  0  0  0  0  0  0  0  0999 V2000
   51.9968    3.3479   -1.6454 N   0  0  0  0  0  0  0  0  0  0  0  0
   52.3566    2.6913   -0.3945 C   0  0  0  0  0  0  0  0  0  0  0  0
   51.3637    1.5572   -0.0623 C   0  0  0  0  0  0  0  0  0  0  0  0
   51.4211    0.3518   -1.0217 C   0  0  0  0  0  0  0  0  0  0  0  0
   51.0820    0.5747   -2.4353 N   0  0  0  0  0  0  0  0  0  0  0  0
   51.0631   -0.5368   -3.3928 C   0  0  0  0  0  0  0  0  0  0  0  0
   50.5252   -0.1879   -4.7836 C   0  0  0  0  0  0  0  0  0  0  0  0
   49.0743    0.3217   -4.7514 C   0  0  0  0  0  0  0  0  0  0  0  0
   48.0509   -0.7382   -4.3131 C   0  0  0  0  0  0  0  0  0  0  0  0
   48.0140   -1.9380   -5.1524 N   0  0  0  0  0  0  0  0  0  0  0  0
   47.4838   -1.8442   -6.5237 C   0  0  0  0  0  0  0  0  0  0  0  0
   48.4787   -1.4259   -7.6321 C   0  0  0  0  0  0  0  0  0  0  0  0
   47.8764   -1.2373   -9.0391 C   0  0  0  0  0  0  0  0  0  0  0  0
   48.8613   -0.8142  -10.0303 N   0  0  0  0  0  0  0  0  0  0  0  0
  1  2  1  0  0  0  0
  2  3  1  0  0  0  0
  3  4  1  0  0  0  0
  4  5  1  0  0  0  0
  5  6  1  0  0  0  0
  6  7  1  0  0  0  0
  7  8  1  0  0  0  0
  8  9  1  0  0  0  0
  9 10  1  0  0  0  0
 10 11  1  0  0  0  0
 11 12  1  0  0  0  0
 12 13  1  0  0  0  0
 13 14  1  0  0  0  0
M  END
>  <CHROM.1>
67.76802210,-62.83036163,-177.52052566,172.69835952,-60.00914278,-66.23916664
-58.87047692,-69.69349691,86.38023137,-175.77878811,178.70405126,49.83192078
0.00860963,-4.36965937,-0.88878477,-0.84192722,-1.44532831

>  <Name>
ligand

>  <RI>
0

>  <Rbt.Current_Directory>
/home/itssahil/PROJECTS/Mol_Feturizer/New_Systems/rnas/4E8Q

>  <Rbt.Executable>
rbdock ($Id: //depot/dev/client3/rdock/2013.1/src/exe/rbdock.cxx#4 $)

>  <Rbt.Library>
libRbt.so (2013.1, Build901 2013/11/27)

>  <Rbt.Parameter_File>
/export/apps/rDock/src/rDock_2013.1_src/data/scripts/dock_solv.prm

>  <Rbt.Receptor>
prm/pocket_docking_7.prm

>  <SCORE>
-15.131

>  <SCORE.INTER>
-4.17401

>  <SCORE.INTER.CONST>
1

>  <SCORE.INTER.POLAR>
0

>  <SCORE.INTER.ROT>
11

>  <SCORE.INTER.SOLV>
8.65348

>  <SCORE.INTER.VDW>
-16.6005

>  <SCORE.INTER.norm>
-0.298143

>  <SCORE.INTRA>
-10.957

>  <SCORE.INTRA.DIHEDRAL>
-24.8144

>  <SCORE.INTRA.DIHEDRAL.0>
25.9209

>  <SCORE.INTRA.POLAR>
0

>  <SCORE.INTRA.POLAR.0>
0

>  <SCORE.INTRA.REPUL>
0

>  <SCORE.INTRA.REPUL.0>
0

>  <SCORE.INTRA.SOLV>
1.64594

>  <SCORE.INTRA.SOLV.lig_0>
-47.4815

>  <SCORE.INTRA.VDW>
0.627214

>  <SCORE.INTRA.VDW.0>
-1.57492

>  <SCORE.INTRA.norm>
-0.782643

>  <SCORE.RESTR>
0

>  <SCORE.RESTR.CAVITY>
0

>  <SCORE.RESTR.norm>
0

>  <SCORE.SYSTEM>
0

>  <SCORE.SYSTEM.CONST>
0

>  <SCORE.SYSTEM.DIHEDRAL>
0

>  <SCORE.SYSTEM.SOLV>
0

>  <SCORE.SYSTEM.norm>
0

>  <SCORE.heavy>
14

>  <SCORE.norm>
-1.08079

>  <RMSD>
5.862

$$$$
ligand
 OpenBabel11021811493D
libRbt.so/2013.1/901 2013/11/27
 14 13  0  0  0  0  0  0  0  0999 V2000
   47.3062   -2.9386   -8.2490 N   0  0  0  0  0  0  0  0  0  0  0  0
   47.5182   -2.9983   -6.8080 C   0  0  0  0  0  0  0  0  0  0  0  0
   48.0696   -1.6582   -6.2763 C   0  0  0  0  0  0  0  0  0  0  0  0
   48.3700   -1.6418   -4.7643 C   0  0  0  0  0  0  0  0  0  0  0  0
   48.8532   -0.3876   -4.1676 N   0  0  0  0  0  0  0  0  0  0  0  0
   50.1850    0.1383   -4.4876 C   0  0  0  0  0  0  0  0  0  0  0  0
   51.3135   -0.3494   -3.5744 C   0  0  0  0  0  0  0  0  0  0  0  0
   51.1442    0.1140   -2.1175 C   0  0  0  0  0  0  0  0  0  0  0  0
   51.3106    1.6295   -1.9220 C   0  0  0  0  0  0  0  0  0  0  0  0
   52.5990    2.1665   -2.3660 N   0  0  0  0  0  0  0  0  0  0  0  0
   52.6706    2.9195   -3.6303 C   0  0  0  0  0  0  0  0  0  0  0  0
   54.0823    3.2209   -4.1869 C   0  0  0  0  0  0  0  0  0  0  0  0
   54.1338    4.1333   -5.4290 C   0  0  0  0  0  0  0  0  0  0  0  0
   53.3864    3.5975   -6.5629 N   0  0  0  0  0  0  0  0  0  0  0  0
  1  2  1  0  0  0  0
  2  3  1  0  0  0  0
  3  4  1  0  0  0  0
  4  5  1  0  0  0  0
  5  6  1  0  0  0  0
  6  7  1  0  0  0  0
  7  8  1  0  0  0  0
  8  9  1  0  0  0  0
  9 10  1  0  0  0  0
 10 11  1  0  0  0  0
 11 12  1  0  0  0  0
 12 13  1  0  0  0  0
 13 14  1  0  0  0  0
M  END
>  <CHROM.1>
-178.06807098,-177.85116056,-68.57869762,-89.52995179,-64.20210272,-67.99977941
-57.74727313,104.25638502,-168.35523099,-173.88581519,-58.75505328,50.78170603
0.56752936,-4.60982430,-2.89988211,0.79266063,1.65068995

>  <Name>
ligand

>  <RI>
0

>  <Rbt.Current_Directory>
/home/itssahil/PROJECTS/Mol_Feturizer/New_Systems/rnas/4E8Q

>  <Rbt.Executable>
rbdock ($Id: //depot/dev/client3/rdock/2013.1/src/exe/rbdock.cxx#4 $)

>  <Rbt.Library>
libRbt.so (2013.1, Build901 2013/11/27)

>  <Rbt.Parameter_File>
/export/apps/rDock/src/rDock_2013.1_src/data/scripts/dock_solv.prm

>  <Rbt.Receptor>
prm/pocket_docking_7.prm

>  <SCORE>
-13.4803

>  <SCORE.INTER>
-2.16944

>  <SCORE.INTER.CONST>
1

>  <SCORE.INTER.POLAR>
0

>  <SCORE.INTER.ROT>
11

>  <SCORE.INTER.SOLV>
7.99554

>  <SCORE.INTER.VDW>
-15.0448

>  <SCORE.INTER.norm>
-0.15496

>  <SCORE.INTRA>
-11.3109

>  <SCORE.INTRA.DIHEDRAL>
-23.6327

>  <SCORE.INTRA.DIHEDRAL.0>
25.9209

>  <SCORE.INTRA.POLAR>
0

>  <SCORE.INTRA.POLAR.0>
0

>  <SCORE.INTRA.REPUL>
0

>  <SCORE.INTRA.REPUL.0>
0

>  <SCORE.INTRA.SOLV>
-0.195093

>  <SCORE.INTRA.SOLV.lig_0>
-47.4815

>  <SCORE.INTRA.VDW>
0.603033

>  <SCORE.INTRA.VDW.0>
-1.57492

>  <SCORE.INTRA.norm>
-0.807919

>  <SCORE.RESTR>
0

>  <SCORE.RESTR.CAVITY>
0

>  <SCORE.RESTR.norm>
0

>  <SCORE.SYSTEM>
0

>  <SCORE.SYSTEM.CONST>
0

>  <SCORE.SYSTEM.DIHEDRAL>
0

>  <SCORE.SYSTEM.SOLV>
0

>  <SCORE.SYSTEM.norm>
0

>  <SCORE.heavy>
14

>  <SCORE.norm>
-0.962879

>  <RMSD>
5.862

$$$$
ligand
 OpenBabel11021811493D
libRbt.so/2013.1/901 2013/11/27
 14 13  0  0  0  0  0  0  0  0999 V2000
   51.9947    2.7584    1.3631 N   0  0  0  0  0  0  0  0  0  0  0  0
   52.6986    2.7492    0.0866 C   0  0  0  0  0  0  0  0  0  0  0  0
   51.8395    2.0868   -1.0114 C   0  0  0  0  0  0  0  0  0  0  0  0
   51.5729    0.5833   -0.7988 C   0  0  0  0  0  0  0  0  0  0  0  0
   50.7520   -0.1223   -1.7943 N   0  0  0  0  0  0  0  0  0  0  0  0
   51.2381   -0.3340   -3.1623 C   0  0  0  0  0  0  0  0  0  0  0  0
   50.1688   -0.2385   -4.2544 C   0  0  0  0  0  0  0  0  0  0  0  0
   48.9574   -1.1470   -3.9842 C   0  0  0  0  0  0  0  0  0  0  0  0
   47.8423   -1.0283   -5.0353 C   0  0  0  0  0  0  0  0  0  0  0  0
   48.1742   -1.5901   -6.3466 N   0  0  0  0  0  0  0  0  0  0  0  0
   47.1096   -1.7575   -7.3512 C   0  0  0  0  0  0  0  0  0  0  0  0
   47.5467   -2.1997   -8.7678 C   0  0  0  0  0  0  0  0  0  0  0  0
   48.5419   -1.2658   -9.4858 C   0  0  0  0  0  0  0  0  0  0  0  0
   48.0162    0.0809   -9.6898 N   0  0  0  0  0  0  0  0  0  0  0  0
  1  2  1  0  0  0  0
  2  3  1  0  0  0  0
  3  4  1  0  0  0  0
  4  5  1  0  0  0  0
  5  6  1  0  0  0  0
  6  7  1  0  0  0  0
  7  8  1  0  0  0  0
  8  9  1  0  0  0  0
  9 10  1  0  0  0  0
 10 11  1  0  0  0  0
 11 12  1  0  0  0  0
 12 13  1  0  0  0  0
 13 14  1  0  0  0  0
M  END
>  <CHROM.1>
-65.89535095,179.48464841,67.59835908,-143.50268223,-52.83265403,177.62794710
70.37772445,168.84860021,173.09107932,-58.87435908,-60.50874655,49.74663749
-0.10192013,-4.30237713,-0.80407291,-0.91305396,-1.29035245

>  <Name>
ligand

>  <RI>
0

>  <Rbt.Current_Directory>
/home/itssahil/PROJECTS/Mol_Feturizer/New_Systems/rnas/4E8Q

>  <Rbt.Executable>
rbdock ($Id: //depot/dev/client3/rdock/2013.1/src/exe/rbdock.cxx#4 $)

>  <Rbt.Library>
libRbt.so (2013.1, Build901 2013/11/27)

>  <Rbt.Parameter_File>
/export/apps/rDock/src/rDock_2013.1_src/data/scripts/dock_solv.prm

>  <Rbt.Receptor>
prm/pocket_docking_6.prm

>  <SCORE>
-14.0198

>  <SCORE.INTER>
-2.84235

>  <SCORE.INTER.CONST>
1

>  <SCORE.INTER.POLAR>
0

>  <SCORE.INTER.ROT>
11

>  <SCORE.INTER.SOLV>
11.0088

>  <SCORE.INTER.VDW>
-16.4978

>  <SCORE.INTER.norm>
-0.203025

>  <SCORE.INTRA>
-11.1775

>  <SCORE.INTRA.DIHEDRAL>
-24.1852

>  <SCORE.INTRA.DIHEDRAL.0>
25.9209

>  <SCORE.INTRA.POLAR>
0

>  <SCORE.INTRA.POLAR.0>
0

>  <SCORE.INTRA.REPUL>
0

>  <SCORE.INTRA.REPUL.0>
0

>  <SCORE.INTRA.SOLV>
0.901488

>  <SCORE.INTRA.SOLV.lig_0>
-47.4815

>  <SCORE.INTRA.VDW>
0.464355

>  <SCORE.INTRA.VDW.0>
-1.57492

>  <SCORE.INTRA.norm>
-0.798393

>  <SCORE.RESTR>
0

>  <SCORE.RESTR.CAVITY>
0

>  <SCORE.RESTR.norm>
0

>  <SCORE.SYSTEM>
0

>  <SCORE.SYSTEM.CONST>
0

>  <SCORE.SYSTEM.DIHEDRAL>
0

>  <SCORE.SYSTEM.SOLV>
0

>  <SCORE.SYSTEM.norm>
0

>  <SCORE.heavy>
14

>  <SCORE.norm>
-1.00142

>  <RMSD>
5.882

$$$$
ligand
 OpenBabel11021811493D
libRbt.so/2013.1/901 2013/11/27
 14 13  0  0  0  0  0  0  0  0999 V2000
   51.3047   -0.9878  -10.1754 N   0  0  0  0  0  0  0  0  0  0  0  0
   50.5427   -2.0354   -9.5067 C   0  0  0  0  0  0  0  0  0  0  0  0
   49.7425   -1.4612   -8.3183 C   0  0  0  0  0  0  0  0  0  0  0  0
   48.8954   -2.4977   -7.5536 C   0  0  0  0  0  0  0  0  0  0  0  0
   48.0406   -2.0201   -6.4563 N   0  0  0  0  0  0  0  0  0  0  0  0
   48.5336   -1.9825   -5.0750 C   0  0  0  0  0  0  0  0  0  0  0  0
   49.6075   -0.9267   -4.7964 C   0  0  0  0  0  0  0  0  0  0  0  0
   50.1005   -0.9475   -3.3396 C   0  0  0  0  0  0  0  0  0  0  0  0
   51.2634    0.0182   -3.0611 C   0  0  0  0  0  0  0  0  0  0  0  0
   51.7893   -0.0339   -1.6950 N   0  0  0  0  0  0  0  0  0  0  0  0
   51.2588    0.8938   -0.6809 C   0  0  0  0  0  0  0  0  0  0  0  0
   52.2687    1.8628   -0.0217 C   0  0  0  0  0  0  0  0  0  0  0  0
   51.6822    2.8391    1.0180 C   0  0  0  0  0  0  0  0  0  0  0  0
   50.7891    3.8325    0.4288 N   0  0  0  0  0  0  0  0  0  0  0  0
  1  2  1  0  0  0  0
  2  3  1  0  0  0  0
  3  4  1  0  0  0  0
  4  5  1  0  0  0  0
  5  6  1  0  0  0  0
  6  7  1  0  0  0  0
  7  8  1  0  0  0  0
  8  9  1  0  0  0  0
  9 10  1  0  0  0  0
 10 11  1  0  0  0  0
 11 12  1  0  0  0  0
 12 13  1  0  0  0  0
 13 14  1  0  0  0  0
M  END
>  <CHROM.1>
179.60369382,-176.46440503,-91.68817891,69.88738812,-179.16154558,174.99634445
-177.19545209,-93.10426927,-119.91092927,178.97731644,-67.60808473,50.41561280
-0.24634287,-4.23084614,-1.80877076,0.67148964,1.27974165

>  <Name>
ligand

>  <RI>
0

>  <Rbt.Current_Directory>
/home/itssahil/PROJECTS/Mol_Feturizer/New_Systems/rnas/4E8Q

>  <Rbt.Executable>
rbdock ($Id: //depot/dev/client3/rdock/2013.1/src/exe/rbdock.cxx#4 $)

>  <Rbt.Library>
libRbt.so (2013.1, Build901 2013/11/27)

>  <Rbt.Parameter_File>
/export/apps/rDock/src/rDock_2013.1_src/data/scripts/dock_solv.prm

>  <Rbt.Receptor>
prm/pocket_docking_6.prm

>  <SCORE>
-12.8854

>  <SCORE.INTER>
-1.20895

>  <SCORE.INTER.CONST>
1

>  <SCORE.INTER.POLAR>
0

>  <SCORE.INTER.ROT>
11

>  <SCORE.INTER.SOLV>
9.80262

>  <SCORE.INTER.VDW>
-15.0068

>  <SCORE.INTER.norm>
-0.0863537

>  <SCORE.INTRA>
-11.6764

>  <SCORE.INTRA.DIHEDRAL>
-22.8876

>  <SCORE.INTRA.DIHEDRAL.0>
25.9209

>  <SCORE.INTRA.POLAR>
0

>  <SCORE.INTRA.POLAR.0>
0

>  <SCORE.INTRA.REPUL>
0

>  <SCORE.INTRA.REPUL.0>
0

>  <SCORE.INTRA.SOLV>
-1.50264

>  <SCORE.INTRA.SOLV.lig_0>
-47.4815

>  <SCORE.INTRA.VDW>
0.518731

>  <SCORE.INTRA.VDW.0>
-1.57492

>  <SCORE.INTRA.norm>
-0.834029

>  <SCORE.RESTR>
0

>  <SCORE.RESTR.CAVITY>
0

>  <SCORE.RESTR.norm>
0

>  <SCORE.SYSTEM>
0

>  <SCORE.SYSTEM.CONST>
0

>  <SCORE.SYSTEM.DIHEDRAL>
0

>  <SCORE.SYSTEM.SOLV>
0

>  <SCORE.SYSTEM.norm>
0

>  <SCORE.heavy>
14

>  <SCORE.norm>
-0.920382

>  <RMSD>
5.888

$$$$
ligand
 OpenBabel11021811493D
libRbt.so/2013.1/901 2013/11/27
 14 13  0  0  0  0  0  0  0  0999 V2000
   47.4446   -2.7796   -9.1125 N   0  0  0  0  0  0  0  0  0  0  0  0
   46.5885   -1.8826   -8.3460 C   0  0  0  0  0  0  0  0  0  0  0  0
   46.8910   -1.9888   -6.8361 C   0  0  0  0  0  0  0  0  0  0  0  0
   48.2969   -1.5061   -6.4272 C   0  0  0  0  0  0  0  0  0  0  0  0
   48.6568   -1.5492   -5.0019 N   0  0  0  0  0  0  0  0  0  0  0  0
   49.7661   -0.7448   -4.4775 C   0  0  0  0  0  0  0  0  0  0  0  0
   50.0256   -0.8958   -2.9757 C   0  0  0  0  0  0  0  0  0  0  0  0
   51.0780    0.0949   -2.4497 C   0  0  0  0  0  0  0  0  0  0  0  0
   51.2077    0.1120   -0.9182 C   0  0  0  0  0  0  0  0  0  0  0  0
   52.1364    1.1157   -0.3933 N   0  0  0  0  0  0  0  0  0  0  0  0
   51.6022    2.3564    0.1947 C   0  0  0  0  0  0  0  0  0  0  0  0
   51.5327    3.5957   -0.7287 C   0  0  0  0  0  0  0  0  0  0  0  0
   50.6164    3.4638   -1.9621 C   0  0  0  0  0  0  0  0  0  0  0  0
   50.6217    4.6540   -2.8077 N   0  0  0  0  0  0  0  0  0  0  0  0
  1  2  1  0  0  0  0
  2  3  1  0  0  0  0
  3  4  1  0  0  0  0
  4  5  1  0  0  0  0
  5  6  1  0  0  0  0
  6  7  1  0  0  0  0
  7  8  1  0  0  0  0
  8  9  1  0  0  0  0
  9 10  1  0  0  0  0
 10 11  1  0  0  0  0
 11 12  1  0  0  0  0
 12 13  1  0  0  0  0
 13 14  1  0  0  0  0
M  END
>  <CHROM.1>
65.50686863,178.83887244,-160.64087018,-179.84726017,-172.85376328,171.35915574
-175.87765346,102.50107116,-96.24904543,62.31194136,-178.57886351,49.74748876
0.28895227,-3.73130736,2.60900748,1.03181271,3.13252994

>  <Name>
ligand

>  <RI>
0

>  <Rbt.Current_Directory>
/home/itssahil/PROJECTS/Mol_Feturizer/New_Systems/rnas/4E8Q

>  <Rbt.Executable>
rbdock ($Id: //depot/dev/client3/rdock/2013.1/src/exe/rbdock.cxx#4 $)

>  <Rbt.Library>
libRbt.so (2013.1, Build901 2013/11/27)

>  <Rbt.Parameter_File>
/export/apps/rDock/src/rDock_2013.1_src/data/scripts/dock_solv.prm

>  <Rbt.Receptor>
prm/pocket_docking_7.prm

>  <SCORE>
-15.1085

>  <SCORE.INTER>
-3.12151

>  <SCORE.INTER.CONST>
1

>  <SCORE.INTER.POLAR>
0

>  <SCORE.INTER.ROT>
11

>  <SCORE.INTER.SOLV>
8.92905

>  <SCORE.INTER.VDW>
-15.9907

>  <SCORE.INTER.norm>
-0.222965

>  <SCORE.INTRA>
-11.987

>  <SCORE.INTRA.DIHEDRAL>
-23.1703

>  <SCORE.INTRA.DIHEDRAL.0>
25.9209

>  <SCORE.INTRA.POLAR>
0

>  <SCORE.INTRA.POLAR.0>
0

>  <SCORE.INTRA.REPUL>
0

>  <SCORE.INTRA.REPUL.0>
0

>  <SCORE.INTRA.SOLV>
-1.06153

>  <SCORE.INTRA.SOLV.lig_0>
-47.4815

>  <SCORE.INTRA.VDW>
0.128874

>  <SCORE.INTRA.VDW.0>
-1.57492

>  <SCORE.INTRA.norm>
-0.856216

>  <SCORE.RESTR>
0

>  <SCORE.RESTR.CAVITY>
0

>  <SCORE.RESTR.norm>
0

>  <SCORE.SYSTEM>
0

>  <SCORE.SYSTEM.CONST>
0

>  <SCORE.SYSTEM.DIHEDRAL>
0

>  <SCORE.SYSTEM.SOLV>
0

>  <SCORE.SYSTEM.norm>
0

>  <SCORE.heavy>
14

>  <SCORE.norm>
-1.07918

>  <RMSD>
5.889

$$$$
ligand
 OpenBabel11021811493D
libRbt.so/2013.1/901 2013/11/27
 14 13  0  0  0  0  0  0  0  0999 V2000
   52.0343    3.9400    0.7761 N   0  0  0  0  0  0  0  0  0  0  0  0
   52.2782    2.5119    0.9387 C   0  0  0  0  0  0  0  0  0  0  0  0
   51.4859    1.6956   -0.1045 C   0  0  0  0  0  0  0  0  0  0  0  0
   51.8784    1.9723   -1.5695 C   0  0  0  0  0  0  0  0  0  0  0  0
   51.1578    1.2493   -2.6282 N   0  0  0  0  0  0  0  0  0  0  0  0
   51.3747   -0.1852   -2.8467 C   0  0  0  0  0  0  0  0  0  0  0  0
   50.1219   -0.9827   -3.2210 C   0  0  0  0  0  0  0  0  0  0  0  0
   49.5297   -0.5615   -4.5766 C   0  0  0  0  0  0  0  0  0  0  0  0
   48.1795   -1.2214   -4.8991 C   0  0  0  0  0  0  0  0  0  0  0  0
   48.1975   -2.6860   -4.8975 N   0  0  0  0  0  0  0  0  0  0  0  0
   49.1025   -3.3982   -5.8164 C   0  0  0  0  0  0  0  0  0  0  0  0
   48.5470   -3.7439   -7.2183 C   0  0  0  0  0  0  0  0  0  0  0  0
   48.0852   -2.5456   -8.0720 C   0  0  0  0  0  0  0  0  0  0  0  0
   47.5540   -2.9418   -9.3729 N   0  0  0  0  0  0  0  0  0  0  0  0
  1  2  1  0  0  0  0
  2  3  1  0  0  0  0
  3  4  1  0  0  0  0
  4  5  1  0  0  0  0
  5  6  1  0  0  0  0
  6  7  1  0  0  0  0
  7  8  1  0  0  0  0
  8  9  1  0  0  0  0
  9 10  1  0  0  0  0
 10 11  1  0  0  0  0
 11 12  1  0  0  0  0
 12 13  1  0  0  0  0
 13 14  1  0  0  0  0
M  END
>  <CHROM.1>
62.82399161,-179.14857298,-71.55763169,142.30244256,64.59834885,-172.92434977
-57.25131923,-59.13121824,-89.70793127,59.15851887,-179.12091172,49.96627923
-0.49281540,-3.82190682,0.05069298,-1.17930606,-0.58578104

>  <Name>
ligand

>  <RI>
0

>  <Rbt.Current_Directory>
/home/itssahil/PROJECTS/Mol_Feturizer/New_Systems/rnas/4E8Q

>  <Rbt.Executable>
rbdock ($Id: //depot/dev/client3/rdock/2013.1/src/exe/rbdock.cxx#4 $)

>  <Rbt.Library>
libRbt.so (2013.1, Build901 2013/11/27)

>  <Rbt.Parameter_File>
/export/apps/rDock/src/rDock_2013.1_src/data/scripts/dock_solv.prm

>  <Rbt.Receptor>
prm/pocket_docking_7.prm

>  <SCORE>
-14.1734

>  <SCORE.INTER>
-2.80492

>  <SCORE.INTER.CONST>
1

>  <SCORE.INTER.POLAR>
0

>  <SCORE.INTER.ROT>
11

>  <SCORE.INTER.SOLV>
8.73505

>  <SCORE.INTER.VDW>
-15.715

>  <SCORE.INTER.norm>
-0.200351

>  <SCORE.INTRA>
-11.3684

>  <SCORE.INTRA.DIHEDRAL>
-24.0334

>  <SCORE.INTRA.DIHEDRAL.0>
25.9209

>  <SCORE.INTRA.POLAR>
0

>  <SCORE.INTRA.POLAR.0>
0

>  <SCORE.INTRA.REPUL>
0

>  <SCORE.INTRA.REPUL.0>
0

>  <SCORE.INTRA.SOLV>
-0.382994

>  <SCORE.INTRA.SOLV.lig_0>
-47.4815

>  <SCORE.INTRA.VDW>
0.839737

>  <SCORE.INTRA.VDW.0>
-1.57492

>  <SCORE.INTRA.norm>
-0.812031

>  <SCORE.RESTR>
0

>  <SCORE.RESTR.CAVITY>
0

>  <SCORE.RESTR.norm>
0

>  <SCORE.SYSTEM>
0

>  <SCORE.SYSTEM.CONST>
0

>  <SCORE.SYSTEM.DIHEDRAL>
0

>  <SCORE.SYSTEM.SOLV>
0

>  <SCORE.SYSTEM.norm>
0

>  <SCORE.heavy>
14

>  <SCORE.norm>
-1.01238

>  <RMSD>
5.901

$$$$
ligand
 OpenBabel11021811493D
libRbt.so/2013.1/901 2013/11/27
 14 13  0  0  0  0  0  0  0  0999 V2000
   53.0443    2.7766   -7.3986 N   0  0  0  0  0  0  0  0  0  0  0  0
   52.5522    1.4046   -7.3733 C   0  0  0  0  0  0  0  0  0  0  0  0
   51.3316    1.2743   -6.4375 C   0  0  0  0  0  0  0  0  0  0  0  0
   50.6929   -0.1284   -6.4064 C   0  0  0  0  0  0  0  0  0  0  0  0
   49.4808   -0.3200   -5.5960 N   0  0  0  0  0  0  0  0  0  0  0  0
   49.4310   -1.3353   -4.5381 C   0  0  0  0  0  0  0  0  0  0  0  0
   49.8206   -0.8399   -3.1423 C   0  0  0  0  0  0  0  0  0  0  0  0
   51.2835   -0.3713   -3.0626 C   0  0  0  0  0  0  0  0  0  0  0  0
   51.6688    0.2416   -1.7067 C   0  0  0  0  0  0  0  0  0  0  0  0
   50.9370    1.4608   -1.3555 N   0  0  0  0  0  0  0  0  0  0  0  0
   51.1056    2.6681   -2.1829 C   0  0  0  0  0  0  0  0  0  0  0  0
   50.2754    3.9114   -1.7850 C   0  0  0  0  0  0  0  0  0  0  0  0
   50.4811    5.1645   -2.6599 C   0  0  0  0  0  0  0  0  0  0  0  0
   49.6633    6.2975   -2.2365 N   0  0  0  0  0  0  0  0  0  0  0  0
  1  2  1  0  0  0  0
  2  3  1  0  0  0  0
  3  4  1  0  0  0  0
  4  5  1  0  0  0  0
  5  6  1  0  0  0  0
  6  7  1  0  0  0  0
  7  8  1  0  0  0  0
  8  9  1  0  0  0  0
  9 10  1  0  0  0  0
 10 11  1  0  0  0  0
 11 12  1  0  0  0  0
 12 13  1  0  0  0  0
 13 14  1  0  0  0  0
M  END
>  <CHROM.1>
176.78811901,-176.75422014,-123.34740995,92.33214725,-63.65578005,175.10444032
-62.85848193,-64.16121185,178.30087631,179.45403091,179.63129717,50.84059509
1.58564934,-3.99145384,-1.21863049,1.26692742,0.40751841

>  <Name>
ligand

>  <RI>
0

>  <Rbt.Current_Directory>
/home/itssahil/PROJECTS/Mol_Feturizer/New_Systems/rnas/4E8Q

>  <Rbt.Executable>
rbdock ($Id: //depot/dev/client3/rdock/2013.1/src/exe/rbdock.cxx#4 $)

>  <Rbt.Library>
libRbt.so (2013.1, Build901 2013/11/27)

>  <Rbt.Parameter_File>
/export/apps/rDock/src/rDock_2013.1_src/data/scripts/dock_solv.prm

>  <Rbt.Receptor>
prm/pocket_docking_7.prm

>  <SCORE>
-11.2131

>  <SCORE.INTER>
1.16532

>  <SCORE.INTER.CONST>
1

>  <SCORE.INTER.POLAR>
0

>  <SCORE.INTER.ROT>
11

>  <SCORE.INTER.SOLV>
7.1158

>  <SCORE.INTER.VDW>
-12.5284

>  <SCORE.INTER.norm>
0.0832373

>  <SCORE.INTRA>
-12.3784

>  <SCORE.INTRA.DIHEDRAL>
-23.7789

>  <SCORE.INTRA.DIHEDRAL.0>
25.9209

>  <SCORE.INTRA.POLAR>
0

>  <SCORE.INTRA.POLAR.0>
0

>  <SCORE.INTRA.REPUL>
0

>  <SCORE.INTRA.REPUL.0>
0

>  <SCORE.INTRA.SOLV>
-1.39576

>  <SCORE.INTRA.SOLV.lig_0>
-47.4815

>  <SCORE.INTRA.VDW>
0.20893

>  <SCORE.INTRA.VDW.0>
-1.57492

>  <SCORE.INTRA.norm>
-0.88417

>  <SCORE.RESTR>
0

>  <SCORE.RESTR.CAVITY>
0

>  <SCORE.RESTR.norm>
0

>  <SCORE.SYSTEM>
0

>  <SCORE.SYSTEM.CONST>
0

>  <SCORE.SYSTEM.DIHEDRAL>
0

>  <SCORE.SYSTEM.SOLV>
0

>  <SCORE.SYSTEM.norm>
0

>  <SCORE.heavy>
14

>  <SCORE.norm>
-0.800933

>  <RMSD>
5.927

$$$$
ligand
 OpenBabel11021811493D
libRbt.so/2013.1/901 2013/11/27
 14 13  0  0  0  0  0  0  0  0999 V2000
   51.3601    3.8708    1.8738 N   0  0  0  0  0  0  0  0  0  0  0  0
   52.1027    3.2238    0.7990 C   0  0  0  0  0  0  0  0  0  0  0  0
   51.1513    2.4560   -0.1432 C   0  0  0  0  0  0  0  0  0  0  0  0
   51.8104    1.9335   -1.4353 C   0  0  0  0  0  0  0  0  0  0  0  0
   50.9641    1.2246   -2.4069 N   0  0  0  0  0  0  0  0  0  0  0  0
   51.3403   -0.1004   -2.9123 C   0  0  0  0  0  0  0  0  0  0  0  0
   50.1693   -1.0497   -3.1826 C   0  0  0  0  0  0  0  0  0  0  0  0
   49.2800   -0.5833   -4.3477 C   0  0  0  0  0  0  0  0  0  0  0  0
   48.2210   -1.6124   -4.7745 C   0  0  0  0  0  0  0  0  0  0  0  0
   47.3520   -1.1784   -5.8707 N   0  0  0  0  0  0  0  0  0  0  0  0
   46.9891   -2.1380   -6.9281 C   0  0  0  0  0  0  0  0  0  0  0  0
   47.8221   -2.0926   -8.2309 C   0  0  0  0  0  0  0  0  0  0  0  0
   47.7903   -0.7577   -9.0024 C   0  0  0  0  0  0  0  0  0  0  0  0
   48.5847   -0.7864  -10.2270 N   0  0  0  0  0  0  0  0  0  0  0  0
  1  2  1  0  0  0  0
  2  3  1  0  0  0  0
  3  4  1  0  0  0  0
  4  5  1  0  0  0  0
  5  6  1  0  0  0  0
  6  7  1  0  0  0  0
  7  8  1  0  0  0  0
  8  9  1  0  0  0  0
  9 10  1  0  0  0  0
 10 11  1  0  0  0  0
 11 12  1  0  0  0  0
 12 13  1  0  0  0  0
 13 14  1  0  0  0  0
M  END
>  <CHROM.1>
170.42348135,-178.24798863,-127.63289279,145.12641254,67.02190834,171.60784252
179.17988740,139.27923230,-97.21175997,-60.36153420,-179.41551756,49.63841530
0.17187776,-4.05630536,-0.91323288,-0.90850671,-1.48514140

>  <Name>
ligand

>  <RI>
0

>  <Rbt.Current_Directory>
/home/itssahil/PROJECTS/Mol_Feturizer/New_Systems/rnas/4E8Q

>  <Rbt.Executable>
rbdock ($Id: //depot/dev/client3/rdock/2013.1/src/exe/rbdock.cxx#4 $)

>  <Rbt.Library>
libRbt.so (2013.1, Build901 2013/11/27)

>  <Rbt.Parameter_File>
/export/apps/rDock/src/rDock_2013.1_src/data/scripts/dock_solv.prm

>  <Rbt.Receptor>
prm/pocket_docking_7.prm

>  <SCORE>
-13.1684

>  <SCORE.INTER>
-1.9036

>  <SCORE.INTER.CONST>
1

>  <SCORE.INTER.POLAR>
0

>  <SCORE.INTER.ROT>
11

>  <SCORE.INTER.SOLV>
9.20775

>  <SCORE.INTER.VDW>
-15.2716

>  <SCORE.INTER.norm>
-0.135971

>  <SCORE.INTRA>
-11.2648

>  <SCORE.INTRA.DIHEDRAL>
-21.4453

>  <SCORE.INTRA.DIHEDRAL.0>
25.9209

>  <SCORE.INTRA.POLAR>
0

>  <SCORE.INTRA.POLAR.0>
0

>  <SCORE.INTRA.REPUL>
0

>  <SCORE.INTRA.REPUL.0>
0

>  <SCORE.INTRA.SOLV>
-1.49982

>  <SCORE.INTRA.SOLV.lig_0>
-47.4815

>  <SCORE.INTRA.VDW>
0.207801

>  <SCORE.INTRA.VDW.0>
-1.57492

>  <SCORE.INTRA.norm>
-0.804625

>  <SCORE.RESTR>
0

>  <SCORE.RESTR.CAVITY>
0

>  <SCORE.RESTR.norm>
0

>  <SCORE.SYSTEM>
0

>  <SCORE.SYSTEM.CONST>
0

>  <SCORE.SYSTEM.DIHEDRAL>
0

>  <SCORE.SYSTEM.SOLV>
0

>  <SCORE.SYSTEM.norm>
0

>  <SCORE.heavy>
14

>  <SCORE.norm>
-0.940596

>  <RMSD>
5.928

$$$$
ligand
 OpenBabel11021811493D
libRbt.so/2013.1/901 2013/11/27
 14 13  0  0  0  0  0  0  0  0999 V2000
   52.5272   -1.5627  -11.5386 N   0  0  0  0  0  0  0  0  0  0  0  0
   52.3874   -1.4837  -10.0897 C   0  0  0  0  0  0  0  0  0  0  0  0
   52.4680   -0.0196   -9.6076 C   0  0  0  0  0  0  0  0  0  0  0  0
   52.2923    0.1667   -8.0874 C   0  0  0  0  0  0  0  0  0  0  0  0
   51.0472   -0.3140   -7.4698 N   0  0  0  0  0  0  0  0  0  0  0  0
   50.7234    0.0035   -6.0745 C   0  0  0  0  0  0  0  0  0  0  0  0
   49.8823   -1.0490   -5.3464 C   0  0  0  0  0  0  0  0  0  0  0  0
   49.5714   -0.6614   -3.8907 C   0  0  0  0  0  0  0  0  0  0  0  0
   50.8172   -0.5370   -2.9990 C   0  0  0  0  0  0  0  0  0  0  0  0
   50.5344   -0.3142   -1.5792 N   0  0  0  0  0  0  0  0  0  0  0  0
   51.5732    0.2808   -0.7206 C   0  0  0  0  0  0  0  0  0  0  0  0
   51.4869    1.8052   -0.4709 C   0  0  0  0  0  0  0  0  0  0  0  0
   51.5134    2.6947   -1.7303 C   0  0  0  0  0  0  0  0  0  0  0  0
   51.4878    4.1216   -1.4227 N   0  0  0  0  0  0  0  0  0  0  0  0
  1  2  1  0  0  0  0
  2  3  1  0  0  0  0
  3  4  1  0  0  0  0
  4  5  1  0  0  0  0
  5  6  1  0  0  0  0
  6  7  1  0  0  0  0
  7  8  1  0  0  0  0
  8  9  1  0  0  0  0
  9 10  1  0  0  0  0
 10 11  1  0  0  0  0
 11 12  1  0  0  0  0
 12 13  1  0  0  0  0
 13 14  1  0  0  0  0
M  END
>  <CHROM.1>
178.45550408,-58.46530956,-170.86977318,-149.78257874,-179.85650618,-63.02351662
-173.58683036,-158.62940267,97.03361988,-57.76837030,-177.48037168,51.30796071
0.22351522,-5.07322263,-1.34218241,1.06595008,1.08998762

>  <Name>
ligand

>  <RI>
0

>  <Rbt.Current_Directory>
/home/itssahil/PROJECTS/Mol_Feturizer/New_Systems/rnas/4E8Q

>  <Rbt.Executable>
rbdock ($Id: //depot/dev/client3/rdock/2013.1/src/exe/rbdock.cxx#4 $)

>  <Rbt.Library>
libRbt.so (2013.1, Build901 2013/11/27)

>  <Rbt.Parameter_File>
/export/apps/rDock/src/rDock_2013.1_src/data/scripts/dock_solv.prm

>  <Rbt.Receptor>
prm/pocket_docking_8.prm

>  <SCORE>
-15.2675

>  <SCORE.INTER>
-3.27422

>  <SCORE.INTER.CONST>
1

>  <SCORE.INTER.POLAR>
0

>  <SCORE.INTER.ROT>
11

>  <SCORE.INTER.SOLV>
9.12447

>  <SCORE.INTER.VDW>
-16.1576

>  <SCORE.INTER.norm>
-0.233873

>  <SCORE.INTRA>
-11.9933

>  <SCORE.INTRA.DIHEDRAL>
-23.8396

>  <SCORE.INTRA.DIHEDRAL.0>
25.9209

>  <SCORE.INTRA.POLAR>
0

>  <SCORE.INTRA.POLAR.0>
0

>  <SCORE.INTRA.REPUL>
0

>  <SCORE.INTRA.REPUL.0>
0

>  <SCORE.INTRA.SOLV>
-1.33089

>  <SCORE.INTRA.SOLV.lig_0>
-47.4815

>  <SCORE.INTRA.VDW>
0.591894

>  <SCORE.INTRA.VDW.0>
-1.57492

>  <SCORE.INTRA.norm>
-0.856666

>  <SCORE.RESTR>
0

>  <SCORE.RESTR.CAVITY>
0

>  <SCORE.RESTR.norm>
0

>  <SCORE.SYSTEM>
0

>  <SCORE.SYSTEM.CONST>
0

>  <SCORE.SYSTEM.DIHEDRAL>
0

>  <SCORE.SYSTEM.SOLV>
0

>  <SCORE.SYSTEM.norm>
0

>  <SCORE.heavy>
14

>  <SCORE.norm>
-1.09054

>  <RMSD>
5.962

$$$$
ligand
 OpenBabel11021811493D
libRbt.so/2013.1/901 2013/11/27
 14 13  0  0  0  0  0  0  0  0999 V2000
   48.3352   -3.8761   -8.7910 N   0  0  0  0  0  0  0  0  0  0  0  0
   48.3268   -4.0176   -7.3401 C   0  0  0  0  0  0  0  0  0  0  0  0
   48.3380   -2.6360   -6.6519 C   0  0  0  0  0  0  0  0  0  0  0  0
   48.3213   -2.6858   -5.1111 C   0  0  0  0  0  0  0  0  0  0  0  0
   48.3537   -1.4122   -4.3764 N   0  0  0  0  0  0  0  0  0  0  0  0
   49.6119   -0.8788   -3.8428 C   0  0  0  0  0  0  0  0  0  0  0  0
   50.5285   -0.2180   -4.8765 C   0  0  0  0  0  0  0  0  0  0  0  0
   49.8704    0.9839   -5.5753 C   0  0  0  0  0  0  0  0  0  0  0  0
   49.5716    2.1638   -4.6367 C   0  0  0  0  0  0  0  0  0  0  0  0
   50.7558    2.7933   -4.0479 N   0  0  0  0  0  0  0  0  0  0  0  0
   50.9988    2.6631   -2.6006 C   0  0  0  0  0  0  0  0  0  0  0  0
   51.6022    1.3258   -2.1094 C   0  0  0  0  0  0  0  0  0  0  0  0
   51.7138    1.1608   -0.5802 C   0  0  0  0  0  0  0  0  0  0  0  0
   52.3574   -0.0889   -0.1859 N   0  0  0  0  0  0  0  0  0  0  0  0
  1  2  1  0  0  0  0
  2  3  1  0  0  0  0
  3  4  1  0  0  0  0
  4  5  1  0  0  0  0
  5  6  1  0  0  0  0
  6  7  1  0  0  0  0
  7  8  1  0  0  0  0
  8  9  1  0  0  0  0
  9 10  1  0  0  0  0
 10 11  1  0  0  0  0
 11 12  1  0  0  0  0
 12 13  1  0  0  0  0
 13 14  1  0  0  0  0
M  END
>  <CHROM.1>
179.63753104,178.98262835,-97.57684927,77.39863493,60.36209283,65.10620097
64.12708046,-111.86844269,78.83785421,-174.05462825,-176.82928871,49.90608872
-0.33720521,-4.33754538,2.80408970,1.13492693,2.77111632

>  <Name>
ligand

>  <RI>
0

>  <Rbt.Current_Directory>
/home/itssahil/PROJECTS/Mol_Feturizer/New_Systems/rnas/4E8Q

>  <Rbt.Executable>
rbdock ($Id: //depot/dev/client3/rdock/2013.1/src/exe/rbdock.cxx#4 $)

>  <Rbt.Library>
libRbt.so (2013.1, Build901 2013/11/27)

>  <Rbt.Parameter_File>
/export/apps/rDock/src/rDock_2013.1_src/data/scripts/dock_solv.prm

>  <Rbt.Receptor>
prm/pocket_docking_8.prm

>  <SCORE>
-10.94

>  <SCORE.INTER>
0.718133

>  <SCORE.INTER.CONST>
1

>  <SCORE.INTER.POLAR>
0

>  <SCORE.INTER.ROT>
11

>  <SCORE.INTER.SOLV>
12.5387

>  <SCORE.INTER.VDW>
-14.6341

>  <SCORE.INTER.norm>
0.0512952

>  <SCORE.INTRA>
-11.6581

>  <SCORE.INTRA.DIHEDRAL>
-23.093

>  <SCORE.INTRA.DIHEDRAL.0>
25.9209

>  <SCORE.INTRA.POLAR>
0

>  <SCORE.INTRA.POLAR.0>
0

>  <SCORE.INTRA.REPUL>
0

>  <SCORE.INTRA.REPUL.0>
0

>  <SCORE.INTRA.SOLV>
-0.844375

>  <SCORE.INTRA.SOLV.lig_0>
-47.4815

>  <SCORE.INTRA.VDW>
0.310612

>  <SCORE.INTRA.VDW.0>
-1.57492

>  <SCORE.INTRA.norm>
-0.832721

>  <SCORE.RESTR>
0

>  <SCORE.RESTR.CAVITY>
0

>  <SCORE.RESTR.norm>
0

>  <SCORE.SYSTEM>
0

>  <SCORE.SYSTEM.CONST>
0

>  <SCORE.SYSTEM.DIHEDRAL>
0

>  <SCORE.SYSTEM.SOLV>
0

>  <SCORE.SYSTEM.norm>
0

>  <SCORE.heavy>
14

>  <SCORE.norm>
-0.781426

>  <RMSD>
5.989

$$$$
ligand
 OpenBabel11021811493D
libRbt.so/2013.1/901 2013/11/27
 14 13  0  0  0  0  0  0  0  0999 V2000
   48.1034   -1.8804   -9.1535 N   0  0  0  0  0  0  0  0  0  0  0  0
   46.9151   -1.6055   -8.3550 C   0  0  0  0  0  0  0  0  0  0  0  0
   46.5433   -2.8239   -7.4833 C   0  0  0  0  0  0  0  0  0  0  0  0
   47.5977   -3.2011   -6.4237 C   0  0  0  0  0  0  0  0  0  0  0  0
   47.9688   -2.1881   -5.4243 N   0  0  0  0  0  0  0  0  0  0  0  0
   49.3506   -1.7080   -5.3112 C   0  0  0  0  0  0  0  0  0  0  0  0
   49.6234   -0.7868   -4.1186 C   0  0  0  0  0  0  0  0  0  0  0  0
   51.0926   -0.3393   -4.0344 C   0  0  0  0  0  0  0  0  0  0  0  0
   51.3956    0.5850   -2.8442 C   0  0  0  0  0  0  0  0  0  0  0  0
   51.2110   -0.0307   -1.5281 N   0  0  0  0  0  0  0  0  0  0  0  0
   51.6930    0.6737   -0.3272 C   0  0  0  0  0  0  0  0  0  0  0  0
   51.1367    2.0958   -0.0789 C   0  0  0  0  0  0  0  0  0  0  0  0
   51.6725    2.8174    1.1742 C   0  0  0  0  0  0  0  0  0  0  0  0
   51.0778    4.1359    1.3723 N   0  0  0  0  0  0  0  0  0  0  0  0
  1  2  1  0  0  0  0
  2  3  1  0  0  0  0
  3  4  1  0  0  0  0
  4  5  1  0  0  0  0
  5  6  1  0  0  0  0
  6  7  1  0  0  0  0
  7  8  1  0  0  0  0
  8  9  1  0  0  0  0
  9 10  1  0  0  0  0
 10 11  1  0  0  0  0
 11 12  1  0  0  0  0
 12 13  1  0  0  0  0
 13 14  1  0  0  0  0
M  END
>  <CHROM.1>
63.72694316,58.67398920,-119.67110609,-172.76059916,178.79711222,-179.89852634
64.06595132,169.36468470,57.39217392,-179.19233311,-178.22620848,49.67013568
-0.30413225,-3.75258881,2.10492453,0.67810004,-2.46016198

>  <Name>
ligand

>  <RI>
0

>  <Rbt.Current_Directory>
/home/itssahil/PROJECTS/Mol_Feturizer/New_Systems/rnas/4E8Q

>  <Rbt.Executable>
rbdock ($Id: //depot/dev/client3/rdock/2013.1/src/exe/rbdock.cxx#4 $)

>  <Rbt.Library>
libRbt.so (2013.1, Build901 2013/11/27)

>  <Rbt.Parameter_File>
/export/apps/rDock/src/rDock_2013.1_src/data/scripts/dock_solv.prm

>  <Rbt.Receptor>
prm/pocket_docking_6.prm

>  <SCORE>
-15.3692

>  <SCORE.INTER>
-3.93175

>  <SCORE.INTER.CONST>
1

>  <SCORE.INTER.POLAR>
0

>  <SCORE.INTER.ROT>
11

>  <SCORE.INTER.SOLV>
10.5319

>  <SCORE.INTER.VDW>
-17.0651

>  <SCORE.INTER.norm>
-0.28084

>  <SCORE.INTRA>
-11.4374

>  <SCORE.INTRA.DIHEDRAL>
-24.4409

>  <SCORE.INTRA.DIHEDRAL.0>
25.9209

>  <SCORE.INTRA.POLAR>
0

>  <SCORE.INTRA.POLAR.0>
0

>  <SCORE.INTRA.REPUL>
0

>  <SCORE.INTRA.REPUL.0>
0

>  <SCORE.INTRA.SOLV>
0.377035

>  <SCORE.INTRA.SOLV.lig_0>
-47.4815

>  <SCORE.INTRA.VDW>
0.594516

>  <SCORE.INTRA.VDW.0>
-1.57492

>  <SCORE.INTRA.norm>
-0.81696

>  <SCORE.RESTR>
0

>  <SCORE.RESTR.CAVITY>
0

>  <SCORE.RESTR.norm>
0

>  <SCORE.SYSTEM>
0

>  <SCORE.SYSTEM.CONST>
0

>  <SCORE.SYSTEM.DIHEDRAL>
0

>  <SCORE.SYSTEM.SOLV>
0

>  <SCORE.SYSTEM.norm>
0

>  <SCORE.heavy>
14

>  <SCORE.norm>
-1.0978

>  <RMSD>
5.994

$$$$
ligand
 OpenBabel11021811493D
libRbt.so/2013.1/901 2013/11/27
 14 13  0  0  0  0  0  0  0  0999 V2000
   52.3202    3.8874    0.4791 N   0  0  0  0  0  0  0  0  0  0  0  0
   52.3703    2.8181   -0.5106 C   0  0  0  0  0  0  0  0  0  0  0  0
   51.5161    1.6129   -0.0630 C   0  0  0  0  0  0  0  0  0  0  0  0
   51.5650    0.4018   -1.0157 C   0  0  0  0  0  0  0  0  0  0  0  0
   51.0613    0.5776   -2.3861 N   0  0  0  0  0  0  0  0  0  0  0  0
   51.3361   -0.4196   -3.4266 C   0  0  0  0  0  0  0  0  0  0  0  0
   50.2680   -0.5315   -4.5184 C   0  0  0  0  0  0  0  0  0  0  0  0
   48.8897   -0.9320   -3.9656 C   0  0  0  0  0  0  0  0  0  0  0  0
   47.7588   -0.8688   -5.0047 C   0  0  0  0  0  0  0  0  0  0  0  0
   47.8837   -1.8275   -6.1051 N   0  0  0  0  0  0  0  0  0  0  0  0
   46.8052   -1.9249   -7.1041 C   0  0  0  0  0  0  0  0  0  0  0  0
   47.1994   -2.4266   -8.5135 C   0  0  0  0  0  0  0  0  0  0  0  0
   48.2578   -1.5846   -9.2545 C   0  0  0  0  0  0  0  0  0  0  0  0
   47.8254   -0.2123   -9.5019 N   0  0  0  0  0  0  0  0  0  0  0  0
  1  2  1  0  0  0  0
  2  3  1  0  0  0  0
  3  4  1  0  0  0  0
  4  5  1  0  0  0  0
  5  6  1  0  0  0  0
  6  7  1  0  0  0  0
  7  8  1  0  0  0  0
  8  9  1  0  0  0  0
  9 10  1  0  0  0  0
 10 11  1  0  0  0  0
 11 12  1  0  0  0  0
 12 13  1  0  0  0  0
 13 14  1  0  0  0  0
M  END
>  <CHROM.1>
-177.06682778,-62.50070602,166.60735438,150.55816530,-60.54772802,172.22586968
65.40604054,175.45660382,153.64673665,-59.29750386,-61.41603358,49.64687840
-0.10241948,-4.34932176,-0.64490391,-0.96277492,-1.19237302

>  <Name>
ligand

>  <RI>
0

>  <Rbt.Current_Directory>
/home/itssahil/PROJECTS/Mol_Feturizer/New_Systems/rnas/4E8Q

>  <Rbt.Executable>
rbdock ($Id: //depot/dev/client3/rdock/2013.1/src/exe/rbdock.cxx#4 $)

>  <Rbt.Library>
libRbt.so (2013.1, Build901 2013/11/27)

>  <Rbt.Parameter_File>
/export/apps/rDock/src/rDock_2013.1_src/data/scripts/dock_solv.prm

>  <Rbt.Receptor>
prm/pocket_docking_6.prm

>  <SCORE>
-15.7384

>  <SCORE.INTER>
-3.99978

>  <SCORE.INTER.CONST>
1

>  <SCORE.INTER.POLAR>
0

>  <SCORE.INTER.ROT>
11

>  <SCORE.INTER.SOLV>
10.1535

>  <SCORE.INTER.VDW>
-16.9844

>  <SCORE.INTER.norm>
-0.285698

>  <SCORE.INTRA>
-11.7387

>  <SCORE.INTRA.DIHEDRAL>
-24.2673

>  <SCORE.INTRA.DIHEDRAL.0>
25.9209

>  <SCORE.INTRA.POLAR>
0

>  <SCORE.INTRA.POLAR.0>
0

>  <SCORE.INTRA.REPUL>
0

>  <SCORE.INTRA.REPUL.0>
0

>  <SCORE.INTRA.SOLV>
0.600838

>  <SCORE.INTRA.SOLV.lig_0>
-47.4815

>  <SCORE.INTRA.VDW>
0.0945622

>  <SCORE.INTRA.VDW.0>
-1.57492

>  <SCORE.INTRA.norm>
-0.838476

>  <SCORE.RESTR>
0

>  <SCORE.RESTR.CAVITY>
0

>  <SCORE.RESTR.norm>
0

>  <SCORE.SYSTEM>
0

>  <SCORE.SYSTEM.CONST>
0

>  <SCORE.SYSTEM.DIHEDRAL>
0

>  <SCORE.SYSTEM.SOLV>
0

>  <SCORE.SYSTEM.norm>
0

>  <SCORE.heavy>
14

>  <SCORE.norm>
-1.12417

>  <RMSD>
5.998

$$$$
ligand
 OpenBabel11021811493D
libRbt.so/2013.1/901 2013/11/27
 14 13  0  0  0  0  0  0  0  0999 V2000
   58.4380    2.5551    7.5834 N   0  0  0  0  0  0  0  0  0  0  0  0
   57.5331    3.2562    6.6807 C   0  0  0  0  0  0  0  0  0  0  0  0
   57.7616    2.8149    5.2194 C   0  0  0  0  0  0  0  0  0  0  0  0
   59.1450    3.1817    4.6464 C   0  0  0  0  0  0  0  0  0  0  0  0
   59.4639    2.7512    3.2768 N   0  0  0  0  0  0  0  0  0  0  0  0
   58.7658    3.3261    2.1215 C   0  0  0  0  0  0  0  0  0  0  0  0
   57.5215    2.5586    1.6657 C   0  0  0  0  0  0  0  0  0  0  0  0
   56.6638    3.3528    0.6659 C   0  0  0  0  0  0  0  0  0  0  0  0
   57.3387    3.5729   -0.6974 C   0  0  0  0  0  0  0  0  0  0  0  0
   56.5375    4.3292   -1.6625 N   0  0  0  0  0  0  0  0  0  0  0  0
   56.4195    5.7904   -1.5158 C   0  0  0  0  0  0  0  0  0  0  0  0
   55.9255    6.5807   -2.7507 C   0  0  0  0  0  0  0  0  0  0  0  0
   54.5303    6.1940   -3.2815 C   0  0  0  0  0  0  0  0  0  0  0  0
   54.1455    6.9421   -4.4748 N   0  0  0  0  0  0  0  0  0  0  0  0
  1  2  1  0  0  0  0
  2  3  1  0  0  0  0
  3  4  1  0  0  0  0
  4  5  1  0  0  0  0
  5  6  1  0  0  0  0
  6  7  1  0  0  0  0
  7  8  1  0  0  0  0
  8  9  1  0  0  0  0
  9 10  1  0  0  0  0
 10 11  1  0  0  0  0
 11 12  1  0  0  0  0
 12 13  1  0  0  0  0
 13 14  1  0  0  0  0
M  END
>  <CHROM.1>
-64.83228667,177.66151835,67.93654800,-92.13007931,167.51688111,67.54374737
-179.92259630,76.37650029,162.80306936,59.47586756,-177.90138460,57.15640750
4.08611315,1.24839980,1.14353403,-0.69421014,1.64187391

>  <Name>
ligand

>  <RI>
0

>  <Rbt.Current_Directory>
/home/itssahil/PROJECTS/Mol_Feturizer/New_Systems/rnas/4E8Q

>  <Rbt.Executable>
rbdock ($Id: //depot/dev/client3/rdock/2013.1/src/exe/rbdock.cxx#4 $)

>  <Rbt.Library>
libRbt.so (2013.1, Build901 2013/11/27)

>  <Rbt.Parameter_File>
/export/apps/rDock/src/rDock_2013.1_src/data/scripts/dock_solv.prm

>  <Rbt.Receptor>
prm/pocket_docking_6.prm

>  <SCORE>
-7.68478

>  <SCORE.INTER>
3.80056

>  <SCORE.INTER.CONST>
1

>  <SCORE.INTER.POLAR>
0

>  <SCORE.INTER.ROT>
11

>  <SCORE.INTER.SOLV>
8.16742

>  <SCORE.INTER.VDW>
-11.1221

>  <SCORE.INTER.norm>
0.271469

>  <SCORE.INTRA>
-11.4853

>  <SCORE.INTRA.DIHEDRAL>
-23.8377

>  <SCORE.INTRA.DIHEDRAL.0>
25.9209

>  <SCORE.INTRA.POLAR>
0

>  <SCORE.INTRA.POLAR.0>
0

>  <SCORE.INTRA.REPUL>
0

>  <SCORE.INTRA.REPUL.0>
0

>  <SCORE.INTRA.SOLV>
-1.02698

>  <SCORE.INTRA.SOLV.lig_0>
-47.4815

>  <SCORE.INTRA.VDW>
0.947008

>  <SCORE.INTRA.VDW.0>
-1.57492

>  <SCORE.INTRA.norm>
-0.820381

>  <SCORE.RESTR>
0

>  <SCORE.RESTR.CAVITY>
0

>  <SCORE.RESTR.norm>
0

>  <SCORE.SYSTEM>
0

>  <SCORE.SYSTEM.CONST>
0

>  <SCORE.SYSTEM.DIHEDRAL>
0

>  <SCORE.SYSTEM.SOLV>
0

>  <SCORE.SYSTEM.norm>
0

>  <SCORE.heavy>
14

>  <SCORE.norm>
-0.548913

>  <RMSD>
6.034

$$$$
ligand
 OpenBabel11021811493D
libRbt.so/2013.1/901 2013/11/27
 14 13  0  0  0  0  0  0  0  0999 V2000
   48.5123   -1.9554   -9.5694 N   0  0  0  0  0  0  0  0  0  0  0  0
   47.6852   -0.9129   -8.9741 C   0  0  0  0  0  0  0  0  0  0  0  0
   46.5741   -1.5260   -8.0954 C   0  0  0  0  0  0  0  0  0  0  0  0
   47.0827   -2.2869   -6.8549 C   0  0  0  0  0  0  0  0  0  0  0  0
   47.8550   -1.5387   -5.8516 N   0  0  0  0  0  0  0  0  0  0  0  0
   48.8103   -2.2197   -4.9706 C   0  0  0  0  0  0  0  0  0  0  0  0
   49.3999   -1.3511   -3.8556 C   0  0  0  0  0  0  0  0  0  0  0  0
   50.3486   -0.2627   -4.3861 C   0  0  0  0  0  0  0  0  0  0  0  0
   51.0739    0.5240   -3.2826 C   0  0  0  0  0  0  0  0  0  0  0  0
   51.8017    1.7059   -3.7504 N   0  0  0  0  0  0  0  0  0  0  0  0
   52.4284    2.6048   -2.7656 C   0  0  0  0  0  0  0  0  0  0  0  0
   51.4788    3.3883   -1.8287 C   0  0  0  0  0  0  0  0  0  0  0  0
   52.1612    4.3238   -0.8103 C   0  0  0  0  0  0  0  0  0  0  0  0
   53.0487    3.6175    0.1090 N   0  0  0  0  0  0  0  0  0  0  0  0
  1  2  1  0  0  0  0
  2  3  1  0  0  0  0
  3  4  1  0  0  0  0
  4  5  1  0  0  0  0
  5  6  1  0  0  0  0
  6  7  1  0  0  0  0
  7  8  1  0  0  0  0
  8  9  1  0  0  0  0
  9 10  1  0  0  0  0
 10 11  1  0  0  0  0
 11 12  1  0  0  0  0
 12 13  1  0  0  0  0
 13 14  1  0  0  0  0
M  END
>  <CHROM.1>
64.89995548,61.06209929,-154.86490112,-172.14999910,-69.03481936,-173.65136000
-170.11034982,174.33575611,-66.35444610,-179.86712531,-60.55470641,49.87560052
0.29357407,-4.63468653,-2.72343920,0.99796039,1.99165948

>  <Name>
ligand

>  <RI>
0

>  <Rbt.Current_Directory>
/home/itssahil/PROJECTS/Mol_Feturizer/New_Systems/rnas/4E8Q

>  <Rbt.Executable>
rbdock ($Id: //depot/dev/client3/rdock/2013.1/src/exe/rbdock.cxx#4 $)

>  <Rbt.Library>
libRbt.so (2013.1, Build901 2013/11/27)

>  <Rbt.Parameter_File>
/export/apps/rDock/src/rDock_2013.1_src/data/scripts/dock_solv.prm

>  <Rbt.Receptor>
prm/pocket_docking_6.prm

>  <SCORE>
-11.2237

>  <SCORE.INTER>
0.287155

>  <SCORE.INTER.CONST>
1

>  <SCORE.INTER.POLAR>
0

>  <SCORE.INTER.ROT>
11

>  <SCORE.INTER.SOLV>
7.30244

>  <SCORE.INTER.VDW>
-13.176

>  <SCORE.INTER.norm>
0.0205111

>  <SCORE.INTRA>
-11.5109

>  <SCORE.INTRA.DIHEDRAL>
-24.4347

>  <SCORE.INTRA.DIHEDRAL.0>
25.9209

>  <SCORE.INTRA.POLAR>
0

>  <SCORE.INTRA.POLAR.0>
0

>  <SCORE.INTRA.REPUL>
0

>  <SCORE.INTRA.REPUL.0>
0

>  <SCORE.INTRA.SOLV>
0.497335

>  <SCORE.INTRA.SOLV.lig_0>
-47.4815

>  <SCORE.INTRA.VDW>
0.457836

>  <SCORE.INTRA.VDW.0>
-1.57492

>  <SCORE.INTRA.norm>
-0.822204

>  <SCORE.RESTR>
0

>  <SCORE.RESTR.CAVITY>
0

>  <SCORE.RESTR.norm>
0

>  <SCORE.SYSTEM>
0

>  <SCORE.SYSTEM.CONST>
0

>  <SCORE.SYSTEM.DIHEDRAL>
0

>  <SCORE.SYSTEM.SOLV>
0

>  <SCORE.SYSTEM.norm>
0

>  <SCORE.heavy>
14

>  <SCORE.norm>
-0.801693

>  <RMSD>
6.059

$$$$
ligand
 OpenBabel11021811493D
libRbt.so/2013.1/901 2013/11/27
 14 13  0  0  0  0  0  0  0  0999 V2000
   51.7726    3.6492    0.9193 N   0  0  0  0  0  0  0  0  0  0  0  0
   51.1222    2.6134    0.1261 C   0  0  0  0  0  0  0  0  0  0  0  0
   52.0841    1.4351   -0.1364 C   0  0  0  0  0  0  0  0  0  0  0  0
   51.4812    0.2873   -0.9705 C   0  0  0  0  0  0  0  0  0  0  0  0
   51.0653    0.5783   -2.3507 N   0  0  0  0  0  0  0  0  0  0  0  0
   51.3132   -0.3805   -3.4333 C   0  0  0  0  0  0  0  0  0  0  0  0
   50.2353   -0.4271   -4.5201 C   0  0  0  0  0  0  0  0  0  0  0  0
   48.8536   -0.8242   -3.9732 C   0  0  0  0  0  0  0  0  0  0  0  0
   47.7707   -0.9618   -5.0553 C   0  0  0  0  0  0  0  0  0  0  0  0
   48.0026   -2.0390   -6.0204 N   0  0  0  0  0  0  0  0  0  0  0  0
   47.0034   -2.2933   -7.0727 C   0  0  0  0  0  0  0  0  0  0  0  0
   47.1558   -1.4970   -8.3904 C   0  0  0  0  0  0  0  0  0  0  0  0
   48.5038   -1.6597   -9.1214 C   0  0  0  0  0  0  0  0  0  0  0  0
   48.5811   -0.8849  -10.3565 N   0  0  0  0  0  0  0  0  0  0  0  0
  1  2  1  0  0  0  0
  2  3  1  0  0  0  0
  3  4  1  0  0  0  0
  4  5  1  0  0  0  0
  5  6  1  0  0  0  0
  6  7  1  0  0  0  0
  7  8  1  0  0  0  0
  8  9  1  0  0  0  0
  9 10  1  0  0  0  0
 10 11  1  0  0  0  0
 11 12  1  0  0  0  0
 12 13  1  0  0  0  0
 13 14  1  0  0  0  0
M  END
>  <CHROM.1>
179.98343271,63.00874529,139.74161483,145.61100963,-60.56400692,-176.49884044
64.58752499,177.80678632,88.25423974,57.33998334,179.90099557,49.63883404
-0.17193144,-4.31104364,-1.04512995,-0.68262904,-1.63318078

>  <Name>
ligand

>  <RI>
0

>  <Rbt.Current_Directory>
/home/itssahil/PROJECTS/Mol_Feturizer/New_Systems/rnas/4E8Q

>  <Rbt.Executable>
rbdock ($Id: //depot/dev/client3/rdock/2013.1/src/exe/rbdock.cxx#4 $)

>  <Rbt.Library>
libRbt.so (2013.1, Build901 2013/11/27)

>  <Rbt.Parameter_File>
/export/apps/rDock/src/rDock_2013.1_src/data/scripts/dock_solv.prm

>  <Rbt.Receptor>
prm/pocket_docking_7.prm

>  <SCORE>
-16.6897

>  <SCORE.INTER>
-4.67401

>  <SCORE.INTER.CONST>
1

>  <SCORE.INTER.POLAR>
0

>  <SCORE.INTER.ROT>
11

>  <SCORE.INTER.SOLV>
9.10919

>  <SCORE.INTER.VDW>
-17.0857

>  <SCORE.INTER.norm>
-0.333858

>  <SCORE.INTRA>
-12.0157

>  <SCORE.INTRA.DIHEDRAL>
-23.5354

>  <SCORE.INTRA.DIHEDRAL.0>
25.9209

>  <SCORE.INTRA.POLAR>
0

>  <SCORE.INTRA.POLAR.0>
0

>  <SCORE.INTRA.REPUL>
0

>  <SCORE.INTRA.REPUL.0>
0

>  <SCORE.INTRA.SOLV>
-0.822861

>  <SCORE.INTRA.SOLV.lig_0>
-47.4815

>  <SCORE.INTRA.VDW>
0.16342

>  <SCORE.INTRA.VDW.0>
-1.57492

>  <SCORE.INTRA.norm>
-0.858265

>  <SCORE.RESTR>
0

>  <SCORE.RESTR.CAVITY>
0

>  <SCORE.RESTR.norm>
0

>  <SCORE.SYSTEM>
0

>  <SCORE.SYSTEM.CONST>
0

>  <SCORE.SYSTEM.DIHEDRAL>
0

>  <SCORE.SYSTEM.SOLV>
0

>  <SCORE.SYSTEM.norm>
0

>  <SCORE.heavy>
14

>  <SCORE.norm>
-1.19212

>  <RMSD>
6.066

$$$$
ligand
 OpenBabel11021811493D
libRbt.so/2013.1/901 2013/11/27
 14 13  0  0  0  0  0  0  0  0999 V2000
   53.2870    2.0545   -6.7691 N   0  0  0  0  0  0  0  0  0  0  0  0
   52.0088    1.3609   -6.8706 C   0  0  0  0  0  0  0  0  0  0  0  0
   52.0758    0.2336   -7.9229 C   0  0  0  0  0  0  0  0  0  0  0  0
   50.7314   -0.4688   -8.1982 C   0  0  0  0  0  0  0  0  0  0  0  0
   50.0851   -1.1869   -7.0894 N   0  0  0  0  0  0  0  0  0  0  0  0
   48.6273   -1.3445   -7.0382 C   0  0  0  0  0  0  0  0  0  0  0  0
   48.0713   -1.8179   -5.6920 C   0  0  0  0  0  0  0  0  0  0  0  0
   48.4127   -0.8621   -4.5363 C   0  0  0  0  0  0  0  0  0  0  0  0
   49.9059   -0.8314   -4.1731 C   0  0  0  0  0  0  0  0  0  0  0  0
   50.2570    0.1056   -3.1033 N   0  0  0  0  0  0  0  0  0  0  0  0
   51.5900    0.0250   -2.4812 C   0  0  0  0  0  0  0  0  0  0  0  0
   51.6849    0.3847   -0.9795 C   0  0  0  0  0  0  0  0  0  0  0  0
   51.3191    1.8370   -0.6122 C   0  0  0  0  0  0  0  0  0  0  0  0
   52.2082    2.8217   -1.2216 N   0  0  0  0  0  0  0  0  0  0  0  0
  1  2  1  0  0  0  0
  2  3  1  0  0  0  0
  3  4  1  0  0  0  0
  4  5  1  0  0  0  0
  5  6  1  0  0  0  0
  6  7  1  0  0  0  0
  7  8  1  0  0  0  0
  8  9  1  0  0  0  0
  9 10  1  0  0  0  0
 10 11  1  0  0  0  0
 11 12  1  0  0  0  0
 12 13  1  0  0  0  0
 13 14  1  0  0  0  0
M  END
>  <CHROM.1>
-174.40422999,-62.29909365,151.83305134,-166.48693439,59.33061492,-68.52849430
178.11556489,167.41768905,-146.81098040,-63.13467467,-62.58102761,50.73289157
0.16478819,-4.76350299,-1.84309983,0.66260289,1.42201794

>  <Name>
ligand

>  <RI>
0

>  <Rbt.Current_Directory>
/home/itssahil/PROJECTS/Mol_Feturizer/New_Systems/rnas/4E8Q

>  <Rbt.Executable>
rbdock ($Id: //depot/dev/client3/rdock/2013.1/src/exe/rbdock.cxx#4 $)

>  <Rbt.Library>
libRbt.so (2013.1, Build901 2013/11/27)

>  <Rbt.Parameter_File>
/export/apps/rDock/src/rDock_2013.1_src/data/scripts/dock_solv.prm

>  <Rbt.Receptor>
prm/pocket_docking_5.prm

>  <SCORE>
-13.1007

>  <SCORE.INTER>
-1.85077

>  <SCORE.INTER.CONST>
1

>  <SCORE.INTER.POLAR>
0

>  <SCORE.INTER.ROT>
11

>  <SCORE.INTER.SOLV>
9.91384

>  <SCORE.INTER.VDW>
-15.4718

>  <SCORE.INTER.norm>
-0.132198

>  <SCORE.INTRA>
-11.2499

>  <SCORE.INTRA.DIHEDRAL>
-23.8941

>  <SCORE.INTRA.DIHEDRAL.0>
25.9209

>  <SCORE.INTRA.POLAR>
0

>  <SCORE.INTRA.POLAR.0>
0

>  <SCORE.INTRA.REPUL>
0

>  <SCORE.INTRA.REPUL.0>
0

>  <SCORE.INTRA.SOLV>
0.963466

>  <SCORE.INTRA.SOLV.lig_0>
-47.4815

>  <SCORE.INTRA.VDW>
0.215416

>  <SCORE.INTRA.VDW.0>
-1.57492

>  <SCORE.INTRA.norm>
-0.803563

>  <SCORE.RESTR>
0

>  <SCORE.RESTR.CAVITY>
0

>  <SCORE.RESTR.norm>
0

>  <SCORE.SYSTEM>
0

>  <SCORE.SYSTEM.CONST>
0

>  <SCORE.SYSTEM.DIHEDRAL>
0

>  <SCORE.SYSTEM.SOLV>
0

>  <SCORE.SYSTEM.norm>
0

>  <SCORE.heavy>
14

>  <SCORE.norm>
-0.935761

>  <RMSD>
6.074

$$$$
ligand
 OpenBabel11021811493D
libRbt.so/2013.1/901 2013/11/27
 14 13  0  0  0  0  0  0  0  0999 V2000
   50.5925    4.1693    1.6644 N   0  0  0  0  0  0  0  0  0  0  0  0
   51.6515    3.3751    1.0539 C   0  0  0  0  0  0  0  0  0  0  0  0
   51.0650    2.1669    0.2931 C   0  0  0  0  0  0  0  0  0  0  0  0
   52.1168    1.2350   -0.3410 C   0  0  0  0  0  0  0  0  0  0  0  0
   51.6430    0.0390   -1.0536 N   0  0  0  0  0  0  0  0  0  0  0  0
   51.2014    0.1164   -2.4506 C   0  0  0  0  0  0  0  0  0  0  0  0
   50.1135   -0.8867   -2.8452 C   0  0  0  0  0  0  0  0  0  0  0  0
   49.7295   -0.7959   -4.3319 C   0  0  0  0  0  0  0  0  0  0  0  0
   48.5661   -1.7171   -4.7327 C   0  0  0  0  0  0  0  0  0  0  0  0
   48.2391   -1.7050   -6.1604 N   0  0  0  0  0  0  0  0  0  0  0  0
   49.0167   -2.5464   -7.0866 C   0  0  0  0  0  0  0  0  0  0  0  0
   48.7984   -4.0752   -6.9951 C   0  0  0  0  0  0  0  0  0  0  0  0
   47.3656   -4.5675   -7.2825 C   0  0  0  0  0  0  0  0  0  0  0  0
   47.2353   -6.0199   -7.2108 N   0  0  0  0  0  0  0  0  0  0  0  0
  1  2  1  0  0  0  0
  2  3  1  0  0  0  0
  3  4  1  0  0  0  0
  4  5  1  0  0  0  0
  5  6  1  0  0  0  0
  6  7  1  0  0  0  0
  7  8  1  0  0  0  0
  8  9  1  0  0  0  0
  9 10  1  0  0  0  0
 10 11  1  0  0  0  0
 11 12  1  0  0  0  0
 12 13  1  0  0  0  0
 13 14  1  0  0  0  0
M  END
>  <CHROM.1>
-177.69905824,178.37197291,83.27849768,-149.36433719,-177.77766504,-175.62937960
-176.47044757,82.86348677,70.74921924,61.08318166,178.62645632,49.80974567
-0.80082580,-3.39144730,1.17042197,-0.61437844,0.60623430

>  <Name>
ligand

>  <RI>
0

>  <Rbt.Current_Directory>
/home/itssahil/PROJECTS/Mol_Feturizer/New_Systems/rnas/4E8Q

>  <Rbt.Executable>
rbdock ($Id: //depot/dev/client3/rdock/2013.1/src/exe/rbdock.cxx#4 $)

>  <Rbt.Library>
libRbt.so (2013.1, Build901 2013/11/27)

>  <Rbt.Parameter_File>
/export/apps/rDock/src/rDock_2013.1_src/data/scripts/dock_solv.prm

>  <Rbt.Receptor>
prm/pocket_docking_8.prm

>  <SCORE>
-14.3119

>  <SCORE.INTER>
-1.82224

>  <SCORE.INTER.CONST>
1

>  <SCORE.INTER.POLAR>
0

>  <SCORE.INTER.ROT>
11

>  <SCORE.INTER.SOLV>
9.68701

>  <SCORE.INTER.VDW>
-15.3772

>  <SCORE.INTER.norm>
-0.13016

>  <SCORE.INTRA>
-12.4897

>  <SCORE.INTRA.DIHEDRAL>
-24.2472

>  <SCORE.INTRA.DIHEDRAL.0>
25.9209

>  <SCORE.INTRA.POLAR>
0

>  <SCORE.INTRA.POLAR.0>
0

>  <SCORE.INTRA.REPUL>
0

>  <SCORE.INTRA.REPUL.0>
0

>  <SCORE.INTRA.SOLV>
-1.81333

>  <SCORE.INTRA.SOLV.lig_0>
-47.4815

>  <SCORE.INTRA.VDW>
0.540561

>  <SCORE.INTRA.VDW.0>
-1.57492

>  <SCORE.INTRA.norm>
-0.892122

>  <SCORE.RESTR>
0

>  <SCORE.RESTR.CAVITY>
0

>  <SCORE.RESTR.norm>
0

>  <SCORE.SYSTEM>
0

>  <SCORE.SYSTEM.CONST>
0

>  <SCORE.SYSTEM.DIHEDRAL>
0

>  <SCORE.SYSTEM.SOLV>
0

>  <SCORE.SYSTEM.norm>
0

>  <SCORE.heavy>
14

>  <SCORE.norm>
-1.02228

>  <RMSD>
6.079

$$$$
ligand
 OpenBabel11021811493D
libRbt.so/2013.1/901 2013/11/27
 14 13  0  0  0  0  0  0  0  0999 V2000
   49.2317   -0.6226   -7.4059 N   0  0  0  0  0  0  0  0  0  0  0  0
   49.1065   -1.8442   -6.6202 C   0  0  0  0  0  0  0  0  0  0  0  0
   47.9011   -1.7602   -5.6597 C   0  0  0  0  0  0  0  0  0  0  0  0
   47.9811   -0.6185   -4.6270 C   0  0  0  0  0  0  0  0  0  0  0  0
   49.0775   -0.6461   -3.6472 N   0  0  0  0  0  0  0  0  0  0  0  0
   50.4676   -0.4263   -4.0615 C   0  0  0  0  0  0  0  0  0  0  0  0
   51.4720   -0.2771   -2.9150 C   0  0  0  0  0  0  0  0  0  0  0  0
   51.2858    1.0297   -2.1253 C   0  0  0  0  0  0  0  0  0  0  0  0
   51.5405    2.2998   -2.9526 C   0  0  0  0  0  0  0  0  0  0  0  0
   52.8768    2.3866   -3.5461 N   0  0  0  0  0  0  0  0  0  0  0  0
   53.0865    3.2344   -4.7325 C   0  0  0  0  0  0  0  0  0  0  0  0
   54.3502    2.9532   -5.5797 C   0  0  0  0  0  0  0  0  0  0  0  0
   54.5326    3.8395   -6.8284 C   0  0  0  0  0  0  0  0  0  0  0  0
   53.4716    3.6615   -7.8153 N   0  0  0  0  0  0  0  0  0  0  0  0
  1  2  1  0  0  0  0
  2  3  1  0  0  0  0
  3  4  1  0  0  0  0
  4  5  1  0  0  0  0
  5  6  1  0  0  0  0
  6  7  1  0  0  0  0
  7  8  1  0  0  0  0
  8  9  1  0  0  0  0
  9 10  1  0  0  0  0
 10 11  1  0  0  0  0
 11 12  1  0  0  0  0
 12 13  1  0  0  0  0
 13 14  1  0  0  0  0
M  END
>  <CHROM.1>
-60.92430879,-62.93120155,68.92137482,171.32697789,-69.15236210,-63.86807941
-58.18569698,156.77969539,-160.88964537,179.02133327,-63.33300637,51.17012215
0.94343317,-4.89372418,3.03871143,0.72901924,1.59869635

>  <Name>
ligand

>  <RI>
0

>  <Rbt.Current_Directory>
/home/itssahil/PROJECTS/Mol_Feturizer/New_Systems/rnas/4E8Q

>  <Rbt.Executable>
rbdock ($Id: //depot/dev/client3/rdock/2013.1/src/exe/rbdock.cxx#4 $)

>  <Rbt.Library>
libRbt.so (2013.1, Build901 2013/11/27)

>  <Rbt.Parameter_File>
/export/apps/rDock/src/rDock_2013.1_src/data/scripts/dock_solv.prm

>  <Rbt.Receptor>
prm/pocket_docking_5.prm

>  <SCORE>
-12.7449

>  <SCORE.INTER>
-2.40097

>  <SCORE.INTER.CONST>
1

>  <SCORE.INTER.POLAR>
0

>  <SCORE.INTER.ROT>
11

>  <SCORE.INTER.SOLV>
9.04777

>  <SCORE.INTER.VDW>
-15.5499

>  <SCORE.INTER.norm>
-0.171498

>  <SCORE.INTRA>
-10.3439

>  <SCORE.INTRA.DIHEDRAL>
-24.6611

>  <SCORE.INTRA.DIHEDRAL.0>
25.9209

>  <SCORE.INTRA.POLAR>
0

>  <SCORE.INTRA.POLAR.0>
0

>  <SCORE.INTRA.REPUL>
0

>  <SCORE.INTRA.REPUL.0>
0

>  <SCORE.INTRA.SOLV>
2.22435

>  <SCORE.INTRA.SOLV.lig_0>
-47.4815

>  <SCORE.INTRA.VDW>
0.87445

>  <SCORE.INTRA.VDW.0>
-1.57492

>  <SCORE.INTRA.norm>
-0.738853

>  <SCORE.RESTR>
0

>  <SCORE.RESTR.CAVITY>
0

>  <SCORE.RESTR.norm>
0

>  <SCORE.SYSTEM>
0

>  <SCORE.SYSTEM.CONST>
0

>  <SCORE.SYSTEM.DIHEDRAL>
0

>  <SCORE.SYSTEM.SOLV>
0

>  <SCORE.SYSTEM.norm>
0

>  <SCORE.heavy>
14

>  <SCORE.norm>
-0.910351

>  <RMSD>
6.080

$$$$
ligand
 OpenBabel11021811493D
libRbt.so/2013.1/901 2013/11/27
 14 13  0  0  0  0  0  0  0  0999 V2000
   51.5014    2.9319   -2.6205 N   0  0  0  0  0  0  0  0  0  0  0  0
   52.4108    2.8210   -1.4866 C   0  0  0  0  0  0  0  0  0  0  0  0
   51.8037    1.9349   -0.3781 C   0  0  0  0  0  0  0  0  0  0  0  0
   51.6806    0.4424   -0.7442 C   0  0  0  0  0  0  0  0  0  0  0  0
   50.7277    0.0640   -1.7985 N   0  0  0  0  0  0  0  0  0  0  0  0
   51.1907   -0.2887   -3.1453 C   0  0  0  0  0  0  0  0  0  0  0  0
   50.1461   -0.9694   -4.0346 C   0  0  0  0  0  0  0  0  0  0  0  0
   48.9407   -0.0637   -4.3390 C   0  0  0  0  0  0  0  0  0  0  0  0
   47.7375   -0.8081   -4.9396 C   0  0  0  0  0  0  0  0  0  0  0  0
   47.9906   -1.4328   -6.2400 N   0  0  0  0  0  0  0  0  0  0  0  0
   46.8961   -2.1407   -6.9265 C   0  0  0  0  0  0  0  0  0  0  0  0
   46.6710   -1.8025   -8.4193 C   0  0  0  0  0  0  0  0  0  0  0  0
   47.8565   -2.0962   -9.3608 C   0  0  0  0  0  0  0  0  0  0  0  0
   49.0347   -1.2862   -9.0656 N   0  0  0  0  0  0  0  0  0  0  0  0
  1  2  1  0  0  0  0
  2  3  1  0  0  0  0
  3  4  1  0  0  0  0
  4  5  1  0  0  0  0
  5  6  1  0  0  0  0
  6  7  1  0  0  0  0
  7  8  1  0  0  0  0
  8  9  1  0  0  0  0
  9 10  1  0  0  0  0
 10 11  1  0  0  0  0
 11 12  1  0  0  0  0
 12 13  1  0  0  0  0
 13 14  1  0  0  0  0
M  END
>  <CHROM.1>
68.62124452,-67.37512351,103.98976035,166.30080517,63.53997370,-166.37504724
-62.72603155,-178.27701881,131.63755532,60.73627153,-64.11503170,49.61336348
-0.19254355,-4.53547199,-0.80345947,-0.80643188,-1.42863403

>  <Name>
ligand

>  <RI>
0

>  <Rbt.Current_Directory>
/home/itssahil/PROJECTS/Mol_Feturizer/New_Systems/rnas/4E8Q

>  <Rbt.Executable>
rbdock ($Id: //depot/dev/client3/rdock/2013.1/src/exe/rbdock.cxx#4 $)

>  <Rbt.Library>
libRbt.so (2013.1, Build901 2013/11/27)

>  <Rbt.Parameter_File>
/export/apps/rDock/src/rDock_2013.1_src/data/scripts/dock_solv.prm

>  <Rbt.Receptor>
prm/pocket_docking_7.prm

>  <SCORE>
-12.9948

>  <SCORE.INTER>
-4.07471

>  <SCORE.INTER.CONST>
1

>  <SCORE.INTER.POLAR>
0

>  <SCORE.INTER.ROT>
11

>  <SCORE.INTER.SOLV>
8.52813

>  <SCORE.INTER.VDW>
-16.4925

>  <SCORE.INTER.norm>
-0.291051

>  <SCORE.INTRA>
-8.92008

>  <SCORE.INTRA.DIHEDRAL>
-22.3102

>  <SCORE.INTRA.DIHEDRAL.0>
25.9209

>  <SCORE.INTRA.POLAR>
0

>  <SCORE.INTRA.POLAR.0>
0

>  <SCORE.INTRA.REPUL>
0

>  <SCORE.INTRA.REPUL.0>
0

>  <SCORE.INTRA.SOLV>
4.92865

>  <SCORE.INTRA.SOLV.lig_0>
-47.4815

>  <SCORE.INTRA.VDW>
-0.229286

>  <SCORE.INTRA.VDW.0>
-1.57492

>  <SCORE.INTRA.norm>
-0.637149

>  <SCORE.RESTR>
0

>  <SCORE.RESTR.CAVITY>
0

>  <SCORE.RESTR.norm>
0

>  <SCORE.SYSTEM>
0

>  <SCORE.SYSTEM.CONST>
0

>  <SCORE.SYSTEM.DIHEDRAL>
0

>  <SCORE.SYSTEM.SOLV>
0

>  <SCORE.SYSTEM.norm>
0

>  <SCORE.heavy>
14

>  <SCORE.norm>
-0.9282

>  <RMSD>
6.089

$$$$
ligand
 OpenBabel11021811493D
libRbt.so/2013.1/901 2013/11/27
 14 13  0  0  0  0  0  0  0  0999 V2000
   54.7669   -1.1742    7.2356 N   0  0  0  0  0  0  0  0  0  0  0  0
   54.4586   -1.2106    5.8112 C   0  0  0  0  0  0  0  0  0  0  0  0
   55.5345   -0.4626    4.9955 C   0  0  0  0  0  0  0  0  0  0  0  0
   55.2676   -0.4080    3.4781 C   0  0  0  0  0  0  0  0  0  0  0  0
   56.3249    0.1276    2.6075 N   0  0  0  0  0  0  0  0  0  0  0  0
   56.4934   -0.3606    1.2343 C   0  0  0  0  0  0  0  0  0  0  0  0
   57.4404    0.4677    0.3612 C   0  0  0  0  0  0  0  0  0  0  0  0
   57.0148    1.9418    0.2518 C   0  0  0  0  0  0  0  0  0  0  0  0
   57.7749    2.7319   -0.8254 C   0  0  0  0  0  0  0  0  0  0  0  0
   57.5459    4.1784   -0.8000 N   0  0  0  0  0  0  0  0  0  0  0  0
   56.2546    4.7136   -1.2655 C   0  0  0  0  0  0  0  0  0  0  0  0
   56.2873    6.0633   -2.0209 C   0  0  0  0  0  0  0  0  0  0  0  0
   54.9154    6.6413   -2.4231 C   0  0  0  0  0  0  0  0  0  0  0  0
   54.1603    5.7582   -3.3072 N   0  0  0  0  0  0  0  0  0  0  0  0
  1  2  1  0  0  0  0
  2  3  1  0  0  0  0
  3  4  1  0  0  0  0
  4  5  1  0  0  0  0
  5  6  1  0  0  0  0
  6  7  1  0  0  0  0
  7  8  1  0  0  0  0
  8  9  1  0  0  0  0
  9 10  1  0  0  0  0
 10 11  1  0  0  0  0
 11 12  1  0  0  0  0
 12 13  1  0  0  0  0
 13 14  1  0  0  0  0
M  END
>  <CHROM.1>
-178.07215632,-172.07725339,148.83364083,168.48841646,-57.46978882,-168.67771677
-170.45604712,-73.08868428,-143.89019851,-176.50980237,-60.06149544,56.01723535
2.07191637,1.09508550,1.64861509,-0.65725124,2.33271649

>  <Name>
ligand

>  <RI>
0

>  <Rbt.Current_Directory>
/home/itssahil/PROJECTS/Mol_Feturizer/New_Systems/rnas/4E8Q

>  <Rbt.Executable>
rbdock ($Id: //depot/dev/client3/rdock/2013.1/src/exe/rbdock.cxx#4 $)

>  <Rbt.Library>
libRbt.so (2013.1, Build901 2013/11/27)

>  <Rbt.Parameter_File>
/export/apps/rDock/src/rDock_2013.1_src/data/scripts/dock_solv.prm

>  <Rbt.Receptor>
prm/pocket_docking_7.prm

>  <SCORE>
-11.0956

>  <SCORE.INTER>
0.3497

>  <SCORE.INTER.CONST>
1

>  <SCORE.INTER.POLAR>
0

>  <SCORE.INTER.ROT>
11

>  <SCORE.INTER.SOLV>
11.8955

>  <SCORE.INTER.VDW>
-14.6654

>  <SCORE.INTER.norm>
0.0249786

>  <SCORE.INTRA>
-11.4453

>  <SCORE.INTRA.DIHEDRAL>
-23.0764

>  <SCORE.INTRA.DIHEDRAL.0>
25.9209

>  <SCORE.INTRA.POLAR>
0

>  <SCORE.INTRA.POLAR.0>
0

>  <SCORE.INTRA.REPUL>
0

>  <SCORE.INTRA.REPUL.0>
0

>  <SCORE.INTRA.SOLV>
-1.06188

>  <SCORE.INTRA.SOLV.lig_0>
-47.4815

>  <SCORE.INTRA.VDW>
0.623867

>  <SCORE.INTRA.VDW.0>
-1.57492

>  <SCORE.INTRA.norm>
-0.817521

>  <SCORE.RESTR>
0

>  <SCORE.RESTR.CAVITY>
0

>  <SCORE.RESTR.norm>
0

>  <SCORE.SYSTEM>
0

>  <SCORE.SYSTEM.CONST>
0

>  <SCORE.SYSTEM.DIHEDRAL>
0

>  <SCORE.SYSTEM.SOLV>
0

>  <SCORE.SYSTEM.norm>
0

>  <SCORE.heavy>
14

>  <SCORE.norm>
-0.792542

>  <RMSD>
6.094

$$$$
ligand
 OpenBabel11021811493D
libRbt.so/2013.1/901 2013/11/27
 14 13  0  0  0  0  0  0  0  0999 V2000
   52.7688    2.7966    1.2709 N   0  0  0  0  0  0  0  0  0  0  0  0
   51.3625    2.5811    0.9531 C   0  0  0  0  0  0  0  0  0  0  0  0
   51.1943    2.1017   -0.5045 C   0  0  0  0  0  0  0  0  0  0  0  0
   51.8132    0.7215   -0.8021 C   0  0  0  0  0  0  0  0  0  0  0  0
   51.6469    0.1644   -2.1529 N   0  0  0  0  0  0  0  0  0  0  0  0
   50.4258   -0.5570   -2.5284 C   0  0  0  0  0  0  0  0  0  0  0  0
   50.1407   -0.6144   -4.0320 C   0  0  0  0  0  0  0  0  0  0  0  0
   48.8655   -1.4063   -4.3675 C   0  0  0  0  0  0  0  0  0  0  0  0
   48.5949   -1.5431   -5.8744 C   0  0  0  0  0  0  0  0  0  0  0  0
   47.4586   -2.4014   -6.2173 N   0  0  0  0  0  0  0  0  0  0  0  0
   46.4589   -1.9228   -7.1878 C   0  0  0  0  0  0  0  0  0  0  0  0
   46.8933   -1.8689   -8.6717 C   0  0  0  0  0  0  0  0  0  0  0  0
   48.0330   -0.8843   -9.0026 C   0  0  0  0  0  0  0  0  0  0  0  0
   48.4040   -0.8935  -10.4146 N   0  0  0  0  0  0  0  0  0  0  0  0
  1  2  1  0  0  0  0
  2  3  1  0  0  0  0
  3  4  1  0  0  0  0
  4  5  1  0  0  0  0
  5  6  1  0  0  0  0
  6  7  1  0  0  0  0
  7  8  1  0  0  0  0
  8  9  1  0  0  0  0
  9 10  1  0  0  0  0
 10 11  1  0  0  0  0
 11 12  1  0  0  0  0
 12 13  1  0  0  0  0
 13 14  1  0  0  0  0
M  END
>  <CHROM.1>
64.80632666,177.40666290,-83.36837549,157.77833908,178.83105779,-176.95031696
174.38602713,132.15191790,72.34987196,-64.15482539,179.35360376,49.57555132
-0.26623837,-4.25222909,-0.88428933,-0.83835431,-1.40779210

>  <Name>
ligand

>  <RI>
0

>  <Rbt.Current_Directory>
/home/itssahil/PROJECTS/Mol_Feturizer/New_Systems/rnas/4E8Q

>  <Rbt.Executable>
rbdock ($Id: //depot/dev/client3/rdock/2013.1/src/exe/rbdock.cxx#4 $)

>  <Rbt.Library>
libRbt.so (2013.1, Build901 2013/11/27)

>  <Rbt.Parameter_File>
/export/apps/rDock/src/rDock_2013.1_src/data/scripts/dock_solv.prm

>  <Rbt.Receptor>
prm/pocket_docking_6.prm

>  <SCORE>
-14.5465

>  <SCORE.INTER>
-2.92088

>  <SCORE.INTER.CONST>
1

>  <SCORE.INTER.POLAR>
0

>  <SCORE.INTER.ROT>
11

>  <SCORE.INTER.SOLV>
11.5351

>  <SCORE.INTER.VDW>
-16.7256

>  <SCORE.INTER.norm>
-0.208634

>  <SCORE.INTRA>
-11.6324

>  <SCORE.INTRA.DIHEDRAL>
-23.6176

>  <SCORE.INTRA.DIHEDRAL.0>
25.9209

>  <SCORE.INTRA.POLAR>
0

>  <SCORE.INTRA.POLAR.0>
0

>  <SCORE.INTRA.REPUL>
0

>  <SCORE.INTRA.REPUL.0>
0

>  <SCORE.INTRA.SOLV>
-1.05216

>  <SCORE.INTRA.SOLV.lig_0>
-47.4815

>  <SCORE.INTRA.VDW>
0.702498

>  <SCORE.INTRA.VDW.0>
-1.57492

>  <SCORE.INTRA.norm>
-0.830883

>  <SCORE.RESTR>
0.0067483

>  <SCORE.RESTR.CAVITY>
0.0067483

>  <SCORE.RESTR.norm>
0.000482022

>  <SCORE.SYSTEM>
0

>  <SCORE.SYSTEM.CONST>
0

>  <SCORE.SYSTEM.DIHEDRAL>
0

>  <SCORE.SYSTEM.SOLV>
0

>  <SCORE.SYSTEM.norm>
0

>  <SCORE.heavy>
14

>  <SCORE.norm>
-1.03904

>  <RMSD>
6.100

$$$$
ligand
 OpenBabel11021811493D
libRbt.so/2013.1/901 2013/11/27
 14 13  0  0  0  0  0  0  0  0999 V2000
   52.1394    2.0170    0.8338 N   0  0  0  0  0  0  0  0  0  0  0  0
   52.1162    1.8566   -0.6150 C   0  0  0  0  0  0  0  0  0  0  0  0
   51.3152    0.6000   -1.0173 C   0  0  0  0  0  0  0  0  0  0  0  0
   51.2258    0.3544   -2.5366 C   0  0  0  0  0  0  0  0  0  0  0  0
   50.3319   -0.7109   -3.0148 N   0  0  0  0  0  0  0  0  0  0  0  0
   49.7120   -0.6387   -4.3426 C   0  0  0  0  0  0  0  0  0  0  0  0
   48.6432   -1.7000   -4.6198 C   0  0  0  0  0  0  0  0  0  0  0  0
   48.0024   -1.5521   -6.0103 C   0  0  0  0  0  0  0  0  0  0  0  0
   48.9610   -1.8523   -7.1737 C   0  0  0  0  0  0  0  0  0  0  0  0
   50.0832   -0.9193   -7.2992 N   0  0  0  0  0  0  0  0  0  0  0  0
   50.8969   -0.9292   -8.5272 C   0  0  0  0  0  0  0  0  0  0  0  0
   52.1892   -0.0787   -8.5179 C   0  0  0  0  0  0  0  0  0  0  0  0
   51.9909    1.4428   -8.3644 C   0  0  0  0  0  0  0  0  0  0  0  0
   51.4086    1.8163   -7.0788 N   0  0  0  0  0  0  0  0  0  0  0  0
  1  2  1  0  0  0  0
  2  3  1  0  0  0  0
  3  4  1  0  0  0  0
  4  5  1  0  0  0  0
  5  6  1  0  0  0  0
  6  7  1  0  0  0  0
  7  8  1  0  0  0  0
  8  9  1  0  0  0  0
  9 10  1  0  0  0  0
 10 11  1  0  0  0  0
 11 12  1  0  0  0  0
 12 13  1  0  0  0  0
 13 14  1  0  0  0  0
M  END
>  <CHROM.1>
179.51173003,-171.79125440,151.73419210,-170.96245582,178.44870272,67.66752015
-65.06045811,-167.09586680,-171.03324727,-63.52420627,64.41765617,50.64384953
-0.02124652,-4.87771491,-1.36896255,-0.73776708,-1.66427991

>  <Name>
ligand

>  <RI>
0

>  <Rbt.Current_Directory>
/home/itssahil/PROJECTS/Mol_Feturizer/New_Systems/rnas/4E8Q

>  <Rbt.Executable>
rbdock ($Id: //depot/dev/client3/rdock/2013.1/src/exe/rbdock.cxx#4 $)

>  <Rbt.Library>
libRbt.so (2013.1, Build901 2013/11/27)

>  <Rbt.Parameter_File>
/export/apps/rDock/src/rDock_2013.1_src/data/scripts/dock_solv.prm

>  <Rbt.Receptor>
prm/pocket_docking_5.prm

>  <SCORE>
-12.5696

>  <SCORE.INTER>
-1.63728

>  <SCORE.INTER.CONST>
1

>  <SCORE.INTER.POLAR>
0

>  <SCORE.INTER.ROT>
11

>  <SCORE.INTER.SOLV>
8.56912

>  <SCORE.INTER.VDW>
-14.8812

>  <SCORE.INTER.norm>
-0.116949

>  <SCORE.INTRA>
-10.9323

>  <SCORE.INTRA.DIHEDRAL>
-24.3916

>  <SCORE.INTRA.DIHEDRAL.0>
25.9209

>  <SCORE.INTRA.POLAR>
0

>  <SCORE.INTRA.POLAR.0>
0

>  <SCORE.INTRA.REPUL>
0

>  <SCORE.INTRA.REPUL.0>
0

>  <SCORE.INTRA.SOLV>
1.82161

>  <SCORE.INTRA.SOLV.lig_0>
-47.4815

>  <SCORE.INTRA.VDW>
0.352735

>  <SCORE.INTRA.VDW.0>
-1.57492

>  <SCORE.INTRA.norm>
-0.780876

>  <SCORE.RESTR>
0

>  <SCORE.RESTR.CAVITY>
0

>  <SCORE.RESTR.norm>
0

>  <SCORE.SYSTEM>
0

>  <SCORE.SYSTEM.CONST>
0

>  <SCORE.SYSTEM.DIHEDRAL>
0

>  <SCORE.SYSTEM.SOLV>
0

>  <SCORE.SYSTEM.norm>
0

>  <SCORE.heavy>
14

>  <SCORE.norm>
-0.897825

>  <RMSD>
6.111

$$$$
ligand
 OpenBabel11021811493D
libRbt.so/2013.1/901 2013/11/27
 14 13  0  0  0  0  0  0  0  0999 V2000
   51.4049    5.2927    0.7977 N   0  0  0  0  0  0  0  0  0  0  0  0
   51.4151    3.8406    0.6690 C   0  0  0  0  0  0  0  0  0  0  0  0
   51.2410    3.4171   -0.8050 C   0  0  0  0  0  0  0  0  0  0  0  0
   51.4075    1.9064   -1.0632 C   0  0  0  0  0  0  0  0  0  0  0  0
   51.2315    1.4149   -2.4381 N   0  0  0  0  0  0  0  0  0  0  0  0
   51.4583    0.0043   -2.7718 C   0  0  0  0  0  0  0  0  0  0  0  0
   50.1890   -0.8328   -2.9548 C   0  0  0  0  0  0  0  0  0  0  0  0
   49.4583   -0.5277   -4.2735 C   0  0  0  0  0  0  0  0  0  0  0  0
   48.1082   -1.2478   -4.4191 C   0  0  0  0  0  0  0  0  0  0  0  0
   47.5027   -1.1510   -5.7494 N   0  0  0  0  0  0  0  0  0  0  0  0
   47.6046   -2.2934   -6.6741 C   0  0  0  0  0  0  0  0  0  0  0  0
   47.7996   -1.9654   -8.1734 C   0  0  0  0  0  0  0  0  0  0  0  0
   47.9982   -3.1775   -9.1058 C   0  0  0  0  0  0  0  0  0  0  0  0
   48.1963   -2.7982  -10.5017 N   0  0  0  0  0  0  0  0  0  0  0  0
  1  2  1  0  0  0  0
  2  3  1  0  0  0  0
  3  4  1  0  0  0  0
  4  5  1  0  0  0  0
  5  6  1  0  0  0  0
  6  7  1  0  0  0  0
  7  8  1  0  0  0  0
  8  9  1  0  0  0  0
  9 10  1  0  0  0  0
 10 11  1  0  0  0  0
 11 12  1  0  0  0  0
 12 13  1  0  0  0  0
 13 14  1  0  0  0  0
M  END
>  <CHROM.1>
173.03636192,178.83466249,176.09019408,103.01769866,73.72876362,-174.14376844
-170.30307203,101.43845248,-142.92720750,176.03840697,-179.13525832,49.64396685
0.13422087,-4.10436884,0.48818224,-1.18728793,-0.10656848

>  <Name>
ligand

>  <RI>
0

>  <Rbt.Current_Directory>
/home/itssahil/PROJECTS/Mol_Feturizer/New_Systems/rnas/4E8Q

>  <Rbt.Executable>
rbdock ($Id: //depot/dev/client3/rdock/2013.1/src/exe/rbdock.cxx#4 $)

>  <Rbt.Library>
libRbt.so (2013.1, Build901 2013/11/27)

>  <Rbt.Parameter_File>
/export/apps/rDock/src/rDock_2013.1_src/data/scripts/dock_solv.prm

>  <Rbt.Receptor>
prm/pocket_docking_7.prm

>  <SCORE>
-12.2587

>  <SCORE.INTER>
-0.779555

>  <SCORE.INTER.CONST>
1

>  <SCORE.INTER.POLAR>
0

>  <SCORE.INTER.ROT>
11

>  <SCORE.INTER.SOLV>
7.91535

>  <SCORE.INTER.VDW>
-14.0915

>  <SCORE.INTER.norm>
-0.0556825

>  <SCORE.INTRA>
-11.4791

>  <SCORE.INTRA.DIHEDRAL>
-21.7526

>  <SCORE.INTRA.DIHEDRAL.0>
25.9209

>  <SCORE.INTRA.POLAR>
0

>  <SCORE.INTRA.POLAR.0>
0

>  <SCORE.INTRA.REPUL>
0

>  <SCORE.INTRA.REPUL.0>
0

>  <SCORE.INTRA.SOLV>
-1.81291

>  <SCORE.INTRA.SOLV.lig_0>
-47.4815

>  <SCORE.INTRA.VDW>
0.303621

>  <SCORE.INTRA.VDW.0>
-1.57492

>  <SCORE.INTRA.norm>
-0.819937

>  <SCORE.RESTR>
0

>  <SCORE.RESTR.CAVITY>
0

>  <SCORE.RESTR.norm>
0

>  <SCORE.SYSTEM>
0

>  <SCORE.SYSTEM.CONST>
0

>  <SCORE.SYSTEM.DIHEDRAL>
0

>  <SCORE.SYSTEM.SOLV>
0

>  <SCORE.SYSTEM.norm>
0

>  <SCORE.heavy>
14

>  <SCORE.norm>
-0.87562

>  <RMSD>
6.112

$$$$
ligand
 OpenBabel11021811493D
libRbt.so/2013.1/901 2013/11/27
 14 13  0  0  0  0  0  0  0  0999 V2000
   49.0057    0.9915  -10.7588 N   0  0  0  0  0  0  0  0  0  0  0  0
   48.3523    0.6179   -9.5103 C   0  0  0  0  0  0  0  0  0  0  0  0
   48.2502   -0.9167   -9.3798 C   0  0  0  0  0  0  0  0  0  0  0  0
   47.6606   -1.4098   -8.0434 C   0  0  0  0  0  0  0  0  0  0  0  0
   48.3548   -1.0388   -6.8011 N   0  0  0  0  0  0  0  0  0  0  0  0
   47.7411   -1.2809   -5.4906 C   0  0  0  0  0  0  0  0  0  0  0  0
   48.4291   -0.5859   -4.3120 C   0  0  0  0  0  0  0  0  0  0  0  0
   49.8825   -1.0482   -4.1129 C   0  0  0  0  0  0  0  0  0  0  0  0
   50.5638   -0.4466   -2.8733 C   0  0  0  0  0  0  0  0  0  0  0  0
   50.7752    1.0015   -2.9328 N   0  0  0  0  0  0  0  0  0  0  0  0
   52.0079    1.5754   -2.3656 C   0  0  0  0  0  0  0  0  0  0  0  0
   52.0791    1.6977   -0.8250 C   0  0  0  0  0  0  0  0  0  0  0  0
   51.0954    2.6977   -0.1843 C   0  0  0  0  0  0  0  0  0  0  0  0
   51.3115    2.8731    1.2489 N   0  0  0  0  0  0  0  0  0  0  0  0
  1  2  1  0  0  0  0
  2  3  1  0  0  0  0
  3  4  1  0  0  0  0
  4  5  1  0  0  0  0
  5  6  1  0  0  0  0
  6  7  1  0  0  0  0
  7  8  1  0  0  0  0
  8  9  1  0  0  0  0
  9 10  1  0  0  0  0
 10 11  1  0  0  0  0
 11 12  1  0  0  0  0
 12 13  1  0  0  0  0
 13 14  1  0  0  0  0
M  END
>  <CHROM.1>
175.92934635,-59.51440933,169.91271733,-167.60235815,-61.77209827,-175.62605225
-66.15466138,-142.57913143,-76.79082424,-66.63341164,-173.72231548,49.67916329
0.33744962,-4.73861558,-2.20654370,0.95955133,1.84367930

>  <Name>
ligand

>  <RI>
0

>  <Rbt.Current_Directory>
/home/itssahil/PROJECTS/Mol_Feturizer/New_Systems/rnas/4E8Q

>  <Rbt.Executable>
rbdock ($Id: //depot/dev/client3/rdock/2013.1/src/exe/rbdock.cxx#4 $)

>  <Rbt.Library>
libRbt.so (2013.1, Build901 2013/11/27)

>  <Rbt.Parameter_File>
/export/apps/rDock/src/rDock_2013.1_src/data/scripts/dock_solv.prm

>  <Rbt.Receptor>
prm/pocket_docking_6.prm

>  <SCORE>
-13.0761

>  <SCORE.INTER>
-0.920843

>  <SCORE.INTER.CONST>
1

>  <SCORE.INTER.POLAR>
0

>  <SCORE.INTER.ROT>
11

>  <SCORE.INTER.SOLV>
8.61272

>  <SCORE.INTER.VDW>
-14.4181

>  <SCORE.INTER.norm>
-0.0657745

>  <SCORE.INTRA>
-12.1553

>  <SCORE.INTRA.DIHEDRAL>
-24.0627

>  <SCORE.INTRA.DIHEDRAL.0>
25.9209

>  <SCORE.INTRA.POLAR>
0

>  <SCORE.INTRA.POLAR.0>
0

>  <SCORE.INTRA.REPUL>
0

>  <SCORE.INTRA.REPUL.0>
0

>  <SCORE.INTRA.SOLV>
-0.871044

>  <SCORE.INTRA.SOLV.lig_0>
-47.4815

>  <SCORE.INTRA.VDW>
0.311616

>  <SCORE.INTRA.VDW.0>
-1.57492

>  <SCORE.INTRA.norm>
-0.868233

>  <SCORE.RESTR>
0

>  <SCORE.RESTR.CAVITY>
0

>  <SCORE.RESTR.norm>
0

>  <SCORE.SYSTEM>
0

>  <SCORE.SYSTEM.CONST>
0

>  <SCORE.SYSTEM.DIHEDRAL>
0

>  <SCORE.SYSTEM.SOLV>
0

>  <SCORE.SYSTEM.norm>
0

>  <SCORE.heavy>
14

>  <SCORE.norm>
-0.934007

>  <RMSD>
6.114

$$$$
ligand
 OpenBabel11021811493D
libRbt.so/2013.1/901 2013/11/27
 14 13  0  0  0  0  0  0  0  0999 V2000
   53.2000    3.7585   -6.4408 N   0  0  0  0  0  0  0  0  0  0  0  0
   54.2120    3.0717   -5.6474 C   0  0  0  0  0  0  0  0  0  0  0  0
   54.1805    3.5507   -4.1804 C   0  0  0  0  0  0  0  0  0  0  0  0
   52.8865    3.2020   -3.4185 C   0  0  0  0  0  0  0  0  0  0  0  0
   52.5665    1.7817   -3.2102 N   0  0  0  0  0  0  0  0  0  0  0  0
   51.4077    1.3776   -2.4063 C   0  0  0  0  0  0  0  0  0  0  0  0
   51.0594   -0.1124   -2.4705 C   0  0  0  0  0  0  0  0  0  0  0  0
   50.6398   -0.5666   -3.8789 C   0  0  0  0  0  0  0  0  0  0  0  0
   49.2825   -0.0082   -4.3355 C   0  0  0  0  0  0  0  0  0  0  0  0
   48.8561   -0.4467   -5.6664 N   0  0  0  0  0  0  0  0  0  0  0  0
   48.1381   -1.7252   -5.8101 C   0  0  0  0  0  0  0  0  0  0  0  0
   47.3350   -1.9345   -7.1157 C   0  0  0  0  0  0  0  0  0  0  0  0
   46.6224   -3.2949   -7.2552 C   0  0  0  0  0  0  0  0  0  0  0  0
   47.5450   -4.4264   -7.2494 N   0  0  0  0  0  0  0  0  0  0  0  0
  1  2  1  0  0  0  0
  2  3  1  0  0  0  0
  3  4  1  0  0  0  0
  4  5  1  0  0  0  0
  5  6  1  0  0  0  0
  6  7  1  0  0  0  0
  7  8  1  0  0  0  0
  8  9  1  0  0  0  0
  9 10  1  0  0  0  0
 10 11  1  0  0  0  0
 11 12  1  0  0  0  0
 12 13  1  0  0  0  0
 13 14  1  0  0  0  0
M  END
>  <CHROM.1>
65.23214267,63.56946588,175.26850393,170.06494898,-63.71845902,-69.32868168
-179.09021100,85.58657722,161.38824512,178.52409012,-61.36012775,50.56654243
0.30201424,-4.93436859,-0.20360959,-0.79995156,-1.44825852

>  <Name>
ligand

>  <RI>
0

>  <Rbt.Current_Directory>
/home/itssahil/PROJECTS/Mol_Feturizer/New_Systems/rnas/4E8Q

>  <Rbt.Executable>
rbdock ($Id: //depot/dev/client3/rdock/2013.1/src/exe/rbdock.cxx#4 $)

>  <Rbt.Library>
libRbt.so (2013.1, Build901 2013/11/27)

>  <Rbt.Parameter_File>
/export/apps/rDock/src/rDock_2013.1_src/data/scripts/dock_solv.prm

>  <Rbt.Receptor>
prm/pocket_docking_8.prm

>  <SCORE>
-13.2526

>  <SCORE.INTER>
-1.99183

>  <SCORE.INTER.CONST>
1

>  <SCORE.INTER.POLAR>
0

>  <SCORE.INTER.ROT>
11

>  <SCORE.INTER.SOLV>
7.62325

>  <SCORE.INTER.VDW>
-14.8023

>  <SCORE.INTER.norm>
-0.142274

>  <SCORE.INTRA>
-11.2608

>  <SCORE.INTRA.DIHEDRAL>
-24.5183

>  <SCORE.INTRA.DIHEDRAL.0>
25.9209

>  <SCORE.INTRA.POLAR>
0

>  <SCORE.INTRA.POLAR.0>
0

>  <SCORE.INTRA.REPUL>
0

>  <SCORE.INTRA.REPUL.0>
0

>  <SCORE.INTRA.SOLV>
0.691161

>  <SCORE.INTRA.SOLV.lig_0>
-47.4815

>  <SCORE.INTRA.VDW>
0.65275

>  <SCORE.INTRA.VDW.0>
-1.57492

>  <SCORE.INTRA.norm>
-0.804343

>  <SCORE.RESTR>
0

>  <SCORE.RESTR.CAVITY>
0

>  <SCORE.RESTR.norm>
0

>  <SCORE.SYSTEM>
0

>  <SCORE.SYSTEM.CONST>
0

>  <SCORE.SYSTEM.DIHEDRAL>
0

>  <SCORE.SYSTEM.SOLV>
0

>  <SCORE.SYSTEM.norm>
0

>  <SCORE.heavy>
14

>  <SCORE.norm>
-0.946616

>  <RMSD>
6.116

$$$$
ligand
 OpenBabel11021811493D
libRbt.so/2013.1/901 2013/11/27
 14 13  0  0  0  0  0  0  0  0999 V2000
   47.6908   -3.1553   -6.7645 N   0  0  0  0  0  0  0  0  0  0  0  0
   48.5177   -2.7104   -5.6494 C   0  0  0  0  0  0  0  0  0  0  0  0
   48.0815   -1.3117   -5.1638 C   0  0  0  0  0  0  0  0  0  0  0  0
   48.9253   -0.7415   -4.0064 C   0  0  0  0  0  0  0  0  0  0  0  0
   50.3268   -0.3890   -4.2791 N   0  0  0  0  0  0  0  0  0  0  0  0
   51.3412   -0.4484   -3.2207 C   0  0  0  0  0  0  0  0  0  0  0  0
   51.2074    0.6196   -2.1312 C   0  0  0  0  0  0  0  0  0  0  0  0
   51.4067    2.0472   -2.6678 C   0  0  0  0  0  0  0  0  0  0  0  0
   52.8656    2.3852   -3.0140 C   0  0  0  0  0  0  0  0  0  0  0  0
   53.0643    3.7127   -3.6002 N   0  0  0  0  0  0  0  0  0  0  0  0
   53.0887    3.8588   -5.0660 C   0  0  0  0  0  0  0  0  0  0  0  0
   54.3169    3.2793   -5.8071 C   0  0  0  0  0  0  0  0  0  0  0  0
   54.3151    3.4435   -7.3405 C   0  0  0  0  0  0  0  0  0  0  0  0
   54.2729    4.8396   -7.7655 N   0  0  0  0  0  0  0  0  0  0  0  0
  1  2  1  0  0  0  0
  2  3  1  0  0  0  0
  3  4  1  0  0  0  0
  4  5  1  0  0  0  0
  5  6  1  0  0  0  0
  6  7  1  0  0  0  0
  7  8  1  0  0  0  0
  8  9  1  0  0  0  0
  9 10  1  0  0  0  0
 10 11  1  0  0  0  0
 11 12  1  0  0  0  0
 12 13  1  0  0  0  0
 13 14  1  0  0  0  0
M  END
>  <CHROM.1>
-178.50271240,67.50975021,-151.17075358,-69.88277904,-64.11867962,-72.94406576
176.57995332,-94.10229683,-70.29916759,179.88013092,60.16429101,51.38723731
1.10205733,-4.74793878,3.09588113,0.83410737,1.52794071

>  <Name>
ligand

>  <RI>
0

>  <Rbt.Current_Directory>
/home/itssahil/PROJECTS/Mol_Feturizer/New_Systems/rnas/4E8Q

>  <Rbt.Executable>
rbdock ($Id: //depot/dev/client3/rdock/2013.1/src/exe/rbdock.cxx#4 $)

>  <Rbt.Library>
libRbt.so (2013.1, Build901 2013/11/27)

>  <Rbt.Parameter_File>
/export/apps/rDock/src/rDock_2013.1_src/data/scripts/dock_solv.prm

>  <Rbt.Receptor>
prm/pocket_docking_7.prm

>  <SCORE>
-13.2898

>  <SCORE.INTER>
-2.09685

>  <SCORE.INTER.CONST>
1

>  <SCORE.INTER.POLAR>
0

>  <SCORE.INTER.ROT>
11

>  <SCORE.INTER.SOLV>
7.91871

>  <SCORE.INTER.VDW>
-14.9708

>  <SCORE.INTER.norm>
-0.149775

>  <SCORE.INTRA>
-11.1929

>  <SCORE.INTRA.DIHEDRAL>
-23.4624

>  <SCORE.INTRA.DIHEDRAL.0>
25.9209

>  <SCORE.INTRA.POLAR>
0

>  <SCORE.INTRA.POLAR.0>
0

>  <SCORE.INTRA.REPUL>
0

>  <SCORE.INTRA.REPUL.0>
0

>  <SCORE.INTRA.SOLV>
-0.545609

>  <SCORE.INTRA.SOLV.lig_0>
-47.4815

>  <SCORE.INTRA.VDW>
0.811125

>  <SCORE.INTRA.VDW.0>
-1.57492

>  <SCORE.INTRA.norm>
-0.799493

>  <SCORE.RESTR>
0

>  <SCORE.RESTR.CAVITY>
0

>  <SCORE.RESTR.norm>
0

>  <SCORE.SYSTEM>
0

>  <SCORE.SYSTEM.CONST>
0

>  <SCORE.SYSTEM.DIHEDRAL>
0

>  <SCORE.SYSTEM.SOLV>
0

>  <SCORE.SYSTEM.norm>
0

>  <SCORE.heavy>
14

>  <SCORE.norm>
-0.949268

>  <RMSD>
6.122

$$$$
ligand
 OpenBabel11021811493D
libRbt.so/2013.1/901 2013/11/27
 14 13  0  0  0  0  0  0  0  0999 V2000
   49.2462   -2.4983   -9.6953 N   0  0  0  0  0  0  0  0  0  0  0  0
   48.1639   -1.5435   -9.4899 C   0  0  0  0  0  0  0  0  0  0  0  0
   47.0313   -2.1678   -8.6472 C   0  0  0  0  0  0  0  0  0  0  0  0
   47.4423   -2.5714   -7.2172 C   0  0  0  0  0  0  0  0  0  0  0  0
   48.0813   -1.5556   -6.3672 N   0  0  0  0  0  0  0  0  0  0  0  0
   48.2145   -1.7556   -4.9199 C   0  0  0  0  0  0  0  0  0  0  0  0
   48.3646   -0.4726   -4.0972 C   0  0  0  0  0  0  0  0  0  0  0  0
   49.7558    0.1679   -4.2397 C   0  0  0  0  0  0  0  0  0  0  0  0
   50.8304   -0.4697   -3.3445 C   0  0  0  0  0  0  0  0  0  0  0  0
   50.5083   -0.4830   -1.9157 N   0  0  0  0  0  0  0  0  0  0  0  0
   51.4085    0.1941   -0.9660 C   0  0  0  0  0  0  0  0  0  0  0  0
   51.2883    1.7330   -0.8628 C   0  0  0  0  0  0  0  0  0  0  0  0
   52.2035    2.4099    0.1775 C   0  0  0  0  0  0  0  0  0  0  0  0
   52.0612    3.8627    0.2044 N   0  0  0  0  0  0  0  0  0  0  0  0
  1  2  1  0  0  0  0
  2  3  1  0  0  0  0
  3  4  1  0  0  0  0
  4  5  1  0  0  0  0
  5  6  1  0  0  0  0
  6  7  1  0  0  0  0
  7  8  1  0  0  0  0
  8  9  1  0  0  0  0
  9 10  1  0  0  0  0
 10 11  1  0  0  0  0
 11 12  1  0  0  0  0
 12 13  1  0  0  0  0
 13 14  1  0  0  0  0
M  END
>  <CHROM.1>
62.86147021,53.32860675,165.59206661,-156.76472588,-73.95040570,-81.58193551
-56.13514945,-120.93230046,78.96374392,177.72152272,178.78789531,49.61414561
-0.36792786,-4.38431928,-2.19248963,0.85163515,1.58985986

>  <Name>
ligand

>  <RI>
0

>  <Rbt.Current_Directory>
/home/itssahil/PROJECTS/Mol_Feturizer/New_Systems/rnas/4E8Q

>  <Rbt.Executable>
rbdock ($Id: //depot/dev/client3/rdock/2013.1/src/exe/rbdock.cxx#4 $)

>  <Rbt.Library>
libRbt.so (2013.1, Build901 2013/11/27)

>  <Rbt.Parameter_File>
/export/apps/rDock/src/rDock_2013.1_src/data/scripts/dock_solv.prm

>  <Rbt.Receptor>
prm/pocket_docking_6.prm

>  <SCORE>
-13.3355

>  <SCORE.INTER>
-3.48637

>  <SCORE.INTER.CONST>
1

>  <SCORE.INTER.POLAR>
0

>  <SCORE.INTER.ROT>
11

>  <SCORE.INTER.SOLV>
7.94356

>  <SCORE.INTER.VDW>
-15.9054

>  <SCORE.INTER.norm>
-0.249026

>  <SCORE.INTRA>
-9.84913

>  <SCORE.INTRA.DIHEDRAL>
-21.1569

>  <SCORE.INTRA.DIHEDRAL.0>
25.9209

>  <SCORE.INTRA.POLAR>
0

>  <SCORE.INTRA.POLAR.0>
0

>  <SCORE.INTRA.REPUL>
0

>  <SCORE.INTRA.REPUL.0>
0

>  <SCORE.INTRA.SOLV>
0.610973

>  <SCORE.INTRA.SOLV.lig_0>
-47.4815

>  <SCORE.INTRA.VDW>
0.423856

>  <SCORE.INTRA.VDW.0>
-1.57492

>  <SCORE.INTRA.norm>
-0.703509

>  <SCORE.RESTR>
0

>  <SCORE.RESTR.CAVITY>
0

>  <SCORE.RESTR.norm>
0

>  <SCORE.SYSTEM>
0

>  <SCORE.SYSTEM.CONST>
0

>  <SCORE.SYSTEM.DIHEDRAL>
0

>  <SCORE.SYSTEM.SOLV>
0

>  <SCORE.SYSTEM.norm>
0

>  <SCORE.heavy>
14

>  <SCORE.norm>
-0.952536

>  <RMSD>
6.131

$$$$
ligand
 OpenBabel11021811493D
libRbt.so/2013.1/901 2013/11/27
 14 13  0  0  0  0  0  0  0  0999 V2000
   52.8301    3.6606    0.2373 N   0  0  0  0  0  0  0  0  0  0  0  0
   52.7345    2.2060    0.2495 C   0  0  0  0  0  0  0  0  0  0  0  0
   51.5864    1.7218   -0.6615 C   0  0  0  0  0  0  0  0  0  0  0  0
   51.3479    0.1989   -0.6398 C   0  0  0  0  0  0  0  0  0  0  0  0
   50.4132   -0.3701   -1.6223 N   0  0  0  0  0  0  0  0  0  0  0  0
   50.7589   -0.4328   -3.0468 C   0  0  0  0  0  0  0  0  0  0  0  0
   49.5798   -0.6819   -3.9918 C   0  0  0  0  0  0  0  0  0  0  0  0
   50.0095   -0.7976   -5.4641 C   0  0  0  0  0  0  0  0  0  0  0  0
   48.8350   -0.9042   -6.4498 C   0  0  0  0  0  0  0  0  0  0  0  0
   48.0504   -2.1359   -6.3369 N   0  0  0  0  0  0  0  0  0  0  0  0
   46.6909   -2.1807   -6.9027 C   0  0  0  0  0  0  0  0  0  0  0  0
   46.5749   -2.2115   -8.4452 C   0  0  0  0  0  0  0  0  0  0  0  0
   47.1634   -3.4571   -9.1382 C   0  0  0  0  0  0  0  0  0  0  0  0
   48.5945   -3.6206   -8.9005 N   0  0  0  0  0  0  0  0  0  0  0  0
  1  2  1  0  0  0  0
  2  3  1  0  0  0  0
  3  4  1  0  0  0  0
  4  5  1  0  0  0  0
  5  6  1  0  0  0  0
  6  7  1  0  0  0  0
  7  8  1  0  0  0  0
  8  9  1  0  0  0  0
  9 10  1  0  0  0  0
 10 11  1  0  0  0  0
 11 12  1  0  0  0  0
 12 13  1  0  0  0  0
 13 14  1  0  0  0  0
M  END
>  <CHROM.1>
-176.12954322,-171.06299174,70.62688897,-163.97052916,-177.54537658,-174.09081859
-66.59229633,160.99287276,71.86442450,63.97741991,-60.80569860,49.65483001
-0.64322917,-4.36528865,-0.62541211,-0.98139806,-1.24317293

>  <Name>
ligand

>  <RI>
0

>  <Rbt.Current_Directory>
/home/itssahil/PROJECTS/Mol_Feturizer/New_Systems/rnas/4E8Q

>  <Rbt.Executable>
rbdock ($Id: //depot/dev/client3/rdock/2013.1/src/exe/rbdock.cxx#4 $)

>  <Rbt.Library>
libRbt.so (2013.1, Build901 2013/11/27)

>  <Rbt.Parameter_File>
/export/apps/rDock/src/rDock_2013.1_src/data/scripts/dock_solv.prm

>  <Rbt.Receptor>
prm/pocket_docking_7.prm

>  <SCORE>
-14.0353

>  <SCORE.INTER>
-2.80967

>  <SCORE.INTER.CONST>
1

>  <SCORE.INTER.POLAR>
0

>  <SCORE.INTER.ROT>
11

>  <SCORE.INTER.SOLV>
7.9631

>  <SCORE.INTER.VDW>
-15.4608

>  <SCORE.INTER.norm>
-0.20069

>  <SCORE.INTRA>
-11.2257

>  <SCORE.INTRA.DIHEDRAL>
-24.4995

>  <SCORE.INTRA.DIHEDRAL.0>
25.9209

>  <SCORE.INTRA.POLAR>
0

>  <SCORE.INTRA.POLAR.0>
0

>  <SCORE.INTRA.REPUL>
0

>  <SCORE.INTRA.REPUL.0>
0

>  <SCORE.INTRA.SOLV>
1.33267

>  <SCORE.INTRA.SOLV.lig_0>
-47.4815

>  <SCORE.INTRA.VDW>
0.357769

>  <SCORE.INTRA.VDW.0>
-1.57492

>  <SCORE.INTRA.norm>
-0.801833

>  <SCORE.RESTR>
0

>  <SCORE.RESTR.CAVITY>
0

>  <SCORE.RESTR.norm>
0

>  <SCORE.SYSTEM>
0

>  <SCORE.SYSTEM.CONST>
0

>  <SCORE.SYSTEM.DIHEDRAL>
0

>  <SCORE.SYSTEM.SOLV>
0

>  <SCORE.SYSTEM.norm>
0

>  <SCORE.heavy>
14

>  <SCORE.norm>
-1.00252

>  <RMSD>
6.140

$$$$
ligand
 OpenBabel11021811493D
libRbt.so/2013.1/901 2013/11/27
 14 13  0  0  0  0  0  0  0  0999 V2000
   49.3181    0.8618   -9.9026 N   0  0  0  0  0  0  0  0  0  0  0  0
   48.2611   -0.0908   -9.5853 C   0  0  0  0  0  0  0  0  0  0  0  0
   48.4808   -0.7125   -8.1897 C   0  0  0  0  0  0  0  0  0  0  0  0
   47.3959   -1.7186   -7.7567 C   0  0  0  0  0  0  0  0  0  0  0  0
   47.3795   -2.1587   -6.3536 N   0  0  0  0  0  0  0  0  0  0  0  0
   48.5563   -2.7889   -5.7449 C   0  0  0  0  0  0  0  0  0  0  0  0
   49.6772   -1.8244   -5.3462 C   0  0  0  0  0  0  0  0  0  0  0  0
   49.4762   -1.2229   -3.9450 C   0  0  0  0  0  0  0  0  0  0  0  0
   50.7267   -0.5324   -3.3776 C   0  0  0  0  0  0  0  0  0  0  0  0
   50.6200   -0.1291   -1.9735 N   0  0  0  0  0  0  0  0  0  0  0  0
   51.6723    0.7158   -1.3827 C   0  0  0  0  0  0  0  0  0  0  0  0
   51.2707    1.5897   -0.1708 C   0  0  0  0  0  0  0  0  0  0  0  0
   52.3718    2.5162    0.3834 C   0  0  0  0  0  0  0  0  0  0  0  0
   51.9396    3.2847    1.5471 N   0  0  0  0  0  0  0  0  0  0  0  0
  1  2  1  0  0  0  0
  2  3  1  0  0  0  0
  3  4  1  0  0  0  0
  4  5  1  0  0  0  0
  5  6  1  0  0  0  0
  6  7  1  0  0  0  0
  7  8  1  0  0  0  0
  8  9  1  0  0  0  0
  9 10  1  0  0  0  0
 10 11  1  0  0  0  0
 11 12  1  0  0  0  0
 12 13  1  0  0  0  0
 13 14  1  0  0  0  0
M  END
>  <CHROM.1>
179.04261891,-168.34644041,-57.10762003,77.56202270,85.90935870,165.90649626
-171.36282160,-170.93496116,154.82729349,-177.05948263,-178.40700756,49.79616054
-0.15812624,-4.41424060,-2.48528495,1.09003964,2.08977944

>  <Name>
ligand

>  <RI>
0

>  <Rbt.Current_Directory>
/home/itssahil/PROJECTS/Mol_Feturizer/New_Systems/rnas/4E8Q

>  <Rbt.Executable>
rbdock ($Id: //depot/dev/client3/rdock/2013.1/src/exe/rbdock.cxx#4 $)

>  <Rbt.Library>
libRbt.so (2013.1, Build901 2013/11/27)

>  <Rbt.Parameter_File>
/export/apps/rDock/src/rDock_2013.1_src/data/scripts/dock_solv.prm

>  <Rbt.Receptor>
prm/pocket_docking_5.prm

>  <SCORE>
-12.2874

>  <SCORE.INTER>
-1.40835

>  <SCORE.INTER.CONST>
1

>  <SCORE.INTER.POLAR>
0

>  <SCORE.INTER.ROT>
11

>  <SCORE.INTER.SOLV>
8.50973

>  <SCORE.INTER.VDW>
-14.7088

>  <SCORE.INTER.norm>
-0.100596

>  <SCORE.INTRA>
-10.8832

>  <SCORE.INTRA.DIHEDRAL>
-21.3709

>  <SCORE.INTRA.DIHEDRAL.0>
25.9209

>  <SCORE.INTRA.POLAR>
0

>  <SCORE.INTRA.POLAR.0>
0

>  <SCORE.INTRA.REPUL>
0

>  <SCORE.INTRA.REPUL.0>
0

>  <SCORE.INTRA.SOLV>
-1.91535

>  <SCORE.INTRA.SOLV.lig_0>
-47.4815

>  <SCORE.INTRA.VDW>
0.759885

>  <SCORE.INTRA.VDW.0>
-1.57492

>  <SCORE.INTRA.norm>
-0.777372

>  <SCORE.RESTR>
0.00412234

>  <SCORE.RESTR.CAVITY>
0.00412234

>  <SCORE.RESTR.norm>
0.000294453

>  <SCORE.SYSTEM>
0

>  <SCORE.SYSTEM.CONST>
0

>  <SCORE.SYSTEM.DIHEDRAL>
0

>  <SCORE.SYSTEM.SOLV>
0

>  <SCORE.SYSTEM.norm>
0

>  <SCORE.heavy>
14

>  <SCORE.norm>
-0.877674

>  <RMSD>
6.145

$$$$
ligand
 OpenBabel11021811493D
libRbt.so/2013.1/901 2013/11/27
 14 13  0  0  0  0  0  0  0  0999 V2000
   54.4880    7.2550   -4.7134 N   0  0  0  0  0  0  0  0  0  0  0  0
   54.4044    5.9133   -4.1496 C   0  0  0  0  0  0  0  0  0  0  0  0
   53.7362    4.9390   -5.1430 C   0  0  0  0  0  0  0  0  0  0  0  0
   53.5554    3.5033   -4.6114 C   0  0  0  0  0  0  0  0  0  0  0  0
   52.7254    3.3076   -3.4132 N   0  0  0  0  0  0  0  0  0  0  0  0
   52.4928    1.9667   -2.8651 C   0  0  0  0  0  0  0  0  0  0  0  0
   51.2946    1.2203   -3.4589 C   0  0  0  0  0  0  0  0  0  0  0  0
   51.1582   -0.2137   -2.9195 C   0  0  0  0  0  0  0  0  0  0  0  0
   49.8763   -0.9308   -3.3722 C   0  0  0  0  0  0  0  0  0  0  0  0
   49.7039   -1.0190   -4.8241 N   0  0  0  0  0  0  0  0  0  0  0  0
   48.6294   -1.8639   -5.3738 C   0  0  0  0  0  0  0  0  0  0  0  0
   48.9065   -3.3837   -5.4566 C   0  0  0  0  0  0  0  0  0  0  0  0
   47.7513   -4.2484   -6.0004 C   0  0  0  0  0  0  0  0  0  0  0  0
   47.4040   -3.9339   -7.3831 N   0  0  0  0  0  0  0  0  0  0  0  0
  1  2  1  0  0  0  0
  2  3  1  0  0  0  0
  3  4  1  0  0  0  0
  4  5  1  0  0  0  0
  5  6  1  0  0  0  0
  6  7  1  0  0  0  0
  7  8  1  0  0  0  0
  8  9  1  0  0  0  0
  9 10  1  0  0  0  0
 10 11  1  0  0  0  0
 11 12  1  0  0  0  0
 12 13  1  0  0  0  0
 13 14  1  0  0  0  0
M  END
>  <CHROM.1>
-177.78887792,60.70787525,179.01403381,-87.90823704,175.97625115,173.33015614
57.13106018,170.43181381,-80.31282612,178.42191701,63.15628553,51.15191192
0.89349722,-4.54867369,0.18381219,-0.98244353,-1.17932020

>  <Name>
ligand

>  <RI>
0

>  <Rbt.Current_Directory>
/home/itssahil/PROJECTS/Mol_Feturizer/New_Systems/rnas/4E8Q

>  <Rbt.Executable>
rbdock ($Id: //depot/dev/client3/rdock/2013.1/src/exe/rbdock.cxx#4 $)

>  <Rbt.Library>
libRbt.so (2013.1, Build901 2013/11/27)

>  <Rbt.Parameter_File>
/export/apps/rDock/src/rDock_2013.1_src/data/scripts/dock_solv.prm

>  <Rbt.Receptor>
prm/pocket_docking_7.prm

>  <SCORE>
-13.1158

>  <SCORE.INTER>
-0.884339

>  <SCORE.INTER.CONST>
1

>  <SCORE.INTER.POLAR>
0

>  <SCORE.INTER.ROT>
11

>  <SCORE.INTER.SOLV>
6.21316

>  <SCORE.INTER.VDW>
-13.5939

>  <SCORE.INTER.norm>
-0.063167

>  <SCORE.INTRA>
-12.2314

>  <SCORE.INTRA.DIHEDRAL>
-24.6592

>  <SCORE.INTRA.DIHEDRAL.0>
25.9209

>  <SCORE.INTRA.POLAR>
0

>  <SCORE.INTRA.POLAR.0>
0

>  <SCORE.INTRA.REPUL>
0

>  <SCORE.INTRA.REPUL.0>
0

>  <SCORE.INTRA.SOLV>
-0.784782

>  <SCORE.INTRA.SOLV.lig_0>
-47.4815

>  <SCORE.INTRA.VDW>
0.490557

>  <SCORE.INTRA.VDW.0>
-1.57492

>  <SCORE.INTRA.norm>
-0.873673

>  <SCORE.RESTR>
0

>  <SCORE.RESTR.CAVITY>
0

>  <SCORE.RESTR.norm>
0

>  <SCORE.SYSTEM>
0

>  <SCORE.SYSTEM.CONST>
0

>  <SCORE.SYSTEM.DIHEDRAL>
0

>  <SCORE.SYSTEM.SOLV>
0

>  <SCORE.SYSTEM.norm>
0

>  <SCORE.heavy>
14

>  <SCORE.norm>
-0.93684

>  <RMSD>
6.155

$$$$
ligand
 OpenBabel11021811493D
libRbt.so/2013.1/901 2013/11/27
 14 13  0  0  0  0  0  0  0  0999 V2000
   53.3025    2.5655    0.1632 N   0  0  0  0  0  0  0  0  0  0  0  0
   51.8805    2.3685    0.4165 C   0  0  0  0  0  0  0  0  0  0  0  0
   51.3549    1.1247   -0.3313 C   0  0  0  0  0  0  0  0  0  0  0  0
   51.4741    1.2003   -1.8665 C   0  0  0  0  0  0  0  0  0  0  0  0
   50.7791    0.1805   -2.6664 N   0  0  0  0  0  0  0  0  0  0  0  0
   51.1398   -0.0560   -4.0687 C   0  0  0  0  0  0  0  0  0  0  0  0
   49.9832   -0.4919   -4.9730 C   0  0  0  0  0  0  0  0  0  0  0  0
   49.2507   -1.7375   -4.4458 C   0  0  0  0  0  0  0  0  0  0  0  0
   48.3340   -2.4069   -5.4821 C   0  0  0  0  0  0  0  0  0  0  0  0
   47.2394   -1.5632   -5.9674 N   0  0  0  0  0  0  0  0  0  0  0  0
   46.4426   -2.0082   -7.1239 C   0  0  0  0  0  0  0  0  0  0  0  0
   46.7825   -1.3749   -8.4939 C   0  0  0  0  0  0  0  0  0  0  0  0
   48.2357   -1.5577   -8.9764 C   0  0  0  0  0  0  0  0  0  0  0  0
   48.5101   -0.8722  -10.2359 N   0  0  0  0  0  0  0  0  0  0  0  0
  1  2  1  0  0  0  0
  2  3  1  0  0  0  0
  3  4  1  0  0  0  0
  4  5  1  0  0  0  0
  5  6  1  0  0  0  0
  6  7  1  0  0  0  0
  7  8  1  0  0  0  0
  8  9  1  0  0  0  0
  9 10  1  0  0  0  0
 10 11  1  0  0  0  0
 11 12  1  0  0  0  0
 12 13  1  0  0  0  0
 13 14  1  0  0  0  0
M  END
>  <CHROM.1>
-61.60987694,-168.91699250,-162.29948993,-147.80934231,-54.98816705,-165.37183501
-61.69067885,169.47640535,-100.60618560,57.99291811,-176.67329249,49.62193924
-0.33081424,-4.57507029,-0.92940402,-0.66437327,-1.54585641

>  <Name>
ligand

>  <RI>
0

>  <Rbt.Current_Directory>
/home/itssahil/PROJECTS/Mol_Feturizer/New_Systems/rnas/4E8Q

>  <Rbt.Executable>
rbdock ($Id: //depot/dev/client3/rdock/2013.1/src/exe/rbdock.cxx#4 $)

>  <Rbt.Library>
libRbt.so (2013.1, Build901 2013/11/27)

>  <Rbt.Parameter_File>
/export/apps/rDock/src/rDock_2013.1_src/data/scripts/dock_solv.prm

>  <Rbt.Receptor>
prm/pocket_docking_8.prm

>  <SCORE>
-13.7682

>  <SCORE.INTER>
-2.5665

>  <SCORE.INTER.CONST>
1

>  <SCORE.INTER.POLAR>
0

>  <SCORE.INTER.ROT>
11

>  <SCORE.INTER.SOLV>
11.5488

>  <SCORE.INTER.VDW>
-16.4939

>  <SCORE.INTER.norm>
-0.183321

>  <SCORE.INTRA>
-11.2017

>  <SCORE.INTRA.DIHEDRAL>
-22.5289

>  <SCORE.INTRA.DIHEDRAL.0>
25.9209

>  <SCORE.INTRA.POLAR>
0

>  <SCORE.INTRA.POLAR.0>
0

>  <SCORE.INTRA.REPUL>
0

>  <SCORE.INTRA.REPUL.0>
0

>  <SCORE.INTRA.SOLV>
-0.390223

>  <SCORE.INTRA.SOLV.lig_0>
-47.4815

>  <SCORE.INTRA.VDW>
0.257895

>  <SCORE.INTRA.VDW.0>
-1.57492

>  <SCORE.INTRA.norm>
-0.800118

>  <SCORE.RESTR>
0

>  <SCORE.RESTR.CAVITY>
0

>  <SCORE.RESTR.norm>
0

>  <SCORE.SYSTEM>
0

>  <SCORE.SYSTEM.CONST>
0

>  <SCORE.SYSTEM.DIHEDRAL>
0

>  <SCORE.SYSTEM.SOLV>
0

>  <SCORE.SYSTEM.norm>
0

>  <SCORE.heavy>
14

>  <SCORE.norm>
-0.98344

>  <RMSD>
6.185

$$$$
ligand
 OpenBabel11021811493D
libRbt.so/2013.1/901 2013/11/27
 14 13  0  0  0  0  0  0  0  0999 V2000
   47.9465   -4.6783   -7.2670 N   0  0  0  0  0  0  0  0  0  0  0  0
   46.5271   -4.4449   -7.5036 C   0  0  0  0  0  0  0  0  0  0  0  0
   46.2860   -3.0197   -8.0452 C   0  0  0  0  0  0  0  0  0  0  0  0
   46.5611   -1.8920   -7.0307 C   0  0  0  0  0  0  0  0  0  0  0  0
   47.9468   -1.6850   -6.5838 N   0  0  0  0  0  0  0  0  0  0  0  0
   48.2528   -1.3946   -5.1786 C   0  0  0  0  0  0  0  0  0  0  0  0
   49.6906   -0.9427   -4.9061 C   0  0  0  0  0  0  0  0  0  0  0  0
   49.9843   -0.7594   -3.4074 C   0  0  0  0  0  0  0  0  0  0  0  0
   51.3806   -0.1893   -3.1110 C   0  0  0  0  0  0  0  0  0  0  0  0
   51.7086   -0.0815   -1.6875 N   0  0  0  0  0  0  0  0  0  0  0  0
   51.2112    1.0714   -0.9169 C   0  0  0  0  0  0  0  0  0  0  0  0
   52.2026    1.7363    0.0672 C   0  0  0  0  0  0  0  0  0  0  0  0
   51.6447    2.9169    0.8875 C   0  0  0  0  0  0  0  0  0  0  0  0
   51.3706    4.0984    0.0748 N   0  0  0  0  0  0  0  0  0  0  0  0
  1  2  1  0  0  0  0
  2  3  1  0  0  0  0
  3  4  1  0  0  0  0
  4  5  1  0  0  0  0
  5  6  1  0  0  0  0
  6  7  1  0  0  0  0
  7  8  1  0  0  0  0
  8  9  1  0  0  0  0
  9 10  1  0  0  0  0
 10 11  1  0  0  0  0
 11 12  1  0  0  0  0
 12 13  1  0  0  0  0
 13 14  1  0  0  0  0
M  END
>  <CHROM.1>
-68.43846572,66.47881742,-138.88504065,-168.89100089,-175.49173518,-174.95622853
-176.56547831,-81.24051521,-137.32561559,-178.44866899,-68.98461938,49.47943147
-0.66176208,-3.90059819,-2.18688461,-0.65179602,0.50835362

>  <Name>
ligand

>  <RI>
0

>  <Rbt.Current_Directory>
/home/itssahil/PROJECTS/Mol_Feturizer/New_Systems/rnas/4E8Q

>  <Rbt.Executable>
rbdock ($Id: //depot/dev/client3/rdock/2013.1/src/exe/rbdock.cxx#4 $)

>  <Rbt.Library>
libRbt.so (2013.1, Build901 2013/11/27)

>  <Rbt.Parameter_File>
/export/apps/rDock/src/rDock_2013.1_src/data/scripts/dock_solv.prm

>  <Rbt.Receptor>
prm/pocket_docking_7.prm

>  <SCORE>
-14.9965

>  <SCORE.INTER>
-4.60898

>  <SCORE.INTER.CONST>
1

>  <SCORE.INTER.POLAR>
0

>  <SCORE.INTER.ROT>
11

>  <SCORE.INTER.SOLV>
9.52737

>  <SCORE.INTER.VDW>
-17.1818

>  <SCORE.INTER.norm>
-0.329213

>  <SCORE.INTRA>
-10.3876

>  <SCORE.INTRA.DIHEDRAL>
-22.6301

>  <SCORE.INTRA.DIHEDRAL.0>
25.9209

>  <SCORE.INTRA.POLAR>
0

>  <SCORE.INTRA.POLAR.0>
0

>  <SCORE.INTRA.REPUL>
0

>  <SCORE.INTRA.REPUL.0>
0

>  <SCORE.INTRA.SOLV>
1.34176

>  <SCORE.INTRA.SOLV.lig_0>
-47.4815

>  <SCORE.INTRA.VDW>
0.25661

>  <SCORE.INTRA.VDW.0>
-1.57492

>  <SCORE.INTRA.norm>
-0.741968

>  <SCORE.RESTR>
0

>  <SCORE.RESTR.CAVITY>
0

>  <SCORE.RESTR.norm>
0

>  <SCORE.SYSTEM>
0

>  <SCORE.SYSTEM.CONST>
0

>  <SCORE.SYSTEM.DIHEDRAL>
0

>  <SCORE.SYSTEM.SOLV>
0

>  <SCORE.SYSTEM.norm>
0

>  <SCORE.heavy>
14

>  <SCORE.norm>
-1.07118

>  <RMSD>
6.204

$$$$
ligand
 OpenBabel11021811493D
libRbt.so/2013.1/901 2013/11/27
 14 13  0  0  0  0  0  0  0  0999 V2000
   48.6482    0.8631   -9.2523 N   0  0  0  0  0  0  0  0  0  0  0  0
   49.0315   -0.4587   -8.7714 C   0  0  0  0  0  0  0  0  0  0  0  0
   47.7925   -1.2619   -8.3219 C   0  0  0  0  0  0  0  0  0  0  0  0
   48.1063   -2.6548   -7.7403 C   0  0  0  0  0  0  0  0  0  0  0  0
   48.9244   -2.7279   -6.5204 N   0  0  0  0  0  0  0  0  0  0  0  0
   48.3239   -2.5419   -5.1948 C   0  0  0  0  0  0  0  0  0  0  0  0
   48.0936   -1.0847   -4.7839 C   0  0  0  0  0  0  0  0  0  0  0  0
   49.4029   -0.3367   -4.4801 C   0  0  0  0  0  0  0  0  0  0  0  0
   50.1442   -0.8567   -3.2381 C   0  0  0  0  0  0  0  0  0  0  0  0
   51.3583   -0.1133   -2.8934 N   0  0  0  0  0  0  0  0  0  0  0  0
   51.5861    0.2892   -1.4946 C   0  0  0  0  0  0  0  0  0  0  0  0
   51.5811    1.8066   -1.1929 C   0  0  0  0  0  0  0  0  0  0  0  0
   51.8663    2.2014    0.2703 C   0  0  0  0  0  0  0  0  0  0  0  0
   51.8432    3.6450    0.4874 N   0  0  0  0  0  0  0  0  0  0  0  0
  1  2  1  0  0  0  0
  2  3  1  0  0  0  0
  3  4  1  0  0  0  0
  4  5  1  0  0  0  0
  5  6  1  0  0  0  0
  6  7  1  0  0  0  0
  7  8  1  0  0  0  0
  8  9  1  0  0  0  0
  9 10  1  0  0  0  0
 10 11  1  0  0  0  0
 11 12  1  0  0  0  0
 12 13  1  0  0  0  0
 13 14  1  0  0  0  0
M  END
>  <CHROM.1>
-177.53638819,62.08409981,82.41114937,-80.56068757,-70.90970899,-66.57825318
-177.05817982,133.43080571,-114.24014249,-178.13181052,-179.83621276,49.76428507
-0.23106549,-4.50901908,-2.79762140,1.15417305,2.34334146

>  <Name>
ligand

>  <RI>
0

>  <Rbt.Current_Directory>
/home/itssahil/PROJECTS/Mol_Feturizer/New_Systems/rnas/4E8Q

>  <Rbt.Executable>
rbdock ($Id: //depot/dev/client3/rdock/2013.1/src/exe/rbdock.cxx#4 $)

>  <Rbt.Library>
libRbt.so (2013.1, Build901 2013/11/27)

>  <Rbt.Parameter_File>
/export/apps/rDock/src/rDock_2013.1_src/data/scripts/dock_solv.prm

>  <Rbt.Receptor>
prm/pocket_docking_7.prm

>  <SCORE>
-14.531

>  <SCORE.INTER>
-3.15415

>  <SCORE.INTER.CONST>
1

>  <SCORE.INTER.POLAR>
0

>  <SCORE.INTER.ROT>
11

>  <SCORE.INTER.SOLV>
8.31216

>  <SCORE.INTER.VDW>
-15.8068

>  <SCORE.INTER.norm>
-0.225297

>  <SCORE.INTRA>
-11.3768

>  <SCORE.INTRA.DIHEDRAL>
-22.3039

>  <SCORE.INTRA.DIHEDRAL.0>
25.9209

>  <SCORE.INTRA.POLAR>
0

>  <SCORE.INTRA.POLAR.0>
0

>  <SCORE.INTRA.REPUL>
0

>  <SCORE.INTRA.REPUL.0>
0

>  <SCORE.INTRA.SOLV>
-1.24842

>  <SCORE.INTRA.SOLV.lig_0>
-47.4815

>  <SCORE.INTRA.VDW>
0.399342

>  <SCORE.INTRA.VDW.0>
-1.57492

>  <SCORE.INTRA.norm>
-0.81263

>  <SCORE.RESTR>
0

>  <SCORE.RESTR.CAVITY>
0

>  <SCORE.RESTR.norm>
0

>  <SCORE.SYSTEM>
0

>  <SCORE.SYSTEM.CONST>
0

>  <SCORE.SYSTEM.DIHEDRAL>
0

>  <SCORE.SYSTEM.SOLV>
0

>  <SCORE.SYSTEM.norm>
0

>  <SCORE.heavy>
14

>  <SCORE.norm>
-1.03793

>  <RMSD>
6.207

$$$$
ligand
 OpenBabel11021811493D
libRbt.so/2013.1/901 2013/11/27
 14 13  0  0  0  0  0  0  0  0999 V2000
   51.2899    4.3564   -0.7032 N   0  0  0  0  0  0  0  0  0  0  0  0
   50.9936    2.9970   -1.1385 C   0  0  0  0  0  0  0  0  0  0  0  0
   51.4656    1.9676   -0.0896 C   0  0  0  0  0  0  0  0  0  0  0  0
   51.2952    0.4950   -0.5129 C   0  0  0  0  0  0  0  0  0  0  0  0
   51.9775    0.0420   -1.7344 N   0  0  0  0  0  0  0  0  0  0  0  0
   51.3117    0.1054   -3.0403 C   0  0  0  0  0  0  0  0  0  0  0  0
   50.1684   -0.8945   -3.2365 C   0  0  0  0  0  0  0  0  0  0  0  0
   49.4169   -0.6884   -4.5627 C   0  0  0  0  0  0  0  0  0  0  0  0
   48.2798   -1.6955   -4.7979 C   0  0  0  0  0  0  0  0  0  0  0  0
   47.4785   -1.4454   -5.9982 N   0  0  0  0  0  0  0  0  0  0  0  0
   48.1049   -1.5771   -7.3252 C   0  0  0  0  0  0  0  0  0  0  0  0
   47.1543   -1.6679   -8.5424 C   0  0  0  0  0  0  0  0  0  0  0  0
   46.2197   -2.8940   -8.5748 C   0  0  0  0  0  0  0  0  0  0  0  0
   46.9414   -4.1605   -8.6565 N   0  0  0  0  0  0  0  0  0  0  0  0
  1  2  1  0  0  0  0
  2  3  1  0  0  0  0
  3  4  1  0  0  0  0
  4  5  1  0  0  0  0
  5  6  1  0  0  0  0
  6  7  1  0  0  0  0
  7  8  1  0  0  0  0
  8  9  1  0  0  0  0
  9 10  1  0  0  0  0
 10 11  1  0  0  0  0
 11 12  1  0  0  0  0
 12 13  1  0  0  0  0
 13 14  1  0  0  0  0
M  END
>  <CHROM.1>
-175.39177404,58.96794571,-90.79181570,-70.60488330,174.18134861,178.93139508
174.96673652,65.91289788,164.51136354,-62.96556726,-62.75190128,49.43554043
-0.36145206,-4.20805596,0.70411093,-0.93247895,0.22867838

>  <Name>
ligand

>  <RI>
0

>  <Rbt.Current_Directory>
/home/itssahil/PROJECTS/Mol_Feturizer/New_Systems/rnas/4E8Q

>  <Rbt.Executable>
rbdock ($Id: //depot/dev/client3/rdock/2013.1/src/exe/rbdock.cxx#4 $)

>  <Rbt.Library>
libRbt.so (2013.1, Build901 2013/11/27)

>  <Rbt.Parameter_File>
/export/apps/rDock/src/rDock_2013.1_src/data/scripts/dock_solv.prm

>  <Rbt.Receptor>
prm/pocket_docking_8.prm

>  <SCORE>
-15.8363

>  <SCORE.INTER>
-4.05235

>  <SCORE.INTER.CONST>
1

>  <SCORE.INTER.POLAR>
0

>  <SCORE.INTER.ROT>
11

>  <SCORE.INTER.SOLV>
11.0625

>  <SCORE.INTER.VDW>
-17.3224

>  <SCORE.INTER.norm>
-0.289454

>  <SCORE.INTRA>
-11.7839

>  <SCORE.INTRA.DIHEDRAL>
-24.6177

>  <SCORE.INTRA.DIHEDRAL.0>
25.9209

>  <SCORE.INTRA.POLAR>
0

>  <SCORE.INTRA.POLAR.0>
0

>  <SCORE.INTRA.REPUL>
0

>  <SCORE.INTRA.REPUL.0>
0

>  <SCORE.INTRA.SOLV>
-0.258905

>  <SCORE.INTRA.SOLV.lig_0>
-47.4815

>  <SCORE.INTRA.VDW>
0.654346

>  <SCORE.INTRA.VDW.0>
-1.57492

>  <SCORE.INTRA.norm>
-0.84171

>  <SCORE.RESTR>
0

>  <SCORE.RESTR.CAVITY>
0

>  <SCORE.RESTR.norm>
0

>  <SCORE.SYSTEM>
0

>  <SCORE.SYSTEM.CONST>
0

>  <SCORE.SYSTEM.DIHEDRAL>
0

>  <SCORE.SYSTEM.SOLV>
0

>  <SCORE.SYSTEM.norm>
0

>  <SCORE.heavy>
14

>  <SCORE.norm>
-1.13116

>  <RMSD>
6.216

$$$$
ligand
 OpenBabel11021811493D
libRbt.so/2013.1/901 2013/11/27
 14 13  0  0  0  0  0  0  0  0999 V2000
   52.8920    3.3055    0.8037 N   0  0  0  0  0  0  0  0  0  0  0  0
   52.4951    1.9491    0.4459 C   0  0  0  0  0  0  0  0  0  0  0  0
   51.8380    1.9178   -0.9505 C   0  0  0  0  0  0  0  0  0  0  0  0
   51.4131    0.5153   -1.4290 C   0  0  0  0  0  0  0  0  0  0  0  0
   50.8168    0.3912   -2.7676 N   0  0  0  0  0  0  0  0  0  0  0  0
   50.1855   -0.8602   -3.2013 C   0  0  0  0  0  0  0  0  0  0  0  0
   49.3320   -0.7530   -4.4684 C   0  0  0  0  0  0  0  0  0  0  0  0
   48.6736   -2.0872   -4.8586 C   0  0  0  0  0  0  0  0  0  0  0  0
   47.8670   -2.0256   -6.1656 C   0  0  0  0  0  0  0  0  0  0  0  0
   48.6484   -1.6669   -7.3514 N   0  0  0  0  0  0  0  0  0  0  0  0
   49.0355   -2.7194   -8.3068 C   0  0  0  0  0  0  0  0  0  0  0  0
   50.3395   -2.4931   -9.1079 C   0  0  0  0  0  0  0  0  0  0  0  0
   50.3993   -1.1971   -9.9416 C   0  0  0  0  0  0  0  0  0  0  0  0
   51.6647   -1.0319  -10.6508 N   0  0  0  0  0  0  0  0  0  0  0  0
  1  2  1  0  0  0  0
  2  3  1  0  0  0  0
  3  4  1  0  0  0  0
  4  5  1  0  0  0  0
  5  6  1  0  0  0  0
  6  7  1  0  0  0  0
  7  8  1  0  0  0  0
  8  9  1  0  0  0  0
  9 10  1  0  0  0  0
 10 11  1  0  0  0  0
 11 12  1  0  0  0  0
 12 13  1  0  0  0  0
 13 14  1  0  0  0  0
M  END
>  <CHROM.1>
178.67792575,-178.13245925,-169.61730027,166.45815644,-178.84879646,-177.14159586
60.80805865,103.13410123,-151.46649657,-57.03539805,178.85869849,50.39980454
-0.48283216,-4.85349600,-1.28108699,-0.62253718,-1.81362655

>  <Name>
ligand

>  <RI>
0

>  <Rbt.Current_Directory>
/home/itssahil/PROJECTS/Mol_Feturizer/New_Systems/rnas/4E8Q

>  <Rbt.Executable>
rbdock ($Id: //depot/dev/client3/rdock/2013.1/src/exe/rbdock.cxx#4 $)

>  <Rbt.Library>
libRbt.so (2013.1, Build901 2013/11/27)

>  <Rbt.Parameter_File>
/export/apps/rDock/src/rDock_2013.1_src/data/scripts/dock_solv.prm

>  <Rbt.Receptor>
prm/pocket_docking_6.prm

>  <SCORE>
-13.1024

>  <SCORE.INTER>
-0.6082

>  <SCORE.INTER.CONST>
1

>  <SCORE.INTER.POLAR>
0

>  <SCORE.INTER.ROT>
11

>  <SCORE.INTER.SOLV>
5.87477

>  <SCORE.INTER.VDW>
-13.2971

>  <SCORE.INTER.norm>
-0.0434429

>  <SCORE.INTRA>
-12.4984

>  <SCORE.INTRA.DIHEDRAL>
-24.0554

>  <SCORE.INTRA.DIHEDRAL.0>
25.9209

>  <SCORE.INTRA.POLAR>
0

>  <SCORE.INTRA.POLAR.0>
0

>  <SCORE.INTRA.REPUL>
0

>  <SCORE.INTRA.REPUL.0>
0

>  <SCORE.INTRA.SOLV>
-1.45592

>  <SCORE.INTRA.SOLV.lig_0>
-47.4815

>  <SCORE.INTRA.VDW>
0.257233

>  <SCORE.INTRA.VDW.0>
-1.57492

>  <SCORE.INTRA.norm>
-0.892744

>  <SCORE.RESTR>
0.00426178

>  <SCORE.RESTR.CAVITY>
0.00426178

>  <SCORE.RESTR.norm>
0.000304413

>  <SCORE.SYSTEM>
0

>  <SCORE.SYSTEM.CONST>
0

>  <SCORE.SYSTEM.DIHEDRAL>
0

>  <SCORE.SYSTEM.SOLV>
0

>  <SCORE.SYSTEM.norm>
0

>  <SCORE.heavy>
14

>  <SCORE.norm>
-0.935882

>  <RMSD>
6.224

$$$$
ligand
 OpenBabel11021811493D
libRbt.so/2013.1/901 2013/11/27
 14 13  0  0  0  0  0  0  0  0999 V2000
   51.1541    3.6382   -0.3111 N   0  0  0  0  0  0  0  0  0  0  0  0
   52.3842    2.8637   -0.4225 C   0  0  0  0  0  0  0  0  0  0  0  0
   52.1412    1.3867   -0.0455 C   0  0  0  0  0  0  0  0  0  0  0  0
   51.2510    0.6093   -1.0353 C   0  0  0  0  0  0  0  0  0  0  0  0
   51.6779    0.5360   -2.4407 N   0  0  0  0  0  0  0  0  0  0  0  0
   51.1977   -0.5341   -3.3221 C   0  0  0  0  0  0  0  0  0  0  0  0
   49.7861   -0.3322   -3.8807 C   0  0  0  0  0  0  0  0  0  0  0  0
   49.2909   -1.5362   -4.6998 C   0  0  0  0  0  0  0  0  0  0  0  0
   47.9210   -1.3186   -5.3622 C   0  0  0  0  0  0  0  0  0  0  0  0
   47.4471   -2.4427   -6.1729 N   0  0  0  0  0  0  0  0  0  0  0  0
   46.4171   -2.2089   -7.2000 C   0  0  0  0  0  0  0  0  0  0  0  0
   46.8338   -1.3704   -8.4315 C   0  0  0  0  0  0  0  0  0  0  0  0
   48.0543   -1.8913   -9.2170 C   0  0  0  0  0  0  0  0  0  0  0  0
   48.4324   -1.0223  -10.3276 N   0  0  0  0  0  0  0  0  0  0  0  0
  1  2  1  0  0  0  0
  2  3  1  0  0  0  0
  3  4  1  0  0  0  0
  4  5  1  0  0  0  0
  5  6  1  0  0  0  0
  6  7  1  0  0  0  0
  7  8  1  0  0  0  0
  8  9  1  0  0  0  0
  9 10  1  0  0  0  0
 10 11  1  0  0  0  0
 11 12  1  0  0  0  0
 12 13  1  0  0  0  0
 13 14  1  0  0  0  0
M  END
>  <CHROM.1>
67.94474311,57.76620596,157.77498161,79.26774296,-175.17903132,-175.57006492
178.61962717,-159.37082520,68.52707761,55.98900428,-177.30657889,49.57057709
-0.25895752,-4.49051781,-0.75899734,-0.89663767,-1.33198831

>  <Name>
ligand

>  <RI>
0

>  <Rbt.Current_Directory>
/home/itssahil/PROJECTS/Mol_Feturizer/New_Systems/rnas/4E8Q

>  <Rbt.Executable>
rbdock ($Id: //depot/dev/client3/rdock/2013.1/src/exe/rbdock.cxx#4 $)

>  <Rbt.Library>
libRbt.so (2013.1, Build901 2013/11/27)

>  <Rbt.Parameter_File>
/export/apps/rDock/src/rDock_2013.1_src/data/scripts/dock_solv.prm

>  <Rbt.Receptor>
prm/pocket_docking_7.prm

>  <SCORE>
-15.2814

>  <SCORE.INTER>
-3.47096

>  <SCORE.INTER.CONST>
1

>  <SCORE.INTER.POLAR>
0

>  <SCORE.INTER.ROT>
11

>  <SCORE.INTER.SOLV>
11.0768

>  <SCORE.INTER.VDW>
-16.9396

>  <SCORE.INTER.norm>
-0.247926

>  <SCORE.INTRA>
-11.8104

>  <SCORE.INTRA.DIHEDRAL>
-24.3832

>  <SCORE.INTRA.DIHEDRAL.0>
25.9209

>  <SCORE.INTRA.POLAR>
0

>  <SCORE.INTRA.POLAR.0>
0

>  <SCORE.INTRA.REPUL>
0

>  <SCORE.INTRA.REPUL.0>
0

>  <SCORE.INTRA.SOLV>
-0.229845

>  <SCORE.INTRA.SOLV.lig_0>
-47.4815

>  <SCORE.INTRA.VDW>
0.496088

>  <SCORE.INTRA.VDW.0>
-1.57492

>  <SCORE.INTRA.norm>
-0.843602

>  <SCORE.RESTR>
0

>  <SCORE.RESTR.CAVITY>
0

>  <SCORE.RESTR.norm>
0

>  <SCORE.SYSTEM>
0

>  <SCORE.SYSTEM.CONST>
0

>  <SCORE.SYSTEM.DIHEDRAL>
0

>  <SCORE.SYSTEM.SOLV>
0

>  <SCORE.SYSTEM.norm>
0

>  <SCORE.heavy>
14

>  <SCORE.norm>
-1.09153

>  <RMSD>
6.244

$$$$
ligand
 OpenBabel11021811493D
libRbt.so/2013.1/901 2013/11/27
 14 13  0  0  0  0  0  0  0  0999 V2000
   54.4220    6.3667   -6.3452 N   0  0  0  0  0  0  0  0  0  0  0  0
   54.2356    4.9215   -6.3872 C   0  0  0  0  0  0  0  0  0  0  0  0
   53.3662    4.4437   -5.2047 C   0  0  0  0  0  0  0  0  0  0  0  0
   52.9787    2.9523   -5.2539 C   0  0  0  0  0  0  0  0  0  0  0  0
   52.0945    2.4312   -4.2006 N   0  0  0  0  0  0  0  0  0  0  0  0
   52.5977    2.1840   -2.8447 C   0  0  0  0  0  0  0  0  0  0  0  0
   51.6528    1.3940   -1.9345 C   0  0  0  0  0  0  0  0  0  0  0  0
   51.3383   -0.0107   -2.4766 C   0  0  0  0  0  0  0  0  0  0  0  0
   50.4302   -0.0115   -3.7167 C   0  0  0  0  0  0  0  0  0  0  0  0
   49.8603   -1.3170   -4.0578 N   0  0  0  0  0  0  0  0  0  0  0  0
   48.7114   -1.3855   -4.9775 C   0  0  0  0  0  0  0  0  0  0  0  0
   48.1804   -2.7950   -5.3309 C   0  0  0  0  0  0  0  0  0  0  0  0
   49.1667   -3.7171   -6.0757 C   0  0  0  0  0  0  0  0  0  0  0  0
   48.5642   -4.9796   -6.4936 N   0  0  0  0  0  0  0  0  0  0  0  0
  1  2  1  0  0  0  0
  2  3  1  0  0  0  0
  3  4  1  0  0  0  0
  4  5  1  0  0  0  0
  5  6  1  0  0  0  0
  6  7  1  0  0  0  0
  7  8  1  0  0  0  0
  8  9  1  0  0  0  0
  9 10  1  0  0  0  0
 10 11  1  0  0  0  0
 11 12  1  0  0  0  0
 12 13  1  0  0  0  0
 13 14  1  0  0  0  0
M  END
>  <CHROM.1>
173.29170025,-176.97592987,-75.00876648,-168.60598488,60.83987749,-71.16271018
-166.09642934,163.57375261,178.29167984,-62.82202656,-174.38109112,51.25709199
0.74841001,-4.66400321,-0.02414466,-1.01476147,-1.58914094

>  <Name>
ligand

>  <RI>
0

>  <Rbt.Current_Directory>
/home/itssahil/PROJECTS/Mol_Feturizer/New_Systems/rnas/4E8Q

>  <Rbt.Executable>
rbdock ($Id: //depot/dev/client3/rdock/2013.1/src/exe/rbdock.cxx#4 $)

>  <Rbt.Library>
libRbt.so (2013.1, Build901 2013/11/27)

>  <Rbt.Parameter_File>
/export/apps/rDock/src/rDock_2013.1_src/data/scripts/dock_solv.prm

>  <Rbt.Receptor>
prm/pocket_docking_7.prm

>  <SCORE>
-11.3138

>  <SCORE.INTER>
0.363745

>  <SCORE.INTER.CONST>
1

>  <SCORE.INTER.POLAR>
0

>  <SCORE.INTER.ROT>
11

>  <SCORE.INTER.SOLV>
10.7927

>  <SCORE.INTER.VDW>
-14.2884

>  <SCORE.INTER.norm>
0.0259818

>  <SCORE.INTRA>
-11.6775

>  <SCORE.INTRA.DIHEDRAL>
-23.8684

>  <SCORE.INTRA.DIHEDRAL.0>
25.9209

>  <SCORE.INTRA.POLAR>
0

>  <SCORE.INTRA.POLAR.0>
0

>  <SCORE.INTRA.REPUL>
0

>  <SCORE.INTRA.REPUL.0>
0

>  <SCORE.INTRA.SOLV>
-0.829961

>  <SCORE.INTRA.SOLV.lig_0>
-47.4815

>  <SCORE.INTRA.VDW>
0.671687

>  <SCORE.INTRA.VDW.0>
-1.57492

>  <SCORE.INTRA.norm>
-0.834107

>  <SCORE.RESTR>
0

>  <SCORE.RESTR.CAVITY>
0

>  <SCORE.RESTR.norm>
0

>  <SCORE.SYSTEM>
0

>  <SCORE.SYSTEM.CONST>
0

>  <SCORE.SYSTEM.DIHEDRAL>
0

>  <SCORE.SYSTEM.SOLV>
0

>  <SCORE.SYSTEM.norm>
0

>  <SCORE.heavy>
14

>  <SCORE.norm>
-0.808125

>  <RMSD>
6.276

$$$$
ligand
 OpenBabel11021811493D
libRbt.so/2013.1/901 2013/11/27
 14 13  0  0  0  0  0  0  0  0999 V2000
   49.6850    3.8098   -4.7278 N   0  0  0  0  0  0  0  0  0  0  0  0
   49.6060    4.8099   -3.6701 C   0  0  0  0  0  0  0  0  0  0  0  0
   49.6470    4.1439   -2.2782 C   0  0  0  0  0  0  0  0  0  0  0  0
   50.9263    3.3328   -1.9917 C   0  0  0  0  0  0  0  0  0  0  0  0
   51.0362    2.6472   -0.6952 N   0  0  0  0  0  0  0  0  0  0  0  0
   51.8516    1.4366   -0.5466 C   0  0  0  0  0  0  0  0  0  0  0  0
   51.2183    0.1547   -1.0953 C   0  0  0  0  0  0  0  0  0  0  0  0
   51.0423    0.1830   -2.6231 C   0  0  0  0  0  0  0  0  0  0  0  0
   50.1707   -0.9581   -3.1715 C   0  0  0  0  0  0  0  0  0  0  0  0
   49.9523   -0.9206   -4.6193 N   0  0  0  0  0  0  0  0  0  0  0  0
   48.7998   -1.6355   -5.1947 C   0  0  0  0  0  0  0  0  0  0  0  0
   48.9589   -3.1588   -5.4139 C   0  0  0  0  0  0  0  0  0  0  0  0
   47.7873   -3.8602   -6.1305 C   0  0  0  0  0  0  0  0  0  0  0  0
   47.6036   -3.4049   -7.5054 N   0  0  0  0  0  0  0  0  0  0  0  0
  1  2  1  0  0  0  0
  2  3  1  0  0  0  0
  3  4  1  0  0  0  0
  4  5  1  0  0  0  0
  5  6  1  0  0  0  0
  6  7  1  0  0  0  0
  7  8  1  0  0  0  0
  8  9  1  0  0  0  0
  9 10  1  0  0  0  0
 10 11  1  0  0  0  0
 11 12  1  0  0  0  0
 12 13  1  0  0  0  0
 13 14  1  0  0  0  0
M  END
>  <CHROM.1>
60.38689770,-179.01716072,152.64022344,-76.93879320,65.65683146,-168.78511377
177.92648058,-158.81425456,-80.93298183,-174.81678569,64.46685063,49.87765400
0.46995383,-3.54703517,0.97963968,-1.02345802,0.05537703

>  <Name>
ligand

>  <RI>
0

>  <Rbt.Current_Directory>
/home/itssahil/PROJECTS/Mol_Feturizer/New_Systems/rnas/4E8Q

>  <Rbt.Executable>
rbdock ($Id: //depot/dev/client3/rdock/2013.1/src/exe/rbdock.cxx#4 $)

>  <Rbt.Library>
libRbt.so (2013.1, Build901 2013/11/27)

>  <Rbt.Parameter_File>
/export/apps/rDock/src/rDock_2013.1_src/data/scripts/dock_solv.prm

>  <Rbt.Receptor>
prm/pocket_docking_6.prm

>  <SCORE>
-13.7204

>  <SCORE.INTER>
-2.43037

>  <SCORE.INTER.CONST>
1

>  <SCORE.INTER.POLAR>
0

>  <SCORE.INTER.ROT>
11

>  <SCORE.INTER.SOLV>
7.98071

>  <SCORE.INTER.VDW>
-15.2138

>  <SCORE.INTER.norm>
-0.173598

>  <SCORE.INTRA>
-11.29

>  <SCORE.INTRA.DIHEDRAL>
-23.6947

>  <SCORE.INTRA.DIHEDRAL.0>
25.9209

>  <SCORE.INTRA.POLAR>
0

>  <SCORE.INTRA.POLAR.0>
0

>  <SCORE.INTRA.REPUL>
0

>  <SCORE.INTRA.REPUL.0>
0

>  <SCORE.INTRA.SOLV>
-0.172245

>  <SCORE.INTRA.SOLV.lig_0>
-47.4815

>  <SCORE.INTRA.VDW>
0.643484

>  <SCORE.INTRA.VDW.0>
-1.57492

>  <SCORE.INTRA.norm>
-0.806429

>  <SCORE.RESTR>
0

>  <SCORE.RESTR.CAVITY>
0

>  <SCORE.RESTR.norm>
0

>  <SCORE.SYSTEM>
0

>  <SCORE.SYSTEM.CONST>
0

>  <SCORE.SYSTEM.DIHEDRAL>
0

>  <SCORE.SYSTEM.SOLV>
0

>  <SCORE.SYSTEM.norm>
0

>  <SCORE.heavy>
14

>  <SCORE.norm>
-0.980026

>  <RMSD>
6.297

$$$$
ligand
 OpenBabel11021811493D
libRbt.so/2013.1/901 2013/11/27
 14 13  0  0  0  0  0  0  0  0999 V2000
   47.4673   -5.6155   -8.1868 N   0  0  0  0  0  0  0  0  0  0  0  0
   47.0151   -5.3711   -6.8226 C   0  0  0  0  0  0  0  0  0  0  0  0
   47.8431   -4.2493   -6.1605 C   0  0  0  0  0  0  0  0  0  0  0  0
   47.7310   -2.8754   -6.8509 C   0  0  0  0  0  0  0  0  0  0  0  0
   48.4738   -1.7461   -6.2714 N   0  0  0  0  0  0  0  0  0  0  0  0
   47.9860   -1.0560   -5.0721 C   0  0  0  0  0  0  0  0  0  0  0  0
   48.9961   -0.9519   -3.9256 C   0  0  0  0  0  0  0  0  0  0  0  0
   50.2941   -0.2368   -4.3374 C   0  0  0  0  0  0  0  0  0  0  0  0
   51.4131   -0.3220   -3.2871 C   0  0  0  0  0  0  0  0  0  0  0  0
   51.0349    0.1417   -1.9501 N   0  0  0  0  0  0  0  0  0  0  0  0
   51.5430    1.4364   -1.4642 C   0  0  0  0  0  0  0  0  0  0  0  0
   51.2328    1.8029    0.0065 C   0  0  0  0  0  0  0  0  0  0  0  0
   51.7315    3.1854    0.4737 C   0  0  0  0  0  0  0  0  0  0  0  0
   51.3630    3.4894    1.8533 N   0  0  0  0  0  0  0  0  0  0  0  0
  1  2  1  0  0  0  0
  2  3  1  0  0  0  0
  3  4  1  0  0  0  0
  4  5  1  0  0  0  0
  5  6  1  0  0  0  0
  6  7  1  0  0  0  0
  7  8  1  0  0  0  0
  8  9  1  0  0  0  0
  9 10  1  0  0  0  0
 10 11  1  0  0  0  0
 11 12  1  0  0  0  0
 12 13  1  0  0  0  0
 13 14  1  0  0  0  0
M  END
>  <CHROM.1>
62.21845414,179.12332656,-77.35376383,126.49303124,57.75300784,-170.36084835
-54.28735403,-106.33405822,-173.73230508,-177.84682181,177.82717808,49.58035170
-0.88342938,-3.71396828,2.12427484,-0.78120448,-1.90934932

>  <Name>
ligand

>  <RI>
0

>  <Rbt.Current_Directory>
/home/itssahil/PROJECTS/Mol_Feturizer/New_Systems/rnas/4E8Q

>  <Rbt.Executable>
rbdock ($Id: //depot/dev/client3/rdock/2013.1/src/exe/rbdock.cxx#4 $)

>  <Rbt.Library>
libRbt.so (2013.1, Build901 2013/11/27)

>  <Rbt.Parameter_File>
/export/apps/rDock/src/rDock_2013.1_src/data/scripts/dock_solv.prm

>  <Rbt.Receptor>
prm/pocket_docking_8.prm

>  <SCORE>
-15.2946

>  <SCORE.INTER>
-4.0231

>  <SCORE.INTER.CONST>
1

>  <SCORE.INTER.POLAR>
0

>  <SCORE.INTER.ROT>
11

>  <SCORE.INTER.SOLV>
8.07142

>  <SCORE.INTER.VDW>
-16.3059

>  <SCORE.INTER.norm>
-0.287364

>  <SCORE.INTRA>
-11.2715

>  <SCORE.INTRA.DIHEDRAL>
-22.8592

>  <SCORE.INTRA.DIHEDRAL.0>
25.9209

>  <SCORE.INTRA.POLAR>
0

>  <SCORE.INTRA.POLAR.0>
0

>  <SCORE.INTRA.REPUL>
0

>  <SCORE.INTRA.REPUL.0>
0

>  <SCORE.INTRA.SOLV>
-0.635603

>  <SCORE.INTRA.SOLV.lig_0>
-47.4815

>  <SCORE.INTRA.VDW>
0.475935

>  <SCORE.INTRA.VDW.0>
-1.57492

>  <SCORE.INTRA.norm>
-0.805107

>  <SCORE.RESTR>
0

>  <SCORE.RESTR.CAVITY>
0

>  <SCORE.RESTR.norm>
0

>  <SCORE.SYSTEM>
0

>  <SCORE.SYSTEM.CONST>
0

>  <SCORE.SYSTEM.DIHEDRAL>
0

>  <SCORE.SYSTEM.SOLV>
0

>  <SCORE.SYSTEM.norm>
0

>  <SCORE.heavy>
14

>  <SCORE.norm>
-1.09247

>  <RMSD>
6.302

$$$$
ligand
 OpenBabel11021811493D
libRbt.so/2013.1/901 2013/11/27
 14 13  0  0  0  0  0  0  0  0999 V2000
   52.4067    3.2096    1.0467 N   0  0  0  0  0  0  0  0  0  0  0  0
   52.4803    1.9142    0.3820 C   0  0  0  0  0  0  0  0  0  0  0  0
   51.5348    1.8662   -0.8371 C   0  0  0  0  0  0  0  0  0  0  0  0
   51.5064    0.5129   -1.5750 C   0  0  0  0  0  0  0  0  0  0  0  0
   50.7084    0.4118   -2.8062 N   0  0  0  0  0  0  0  0  0  0  0  0
   50.1959   -0.8819   -3.2710 C   0  0  0  0  0  0  0  0  0  0  0  0
   49.2034   -0.8079   -4.4350 C   0  0  0  0  0  0  0  0  0  0  0  0
   48.7829   -2.1952   -4.9495 C   0  0  0  0  0  0  0  0  0  0  0  0
   47.8262   -2.1507   -6.1516 C   0  0  0  0  0  0  0  0  0  0  0  0
   48.3512   -1.4517   -7.3269 N   0  0  0  0  0  0  0  0  0  0  0  0
   47.5161   -1.3433   -8.5357 C   0  0  0  0  0  0  0  0  0  0  0  0
   48.1073   -0.5525   -9.7268 C   0  0  0  0  0  0  0  0  0  0  0  0
   48.3896    0.9412   -9.4674 C   0  0  0  0  0  0  0  0  0  0  0  0
   48.9253    1.6328  -10.6362 N   0  0  0  0  0  0  0  0  0  0  0  0
  1  2  1  0  0  0  0
  2  3  1  0  0  0  0
  3  4  1  0  0  0  0
  4  5  1  0  0  0  0
  5  6  1  0  0  0  0
  6  7  1  0  0  0  0
  7  8  1  0  0  0  0
  8  9  1  0  0  0  0
  9 10  1  0  0  0  0
 10 11  1  0  0  0  0
 11 12  1  0  0  0  0
 12 13  1  0  0  0  0
 13 14  1  0  0  0  0
M  END
>  <CHROM.1>
-177.87087422,-175.53101393,-155.77735650,170.74501116,175.62339212,-177.89229208
58.83833023,-179.74824205,177.99428643,-62.73574594,-179.06789104,49.70944888
0.07860489,-4.87781100,-0.66242456,-1.06217359,-0.96998065

>  <Name>
ligand

>  <RI>
0

>  <Rbt.Current_Directory>
/home/itssahil/PROJECTS/Mol_Feturizer/New_Systems/rnas/4E8Q

>  <Rbt.Executable>
rbdock ($Id: //depot/dev/client3/rdock/2013.1/src/exe/rbdock.cxx#4 $)

>  <Rbt.Library>
libRbt.so (2013.1, Build901 2013/11/27)

>  <Rbt.Parameter_File>
/export/apps/rDock/src/rDock_2013.1_src/data/scripts/dock_solv.prm

>  <Rbt.Receptor>
prm/pocket_docking_6.prm

>  <SCORE>
-15.7324

>  <SCORE.INTER>
-2.67707

>  <SCORE.INTER.CONST>
1

>  <SCORE.INTER.POLAR>
0

>  <SCORE.INTER.ROT>
11

>  <SCORE.INTER.SOLV>
6.33183

>  <SCORE.INTER.VDW>
-14.8287

>  <SCORE.INTER.norm>
-0.19122

>  <SCORE.INTRA>
-13.0553

>  <SCORE.INTRA.DIHEDRAL>
-25.2074

>  <SCORE.INTRA.DIHEDRAL.0>
25.9209

>  <SCORE.INTRA.POLAR>
0

>  <SCORE.INTRA.POLAR.0>
0

>  <SCORE.INTRA.REPUL>
0

>  <SCORE.INTRA.REPUL.0>
0

>  <SCORE.INTRA.SOLV>
-1.46198

>  <SCORE.INTRA.SOLV.lig_0>
-47.4815

>  <SCORE.INTRA.VDW>
0.279409

>  <SCORE.INTRA.VDW.0>
-1.57492

>  <SCORE.INTRA.norm>
-0.932522

>  <SCORE.RESTR>
0

>  <SCORE.RESTR.CAVITY>
0

>  <SCORE.RESTR.norm>
0

>  <SCORE.SYSTEM>
0

>  <SCORE.SYSTEM.CONST>
0

>  <SCORE.SYSTEM.DIHEDRAL>
0

>  <SCORE.SYSTEM.SOLV>
0

>  <SCORE.SYSTEM.norm>
0

>  <SCORE.heavy>
14

>  <SCORE.norm>
-1.12374

>  <RMSD>
6.304

$$$$
ligand
 OpenBabel11021811493D
libRbt.so/2013.1/901 2013/11/27
 14 13  0  0  0  0  0  0  0  0999 V2000
   47.9033   -3.3023   -6.6342 N   0  0  0  0  0  0  0  0  0  0  0  0
   48.8895   -2.4768   -5.9478 C   0  0  0  0  0  0  0  0  0  0  0  0
   48.2188   -1.5997   -4.8692 C   0  0  0  0  0  0  0  0  0  0  0  0
   49.1598   -0.5848   -4.1901 C   0  0  0  0  0  0  0  0  0  0  0  0
   50.3296   -1.1026   -3.4646 N   0  0  0  0  0  0  0  0  0  0  0  0
   51.3055   -0.1920   -2.8554 C   0  0  0  0  0  0  0  0  0  0  0  0
   51.0040    0.2115   -1.4092 C   0  0  0  0  0  0  0  0  0  0  0  0
   51.9543    1.3006   -0.8833 C   0  0  0  0  0  0  0  0  0  0  0  0
   51.9364    2.5960   -1.7105 C   0  0  0  0  0  0  0  0  0  0  0  0
   50.6165    3.2158   -1.8497 N   0  0  0  0  0  0  0  0  0  0  0  0
   50.0037    3.3178   -3.1855 C   0  0  0  0  0  0  0  0  0  0  0  0
   48.5643    3.8806   -3.2545 C   0  0  0  0  0  0  0  0  0  0  0  0
   48.3932    5.3450   -2.8025 C   0  0  0  0  0  0  0  0  0  0  0  0
   48.7285    5.5519   -1.3967 N   0  0  0  0  0  0  0  0  0  0  0  0
  1  2  1  0  0  0  0
  2  3  1  0  0  0  0
  3  4  1  0  0  0  0
  4  5  1  0  0  0  0
  5  6  1  0  0  0  0
  6  7  1  0  0  0  0
  7  8  1  0  0  0  0
  8  9  1  0  0  0  0
  9 10  1  0  0  0  0
 10 11  1  0  0  0  0
 11 12  1  0  0  0  0
 12 13  1  0  0  0  0
 13 14  1  0  0  0  0
M  END
>  <CHROM.1>
-173.92003872,-60.31152070,176.72868861,89.83106705,-172.66779027,58.42485664
56.42216344,-115.92866573,175.35416806,64.06710635,-63.03894057,49.78640832
1.15437926,-3.17517756,1.74100198,0.67840777,-2.76614198

>  <Name>
ligand

>  <RI>
0

>  <Rbt.Current_Directory>
/home/itssahil/PROJECTS/Mol_Feturizer/New_Systems/rnas/4E8Q

>  <Rbt.Executable>
rbdock ($Id: //depot/dev/client3/rdock/2013.1/src/exe/rbdock.cxx#4 $)

>  <Rbt.Library>
libRbt.so (2013.1, Build901 2013/11/27)

>  <Rbt.Parameter_File>
/export/apps/rDock/src/rDock_2013.1_src/data/scripts/dock_solv.prm

>  <Rbt.Receptor>
prm/pocket_docking_7.prm

>  <SCORE>
-12.7018

>  <SCORE.INTER>
-2.05092

>  <SCORE.INTER.CONST>
1

>  <SCORE.INTER.POLAR>
0

>  <SCORE.INTER.ROT>
11

>  <SCORE.INTER.SOLV>
10.6414

>  <SCORE.INTER.VDW>
-15.8477

>  <SCORE.INTER.norm>
-0.146494

>  <SCORE.INTRA>
-10.6509

>  <SCORE.INTRA.DIHEDRAL>
-23.6175

>  <SCORE.INTRA.DIHEDRAL.0>
25.9209

>  <SCORE.INTRA.POLAR>
0

>  <SCORE.INTRA.POLAR.0>
0

>  <SCORE.INTRA.REPUL>
0

>  <SCORE.INTRA.REPUL.0>
0

>  <SCORE.INTRA.SOLV>
1.62947

>  <SCORE.INTRA.SOLV.lig_0>
-47.4815

>  <SCORE.INTRA.VDW>
0.343143

>  <SCORE.INTRA.VDW.0>
-1.57492

>  <SCORE.INTRA.norm>
-0.760776

>  <SCORE.RESTR>
0

>  <SCORE.RESTR.CAVITY>
0

>  <SCORE.RESTR.norm>
0

>  <SCORE.SYSTEM>
0

>  <SCORE.SYSTEM.CONST>
0

>  <SCORE.SYSTEM.DIHEDRAL>
0

>  <SCORE.SYSTEM.SOLV>
0

>  <SCORE.SYSTEM.norm>
0

>  <SCORE.heavy>
14

>  <SCORE.norm>
-0.90727

>  <RMSD>
6.321

$$$$
ligand
 OpenBabel11021811493D
libRbt.so/2013.1/901 2013/11/27
 14 13  0  0  0  0  0  0  0  0999 V2000
   53.7632    4.5014   -2.8279 N   0  0  0  0  0  0  0  0  0  0  0  0
   53.4660    3.0750   -2.8733 C   0  0  0  0  0  0  0  0  0  0  0  0
   52.2445    2.7385   -1.9918 C   0  0  0  0  0  0  0  0  0  0  0  0
   51.8328    1.2529   -2.0047 C   0  0  0  0  0  0  0  0  0  0  0  0
   51.5260    0.6302   -3.3012 N   0  0  0  0  0  0  0  0  0  0  0  0
   50.5795   -0.4866   -3.3986 C   0  0  0  0  0  0  0  0  0  0  0  0
   49.6316   -0.4327   -4.6003 C   0  0  0  0  0  0  0  0  0  0  0  0
   48.6644   -1.6276   -4.6510 C   0  0  0  0  0  0  0  0  0  0  0  0
   47.6821   -1.5848   -5.8325 C   0  0  0  0  0  0  0  0  0  0  0  0
   48.3119   -1.6224   -7.1544 N   0  0  0  0  0  0  0  0  0  0  0  0
   47.4732   -1.4876   -8.3581 C   0  0  0  0  0  0  0  0  0  0  0  0
   48.1020   -0.7638   -9.5723 C   0  0  0  0  0  0  0  0  0  0  0  0
   48.4965    0.7096   -9.3455 C   0  0  0  0  0  0  0  0  0  0  0  0
   48.9840    1.3635  -10.5565 N   0  0  0  0  0  0  0  0  0  0  0  0
  1  2  1  0  0  0  0
  2  3  1  0  0  0  0
  3  4  1  0  0  0  0
  4  5  1  0  0  0  0
  5  6  1  0  0  0  0
  6  7  1  0  0  0  0
  7  8  1  0  0  0  0
  8  9  1  0  0  0  0
  9 10  1  0  0  0  0
 10 11  1  0  0  0  0
 11 12  1  0  0  0  0
 12 13  1  0  0  0  0
 13 14  1  0  0  0  0
M  END
>  <CHROM.1>
178.57169618,-56.52189091,-151.38151426,139.17360965,179.96466475,178.85653959
61.96188840,-175.57382329,146.63790812,-62.10558210,-175.42166405,50.05387081
0.44722703,-5.46181345,-0.53211213,-0.87994150,-1.12816424

>  <Name>
ligand

>  <RI>
0

>  <Rbt.Current_Directory>
/home/itssahil/PROJECTS/Mol_Feturizer/New_Systems/rnas/4E8Q

>  <Rbt.Executable>
rbdock ($Id: //depot/dev/client3/rdock/2013.1/src/exe/rbdock.cxx#4 $)

>  <Rbt.Library>
libRbt.so (2013.1, Build901 2013/11/27)

>  <Rbt.Parameter_File>
/export/apps/rDock/src/rDock_2013.1_src/data/scripts/dock_solv.prm

>  <Rbt.Receptor>
prm/pocket_docking_6.prm

>  <SCORE>
-13.2783

>  <SCORE.INTER>
-1.07601

>  <SCORE.INTER.CONST>
1

>  <SCORE.INTER.POLAR>
0

>  <SCORE.INTER.ROT>
11

>  <SCORE.INTER.SOLV>
6.07602

>  <SCORE.INTER.VDW>
-13.676

>  <SCORE.INTER.norm>
-0.0768578

>  <SCORE.INTRA>
-12.2023

>  <SCORE.INTRA.DIHEDRAL>
-23.5519

>  <SCORE.INTRA.DIHEDRAL.0>
25.9209

>  <SCORE.INTRA.POLAR>
0

>  <SCORE.INTRA.POLAR.0>
0

>  <SCORE.INTRA.REPUL>
0

>  <SCORE.INTRA.REPUL.0>
0

>  <SCORE.INTRA.SOLV>
-1.16393

>  <SCORE.INTRA.SOLV.lig_0>
-47.4815

>  <SCORE.INTRA.VDW>
0.15561

>  <SCORE.INTRA.VDW.0>
-1.57492

>  <SCORE.INTRA.norm>
-0.871592

>  <SCORE.RESTR>
0

>  <SCORE.RESTR.CAVITY>
0

>  <SCORE.RESTR.norm>
0

>  <SCORE.SYSTEM>
0

>  <SCORE.SYSTEM.CONST>
0

>  <SCORE.SYSTEM.DIHEDRAL>
0

>  <SCORE.SYSTEM.SOLV>
0

>  <SCORE.SYSTEM.norm>
0

>  <SCORE.heavy>
14

>  <SCORE.norm>
-0.94845

>  <RMSD>
6.336

$$$$
ligand
 OpenBabel11021811493D
libRbt.so/2013.1/901 2013/11/27
 14 13  0  0  0  0  0  0  0  0999 V2000
   51.2937    6.0699   -1.6023 N   0  0  0  0  0  0  0  0  0  0  0  0
   51.4682    4.9461   -2.5143 C   0  0  0  0  0  0  0  0  0  0  0  0
   51.2395    3.6047   -1.7857 C   0  0  0  0  0  0  0  0  0  0  0  0
   51.4537    2.3537   -2.6608 C   0  0  0  0  0  0  0  0  0  0  0  0
   51.2680    1.0337   -2.0397 N   0  0  0  0  0  0  0  0  0  0  0  0
   51.4405   -0.1988   -2.8168 C   0  0  0  0  0  0  0  0  0  0  0  0
   50.1411   -0.9132   -3.1997 C   0  0  0  0  0  0  0  0  0  0  0  0
   49.3419   -0.1608   -4.2772 C   0  0  0  0  0  0  0  0  0  0  0  0
   47.9342   -0.7285   -4.5195 C   0  0  0  0  0  0  0  0  0  0  0  0
   47.8977   -2.1545   -4.8519 N   0  0  0  0  0  0  0  0  0  0  0  0
   48.0235   -2.5715   -6.2593 C   0  0  0  0  0  0  0  0  0  0  0  0
   49.0235   -3.7117   -6.5652 C   0  0  0  0  0  0  0  0  0  0  0  0
   49.1107   -4.1508   -8.0409 C   0  0  0  0  0  0  0  0  0  0  0  0
   49.4375   -3.0524   -8.9454 N   0  0  0  0  0  0  0  0  0  0  0  0
  1  2  1  0  0  0  0
  2  3  1  0  0  0  0
  3  4  1  0  0  0  0
  4  5  1  0  0  0  0
  5  6  1  0  0  0  0
  6  7  1  0  0  0  0
  7  8  1  0  0  0  0
  8  9  1  0  0  0  0
  9 10  1  0  0  0  0
 10 11  1  0  0  0  0
 11 12  1  0  0  0  0
 12 13  1  0  0  0  0
 13 14  1  0  0  0  0
M  END
>  <CHROM.1>
-177.86750149,179.44335843,179.29871876,-105.04468062,71.44077616,-170.70241860
-55.18732497,-87.96989702,132.43020740,178.60923055,56.45830550,49.93381434
0.02594093,-4.29130448,-0.32864272,-1.26758350,-1.30407239

>  <Name>
ligand

>  <RI>
0

>  <Rbt.Current_Directory>
/home/itssahil/PROJECTS/Mol_Feturizer/New_Systems/rnas/4E8Q

>  <Rbt.Executable>
rbdock ($Id: //depot/dev/client3/rdock/2013.1/src/exe/rbdock.cxx#4 $)

>  <Rbt.Library>
libRbt.so (2013.1, Build901 2013/11/27)

>  <Rbt.Parameter_File>
/export/apps/rDock/src/rDock_2013.1_src/data/scripts/dock_solv.prm

>  <Rbt.Receptor>
prm/pocket_docking_6.prm

>  <SCORE>
-11.8957

>  <SCORE.INTER>
-0.636172

>  <SCORE.INTER.CONST>
1

>  <SCORE.INTER.POLAR>
0

>  <SCORE.INTER.ROT>
11

>  <SCORE.INTER.SOLV>
9.45428

>  <SCORE.INTER.VDW>
-14.5089

>  <SCORE.INTER.norm>
-0.0454409

>  <SCORE.INTRA>
-11.2595

>  <SCORE.INTRA.DIHEDRAL>
-22.2853

>  <SCORE.INTRA.DIHEDRAL.0>
25.9209

>  <SCORE.INTRA.POLAR>
0

>  <SCORE.INTRA.POLAR.0>
0

>  <SCORE.INTRA.REPUL>
0

>  <SCORE.INTRA.REPUL.0>
0

>  <SCORE.INTRA.SOLV>
-0.703902

>  <SCORE.INTRA.SOLV.lig_0>
-47.4815

>  <SCORE.INTRA.VDW>
0.235128

>  <SCORE.INTRA.VDW.0>
-1.57492

>  <SCORE.INTRA.norm>
-0.804249

>  <SCORE.RESTR>
0

>  <SCORE.RESTR.CAVITY>
0

>  <SCORE.RESTR.norm>
0

>  <SCORE.SYSTEM>
0

>  <SCORE.SYSTEM.CONST>
0

>  <SCORE.SYSTEM.DIHEDRAL>
0

>  <SCORE.SYSTEM.SOLV>
0

>  <SCORE.SYSTEM.norm>
0

>  <SCORE.heavy>
14

>  <SCORE.norm>
-0.84969

>  <RMSD>
6.367

$$$$
ligand
 OpenBabel11021811493D
libRbt.so/2013.1/901 2013/11/27
 14 13  0  0  0  0  0  0  0  0999 V2000
   51.6193    3.7208    1.7267 N   0  0  0  0  0  0  0  0  0  0  0  0
   50.9026    2.6160    1.1013 C   0  0  0  0  0  0  0  0  0  0  0  0
   51.7409    1.9869   -0.0319 C   0  0  0  0  0  0  0  0  0  0  0  0
   51.1987    0.6450   -0.5628 C   0  0  0  0  0  0  0  0  0  0  0  0
   51.8774    0.0302   -1.7135 N   0  0  0  0  0  0  0  0  0  0  0  0
   51.3529    0.1894   -3.0745 C   0  0  0  0  0  0  0  0  0  0  0  0
   50.1305   -0.6719   -3.4052 C   0  0  0  0  0  0  0  0  0  0  0  0
   49.5470   -0.3702   -4.7960 C   0  0  0  0  0  0  0  0  0  0  0  0
   48.3860   -1.2936   -5.1987 C   0  0  0  0  0  0  0  0  0  0  0  0
   48.7023   -2.7235   -5.1698 N   0  0  0  0  0  0  0  0  0  0  0  0
   47.9669   -3.6439   -6.0544 C   0  0  0  0  0  0  0  0  0  0  0  0
   48.2973   -5.1500   -5.9283 C   0  0  0  0  0  0  0  0  0  0  0  0
   47.4968   -6.0927   -6.8494 C   0  0  0  0  0  0  0  0  0  0  0  0
   47.7382   -5.8462   -8.2680 N   0  0  0  0  0  0  0  0  0  0  0  0
  1  2  1  0  0  0  0
  2  3  1  0  0  0  0
  3  4  1  0  0  0  0
  4  5  1  0  0  0  0
  5  6  1  0  0  0  0
  6  7  1  0  0  0  0
  7  8  1  0  0  0  0
  8  9  1  0  0  0  0
  9 10  1  0  0  0  0
 10 11  1  0  0  0  0
 11 12  1  0  0  0  0
 12 13  1  0  0  0  0
 13 14  1  0  0  0  0
M  END
>  <CHROM.1>
168.31035569,175.29395426,-98.20630074,-76.35088951,174.72200232,175.56590895
-56.28081837,-152.87116990,-177.08820103,179.03867717,62.79474031,49.78254346
-1.18597935,-3.44463402,-0.45751154,1.18922705,2.84455913

>  <Name>
ligand

>  <RI>
0

>  <Rbt.Current_Directory>
/home/itssahil/PROJECTS/Mol_Feturizer/New_Systems/rnas/4E8Q

>  <Rbt.Executable>
rbdock ($Id: //depot/dev/client3/rdock/2013.1/src/exe/rbdock.cxx#4 $)

>  <Rbt.Library>
libRbt.so (2013.1, Build901 2013/11/27)

>  <Rbt.Parameter_File>
/export/apps/rDock/src/rDock_2013.1_src/data/scripts/dock_solv.prm

>  <Rbt.Receptor>
prm/pocket_docking_8.prm

>  <SCORE>
-15.9233

>  <SCORE.INTER>
-4.18702

>  <SCORE.INTER.CONST>
1

>  <SCORE.INTER.POLAR>
0

>  <SCORE.INTER.ROT>
11

>  <SCORE.INTER.SOLV>
11.1787

>  <SCORE.INTER.VDW>
-17.4509

>  <SCORE.INTER.norm>
-0.299073

>  <SCORE.INTRA>
-11.7363

>  <SCORE.INTRA.DIHEDRAL>
-23.4907

>  <SCORE.INTRA.DIHEDRAL.0>
25.9209

>  <SCORE.INTRA.POLAR>
0

>  <SCORE.INTRA.POLAR.0>
0

>  <SCORE.INTRA.REPUL>
0

>  <SCORE.INTRA.REPUL.0>
0

>  <SCORE.INTRA.SOLV>
-1.0476

>  <SCORE.INTRA.SOLV.lig_0>
-47.4815

>  <SCORE.INTRA.VDW>
0.532829

>  <SCORE.INTRA.VDW.0>
-1.57492

>  <SCORE.INTRA.norm>
-0.838308

>  <SCORE.RESTR>
0

>  <SCORE.RESTR.CAVITY>
0

>  <SCORE.RESTR.norm>
0

>  <SCORE.SYSTEM>
0

>  <SCORE.SYSTEM.CONST>
0

>  <SCORE.SYSTEM.DIHEDRAL>
0

>  <SCORE.SYSTEM.SOLV>
0

>  <SCORE.SYSTEM.norm>
0

>  <SCORE.heavy>
14

>  <SCORE.norm>
-1.13738

>  <RMSD>
6.369

$$$$
ligand
 OpenBabel11021811493D
libRbt.so/2013.1/901 2013/11/27
 14 13  0  0  0  0  0  0  0  0999 V2000
   48.0373   -2.2807   -9.2505 N   0  0  0  0  0  0  0  0  0  0  0  0
   46.9813   -1.6058   -8.5058 C   0  0  0  0  0  0  0  0  0  0  0  0
   46.5828   -2.4188   -7.2558 C   0  0  0  0  0  0  0  0  0  0  0  0
   47.7171   -2.6186   -6.2310 C   0  0  0  0  0  0  0  0  0  0  0  0
   48.2508   -1.4307   -5.5479 N   0  0  0  0  0  0  0  0  0  0  0  0
   49.3442   -1.5444   -4.5762 C   0  0  0  0  0  0  0  0  0  0  0  0
   49.9093   -0.2125   -4.0743 C   0  0  0  0  0  0  0  0  0  0  0  0
   51.0512   -0.3935   -3.0599 C   0  0  0  0  0  0  0  0  0  0  0  0
   51.6417    0.9284   -2.5434 C   0  0  0  0  0  0  0  0  0  0  0  0
   52.1719    1.8109   -3.5853 N   0  0  0  0  0  0  0  0  0  0  0  0
   53.2484    2.7591   -3.2497 C   0  0  0  0  0  0  0  0  0  0  0  0
   53.6972    3.7326   -4.3652 C   0  0  0  0  0  0  0  0  0  0  0  0
   54.2216    3.0763   -5.6584 C   0  0  0  0  0  0  0  0  0  0  0  0
   53.1943    2.3277   -6.3765 N   0  0  0  0  0  0  0  0  0  0  0  0
  1  2  1  0  0  0  0
  2  3  1  0  0  0  0
  3  4  1  0  0  0  0
  4  5  1  0  0  0  0
  5  6  1  0  0  0  0
  6  7  1  0  0  0  0
  7  8  1  0  0  0  0
  8  9  1  0  0  0  0
  9 10  1  0  0  0  0
 10 11  1  0  0  0  0
 11 12  1  0  0  0  0
 12 13  1  0  0  0  0
 13 14  1  0  0  0  0
M  END
>  <CHROM.1>
61.73700832,64.96905475,-179.05526902,172.87723210,-179.98780213,179.75672963
-57.92750967,-153.04295466,-175.80561802,-58.98393902,65.57367731,50.43208818
0.15216100,-5.30535575,-2.82679716,0.72851123,1.70622073

>  <Name>
ligand

>  <RI>
0

>  <Rbt.Current_Directory>
/home/itssahil/PROJECTS/Mol_Feturizer/New_Systems/rnas/4E8Q

>  <Rbt.Executable>
rbdock ($Id: //depot/dev/client3/rdock/2013.1/src/exe/rbdock.cxx#4 $)

>  <Rbt.Library>
libRbt.so (2013.1, Build901 2013/11/27)

>  <Rbt.Parameter_File>
/export/apps/rDock/src/rDock_2013.1_src/data/scripts/dock_solv.prm

>  <Rbt.Receptor>
prm/pocket_docking_8.prm

>  <SCORE>
-14.3025

>  <SCORE.INTER>
-3.07264

>  <SCORE.INTER.CONST>
1

>  <SCORE.INTER.POLAR>
0

>  <SCORE.INTER.ROT>
11

>  <SCORE.INTER.SOLV>
9.55714

>  <SCORE.INTER.VDW>
-16.1675

>  <SCORE.INTER.norm>
-0.219474

>  <SCORE.INTRA>
-11.2298

>  <SCORE.INTRA.DIHEDRAL>
-25.1183

>  <SCORE.INTRA.DIHEDRAL.0>
25.9209

>  <SCORE.INTRA.POLAR>
0

>  <SCORE.INTRA.POLAR.0>
0

>  <SCORE.INTRA.REPUL>
0

>  <SCORE.INTRA.REPUL.0>
0

>  <SCORE.INTRA.SOLV>
2.40318

>  <SCORE.INTRA.SOLV.lig_0>
-47.4815

>  <SCORE.INTRA.VDW>
0.12774

>  <SCORE.INTRA.VDW.0>
-1.57492

>  <SCORE.INTRA.norm>
-0.802131

>  <SCORE.RESTR>
0

>  <SCORE.RESTR.CAVITY>
0

>  <SCORE.RESTR.norm>
0

>  <SCORE.SYSTEM>
0

>  <SCORE.SYSTEM.CONST>
0

>  <SCORE.SYSTEM.DIHEDRAL>
0

>  <SCORE.SYSTEM.SOLV>
0

>  <SCORE.SYSTEM.norm>
0

>  <SCORE.heavy>
14

>  <SCORE.norm>
-1.02161

>  <RMSD>
6.388

$$$$
ligand
 OpenBabel11021811493D
libRbt.so/2013.1/901 2013/11/27
 14 13  0  0  0  0  0  0  0  0999 V2000
   48.3539    1.6208   -9.5778 N   0  0  0  0  0  0  0  0  0  0  0  0
   48.4712    0.4112  -10.3829 C   0  0  0  0  0  0  0  0  0  0  0  0
   48.6224   -0.8354   -9.4853 C   0  0  0  0  0  0  0  0  0  0  0  0
   47.3732   -1.1811   -8.6506 C   0  0  0  0  0  0  0  0  0  0  0  0
   47.4766   -2.2697   -7.6673 N   0  0  0  0  0  0  0  0  0  0  0  0
   47.6078   -1.9844   -6.2341 C   0  0  0  0  0  0  0  0  0  0  0  0
   48.9703   -1.4341   -5.8026 C   0  0  0  0  0  0  0  0  0  0  0  0
   49.0545   -1.1688   -4.2899 C   0  0  0  0  0  0  0  0  0  0  0  0
   50.4018   -0.5867   -3.8331 C   0  0  0  0  0  0  0  0  0  0  0  0
   50.5176   -0.3706   -2.3890 N   0  0  0  0  0  0  0  0  0  0  0  0
   51.5500    0.5471   -1.8766 C   0  0  0  0  0  0  0  0  0  0  0  0
   51.3389    1.1136   -0.4525 C   0  0  0  0  0  0  0  0  0  0  0  0
   52.3903    2.1348    0.0268 C   0  0  0  0  0  0  0  0  0  0  0  0
   52.0957    2.6806    1.3485 N   0  0  0  0  0  0  0  0  0  0  0  0
  1  2  1  0  0  0  0
  2  3  1  0  0  0  0
  3  4  1  0  0  0  0
  4  5  1  0  0  0  0
  5  6  1  0  0  0  0
  6  7  1  0  0  0  0
  7  8  1  0  0  0  0
  8  9  1  0  0  0  0
  9 10  1  0  0  0  0
 10 11  1  0  0  0  0
 11 12  1  0  0  0  0
 12 13  1  0  0  0  0
 13 14  1  0  0  0  0
M  END
>  <CHROM.1>
67.36442832,-173.86044670,102.99974850,-72.45386957,-179.36501100,-178.73350333
-177.98448642,-160.96533223,159.68764361,-176.55142534,177.04199281,49.58745020
-0.09468499,-4.94775341,-2.45059441,1.04887562,2.14009115

>  <Name>
ligand

>  <RI>
0

>  <Rbt.Current_Directory>
/home/itssahil/PROJECTS/Mol_Feturizer/New_Systems/rnas/4E8Q

>  <Rbt.Executable>
rbdock ($Id: //depot/dev/client3/rdock/2013.1/src/exe/rbdock.cxx#4 $)

>  <Rbt.Library>
libRbt.so (2013.1, Build901 2013/11/27)

>  <Rbt.Parameter_File>
/export/apps/rDock/src/rDock_2013.1_src/data/scripts/dock_solv.prm

>  <Rbt.Receptor>
prm/pocket_docking_6.prm

>  <SCORE>
-14.2287

>  <SCORE.INTER>
-2.0172

>  <SCORE.INTER.CONST>
1

>  <SCORE.INTER.POLAR>
0

>  <SCORE.INTER.ROT>
11

>  <SCORE.INTER.SOLV>
9.30875

>  <SCORE.INTER.VDW>
-15.3811

>  <SCORE.INTER.norm>
-0.144086

>  <SCORE.INTRA>
-12.2115

>  <SCORE.INTRA.DIHEDRAL>
-23.792

>  <SCORE.INTRA.DIHEDRAL.0>
25.9209

>  <SCORE.INTRA.POLAR>
0

>  <SCORE.INTRA.POLAR.0>
0

>  <SCORE.INTRA.REPUL>
0

>  <SCORE.INTRA.REPUL.0>
0

>  <SCORE.INTRA.SOLV>
-1.47898

>  <SCORE.INTRA.SOLV.lig_0>
-47.4815

>  <SCORE.INTRA.VDW>
0.424013

>  <SCORE.INTRA.VDW.0>
-1.57492

>  <SCORE.INTRA.norm>
-0.872248

>  <SCORE.RESTR>
0

>  <SCORE.RESTR.CAVITY>
0

>  <SCORE.RESTR.norm>
0

>  <SCORE.SYSTEM>
0

>  <SCORE.SYSTEM.CONST>
0

>  <SCORE.SYSTEM.DIHEDRAL>
0

>  <SCORE.SYSTEM.SOLV>
0

>  <SCORE.SYSTEM.norm>
0

>  <SCORE.heavy>
14

>  <SCORE.norm>
-1.01633

>  <RMSD>
6.408

$$$$
ligand
 OpenBabel11021811493D
libRbt.so/2013.1/901 2013/11/27
 14 13  0  0  0  0  0  0  0  0999 V2000
   46.5712   -4.0957   -9.8756 N   0  0  0  0  0  0  0  0  0  0  0  0
   46.6219   -4.4113   -8.4532 C   0  0  0  0  0  0  0  0  0  0  0  0
   47.5488   -3.4304   -7.7041 C   0  0  0  0  0  0  0  0  0  0  0  0
   47.7913   -3.7805   -6.2224 C   0  0  0  0  0  0  0  0  0  0  0  0
   48.6284   -2.8724   -5.4240 N   0  0  0  0  0  0  0  0  0  0  0  0
   48.1652   -1.5235   -5.0797 C   0  0  0  0  0  0  0  0  0  0  0  0
   48.9617   -0.8251   -3.9736 C   0  0  0  0  0  0  0  0  0  0  0  0
   50.4535   -0.6752   -4.3167 C   0  0  0  0  0  0  0  0  0  0  0  0
   51.3112   -0.1517   -3.1535 C   0  0  0  0  0  0  0  0  0  0  0  0
   50.9487    1.1858   -2.6788 N   0  0  0  0  0  0  0  0  0  0  0  0
   51.7295    1.8027   -1.5924 C   0  0  0  0  0  0  0  0  0  0  0  0
   51.1437    3.0815   -0.9480 C   0  0  0  0  0  0  0  0  0  0  0  0
   52.0109    3.7416    0.1430 C   0  0  0  0  0  0  0  0  0  0  0  0
   52.2443    2.8713    1.2917 N   0  0  0  0  0  0  0  0  0  0  0  0
  1  2  1  0  0  0  0
  2  3  1  0  0  0  0
  3  4  1  0  0  0  0
  4  5  1  0  0  0  0
  5  6  1  0  0  0  0
  6  7  1  0  0  0  0
  7  8  1  0  0  0  0
  8  9  1  0  0  0  0
  9 10  1  0  0  0  0
 10 11  1  0  0  0  0
 11 12  1  0  0  0  0
 12 13  1  0  0  0  0
 13 14  1  0  0  0  0
M  END
>  <CHROM.1>
-173.43009926,-178.05808023,68.60895350,165.40915883,58.69862537,-172.20433230
-61.75556791,-178.26771503,-168.45853345,-177.38240783,-61.44353900,49.58073482
-0.64876563,-4.14192833,2.79752131,1.10808558,2.81105274

>  <Name>
ligand

>  <RI>
0

>  <Rbt.Current_Directory>
/home/itssahil/PROJECTS/Mol_Feturizer/New_Systems/rnas/4E8Q

>  <Rbt.Executable>
rbdock ($Id: //depot/dev/client3/rdock/2013.1/src/exe/rbdock.cxx#4 $)

>  <Rbt.Library>
libRbt.so (2013.1, Build901 2013/11/27)

>  <Rbt.Parameter_File>
/export/apps/rDock/src/rDock_2013.1_src/data/scripts/dock_solv.prm

>  <Rbt.Receptor>
prm/pocket_docking_8.prm

>  <SCORE>
-13.2233

>  <SCORE.INTER>
-0.85956

>  <SCORE.INTER.CONST>
1

>  <SCORE.INTER.POLAR>
0

>  <SCORE.INTER.ROT>
11

>  <SCORE.INTER.SOLV>
8.82192

>  <SCORE.INTER.VDW>
-14.447

>  <SCORE.INTER.norm>
-0.0613971

>  <SCORE.INTRA>
-12.3637

>  <SCORE.INTRA.DIHEDRAL>
-25.1063

>  <SCORE.INTRA.DIHEDRAL.0>
25.9209

>  <SCORE.INTRA.POLAR>
0

>  <SCORE.INTRA.POLAR.0>
0

>  <SCORE.INTRA.REPUL>
0

>  <SCORE.INTRA.REPUL.0>
0

>  <SCORE.INTRA.SOLV>
-0.696679

>  <SCORE.INTRA.SOLV.lig_0>
-47.4815

>  <SCORE.INTRA.VDW>
0.537785

>  <SCORE.INTRA.VDW.0>
-1.57492

>  <SCORE.INTRA.norm>
-0.883123

>  <SCORE.RESTR>
0

>  <SCORE.RESTR.CAVITY>
0

>  <SCORE.RESTR.norm>
0

>  <SCORE.SYSTEM>
0

>  <SCORE.SYSTEM.CONST>
0

>  <SCORE.SYSTEM.DIHEDRAL>
0

>  <SCORE.SYSTEM.SOLV>
0

>  <SCORE.SYSTEM.norm>
0

>  <SCORE.heavy>
14

>  <SCORE.norm>
-0.94452

>  <RMSD>
6.417

$$$$
ligand
 OpenBabel11021811493D
libRbt.so/2013.1/901 2013/11/27
 14 13  0  0  0  0  0  0  0  0999 V2000
   53.5580    4.6326   -4.3410 N   0  0  0  0  0  0  0  0  0  0  0  0
   53.6006    3.6093   -3.3036 C   0  0  0  0  0  0  0  0  0  0  0  0
   52.2930    2.7893   -3.2848 C   0  0  0  0  0  0  0  0  0  0  0  0
   52.2490    1.6748   -2.2206 C   0  0  0  0  0  0  0  0  0  0  0  0
   51.1214    0.7311   -2.2519 N   0  0  0  0  0  0  0  0  0  0  0  0
   50.8277   -0.0566   -3.4543 C   0  0  0  0  0  0  0  0  0  0  0  0
   49.6588   -1.0369   -3.3200 C   0  0  0  0  0  0  0  0  0  0  0  0
   49.2070   -1.6151   -4.6718 C   0  0  0  0  0  0  0  0  0  0  0  0
   48.5055   -0.5952   -5.5830 C   0  0  0  0  0  0  0  0  0  0  0  0
   48.0808   -1.1239   -6.8813 N   0  0  0  0  0  0  0  0  0  0  0  0
   46.8295   -1.8961   -6.9723 C   0  0  0  0  0  0  0  0  0  0  0  0
   46.9599   -3.4085   -7.2708 C   0  0  0  0  0  0  0  0  0  0  0  0
   47.7801   -4.2259   -6.2524 C   0  0  0  0  0  0  0  0  0  0  0  0
   48.0417   -5.5924   -6.6948 N   0  0  0  0  0  0  0  0  0  0  0  0
  1  2  1  0  0  0  0
  2  3  1  0  0  0  0
  3  4  1  0  0  0  0
  4  5  1  0  0  0  0
  5  6  1  0  0  0  0
  6  7  1  0  0  0  0
  7  8  1  0  0  0  0
  8  9  1  0  0  0  0
  9 10  1  0  0  0  0
 10 11  1  0  0  0  0
 11 12  1  0  0  0  0
 12 13  1  0  0  0  0
 13 14  1  0  0  0  0
M  END
>  <CHROM.1>
179.70928442,-171.87548565,56.72564565,177.66344379,167.98495506,-70.17891860
179.36743432,80.65331429,-110.92626990,59.12210612,-170.98410648,49.90796246
-0.43673919,-4.75006218,0.31272120,-0.91612001,-0.69325651

>  <Name>
ligand

>  <RI>
0

>  <Rbt.Current_Directory>
/home/itssahil/PROJECTS/Mol_Feturizer/New_Systems/rnas/4E8Q

>  <Rbt.Executable>
rbdock ($Id: //depot/dev/client3/rdock/2013.1/src/exe/rbdock.cxx#4 $)

>  <Rbt.Library>
libRbt.so (2013.1, Build901 2013/11/27)

>  <Rbt.Parameter_File>
/export/apps/rDock/src/rDock_2013.1_src/data/scripts/dock_solv.prm

>  <Rbt.Receptor>
prm/pocket_docking_7.prm

>  <SCORE>
-12.4333

>  <SCORE.INTER>
-0.969717

>  <SCORE.INTER.CONST>
1

>  <SCORE.INTER.POLAR>
0

>  <SCORE.INTER.ROT>
11

>  <SCORE.INTER.SOLV>
8.4757

>  <SCORE.INTER.VDW>
-14.405

>  <SCORE.INTER.norm>
-0.0692655

>  <SCORE.INTRA>
-11.4636

>  <SCORE.INTRA.DIHEDRAL>
-22.9507

>  <SCORE.INTRA.DIHEDRAL.0>
25.9209

>  <SCORE.INTRA.POLAR>
0

>  <SCORE.INTRA.POLAR.0>
0

>  <SCORE.INTRA.REPUL>
0

>  <SCORE.INTRA.REPUL.0>
0

>  <SCORE.INTRA.SOLV>
-1.54794

>  <SCORE.INTRA.SOLV.lig_0>
-47.4815

>  <SCORE.INTRA.VDW>
0.785723

>  <SCORE.INTRA.VDW.0>
-1.57492

>  <SCORE.INTRA.norm>
-0.818829

>  <SCORE.RESTR>
0

>  <SCORE.RESTR.CAVITY>
0

>  <SCORE.RESTR.norm>
0

>  <SCORE.SYSTEM>
0

>  <SCORE.SYSTEM.CONST>
0

>  <SCORE.SYSTEM.DIHEDRAL>
0

>  <SCORE.SYSTEM.SOLV>
0

>  <SCORE.SYSTEM.norm>
0

>  <SCORE.heavy>
14

>  <SCORE.norm>
-0.888095

>  <RMSD>
6.436

$$$$
ligand
 OpenBabel11021811493D
libRbt.so/2013.1/901 2013/11/27
 14 13  0  0  0  0  0  0  0  0999 V2000
   51.7355   -2.6813  -10.7596 N   0  0  0  0  0  0  0  0  0  0  0  0
   50.6050   -2.6185   -9.8413 C   0  0  0  0  0  0  0  0  0  0  0  0
   50.6672   -1.3406   -8.9777 C   0  0  0  0  0  0  0  0  0  0  0  0
   49.5025   -1.1822   -7.9802 C   0  0  0  0  0  0  0  0  0  0  0  0
   49.3422   -2.2038   -6.9345 N   0  0  0  0  0  0  0  0  0  0  0  0
   48.1101   -2.2883   -6.1425 C   0  0  0  0  0  0  0  0  0  0  0  0
   47.8297   -1.0795   -5.2449 C   0  0  0  0  0  0  0  0  0  0  0  0
   48.8087   -0.9743   -4.0633 C   0  0  0  0  0  0  0  0  0  0  0  0
   50.2412   -0.5956   -4.4723 C   0  0  0  0  0  0  0  0  0  0  0  0
   51.1965   -0.5259   -3.3641 N   0  0  0  0  0  0  0  0  0  0  0  0
   51.2207    0.6711   -2.5056 C   0  0  0  0  0  0  0  0  0  0  0  0
   51.5974    0.4600   -1.0200 C   0  0  0  0  0  0  0  0  0  0  0  0
   51.4725    1.7005   -0.1125 C   0  0  0  0  0  0  0  0  0  0  0  0
   52.3128    2.8127   -0.5464 N   0  0  0  0  0  0  0  0  0  0  0  0
  1  2  1  0  0  0  0
  2  3  1  0  0  0  0
  3  4  1  0  0  0  0
  4  5  1  0  0  0  0
  5  6  1  0  0  0  0
  6  7  1  0  0  0  0
  7  8  1  0  0  0  0
  8  9  1  0  0  0  0
  9 10  1  0  0  0  0
 10 11  1  0  0  0  0
 11 12  1  0  0  0  0
 12 13  1  0  0  0  0
 13 14  1  0  0  0  0
M  END
>  <CHROM.1>
179.56454710,61.88834014,-166.50541558,-64.79530615,-69.78014718,69.91182267
-178.42556729,-79.47854434,147.69446840,-173.84923713,-59.56252090,50.33124768
-0.70328998,-5.14025660,-1.72309367,0.35808694,1.20862921

>  <Name>
ligand

>  <RI>
0

>  <Rbt.Current_Directory>
/home/itssahil/PROJECTS/Mol_Feturizer/New_Systems/rnas/4E8Q

>  <Rbt.Executable>
rbdock ($Id: //depot/dev/client3/rdock/2013.1/src/exe/rbdock.cxx#4 $)

>  <Rbt.Library>
libRbt.so (2013.1, Build901 2013/11/27)

>  <Rbt.Parameter_File>
/export/apps/rDock/src/rDock_2013.1_src/data/scripts/dock_solv.prm

>  <Rbt.Receptor>
prm/pocket_docking_7.prm

>  <SCORE>
-13.4829

>  <SCORE.INTER>
-2.26408

>  <SCORE.INTER.CONST>
1

>  <SCORE.INTER.POLAR>
0

>  <SCORE.INTER.ROT>
11

>  <SCORE.INTER.SOLV>
10.2455

>  <SCORE.INTER.VDW>
-15.8579

>  <SCORE.INTER.norm>
-0.16172

>  <SCORE.INTRA>
-11.2188

>  <SCORE.INTRA.DIHEDRAL>
-23.8771

>  <SCORE.INTRA.DIHEDRAL.0>
25.9209

>  <SCORE.INTRA.POLAR>
0

>  <SCORE.INTRA.POLAR.0>
0

>  <SCORE.INTRA.REPUL>
0

>  <SCORE.INTRA.REPUL.0>
0

>  <SCORE.INTRA.SOLV>
-0.191443

>  <SCORE.INTRA.SOLV.lig_0>
-47.4815

>  <SCORE.INTRA.VDW>
0.815453

>  <SCORE.INTRA.VDW.0>
-1.57492

>  <SCORE.INTRA.norm>
-0.801344

>  <SCORE.RESTR>
0

>  <SCORE.RESTR.CAVITY>
0

>  <SCORE.RESTR.norm>
0

>  <SCORE.SYSTEM>
0

>  <SCORE.SYSTEM.CONST>
0

>  <SCORE.SYSTEM.DIHEDRAL>
0

>  <SCORE.SYSTEM.SOLV>
0

>  <SCORE.SYSTEM.norm>
0

>  <SCORE.heavy>
14

>  <SCORE.norm>
-0.963064

>  <RMSD>
6.438

$$$$
ligand
 OpenBabel11021811493D
libRbt.so/2013.1/901 2013/11/27
 14 13  0  0  0  0  0  0  0  0999 V2000
   53.8794    5.3286   -2.9665 N   0  0  0  0  0  0  0  0  0  0  0  0
   53.5341    4.0615   -3.5992 C   0  0  0  0  0  0  0  0  0  0  0  0
   52.3980    3.3536   -2.8305 C   0  0  0  0  0  0  0  0  0  0  0  0
   52.0396    1.9515   -3.3618 C   0  0  0  0  0  0  0  0  0  0  0  0
   50.9813    1.1988   -2.6717 N   0  0  0  0  0  0  0  0  0  0  0  0
   50.9051   -0.2630   -2.7712 C   0  0  0  0  0  0  0  0  0  0  0  0
   50.2496   -0.7945   -4.0492 C   0  0  0  0  0  0  0  0  0  0  0  0
   48.7582   -0.4321   -4.1497 C   0  0  0  0  0  0  0  0  0  0  0  0
   48.0318   -1.1020   -5.3270 C   0  0  0  0  0  0  0  0  0  0  0  0
   47.9812   -2.5644   -5.2634 N   0  0  0  0  0  0  0  0  0  0  0  0
   47.9120   -3.3398   -6.5142 C   0  0  0  0  0  0  0  0  0  0  0  0
   46.5781   -3.2897   -7.2964 C   0  0  0  0  0  0  0  0  0  0  0  0
   46.1956   -1.9165   -7.8846 C   0  0  0  0  0  0  0  0  0  0  0  0
   47.1768   -1.4108   -8.8401 N   0  0  0  0  0  0  0  0  0  0  0  0
  1  2  1  0  0  0  0
  2  3  1  0  0  0  0
  3  4  1  0  0  0  0
  4  5  1  0  0  0  0
  5  6  1  0  0  0  0
  6  7  1  0  0  0  0
  7  8  1  0  0  0  0
  8  9  1  0  0  0  0
  9 10  1  0  0  0  0
 10 11  1  0  0  0  0
 11 12  1  0  0  0  0
 12 13  1  0  0  0  0
 13 14  1  0  0  0  0
M  END
>  <CHROM.1>
-175.41567239,179.03733716,-157.59059732,-80.73945711,-65.61127025,-172.56227469
63.21285011,-151.66601779,-71.51400293,65.69651024,60.50346804,49.75852357
0.05557194,-4.82320701,0.06947919,-0.89410059,-0.88037460

>  <Name>
ligand

>  <RI>
0

>  <Rbt.Current_Directory>
/home/itssahil/PROJECTS/Mol_Feturizer/New_Systems/rnas/4E8Q

>  <Rbt.Executable>
rbdock ($Id: //depot/dev/client3/rdock/2013.1/src/exe/rbdock.cxx#4 $)

>  <Rbt.Library>
libRbt.so (2013.1, Build901 2013/11/27)

>  <Rbt.Parameter_File>
/export/apps/rDock/src/rDock_2013.1_src/data/scripts/dock_solv.prm

>  <Rbt.Receptor>
prm/pocket_docking_8.prm

>  <SCORE>
-13.6333

>  <SCORE.INTER>
-2.63972

>  <SCORE.INTER.CONST>
1

>  <SCORE.INTER.POLAR>
0

>  <SCORE.INTER.ROT>
11

>  <SCORE.INTER.SOLV>
10.2639

>  <SCORE.INTER.VDW>
-16.1145

>  <SCORE.INTER.norm>
-0.188551

>  <SCORE.INTRA>
-10.9936

>  <SCORE.INTRA.DIHEDRAL>
-23.9875

>  <SCORE.INTRA.DIHEDRAL.0>
25.9209

>  <SCORE.INTRA.POLAR>
0

>  <SCORE.INTRA.POLAR.0>
0

>  <SCORE.INTRA.REPUL>
0

>  <SCORE.INTRA.REPUL.0>
0

>  <SCORE.INTRA.SOLV>
0.914185

>  <SCORE.INTRA.SOLV.lig_0>
-47.4815

>  <SCORE.INTRA.VDW>
0.543038

>  <SCORE.INTRA.VDW.0>
-1.57492

>  <SCORE.INTRA.norm>
-0.785258

>  <SCORE.RESTR>
0

>  <SCORE.RESTR.CAVITY>
0

>  <SCORE.RESTR.norm>
0

>  <SCORE.SYSTEM>
0

>  <SCORE.SYSTEM.CONST>
0

>  <SCORE.SYSTEM.DIHEDRAL>
0

>  <SCORE.SYSTEM.SOLV>
0

>  <SCORE.SYSTEM.norm>
0

>  <SCORE.heavy>
14

>  <SCORE.norm>
-0.97381

>  <RMSD>
6.454

$$$$
ligand
 OpenBabel11021811493D
libRbt.so/2013.1/901 2013/11/27
 14 13  0  0  0  0  0  0  0  0999 V2000
   49.0358   -3.1690   -9.1559 N   0  0  0  0  0  0  0  0  0  0  0  0
   48.8607   -2.4412   -7.9050 C   0  0  0  0  0  0  0  0  0  0  0  0
   48.9167   -3.4006   -6.6971 C   0  0  0  0  0  0  0  0  0  0  0  0
   48.6801   -2.7273   -5.3305 C   0  0  0  0  0  0  0  0  0  0  0  0
   49.5846   -1.6398   -4.9281 N   0  0  0  0  0  0  0  0  0  0  0  0
   49.4999   -1.0415   -3.5911 C   0  0  0  0  0  0  0  0  0  0  0  0
   50.7585   -0.3013   -3.1291 C   0  0  0  0  0  0  0  0  0  0  0  0
   51.0672    0.9406   -3.9824 C   0  0  0  0  0  0  0  0  0  0  0  0
   52.1664    1.8417   -3.3973 C   0  0  0  0  0  0  0  0  0  0  0  0
   52.5060    3.0058   -4.2188 N   0  0  0  0  0  0  0  0  0  0  0  0
   53.8628    3.1221   -4.7810 C   0  0  0  0  0  0  0  0  0  0  0  0
   54.1598    4.3738   -5.6404 C   0  0  0  0  0  0  0  0  0  0  0  0
   54.0376    5.7300   -4.9166 C   0  0  0  0  0  0  0  0  0  0  0  0
   54.2349    6.8716   -5.8051 N   0  0  0  0  0  0  0  0  0  0  0  0
  1  2  1  0  0  0  0
  2  3  1  0  0  0  0
  3  4  1  0  0  0  0
  4  5  1  0  0  0  0
  5  6  1  0  0  0  0
  6  7  1  0  0  0  0
  7  8  1  0  0  0  0
  8  9  1  0  0  0  0
  9 10  1  0  0  0  0
 10 11  1  0  0  0  0
 11 12  1  0  0  0  0
 12 13  1  0  0  0  0
 13 14  1  0  0  0  0
M  END
>  <CHROM.1>
-177.49561693,-58.46785868,-174.09162948,159.47321414,65.01471786,169.57435279
178.03362431,-116.60926808,179.97116453,61.75505537,-175.81560124,51.24074381
0.79730167,-5.24814291,-2.93869015,1.00071430,1.53401665

>  <Name>
ligand

>  <RI>
0

>  <Rbt.Current_Directory>
/home/itssahil/PROJECTS/Mol_Feturizer/New_Systems/rnas/4E8Q

>  <Rbt.Executable>
rbdock ($Id: //depot/dev/client3/rdock/2013.1/src/exe/rbdock.cxx#4 $)

>  <Rbt.Library>
libRbt.so (2013.1, Build901 2013/11/27)

>  <Rbt.Parameter_File>
/export/apps/rDock/src/rDock_2013.1_src/data/scripts/dock_solv.prm

>  <Rbt.Receptor>
prm/pocket_docking_6.prm

>  <SCORE>
-11.5676

>  <SCORE.INTER>
0.654584

>  <SCORE.INTER.CONST>
1

>  <SCORE.INTER.POLAR>
0

>  <SCORE.INTER.ROT>
11

>  <SCORE.INTER.SOLV>
6.54293

>  <SCORE.INTER.VDW>
-12.6779

>  <SCORE.INTER.norm>
0.046756

>  <SCORE.INTRA>
-12.2222

>  <SCORE.INTRA.DIHEDRAL>
-23.7233

>  <SCORE.INTRA.DIHEDRAL.0>
25.9209

>  <SCORE.INTRA.POLAR>
0

>  <SCORE.INTRA.POLAR.0>
0

>  <SCORE.INTRA.REPUL>
0

>  <SCORE.INTRA.REPUL.0>
0

>  <SCORE.INTRA.SOLV>
-1.20236

>  <SCORE.INTRA.SOLV.lig_0>
-47.4815

>  <SCORE.INTRA.VDW>
0.240607

>  <SCORE.INTRA.VDW.0>
-1.57492

>  <SCORE.INTRA.norm>
-0.873016

>  <SCORE.RESTR>
0

>  <SCORE.RESTR.CAVITY>
0

>  <SCORE.RESTR.norm>
0

>  <SCORE.SYSTEM>
0

>  <SCORE.SYSTEM.CONST>
0

>  <SCORE.SYSTEM.DIHEDRAL>
0

>  <SCORE.SYSTEM.SOLV>
0

>  <SCORE.SYSTEM.norm>
0

>  <SCORE.heavy>
14

>  <SCORE.norm>
-0.82626

>  <RMSD>
6.468

$$$$
ligand
 OpenBabel11021811493D
libRbt.so/2013.1/901 2013/11/27
 14 13  0  0  0  0  0  0  0  0999 V2000
   46.8366   -1.7417   -6.4496 N   0  0  0  0  0  0  0  0  0  0  0  0
   48.2479   -1.7018   -6.0869 C   0  0  0  0  0  0  0  0  0  0  0  0
   48.4353   -1.1299   -4.6655 C   0  0  0  0  0  0  0  0  0  0  0  0
   49.8982   -0.8326   -4.2804 C   0  0  0  0  0  0  0  0  0  0  0  0
   50.1719   -0.3511   -2.9181 N   0  0  0  0  0  0  0  0  0  0  0  0
   51.5425   -0.0705   -2.4762 C   0  0  0  0  0  0  0  0  0  0  0  0
   51.6872    0.2897   -0.9947 C   0  0  0  0  0  0  0  0  0  0  0  0
   51.1395    1.6887   -0.6649 C   0  0  0  0  0  0  0  0  0  0  0  0
   51.8009    2.8219   -1.4655 C   0  0  0  0  0  0  0  0  0  0  0  0
   51.2890    2.9892   -2.8276 N   0  0  0  0  0  0  0  0  0  0  0  0
   49.9099    3.4677   -3.0273 C   0  0  0  0  0  0  0  0  0  0  0  0
   49.3710    3.4658   -4.4775 C   0  0  0  0  0  0  0  0  0  0  0  0
   50.1574    4.3260   -5.4873 C   0  0  0  0  0  0  0  0  0  0  0  0
   49.5936    4.2852   -6.8335 N   0  0  0  0  0  0  0  0  0  0  0  0
  1  2  1  0  0  0  0
  2  3  1  0  0  0  0
  3  4  1  0  0  0  0
  4  5  1  0  0  0  0
  5  6  1  0  0  0  0
  6  7  1  0  0  0  0
  7  8  1  0  0  0  0
  8  9  1  0  0  0  0
  9 10  1  0  0  0  0
 10 11  1  0  0  0  0
 11 12  1  0  0  0  0
 12 13  1  0  0  0  0
 13 14  1  0  0  0  0
M  END
>  <CHROM.1>
-170.45174018,-176.87978325,178.93618733,-174.19388216,-71.93481966,-57.95393135
80.24098134,67.90943005,-173.00720390,-59.73491062,-179.73004908,50.00600205
1.25046078,-3.76065923,2.74528167,0.98702614,2.76887198

>  <Name>
ligand

>  <RI>
0

>  <Rbt.Current_Directory>
/home/itssahil/PROJECTS/Mol_Feturizer/New_Systems/rnas/4E8Q

>  <Rbt.Executable>
rbdock ($Id: //depot/dev/client3/rdock/2013.1/src/exe/rbdock.cxx#4 $)

>  <Rbt.Library>
libRbt.so (2013.1, Build901 2013/11/27)

>  <Rbt.Parameter_File>
/export/apps/rDock/src/rDock_2013.1_src/data/scripts/dock_solv.prm

>  <Rbt.Receptor>
prm/pocket_docking_5.prm

>  <SCORE>
-10.8984

>  <SCORE.INTER>
0.114699

>  <SCORE.INTER.CONST>
1

>  <SCORE.INTER.POLAR>
0

>  <SCORE.INTER.ROT>
11

>  <SCORE.INTER.SOLV>
11.2354

>  <SCORE.INTER.VDW>
-14.602

>  <SCORE.INTER.norm>
0.00819279

>  <SCORE.INTRA>
-11.0131

>  <SCORE.INTRA.DIHEDRAL>
-23.4775

>  <SCORE.INTRA.DIHEDRAL.0>
25.9209

>  <SCORE.INTRA.POLAR>
0

>  <SCORE.INTRA.POLAR.0>
0

>  <SCORE.INTRA.REPUL>
0

>  <SCORE.INTRA.REPUL.0>
0

>  <SCORE.INTRA.SOLV>
0.616443

>  <SCORE.INTRA.SOLV.lig_0>
-47.4815

>  <SCORE.INTRA.VDW>
0.417403

>  <SCORE.INTRA.VDW.0>
-1.57492

>  <SCORE.INTRA.norm>
-0.786651

>  <SCORE.RESTR>
0

>  <SCORE.RESTR.CAVITY>
0

>  <SCORE.RESTR.norm>
0

>  <SCORE.SYSTEM>
0

>  <SCORE.SYSTEM.CONST>
0

>  <SCORE.SYSTEM.DIHEDRAL>
0

>  <SCORE.SYSTEM.SOLV>
0

>  <SCORE.SYSTEM.norm>
0

>  <SCORE.heavy>
14

>  <SCORE.norm>
-0.778458

>  <RMSD>
6.505

$$$$
ligand
 OpenBabel11021811493D
libRbt.so/2013.1/901 2013/11/27
 14 13  0  0  0  0  0  0  0  0999 V2000
   48.6282    1.8301  -10.6711 N   0  0  0  0  0  0  0  0  0  0  0  0
   47.9845    1.0581   -9.6152 C   0  0  0  0  0  0  0  0  0  0  0  0
   48.1849   -0.4558   -9.8395 C   0  0  0  0  0  0  0  0  0  0  0  0
   47.6074   -1.3521   -8.7260 C   0  0  0  0  0  0  0  0  0  0  0  0
   48.1047   -1.1611   -7.3552 N   0  0  0  0  0  0  0  0  0  0  0  0
   47.9713   -2.2195   -6.3480 C   0  0  0  0  0  0  0  0  0  0  0  0
   48.1902   -1.7708   -4.9002 C   0  0  0  0  0  0  0  0  0  0  0  0
   49.5894   -1.1770   -4.6649 C   0  0  0  0  0  0  0  0  0  0  0  0
   49.8981   -0.8738   -3.1899 C   0  0  0  0  0  0  0  0  0  0  0  0
   51.2191   -0.2891   -2.9482 N   0  0  0  0  0  0  0  0  0  0  0  0
   51.5785    0.1456   -1.5872 C   0  0  0  0  0  0  0  0  0  0  0  0
   51.4074    1.6489   -1.2641 C   0  0  0  0  0  0  0  0  0  0  0  0
   51.8551    2.0883    0.1446 C   0  0  0  0  0  0  0  0  0  0  0  0
   51.7136    3.5243    0.3671 N   0  0  0  0  0  0  0  0  0  0  0  0
  1  2  1  0  0  0  0
  2  3  1  0  0  0  0
  3  4  1  0  0  0  0
  4  5  1  0  0  0  0
  5  6  1  0  0  0  0
  6  7  1  0  0  0  0
  7  8  1  0  0  0  0
  8  9  1  0  0  0  0
  9 10  1  0  0  0  0
 10 11  1  0  0  0  0
 11 12  1  0  0  0  0
 12 13  1  0  0  0  0
 13 14  1  0  0  0  0
M  END
>  <CHROM.1>
176.61419451,-58.81011899,-159.17415032,-164.80085335,-59.72171711,-173.05841712
-179.13633512,174.94103351,-97.44476381,-177.14242151,177.86082669,49.56645810
0.07077813,-5.04265505,-2.61308232,1.12055070,2.35132865

>  <Name>
ligand

>  <RI>
0

>  <Rbt.Current_Directory>
/home/itssahil/PROJECTS/Mol_Feturizer/New_Systems/rnas/4E8Q

>  <Rbt.Executable>
rbdock ($Id: //depot/dev/client3/rdock/2013.1/src/exe/rbdock.cxx#4 $)

>  <Rbt.Library>
libRbt.so (2013.1, Build901 2013/11/27)

>  <Rbt.Parameter_File>
/export/apps/rDock/src/rDock_2013.1_src/data/scripts/dock_solv.prm

>  <Rbt.Receptor>
prm/pocket_docking_6.prm

>  <SCORE>
-15.208

>  <SCORE.INTER>
-2.67

>  <SCORE.INTER.CONST>
1

>  <SCORE.INTER.POLAR>
0

>  <SCORE.INTER.ROT>
11

>  <SCORE.INTER.SOLV>
8.87688

>  <SCORE.INTER.VDW>
-15.6723

>  <SCORE.INTER.norm>
-0.190714

>  <SCORE.INTRA>
-12.538

>  <SCORE.INTRA.DIHEDRAL>
-24.2693

>  <SCORE.INTRA.DIHEDRAL.0>
25.9209

>  <SCORE.INTRA.POLAR>
0

>  <SCORE.INTRA.POLAR.0>
0

>  <SCORE.INTRA.REPUL>
0

>  <SCORE.INTRA.REPUL.0>
0

>  <SCORE.INTRA.SOLV>
-1.46523

>  <SCORE.INTRA.SOLV.lig_0>
-47.4815

>  <SCORE.INTRA.VDW>
0.329265

>  <SCORE.INTRA.VDW.0>
-1.57492

>  <SCORE.INTRA.norm>
-0.895571

>  <SCORE.RESTR>
0

>  <SCORE.RESTR.CAVITY>
0

>  <SCORE.RESTR.norm>
0

>  <SCORE.SYSTEM>
0

>  <SCORE.SYSTEM.CONST>
0

>  <SCORE.SYSTEM.DIHEDRAL>
0

>  <SCORE.SYSTEM.SOLV>
0

>  <SCORE.SYSTEM.norm>
0

>  <SCORE.heavy>
14

>  <SCORE.norm>
-1.08629

>  <RMSD>
6.510

$$$$
ligand
 OpenBabel11021811493D
libRbt.so/2013.1/901 2013/11/27
 14 13  0  0  0  0  0  0  0  0999 V2000
   48.8190    2.1461  -10.0925 N   0  0  0  0  0  0  0  0  0  0  0  0
   48.9491    0.9319   -9.2963 C   0  0  0  0  0  0  0  0  0  0  0  0
   47.8416   -0.0822   -9.6533 C   0  0  0  0  0  0  0  0  0  0  0  0
   47.8601   -1.3755   -8.8144 C   0  0  0  0  0  0  0  0  0  0  0  0
   47.7138   -1.2572   -7.3558 N   0  0  0  0  0  0  0  0  0  0  0  0
   47.9087   -2.4178   -6.4797 C   0  0  0  0  0  0  0  0  0  0  0  0
   48.2563   -2.0841   -5.0260 C   0  0  0  0  0  0  0  0  0  0  0  0
   49.5653   -1.2872   -4.8936 C   0  0  0  0  0  0  0  0  0  0  0  0
   49.9565   -0.9676   -3.4419 C   0  0  0  0  0  0  0  0  0  0  0  0
   51.2525   -0.3025   -3.2891 N   0  0  0  0  0  0  0  0  0  0  0  0
   51.3639    0.8668   -2.3997 C   0  0  0  0  0  0  0  0  0  0  0  0
   51.4290    0.5867   -0.8796 C   0  0  0  0  0  0  0  0  0  0  0  0
   51.3814    1.8276    0.0347 C   0  0  0  0  0  0  0  0  0  0  0  0
   52.4725    2.7646   -0.2166 N   0  0  0  0  0  0  0  0  0  0  0  0
  1  2  1  0  0  0  0
  2  3  1  0  0  0  0
  3  4  1  0  0  0  0
  4  5  1  0  0  0  0
  5  6  1  0  0  0  0
  6  7  1  0  0  0  0
  7  8  1  0  0  0  0
  8  9  1  0  0  0  0
  9 10  1  0  0  0  0
 10 11  1  0  0  0  0
 11 12  1  0  0  0  0
 12 13  1  0  0  0  0
 13 14  1  0  0  0  0
M  END
>  <CHROM.1>
-177.36185222,59.48844068,-171.37808610,157.63450687,-60.57209513,-178.60036408
175.38803807,133.94029972,77.78862639,-173.22853566,-59.18814127,49.62623415
-0.04681652,-5.12879664,-2.46699328,1.04135774,2.20280896

>  <Name>
ligand

>  <RI>
0

>  <Rbt.Current_Directory>
/home/itssahil/PROJECTS/Mol_Feturizer/New_Systems/rnas/4E8Q

>  <Rbt.Executable>
rbdock ($Id: //depot/dev/client3/rdock/2013.1/src/exe/rbdock.cxx#4 $)

>  <Rbt.Library>
libRbt.so (2013.1, Build901 2013/11/27)

>  <Rbt.Parameter_File>
/export/apps/rDock/src/rDock_2013.1_src/data/scripts/dock_solv.prm

>  <Rbt.Receptor>
prm/pocket_docking_6.prm

>  <SCORE>
-14.6698

>  <SCORE.INTER>
-2.72549

>  <SCORE.INTER.CONST>
1

>  <SCORE.INTER.POLAR>
0

>  <SCORE.INTER.ROT>
11

>  <SCORE.INTER.SOLV>
8.96694

>  <SCORE.INTER.VDW>
-15.7393

>  <SCORE.INTER.norm>
-0.194678

>  <SCORE.INTRA>
-11.9443

>  <SCORE.INTRA.DIHEDRAL>
-23.9142

>  <SCORE.INTRA.DIHEDRAL.0>
25.9209

>  <SCORE.INTRA.POLAR>
0

>  <SCORE.INTRA.POLAR.0>
0

>  <SCORE.INTRA.REPUL>
0

>  <SCORE.INTRA.REPUL.0>
0

>  <SCORE.INTRA.SOLV>
-0.761589

>  <SCORE.INTRA.SOLV.lig_0>
-47.4815

>  <SCORE.INTRA.VDW>
0.393578

>  <SCORE.INTRA.VDW.0>
-1.57492

>  <SCORE.INTRA.norm>
-0.853166

>  <SCORE.RESTR>
0

>  <SCORE.RESTR.CAVITY>
0

>  <SCORE.RESTR.norm>
0

>  <SCORE.SYSTEM>
0

>  <SCORE.SYSTEM.CONST>
0

>  <SCORE.SYSTEM.DIHEDRAL>
0

>  <SCORE.SYSTEM.SOLV>
0

>  <SCORE.SYSTEM.norm>
0

>  <SCORE.heavy>
14

>  <SCORE.norm>
-1.04784

>  <RMSD>
6.514

$$$$
ligand
 OpenBabel11021811493D
libRbt.so/2013.1/901 2013/11/27
 14 13  0  0  0  0  0  0  0  0999 V2000
   49.3790   -0.2122  -10.6952 N   0  0  0  0  0  0  0  0  0  0  0  0
   48.1776    0.2358  -10.0015 C   0  0  0  0  0  0  0  0  0  0  0  0
   47.7863   -0.7533   -8.8830 C   0  0  0  0  0  0  0  0  0  0  0  0
   48.8428   -0.9179   -7.7725 C   0  0  0  0  0  0  0  0  0  0  0  0
   48.5193   -1.7881   -6.6319 N   0  0  0  0  0  0  0  0  0  0  0  0
   47.7838   -1.2723   -5.4719 C   0  0  0  0  0  0  0  0  0  0  0  0
   48.6083   -0.4136   -4.5085 C   0  0  0  0  0  0  0  0  0  0  0  0
   49.8204   -1.1631   -3.9297 C   0  0  0  0  0  0  0  0  0  0  0  0
   50.6632   -0.3262   -2.9541 C   0  0  0  0  0  0  0  0  0  0  0  0
   51.1966    0.9168   -3.5162 N   0  0  0  0  0  0  0  0  0  0  0  0
   52.0741    1.7647   -2.6906 C   0  0  0  0  0  0  0  0  0  0  0  0
   51.4061    2.5486   -1.5361 C   0  0  0  0  0  0  0  0  0  0  0  0
   50.3273    3.5686   -1.9528 C   0  0  0  0  0  0  0  0  0  0  0  0
   50.8530    4.6504   -2.7804 N   0  0  0  0  0  0  0  0  0  0  0  0
  1  2  1  0  0  0  0
  2  3  1  0  0  0  0
  3  4  1  0  0  0  0
  4  5  1  0  0  0  0
  5  6  1  0  0  0  0
  6  7  1  0  0  0  0
  7  8  1  0  0  0  0
  8  9  1  0  0  0  0
  9 10  1  0  0  0  0
 10 11  1  0  0  0  0
 11 12  1  0  0  0  0
 12 13  1  0  0  0  0
 13 14  1  0  0  0  0
M  END
>  <CHROM.1>
61.63639599,176.83961976,-85.87630704,-76.49564862,-58.70845909,-179.75961812
-57.95044742,-176.99849756,-72.36112195,-61.37005068,-63.19757243,49.67400695
0.48827653,-5.23719046,-2.67314325,1.18086710,2.18815665

>  <Name>
ligand

>  <RI>
0

>  <Rbt.Current_Directory>
/home/itssahil/PROJECTS/Mol_Feturizer/New_Systems/rnas/4E8Q

>  <Rbt.Executable>
rbdock ($Id: //depot/dev/client3/rdock/2013.1/src/exe/rbdock.cxx#4 $)

>  <Rbt.Library>
libRbt.so (2013.1, Build901 2013/11/27)

>  <Rbt.Parameter_File>
/export/apps/rDock/src/rDock_2013.1_src/data/scripts/dock_solv.prm

>  <Rbt.Receptor>
prm/pocket_docking_7.prm

>  <SCORE>
-11.861

>  <SCORE.INTER>
-0.36727

>  <SCORE.INTER.CONST>
1

>  <SCORE.INTER.POLAR>
0

>  <SCORE.INTER.ROT>
11

>  <SCORE.INTER.SOLV>
6.14309

>  <SCORE.INTER.VDW>
-13.2259

>  <SCORE.INTER.norm>
-0.0262335

>  <SCORE.INTRA>
-11.4938

>  <SCORE.INTRA.DIHEDRAL>
-24.9945

>  <SCORE.INTRA.DIHEDRAL.0>
25.9209

>  <SCORE.INTRA.POLAR>
0

>  <SCORE.INTRA.POLAR.0>
0

>  <SCORE.INTRA.REPUL>
0

>  <SCORE.INTRA.REPUL.0>
0

>  <SCORE.INTRA.SOLV>
0.873012

>  <SCORE.INTRA.SOLV.lig_0>
-47.4815

>  <SCORE.INTRA.VDW>
0.567

>  <SCORE.INTRA.VDW.0>
-1.57492

>  <SCORE.INTRA.norm>
-0.820983

>  <SCORE.RESTR>
0

>  <SCORE.RESTR.CAVITY>
0

>  <SCORE.RESTR.norm>
0

>  <SCORE.SYSTEM>
0

>  <SCORE.SYSTEM.CONST>
0

>  <SCORE.SYSTEM.DIHEDRAL>
0

>  <SCORE.SYSTEM.SOLV>
0

>  <SCORE.SYSTEM.norm>
0

>  <SCORE.heavy>
14

>  <SCORE.norm>
-0.847217

>  <RMSD>
6.530

$$$$
ligand
 OpenBabel11021811493D
libRbt.so/2013.1/901 2013/11/27
 14 13  0  0  0  0  0  0  0  0999 V2000
   47.6189   -5.6213   -8.3918 N   0  0  0  0  0  0  0  0  0  0  0  0
   47.1624   -5.9054   -7.0368 C   0  0  0  0  0  0  0  0  0  0  0  0
   48.0253   -5.1593   -5.9970 C   0  0  0  0  0  0  0  0  0  0  0  0
   47.9239   -3.6223   -6.0623 C   0  0  0  0  0  0  0  0  0  0  0  0
   48.6641   -2.8362   -5.0639 N   0  0  0  0  0  0  0  0  0  0  0  0
   48.4317   -1.3955   -4.9120 C   0  0  0  0  0  0  0  0  0  0  0  0
   49.6643   -0.5758   -4.5196 C   0  0  0  0  0  0  0  0  0  0  0  0
   50.1817   -0.9138   -3.1111 C   0  0  0  0  0  0  0  0  0  0  0  0
   51.4162   -0.1012   -2.6887 C   0  0  0  0  0  0  0  0  0  0  0  0
   51.2350    1.3518   -2.7252 N   0  0  0  0  0  0  0  0  0  0  0  0
   52.4088    2.2215   -2.9154 C   0  0  0  0  0  0  0  0  0  0  0  0
   52.1656    3.7484   -2.8592 C   0  0  0  0  0  0  0  0  0  0  0  0
   53.4015    4.6352   -3.1126 C   0  0  0  0  0  0  0  0  0  0  0  0
   54.4620    4.4314   -2.1301 N   0  0  0  0  0  0  0  0  0  0  0  0
  1  2  1  0  0  0  0
  2  3  1  0  0  0  0
  3  4  1  0  0  0  0
  4  5  1  0  0  0  0
  5  6  1  0  0  0  0
  6  7  1  0  0  0  0
  7  8  1  0  0  0  0
  8  9  1  0  0  0  0
  9 10  1  0  0  0  0
 10 11  1  0  0  0  0
 11 12  1  0  0  0  0
 12 13  1  0  0  0  0
 13 14  1  0  0  0  0
M  END
>  <CHROM.1>
64.78809855,177.10209756,-169.05617783,-146.42187428,-66.03862980,-179.77821082
57.00914235,-153.98716787,-176.39089048,-177.84701785,-61.28909387,50.19712864
-0.69589517,-4.39460281,-2.84697455,1.02888721,1.68589149

>  <Name>
ligand

>  <RI>
0

>  <Rbt.Current_Directory>
/home/itssahil/PROJECTS/Mol_Feturizer/New_Systems/rnas/4E8Q

>  <Rbt.Executable>
rbdock ($Id: //depot/dev/client3/rdock/2013.1/src/exe/rbdock.cxx#4 $)

>  <Rbt.Library>
libRbt.so (2013.1, Build901 2013/11/27)

>  <Rbt.Parameter_File>
/export/apps/rDock/src/rDock_2013.1_src/data/scripts/dock_solv.prm

>  <Rbt.Receptor>
prm/pocket_docking_8.prm

>  <SCORE>
-13.0974

>  <SCORE.INTER>
-1.32323

>  <SCORE.INTER.CONST>
1

>  <SCORE.INTER.POLAR>
0

>  <SCORE.INTER.ROT>
11

>  <SCORE.INTER.SOLV>
7.64033

>  <SCORE.INTER.VDW>
-14.3623

>  <SCORE.INTER.norm>
-0.0945166

>  <SCORE.INTRA>
-11.7742

>  <SCORE.INTRA.DIHEDRAL>
-24.3144

>  <SCORE.INTRA.DIHEDRAL.0>
25.9209

>  <SCORE.INTRA.POLAR>
0

>  <SCORE.INTRA.POLAR.0>
0

>  <SCORE.INTRA.REPUL>
0

>  <SCORE.INTRA.REPUL.0>
0

>  <SCORE.INTRA.SOLV>
-0.053744

>  <SCORE.INTRA.SOLV.lig_0>
-47.4815

>  <SCORE.INTRA.VDW>
0.409915

>  <SCORE.INTRA.VDW.0>
-1.57492

>  <SCORE.INTRA.norm>
-0.841011

>  <SCORE.RESTR>
0

>  <SCORE.RESTR.CAVITY>
0

>  <SCORE.RESTR.norm>
0

>  <SCORE.SYSTEM>
0

>  <SCORE.SYSTEM.CONST>
0

>  <SCORE.SYSTEM.DIHEDRAL>
0

>  <SCORE.SYSTEM.SOLV>
0

>  <SCORE.SYSTEM.norm>
0

>  <SCORE.heavy>
14

>  <SCORE.norm>
-0.935528

>  <RMSD>
6.535

$$$$
ligand
 OpenBabel11021811493D
libRbt.so/2013.1/901 2013/11/27
 14 13  0  0  0  0  0  0  0  0999 V2000
   49.8688   -3.4907  -10.7877 N   0  0  0  0  0  0  0  0  0  0  0  0
   49.5412   -2.4412   -9.8303 C   0  0  0  0  0  0  0  0  0  0  0  0
   48.0319   -2.4422   -9.5070 C   0  0  0  0  0  0  0  0  0  0  0  0
   47.5707   -1.2919   -8.5900 C   0  0  0  0  0  0  0  0  0  0  0  0
   48.1897   -1.1747   -7.2611 N   0  0  0  0  0  0  0  0  0  0  0  0
   47.6735   -1.9342   -6.1168 C   0  0  0  0  0  0  0  0  0  0  0  0
   48.6639   -2.1279   -4.9649 C   0  0  0  0  0  0  0  0  0  0  0  0
   49.1657   -0.7969   -4.3796 C   0  0  0  0  0  0  0  0  0  0  0  0
   50.1590   -0.9616   -3.2182 C   0  0  0  0  0  0  0  0  0  0  0  0
   50.6806    0.2948   -2.6754 N   0  0  0  0  0  0  0  0  0  0  0  0
   51.5593    0.2614   -1.4934 C   0  0  0  0  0  0  0  0  0  0  0  0
   51.5861    1.5275   -0.6046 C   0  0  0  0  0  0  0  0  0  0  0  0
   52.0268    2.8296   -1.3035 C   0  0  0  0  0  0  0  0  0  0  0  0
   52.0095    3.9886   -0.4159 N   0  0  0  0  0  0  0  0  0  0  0  0
  1  2  1  0  0  0  0
  2  3  1  0  0  0  0
  3  4  1  0  0  0  0
  4  5  1  0  0  0  0
  5  6  1  0  0  0  0
  6  7  1  0  0  0  0
  7  8  1  0  0  0  0
  8  9  1  0  0  0  0
  9 10  1  0  0  0  0
 10 11  1  0  0  0  0
 11 12  1  0  0  0  0
 12 13  1  0  0  0  0
 13 14  1  0  0  0  0
M  END
>  <CHROM.1>
-175.24331137,-58.53447727,-85.45525725,158.71499907,58.93749761,179.83735245
178.15867017,175.33205833,-154.09923819,-59.32428914,179.07380992,49.76603515
-0.55444039,-5.08194803,-1.99438613,0.72130234,1.35869732

>  <Name>
ligand

>  <RI>
0

>  <Rbt.Current_Directory>
/home/itssahil/PROJECTS/Mol_Feturizer/New_Systems/rnas/4E8Q

>  <Rbt.Executable>
rbdock ($Id: //depot/dev/client3/rdock/2013.1/src/exe/rbdock.cxx#4 $)

>  <Rbt.Library>
libRbt.so (2013.1, Build901 2013/11/27)

>  <Rbt.Parameter_File>
/export/apps/rDock/src/rDock_2013.1_src/data/scripts/dock_solv.prm

>  <Rbt.Receptor>
prm/pocket_docking_7.prm

>  <SCORE>
-14.1049

>  <SCORE.INTER>
-1.55616

>  <SCORE.INTER.CONST>
1

>  <SCORE.INTER.POLAR>
0

>  <SCORE.INTER.ROT>
11

>  <SCORE.INTER.SOLV>
6.09544

>  <SCORE.INTER.VDW>
-14.0026

>  <SCORE.INTER.norm>
-0.111155

>  <SCORE.INTRA>
-12.5487

>  <SCORE.INTRA.DIHEDRAL>
-24.5212

>  <SCORE.INTRA.DIHEDRAL.0>
25.9209

>  <SCORE.INTRA.POLAR>
0

>  <SCORE.INTRA.POLAR.0>
0

>  <SCORE.INTRA.REPUL>
0

>  <SCORE.INTRA.REPUL.0>
0

>  <SCORE.INTRA.SOLV>
-1.1383

>  <SCORE.INTRA.SOLV.lig_0>
-47.4815

>  <SCORE.INTRA.VDW>
0.281018

>  <SCORE.INTRA.VDW.0>
-1.57492

>  <SCORE.INTRA.norm>
-0.896339

>  <SCORE.RESTR>
0

>  <SCORE.RESTR.CAVITY>
0

>  <SCORE.RESTR.norm>
0

>  <SCORE.SYSTEM>
0

>  <SCORE.SYSTEM.CONST>
0

>  <SCORE.SYSTEM.DIHEDRAL>
0

>  <SCORE.SYSTEM.SOLV>
0

>  <SCORE.SYSTEM.norm>
0

>  <SCORE.heavy>
14

>  <SCORE.norm>
-1.00749

>  <RMSD>
6.563

$$$$
ligand
 OpenBabel11021811493D
libRbt.so/2013.1/901 2013/11/27
 14 13  0  0  0  0  0  0  0  0999 V2000
   52.0196    2.1405    0.8748 N   0  0  0  0  0  0  0  0  0  0  0  0
   51.8711    2.2451   -0.5716 C   0  0  0  0  0  0  0  0  0  0  0  0
   51.6189    0.8586   -1.2011 C   0  0  0  0  0  0  0  0  0  0  0  0
   51.5031    0.8626   -2.7384 C   0  0  0  0  0  0  0  0  0  0  0  0
   51.2886   -0.4226   -3.4204 N   0  0  0  0  0  0  0  0  0  0  0  0
   49.9420   -0.9873   -3.5635 C   0  0  0  0  0  0  0  0  0  0  0  0
   49.5542   -1.3905   -4.9892 C   0  0  0  0  0  0  0  0  0  0  0  0
   48.2579   -2.2168   -5.0435 C   0  0  0  0  0  0  0  0  0  0  0  0
   47.8943   -2.7143   -6.4517 C   0  0  0  0  0  0  0  0  0  0  0  0
   47.5202   -1.6594   -7.3964 N   0  0  0  0  0  0  0  0  0  0  0  0
   48.5170   -1.1701   -8.3646 C   0  0  0  0  0  0  0  0  0  0  0  0
   48.1290    0.0714   -9.2023 C   0  0  0  0  0  0  0  0  0  0  0  0
   49.2242    0.6177  -10.1404 C   0  0  0  0  0  0  0  0  0  0  0  0
   48.8220    1.8339  -10.8409 N   0  0  0  0  0  0  0  0  0  0  0  0
  1  2  1  0  0  0  0
  2  3  1  0  0  0  0
  3  4  1  0  0  0  0
  4  5  1  0  0  0  0
  5  6  1  0  0  0  0
  6  7  1  0  0  0  0
  7  8  1  0  0  0  0
  8  9  1  0  0  0  0
  9 10  1  0  0  0  0
 10 11  1  0  0  0  0
 11 12  1  0  0  0  0
 12 13  1  0  0  0  0
 13 14  1  0  0  0  0
M  END
>  <CHROM.1>
-177.74251450,178.83623138,84.11138484,128.20416000,168.92292959,-176.16951210
-67.44363726,99.41240605,-171.85651397,176.13666376,-176.55710048,49.72578714
-0.13819213,-5.21780717,-0.79528017,-1.02108370,-1.06193007

>  <Name>
ligand

>  <RI>
0

>  <Rbt.Current_Directory>
/home/itssahil/PROJECTS/Mol_Feturizer/New_Systems/rnas/4E8Q

>  <Rbt.Executable>
rbdock ($Id: //depot/dev/client3/rdock/2013.1/src/exe/rbdock.cxx#4 $)

>  <Rbt.Library>
libRbt.so (2013.1, Build901 2013/11/27)

>  <Rbt.Parameter_File>
/export/apps/rDock/src/rDock_2013.1_src/data/scripts/dock_solv.prm

>  <Rbt.Receptor>
prm/pocket_docking_6.prm

>  <SCORE>
-12.9888

>  <SCORE.INTER>
-1.1109

>  <SCORE.INTER.CONST>
1

>  <SCORE.INTER.POLAR>
0

>  <SCORE.INTER.ROT>
11

>  <SCORE.INTER.SOLV>
9.21925

>  <SCORE.INTER.VDW>
-14.747

>  <SCORE.INTER.norm>
-0.0793499

>  <SCORE.INTRA>
-11.8779

>  <SCORE.INTRA.DIHEDRAL>
-22.5748

>  <SCORE.INTRA.DIHEDRAL.0>
25.9209

>  <SCORE.INTRA.POLAR>
0

>  <SCORE.INTRA.POLAR.0>
0

>  <SCORE.INTRA.REPUL>
0

>  <SCORE.INTRA.REPUL.0>
0

>  <SCORE.INTRA.SOLV>
-1.79666

>  <SCORE.INTRA.SOLV.lig_0>
-47.4815

>  <SCORE.INTRA.VDW>
0.307865

>  <SCORE.INTRA.VDW.0>
-1.57492

>  <SCORE.INTRA.norm>
-0.848421

>  <SCORE.RESTR>
0

>  <SCORE.RESTR.CAVITY>
0

>  <SCORE.RESTR.norm>
0

>  <SCORE.SYSTEM>
0

>  <SCORE.SYSTEM.CONST>
0

>  <SCORE.SYSTEM.DIHEDRAL>
0

>  <SCORE.SYSTEM.SOLV>
0

>  <SCORE.SYSTEM.norm>
0

>  <SCORE.heavy>
14

>  <SCORE.norm>
-0.92777

>  <RMSD>
6.583

$$$$
ligand
 OpenBabel11021811493D
libRbt.so/2013.1/901 2013/11/27
 14 13  0  0  0  0  0  0  0  0999 V2000
   48.4313   -4.5214   -9.4647 N   0  0  0  0  0  0  0  0  0  0  0  0
   48.0019   -3.2601   -8.8729 C   0  0  0  0  0  0  0  0  0  0  0  0
   48.1004   -3.3123   -7.3334 C   0  0  0  0  0  0  0  0  0  0  0  0
   47.6612   -2.0195   -6.6176 C   0  0  0  0  0  0  0  0  0  0  0  0
   47.8236   -1.9465   -5.1577 N   0  0  0  0  0  0  0  0  0  0  0  0
   47.8802   -0.6534   -4.4668 C   0  0  0  0  0  0  0  0  0  0  0  0
   49.2859   -0.0721   -4.2893 C   0  0  0  0  0  0  0  0  0  0  0  0
   50.1376   -0.8670   -3.2850 C   0  0  0  0  0  0  0  0  0  0  0  0
   51.4999   -0.2251   -2.9774 C   0  0  0  0  0  0  0  0  0  0  0  0
   51.4275    1.1228   -2.4088 N   0  0  0  0  0  0  0  0  0  0  0  0
   52.4217    2.1319   -2.8136 C   0  0  0  0  0  0  0  0  0  0  0  0
   52.3946    2.5882   -4.2916 C   0  0  0  0  0  0  0  0  0  0  0  0
   53.5632    3.4900   -4.7378 C   0  0  0  0  0  0  0  0  0  0  0  0
   53.4487    3.9288   -6.1255 N   0  0  0  0  0  0  0  0  0  0  0  0
  1  2  1  0  0  0  0
  2  3  1  0  0  0  0
  3  4  1  0  0  0  0
  4  5  1  0  0  0  0
  5  6  1  0  0  0  0
  6  7  1  0  0  0  0
  7  8  1  0  0  0  0
  8  9  1  0  0  0  0
  9 10  1  0  0  0  0
 10 11  1  0  0  0  0
 11 12  1  0  0  0  0
 12 13  1  0  0  0  0
 13 14  1  0  0  0  0
M  END
>  <CHROM.1>
-179.82028945,-175.27411920,158.63082443,-91.21300988,-69.57222425,-174.02800825
59.68328835,-142.02997385,65.64335796,-171.71537087,-177.64550600,50.14834633
-0.25821407,-5.20277265,-2.52241181,0.80701960,1.36849208

>  <Name>
ligand

>  <RI>
0

>  <Rbt.Current_Directory>
/home/itssahil/PROJECTS/Mol_Feturizer/New_Systems/rnas/4E8Q

>  <Rbt.Executable>
rbdock ($Id: //depot/dev/client3/rdock/2013.1/src/exe/rbdock.cxx#4 $)

>  <Rbt.Library>
libRbt.so (2013.1, Build901 2013/11/27)

>  <Rbt.Parameter_File>
/export/apps/rDock/src/rDock_2013.1_src/data/scripts/dock_solv.prm

>  <Rbt.Receptor>
prm/pocket_docking_7.prm

>  <SCORE>
-13.3111

>  <SCORE.INTER>
-1.35491

>  <SCORE.INTER.CONST>
1

>  <SCORE.INTER.POLAR>
0

>  <SCORE.INTER.ROT>
11

>  <SCORE.INTER.SOLV>
7.53082

>  <SCORE.INTER.VDW>
-14.3469

>  <SCORE.INTER.norm>
-0.0967796

>  <SCORE.INTRA>
-11.9562

>  <SCORE.INTRA.DIHEDRAL>
-23.2267

>  <SCORE.INTRA.DIHEDRAL.0>
25.9209

>  <SCORE.INTRA.POLAR>
0

>  <SCORE.INTRA.POLAR.0>
0

>  <SCORE.INTRA.REPUL>
0

>  <SCORE.INTRA.REPUL.0>
0

>  <SCORE.INTRA.SOLV>
-1.43501

>  <SCORE.INTRA.SOLV.lig_0>
-47.4815

>  <SCORE.INTRA.VDW>
0.374636

>  <SCORE.INTRA.VDW.0>
-1.57492

>  <SCORE.INTRA.norm>
-0.854014

>  <SCORE.RESTR>
0

>  <SCORE.RESTR.CAVITY>
0

>  <SCORE.RESTR.norm>
0

>  <SCORE.SYSTEM>
0

>  <SCORE.SYSTEM.CONST>
0

>  <SCORE.SYSTEM.DIHEDRAL>
0

>  <SCORE.SYSTEM.SOLV>
0

>  <SCORE.SYSTEM.norm>
0

>  <SCORE.heavy>
14

>  <SCORE.norm>
-0.950794

>  <RMSD>
6.585

$$$$
ligand
 OpenBabel11021811493D
libRbt.so/2013.1/901 2013/11/27
 14 13  0  0  0  0  0  0  0  0999 V2000
   56.2235    8.0576   -3.4227 N   0  0  0  0  0  0  0  0  0  0  0  0
   55.5429    7.1403   -2.5169 C   0  0  0  0  0  0  0  0  0  0  0  0
   56.4374    5.9262   -2.1878 C   0  0  0  0  0  0  0  0  0  0  0  0
   55.7575    4.8415   -1.3289 C   0  0  0  0  0  0  0  0  0  0  0  0
   56.5115    3.6120   -1.0412 N   0  0  0  0  0  0  0  0  0  0  0  0
   57.7428    3.6490   -0.2444 C   0  0  0  0  0  0  0  0  0  0  0  0
   57.8201    2.6138    0.8816 C   0  0  0  0  0  0  0  0  0  0  0  0
   59.0345    2.8233    1.8020 C   0  0  0  0  0  0  0  0  0  0  0  0
   59.1106    1.8271    2.9701 C   0  0  0  0  0  0  0  0  0  0  0  0
   59.4670    0.4592    2.5863 N   0  0  0  0  0  0  0  0  0  0  0  0
   58.4435   -0.5987    2.6497 C   0  0  0  0  0  0  0  0  0  0  0  0
   58.9054   -2.0400    2.3293 C   0  0  0  0  0  0  0  0  0  0  0  0
   60.0491   -2.5893    3.2058 C   0  0  0  0  0  0  0  0  0  0  0  0
   60.4948   -3.9181    2.7967 N   0  0  0  0  0  0  0  0  0  0  0  0
  1  2  1  0  0  0  0
  2  3  1  0  0  0  0
  3  4  1  0  0  0  0
  4  5  1  0  0  0  0
  5  6  1  0  0  0  0
  6  7  1  0  0  0  0
  7  8  1  0  0  0  0
  8  9  1  0  0  0  0
  9 10  1  0  0  0  0
 10 11  1  0  0  0  0
 11 12  1  0  0  0  0
 12 13  1  0  0  0  0
 13 14  1  0  0  0  0
M  END
>  <CHROM.1>
-175.13765854,176.19648670,64.27397110,131.67944564,-172.00618147,178.01712966
71.64385235,-109.06501264,-175.76019674,57.42007569,-176.27810783,57.96711343
2.27180433,0.60584708,2.24627331,-0.99584623,0.03845056

>  <Name>
ligand

>  <RI>
0

>  <Rbt.Current_Directory>
/home/itssahil/PROJECTS/Mol_Feturizer/New_Systems/rnas/4E8Q

>  <Rbt.Executable>
rbdock ($Id: //depot/dev/client3/rdock/2013.1/src/exe/rbdock.cxx#4 $)

>  <Rbt.Library>
libRbt.so (2013.1, Build901 2013/11/27)

>  <Rbt.Parameter_File>
/export/apps/rDock/src/rDock_2013.1_src/data/scripts/dock_solv.prm

>  <Rbt.Receptor>
prm/pocket_docking_7.prm

>  <SCORE>
-11.0271

>  <SCORE.INTER>
0.728146

>  <SCORE.INTER.CONST>
1

>  <SCORE.INTER.POLAR>
0

>  <SCORE.INTER.ROT>
11

>  <SCORE.INTER.SOLV>
12.4671

>  <SCORE.INTER.VDW>
-14.6036

>  <SCORE.INTER.norm>
0.0520104

>  <SCORE.INTRA>
-11.7552

>  <SCORE.INTRA.DIHEDRAL>
-22.7228

>  <SCORE.INTRA.DIHEDRAL.0>
25.9209

>  <SCORE.INTRA.POLAR>
0

>  <SCORE.INTRA.POLAR.0>
0

>  <SCORE.INTRA.REPUL>
0

>  <SCORE.INTRA.REPUL.0>
0

>  <SCORE.INTRA.SOLV>
-1.51241

>  <SCORE.INTRA.SOLV.lig_0>
-47.4815

>  <SCORE.INTRA.VDW>
0.362351

>  <SCORE.INTRA.VDW.0>
-1.57492

>  <SCORE.INTRA.norm>
-0.83966

>  <SCORE.RESTR>
0

>  <SCORE.RESTR.CAVITY>
0

>  <SCORE.RESTR.norm>
0

>  <SCORE.SYSTEM>
0

>  <SCORE.SYSTEM.CONST>
0

>  <SCORE.SYSTEM.DIHEDRAL>
0

>  <SCORE.SYSTEM.SOLV>
0

>  <SCORE.SYSTEM.norm>
0

>  <SCORE.heavy>
14

>  <SCORE.norm>
-0.787649

>  <RMSD>
6.670

$$$$
ligand
 OpenBabel11021811493D
libRbt.so/2013.1/901 2013/11/27
 14 13  0  0  0  0  0  0  0  0999 V2000
   54.7550    6.1985   -3.0016 N   0  0  0  0  0  0  0  0  0  0  0  0
   54.3845    5.4515   -4.1974 C   0  0  0  0  0  0  0  0  0  0  0  0
   53.5750    4.1897   -3.8299 C   0  0  0  0  0  0  0  0  0  0  0  0
   53.1644    3.3170   -5.0326 C   0  0  0  0  0  0  0  0  0  0  0  0
   52.3223    2.1385   -4.7780 N   0  0  0  0  0  0  0  0  0  0  0  0
   51.7385    1.3728   -5.8851 C   0  0  0  0  0  0  0  0  0  0  0  0
   51.0743    0.0526   -5.4835 C   0  0  0  0  0  0  0  0  0  0  0  0
   49.9140    0.2460   -4.4924 C   0  0  0  0  0  0  0  0  0  0  0  0
   49.1761   -1.0542   -4.1351 C   0  0  0  0  0  0  0  0  0  0  0  0
   48.5356   -1.7262   -5.2680 N   0  0  0  0  0  0  0  0  0  0  0  0
   48.5306   -3.1983   -5.3258 C   0  0  0  0  0  0  0  0  0  0  0  0
   47.9685   -3.8468   -6.6131 C   0  0  0  0  0  0  0  0  0  0  0  0
   47.9502   -5.3886   -6.6356 C   0  0  0  0  0  0  0  0  0  0  0  0
   47.4714   -5.9358   -7.9017 N   0  0  0  0  0  0  0  0  0  0  0  0
  1  2  1  0  0  0  0
  2  3  1  0  0  0  0
  3  4  1  0  0  0  0
  4  5  1  0  0  0  0
  5  6  1  0  0  0  0
  6  7  1  0  0  0  0
  7  8  1  0  0  0  0
  8  9  1  0  0  0  0
  9 10  1  0  0  0  0
 10 11  1  0  0  0  0
 11 12  1  0  0  0  0
 12 13  1  0  0  0  0
 13 14  1  0  0  0  0
M  END
>  <CHROM.1>
-178.70782482,-176.42632348,171.31408310,170.71721275,60.08118231,176.62969919
-61.52989636,143.04650073,-173.94929904,-178.86817045,-177.12134908,50.75429889
0.12974620,-5.18424878,0.75403983,0.75242678,0.89657611

>  <Name>
ligand

>  <RI>
0

>  <Rbt.Current_Directory>
/home/itssahil/PROJECTS/Mol_Feturizer/New_Systems/rnas/4E8Q

>  <Rbt.Executable>
rbdock ($Id: //depot/dev/client3/rdock/2013.1/src/exe/rbdock.cxx#4 $)

>  <Rbt.Library>
libRbt.so (2013.1, Build901 2013/11/27)

>  <Rbt.Parameter_File>
/export/apps/rDock/src/rDock_2013.1_src/data/scripts/dock_solv.prm

>  <Rbt.Receptor>
prm/pocket_docking_8.prm

>  <SCORE>
-11.4763

>  <SCORE.INTER>
1.31391

>  <SCORE.INTER.CONST>
1

>  <SCORE.INTER.POLAR>
0

>  <SCORE.INTER.ROT>
11

>  <SCORE.INTER.SOLV>
5.95004

>  <SCORE.INTER.VDW>
-12.0407

>  <SCORE.INTER.norm>
0.093851

>  <SCORE.INTRA>
-12.7902

>  <SCORE.INTRA.DIHEDRAL>
-24.7999

>  <SCORE.INTRA.DIHEDRAL.0>
25.9209

>  <SCORE.INTRA.POLAR>
0

>  <SCORE.INTRA.POLAR.0>
0

>  <SCORE.INTRA.REPUL>
0

>  <SCORE.INTRA.REPUL.0>
0

>  <SCORE.INTRA.SOLV>
-1.38592

>  <SCORE.INTRA.SOLV.lig_0>
-47.4815

>  <SCORE.INTRA.VDW>
0.302703

>  <SCORE.INTRA.VDW.0>
-1.57492

>  <SCORE.INTRA.norm>
-0.913586

>  <SCORE.RESTR>
0

>  <SCORE.RESTR.CAVITY>
0

>  <SCORE.RESTR.norm>
0

>  <SCORE.SYSTEM>
0

>  <SCORE.SYSTEM.CONST>
0

>  <SCORE.SYSTEM.DIHEDRAL>
0

>  <SCORE.SYSTEM.SOLV>
0

>  <SCORE.SYSTEM.norm>
0

>  <SCORE.heavy>
14

>  <SCORE.norm>
-0.819735

>  <RMSD>
6.688

$$$$
ligand
 OpenBabel11021811493D
libRbt.so/2013.1/901 2013/11/27
 14 13  0  0  0  0  0  0  0  0999 V2000
   55.1545    5.0505    0.6174 N   0  0  0  0  0  0  0  0  0  0  0  0
   55.2073    5.0353   -0.8393 C   0  0  0  0  0  0  0  0  0  0  0  0
   56.6670    5.0890   -1.3382 C   0  0  0  0  0  0  0  0  0  0  0  0
   57.4999    3.8303   -1.0239 C   0  0  0  0  0  0  0  0  0  0  0  0
   57.0571    2.5473   -1.5900 N   0  0  0  0  0  0  0  0  0  0  0  0
   57.6525    1.2807   -1.1498 C   0  0  0  0  0  0  0  0  0  0  0  0
   57.4443    0.9438    0.3296 C   0  0  0  0  0  0  0  0  0  0  0  0
   57.9026   -0.4803    0.6871 C   0  0  0  0  0  0  0  0  0  0  0  0
   57.7894   -0.8145    2.1832 C   0  0  0  0  0  0  0  0  0  0  0  0
   58.7544   -0.1220    3.0403 N   0  0  0  0  0  0  0  0  0  0  0  0
   60.1139   -0.6704    3.1870 C   0  0  0  0  0  0  0  0  0  0  0  0
   60.8204   -0.4374    4.5435 C   0  0  0  0  0  0  0  0  0  0  0  0
   62.2556   -0.9898    4.6570 C   0  0  0  0  0  0  0  0  0  0  0  0
   62.3229   -2.4406    4.5081 N   0  0  0  0  0  0  0  0  0  0  0  0
  1  2  1  0  0  0  0
  2  3  1  0  0  0  0
  3  4  1  0  0  0  0
  4  5  1  0  0  0  0
  5  6  1  0  0  0  0
  6  7  1  0  0  0  0
  7  8  1  0  0  0  0
  8  9  1  0  0  0  0
  9 10  1  0  0  0  0
 10 11  1  0  0  0  0
 11 12  1  0  0  0  0
 12 13  1  0  0  0  0
 13 14  1  0  0  0  0
M  END
>  <CHROM.1>
67.55109447,61.14507231,-169.17245330,62.53296918,171.46604328,176.27520741
-70.65749747,-83.09890445,-148.57511669,-178.46734508,-62.03759674,58.33157663
1.27300028,1.27213497,-2.86375543,0.96019148,-2.64221995

>  <Name>
ligand

>  <RI>
0

>  <Rbt.Current_Directory>
/home/itssahil/PROJECTS/Mol_Feturizer/New_Systems/rnas/4E8Q

>  <Rbt.Executable>
rbdock ($Id: //depot/dev/client3/rdock/2013.1/src/exe/rbdock.cxx#4 $)

>  <Rbt.Library>
libRbt.so (2013.1, Build901 2013/11/27)

>  <Rbt.Parameter_File>
/export/apps/rDock/src/rDock_2013.1_src/data/scripts/dock_solv.prm

>  <Rbt.Receptor>
prm/pocket_docking_7.prm

>  <SCORE>
-12.7033

>  <SCORE.INTER>
-1.60232

>  <SCORE.INTER.CONST>
1

>  <SCORE.INTER.POLAR>
0

>  <SCORE.INTER.ROT>
11

>  <SCORE.INTER.SOLV>
10.4398

>  <SCORE.INTER.VDW>
-15.4815

>  <SCORE.INTER.norm>
-0.114452

>  <SCORE.INTRA>
-11.101

>  <SCORE.INTRA.DIHEDRAL>
-23.799

>  <SCORE.INTRA.DIHEDRAL.0>
25.9209

>  <SCORE.INTRA.POLAR>
0

>  <SCORE.INTRA.POLAR.0>
0

>  <SCORE.INTRA.REPUL>
0

>  <SCORE.INTRA.REPUL.0>
0

>  <SCORE.INTRA.SOLV>
0.380549

>  <SCORE.INTRA.SOLV.lig_0>
-47.4815

>  <SCORE.INTRA.VDW>
0.608211

>  <SCORE.INTRA.VDW.0>
-1.57492

>  <SCORE.INTRA.norm>
-0.79293

>  <SCORE.RESTR>
0

>  <SCORE.RESTR.CAVITY>
0

>  <SCORE.RESTR.norm>
0

>  <SCORE.SYSTEM>
0

>  <SCORE.SYSTEM.CONST>
0

>  <SCORE.SYSTEM.DIHEDRAL>
0

>  <SCORE.SYSTEM.SOLV>
0

>  <SCORE.SYSTEM.norm>
0

>  <SCORE.heavy>
14

>  <SCORE.norm>
-0.907382

>  <RMSD>
6.705

$$$$
ligand
 OpenBabel11021811493D
libRbt.so/2013.1/901 2013/11/27
 14 13  0  0  0  0  0  0  0  0999 V2000
   48.0710   -3.3730  -11.1892 N   0  0  0  0  0  0  0  0  0  0  0  0
   48.9374   -2.2227  -10.9624 C   0  0  0  0  0  0  0  0  0  0  0  0
   49.1101   -1.9524   -9.4526 C   0  0  0  0  0  0  0  0  0  0  0  0
   47.8136   -1.5564   -8.7185 C   0  0  0  0  0  0  0  0  0  0  0  0
   47.8860   -1.3049   -7.2713 N   0  0  0  0  0  0  0  0  0  0  0  0
   47.9777   -2.4135   -6.3147 C   0  0  0  0  0  0  0  0  0  0  0  0
   48.2326   -1.9998   -4.8624 C   0  0  0  0  0  0  0  0  0  0  0  0
   49.5642   -1.2519   -4.6802 C   0  0  0  0  0  0  0  0  0  0  0  0
   49.9214   -0.9630   -3.2134 C   0  0  0  0  0  0  0  0  0  0  0  0
   51.2032   -0.2817   -3.0178 N   0  0  0  0  0  0  0  0  0  0  0  0
   51.2528    1.1901   -3.0605 C   0  0  0  0  0  0  0  0  0  0  0  0
   52.0202    1.8984   -1.9190 C   0  0  0  0  0  0  0  0  0  0  0  0
   51.5051    1.6233   -0.4917 C   0  0  0  0  0  0  0  0  0  0  0  0
   52.2120    2.3916    0.5288 N   0  0  0  0  0  0  0  0  0  0  0  0
  1  2  1  0  0  0  0
  2  3  1  0  0  0  0
  3  4  1  0  0  0  0
  4  5  1  0  0  0  0
  5  6  1  0  0  0  0
  6  7  1  0  0  0  0
  7  8  1  0  0  0  0
  8  9  1  0  0  0  0
  9 10  1  0  0  0  0
 10 11  1  0  0  0  0
 11 12  1  0  0  0  0
 12 13  1  0  0  0  0
 13 14  1  0  0  0  0
M  END
>  <CHROM.1>
-64.04058587,178.92011024,-76.30217672,172.23329856,-61.30339019,-173.52177696
178.49974674,87.31733238,132.35246075,-58.99982260,-176.03079086,49.69330252
-0.72974627,-5.33039281,-2.03914057,0.73225880,1.47416628

>  <Name>
ligand

>  <RI>
0

>  <Rbt.Current_Directory>
/home/itssahil/PROJECTS/Mol_Feturizer/New_Systems/rnas/4E8Q

>  <Rbt.Executable>
rbdock ($Id: //depot/dev/client3/rdock/2013.1/src/exe/rbdock.cxx#4 $)

>  <Rbt.Library>
libRbt.so (2013.1, Build901 2013/11/27)

>  <Rbt.Parameter_File>
/export/apps/rDock/src/rDock_2013.1_src/data/scripts/dock_solv.prm

>  <Rbt.Receptor>
prm/pocket_docking_8.prm

>  <SCORE>
-12.151

>  <SCORE.INTER>
-0.335871

>  <SCORE.INTER.CONST>
1

>  <SCORE.INTER.POLAR>
0

>  <SCORE.INTER.ROT>
11

>  <SCORE.INTER.SOLV>
8.10498

>  <SCORE.INTER.VDW>
-13.8589

>  <SCORE.INTER.norm>
-0.0239908

>  <SCORE.INTRA>
-11.8151

>  <SCORE.INTRA.DIHEDRAL>
-23.7531

>  <SCORE.INTRA.DIHEDRAL.0>
25.9209

>  <SCORE.INTRA.POLAR>
0

>  <SCORE.INTRA.POLAR.0>
0

>  <SCORE.INTRA.REPUL>
0

>  <SCORE.INTRA.REPUL.0>
0

>  <SCORE.INTRA.SOLV>
-0.772545

>  <SCORE.INTRA.SOLV.lig_0>
-47.4815

>  <SCORE.INTRA.VDW>
0.447685

>  <SCORE.INTRA.VDW.0>
-1.57492

>  <SCORE.INTRA.norm>
-0.843939

>  <SCORE.RESTR>
0

>  <SCORE.RESTR.CAVITY>
0

>  <SCORE.RESTR.norm>
0

>  <SCORE.SYSTEM>
0

>  <SCORE.SYSTEM.CONST>
0

>  <SCORE.SYSTEM.DIHEDRAL>
0

>  <SCORE.SYSTEM.SOLV>
0

>  <SCORE.SYSTEM.norm>
0

>  <SCORE.heavy>
14

>  <SCORE.norm>
-0.86793

>  <RMSD>
6.731

$$$$
ligand
 OpenBabel11021811493D
libRbt.so/2013.1/901 2013/11/27
 14 13  0  0  0  0  0  0  0  0999 V2000
   55.3331    7.7671   -1.9640 N   0  0  0  0  0  0  0  0  0  0  0  0
   55.6552    6.6704   -1.0592 C   0  0  0  0  0  0  0  0  0  0  0  0
   56.5353    5.6159   -1.7634 C   0  0  0  0  0  0  0  0  0  0  0  0
   56.9258    4.4129   -0.8818 C   0  0  0  0  0  0  0  0  0  0  0  0
   57.8199    3.3955   -1.4546 N   0  0  0  0  0  0  0  0  0  0  0  0
   57.5480    1.9645   -1.2790 C   0  0  0  0  0  0  0  0  0  0  0  0
   57.6169    1.4621    0.1661 C   0  0  0  0  0  0  0  0  0  0  0  0
   57.3976   -0.0560    0.2808 C   0  0  0  0  0  0  0  0  0  0  0  0
   57.5001   -0.5940    1.7170 C   0  0  0  0  0  0  0  0  0  0  0  0
   58.8218   -0.4510    2.3318 N   0  0  0  0  0  0  0  0  0  0  0  0
   59.5034   -1.6434    2.8649 C   0  0  0  0  0  0  0  0  0  0  0  0
   60.9284   -1.4407    3.4321 C   0  0  0  0  0  0  0  0  0  0  0  0
   61.0377   -0.5098    4.6566 C   0  0  0  0  0  0  0  0  0  0  0  0
   60.3536   -1.0335    5.8353 N   0  0  0  0  0  0  0  0  0  0  0  0
  1  2  1  0  0  0  0
  2  3  1  0  0  0  0
  3  4  1  0  0  0  0
  4  5  1  0  0  0  0
  5  6  1  0  0  0  0
  6  7  1  0  0  0  0
  7  8  1  0  0  0  0
  8  9  1  0  0  0  0
  9 10  1  0  0  0  0
 10 11  1  0  0  0  0
 11 12  1  0  0  0  0
 12 13  1  0  0  0  0
 13 14  1  0  0  0  0
M  END
>  <CHROM.1>
-179.89780760,-176.95603312,-135.56486465,-64.66101434,-176.94236103,178.39859832
-64.04662325,-124.39105324,176.77115043,62.90325348,64.77078781,58.06976553
1.82548394,0.92008145,-2.54592199,1.06853122,-2.88791493

>  <Name>
ligand

>  <RI>
0

>  <Rbt.Current_Directory>
/home/itssahil/PROJECTS/Mol_Feturizer/New_Systems/rnas/4E8Q

>  <Rbt.Executable>
rbdock ($Id: //depot/dev/client3/rdock/2013.1/src/exe/rbdock.cxx#4 $)

>  <Rbt.Library>
libRbt.so (2013.1, Build901 2013/11/27)

>  <Rbt.Parameter_File>
/export/apps/rDock/src/rDock_2013.1_src/data/scripts/dock_solv.prm

>  <Rbt.Receptor>
prm/pocket_docking_8.prm

>  <SCORE>
-12.9176

>  <SCORE.INTER>
-1.57619

>  <SCORE.INTER.CONST>
1

>  <SCORE.INTER.POLAR>
0

>  <SCORE.INTER.ROT>
11

>  <SCORE.INTER.SOLV>
11.8449

>  <SCORE.INTER.VDW>
-15.9324

>  <SCORE.INTER.norm>
-0.112585

>  <SCORE.INTRA>
-11.3414

>  <SCORE.INTRA.DIHEDRAL>
-23.4385

>  <SCORE.INTRA.DIHEDRAL.0>
25.9209

>  <SCORE.INTRA.POLAR>
0

>  <SCORE.INTRA.POLAR.0>
0

>  <SCORE.INTRA.REPUL>
0

>  <SCORE.INTRA.REPUL.0>
0

>  <SCORE.INTRA.SOLV>
-0.309685

>  <SCORE.INTRA.SOLV.lig_0>
-47.4815

>  <SCORE.INTRA.VDW>
0.532705

>  <SCORE.INTRA.VDW.0>
-1.57492

>  <SCORE.INTRA.norm>
-0.810101

>  <SCORE.RESTR>
0

>  <SCORE.RESTR.CAVITY>
0

>  <SCORE.RESTR.norm>
0

>  <SCORE.SYSTEM>
0

>  <SCORE.SYSTEM.CONST>
0

>  <SCORE.SYSTEM.DIHEDRAL>
0

>  <SCORE.SYSTEM.SOLV>
0

>  <SCORE.SYSTEM.norm>
0

>  <SCORE.heavy>
14

>  <SCORE.norm>
-0.922686

>  <RMSD>
6.740

$$$$
ligand
 OpenBabel11021811493D
libRbt.so/2013.1/901 2013/11/27
 14 13  0  0  0  0  0  0  0  0999 V2000
   54.1033    5.9927   -5.1027 N   0  0  0  0  0  0  0  0  0  0  0  0
   53.2802    5.0528   -4.3516 C   0  0  0  0  0  0  0  0  0  0  0  0
   53.9860    3.6865   -4.2188 C   0  0  0  0  0  0  0  0  0  0  0  0
   53.1860    2.6233   -3.4402 C   0  0  0  0  0  0  0  0  0  0  0  0
   51.9726    2.0747   -4.0643 N   0  0  0  0  0  0  0  0  0  0  0  0
   51.3199    0.8768   -3.5243 C   0  0  0  0  0  0  0  0  0  0  0  0
   50.1564    0.3371   -4.3612 C   0  0  0  0  0  0  0  0  0  0  0  0
   49.5355   -0.9384   -3.7667 C   0  0  0  0  0  0  0  0  0  0  0  0
   48.2873   -1.4318   -4.5160 C   0  0  0  0  0  0  0  0  0  0  0  0
   48.5055   -1.7445   -5.9302 N   0  0  0  0  0  0  0  0  0  0  0  0
   47.9297   -2.9775   -6.4945 C   0  0  0  0  0  0  0  0  0  0  0  0
   48.5515   -4.3165   -6.0317 C   0  0  0  0  0  0  0  0  0  0  0  0
   47.9134   -5.5918   -6.6185 C   0  0  0  0  0  0  0  0  0  0  0  0
   48.5736   -6.8165   -6.1762 N   0  0  0  0  0  0  0  0  0  0  0  0
  1  2  1  0  0  0  0
  2  3  1  0  0  0  0
  3  4  1  0  0  0  0
  4  5  1  0  0  0  0
  5  6  1  0  0  0  0
  6  7  1  0  0  0  0
  7  8  1  0  0  0  0
  8  9  1  0  0  0  0
  9 10  1  0  0  0  0
 10 11  1  0  0  0  0
 11 12  1  0  0  0  0
 12 13  1  0  0  0  0
 13 14  1  0  0  0  0
M  END
>  <CHROM.1>
-179.83082373,69.57212066,167.17382947,-173.82724010,178.49604722,174.84179120
59.14170826,135.81344236,-69.97602566,178.95175253,178.12902605,50.52139123
-0.22669152,-4.89960246,-1.00130265,-0.39644051,-2.69557414

>  <Name>
ligand

>  <RI>
0

>  <Rbt.Current_Directory>
/home/itssahil/PROJECTS/Mol_Feturizer/New_Systems/rnas/4E8Q

>  <Rbt.Executable>
rbdock ($Id: //depot/dev/client3/rdock/2013.1/src/exe/rbdock.cxx#4 $)

>  <Rbt.Library>
libRbt.so (2013.1, Build901 2013/11/27)

>  <Rbt.Parameter_File>
/export/apps/rDock/src/rDock_2013.1_src/data/scripts/dock_solv.prm

>  <Rbt.Receptor>
prm/pocket_docking_8.prm

>  <SCORE>
-11.9142

>  <SCORE.INTER>
0.493143

>  <SCORE.INTER.CONST>
1

>  <SCORE.INTER.POLAR>
0

>  <SCORE.INTER.ROT>
11

>  <SCORE.INTER.SOLV>
9.31526

>  <SCORE.INTER.VDW>
-13.7097

>  <SCORE.INTER.norm>
0.0352245

>  <SCORE.INTRA>
-12.4074

>  <SCORE.INTRA.DIHEDRAL>
-24.1945

>  <SCORE.INTRA.DIHEDRAL.0>
25.9209

>  <SCORE.INTRA.POLAR>
0

>  <SCORE.INTRA.POLAR.0>
0

>  <SCORE.INTRA.REPUL>
0

>  <SCORE.INTRA.REPUL.0>
0

>  <SCORE.INTRA.SOLV>
-1.49049

>  <SCORE.INTRA.SOLV.lig_0>
-47.4815

>  <SCORE.INTRA.VDW>
0.435136

>  <SCORE.INTRA.VDW.0>
-1.57492

>  <SCORE.INTRA.norm>
-0.88624

>  <SCORE.RESTR>
0

>  <SCORE.RESTR.CAVITY>
0

>  <SCORE.RESTR.norm>
0

>  <SCORE.SYSTEM>
0

>  <SCORE.SYSTEM.CONST>
0

>  <SCORE.SYSTEM.DIHEDRAL>
0

>  <SCORE.SYSTEM.SOLV>
0

>  <SCORE.SYSTEM.norm>
0

>  <SCORE.heavy>
14

>  <SCORE.norm>
-0.851016

>  <RMSD>
6.746

$$$$
ligand
 OpenBabel11021811493D
libRbt.so/2013.1/901 2013/11/27
 14 13  0  0  0  0  0  0  0  0999 V2000
   51.8417    4.2790   -1.2125 N   0  0  0  0  0  0  0  0  0  0  0  0
   51.1804    3.2043   -1.9426 C   0  0  0  0  0  0  0  0  0  0  0  0
   52.2106    2.1886   -2.4806 C   0  0  0  0  0  0  0  0  0  0  0  0
   51.6017    1.0142   -3.2722 C   0  0  0  0  0  0  0  0  0  0  0  0
   50.6134    0.1610   -2.5954 N   0  0  0  0  0  0  0  0  0  0  0  0
   50.1120   -1.0639   -3.2285 C   0  0  0  0  0  0  0  0  0  0  0  0
   49.1240   -0.8443   -4.3778 C   0  0  0  0  0  0  0  0  0  0  0  0
   48.6066   -2.1619   -4.9795 C   0  0  0  0  0  0  0  0  0  0  0  0
   47.6465   -1.9715   -6.1646 C   0  0  0  0  0  0  0  0  0  0  0  0
   48.2489   -1.3530   -7.3478 N   0  0  0  0  0  0  0  0  0  0  0  0
   47.4400   -1.1893   -8.5682 C   0  0  0  0  0  0  0  0  0  0  0  0
   47.9838   -0.2194   -9.6439 C   0  0  0  0  0  0  0  0  0  0  0  0
   49.3217   -0.6219  -10.2965 C   0  0  0  0  0  0  0  0  0  0  0  0
   49.7794    0.3358  -11.2990 N   0  0  0  0  0  0  0  0  0  0  0  0
  1  2  1  0  0  0  0
  2  3  1  0  0  0  0
  3  4  1  0  0  0  0
  4  5  1  0  0  0  0
  5  6  1  0  0  0  0
  6  7  1  0  0  0  0
  7  8  1  0  0  0  0
  8  9  1  0  0  0  0
  9 10  1  0  0  0  0
 10 11  1  0  0  0  0
 11 12  1  0  0  0  0
 12 13  1  0  0  0  0
 13 14  1  0  0  0  0
M  END
>  <CHROM.1>
-179.85400371,-58.12624258,-172.68832831,-73.99507224,-178.59700124,-178.18717416
64.78574016,176.69616825,164.53485100,63.99190905,-179.87881819,49.69345085
0.12525713,-5.52918625,-0.86593555,-0.99493025,-1.34911991

>  <Name>
ligand

>  <RI>
0

>  <Rbt.Current_Directory>
/home/itssahil/PROJECTS/Mol_Feturizer/New_Systems/rnas/4E8Q

>  <Rbt.Executable>
rbdock ($Id: //depot/dev/client3/rdock/2013.1/src/exe/rbdock.cxx#4 $)

>  <Rbt.Library>
libRbt.so (2013.1, Build901 2013/11/27)

>  <Rbt.Parameter_File>
/export/apps/rDock/src/rDock_2013.1_src/data/scripts/dock_solv.prm

>  <Rbt.Receptor>
prm/pocket_docking_7.prm

>  <SCORE>
-12.7967

>  <SCORE.INTER>
0.0853722

>  <SCORE.INTER.CONST>
1

>  <SCORE.INTER.POLAR>
0

>  <SCORE.INTER.ROT>
11

>  <SCORE.INTER.SOLV>
5.62844

>  <SCORE.INTER.VDW>
-12.7526

>  <SCORE.INTER.norm>
0.00609801

>  <SCORE.INTRA>
-12.882

>  <SCORE.INTRA.DIHEDRAL>
-25.3474

>  <SCORE.INTRA.DIHEDRAL.0>
25.9209

>  <SCORE.INTRA.POLAR>
0

>  <SCORE.INTRA.POLAR.0>
0

>  <SCORE.INTRA.REPUL>
0

>  <SCORE.INTRA.REPUL.0>
0

>  <SCORE.INTRA.SOLV>
-1.19091

>  <SCORE.INTRA.SOLV.lig_0>
-47.4815

>  <SCORE.INTRA.VDW>
0.387115

>  <SCORE.INTRA.VDW.0>
-1.57492

>  <SCORE.INTRA.norm>
-0.920146

>  <SCORE.RESTR>
0

>  <SCORE.RESTR.CAVITY>
0

>  <SCORE.RESTR.norm>
0

>  <SCORE.SYSTEM>
0

>  <SCORE.SYSTEM.CONST>
0

>  <SCORE.SYSTEM.DIHEDRAL>
0

>  <SCORE.SYSTEM.SOLV>
0

>  <SCORE.SYSTEM.norm>
0

>  <SCORE.heavy>
14

>  <SCORE.norm>
-0.914048

>  <RMSD>
6.752

$$$$
ligand
 OpenBabel11021811493D
libRbt.so/2013.1/901 2013/11/27
 14 13  0  0  0  0  0  0  0  0999 V2000
   48.2598    3.3782   -9.7727 N   0  0  0  0  0  0  0  0  0  0  0  0
   48.8560    2.0484   -9.8116 C   0  0  0  0  0  0  0  0  0  0  0  0
   47.7655    0.9571   -9.8589 C   0  0  0  0  0  0  0  0  0  0  0  0
   48.3013   -0.4881   -9.8270 C   0  0  0  0  0  0  0  0  0  0  0  0
   49.1093   -0.9021   -8.6701 N   0  0  0  0  0  0  0  0  0  0  0  0
   48.4900   -1.1410   -7.3617 C   0  0  0  0  0  0  0  0  0  0  0  0
   49.4480   -1.0822   -6.1683 C   0  0  0  0  0  0  0  0  0  0  0  0
   48.7269   -1.2235   -4.8171 C   0  0  0  0  0  0  0  0  0  0  0  0
   49.6636   -1.1547   -3.6003 C   0  0  0  0  0  0  0  0  0  0  0  0
   50.3767    0.1155   -3.4473 N   0  0  0  0  0  0  0  0  0  0  0  0
   51.4591    0.2210   -2.4535 C   0  0  0  0  0  0  0  0  0  0  0  0
   52.0832    1.6210   -2.2436 C   0  0  0  0  0  0  0  0  0  0  0  0
   51.1383    2.6992   -1.6755 C   0  0  0  0  0  0  0  0  0  0  0  0
   51.7700    4.0107   -1.5632 N   0  0  0  0  0  0  0  0  0  0  0  0
  1  2  1  0  0  0  0
  2  3  1  0  0  0  0
  3  4  1  0  0  0  0
  4  5  1  0  0  0  0
  5  6  1  0  0  0  0
  6  7  1  0  0  0  0
  7  8  1  0  0  0  0
  8  9  1  0  0  0  0
  9 10  1  0  0  0  0
 10 11  1  0  0  0  0
 11 12  1  0  0  0  0
 12 13  1  0  0  0  0
 13 14  1  0  0  0  0
M  END
>  <CHROM.1>
-176.92494558,59.28286376,73.20609189,-159.57389092,175.23057082,-179.45728327
62.31864034,-170.09794496,-174.35236371,64.23927456,-177.18873192,49.67475475
0.64668933,-5.80504238,-2.82531969,1.16992175,2.66350076

>  <Name>
ligand

>  <RI>
0

>  <Rbt.Current_Directory>
/home/itssahil/PROJECTS/Mol_Feturizer/New_Systems/rnas/4E8Q

>  <Rbt.Executable>
rbdock ($Id: //depot/dev/client3/rdock/2013.1/src/exe/rbdock.cxx#4 $)

>  <Rbt.Library>
libRbt.so (2013.1, Build901 2013/11/27)

>  <Rbt.Parameter_File>
/export/apps/rDock/src/rDock_2013.1_src/data/scripts/dock_solv.prm

>  <Rbt.Receptor>
prm/pocket_docking_8.prm

>  <SCORE>
-12.3958

>  <SCORE.INTER>
0.515719

>  <SCORE.INTER.CONST>
1

>  <SCORE.INTER.POLAR>
0

>  <SCORE.INTER.ROT>
11

>  <SCORE.INTER.SOLV>
5.27466

>  <SCORE.INTER.VDW>
-12.3477

>  <SCORE.INTER.norm>
0.0368371

>  <SCORE.INTRA>
-12.9116

>  <SCORE.INTRA.DIHEDRAL>
-25.1242

>  <SCORE.INTRA.DIHEDRAL.0>
25.9209

>  <SCORE.INTRA.POLAR>
0

>  <SCORE.INTRA.POLAR.0>
0

>  <SCORE.INTRA.REPUL>
0

>  <SCORE.INTRA.REPUL.0>
0

>  <SCORE.INTRA.SOLV>
-1.17412

>  <SCORE.INTRA.SOLV.lig_0>
-47.4815

>  <SCORE.INTRA.VDW>
0.237589

>  <SCORE.INTRA.VDW.0>
-1.57492

>  <SCORE.INTRA.norm>
-0.922254

>  <SCORE.RESTR>
0

>  <SCORE.RESTR.CAVITY>
0

>  <SCORE.RESTR.norm>
0

>  <SCORE.SYSTEM>
0

>  <SCORE.SYSTEM.CONST>
0

>  <SCORE.SYSTEM.DIHEDRAL>
0

>  <SCORE.SYSTEM.SOLV>
0

>  <SCORE.SYSTEM.norm>
0

>  <SCORE.heavy>
14

>  <SCORE.norm>
-0.885417

>  <RMSD>
6.785

$$$$
ligand
 OpenBabel11021811493D
libRbt.so/2013.1/901 2013/11/27
 14 13  0  0  0  0  0  0  0  0999 V2000
   49.2608    4.7287   -5.1942 N   0  0  0  0  0  0  0  0  0  0  0  0
   48.3737    4.1071   -4.2185 C   0  0  0  0  0  0  0  0  0  0  0  0
   48.8434    4.4054   -2.7787 C   0  0  0  0  0  0  0  0  0  0  0  0
   50.2455    3.8644   -2.4354 C   0  0  0  0  0  0  0  0  0  0  0  0
   50.4848    2.4203   -2.5775 N   0  0  0  0  0  0  0  0  0  0  0  0
   51.5693    1.7577   -1.8444 C   0  0  0  0  0  0  0  0  0  0  0  0
   51.4481    0.2346   -1.7403 C   0  0  0  0  0  0  0  0  0  0  0  0
   51.3757   -0.4533   -3.1141 C   0  0  0  0  0  0  0  0  0  0  0  0
   49.9825   -0.4070   -3.7619 C   0  0  0  0  0  0  0  0  0  0  0  0
   49.8919   -1.0647   -5.0675 N   0  0  0  0  0  0  0  0  0  0  0  0
   48.6676   -1.8044   -5.4202 C   0  0  0  0  0  0  0  0  0  0  0  0
   48.0613   -1.5298   -6.8168 C   0  0  0  0  0  0  0  0  0  0  0  0
   46.8297   -2.3781   -7.1930 C   0  0  0  0  0  0  0  0  0  0  0  0
   47.1354   -3.7990   -7.3318 N   0  0  0  0  0  0  0  0  0  0  0  0
  1  2  1  0  0  0  0
  2  3  1  0  0  0  0
  3  4  1  0  0  0  0
  4  5  1  0  0  0  0
  5  6  1  0  0  0  0
  6  7  1  0  0  0  0
  7  8  1  0  0  0  0
  8  9  1  0  0  0  0
  9 10  1  0  0  0  0
 10 11  1  0  0  0  0
 11 12  1  0  0  0  0
 12 13  1  0  0  0  0
 13 14  1  0  0  0  0
M  END
>  <CHROM.1>
-61.64125035,-57.85383826,-157.68221554,162.09017697,57.87906800,-80.14813475
-179.62987397,143.20017422,132.72542808,176.48958472,-65.81355671,49.44080051
0.72018837,-4.24927885,1.11094594,-0.81036591,0.22354147

>  <Name>
ligand

>  <RI>
0

>  <Rbt.Current_Directory>
/home/itssahil/PROJECTS/Mol_Feturizer/New_Systems/rnas/4E8Q

>  <Rbt.Executable>
rbdock ($Id: //depot/dev/client3/rdock/2013.1/src/exe/rbdock.cxx#4 $)

>  <Rbt.Library>
libRbt.so (2013.1, Build901 2013/11/27)

>  <Rbt.Parameter_File>
/export/apps/rDock/src/rDock_2013.1_src/data/scripts/dock_solv.prm

>  <Rbt.Receptor>
prm/pocket_docking_7.prm

>  <SCORE>
-11.6285

>  <SCORE.INTER>
-1.75079

>  <SCORE.INTER.CONST>
1

>  <SCORE.INTER.POLAR>
0

>  <SCORE.INTER.ROT>
11

>  <SCORE.INTER.SOLV>
8.95821

>  <SCORE.INTER.VDW>
-15.0866

>  <SCORE.INTER.norm>
-0.125057

>  <SCORE.INTRA>
-9.87767

>  <SCORE.INTRA.DIHEDRAL>
-21.6609

>  <SCORE.INTRA.DIHEDRAL.0>
25.9209

>  <SCORE.INTRA.POLAR>
0

>  <SCORE.INTRA.POLAR.0>
0

>  <SCORE.INTRA.REPUL>
0

>  <SCORE.INTRA.REPUL.0>
0

>  <SCORE.INTRA.SOLV>
1.15397

>  <SCORE.INTRA.SOLV.lig_0>
-47.4815

>  <SCORE.INTRA.VDW>
0.37577

>  <SCORE.INTRA.VDW.0>
-1.57492

>  <SCORE.INTRA.norm>
-0.705548

>  <SCORE.RESTR>
0

>  <SCORE.RESTR.CAVITY>
0

>  <SCORE.RESTR.norm>
0

>  <SCORE.SYSTEM>
0

>  <SCORE.SYSTEM.CONST>
0

>  <SCORE.SYSTEM.DIHEDRAL>
0

>  <SCORE.SYSTEM.SOLV>
0

>  <SCORE.SYSTEM.norm>
0

>  <SCORE.heavy>
14

>  <SCORE.norm>
-0.830605

>  <RMSD>
6.805

$$$$
ligand
 OpenBabel11021811493D
libRbt.so/2013.1/901 2013/11/27
 14 13  0  0  0  0  0  0  0  0999 V2000
   49.3159   -3.3253  -10.9293 N   0  0  0  0  0  0  0  0  0  0  0  0
   48.7284   -3.1767   -9.6035 C   0  0  0  0  0  0  0  0  0  0  0  0
   49.5686   -3.9188   -8.5424 C   0  0  0  0  0  0  0  0  0  0  0  0
   48.9898   -3.8683   -7.1144 C   0  0  0  0  0  0  0  0  0  0  0  0
   48.8582   -2.5548   -6.4662 N   0  0  0  0  0  0  0  0  0  0  0  0
   48.3213   -2.4330   -5.1063 C   0  0  0  0  0  0  0  0  0  0  0  0
   48.1250   -0.9972   -4.6108 C   0  0  0  0  0  0  0  0  0  0  0  0
   49.4513   -0.2346   -4.4516 C   0  0  0  0  0  0  0  0  0  0  0  0
   50.3665   -0.7982   -3.3528 C   0  0  0  0  0  0  0  0  0  0  0  0
   51.6016   -0.0411   -3.1364 N   0  0  0  0  0  0  0  0  0  0  0  0
   51.5444    1.2446   -2.4194 C   0  0  0  0  0  0  0  0  0  0  0  0
   52.5697    2.3254   -2.8366 C   0  0  0  0  0  0  0  0  0  0  0  0
   52.4819    3.6639   -2.0758 C   0  0  0  0  0  0  0  0  0  0  0  0
   51.2103    4.3526   -2.2761 N   0  0  0  0  0  0  0  0  0  0  0  0
  1  2  1  0  0  0  0
  2  3  1  0  0  0  0
  3  4  1  0  0  0  0
  4  5  1  0  0  0  0
  5  6  1  0  0  0  0
  6  7  1  0  0  0  0
  7  8  1  0  0  0  0
  8  9  1  0  0  0  0
  9 10  1  0  0  0  0
 10 11  1  0  0  0  0
 11 12  1  0  0  0  0
 12 13  1  0  0  0  0
 13 14  1  0  0  0  0
M  END
>  <CHROM.1>
-177.49297900,-62.40636623,-179.70950045,-174.71243935,-65.72656192,-65.74814384
-176.80450390,75.34967682,-147.87102405,179.65038798,-62.60317589,50.08085742
-0.69736737,-5.20848326,-2.09592798,0.91103083,1.23623115

>  <Name>
ligand

>  <RI>
0

>  <Rbt.Current_Directory>
/home/itssahil/PROJECTS/Mol_Feturizer/New_Systems/rnas/4E8Q

>  <Rbt.Executable>
rbdock ($Id: //depot/dev/client3/rdock/2013.1/src/exe/rbdock.cxx#4 $)

>  <Rbt.Library>
libRbt.so (2013.1, Build901 2013/11/27)

>  <Rbt.Parameter_File>
/export/apps/rDock/src/rDock_2013.1_src/data/scripts/dock_solv.prm

>  <Rbt.Receptor>
prm/pocket_docking_8.prm

>  <SCORE>
-12.961

>  <SCORE.INTER>
-1.14272

>  <SCORE.INTER.CONST>
1

>  <SCORE.INTER.POLAR>
0

>  <SCORE.INTER.ROT>
11

>  <SCORE.INTER.SOLV>
7.4539

>  <SCORE.INTER.VDW>
-14.1798

>  <SCORE.INTER.norm>
-0.0816228

>  <SCORE.INTRA>
-11.8183

>  <SCORE.INTRA.DIHEDRAL>
-24.6767

>  <SCORE.INTRA.DIHEDRAL.0>
25.9209

>  <SCORE.INTRA.POLAR>
0

>  <SCORE.INTRA.POLAR.0>
0

>  <SCORE.INTRA.REPUL>
0

>  <SCORE.INTRA.REPUL.0>
0

>  <SCORE.INTRA.SOLV>
-0.533865

>  <SCORE.INTRA.SOLV.lig_0>
-47.4815

>  <SCORE.INTRA.VDW>
0.786996

>  <SCORE.INTRA.VDW.0>
-1.57492

>  <SCORE.INTRA.norm>
-0.844165

>  <SCORE.RESTR>
0

>  <SCORE.RESTR.CAVITY>
0

>  <SCORE.RESTR.norm>
0

>  <SCORE.SYSTEM>
0

>  <SCORE.SYSTEM.CONST>
0

>  <SCORE.SYSTEM.DIHEDRAL>
0

>  <SCORE.SYSTEM.SOLV>
0

>  <SCORE.SYSTEM.norm>
0

>  <SCORE.heavy>
14

>  <SCORE.norm>
-0.925788

>  <RMSD>
6.823

$$$$
ligand
 OpenBabel11021811493D
libRbt.so/2013.1/901 2013/11/27
 14 13  0  0  0  0  0  0  0  0999 V2000
   54.4019    4.5046   -0.7638 N   0  0  0  0  0  0  0  0  0  0  0  0
   55.3172    4.7024   -1.8810 C   0  0  0  0  0  0  0  0  0  0  0  0
   56.7457    4.9991   -1.3769 C   0  0  0  0  0  0  0  0  0  0  0  0
   57.4557    3.8006   -0.7167 C   0  0  0  0  0  0  0  0  0  0  0  0
   56.8712    3.2392    0.5105 N   0  0  0  0  0  0  0  0  0  0  0  0
   56.5843    4.0913    1.6699 C   0  0  0  0  0  0  0  0  0  0  0  0
   57.1792    3.6074    2.9956 C   0  0  0  0  0  0  0  0  0  0  0  0
   58.7080    3.7648    3.0561 C   0  0  0  0  0  0  0  0  0  0  0  0
   59.3459    3.1744    4.3238 C   0  0  0  0  0  0  0  0  0  0  0  0
   59.2046    1.7230    4.4617 N   0  0  0  0  0  0  0  0  0  0  0  0
   59.7047    1.0610    5.6791 C   0  0  0  0  0  0  0  0  0  0  0  0
   61.1652    0.5514    5.6495 C   0  0  0  0  0  0  0  0  0  0  0  0
   61.6086   -0.2876    6.8650 C   0  0  0  0  0  0  0  0  0  0  0  0
   60.8224   -1.5058    7.0358 N   0  0  0  0  0  0  0  0  0  0  0  0
  1  2  1  0  0  0  0
  2  3  1  0  0  0  0
  3  4  1  0  0  0  0
  4  5  1  0  0  0  0
  5  6  1  0  0  0  0
  6  7  1  0  0  0  0
  7  8  1  0  0  0  0
  8  9  1  0  0  0  0
  9 10  1  0  0  0  0
 10 11  1  0  0  0  0
 11 12  1  0  0  0  0
 12 13  1  0  0  0  0
 13 14  1  0  0  0  0
M  END
>  <CHROM.1>
69.80054653,-62.92788075,-53.84562601,-127.25875212,71.23568684,-174.91228717
64.05857046,-176.23771427,-90.85524608,-172.77295195,60.63635229,58.22262857
2.67355186,2.67913583,2.81301457,1.01025944,-2.20589461

>  <Name>
ligand

>  <RI>
0

>  <Rbt.Current_Directory>
/home/itssahil/PROJECTS/Mol_Feturizer/New_Systems/rnas/4E8Q

>  <Rbt.Executable>
rbdock ($Id: //depot/dev/client3/rdock/2013.1/src/exe/rbdock.cxx#4 $)

>  <Rbt.Library>
libRbt.so (2013.1, Build901 2013/11/27)

>  <Rbt.Parameter_File>
/export/apps/rDock/src/rDock_2013.1_src/data/scripts/dock_solv.prm

>  <Rbt.Receptor>
prm/pocket_docking_6.prm

>  <SCORE>
-7.09989

>  <SCORE.INTER>
2.71022

>  <SCORE.INTER.CONST>
1

>  <SCORE.INTER.POLAR>
0

>  <SCORE.INTER.ROT>
11

>  <SCORE.INTER.SOLV>
5.41908

>  <SCORE.INTER.VDW>
-10.9329

>  <SCORE.INTER.norm>
0.193587

>  <SCORE.INTRA>
-9.81011

>  <SCORE.INTRA.DIHEDRAL>
-22.8757

>  <SCORE.INTRA.DIHEDRAL.0>
25.9209

>  <SCORE.INTRA.POLAR>
0

>  <SCORE.INTRA.POLAR.0>
0

>  <SCORE.INTRA.REPUL>
0

>  <SCORE.INTRA.REPUL.0>
0

>  <SCORE.INTRA.SOLV>
2.53562

>  <SCORE.INTRA.SOLV.lig_0>
-47.4815

>  <SCORE.INTRA.VDW>
0.359939

>  <SCORE.INTRA.VDW.0>
-1.57492

>  <SCORE.INTRA.norm>
-0.700722

>  <SCORE.RESTR>
0

>  <SCORE.RESTR.CAVITY>
0

>  <SCORE.RESTR.norm>
0

>  <SCORE.SYSTEM>
0

>  <SCORE.SYSTEM.CONST>
0

>  <SCORE.SYSTEM.DIHEDRAL>
0

>  <SCORE.SYSTEM.SOLV>
0

>  <SCORE.SYSTEM.norm>
0

>  <SCORE.heavy>
14

>  <SCORE.norm>
-0.507135

>  <RMSD>
6.875

$$$$
ligand
 OpenBabel11021811493D
libRbt.so/2013.1/901 2013/11/27
 14 13  0  0  0  0  0  0  0  0999 V2000
   52.6430    1.8958   -7.4423 N   0  0  0  0  0  0  0  0  0  0  0  0
   51.8920    0.6472   -7.3968 C   0  0  0  0  0  0  0  0  0  0  0  0
   51.8641   -0.0296   -8.7838 C   0  0  0  0  0  0  0  0  0  0  0  0
   50.9652   -1.2790   -8.8709 C   0  0  0  0  0  0  0  0  0  0  0  0
   49.5132   -1.0996   -8.7221 N   0  0  0  0  0  0  0  0  0  0  0  0
   48.9064   -0.9076   -7.4002 C   0  0  0  0  0  0  0  0  0  0  0  0
   49.0810   -2.0782   -6.4283 C   0  0  0  0  0  0  0  0  0  0  0  0
   48.3881   -1.8391   -5.0760 C   0  0  0  0  0  0  0  0  0  0  0  0
   49.0055   -0.6977   -4.2523 C   0  0  0  0  0  0  0  0  0  0  0  0
   50.4256   -0.8688   -3.9366 N   0  0  0  0  0  0  0  0  0  0  0  0
   50.9752   -0.2457   -2.7200 C   0  0  0  0  0  0  0  0  0  0  0  0
   51.6567    1.1332   -2.8860 C   0  0  0  0  0  0  0  0  0  0  0  0
   50.7508    2.2734   -3.3934 C   0  0  0  0  0  0  0  0  0  0  0  0
   51.4609    3.5390   -3.5536 N   0  0  0  0  0  0  0  0  0  0  0  0
  1  2  1  0  0  0  0
  2  3  1  0  0  0  0
  3  4  1  0  0  0  0
  4  5  1  0  0  0  0
  5  6  1  0  0  0  0
  6  7  1  0  0  0  0
  7  8  1  0  0  0  0
  8  9  1  0  0  0  0
  9 10  1  0  0  0  0
 10 11  1  0  0  0  0
 11 12  1  0  0  0  0
 12 13  1  0  0  0  0
 13 14  1  0  0  0  0
M  END
>  <CHROM.1>
-173.71461390,66.26186240,-77.88451636,-62.31287051,-178.20486953,-66.27464987
-58.40018661,-152.37815018,-95.75232173,62.12105129,-178.83325913,50.53751115
0.03132934,-5.77581576,-1.77630202,0.85342054,1.27689129

>  <Name>
ligand

>  <RI>
0

>  <Rbt.Current_Directory>
/home/itssahil/PROJECTS/Mol_Feturizer/New_Systems/rnas/4E8Q

>  <Rbt.Executable>
rbdock ($Id: //depot/dev/client3/rdock/2013.1/src/exe/rbdock.cxx#4 $)

>  <Rbt.Library>
libRbt.so (2013.1, Build901 2013/11/27)

>  <Rbt.Parameter_File>
/export/apps/rDock/src/rDock_2013.1_src/data/scripts/dock_solv.prm

>  <Rbt.Receptor>
prm/pocket_docking_7.prm

>  <SCORE>
-12.0546

>  <SCORE.INTER>
-0.232084

>  <SCORE.INTER.CONST>
1

>  <SCORE.INTER.POLAR>
0

>  <SCORE.INTER.ROT>
11

>  <SCORE.INTER.SOLV>
6.53153

>  <SCORE.INTER.VDW>
-13.2652

>  <SCORE.INTER.norm>
-0.0165774

>  <SCORE.INTRA>
-11.8225

>  <SCORE.INTRA.DIHEDRAL>
-23.8658

>  <SCORE.INTRA.DIHEDRAL.0>
25.9209

>  <SCORE.INTRA.POLAR>
0

>  <SCORE.INTRA.POLAR.0>
0

>  <SCORE.INTRA.REPUL>
0

>  <SCORE.INTRA.REPUL.0>
0

>  <SCORE.INTRA.SOLV>
-0.377691

>  <SCORE.INTRA.SOLV.lig_0>
-47.4815

>  <SCORE.INTRA.VDW>
0.299231

>  <SCORE.INTRA.VDW.0>
-1.57492

>  <SCORE.INTRA.norm>
-0.844466

>  <SCORE.RESTR>
0

>  <SCORE.RESTR.CAVITY>
0

>  <SCORE.RESTR.norm>
0

>  <SCORE.SYSTEM>
0

>  <SCORE.SYSTEM.CONST>
0

>  <SCORE.SYSTEM.DIHEDRAL>
0

>  <SCORE.SYSTEM.SOLV>
0

>  <SCORE.SYSTEM.norm>
0

>  <SCORE.heavy>
14

>  <SCORE.norm>
-0.861043

>  <RMSD>
6.904

$$$$
ligand
 OpenBabel11021811493D
libRbt.so/2013.1/901 2013/11/27
 14 13  0  0  0  0  0  0  0  0999 V2000
   47.9987    5.3372   -3.6386 N   0  0  0  0  0  0  0  0  0  0  0  0
   48.2655    4.6415   -2.3855 C   0  0  0  0  0  0  0  0  0  0  0  0
   49.7466    4.2160   -2.2963 C   0  0  0  0  0  0  0  0  0  0  0  0
   50.2014    3.2381   -3.3979 C   0  0  0  0  0  0  0  0  0  0  0  0
   51.5938    2.7655   -3.3730 N   0  0  0  0  0  0  0  0  0  0  0  0
   52.0374    1.7711   -2.3896 C   0  0  0  0  0  0  0  0  0  0  0  0
   51.1568    0.5225   -2.2848 C   0  0  0  0  0  0  0  0  0  0  0  0
   50.9412   -0.1709   -3.6407 C   0  0  0  0  0  0  0  0  0  0  0  0
   49.7483   -1.1400   -3.6627 C   0  0  0  0  0  0  0  0  0  0  0  0
   49.5304   -1.8142   -4.9446 N   0  0  0  0  0  0  0  0  0  0  0  0
   48.3045   -2.6064   -5.1449 C   0  0  0  0  0  0  0  0  0  0  0  0
   48.4629   -3.9768   -5.8452 C   0  0  0  0  0  0  0  0  0  0  0  0
   48.9814   -3.9333   -7.2968 C   0  0  0  0  0  0  0  0  0  0  0  0
   48.0396   -3.3094   -8.2216 N   0  0  0  0  0  0  0  0  0  0  0  0
  1  2  1  0  0  0  0
  2  3  1  0  0  0  0
  3  4  1  0  0  0  0
  4  5  1  0  0  0  0
  5  6  1  0  0  0  0
  6  7  1  0  0  0  0
  7  8  1  0  0  0  0
  8  9  1  0  0  0  0
  9 10  1  0  0  0  0
 10 11  1  0  0  0  0
 11 12  1  0  0  0  0
 12 13  1  0  0  0  0
 13 14  1  0  0  0  0
M  END
>  <CHROM.1>
-61.42959762,-179.02861910,74.45215625,49.86453665,53.85020694,-162.15617971
-179.76866795,-170.88995864,-136.82422131,-63.01554830,-66.65029250,49.64360587
0.39562673,-4.17981055,1.40668368,-0.60306859,0.38034265

>  <Name>
ligand

>  <RI>
0

>  <Rbt.Current_Directory>
/home/itssahil/PROJECTS/Mol_Feturizer/New_Systems/rnas/4E8Q

>  <Rbt.Executable>
rbdock ($Id: //depot/dev/client3/rdock/2013.1/src/exe/rbdock.cxx#4 $)

>  <Rbt.Library>
libRbt.so (2013.1, Build901 2013/11/27)

>  <Rbt.Parameter_File>
/export/apps/rDock/src/rDock_2013.1_src/data/scripts/dock_solv.prm

>  <Rbt.Receptor>
prm/pocket_docking_7.prm

>  <SCORE>
-11.7128

>  <SCORE.INTER>
-1.39334

>  <SCORE.INTER.CONST>
1

>  <SCORE.INTER.POLAR>
0

>  <SCORE.INTER.ROT>
11

>  <SCORE.INTER.SOLV>
7.34019

>  <SCORE.INTER.VDW>
-14.309

>  <SCORE.INTER.norm>
-0.0995245

>  <SCORE.INTRA>
-10.3194

>  <SCORE.INTRA.DIHEDRAL>
-23.0313

>  <SCORE.INTRA.DIHEDRAL.0>
25.9209

>  <SCORE.INTRA.POLAR>
0

>  <SCORE.INTRA.POLAR.0>
0

>  <SCORE.INTRA.REPUL>
0

>  <SCORE.INTRA.REPUL.0>
0

>  <SCORE.INTRA.SOLV>
0.47832

>  <SCORE.INTRA.SOLV.lig_0>
-47.4815

>  <SCORE.INTRA.VDW>
0.957055

>  <SCORE.INTRA.VDW.0>
-1.57492

>  <SCORE.INTRA.norm>
-0.737102

>  <SCORE.RESTR>
0

>  <SCORE.RESTR.CAVITY>
0

>  <SCORE.RESTR.norm>
0

>  <SCORE.SYSTEM>
0

>  <SCORE.SYSTEM.CONST>
0

>  <SCORE.SYSTEM.DIHEDRAL>
0

>  <SCORE.SYSTEM.SOLV>
0

>  <SCORE.SYSTEM.norm>
0

>  <SCORE.heavy>
14

>  <SCORE.norm>
-0.836626

>  <RMSD>
6.932

$$$$
ligand
 OpenBabel11021811493D
libRbt.so/2013.1/901 2013/11/27
 14 13  0  0  0  0  0  0  0  0999 V2000
   47.9458    0.1356   -9.4838 N   0  0  0  0  0  0  0  0  0  0  0  0
   47.8745   -1.2936   -9.2054 C   0  0  0  0  0  0  0  0  0  0  0  0
   46.7382   -1.6044   -8.2080 C   0  0  0  0  0  0  0  0  0  0  0  0
   46.6120   -3.0914   -7.8211 C   0  0  0  0  0  0  0  0  0  0  0  0
   47.7872   -3.7584   -7.2407 N   0  0  0  0  0  0  0  0  0  0  0  0
   48.2412   -3.4433   -5.8816 C   0  0  0  0  0  0  0  0  0  0  0  0
   48.8627   -2.0542   -5.7093 C   0  0  0  0  0  0  0  0  0  0  0  0
   49.1741   -1.7181   -4.2410 C   0  0  0  0  0  0  0  0  0  0  0  0
   49.5378   -0.2438   -4.0025 C   0  0  0  0  0  0  0  0  0  0  0  0
   50.8887    0.1303   -4.4275 N   0  0  0  0  0  0  0  0  0  0  0  0
   51.4106    1.4643   -4.0836 C   0  0  0  0  0  0  0  0  0  0  0  0
   52.1615    1.5969   -2.7374 C   0  0  0  0  0  0  0  0  0  0  0  0
   51.3633    1.1952   -1.4807 C   0  0  0  0  0  0  0  0  0  0  0  0
   52.1063    1.4031   -0.2412 N   0  0  0  0  0  0  0  0  0  0  0  0
  1  2  1  0  0  0  0
  2  3  1  0  0  0  0
  3  4  1  0  0  0  0
  4  5  1  0  0  0  0
  5  6  1  0  0  0  0
  6  7  1  0  0  0  0
  7  8  1  0  0  0  0
  8  9  1  0  0  0  0
  9 10  1  0  0  0  0
 10 11  1  0  0  0  0
 11 12  1  0  0  0  0
 12 13  1  0  0  0  0
 13 14  1  0  0  0  0
M  END
>  <CHROM.1>
-178.32495080,56.87419085,71.26169063,-70.29931943,173.52770726,-168.68290158
-75.76805772,-171.77432940,89.63784928,-57.92857368,-177.28354102,49.33587337
-0.80595243,-5.34027282,-2.81867481,0.99278079,2.25364537

>  <Name>
ligand

>  <RI>
0

>  <Rbt.Current_Directory>
/home/itssahil/PROJECTS/Mol_Feturizer/New_Systems/rnas/4E8Q

>  <Rbt.Executable>
rbdock ($Id: //depot/dev/client3/rdock/2013.1/src/exe/rbdock.cxx#4 $)

>  <Rbt.Library>
libRbt.so (2013.1, Build901 2013/11/27)

>  <Rbt.Parameter_File>
/export/apps/rDock/src/rDock_2013.1_src/data/scripts/dock_solv.prm

>  <Rbt.Receptor>
prm/pocket_docking_8.prm

>  <SCORE>
-12.3493

>  <SCORE.INTER>
-0.518595

>  <SCORE.INTER.CONST>
1

>  <SCORE.INTER.POLAR>
0

>  <SCORE.INTER.ROT>
11

>  <SCORE.INTER.SOLV>
11.039

>  <SCORE.INTER.VDW>
-14.9587

>  <SCORE.INTER.norm>
-0.0370425

>  <SCORE.INTRA>
-11.8307

>  <SCORE.INTRA.DIHEDRAL>
-23.4323

>  <SCORE.INTRA.DIHEDRAL.0>
25.9209

>  <SCORE.INTRA.POLAR>
0

>  <SCORE.INTRA.POLAR.0>
0

>  <SCORE.INTRA.REPUL>
0

>  <SCORE.INTRA.REPUL.0>
0

>  <SCORE.INTRA.SOLV>
-1.04116

>  <SCORE.INTRA.SOLV.lig_0>
-47.4815

>  <SCORE.INTRA.VDW>
0.406023

>  <SCORE.INTRA.VDW.0>
-1.57492

>  <SCORE.INTRA.norm>
-0.845052

>  <SCORE.RESTR>
0

>  <SCORE.RESTR.CAVITY>
0

>  <SCORE.RESTR.norm>
0

>  <SCORE.SYSTEM>
0

>  <SCORE.SYSTEM.CONST>
0

>  <SCORE.SYSTEM.DIHEDRAL>
0

>  <SCORE.SYSTEM.SOLV>
0

>  <SCORE.SYSTEM.norm>
0

>  <SCORE.heavy>
14

>  <SCORE.norm>
-0.882095

>  <RMSD>
7.064

$$$$
ligand
 OpenBabel11021811493D
libRbt.so/2013.1/901 2013/11/27
 14 13  0  0  0  0  0  0  0  0999 V2000
   51.5948    1.5251   -0.0206 N   0  0  0  0  0  0  0  0  0  0  0  0
   51.2936    0.3920   -0.8871 C   0  0  0  0  0  0  0  0  0  0  0  0
   51.6423    0.7139   -2.3559 C   0  0  0  0  0  0  0  0  0  0  0  0
   51.3586   -0.4307   -3.3490 C   0  0  0  0  0  0  0  0  0  0  0  0
   49.9605   -0.8359   -3.5581 N   0  0  0  0  0  0  0  0  0  0  0  0
   49.0620   -0.0435   -4.4051 C   0  0  0  0  0  0  0  0  0  0  0  0
   47.8558   -0.8041   -4.9637 C   0  0  0  0  0  0  0  0  0  0  0  0
   48.2595   -1.9811   -5.8678 C   0  0  0  0  0  0  0  0  0  0  0  0
   47.1296   -2.4810   -6.7821 C   0  0  0  0  0  0  0  0  0  0  0  0
   46.7877   -1.5776   -7.8832 N   0  0  0  0  0  0  0  0  0  0  0  0
   47.6436   -1.5435   -9.0818 C   0  0  0  0  0  0  0  0  0  0  0  0
   48.4274   -0.2360   -9.3456 C   0  0  0  0  0  0  0  0  0  0  0  0
   47.5716    1.0116   -9.6444 C   0  0  0  0  0  0  0  0  0  0  0  0
   48.3720    2.2038   -9.9078 N   0  0  0  0  0  0  0  0  0  0  0  0
  1  2  1  0  0  0  0
  2  3  1  0  0  0  0
  3  4  1  0  0  0  0
  4  5  1  0  0  0  0
  5  6  1  0  0  0  0
  6  7  1  0  0  0  0
  7  8  1  0  0  0  0
  8  9  1  0  0  0  0
  9 10  1  0  0  0  0
 10 11  1  0  0  0  0
 11 12  1  0  0  0  0
 12 13  1  0  0  0  0
 13 14  1  0  0  0  0
M  END
>  <CHROM.1>
179.90485713,65.44987059,77.83722264,157.85717327,-61.41170025,-161.75525244
71.67915854,78.65868712,-113.44356981,-64.68635100,-178.94173757,49.06845797
-0.29217954,-5.57524410,-0.73118600,-0.94878069,-0.94481465

>  <Name>
ligand

>  <RI>
0

>  <Rbt.Current_Directory>
/home/itssahil/PROJECTS/Mol_Feturizer/New_Systems/rnas/4E8Q

>  <Rbt.Executable>
rbdock ($Id: //depot/dev/client3/rdock/2013.1/src/exe/rbdock.cxx#4 $)

>  <Rbt.Library>
libRbt.so (2013.1, Build901 2013/11/27)

>  <Rbt.Parameter_File>
/export/apps/rDock/src/rDock_2013.1_src/data/scripts/dock_solv.prm

>  <Rbt.Receptor>
prm/pocket_docking_7.prm

>  <SCORE>
-15.0842

>  <SCORE.INTER>
-3.81679

>  <SCORE.INTER.CONST>
1

>  <SCORE.INTER.POLAR>
0

>  <SCORE.INTER.ROT>
11

>  <SCORE.INTER.SOLV>
13.0515

>  <SCORE.INTER.VDW>
-17.8284

>  <SCORE.INTER.norm>
-0.272628

>  <SCORE.INTRA>
-11.2674

>  <SCORE.INTRA.DIHEDRAL>
-21.8889

>  <SCORE.INTRA.DIHEDRAL.0>
25.9209

>  <SCORE.INTRA.POLAR>
0

>  <SCORE.INTRA.POLAR.0>
0

>  <SCORE.INTRA.REPUL>
0

>  <SCORE.INTRA.REPUL.0>
0

>  <SCORE.INTRA.SOLV>
-0.881442

>  <SCORE.INTRA.SOLV.lig_0>
-47.4815

>  <SCORE.INTRA.VDW>
0.117771

>  <SCORE.INTRA.VDW.0>
-1.57492

>  <SCORE.INTRA.norm>
-0.804813

>  <SCORE.RESTR>
0

>  <SCORE.RESTR.CAVITY>
0

>  <SCORE.RESTR.norm>
0

>  <SCORE.SYSTEM>
0

>  <SCORE.SYSTEM.CONST>
0

>  <SCORE.SYSTEM.DIHEDRAL>
0

>  <SCORE.SYSTEM.SOLV>
0

>  <SCORE.SYSTEM.norm>
0

>  <SCORE.heavy>
14

>  <SCORE.norm>
-1.07744

>  <RMSD>
7.093

$$$$
ligand
 OpenBabel11021811493D
libRbt.so/2013.1/901 2013/11/27
 14 13  0  0  0  0  0  0  0  0999 V2000
   48.7598    5.5635   -3.6229 N   0  0  0  0  0  0  0  0  0  0  0  0
   48.1653    4.2398   -3.4828 C   0  0  0  0  0  0  0  0  0  0  0  0
   49.1564    3.1415   -3.9233 C   0  0  0  0  0  0  0  0  0  0  0  0
   50.4411    3.0578   -3.0752 C   0  0  0  0  0  0  0  0  0  0  0  0
   51.3834    1.9631   -3.3514 N   0  0  0  0  0  0  0  0  0  0  0  0
   51.3328    0.7111   -2.5882 C   0  0  0  0  0  0  0  0  0  0  0  0
   50.9246   -0.5256   -3.3941 C   0  0  0  0  0  0  0  0  0  0  0  0
   49.5229   -0.3975   -4.0143 C   0  0  0  0  0  0  0  0  0  0  0  0
   49.0740   -1.6385   -4.8023 C   0  0  0  0  0  0  0  0  0  0  0  0
   47.8052   -1.4840   -5.5176 N   0  0  0  0  0  0  0  0  0  0  0  0
   47.5023   -2.3743   -6.6517 C   0  0  0  0  0  0  0  0  0  0  0  0
   48.4436   -2.2929   -7.8768 C   0  0  0  0  0  0  0  0  0  0  0  0
   48.5468   -0.9113   -8.5540 C   0  0  0  0  0  0  0  0  0  0  0  0
   49.5483   -0.8686   -9.6154 N   0  0  0  0  0  0  0  0  0  0  0  0
  1  2  1  0  0  0  0
  2  3  1  0  0  0  0
  3  4  1  0  0  0  0
  4  5  1  0  0  0  0
  5  6  1  0  0  0  0
  6  7  1  0  0  0  0
  7  8  1  0  0  0  0
  8  9  1  0  0  0  0
  9 10  1  0  0  0  0
 10 11  1  0  0  0  0
 11 12  1  0  0  0  0
 12 13  1  0  0  0  0
 13 14  1  0  0  0  0
M  END
>  <CHROM.1>
62.94352455,174.67343753,-94.61980672,113.57387482,-60.26016569,-178.66454628
-173.83865421,158.69272300,-62.68119595,-58.92101589,174.22250747,49.32901796
0.58428406,-5.03336258,1.20563417,-1.05816777,0.37636276

>  <Name>
ligand

>  <RI>
0

>  <Rbt.Current_Directory>
/home/itssahil/PROJECTS/Mol_Feturizer/New_Systems/rnas/4E8Q

>  <Rbt.Executable>
rbdock ($Id: //depot/dev/client3/rdock/2013.1/src/exe/rbdock.cxx#4 $)

>  <Rbt.Library>
libRbt.so (2013.1, Build901 2013/11/27)

>  <Rbt.Parameter_File>
/export/apps/rDock/src/rDock_2013.1_src/data/scripts/dock_solv.prm

>  <Rbt.Receptor>
prm/pocket_docking_5.prm

>  <SCORE>
-12.6472

>  <SCORE.INTER>
-0.894389

>  <SCORE.INTER.CONST>
1

>  <SCORE.INTER.POLAR>
0

>  <SCORE.INTER.ROT>
11

>  <SCORE.INTER.SOLV>
6.06266

>  <SCORE.INTER.VDW>
-13.5505

>  <SCORE.INTER.norm>
-0.0638849

>  <SCORE.INTRA>
-11.7528

>  <SCORE.INTRA.DIHEDRAL>
-23.2495

>  <SCORE.INTRA.DIHEDRAL.0>
25.9209

>  <SCORE.INTRA.POLAR>
0

>  <SCORE.INTRA.POLAR.0>
0

>  <SCORE.INTRA.REPUL>
0

>  <SCORE.INTRA.REPUL.0>
0

>  <SCORE.INTRA.SOLV>
-0.756712

>  <SCORE.INTRA.SOLV.lig_0>
-47.4815

>  <SCORE.INTRA.VDW>
0.250244

>  <SCORE.INTRA.VDW.0>
-1.57492

>  <SCORE.INTRA.norm>
-0.839489

>  <SCORE.RESTR>
0

>  <SCORE.RESTR.CAVITY>
0

>  <SCORE.RESTR.norm>
0

>  <SCORE.SYSTEM>
0

>  <SCORE.SYSTEM.CONST>
0

>  <SCORE.SYSTEM.DIHEDRAL>
0

>  <SCORE.SYSTEM.SOLV>
0

>  <SCORE.SYSTEM.norm>
0

>  <SCORE.heavy>
14

>  <SCORE.norm>
-0.903374

>  <RMSD>
7.159

$$$$
ligand
 OpenBabel11021811493D
libRbt.so/2013.1/901 2013/11/27
 14 13  0  0  0  0  0  0  0  0999 V2000
   46.7039   -6.0293   -7.4291 N   0  0  0  0  0  0  0  0  0  0  0  0
   47.5862   -4.8698   -7.3810 C   0  0  0  0  0  0  0  0  0  0  0  0
   48.0435   -4.5853   -5.9344 C   0  0  0  0  0  0  0  0  0  0  0  0
   48.9962   -3.3823   -5.7868 C   0  0  0  0  0  0  0  0  0  0  0  0
   48.4950   -2.0515   -6.1619 N   0  0  0  0  0  0  0  0  0  0  0  0
   47.8649   -1.1734   -5.1697 C   0  0  0  0  0  0  0  0  0  0  0  0
   48.8315   -0.2870   -4.3788 C   0  0  0  0  0  0  0  0  0  0  0  0
   49.8665   -1.0976   -3.5803 C   0  0  0  0  0  0  0  0  0  0  0  0
   50.8171   -0.2345   -2.7353 C   0  0  0  0  0  0  0  0  0  0  0  0
   51.6205    0.7212   -3.5011 N   0  0  0  0  0  0  0  0  0  0  0  0
   52.0933    1.9542   -2.8478 C   0  0  0  0  0  0  0  0  0  0  0  0
   51.4497    3.2828   -3.3104 C   0  0  0  0  0  0  0  0  0  0  0  0
   49.9232    3.3916   -3.1206 C   0  0  0  0  0  0  0  0  0  0  0  0
   49.3703    4.6390   -3.6400 N   0  0  0  0  0  0  0  0  0  0  0  0
  1  2  1  0  0  0  0
  2  3  1  0  0  0  0
  3  4  1  0  0  0  0
  4  5  1  0  0  0  0
  5  6  1  0  0  0  0
  6  7  1  0  0  0  0
  7  8  1  0  0  0  0
  8  9  1  0  0  0  0
  9 10  1  0  0  0  0
 10 11  1  0  0  0  0
 11 12  1  0  0  0  0
 12 13  1  0  0  0  0
 13 14  1  0  0  0  0
M  END
>  <CHROM.1>
179.32287560,62.56378701,91.78712806,86.90166424,-59.94481993,-177.84417233
-59.94930634,153.27721781,-110.05992321,60.00785777,-176.99968189,49.40454718
-0.69443107,-4.64102113,2.00582226,0.56880004,-2.94567770

>  <Name>
ligand

>  <RI>
0

>  <Rbt.Current_Directory>
/home/itssahil/PROJECTS/Mol_Feturizer/New_Systems/rnas/4E8Q

>  <Rbt.Executable>
rbdock ($Id: //depot/dev/client3/rdock/2013.1/src/exe/rbdock.cxx#4 $)

>  <Rbt.Library>
libRbt.so (2013.1, Build901 2013/11/27)

>  <Rbt.Parameter_File>
/export/apps/rDock/src/rDock_2013.1_src/data/scripts/dock_solv.prm

>  <Rbt.Receptor>
prm/pocket_docking_8.prm

>  <SCORE>
-13.8809

>  <SCORE.INTER>
-2.05177

>  <SCORE.INTER.CONST>
1

>  <SCORE.INTER.POLAR>
0

>  <SCORE.INTER.ROT>
11

>  <SCORE.INTER.SOLV>
8.43935

>  <SCORE.INTER.VDW>
-15.1143

>  <SCORE.INTER.norm>
-0.146555

>  <SCORE.INTRA>
-11.8292

>  <SCORE.INTRA.DIHEDRAL>
-23.0636

>  <SCORE.INTRA.DIHEDRAL.0>
25.9209

>  <SCORE.INTRA.POLAR>
0

>  <SCORE.INTRA.POLAR.0>
0

>  <SCORE.INTRA.REPUL>
0

>  <SCORE.INTRA.REPUL.0>
0

>  <SCORE.INTRA.SOLV>
-0.791187

>  <SCORE.INTRA.SOLV.lig_0>
-47.4815

>  <SCORE.INTRA.VDW>
0.0982178

>  <SCORE.INTRA.VDW.0>
-1.57492

>  <SCORE.INTRA.norm>
-0.844941

>  <SCORE.RESTR>
0

>  <SCORE.RESTR.CAVITY>
0

>  <SCORE.RESTR.norm>
0

>  <SCORE.SYSTEM>
0

>  <SCORE.SYSTEM.CONST>
0

>  <SCORE.SYSTEM.DIHEDRAL>
0

>  <SCORE.SYSTEM.SOLV>
0

>  <SCORE.SYSTEM.norm>
0

>  <SCORE.heavy>
14

>  <SCORE.norm>
-0.991496

>  <RMSD>
7.168

$$$$
ligand
 OpenBabel11021811493D
libRbt.so/2013.1/901 2013/11/27
 14 13  0  0  0  0  0  0  0  0999 V2000
   50.2857    3.1314   -3.0589 N   0  0  0  0  0  0  0  0  0  0  0  0
   51.3686    2.3827   -3.6850 C   0  0  0  0  0  0  0  0  0  0  0  0
   52.1348    1.5443   -2.6397 C   0  0  0  0  0  0  0  0  0  0  0  0
   51.3266    0.3805   -2.0322 C   0  0  0  0  0  0  0  0  0  0  0  0
   50.8626   -0.6852   -2.9331 N   0  0  0  0  0  0  0  0  0  0  0  0
   49.7255   -0.4711   -3.8353 C   0  0  0  0  0  0  0  0  0  0  0  0
   49.2349   -1.7214   -4.5712 C   0  0  0  0  0  0  0  0  0  0  0  0
   48.0656   -1.4304   -5.5272 C   0  0  0  0  0  0  0  0  0  0  0  0
   47.6294   -2.6426   -6.3656 C   0  0  0  0  0  0  0  0  0  0  0  0
   46.6401   -2.3450   -7.4040 N   0  0  0  0  0  0  0  0  0  0  0  0
   47.0990   -1.9815   -8.7559 C   0  0  0  0  0  0  0  0  0  0  0  0
   47.9400   -0.6895   -8.8862 C   0  0  0  0  0  0  0  0  0  0  0  0
   48.3840   -0.3183  -10.3156 C   0  0  0  0  0  0  0  0  0  0  0  0
   49.2063    0.8871  -10.3635 N   0  0  0  0  0  0  0  0  0  0  0  0
  1  2  1  0  0  0  0
  2  3  1  0  0  0  0
  3  4  1  0  0  0  0
  4  5  1  0  0  0  0
  5  6  1  0  0  0  0
  6  7  1  0  0  0  0
  7  8  1  0  0  0  0
  8  9  1  0  0  0  0
  9 10  1  0  0  0  0
 10 11  1  0  0  0  0
 11 12  1  0  0  0  0
 12 13  1  0  0  0  0
 13 14  1  0  0  0  0
M  END
>  <CHROM.1>
67.88867350,62.19033315,-75.52306944,-171.95584165,-178.58881883,175.18620656
-172.33546769,90.90666506,-62.42579669,-178.86542277,-178.27222584,49.27881076
-0.28299915,-5.74088062,-0.64364818,-0.96269370,-1.10831173

>  <Name>
ligand

>  <RI>
0

>  <Rbt.Current_Directory>
/home/itssahil/PROJECTS/Mol_Feturizer/New_Systems/rnas/4E8Q

>  <Rbt.Executable>
rbdock ($Id: //depot/dev/client3/rdock/2013.1/src/exe/rbdock.cxx#4 $)

>  <Rbt.Library>
libRbt.so (2013.1, Build901 2013/11/27)

>  <Rbt.Parameter_File>
/export/apps/rDock/src/rDock_2013.1_src/data/scripts/dock_solv.prm

>  <Rbt.Receptor>
prm/pocket_docking_6.prm

>  <SCORE>
-12.4116

>  <SCORE.INTER>
-0.947336

>  <SCORE.INTER.CONST>
1

>  <SCORE.INTER.POLAR>
0

>  <SCORE.INTER.ROT>
11

>  <SCORE.INTER.SOLV>
9.5334

>  <SCORE.INTER.VDW>
-14.7427

>  <SCORE.INTER.norm>
-0.0676668

>  <SCORE.INTRA>
-11.4643

>  <SCORE.INTRA.DIHEDRAL>
-24.4577

>  <SCORE.INTRA.DIHEDRAL.0>
25.9209

>  <SCORE.INTRA.POLAR>
0

>  <SCORE.INTRA.POLAR.0>
0

>  <SCORE.INTRA.REPUL>
0

>  <SCORE.INTRA.REPUL.0>
0

>  <SCORE.INTRA.SOLV>
0.107602

>  <SCORE.INTRA.SOLV.lig_0>
-47.4815

>  <SCORE.INTRA.VDW>
0.710821

>  <SCORE.INTRA.VDW.0>
-1.57492

>  <SCORE.INTRA.norm>
-0.818875

>  <SCORE.RESTR>
0

>  <SCORE.RESTR.CAVITY>
0

>  <SCORE.RESTR.norm>
0

>  <SCORE.SYSTEM>
0

>  <SCORE.SYSTEM.CONST>
0

>  <SCORE.SYSTEM.DIHEDRAL>
0

>  <SCORE.SYSTEM.SOLV>
0

>  <SCORE.SYSTEM.norm>
0

>  <SCORE.heavy>
14

>  <SCORE.norm>
-0.886542

>  <RMSD>
7.221

$$$$
ligand
 OpenBabel11021811493D
libRbt.so/2013.1/901 2013/11/27
 14 13  0  0  0  0  0  0  0  0999 V2000
   47.3886   -5.6849   -7.8749 N   0  0  0  0  0  0  0  0  0  0  0  0
   47.7355   -4.2729   -7.7705 C   0  0  0  0  0  0  0  0  0  0  0  0
   46.5518   -3.4547   -7.2120 C   0  0  0  0  0  0  0  0  0  0  0  0
   46.8148   -1.9399   -7.0984 C   0  0  0  0  0  0  0  0  0  0  0  0
   48.0084   -1.4973   -6.3620 N   0  0  0  0  0  0  0  0  0  0  0  0
   48.0732   -1.5929   -4.8994 C   0  0  0  0  0  0  0  0  0  0  0  0
   49.4425   -1.2831   -4.2875 C   0  0  0  0  0  0  0  0  0  0  0  0
   49.9039    0.1591   -4.5575 C   0  0  0  0  0  0  0  0  0  0  0  0
   51.3299    0.4594   -4.0686 C   0  0  0  0  0  0  0  0  0  0  0  0
   51.7876    1.8282   -4.3183 N   0  0  0  0  0  0  0  0  0  0  0  0
   51.8763    2.3185   -5.7047 C   0  0  0  0  0  0  0  0  0  0  0  0
   53.2837    2.3550   -6.3459 C   0  0  0  0  0  0  0  0  0  0  0  0
   54.3130    3.2724   -5.6552 C   0  0  0  0  0  0  0  0  0  0  0  0
   53.9264    4.6802   -5.6733 N   0  0  0  0  0  0  0  0  0  0  0  0
  1  2  1  0  0  0  0
  2  3  1  0  0  0  0
  3  4  1  0  0  0  0
  4  5  1  0  0  0  0
  5  6  1  0  0  0  0
  6  7  1  0  0  0  0
  7  8  1  0  0  0  0
  8  9  1  0  0  0  0
  9 10  1  0  0  0  0
 10 11  1  0  0  0  0
 11 12  1  0  0  0  0
 12 13  1  0  0  0  0
 13 14  1  0  0  0  0
M  END
>  <CHROM.1>
-178.56455970,-53.41471394,-72.61175296,171.71261907,62.33622251,-174.61612865
179.93866120,-61.02770015,-101.50837594,-61.70073816,-62.42565402,50.03101883
-0.33242146,-5.84476203,-2.65319319,0.74145802,1.15112806

>  <Name>
ligand

>  <RI>
0

>  <Rbt.Current_Directory>
/home/itssahil/PROJECTS/Mol_Feturizer/New_Systems/rnas/4E8Q

>  <Rbt.Executable>
rbdock ($Id: //depot/dev/client3/rdock/2013.1/src/exe/rbdock.cxx#4 $)

>  <Rbt.Library>
libRbt.so (2013.1, Build901 2013/11/27)

>  <Rbt.Parameter_File>
/export/apps/rDock/src/rDock_2013.1_src/data/scripts/dock_solv.prm

>  <Rbt.Receptor>
prm/pocket_docking_8.prm

>  <SCORE>
-12.8828

>  <SCORE.INTER>
-1.44538

>  <SCORE.INTER.CONST>
1

>  <SCORE.INTER.POLAR>
0

>  <SCORE.INTER.ROT>
11

>  <SCORE.INTER.SOLV>
6.34639

>  <SCORE.INTER.VDW>
-14.0124

>  <SCORE.INTER.norm>
-0.103242

>  <SCORE.INTRA>
-11.4374

>  <SCORE.INTRA.DIHEDRAL>
-24.4534

>  <SCORE.INTRA.DIHEDRAL.0>
25.9209

>  <SCORE.INTRA.POLAR>
0

>  <SCORE.INTRA.POLAR.0>
0

>  <SCORE.INTRA.REPUL>
0

>  <SCORE.INTRA.REPUL.0>
0

>  <SCORE.INTRA.SOLV>
0.135617

>  <SCORE.INTRA.SOLV.lig_0>
-47.4815

>  <SCORE.INTRA.VDW>
0.72148

>  <SCORE.INTRA.VDW.0>
-1.57492

>  <SCORE.INTRA.norm>
-0.816958

>  <SCORE.RESTR>
0

>  <SCORE.RESTR.CAVITY>
0

>  <SCORE.RESTR.norm>
0

>  <SCORE.SYSTEM>
0

>  <SCORE.SYSTEM.CONST>
0

>  <SCORE.SYSTEM.DIHEDRAL>
0

>  <SCORE.SYSTEM.SOLV>
0

>  <SCORE.SYSTEM.norm>
0

>  <SCORE.heavy>
14

>  <SCORE.norm>
-0.9202

>  <RMSD>
7.227

$$$$
ligand
 OpenBabel11021811493D
libRbt.so/2013.1/901 2013/11/27
 14 13  0  0  0  0  0  0  0  0999 V2000
   52.0592    3.3541   -1.4822 N   0  0  0  0  0  0  0  0  0  0  0  0
   51.9766    1.9003   -1.4121 C   0  0  0  0  0  0  0  0  0  0  0  0
   51.3175    1.3241   -2.6833 C   0  0  0  0  0  0  0  0  0  0  0  0
   51.1837   -0.2116   -2.6978 C   0  0  0  0  0  0  0  0  0  0  0  0
   50.4685   -0.8342   -3.8219 N   0  0  0  0  0  0  0  0  0  0  0  0
   49.0047   -0.7837   -3.9080 C   0  0  0  0  0  0  0  0  0  0  0  0
   48.4050   -1.4186   -5.1660 C   0  0  0  0  0  0  0  0  0  0  0  0
   48.6576   -2.9337   -5.2478 C   0  0  0  0  0  0  0  0  0  0  0  0
   48.2467   -3.5628   -6.5887 C   0  0  0  0  0  0  0  0  0  0  0  0
   46.8219   -3.4473   -6.9084 N   0  0  0  0  0  0  0  0  0  0  0  0
   46.2800   -2.1446   -7.3323 C   0  0  0  0  0  0  0  0  0  0  0  0
   46.8497   -1.5404   -8.6376 C   0  0  0  0  0  0  0  0  0  0  0  0
   48.3311   -1.1147   -8.5901 C   0  0  0  0  0  0  0  0  0  0  0  0
   48.8247   -0.6197   -9.8718 N   0  0  0  0  0  0  0  0  0  0  0  0
  1  2  1  0  0  0  0
  2  3  1  0  0  0  0
  3  4  1  0  0  0  0
  4  5  1  0  0  0  0
  5  6  1  0  0  0  0
  6  7  1  0  0  0  0
  7  8  1  0  0  0  0
  8  9  1  0  0  0  0
  9 10  1  0  0  0  0
 10 11  1  0  0  0  0
 11 12  1  0  0  0  0
 12 13  1  0  0  0  0
 13 14  1  0  0  0  0
M  END
>  <CHROM.1>
-179.85953500,175.11535598,-75.44439220,177.31799819,64.50129579,-171.69578567
-61.56271749,74.04929324,61.96956438,-66.87025580,176.93411019,49.17320080
-0.85967411,-5.31048142,-0.40297967,-0.98782038,-1.04378790

>  <Name>
ligand

>  <RI>
0

>  <Rbt.Current_Directory>
/home/itssahil/PROJECTS/Mol_Feturizer/New_Systems/rnas/4E8Q

>  <Rbt.Executable>
rbdock ($Id: //depot/dev/client3/rdock/2013.1/src/exe/rbdock.cxx#4 $)

>  <Rbt.Library>
libRbt.so (2013.1, Build901 2013/11/27)

>  <Rbt.Parameter_File>
/export/apps/rDock/src/rDock_2013.1_src/data/scripts/dock_solv.prm

>  <Rbt.Receptor>
prm/pocket_docking_8.prm

>  <SCORE>
-15.6909

>  <SCORE.INTER>
-4.1351

>  <SCORE.INTER.CONST>
1

>  <SCORE.INTER.POLAR>
0

>  <SCORE.INTER.ROT>
11

>  <SCORE.INTER.SOLV>
8.95832

>  <SCORE.INTER.VDW>
-16.6762

>  <SCORE.INTER.norm>
-0.295365

>  <SCORE.INTRA>
-11.5558

>  <SCORE.INTRA.DIHEDRAL>
-24.8987

>  <SCORE.INTRA.DIHEDRAL.0>
25.9209

>  <SCORE.INTRA.POLAR>
0

>  <SCORE.INTRA.POLAR.0>
0

>  <SCORE.INTRA.REPUL>
0

>  <SCORE.INTRA.REPUL.0>
0

>  <SCORE.INTRA.SOLV>
-0.898513

>  <SCORE.INTRA.SOLV.lig_0>
-47.4815

>  <SCORE.INTRA.VDW>
1.34284

>  <SCORE.INTRA.VDW.0>
-1.57492

>  <SCORE.INTRA.norm>
-0.825411

>  <SCORE.RESTR>
0

>  <SCORE.RESTR.CAVITY>
0

>  <SCORE.RESTR.norm>
0

>  <SCORE.SYSTEM>
0

>  <SCORE.SYSTEM.CONST>
0

>  <SCORE.SYSTEM.DIHEDRAL>
0

>  <SCORE.SYSTEM.SOLV>
0

>  <SCORE.SYSTEM.norm>
0

>  <SCORE.heavy>
14

>  <SCORE.norm>
-1.12078

>  <RMSD>
7.230

$$$$
ligand
 OpenBabel11021811493D
libRbt.so/2013.1/901 2013/11/27
 14 13  0  0  0  0  0  0  0  0999 V2000
   52.3227    2.4360   -2.6615 N   0  0  0  0  0  0  0  0  0  0  0  0
   51.2690    1.7200   -1.9528 C   0  0  0  0  0  0  0  0  0  0  0  0
   51.4366    0.1939   -2.1124 C   0  0  0  0  0  0  0  0  0  0  0  0
   51.3092   -0.3183   -3.5609 C   0  0  0  0  0  0  0  0  0  0  0  0
   50.0268   -0.1241   -4.2541 N   0  0  0  0  0  0  0  0  0  0  0  0
   48.8261   -0.8605   -3.8434 C   0  0  0  0  0  0  0  0  0  0  0  0
   48.3323   -1.9091   -4.8443 C   0  0  0  0  0  0  0  0  0  0  0  0
   47.8951   -1.2947   -6.1849 C   0  0  0  0  0  0  0  0  0  0  0  0
   47.2997   -2.3114   -7.1721 C   0  0  0  0  0  0  0  0  0  0  0  0
   46.9709   -1.7648   -8.4906 N   0  0  0  0  0  0  0  0  0  0  0  0
   48.0588   -1.4395   -9.4293 C   0  0  0  0  0  0  0  0  0  0  0  0
   48.6153    0.0033   -9.3835 C   0  0  0  0  0  0  0  0  0  0  0  0
   47.6248    1.1181   -9.7760 C   0  0  0  0  0  0  0  0  0  0  0  0
   48.2201    2.4507   -9.7382 N   0  0  0  0  0  0  0  0  0  0  0  0
  1  2  1  0  0  0  0
  2  3  1  0  0  0  0
  3  4  1  0  0  0  0
  4  5  1  0  0  0  0
  5  6  1  0  0  0  0
  6  7  1  0  0  0  0
  7  8  1  0  0  0  0
  8  9  1  0  0  0  0
  9 10  1  0  0  0  0
 10 11  1  0  0  0  0
 11 12  1  0  0  0  0
 12 13  1  0  0  0  0
 13 14  1  0  0  0  0
M  END
>  <CHROM.1>
-63.22921156,-62.29867890,-68.95526315,-111.15340387,-63.18497252,-175.80953562
-175.60223913,73.27124098,-91.37669061,-64.17981079,-178.81743231,49.15757556
-0.15039811,-5.95729018,-0.61654571,-0.95028270,-0.89369841

>  <Name>
ligand

>  <RI>
0

>  <Rbt.Current_Directory>
/home/itssahil/PROJECTS/Mol_Feturizer/New_Systems/rnas/4E8Q

>  <Rbt.Executable>
rbdock ($Id: //depot/dev/client3/rdock/2013.1/src/exe/rbdock.cxx#4 $)

>  <Rbt.Library>
libRbt.so (2013.1, Build901 2013/11/27)

>  <Rbt.Parameter_File>
/export/apps/rDock/src/rDock_2013.1_src/data/scripts/dock_solv.prm

>  <Rbt.Receptor>
prm/pocket_docking_6.prm

>  <SCORE>
-13.1382

>  <SCORE.INTER>
-1.84425

>  <SCORE.INTER.CONST>
1

>  <SCORE.INTER.POLAR>
0

>  <SCORE.INTER.ROT>
11

>  <SCORE.INTER.SOLV>
9.33597

>  <SCORE.INTER.VDW>
-15.2748

>  <SCORE.INTER.norm>
-0.131732

>  <SCORE.INTRA>
-11.2939

>  <SCORE.INTRA.DIHEDRAL>
-23.6221

>  <SCORE.INTRA.DIHEDRAL.0>
25.9209

>  <SCORE.INTRA.POLAR>
0

>  <SCORE.INTRA.POLAR.0>
0

>  <SCORE.INTRA.REPUL>
0

>  <SCORE.INTRA.REPUL.0>
0

>  <SCORE.INTRA.SOLV>
0.0992359

>  <SCORE.INTRA.SOLV.lig_0>
-47.4815

>  <SCORE.INTRA.VDW>
0.46752

>  <SCORE.INTRA.VDW.0>
-1.57492

>  <SCORE.INTRA.norm>
-0.806708

>  <SCORE.RESTR>
0

>  <SCORE.RESTR.CAVITY>
0

>  <SCORE.RESTR.norm>
0

>  <SCORE.SYSTEM>
0

>  <SCORE.SYSTEM.CONST>
0

>  <SCORE.SYSTEM.DIHEDRAL>
0

>  <SCORE.SYSTEM.SOLV>
0

>  <SCORE.SYSTEM.norm>
0

>  <SCORE.heavy>
14

>  <SCORE.norm>
-0.93844

>  <RMSD>
7.264

$$$$
ligand
 OpenBabel11021811493D
libRbt.so/2013.1/901 2013/11/27
 14 13  0  0  0  0  0  0  0  0999 V2000
   47.6266   -2.8119   -9.0479 N   0  0  0  0  0  0  0  0  0  0  0  0
   46.4783   -2.9620   -8.1624 C   0  0  0  0  0  0  0  0  0  0  0  0
   46.4637   -1.8549   -7.0868 C   0  0  0  0  0  0  0  0  0  0  0  0
   47.6688   -1.8774   -6.1256 C   0  0  0  0  0  0  0  0  0  0  0  0
   47.7233   -0.8662   -5.0592 N   0  0  0  0  0  0  0  0  0  0  0  0
   48.8055   -0.8694   -4.0686 C   0  0  0  0  0  0  0  0  0  0  0  0
   50.1713   -0.4203   -4.5961 C   0  0  0  0  0  0  0  0  0  0  0  0
   51.2703   -0.4653   -3.5209 C   0  0  0  0  0  0  0  0  0  0  0  0
   51.1348    0.6239   -2.4449 C   0  0  0  0  0  0  0  0  0  0  0  0
   51.2990    1.9940   -2.9361 N   0  0  0  0  0  0  0  0  0  0  0  0
   50.1581    2.6746   -3.5730 C   0  0  0  0  0  0  0  0  0  0  0  0
   50.1876    4.2213   -3.5929 C   0  0  0  0  0  0  0  0  0  0  0  0
   49.0121    4.9062   -4.3189 C   0  0  0  0  0  0  0  0  0  0  0  0
   48.9544    4.5850   -5.7419 N   0  0  0  0  0  0  0  0  0  0  0  0
  1  2  1  0  0  0  0
  2  3  1  0  0  0  0
  3  4  1  0  0  0  0
  4  5  1  0  0  0  0
  5  6  1  0  0  0  0
  6  7  1  0  0  0  0
  7  8  1  0  0  0  0
  8  9  1  0  0  0  0
  9 10  1  0  0  0  0
 10 11  1  0  0  0  0
 11 12  1  0  0  0  0
 12 13  1  0  0  0  0
 13 14  1  0  0  0  0
M  END
>  <CHROM.1>
-63.10280226,-179.21886095,176.93358591,72.44987287,-179.07762749,-71.36594277
-64.96456300,81.86731140,157.82169986,177.45291049,-62.79987798,49.06819516
0.49116089,-5.01937325,2.25262914,0.85580197,-3.09601014

>  <Name>
ligand

>  <RI>
0

>  <Rbt.Current_Directory>
/home/itssahil/PROJECTS/Mol_Feturizer/New_Systems/rnas/4E8Q

>  <Rbt.Executable>
rbdock ($Id: //depot/dev/client3/rdock/2013.1/src/exe/rbdock.cxx#4 $)

>  <Rbt.Library>
libRbt.so (2013.1, Build901 2013/11/27)

>  <Rbt.Parameter_File>
/export/apps/rDock/src/rDock_2013.1_src/data/scripts/dock_solv.prm

>  <Rbt.Receptor>
prm/pocket_docking_8.prm

>  <SCORE>
-13.0396

>  <SCORE.INTER>
-1.79597

>  <SCORE.INTER.CONST>
1

>  <SCORE.INTER.POLAR>
0

>  <SCORE.INTER.ROT>
11

>  <SCORE.INTER.SOLV>
8.72365

>  <SCORE.INTER.VDW>
-15.0385

>  <SCORE.INTER.norm>
-0.128283

>  <SCORE.INTRA>
-11.2436

>  <SCORE.INTRA.DIHEDRAL>
-24.3621

>  <SCORE.INTRA.DIHEDRAL.0>
25.9209

>  <SCORE.INTRA.POLAR>
0

>  <SCORE.INTRA.POLAR.0>
0

>  <SCORE.INTRA.REPUL>
0

>  <SCORE.INTRA.REPUL.0>
0

>  <SCORE.INTRA.SOLV>
-0.0923916

>  <SCORE.INTRA.SOLV.lig_0>
-47.4815

>  <SCORE.INTRA.VDW>
0.983625

>  <SCORE.INTRA.VDW.0>
-1.57492

>  <SCORE.INTRA.norm>
-0.803117

>  <SCORE.RESTR>
0

>  <SCORE.RESTR.CAVITY>
0

>  <SCORE.RESTR.norm>
0

>  <SCORE.SYSTEM>
0

>  <SCORE.SYSTEM.CONST>
0

>  <SCORE.SYSTEM.DIHEDRAL>
0

>  <SCORE.SYSTEM.SOLV>
0

>  <SCORE.SYSTEM.norm>
0

>  <SCORE.heavy>
14

>  <SCORE.norm>
-0.9314

>  <RMSD>
7.279

$$$$
ligand
 OpenBabel11021811493D
libRbt.so/2013.1/901 2013/11/27
 14 13  0  0  0  0  0  0  0  0999 V2000
   51.7475    0.4038   -0.8939 N   0  0  0  0  0  0  0  0  0  0  0  0
   51.2348    0.7563   -2.2123 C   0  0  0  0  0  0  0  0  0  0  0  0
   51.3292   -0.4435   -3.1788 C   0  0  0  0  0  0  0  0  0  0  0  0
   50.7636   -0.1789   -4.5883 C   0  0  0  0  0  0  0  0  0  0  0  0
   49.3207    0.0734   -4.7198 N   0  0  0  0  0  0  0  0  0  0  0  0
   48.3369   -0.9447   -4.3347 C   0  0  0  0  0  0  0  0  0  0  0  0
   48.3050   -2.1887   -5.2273 C   0  0  0  0  0  0  0  0  0  0  0  0
   47.7097   -1.9098   -6.6179 C   0  0  0  0  0  0  0  0  0  0  0  0
   48.6264   -1.0839   -7.5344 C   0  0  0  0  0  0  0  0  0  0  0  0
   49.8211   -1.7900   -8.0030 N   0  0  0  0  0  0  0  0  0  0  0  0
   50.8431   -1.0527   -8.7661 C   0  0  0  0  0  0  0  0  0  0  0  0
   51.6814   -1.8657   -9.7810 C   0  0  0  0  0  0  0  0  0  0  0  0
   52.7604   -1.0743  -10.5476 C   0  0  0  0  0  0  0  0  0  0  0  0
   52.2107    0.0240  -11.3368 N   0  0  0  0  0  0  0  0  0  0  0  0
  1  2  1  0  0  0  0
  2  3  1  0  0  0  0
  3  4  1  0  0  0  0
  4  5  1  0  0  0  0
  5  6  1  0  0  0  0
  6  7  1  0  0  0  0
  7  8  1  0  0  0  0
  8  9  1  0  0  0  0
  9 10  1  0  0  0  0
 10 11  1  0  0  0  0
 11 12  1  0  0  0  0
 12 13  1  0  0  0  0
 13 14  1  0  0  0  0
M  END
>  <CHROM.1>
177.99475058,-65.41374515,-61.91113780,-68.39650475,-71.25606496,72.12404396
70.03706391,-173.42577055,-151.53268226,-178.95733853,-59.91927903,50.33485222
-0.80553903,-6.26728791,-1.70724764,-0.36699465,-1.75653752

>  <Name>
ligand

>  <RI>
0

>  <Rbt.Current_Directory>
/home/itssahil/PROJECTS/Mol_Feturizer/New_Systems/rnas/4E8Q

>  <Rbt.Executable>
rbdock ($Id: //depot/dev/client3/rdock/2013.1/src/exe/rbdock.cxx#4 $)

>  <Rbt.Library>
libRbt.so (2013.1, Build901 2013/11/27)

>  <Rbt.Parameter_File>
/export/apps/rDock/src/rDock_2013.1_src/data/scripts/dock_solv.prm

>  <Rbt.Receptor>
prm/pocket_docking_8.prm

>  <SCORE>
-13.0371

>  <SCORE.INTER>
-2.0421

>  <SCORE.INTER.CONST>
1

>  <SCORE.INTER.POLAR>
0

>  <SCORE.INTER.ROT>
11

>  <SCORE.INTER.SOLV>
10.4311

>  <SCORE.INTER.VDW>
-15.7718

>  <SCORE.INTER.norm>
-0.145865

>  <SCORE.INTRA>
-10.995

>  <SCORE.INTRA.DIHEDRAL>
-23.71

>  <SCORE.INTRA.DIHEDRAL.0>
25.9209

>  <SCORE.INTRA.POLAR>
0

>  <SCORE.INTRA.POLAR.0>
0

>  <SCORE.INTRA.REPUL>
0

>  <SCORE.INTRA.REPUL.0>
0

>  <SCORE.INTRA.SOLV>
0.87492

>  <SCORE.INTRA.SOLV.lig_0>
-47.4815

>  <SCORE.INTRA.VDW>
0.422576

>  <SCORE.INTRA.VDW.0>
-1.57492

>  <SCORE.INTRA.norm>
-0.785356

>  <SCORE.RESTR>
0

>  <SCORE.RESTR.CAVITY>
0

>  <SCORE.RESTR.norm>
0

>  <SCORE.SYSTEM>
0

>  <SCORE.SYSTEM.CONST>
0

>  <SCORE.SYSTEM.DIHEDRAL>
0

>  <SCORE.SYSTEM.SOLV>
0

>  <SCORE.SYSTEM.norm>
0

>  <SCORE.heavy>
14

>  <SCORE.norm>
-0.931221

>  <RMSD>
7.361

$$$$
ligand
 OpenBabel11021811493D
libRbt.so/2013.1/901 2013/11/27
 14 13  0  0  0  0  0  0  0  0999 V2000
   46.5977    5.3289   -2.7481 N   0  0  0  0  0  0  0  0  0  0  0  0
   47.8978    4.6713   -2.6969 C   0  0  0  0  0  0  0  0  0  0  0  0
   48.3750    4.2835   -4.1126 C   0  0  0  0  0  0  0  0  0  0  0  0
   49.7875    3.6684   -4.1683 C   0  0  0  0  0  0  0  0  0  0  0  0
   50.0226    2.4068   -3.4499 N   0  0  0  0  0  0  0  0  0  0  0  0
   51.3436    2.0854   -2.8985 C   0  0  0  0  0  0  0  0  0  0  0  0
   51.4726    0.6841   -2.2942 C   0  0  0  0  0  0  0  0  0  0  0  0
   51.2993   -0.4334   -3.3368 C   0  0  0  0  0  0  0  0  0  0  0  0
   49.8620   -0.5788   -3.8617 C   0  0  0  0  0  0  0  0  0  0  0  0
   49.6711   -1.6576   -4.8340 N   0  0  0  0  0  0  0  0  0  0  0  0
   48.3039   -2.0669   -5.1996 C   0  0  0  0  0  0  0  0  0  0  0  0
   48.1216   -3.5114   -5.7227 C   0  0  0  0  0  0  0  0  0  0  0  0
   48.8818   -3.8572   -7.0191 C   0  0  0  0  0  0  0  0  0  0  0  0
   48.5849   -5.1979   -7.5151 N   0  0  0  0  0  0  0  0  0  0  0  0
  1  2  1  0  0  0  0
  2  3  1  0  0  0  0
  3  4  1  0  0  0  0
  4  5  1  0  0  0  0
  5  6  1  0  0  0  0
  6  7  1  0  0  0  0
  7  8  1  0  0  0  0
  8  9  1  0  0  0  0
  9 10  1  0  0  0  0
 10 11  1  0  0  0  0
 11 12  1  0  0  0  0
 12 13  1  0  0  0  0
 13 14  1  0  0  0  0
M  END
>  <CHROM.1>
175.98202369,61.76995356,-150.21271596,-174.47981908,64.31151385,-70.28573693
-178.71381022,167.79562425,-155.20687833,-61.44288764,-175.46231802,49.30176637
0.41615768,-4.27538855,1.58584044,-0.45348927,0.39141136

>  <Name>
ligand

>  <RI>
0

>  <Rbt.Current_Directory>
/home/itssahil/PROJECTS/Mol_Feturizer/New_Systems/rnas/4E8Q

>  <Rbt.Executable>
rbdock ($Id: //depot/dev/client3/rdock/2013.1/src/exe/rbdock.cxx#4 $)

>  <Rbt.Library>
libRbt.so (2013.1, Build901 2013/11/27)

>  <Rbt.Parameter_File>
/export/apps/rDock/src/rDock_2013.1_src/data/scripts/dock_solv.prm

>  <Rbt.Receptor>
prm/pocket_docking_7.prm

>  <SCORE>
-13.2012

>  <SCORE.INTER>
-1.35013

>  <SCORE.INTER.CONST>
1

>  <SCORE.INTER.POLAR>
0

>  <SCORE.INTER.ROT>
11

>  <SCORE.INTER.SOLV>
10.6535

>  <SCORE.INTER.VDW>
-15.3846

>  <SCORE.INTER.norm>
-0.0964382

>  <SCORE.INTRA>
-11.8511

>  <SCORE.INTRA.DIHEDRAL>
-24.0783

>  <SCORE.INTRA.DIHEDRAL.0>
25.9209

>  <SCORE.INTRA.POLAR>
0

>  <SCORE.INTRA.POLAR.0>
0

>  <SCORE.INTRA.REPUL>
0

>  <SCORE.INTRA.REPUL.0>
0

>  <SCORE.INTRA.SOLV>
-0.530867

>  <SCORE.INTRA.SOLV.lig_0>
-47.4815

>  <SCORE.INTRA.VDW>
0.453502

>  <SCORE.INTRA.VDW.0>
-1.57492

>  <SCORE.INTRA.norm>
-0.846507

>  <SCORE.RESTR>
0

>  <SCORE.RESTR.CAVITY>
0

>  <SCORE.RESTR.norm>
0

>  <SCORE.SYSTEM>
0

>  <SCORE.SYSTEM.CONST>
0

>  <SCORE.SYSTEM.DIHEDRAL>
0

>  <SCORE.SYSTEM.SOLV>
0

>  <SCORE.SYSTEM.norm>
0

>  <SCORE.heavy>
14

>  <SCORE.norm>
-0.942945

>  <RMSD>
7.382

$$$$
ligand
 OpenBabel11021811493D
libRbt.so/2013.1/901 2013/11/27
 14 13  0  0  0  0  0  0  0  0999 V2000
   52.8215    3.8754   -2.7765 N   0  0  0  0  0  0  0  0  0  0  0  0
   52.6016    2.4410   -2.6376 C   0  0  0  0  0  0  0  0  0  0  0  0
   51.4485    1.9697   -3.5491 C   0  0  0  0  0  0  0  0  0  0  0  0
   51.1312    0.4639   -3.4569 C   0  0  0  0  0  0  0  0  0  0  0  0
   50.0392   -0.0661   -4.2872 N   0  0  0  0  0  0  0  0  0  0  0  0
   49.5094   -1.4166   -4.0678 C   0  0  0  0  0  0  0  0  0  0  0  0
   48.8735   -2.0732   -5.2965 C   0  0  0  0  0  0  0  0  0  0  0  0
   47.5985   -1.3520   -5.7655 C   0  0  0  0  0  0  0  0  0  0  0  0
   46.9107   -2.0195   -6.9672 C   0  0  0  0  0  0  0  0  0  0  0  0
   47.6870   -1.9943   -8.2090 N   0  0  0  0  0  0  0  0  0  0  0  0
   47.7632   -0.7460   -8.9879 C   0  0  0  0  0  0  0  0  0  0  0  0
   48.5312   -0.8036  -10.3297 C   0  0  0  0  0  0  0  0  0  0  0  0
   48.5601    0.5058  -11.1437 C   0  0  0  0  0  0  0  0  0  0  0  0
   49.2575    0.3703  -12.4192 N   0  0  0  0  0  0  0  0  0  0  0  0
  1  2  1  0  0  0  0
  2  3  1  0  0  0  0
  3  4  1  0  0  0  0
  4  5  1  0  0  0  0
  5  6  1  0  0  0  0
  6  7  1  0  0  0  0
  7  8  1  0  0  0  0
  8  9  1  0  0  0  0
  9 10  1  0  0  0  0
 10 11  1  0  0  0  0
 11 12  1  0  0  0  0
 12 13  1  0  0  0  0
 13 14  1  0  0  0  0
M  END
>  <CHROM.1>
-179.31397582,179.60572379,-168.05233502,-153.93791583,-65.76871210,-177.91587448
-65.64897259,-76.64503534,-176.65057240,178.27486307,-177.89199340,49.48074325
-0.06063358,-6.42078421,-0.84684183,-0.86175130,-1.32793450

>  <Name>
ligand

>  <RI>
0

>  <Rbt.Current_Directory>
/home/itssahil/PROJECTS/Mol_Feturizer/New_Systems/rnas/4E8Q

>  <Rbt.Executable>
rbdock ($Id: //depot/dev/client3/rdock/2013.1/src/exe/rbdock.cxx#4 $)

>  <Rbt.Library>
libRbt.so (2013.1, Build901 2013/11/27)

>  <Rbt.Parameter_File>
/export/apps/rDock/src/rDock_2013.1_src/data/scripts/dock_solv.prm

>  <Rbt.Receptor>
prm/pocket_docking_8.prm

>  <SCORE>
-12.535

>  <SCORE.INTER>
0.155631

>  <SCORE.INTER.CONST>
1

>  <SCORE.INTER.POLAR>
0

>  <SCORE.INTER.ROT>
11

>  <SCORE.INTER.SOLV>
4.98978

>  <SCORE.INTER.VDW>
-12.4928

>  <SCORE.INTER.norm>
0.0111165

>  <SCORE.INTRA>
-12.6906

>  <SCORE.INTRA.DIHEDRAL>
-24.8137

>  <SCORE.INTRA.DIHEDRAL.0>
25.9209

>  <SCORE.INTRA.POLAR>
0

>  <SCORE.INTRA.POLAR.0>
0

>  <SCORE.INTRA.REPUL>
0

>  <SCORE.INTRA.REPUL.0>
0

>  <SCORE.INTRA.SOLV>
-1.4546

>  <SCORE.INTRA.SOLV.lig_0>
-47.4815

>  <SCORE.INTRA.VDW>
0.443515

>  <SCORE.INTRA.VDW.0>
-1.57492

>  <SCORE.INTRA.norm>
-0.906474

>  <SCORE.RESTR>
0

>  <SCORE.RESTR.CAVITY>
0

>  <SCORE.RESTR.norm>
0

>  <SCORE.SYSTEM>
0

>  <SCORE.SYSTEM.CONST>
0

>  <SCORE.SYSTEM.DIHEDRAL>
0

>  <SCORE.SYSTEM.SOLV>
0

>  <SCORE.SYSTEM.norm>
0

>  <SCORE.heavy>
14

>  <SCORE.norm>
-0.895357

>  <RMSD>
7.434

$$$$
ligand
 OpenBabel11021811493D
libRbt.so/2013.1/901 2013/11/27
 14 13  0  0  0  0  0  0  0  0999 V2000
   51.6313   -1.4351  -10.9557 N   0  0  0  0  0  0  0  0  0  0  0  0
   51.3228   -2.5025  -10.0119 C   0  0  0  0  0  0  0  0  0  0  0  0
   49.8249   -2.8710  -10.0677 C   0  0  0  0  0  0  0  0  0  0  0  0
   49.3967   -3.9708   -9.0759 C   0  0  0  0  0  0  0  0  0  0  0  0
   49.5542   -3.7064   -7.6378 N   0  0  0  0  0  0  0  0  0  0  0  0
   48.4509   -3.9432   -6.7001 C   0  0  0  0  0  0  0  0  0  0  0  0
   48.5901   -3.2471   -5.3431 C   0  0  0  0  0  0  0  0  0  0  0  0
   48.5971   -1.7133   -5.4575 C   0  0  0  0  0  0  0  0  0  0  0  0
   48.7862   -0.9888   -4.1151 C   0  0  0  0  0  0  0  0  0  0  0  0
   50.0604   -1.2613   -3.4462 N   0  0  0  0  0  0  0  0  0  0  0  0
   51.0900   -0.2087   -3.3971 C   0  0  0  0  0  0  0  0  0  0  0  0
   51.2186    0.5841   -2.0747 C   0  0  0  0  0  0  0  0  0  0  0  0
   52.0988    1.8490   -2.1327 C   0  0  0  0  0  0  0  0  0  0  0  0
   52.1874    2.5426   -0.8511 N   0  0  0  0  0  0  0  0  0  0  0  0
  1  2  1  0  0  0  0
  2  3  1  0  0  0  0
  3  4  1  0  0  0  0
  4  5  1  0  0  0  0
  5  6  1  0  0  0  0
  6  7  1  0  0  0  0
  7  8  1  0  0  0  0
  8  9  1  0  0  0  0
  9 10  1  0  0  0  0
 10 11  1  0  0  0  0
 11 12  1  0  0  0  0
 12 13  1  0  0  0  0
 13 14  1  0  0  0  0
M  END
>  <CHROM.1>
-178.56844548,61.84226076,130.64523360,-162.28581304,63.17718576,-177.93075995
62.36148340,108.16556590,100.78119648,-168.49537228,-179.48692785,50.20040418
-1.49111218,-5.80479392,-1.78889054,0.76813957,1.20665185

>  <Name>
ligand

>  <RI>
0

>  <Rbt.Current_Directory>
/home/itssahil/PROJECTS/Mol_Feturizer/New_Systems/rnas/4E8Q

>  <Rbt.Executable>
rbdock ($Id: //depot/dev/client3/rdock/2013.1/src/exe/rbdock.cxx#4 $)

>  <Rbt.Library>
libRbt.so (2013.1, Build901 2013/11/27)

>  <Rbt.Parameter_File>
/export/apps/rDock/src/rDock_2013.1_src/data/scripts/dock_solv.prm

>  <Rbt.Receptor>
prm/pocket_docking_8.prm

>  <SCORE>
-13.2268

>  <SCORE.INTER>
-1.89151

>  <SCORE.INTER.CONST>
1

>  <SCORE.INTER.POLAR>
0

>  <SCORE.INTER.ROT>
11

>  <SCORE.INTER.SOLV>
9.78014

>  <SCORE.INTER.VDW>
-15.4544

>  <SCORE.INTER.norm>
-0.135108

>  <SCORE.INTRA>
-11.3353

>  <SCORE.INTRA.DIHEDRAL>
-21.9777

>  <SCORE.INTRA.DIHEDRAL.0>
25.9209

>  <SCORE.INTRA.POLAR>
0

>  <SCORE.INTRA.POLAR.0>
0

>  <SCORE.INTRA.REPUL>
0

>  <SCORE.INTRA.REPUL.0>
0

>  <SCORE.INTRA.SOLV>
-1.11112

>  <SCORE.INTRA.SOLV.lig_0>
-47.4815

>  <SCORE.INTRA.VDW>
0.209075

>  <SCORE.INTRA.VDW.0>
-1.57492

>  <SCORE.INTRA.norm>
-0.809666

>  <SCORE.RESTR>
0

>  <SCORE.RESTR.CAVITY>
0

>  <SCORE.RESTR.norm>
0

>  <SCORE.SYSTEM>
0

>  <SCORE.SYSTEM.CONST>
0

>  <SCORE.SYSTEM.DIHEDRAL>
0

>  <SCORE.SYSTEM.SOLV>
0

>  <SCORE.SYSTEM.norm>
0

>  <SCORE.heavy>
14

>  <SCORE.norm>
-0.944774

>  <RMSD>
7.471

$$$$
ligand
 OpenBabel11021811493D
libRbt.so/2013.1/901 2013/11/27
 14 13  0  0  0  0  0  0  0  0999 V2000
   51.6650    3.3087   -2.0972 N   0  0  0  0  0  0  0  0  0  0  0  0
   52.3629    2.0985   -2.5139 C   0  0  0  0  0  0  0  0  0  0  0  0
   51.3633    0.9597   -2.8077 C   0  0  0  0  0  0  0  0  0  0  0  0
   50.4440    1.2087   -4.0199 C   0  0  0  0  0  0  0  0  0  0  0  0
   49.3816    0.2300   -4.2963 N   0  0  0  0  0  0  0  0  0  0  0  0
   49.7048   -1.1467   -4.6873 C   0  0  0  0  0  0  0  0  0  0  0  0
   48.5028   -2.0095   -5.0826 C   0  0  0  0  0  0  0  0  0  0  0  0
   48.9051   -3.4284   -5.5195 C   0  0  0  0  0  0  0  0  0  0  0  0
   47.7324   -4.2782   -6.0345 C   0  0  0  0  0  0  0  0  0  0  0  0
   47.1906   -3.8547   -7.3278 N   0  0  0  0  0  0  0  0  0  0  0  0
   46.3682   -2.6346   -7.4019 C   0  0  0  0  0  0  0  0  0  0  0  0
   46.7617   -1.5887   -8.4718 C   0  0  0  0  0  0  0  0  0  0  0  0
   48.2159   -1.0794   -8.4103 C   0  0  0  0  0  0  0  0  0  0  0  0
   48.5042   -0.0524   -9.4072 N   0  0  0  0  0  0  0  0  0  0  0  0
  1  2  1  0  0  0  0
  2  3  1  0  0  0  0
  3  4  1  0  0  0  0
  4  5  1  0  0  0  0
  5  6  1  0  0  0  0
  6  7  1  0  0  0  0
  7  8  1  0  0  0  0
  8  9  1  0  0  0  0
  9 10  1  0  0  0  0
 10 11  1  0  0  0  0
 11 12  1  0  0  0  0
 12 13  1  0  0  0  0
 13 14  1  0  0  0  0
M  END
>  <CHROM.1>
66.14259285,-174.59245480,-65.27020948,-173.95096728,178.40710379,-175.11275896
70.12975165,-73.85475886,129.09345034,-55.72095175,-177.40375182,49.07871401
-0.87653192,-5.57691158,0.03542188,-1.02018874,-0.71672626

>  <Name>
ligand

>  <RI>
0

>  <Rbt.Current_Directory>
/home/itssahil/PROJECTS/Mol_Feturizer/New_Systems/rnas/4E8Q

>  <Rbt.Executable>
rbdock ($Id: //depot/dev/client3/rdock/2013.1/src/exe/rbdock.cxx#4 $)

>  <Rbt.Library>
libRbt.so (2013.1, Build901 2013/11/27)

>  <Rbt.Parameter_File>
/export/apps/rDock/src/rDock_2013.1_src/data/scripts/dock_solv.prm

>  <Rbt.Receptor>
prm/pocket_docking_7.prm

>  <SCORE>
-14.9089

>  <SCORE.INTER>
-3.04684

>  <SCORE.INTER.CONST>
1

>  <SCORE.INTER.POLAR>
0

>  <SCORE.INTER.ROT>
11

>  <SCORE.INTER.SOLV>
6.56282

>  <SCORE.INTER.VDW>
-15.1522

>  <SCORE.INTER.norm>
-0.217631

>  <SCORE.INTRA>
-11.8621

>  <SCORE.INTRA.DIHEDRAL>
-23.7497

>  <SCORE.INTRA.DIHEDRAL.0>
25.9209

>  <SCORE.INTRA.POLAR>
0

>  <SCORE.INTRA.POLAR.0>
0

>  <SCORE.INTRA.REPUL>
0

>  <SCORE.INTRA.REPUL.0>
0

>  <SCORE.INTRA.SOLV>
-0.716015

>  <SCORE.INTRA.SOLV.lig_0>
-47.4815

>  <SCORE.INTRA.VDW>
0.370778

>  <SCORE.INTRA.VDW.0>
-1.57492

>  <SCORE.INTRA.norm>
-0.847292

>  <SCORE.RESTR>
0

>  <SCORE.RESTR.CAVITY>
0

>  <SCORE.RESTR.norm>
0

>  <SCORE.SYSTEM>
0

>  <SCORE.SYSTEM.CONST>
0

>  <SCORE.SYSTEM.DIHEDRAL>
0

>  <SCORE.SYSTEM.SOLV>
0

>  <SCORE.SYSTEM.norm>
0

>  <SCORE.heavy>
14

>  <SCORE.norm>
-1.06492

>  <RMSD>
7.569

$$$$
ligand
 OpenBabel11021811493D
libRbt.so/2013.1/901 2013/11/27
 14 13  0  0  0  0  0  0  0  0999 V2000
   57.4002    4.7727    3.7860 N   0  0  0  0  0  0  0  0  0  0  0  0
   57.8637    3.7002    4.6580 C   0  0  0  0  0  0  0  0  0  0  0  0
   59.3727    3.4426    4.4599 C   0  0  0  0  0  0  0  0  0  0  0  0
   59.9727    2.3825    5.4047 C   0  0  0  0  0  0  0  0  0  0  0  0
   59.5598    0.9823    5.2262 N   0  0  0  0  0  0  0  0  0  0  0  0
   60.5118   -0.0337    4.7634 C   0  0  0  0  0  0  0  0  0  0  0  0
   59.9792   -0.9797    3.6832 C   0  0  0  0  0  0  0  0  0  0  0  0
   59.6883   -0.2632    2.3536 C   0  0  0  0  0  0  0  0  0  0  0  0
   58.4343    0.6251    2.3854 C   0  0  0  0  0  0  0  0  0  0  0  0
   58.2584    1.4789    1.2083 N   0  0  0  0  0  0  0  0  0  0  0  0
   57.4493    0.9922    0.0773 C   0  0  0  0  0  0  0  0  0  0  0  0
   57.6404    1.7092   -1.2802 C   0  0  0  0  0  0  0  0  0  0  0  0
   57.4208    3.2355   -1.2704 C   0  0  0  0  0  0  0  0  0  0  0  0
   56.0685    3.6157   -0.8729 N   0  0  0  0  0  0  0  0  0  0  0  0
  1  2  1  0  0  0  0
  2  3  1  0  0  0  0
  3  4  1  0  0  0  0
  4  5  1  0  0  0  0
  5  6  1  0  0  0  0
  6  7  1  0  0  0  0
  7  8  1  0  0  0  0
  8  9  1  0  0  0  0
  9 10  1  0  0  0  0
 10 11  1  0  0  0  0
 11 12  1  0  0  0  0
 12 13  1  0  0  0  0
 13 14  1  0  0  0  0
M  END
>  <CHROM.1>
176.37703349,68.31799533,112.77539887,-135.40428760,66.16434349,-73.08897185
170.66690827,92.62401365,-161.86111843,-55.82911763,-60.88050650,58.54457980
1.83252437,2.47023706,0.58046928,-1.04443483,0.88826287

>  <Name>
ligand

>  <RI>
0

>  <Rbt.Current_Directory>
/home/itssahil/PROJECTS/Mol_Feturizer/New_Systems/rnas/4E8Q

>  <Rbt.Executable>
rbdock ($Id: //depot/dev/client3/rdock/2013.1/src/exe/rbdock.cxx#4 $)

>  <Rbt.Library>
libRbt.so (2013.1, Build901 2013/11/27)

>  <Rbt.Parameter_File>
/export/apps/rDock/src/rDock_2013.1_src/data/scripts/dock_solv.prm

>  <Rbt.Receptor>
prm/pocket_docking_5.prm

>  <SCORE>
-9.50651

>  <SCORE.INTER>
0.54481

>  <SCORE.INTER.CONST>
1

>  <SCORE.INTER.POLAR>
0

>  <SCORE.INTER.ROT>
11

>  <SCORE.INTER.SOLV>
9.02877

>  <SCORE.INTER.VDW>
-13.5797

>  <SCORE.INTER.norm>
0.038915

>  <SCORE.INTRA>
-10.0513

>  <SCORE.INTRA.DIHEDRAL>
-21.2829

>  <SCORE.INTRA.DIHEDRAL.0>
25.9209

>  <SCORE.INTRA.POLAR>
0

>  <SCORE.INTRA.POLAR.0>
0

>  <SCORE.INTRA.REPUL>
0

>  <SCORE.INTRA.REPUL.0>
0

>  <SCORE.INTRA.SOLV>
1.63182

>  <SCORE.INTRA.SOLV.lig_0>
-47.4815

>  <SCORE.INTRA.VDW>
-0.225758

>  <SCORE.INTRA.VDW.0>
-1.57492

>  <SCORE.INTRA.norm>
-0.717951

>  <SCORE.RESTR>
0

>  <SCORE.RESTR.CAVITY>
0

>  <SCORE.RESTR.norm>
0

>  <SCORE.SYSTEM>
0

>  <SCORE.SYSTEM.CONST>
0

>  <SCORE.SYSTEM.DIHEDRAL>
0

>  <SCORE.SYSTEM.SOLV>
0

>  <SCORE.SYSTEM.norm>
0

>  <SCORE.heavy>
14

>  <SCORE.norm>
-0.679036

>  <RMSD>
7.648

$$$$
ligand
 OpenBabel11021811493D
libRbt.so/2013.1/901 2013/11/27
 14 13  0  0  0  0  0  0  0  0999 V2000
   46.9374   -3.7657   -8.6297 N   0  0  0  0  0  0  0  0  0  0  0  0
   46.2259   -2.5003   -8.4972 C   0  0  0  0  0  0  0  0  0  0  0  0
   46.3289   -1.9588   -7.0554 C   0  0  0  0  0  0  0  0  0  0  0  0
   47.7647   -1.6509   -6.5860 C   0  0  0  0  0  0  0  0  0  0  0  0
   47.9550   -1.1676   -5.2101 N   0  0  0  0  0  0  0  0  0  0  0  0
   49.1837   -0.4685   -4.8173 C   0  0  0  0  0  0  0  0  0  0  0  0
   49.8575   -1.0006   -3.5491 C   0  0  0  0  0  0  0  0  0  0  0  0
   51.2253   -0.3495   -3.2825 C   0  0  0  0  0  0  0  0  0  0  0  0
   51.1419    1.1269   -2.8634 C   0  0  0  0  0  0  0  0  0  0  0  0
   50.4874    2.0040   -3.8369 N   0  0  0  0  0  0  0  0  0  0  0  0
   49.9174    3.2855   -3.3859 C   0  0  0  0  0  0  0  0  0  0  0  0
   48.9652    4.0118   -4.3654 C   0  0  0  0  0  0  0  0  0  0  0  0
   48.3119    5.3034   -3.8334 C   0  0  0  0  0  0  0  0  0  0  0  0
   47.4877    5.9795   -4.8310 N   0  0  0  0  0  0  0  0  0  0  0  0
  1  2  1  0  0  0  0
  2  3  1  0  0  0  0
  3  4  1  0  0  0  0
  4  5  1  0  0  0  0
  5  6  1  0  0  0  0
  6  7  1  0  0  0  0
  7  8  1  0  0  0  0
  8  9  1  0  0  0  0
  9 10  1  0  0  0  0
 10 11  1  0  0  0  0
 11 12  1  0  0  0  0
 12 13  1  0  0  0  0
 13 14  1  0  0  0  0
M  END
>  <CHROM.1>
61.72949981,-178.26341311,-160.78993520,-129.99498496,172.90172528,69.93449175
-58.90469168,158.17751915,-166.28161697,176.19600014,176.66653597,48.69946726
0.63202633,-5.05286018,1.96557243,0.72863640,-2.89808082

>  <Name>
ligand

>  <RI>
0

>  <Rbt.Current_Directory>
/home/itssahil/PROJECTS/Mol_Feturizer/New_Systems/rnas/4E8Q

>  <Rbt.Executable>
rbdock ($Id: //depot/dev/client3/rdock/2013.1/src/exe/rbdock.cxx#4 $)

>  <Rbt.Library>
libRbt.so (2013.1, Build901 2013/11/27)

>  <Rbt.Parameter_File>
/export/apps/rDock/src/rDock_2013.1_src/data/scripts/dock_solv.prm

>  <Rbt.Receptor>
prm/pocket_docking_7.prm

>  <SCORE>
-13.4673

>  <SCORE.INTER>
-2.3695

>  <SCORE.INTER.CONST>
1

>  <SCORE.INTER.POLAR>
0

>  <SCORE.INTER.ROT>
11

>  <SCORE.INTER.SOLV>
8.09084

>  <SCORE.INTER.VDW>
-15.2099

>  <SCORE.INTER.norm>
-0.16925

>  <SCORE.INTRA>
-11.0978

>  <SCORE.INTRA.DIHEDRAL>
-23.3064

>  <SCORE.INTRA.DIHEDRAL.0>
25.9209

>  <SCORE.INTRA.POLAR>
0

>  <SCORE.INTRA.POLAR.0>
0

>  <SCORE.INTRA.REPUL>
0

>  <SCORE.INTRA.REPUL.0>
0

>  <SCORE.INTRA.SOLV>
-0.356986

>  <SCORE.INTRA.SOLV.lig_0>
-47.4815

>  <SCORE.INTRA.VDW>
0.733925

>  <SCORE.INTRA.VDW.0>
-1.57492

>  <SCORE.INTRA.norm>
-0.792698

>  <SCORE.RESTR>
0

>  <SCORE.RESTR.CAVITY>
0

>  <SCORE.RESTR.norm>
0

>  <SCORE.SYSTEM>
0

>  <SCORE.SYSTEM.CONST>
0

>  <SCORE.SYSTEM.DIHEDRAL>
0

>  <SCORE.SYSTEM.SOLV>
0

>  <SCORE.SYSTEM.norm>
0

>  <SCORE.heavy>
14

>  <SCORE.norm>
-0.961948

>  <RMSD>
7.674

$$$$
ligand
 OpenBabel11021811493D
libRbt.so/2013.1/901 2013/11/27
 14 13  0  0  0  0  0  0  0  0999 V2000
   51.3374   -2.4001  -11.0868 N   0  0  0  0  0  0  0  0  0  0  0  0
   51.0507   -3.3102   -9.9847 C   0  0  0  0  0  0  0  0  0  0  0  0
   49.5961   -3.8218  -10.0570 C   0  0  0  0  0  0  0  0  0  0  0  0
   49.2079   -4.8134   -8.9423 C   0  0  0  0  0  0  0  0  0  0  0  0
   49.2979   -4.3573   -7.5471 N   0  0  0  0  0  0  0  0  0  0  0  0
   48.4483   -3.2689   -7.0510 C   0  0  0  0  0  0  0  0  0  0  0  0
   48.8932   -2.6505   -5.7225 C   0  0  0  0  0  0  0  0  0  0  0  0
   48.0423   -1.4356   -5.3154 C   0  0  0  0  0  0  0  0  0  0  0  0
   48.5306   -0.7319   -4.0390 C   0  0  0  0  0  0  0  0  0  0  0  0
   49.8770   -0.1624   -4.1303 N   0  0  0  0  0  0  0  0  0  0  0  0
   50.8126   -0.3365   -3.0057 C   0  0  0  0  0  0  0  0  0  0  0  0
   51.7662    0.8426   -2.6991 C   0  0  0  0  0  0  0  0  0  0  0  0
   51.0878    2.1690   -2.3010 C   0  0  0  0  0  0  0  0  0  0  0  0
   52.0412    3.2463   -2.0526 N   0  0  0  0  0  0  0  0  0  0  0  0
  1  2  1  0  0  0  0
  2  3  1  0  0  0  0
  3  4  1  0  0  0  0
  4  5  1  0  0  0  0
  5  6  1  0  0  0  0
  6  7  1  0  0  0  0
  7  8  1  0  0  0  0
  8  9  1  0  0  0  0
  9 10  1  0  0  0  0
 10 11  1  0  0  0  0
 11 12  1  0  0  0  0
 12 13  1  0  0  0  0
 13 14  1  0  0  0  0
M  END
>  <CHROM.1>
178.95705668,59.98369206,64.13748953,-164.37131684,174.84790521,-175.74139463
62.17699856,-136.73275922,-143.98035132,61.65200940,-178.79992381,49.99896073
-1.50243217,-5.99524599,-1.74612802,0.67886979,1.02817193

>  <Name>
ligand

>  <RI>
0

>  <Rbt.Current_Directory>
/home/itssahil/PROJECTS/Mol_Feturizer/New_Systems/rnas/4E8Q

>  <Rbt.Executable>
rbdock ($Id: //depot/dev/client3/rdock/2013.1/src/exe/rbdock.cxx#4 $)

>  <Rbt.Library>
libRbt.so (2013.1, Build901 2013/11/27)

>  <Rbt.Parameter_File>
/export/apps/rDock/src/rDock_2013.1_src/data/scripts/dock_solv.prm

>  <Rbt.Receptor>
prm/pocket_docking_7.prm

>  <SCORE>
-13.2595

>  <SCORE.INTER>
-1.06709

>  <SCORE.INTER.CONST>
1

>  <SCORE.INTER.POLAR>
0

>  <SCORE.INTER.ROT>
11

>  <SCORE.INTER.SOLV>
7.81915

>  <SCORE.INTER.VDW>
-14.2511

>  <SCORE.INTER.norm>
-0.0762208

>  <SCORE.INTRA>
-12.1924

>  <SCORE.INTRA.DIHEDRAL>
-23.7335

>  <SCORE.INTRA.DIHEDRAL.0>
25.9209

>  <SCORE.INTRA.POLAR>
0

>  <SCORE.INTRA.POLAR.0>
0

>  <SCORE.INTRA.REPUL>
0

>  <SCORE.INTRA.REPUL.0>
0

>  <SCORE.INTRA.SOLV>
-1.14953

>  <SCORE.INTRA.SOLV.lig_0>
-47.4815

>  <SCORE.INTRA.VDW>
0.249112

>  <SCORE.INTRA.VDW.0>
-1.57492

>  <SCORE.INTRA.norm>
-0.870886

>  <SCORE.RESTR>
0

>  <SCORE.RESTR.CAVITY>
0

>  <SCORE.RESTR.norm>
0

>  <SCORE.SYSTEM>
0

>  <SCORE.SYSTEM.CONST>
0

>  <SCORE.SYSTEM.DIHEDRAL>
0

>  <SCORE.SYSTEM.SOLV>
0

>  <SCORE.SYSTEM.norm>
0

>  <SCORE.heavy>
14

>  <SCORE.norm>
-0.947107

>  <RMSD>
7.733

$$$$
ligand
 OpenBabel11021811493D
libRbt.so/2013.1/901 2013/11/27
 14 13  0  0  0  0  0  0  0  0999 V2000
   48.4574   -1.8242   -8.7025 N   0  0  0  0  0  0  0  0  0  0  0  0
   48.4923   -3.2620   -8.9412 C   0  0  0  0  0  0  0  0  0  0  0  0
   48.0961   -4.0412   -7.6690 C   0  0  0  0  0  0  0  0  0  0  0  0
   49.0904   -3.9081   -6.4985 C   0  0  0  0  0  0  0  0  0  0  0  0
   49.2560   -2.5855   -5.8771 N   0  0  0  0  0  0  0  0  0  0  0  0
   48.2564   -2.0592   -4.9410 C   0  0  0  0  0  0  0  0  0  0  0  0
   48.6060   -0.7096   -4.3073 C   0  0  0  0  0  0  0  0  0  0  0  0
   49.9160   -0.7502   -3.5021 C   0  0  0  0  0  0  0  0  0  0  0  0
   51.1127   -0.1125   -4.2259 C   0  0  0  0  0  0  0  0  0  0  0  0
   51.4135   -0.6898   -5.5380 N   0  0  0  0  0  0  0  0  0  0  0  0
   51.0464    0.0539   -6.7556 C   0  0  0  0  0  0  0  0  0  0  0  0
   52.1484    0.9262   -7.4024 C   0  0  0  0  0  0  0  0  0  0  0  0
   52.6787    2.0882   -6.5384 C   0  0  0  0  0  0  0  0  0  0  0  0
   53.5929    2.9671   -7.2618 N   0  0  0  0  0  0  0  0  0  0  0  0
  1  2  1  0  0  0  0
  2  3  1  0  0  0  0
  3  4  1  0  0  0  0
  4  5  1  0  0  0  0
  5  6  1  0  0  0  0
  6  7  1  0  0  0  0
  7  8  1  0  0  0  0
  8  9  1  0  0  0  0
  9 10  1  0  0  0  0
 10 11  1  0  0  0  0
 11 12  1  0  0  0  0
 12 13  1  0  0  0  0
 13 14  1  0  0  0  0
M  END
>  <CHROM.1>
-66.20015196,65.61702788,77.25299467,176.32892794,-59.75613908,103.11953289
-56.91449888,104.60234439,95.65912909,-62.90689615,-172.95302289,50.15431272
-0.99353423,-6.29696207,-2.91301357,0.85294499,1.39839354

>  <Name>
ligand

>  <RI>
0

>  <Rbt.Current_Directory>
/home/itssahil/PROJECTS/Mol_Feturizer/New_Systems/rnas/4E8Q

>  <Rbt.Executable>
rbdock ($Id: //depot/dev/client3/rdock/2013.1/src/exe/rbdock.cxx#4 $)

>  <Rbt.Library>
libRbt.so (2013.1, Build901 2013/11/27)

>  <Rbt.Parameter_File>
/export/apps/rDock/src/rDock_2013.1_src/data/scripts/dock_solv.prm

>  <Rbt.Receptor>
prm/pocket_docking_6.prm

>  <SCORE>
-8.245

>  <SCORE.INTER>
-0.738648

>  <SCORE.INTER.CONST>
1

>  <SCORE.INTER.POLAR>
0

>  <SCORE.INTER.ROT>
11

>  <SCORE.INTER.SOLV>
8.60681

>  <SCORE.INTER.VDW>
-14.2947

>  <SCORE.INTER.norm>
-0.0527606

>  <SCORE.INTRA>
-7.50635

>  <SCORE.INTRA.DIHEDRAL>
-18.3736

>  <SCORE.INTRA.DIHEDRAL.0>
25.9209

>  <SCORE.INTRA.POLAR>
0

>  <SCORE.INTRA.POLAR.0>
0

>  <SCORE.INTRA.REPUL>
0

>  <SCORE.INTRA.REPUL.0>
0

>  <SCORE.INTRA.SOLV>
4.77276

>  <SCORE.INTRA.SOLV.lig_0>
-47.4815

>  <SCORE.INTRA.VDW>
-0.705916

>  <SCORE.INTRA.VDW.0>
-1.57492

>  <SCORE.INTRA.norm>
-0.536168

>  <SCORE.RESTR>
0

>  <SCORE.RESTR.CAVITY>
0

>  <SCORE.RESTR.norm>
0

>  <SCORE.SYSTEM>
0

>  <SCORE.SYSTEM.CONST>
0

>  <SCORE.SYSTEM.DIHEDRAL>
0

>  <SCORE.SYSTEM.SOLV>
0

>  <SCORE.SYSTEM.norm>
0

>  <SCORE.heavy>
14

>  <SCORE.norm>
-0.588928

>  <RMSD>
7.770

$$$$
ligand
 OpenBabel11021811493D
libRbt.so/2013.1/901 2013/11/27
 14 13  0  0  0  0  0  0  0  0999 V2000
   46.7763   -5.1767   -8.9930 N   0  0  0  0  0  0  0  0  0  0  0  0
   47.5547   -4.3291   -8.0981 C   0  0  0  0  0  0  0  0  0  0  0  0
   47.3522   -4.7493   -6.6268 C   0  0  0  0  0  0  0  0  0  0  0  0
   48.1889   -3.9486   -5.6091 C   0  0  0  0  0  0  0  0  0  0  0  0
   47.9106   -2.5122   -5.4611 N   0  0  0  0  0  0  0  0  0  0  0  0
   48.9222   -1.5978   -4.9196 C   0  0  0  0  0  0  0  0  0  0  0  0
   48.4923   -0.1305   -4.8322 C   0  0  0  0  0  0  0  0  0  0  0  0
   49.6671    0.8190   -4.5421 C   0  0  0  0  0  0  0  0  0  0  0  0
   50.6944    0.9062   -5.6820 C   0  0  0  0  0  0  0  0  0  0  0  0
   51.8600    1.7449   -5.3934 N   0  0  0  0  0  0  0  0  0  0  0  0
   52.7626    2.1302   -6.4922 C   0  0  0  0  0  0  0  0  0  0  0  0
   54.0299    2.9308   -6.1096 C   0  0  0  0  0  0  0  0  0  0  0  0
   54.8741    3.4559   -7.2884 C   0  0  0  0  0  0  0  0  0  0  0  0
   54.1570    4.4169   -8.1213 N   0  0  0  0  0  0  0  0  0  0  0  0
  1  2  1  0  0  0  0
  2  3  1  0  0  0  0
  3  4  1  0  0  0  0
  4  5  1  0  0  0  0
  5  6  1  0  0  0  0
  6  7  1  0  0  0  0
  7  8  1  0  0  0  0
  8  9  1  0  0  0  0
  9 10  1  0  0  0  0
 10 11  1  0  0  0  0
 11 12  1  0  0  0  0
 12 13  1  0  0  0  0
 13 14  1  0  0  0  0
M  END
>  <CHROM.1>
177.32054817,64.79951092,-157.56409880,179.65582447,-167.99910135,66.72644339
-176.61425992,-167.33500891,-175.73925355,-173.45514585,63.21832976,50.23161484
-0.43146947,-6.29749752,-2.71824425,0.78131419,1.02749633

>  <Name>
ligand

>  <RI>
0

>  <Rbt.Current_Directory>
/home/itssahil/PROJECTS/Mol_Feturizer/New_Systems/rnas/4E8Q

>  <Rbt.Executable>
rbdock ($Id: //depot/dev/client3/rdock/2013.1/src/exe/rbdock.cxx#4 $)

>  <Rbt.Library>
libRbt.so (2013.1, Build901 2013/11/27)

>  <Rbt.Parameter_File>
/export/apps/rDock/src/rDock_2013.1_src/data/scripts/dock_solv.prm

>  <Rbt.Receptor>
prm/pocket_docking_8.prm

>  <SCORE>
-12.0787

>  <SCORE.INTER>
-0.0775142

>  <SCORE.INTER.CONST>
1

>  <SCORE.INTER.POLAR>
0

>  <SCORE.INTER.ROT>
11

>  <SCORE.INTER.SOLV>
7.24824

>  <SCORE.INTER.VDW>
-13.4011

>  <SCORE.INTER.norm>
-0.00553673

>  <SCORE.INTRA>
-12.0012

>  <SCORE.INTRA.DIHEDRAL>
-24.3386

>  <SCORE.INTRA.DIHEDRAL.0>
25.9209

>  <SCORE.INTRA.POLAR>
0

>  <SCORE.INTRA.POLAR.0>
0

>  <SCORE.INTRA.REPUL>
0

>  <SCORE.INTRA.REPUL.0>
0

>  <SCORE.INTRA.SOLV>
-0.977061

>  <SCORE.INTRA.SOLV.lig_0>
-47.4815

>  <SCORE.INTRA.VDW>
0.656642

>  <SCORE.INTRA.VDW.0>
-1.57492

>  <SCORE.INTRA.norm>
-0.857227

>  <SCORE.RESTR>
0

>  <SCORE.RESTR.CAVITY>
0

>  <SCORE.RESTR.norm>
0

>  <SCORE.SYSTEM>
0

>  <SCORE.SYSTEM.CONST>
0

>  <SCORE.SYSTEM.DIHEDRAL>
0

>  <SCORE.SYSTEM.SOLV>
0

>  <SCORE.SYSTEM.norm>
0

>  <SCORE.heavy>
14

>  <SCORE.norm>
-0.862764

>  <RMSD>
7.806

$$$$
ligand
 OpenBabel11021811493D
libRbt.so/2013.1/901 2013/11/27
 14 13  0  0  0  0  0  0  0  0999 V2000
   48.4168    5.9104   -6.4054 N   0  0  0  0  0  0  0  0  0  0  0  0
   49.1588    4.7505   -5.9263 C   0  0  0  0  0  0  0  0  0  0  0  0
   48.5885    4.2483   -4.5828 C   0  0  0  0  0  0  0  0  0  0  0  0
   49.4472    3.1777   -3.8806 C   0  0  0  0  0  0  0  0  0  0  0  0
   49.6476    1.8917   -4.5654 N   0  0  0  0  0  0  0  0  0  0  0  0
   50.4456    0.8244   -3.9517 C   0  0  0  0  0  0  0  0  0  0  0  0
   50.2349   -0.5702   -4.5485 C   0  0  0  0  0  0  0  0  0  0  0  0
   48.7966   -1.0848   -4.3685 C   0  0  0  0  0  0  0  0  0  0  0  0
   48.5279   -2.4357   -5.0508 C   0  0  0  0  0  0  0  0  0  0  0  0
   48.8123   -2.4637   -6.4874 N   0  0  0  0  0  0  0  0  0  0  0  0
   48.1367   -1.5026   -7.3763 C   0  0  0  0  0  0  0  0  0  0  0  0
   48.7366   -1.3148   -8.7899 C   0  0  0  0  0  0  0  0  0  0  0  0
   48.1820   -0.1275   -9.6027 C   0  0  0  0  0  0  0  0  0  0  0  0
   48.4770    1.1674   -8.9964 N   0  0  0  0  0  0  0  0  0  0  0  0
  1  2  1  0  0  0  0
  2  3  1  0  0  0  0
  3  4  1  0  0  0  0
  4  5  1  0  0  0  0
  5  6  1  0  0  0  0
  6  7  1  0  0  0  0
  7  8  1  0  0  0  0
  8  9  1  0  0  0  0
  9 10  1  0  0  0  0
 10 11  1  0  0  0  0
 11 12  1  0  0  0  0
 12 13  1  0  0  0  0
 13 14  1  0  0  0  0
M  END
>  <CHROM.1>
-170.27396106,-62.72760337,-179.58738343,162.53786223,-62.84375958,175.60535001
-56.39365142,-57.06898223,164.04237068,-169.07844245,63.93415217,48.97208878
0.89049961,-6.03781989,1.34945987,-1.31267163,0.07357684

>  <Name>
ligand

>  <RI>
0

>  <Rbt.Current_Directory>
/home/itssahil/PROJECTS/Mol_Feturizer/New_Systems/rnas/4E8Q

>  <Rbt.Executable>
rbdock ($Id: //depot/dev/client3/rdock/2013.1/src/exe/rbdock.cxx#4 $)

>  <Rbt.Library>
libRbt.so (2013.1, Build901 2013/11/27)

>  <Rbt.Parameter_File>
/export/apps/rDock/src/rDock_2013.1_src/data/scripts/dock_solv.prm

>  <Rbt.Receptor>
prm/pocket_docking_5.prm

>  <SCORE>
-10.1308

>  <SCORE.INTER>
1.7309

>  <SCORE.INTER.CONST>
1

>  <SCORE.INTER.POLAR>
0

>  <SCORE.INTER.ROT>
11

>  <SCORE.INTER.SOLV>
6.21869

>  <SCORE.INTER.VDW>
-11.8523

>  <SCORE.INTER.norm>
0.123636

>  <SCORE.INTRA>
-11.8645

>  <SCORE.INTRA.DIHEDRAL>
-24.4463

>  <SCORE.INTRA.DIHEDRAL.0>
25.9209

>  <SCORE.INTRA.POLAR>
0

>  <SCORE.INTRA.POLAR.0>
0

>  <SCORE.INTRA.REPUL>
0

>  <SCORE.INTRA.REPUL.0>
0

>  <SCORE.INTRA.SOLV>
-0.39799

>  <SCORE.INTRA.SOLV.lig_0>
-47.4815

>  <SCORE.INTRA.VDW>
0.557683

>  <SCORE.INTRA.VDW.0>
-1.57492

>  <SCORE.INTRA.norm>
-0.847463

>  <SCORE.RESTR>
0.00273647

>  <SCORE.RESTR.CAVITY>
0.00273647

>  <SCORE.RESTR.norm>
0.000195462

>  <SCORE.SYSTEM>
0

>  <SCORE.SYSTEM.CONST>
0

>  <SCORE.SYSTEM.DIHEDRAL>
0

>  <SCORE.SYSTEM.SOLV>
0

>  <SCORE.SYSTEM.norm>
0

>  <SCORE.heavy>
14

>  <SCORE.norm>
-0.723632

>  <RMSD>
8.044

$$$$
ligand
 OpenBabel11021811493D
libRbt.so/2013.1/901 2013/11/27
 14 13  0  0  0  0  0  0  0  0999 V2000
   48.2346    5.6272   -2.5196 N   0  0  0  0  0  0  0  0  0  0  0  0
   48.6985    4.3123   -2.9452 C   0  0  0  0  0  0  0  0  0  0  0  0
   48.5515    4.1441   -4.4725 C   0  0  0  0  0  0  0  0  0  0  0  0
   49.0508    2.7926   -5.0208 C   0  0  0  0  0  0  0  0  0  0  0  0
   48.4368    1.5631   -4.4973 N   0  0  0  0  0  0  0  0  0  0  0  0
   48.7867    0.2491   -5.0483 C   0  0  0  0  0  0  0  0  0  0  0  0
   48.0725   -0.9396   -4.3986 C   0  0  0  0  0  0  0  0  0  0  0  0
   48.3837   -2.2755   -5.0947 C   0  0  0  0  0  0  0  0  0  0  0  0
   47.7500   -2.4148   -6.4881 C   0  0  0  0  0  0  0  0  0  0  0  0
   48.2151   -1.4358   -7.4733 N   0  0  0  0  0  0  0  0  0  0  0  0
   47.4598   -1.2564   -8.7255 C   0  0  0  0  0  0  0  0  0  0  0  0
   48.0861   -0.3298   -9.7945 C   0  0  0  0  0  0  0  0  0  0  0  0
   48.3257    1.1304   -9.3605 C   0  0  0  0  0  0  0  0  0  0  0  0
   48.8866    1.9580  -10.4244 N   0  0  0  0  0  0  0  0  0  0  0  0
  1  2  1  0  0  0  0
  2  3  1  0  0  0  0
  3  4  1  0  0  0  0
  4  5  1  0  0  0  0
  5  6  1  0  0  0  0
  6  7  1  0  0  0  0
  7  8  1  0  0  0  0
  8  9  1  0  0  0  0
  9 10  1  0  0  0  0
 10 11  1  0  0  0  0
 11 12  1  0  0  0  0
 12 13  1  0  0  0  0
 13 14  1  0  0  0  0
M  END
>  <CHROM.1>
178.56868627,58.61231971,175.13555618,179.70959391,175.00313850,-70.64651761
62.65028824,-165.29472130,-173.19208543,-60.05300503,-178.56005890,48.35271019
0.93708122,-6.16164507,-0.80731345,-1.47614761,-1.59875909

>  <Name>
ligand

>  <RI>
0

>  <Rbt.Current_Directory>
/home/itssahil/PROJECTS/Mol_Feturizer/New_Systems/rnas/4E8Q

>  <Rbt.Executable>
rbdock ($Id: //depot/dev/client3/rdock/2013.1/src/exe/rbdock.cxx#4 $)

>  <Rbt.Library>
libRbt.so (2013.1, Build901 2013/11/27)

>  <Rbt.Parameter_File>
/export/apps/rDock/src/rDock_2013.1_src/data/scripts/dock_solv.prm

>  <Rbt.Receptor>
prm/pocket_docking_8.prm

>  <SCORE>
-13.2975

>  <SCORE.INTER>
-0.823013

>  <SCORE.INTER.CONST>
1

>  <SCORE.INTER.POLAR>
0

>  <SCORE.INTER.ROT>
11

>  <SCORE.INTER.SOLV>
8.15721

>  <SCORE.INTER.VDW>
-14.2011

>  <SCORE.INTER.norm>
-0.0587867

>  <SCORE.INTRA>
-12.4745

>  <SCORE.INTRA.DIHEDRAL>
-25.0879

>  <SCORE.INTRA.DIHEDRAL.0>
25.9209

>  <SCORE.INTRA.POLAR>
0

>  <SCORE.INTRA.POLAR.0>
0

>  <SCORE.INTRA.REPUL>
0

>  <SCORE.INTRA.REPUL.0>
0

>  <SCORE.INTRA.SOLV>
-0.442439

>  <SCORE.INTRA.SOLV.lig_0>
-47.4815

>  <SCORE.INTRA.VDW>
0.290651

>  <SCORE.INTRA.VDW.0>
-1.57492

>  <SCORE.INTRA.norm>
-0.891038

>  <SCORE.RESTR>
0

>  <SCORE.RESTR.CAVITY>
0

>  <SCORE.RESTR.norm>
0

>  <SCORE.SYSTEM>
0

>  <SCORE.SYSTEM.CONST>
0

>  <SCORE.SYSTEM.DIHEDRAL>
0

>  <SCORE.SYSTEM.SOLV>
0

>  <SCORE.SYSTEM.norm>
0

>  <SCORE.heavy>
14

>  <SCORE.norm>
-0.949824

>  <RMSD>
8.260

$$$$
ligand
 OpenBabel11021811493D
libRbt.so/2013.1/901 2013/11/27
 14 13  0  0  0  0  0  0  0  0999 V2000
   51.0739    0.0792   -0.8083 N   0  0  0  0  0  0  0  0  0  0  0  0
   51.5977    0.6114   -2.0603 C   0  0  0  0  0  0  0  0  0  0  0  0
   51.2951   -0.3440   -3.2343 C   0  0  0  0  0  0  0  0  0  0  0  0
   49.7950   -0.5770   -3.5025 C   0  0  0  0  0  0  0  0  0  0  0  0
   49.4191   -1.4424   -4.6307 N   0  0  0  0  0  0  0  0  0  0  0  0
   48.0980   -1.3340   -5.2595 C   0  0  0  0  0  0  0  0  0  0  0  0
   47.8789   -2.2423   -6.4729 C   0  0  0  0  0  0  0  0  0  0  0  0
   46.5302   -1.9929   -7.1689 C   0  0  0  0  0  0  0  0  0  0  0  0
   46.2907   -2.8804   -8.4008 C   0  0  0  0  0  0  0  0  0  0  0  0
   47.2807   -2.7256   -9.4691 N   0  0  0  0  0  0  0  0  0  0  0  0
   47.9175   -3.9238  -10.0430 C   0  0  0  0  0  0  0  0  0  0  0  0
   49.2813   -4.3456   -9.4467 C   0  0  0  0  0  0  0  0  0  0  0  0
   50.3993   -3.2854   -9.5111 C   0  0  0  0  0  0  0  0  0  0  0  0
   50.7692   -2.9274  -10.8773 N   0  0  0  0  0  0  0  0  0  0  0  0
  1  2  1  0  0  0  0
  2  3  1  0  0  0  0
  3  4  1  0  0  0  0
  4  5  1  0  0  0  0
  5  6  1  0  0  0  0
  6  7  1  0  0  0  0
  7  8  1  0  0  0  0
  8  9  1  0  0  0  0
  9 10  1  0  0  0  0
 10 11  1  0  0  0  0
 11 12  1  0  0  0  0
 12 13  1  0  0  0  0
 13 14  1  0  0  0  0
M  END
>  <CHROM.1>
61.59329195,178.16150033,-157.19958860,176.60941471,-174.63979648,179.33568505
-59.99806318,130.05039903,-94.72366045,-57.88598300,-63.11215294,49.11597855
-1.95222263,-6.49183528,-1.28541389,-0.04915879,-1.97642017

>  <Name>
ligand

>  <RI>
0

>  <Rbt.Current_Directory>
/home/itssahil/PROJECTS/Mol_Feturizer/New_Systems/rnas/4E8Q

>  <Rbt.Executable>
rbdock ($Id: //depot/dev/client3/rdock/2013.1/src/exe/rbdock.cxx#4 $)

>  <Rbt.Library>
libRbt.so (2013.1, Build901 2013/11/27)

>  <Rbt.Parameter_File>
/export/apps/rDock/src/rDock_2013.1_src/data/scripts/dock_solv.prm

>  <Rbt.Receptor>
prm/pocket_docking_8.prm

>  <SCORE>
-13.7138

>  <SCORE.INTER>
-2.26541

>  <SCORE.INTER.CONST>
1

>  <SCORE.INTER.POLAR>
0

>  <SCORE.INTER.ROT>
11

>  <SCORE.INTER.SOLV>
12.5023

>  <SCORE.INTER.VDW>
-16.611

>  <SCORE.INTER.norm>
-0.161815

>  <SCORE.INTRA>
-11.4484

>  <SCORE.INTRA.DIHEDRAL>
-23.481

>  <SCORE.INTRA.DIHEDRAL.0>
25.9209

>  <SCORE.INTRA.POLAR>
0

>  <SCORE.INTRA.POLAR.0>
0

>  <SCORE.INTRA.REPUL>
0

>  <SCORE.INTRA.REPUL.0>
0

>  <SCORE.INTRA.SOLV>
0.534862

>  <SCORE.INTRA.SOLV.lig_0>
-47.4815

>  <SCORE.INTRA.VDW>
0.0246248

>  <SCORE.INTRA.VDW.0>
-1.57492

>  <SCORE.INTRA.norm>
-0.817744

>  <SCORE.RESTR>
0

>  <SCORE.RESTR.CAVITY>
0

>  <SCORE.RESTR.norm>
0

>  <SCORE.SYSTEM>
0

>  <SCORE.SYSTEM.CONST>
0

>  <SCORE.SYSTEM.DIHEDRAL>
0

>  <SCORE.SYSTEM.SOLV>
0

>  <SCORE.SYSTEM.norm>
0

>  <SCORE.heavy>
14

>  <SCORE.norm>
-0.979559

>  <RMSD>
8.373

$$$$
ligand
 OpenBabel11021811493D
libRbt.so/2013.1/901 2013/11/27
 14 13  0  0  0  0  0  0  0  0999 V2000
   49.1875   -2.9435  -10.0987 N   0  0  0  0  0  0  0  0  0  0  0  0
   48.7397   -2.8024   -8.7186 C   0  0  0  0  0  0  0  0  0  0  0  0
   47.2069   -2.6335   -8.6515 C   0  0  0  0  0  0  0  0  0  0  0  0
   46.6224   -2.6354   -7.2249 C   0  0  0  0  0  0  0  0  0  0  0  0
   47.0346   -1.5638   -6.3059 N   0  0  0  0  0  0  0  0  0  0  0  0
   48.2642   -1.6782   -5.5138 C   0  0  0  0  0  0  0  0  0  0  0  0
   48.4476   -0.6031   -4.4387 C   0  0  0  0  0  0  0  0  0  0  0  0
   49.7512   -0.7741   -3.6405 C   0  0  0  0  0  0  0  0  0  0  0  0
   51.0240   -0.5142   -4.4621 C   0  0  0  0  0  0  0  0  0  0  0  0
   51.1148    0.8272   -5.0432 N   0  0  0  0  0  0  0  0  0  0  0  0
   50.7845    1.0221   -6.4656 C   0  0  0  0  0  0  0  0  0  0  0  0
   51.7602    0.4139   -7.5008 C   0  0  0  0  0  0  0  0  0  0  0  0
   51.4594    0.7374   -8.9783 C   0  0  0  0  0  0  0  0  0  0  0  0
   52.4488    0.1829   -9.8975 N   0  0  0  0  0  0  0  0  0  0  0  0
  1  2  1  0  0  0  0
  2  3  1  0  0  0  0
  3  4  1  0  0  0  0
  4  5  1  0  0  0  0
  5  6  1  0  0  0  0
  6  7  1  0  0  0  0
  7  8  1  0  0  0  0
  8  9  1  0  0  0  0
  9 10  1  0  0  0  0
 10 11  1  0  0  0  0
 11 12  1  0  0  0  0
 12 13  1  0  0  0  0
 13 14  1  0  0  0  0
M  END
>  <CHROM.1>
173.46661835,62.70798055,-85.37631882,-170.37648990,179.94635542,68.06373281
59.23121332,-100.76234796,-69.08088025,-174.82323116,177.48725715,49.56025062
-0.92607751,-6.92392025,-2.66064208,0.59534411,1.31855938

>  <Name>
ligand

>  <RI>
0

>  <Rbt.Current_Directory>
/home/itssahil/PROJECTS/Mol_Feturizer/New_Systems/rnas/4E8Q

>  <Rbt.Executable>
rbdock ($Id: //depot/dev/client3/rdock/2013.1/src/exe/rbdock.cxx#4 $)

>  <Rbt.Library>
libRbt.so (2013.1, Build901 2013/11/27)

>  <Rbt.Parameter_File>
/export/apps/rDock/src/rDock_2013.1_src/data/scripts/dock_solv.prm

>  <Rbt.Receptor>
prm/pocket_docking_8.prm

>  <SCORE>
-12.584

>  <SCORE.INTER>
-0.465557

>  <SCORE.INTER.CONST>
1

>  <SCORE.INTER.POLAR>
0

>  <SCORE.INTER.ROT>
11

>  <SCORE.INTER.SOLV>
7.74254

>  <SCORE.INTER.VDW>
-13.8246

>  <SCORE.INTER.norm>
-0.0332541

>  <SCORE.INTRA>
-12.1185

>  <SCORE.INTRA.DIHEDRAL>
-23.8199

>  <SCORE.INTRA.DIHEDRAL.0>
25.9209

>  <SCORE.INTRA.POLAR>
0

>  <SCORE.INTRA.POLAR.0>
0

>  <SCORE.INTRA.REPUL>
0

>  <SCORE.INTRA.REPUL.0>
0

>  <SCORE.INTRA.SOLV>
-0.852172

>  <SCORE.INTRA.SOLV.lig_0>
-47.4815

>  <SCORE.INTRA.VDW>
0.217552

>  <SCORE.INTRA.VDW.0>
-1.57492

>  <SCORE.INTRA.norm>
-0.865607

>  <SCORE.RESTR>
0

>  <SCORE.RESTR.CAVITY>
0

>  <SCORE.RESTR.norm>
0

>  <SCORE.SYSTEM>
0

>  <SCORE.SYSTEM.CONST>
0

>  <SCORE.SYSTEM.DIHEDRAL>
0

>  <SCORE.SYSTEM.SOLV>
0

>  <SCORE.SYSTEM.norm>
0

>  <SCORE.heavy>
14

>  <SCORE.norm>
-0.898861

>  <RMSD>
8.379

$$$$
ligand
 OpenBabel11021811493D
libRbt.so/2013.1/901 2013/11/27
 14 13  0  0  0  0  0  0  0  0999 V2000
   49.9843    4.0437   -3.4538 N   0  0  0  0  0  0  0  0  0  0  0  0
   48.8512    3.3517   -4.0558 C   0  0  0  0  0  0  0  0  0  0  0  0
   49.1170    3.0530   -5.5467 C   0  0  0  0  0  0  0  0  0  0  0  0
   50.2730    2.0670   -5.8080 C   0  0  0  0  0  0  0  0  0  0  0  0
   50.6981    1.8509   -7.1992 N   0  0  0  0  0  0  0  0  0  0  0  0
   51.1878    0.5419   -7.6457 C   0  0  0  0  0  0  0  0  0  0  0  0
   50.1180   -0.5479   -7.7610 C   0  0  0  0  0  0  0  0  0  0  0  0
   49.0220   -0.2020   -8.7833 C   0  0  0  0  0  0  0  0  0  0  0  0
   47.9006   -1.2493   -8.8734 C   0  0  0  0  0  0  0  0  0  0  0  0
   47.1716   -1.4752   -7.6232 N   0  0  0  0  0  0  0  0  0  0  0  0
   46.2179   -2.5947   -7.5354 C   0  0  0  0  0  0  0  0  0  0  0  0
   46.8161   -4.0168   -7.4199 C   0  0  0  0  0  0  0  0  0  0  0  0
   47.7340   -4.2628   -6.2055 C   0  0  0  0  0  0  0  0  0  0  0  0
   48.4089   -5.5566   -6.2521 N   0  0  0  0  0  0  0  0  0  0  0  0
  1  2  1  0  0  0  0
  2  3  1  0  0  0  0
  3  4  1  0  0  0  0
  4  5  1  0  0  0  0
  5  6  1  0  0  0  0
  6  7  1  0  0  0  0
  7  8  1  0  0  0  0
  8  9  1  0  0  0  0
  9 10  1  0  0  0  0
 10 11  1  0  0  0  0
 11 12  1  0  0  0  0
 12 13  1  0  0  0  0
 13 14  1  0  0  0  0
M  END
>  <CHROM.1>
65.07883382,-172.83582298,-146.41192004,71.59393598,61.29262184,-177.36543162
59.85211512,-170.79887472,74.41383540,58.92019259,-172.07784375,48.82136556
-0.35696516,-6.72618564,0.95248772,0.97896676,0.83426861

>  <Name>
ligand

>  <RI>
0

>  <Rbt.Current_Directory>
/home/itssahil/PROJECTS/Mol_Feturizer/New_Systems/rnas/4E8Q

>  <Rbt.Executable>
rbdock ($Id: //depot/dev/client3/rdock/2013.1/src/exe/rbdock.cxx#4 $)

>  <Rbt.Library>
libRbt.so (2013.1, Build901 2013/11/27)

>  <Rbt.Parameter_File>
/export/apps/rDock/src/rDock_2013.1_src/data/scripts/dock_solv.prm

>  <Rbt.Receptor>
prm/pocket_docking_7.prm

>  <SCORE>
-8.64708

>  <SCORE.INTER>
3.34541

>  <SCORE.INTER.CONST>
1

>  <SCORE.INTER.POLAR>
0

>  <SCORE.INTER.ROT>
11

>  <SCORE.INTER.SOLV>
7.68518

>  <SCORE.INTER.VDW>
-11.2648

>  <SCORE.INTER.norm>
0.238958

>  <SCORE.INTRA>
-11.9925

>  <SCORE.INTRA.DIHEDRAL>
-24.3076

>  <SCORE.INTRA.DIHEDRAL.0>
25.9209

>  <SCORE.INTRA.POLAR>
0

>  <SCORE.INTRA.POLAR.0>
0

>  <SCORE.INTRA.REPUL>
0

>  <SCORE.INTRA.REPUL.0>
0

>  <SCORE.INTRA.SOLV>
-0.404869

>  <SCORE.INTRA.SOLV.lig_0>
-47.4815

>  <SCORE.INTRA.VDW>
0.363726

>  <SCORE.INTRA.VDW.0>
-1.57492

>  <SCORE.INTRA.norm>
-0.856606

>  <SCORE.RESTR>
0

>  <SCORE.RESTR.CAVITY>
0

>  <SCORE.RESTR.norm>
0

>  <SCORE.SYSTEM>
0

>  <SCORE.SYSTEM.CONST>
0

>  <SCORE.SYSTEM.DIHEDRAL>
0

>  <SCORE.SYSTEM.SOLV>
0

>  <SCORE.SYSTEM.norm>
0

>  <SCORE.heavy>
14

>  <SCORE.norm>
-0.617649

>  <RMSD>
8.635

$$$$
ligand
 OpenBabel11021811493D
libRbt.so/2013.1/901 2013/11/27
 14 13  0  0  0  0  0  0  0  0999 V2000
   46.7699   -5.2028   -8.8260 N   0  0  0  0  0  0  0  0  0  0  0  0
   47.1144   -4.9291   -7.4362 C   0  0  0  0  0  0  0  0  0  0  0  0
   48.5388   -4.3448   -7.3265 C   0  0  0  0  0  0  0  0  0  0  0  0
   49.0087   -4.0642   -5.8853 C   0  0  0  0  0  0  0  0  0  0  0  0
   48.2248   -3.1225   -5.0719 N   0  0  0  0  0  0  0  0  0  0  0  0
   48.1118   -1.7093   -5.4497 C   0  0  0  0  0  0  0  0  0  0  0  0
   48.3029   -0.7123   -4.3030 C   0  0  0  0  0  0  0  0  0  0  0  0
   49.6837   -0.8286   -3.6355 C   0  0  0  0  0  0  0  0  0  0  0  0
   50.8599   -0.5375   -4.5813 C   0  0  0  0  0  0  0  0  0  0  0  0
   50.7594    0.7277   -5.3124 N   0  0  0  0  0  0  0  0  0  0  0  0
   51.5412    0.9123   -6.5474 C   0  0  0  0  0  0  0  0  0  0  0  0
   50.8233    1.5961   -7.7350 C   0  0  0  0  0  0  0  0  0  0  0  0
   50.2598    3.0046   -7.4584 C   0  0  0  0  0  0  0  0  0  0  0  0
   49.5862    3.5878   -8.6150 N   0  0  0  0  0  0  0  0  0  0  0  0
  1  2  1  0  0  0  0
  2  3  1  0  0  0  0
  3  4  1  0  0  0  0
  4  5  1  0  0  0  0
  5  6  1  0  0  0  0
  6  7  1  0  0  0  0
  7  8  1  0  0  0  0
  8  9  1  0  0  0  0
  9 10  1  0  0  0  0
 10 11  1  0  0  0  0
 11 12  1  0  0  0  0
 12 13  1  0  0  0  0
 13 14  1  0  0  0  0
M  END
>  <CHROM.1>
-178.16288898,-59.54525367,-63.96884201,-134.68442048,59.90909615,61.71611713
51.82504008,-159.29120151,137.70918652,57.85915295,-179.51779091,49.25621923
-1.11594909,-6.29855713,2.65283748,1.11013481,2.11307304

>  <Name>
ligand

>  <RI>
0

>  <Rbt.Current_Directory>
/home/itssahil/PROJECTS/Mol_Feturizer/New_Systems/rnas/4E8Q

>  <Rbt.Executable>
rbdock ($Id: //depot/dev/client3/rdock/2013.1/src/exe/rbdock.cxx#4 $)

>  <Rbt.Library>
libRbt.so (2013.1, Build901 2013/11/27)

>  <Rbt.Parameter_File>
/export/apps/rDock/src/rDock_2013.1_src/data/scripts/dock_solv.prm

>  <Rbt.Receptor>
prm/pocket_docking_8.prm

>  <SCORE>
-11.3462

>  <SCORE.INTER>
-0.135559

>  <SCORE.INTER.CONST>
1

>  <SCORE.INTER.POLAR>
0

>  <SCORE.INTER.ROT>
11

>  <SCORE.INTER.SOLV>
6.96745

>  <SCORE.INTER.VDW>
-13.3462

>  <SCORE.INTER.norm>
-0.00968275

>  <SCORE.INTRA>
-11.2106

>  <SCORE.INTRA.DIHEDRAL>
-23.3042

>  <SCORE.INTRA.DIHEDRAL.0>
25.9209

>  <SCORE.INTRA.POLAR>
0

>  <SCORE.INTRA.POLAR.0>
0

>  <SCORE.INTRA.REPUL>
0

>  <SCORE.INTRA.REPUL.0>
0

>  <SCORE.INTRA.SOLV>
-0.151027

>  <SCORE.INTRA.SOLV.lig_0>
-47.4815

>  <SCORE.INTRA.VDW>
0.516962

>  <SCORE.INTRA.VDW.0>
-1.57492

>  <SCORE.INTRA.norm>
-0.800759

>  <SCORE.RESTR>
0

>  <SCORE.RESTR.CAVITY>
0

>  <SCORE.RESTR.norm>
0

>  <SCORE.SYSTEM>
0

>  <SCORE.SYSTEM.CONST>
0

>  <SCORE.SYSTEM.DIHEDRAL>
0

>  <SCORE.SYSTEM.SOLV>
0

>  <SCORE.SYSTEM.norm>
0

>  <SCORE.heavy>
14

>  <SCORE.norm>
-0.810442

>  <RMSD>
8.671

$$$$
ligand
 OpenBabel11021811493D
libRbt.so/2013.1/901 2013/11/27
 14 13  0  0  0  0  0  0  0  0999 V2000
   50.6262   -2.7790  -10.7154 N   0  0  0  0  0  0  0  0  0  0  0  0
   49.7881   -3.8701  -10.2335 C   0  0  0  0  0  0  0  0  0  0  0  0
   49.6873   -3.8483   -8.6934 C   0  0  0  0  0  0  0  0  0  0  0  0
   48.7522   -4.9184   -8.0957 C   0  0  0  0  0  0  0  0  0  0  0  0
   48.5805   -4.9509   -6.6355 N   0  0  0  0  0  0  0  0  0  0  0  0
   47.9851   -3.8177   -5.9187 C   0  0  0  0  0  0  0  0  0  0  0  0
   48.9778   -2.7481   -5.4540 C   0  0  0  0  0  0  0  0  0  0  0  0
   48.3056   -1.6153   -4.6598 C   0  0  0  0  0  0  0  0  0  0  0  0
   49.2927   -0.5892   -4.0805 C   0  0  0  0  0  0  0  0  0  0  0  0
   49.9363    0.2712   -5.0760 N   0  0  0  0  0  0  0  0  0  0  0  0
   49.3169    1.5619   -5.4237 C   0  0  0  0  0  0  0  0  0  0  0  0
   49.3676    2.6748   -4.3502 C   0  0  0  0  0  0  0  0  0  0  0  0
   48.6003    3.9691   -4.6878 C   0  0  0  0  0  0  0  0  0  0  0  0
   48.7301    4.9955   -3.6576 N   0  0  0  0  0  0  0  0  0  0  0  0
  1  2  1  0  0  0  0
  2  3  1  0  0  0  0
  3  4  1  0  0  0  0
  4  5  1  0  0  0  0
  5  6  1  0  0  0  0
  6  7  1  0  0  0  0
  7  8  1  0  0  0  0
  8  9  1  0  0  0  0
  9 10  1  0  0  0  0
 10 11  1  0  0  0  0
 11 12  1  0  0  0  0
 12 13  1  0  0  0  0
 13 14  1  0  0  0  0
M  END
>  <CHROM.1>
176.59416424,-178.91282400,62.97906594,-89.35700778,-177.64498066,175.16350487
70.29226330,91.51211877,70.72556993,-174.56219465,-177.82065690,49.13891379
-1.11910224,-6.26287737,-1.45770773,1.22669109,0.42181083

>  <Name>
ligand

>  <RI>
0

>  <Rbt.Current_Directory>
/home/itssahil/PROJECTS/Mol_Feturizer/New_Systems/rnas/4E8Q

>  <Rbt.Executable>
rbdock ($Id: //depot/dev/client3/rdock/2013.1/src/exe/rbdock.cxx#4 $)

>  <Rbt.Library>
libRbt.so (2013.1, Build901 2013/11/27)

>  <Rbt.Parameter_File>
/export/apps/rDock/src/rDock_2013.1_src/data/scripts/dock_solv.prm

>  <Rbt.Receptor>
prm/pocket_docking_8.prm

>  <SCORE>
-12.088

>  <SCORE.INTER>
0.100627

>  <SCORE.INTER.CONST>
1

>  <SCORE.INTER.POLAR>
0

>  <SCORE.INTER.ROT>
11

>  <SCORE.INTER.SOLV>
6.83907

>  <SCORE.INTER.VDW>
-13.1459

>  <SCORE.INTER.norm>
0.00718767

>  <SCORE.INTRA>
-12.1887

>  <SCORE.INTRA.DIHEDRAL>
-23.9072

>  <SCORE.INTRA.DIHEDRAL.0>
25.9209

>  <SCORE.INTRA.POLAR>
0

>  <SCORE.INTRA.POLAR.0>
0

>  <SCORE.INTRA.REPUL>
0

>  <SCORE.INTRA.REPUL.0>
0

>  <SCORE.INTRA.SOLV>
-1.82124

>  <SCORE.INTRA.SOLV.lig_0>
-47.4815

>  <SCORE.INTRA.VDW>
0.675558

>  <SCORE.INTRA.VDW.0>
-1.57492

>  <SCORE.INTRA.norm>
-0.870618

>  <SCORE.RESTR>
0

>  <SCORE.RESTR.CAVITY>
0

>  <SCORE.RESTR.norm>
0

>  <SCORE.SYSTEM>
0

>  <SCORE.SYSTEM.CONST>
0

>  <SCORE.SYSTEM.DIHEDRAL>
0

>  <SCORE.SYSTEM.SOLV>
0

>  <SCORE.SYSTEM.norm>
0

>  <SCORE.heavy>
14

>  <SCORE.norm>
-0.86343

>  <RMSD>
8.742

$$$$
ligand
 OpenBabel11021811493D
libRbt.so/2013.1/901 2013/11/27
 14 13  0  0  0  0  0  0  0  0999 V2000
   55.9513    4.1197   -1.1813 N   0  0  0  0  0  0  0  0  0  0  0  0
   57.3081    3.8488   -0.7220 C   0  0  0  0  0  0  0  0  0  0  0  0
   57.3051    3.3423    0.7361 C   0  0  0  0  0  0  0  0  0  0  0  0
   58.7053    3.1223    1.3425 C   0  0  0  0  0  0  0  0  0  0  0  0
   58.7961    2.4707    2.6577 N   0  0  0  0  0  0  0  0  0  0  0  0
   58.5200    1.0381    2.8126 C   0  0  0  0  0  0  0  0  0  0  0  0
   59.7318    0.1191    2.6327 C   0  0  0  0  0  0  0  0  0  0  0  0
   59.4414   -1.3366    3.0358 C   0  0  0  0  0  0  0  0  0  0  0  0
   60.6767   -2.2507    3.0034 C   0  0  0  0  0  0  0  0  0  0  0  0
   61.7735   -1.8296    3.8781 N   0  0  0  0  0  0  0  0  0  0  0  0
   61.6278   -1.9692    5.3374 C   0  0  0  0  0  0  0  0  0  0  0  0
   62.6080   -1.1602    6.2197 C   0  0  0  0  0  0  0  0  0  0  0  0
   62.4798   -1.3791    7.7407 C   0  0  0  0  0  0  0  0  0  0  0  0
   61.1885   -0.9530    8.2724 N   0  0  0  0  0  0  0  0  0  0  0  0
  1  2  1  0  0  0  0
  2  3  1  0  0  0  0
  3  4  1  0  0  0  0
  4  5  1  0  0  0  0
  5  6  1  0  0  0  0
  6  7  1  0  0  0  0
  7  8  1  0  0  0  0
  8  9  1  0  0  0  0
  9 10  1  0  0  0  0
 10 11  1  0  0  0  0
 11 12  1  0  0  0  0
 12 13  1  0  0  0  0
 13 14  1  0  0  0  0
M  END
>  <CHROM.1>
-175.93076631,-171.87623883,72.05151461,89.32023666,170.31803376,-174.04201737
59.08364466,71.66884099,-163.03961317,-177.05363019,-63.42905224,59.72249728
0.51286455,3.26893148,2.96162654,1.03954921,-2.25302546

>  <Name>
ligand

>  <RI>
0

>  <Rbt.Current_Directory>
/home/itssahil/PROJECTS/Mol_Feturizer/New_Systems/rnas/4E8Q

>  <Rbt.Executable>
rbdock ($Id: //depot/dev/client3/rdock/2013.1/src/exe/rbdock.cxx#4 $)

>  <Rbt.Library>
libRbt.so (2013.1, Build901 2013/11/27)

>  <Rbt.Parameter_File>
/export/apps/rDock/src/rDock_2013.1_src/data/scripts/dock_solv.prm

>  <Rbt.Receptor>
prm/pocket_docking_8.prm

>  <SCORE>
-10.8845

>  <SCORE.INTER>
1.02047

>  <SCORE.INTER.CONST>
1

>  <SCORE.INTER.POLAR>
0

>  <SCORE.INTER.ROT>
11

>  <SCORE.INTER.SOLV>
9.22593

>  <SCORE.INTER.VDW>
-13.3283

>  <SCORE.INTER.norm>
0.0728905

>  <SCORE.INTRA>
-11.9049

>  <SCORE.INTRA.DIHEDRAL>
-24.0132

>  <SCORE.INTRA.DIHEDRAL.0>
25.9209

>  <SCORE.INTRA.POLAR>
0

>  <SCORE.INTRA.POLAR.0>
0

>  <SCORE.INTRA.REPUL>
0

>  <SCORE.INTRA.REPUL.0>
0

>  <SCORE.INTRA.SOLV>
-1.06871

>  <SCORE.INTRA.SOLV.lig_0>
-47.4815

>  <SCORE.INTRA.VDW>
0.636026

>  <SCORE.INTRA.VDW.0>
-1.57492

>  <SCORE.INTRA.norm>
-0.850353

>  <SCORE.RESTR>
0

>  <SCORE.RESTR.CAVITY>
0

>  <SCORE.RESTR.norm>
0

>  <SCORE.SYSTEM>
0

>  <SCORE.SYSTEM.CONST>
0

>  <SCORE.SYSTEM.DIHEDRAL>
0

>  <SCORE.SYSTEM.SOLV>
0

>  <SCORE.SYSTEM.norm>
0

>  <SCORE.heavy>
14

>  <SCORE.norm>
-0.777463

>  <RMSD>
8.875

$$$$
ligand
 OpenBabel11021811493D
libRbt.so/2013.1/901 2013/11/27
 14 13  0  0  0  0  0  0  0  0999 V2000
   47.1659   -5.5776   -7.9938 N   0  0  0  0  0  0  0  0  0  0  0  0
   47.0881   -4.5140   -6.9999 C   0  0  0  0  0  0  0  0  0  0  0  0
   46.9631   -3.1335   -7.6790 C   0  0  0  0  0  0  0  0  0  0  0  0
   46.9983   -1.9353   -6.7096 C   0  0  0  0  0  0  0  0  0  0  0  0
   48.1749   -1.7813   -5.8408 N   0  0  0  0  0  0  0  0  0  0  0  0
   48.0786   -1.0830   -4.5541 C   0  0  0  0  0  0  0  0  0  0  0  0
   49.4169   -0.8066   -3.8626 C   0  0  0  0  0  0  0  0  0  0  0  0
   50.3108    0.1598   -4.6580 C   0  0  0  0  0  0  0  0  0  0  0  0
   50.8611   -0.4328   -5.9651 C   0  0  0  0  0  0  0  0  0  0  0  0
   51.6119    0.5105   -6.7970 N   0  0  0  0  0  0  0  0  0  0  0  0
   52.1203    0.0712   -8.1081 C   0  0  0  0  0  0  0  0  0  0  0  0
   52.4852    1.1788   -9.1246 C   0  0  0  0  0  0  0  0  0  0  0  0
   51.3323    2.1143   -9.5415 C   0  0  0  0  0  0  0  0  0  0  0  0
   51.7271    3.0934  -10.5499 N   0  0  0  0  0  0  0  0  0  0  0  0
  1  2  1  0  0  0  0
  2  3  1  0  0  0  0
  3  4  1  0  0  0  0
  4  5  1  0  0  0  0
  5  6  1  0  0  0  0
  6  7  1  0  0  0  0
  7  8  1  0  0  0  0
  8  9  1  0  0  0  0
  9 10  1  0  0  0  0
 10 11  1  0  0  0  0
 11 12  1  0  0  0  0
 12 13  1  0  0  0  0
 13 14  1  0  0  0  0
M  END
>  <CHROM.1>
-174.91706201,57.79951869,-153.60592832,-170.80246313,64.65522312,-69.28338839
174.61026716,-176.58733821,160.63946990,-60.47913137,-177.17282022,49.59529921
-0.86683967,-7.02710165,2.90695171,0.87267177,1.45813643

>  <Name>
ligand

>  <RI>
0

>  <Rbt.Current_Directory>
/home/itssahil/PROJECTS/Mol_Feturizer/New_Systems/rnas/4E8Q

>  <Rbt.Executable>
rbdock ($Id: //depot/dev/client3/rdock/2013.1/src/exe/rbdock.cxx#4 $)

>  <Rbt.Library>
libRbt.so (2013.1, Build901 2013/11/27)

>  <Rbt.Parameter_File>
/export/apps/rDock/src/rDock_2013.1_src/data/scripts/dock_solv.prm

>  <Rbt.Receptor>
prm/pocket_docking_8.prm

>  <SCORE>
-12.4705

>  <SCORE.INTER>
-0.481994

>  <SCORE.INTER.CONST>
1

>  <SCORE.INTER.POLAR>
0

>  <SCORE.INTER.ROT>
11

>  <SCORE.INTER.SOLV>
5.50308

>  <SCORE.INTER.VDW>
-13.089

>  <SCORE.INTER.norm>
-0.0344281

>  <SCORE.INTRA>
-11.9885

>  <SCORE.INTRA.DIHEDRAL>
-24.3812

>  <SCORE.INTRA.DIHEDRAL.0>
25.9209

>  <SCORE.INTRA.POLAR>
0

>  <SCORE.INTRA.POLAR.0>
0

>  <SCORE.INTRA.REPUL>
0

>  <SCORE.INTRA.REPUL.0>
0

>  <SCORE.INTRA.SOLV>
-0.449088

>  <SCORE.INTRA.SOLV.lig_0>
-47.4815

>  <SCORE.INTRA.VDW>
0.426651

>  <SCORE.INTRA.VDW.0>
-1.57492

>  <SCORE.INTRA.norm>
-0.856322

>  <SCORE.RESTR>
0

>  <SCORE.RESTR.CAVITY>
0

>  <SCORE.RESTR.norm>
0

>  <SCORE.SYSTEM>
0

>  <SCORE.SYSTEM.CONST>
0

>  <SCORE.SYSTEM.DIHEDRAL>
0

>  <SCORE.SYSTEM.SOLV>
0

>  <SCORE.SYSTEM.norm>
0

>  <SCORE.heavy>
14

>  <SCORE.norm>
-0.89075

>  <RMSD>
8.893

$$$$
ligand
 OpenBabel11021811493D
libRbt.so/2013.1/901 2013/11/27
 14 13  0  0  0  0  0  0  0  0999 V2000
   50.5495   -0.3573   -0.6428 N   0  0  0  0  0  0  0  0  0  0  0  0
   51.2873    0.4608   -1.5976 C   0  0  0  0  0  0  0  0  0  0  0  0
   51.4194   -0.2615   -2.9554 C   0  0  0  0  0  0  0  0  0  0  0  0
   50.0806   -0.5437   -3.6657 C   0  0  0  0  0  0  0  0  0  0  0  0
   50.1217   -1.1319   -5.0130 N   0  0  0  0  0  0  0  0  0  0  0  0
   48.9047   -1.2501   -5.8239 C   0  0  0  0  0  0  0  0  0  0  0  0
   48.1503   -2.5745   -5.6751 C   0  0  0  0  0  0  0  0  0  0  0  0
   49.0469   -3.8016   -5.9119 C   0  0  0  0  0  0  0  0  0  0  0  0
   48.2840   -5.1357   -5.9375 C   0  0  0  0  0  0  0  0  0  0  0  0
   47.6817   -5.4723   -7.2295 N   0  0  0  0  0  0  0  0  0  0  0  0
   46.4652   -4.7648   -7.6655 C   0  0  0  0  0  0  0  0  0  0  0  0
   45.8649   -5.1795   -9.0298 C   0  0  0  0  0  0  0  0  0  0  0  0
   45.4227   -6.6519   -9.1495 C   0  0  0  0  0  0  0  0  0  0  0  0
   45.0438   -7.0260  -10.5089 N   0  0  0  0  0  0  0  0  0  0  0  0
  1  2  1  0  0  0  0
  2  3  1  0  0  0  0
  3  4  1  0  0  0  0
  4  5  1  0  0  0  0
  5  6  1  0  0  0  0
  6  7  1  0  0  0  0
  7  8  1  0  0  0  0
  8  9  1  0  0  0  0
  9 10  1  0  0  0  0
 10 11  1  0  0  0  0
 11 12  1  0  0  0  0
 12 13  1  0  0  0  0
 13 14  1  0  0  0  0
M  END
>  <CHROM.1>
62.72849204,175.21813272,-171.18003978,-91.78987878,-53.29721382,-172.99116173
83.76300957,-74.84078832,-179.12517660,60.44167625,-171.85825056,48.45166806
-3.12057545,-5.77183768,-0.12342356,1.06171428,2.55230916

>  <Name>
ligand

>  <RI>
0

>  <Rbt.Current_Directory>
/home/itssahil/PROJECTS/Mol_Feturizer/New_Systems/rnas/4E8Q

>  <Rbt.Executable>
rbdock ($Id: //depot/dev/client3/rdock/2013.1/src/exe/rbdock.cxx#4 $)

>  <Rbt.Library>
libRbt.so (2013.1, Build901 2013/11/27)

>  <Rbt.Parameter_File>
/export/apps/rDock/src/rDock_2013.1_src/data/scripts/dock_solv.prm

>  <Rbt.Receptor>
prm/blind_docking_100.prm

>  <SCORE>
-12.7817

>  <SCORE.INTER>
-1.86448

>  <SCORE.INTER.CONST>
1

>  <SCORE.INTER.POLAR>
0

>  <SCORE.INTER.ROT>
11

>  <SCORE.INTER.SOLV>
16.0511

>  <SCORE.INTER.VDW>
-17.5267

>  <SCORE.INTER.norm>
-0.133177

>  <SCORE.INTRA>
-10.9172

>  <SCORE.INTRA.DIHEDRAL>
-22.4205

>  <SCORE.INTRA.DIHEDRAL.0>
25.9209

>  <SCORE.INTRA.POLAR>
0

>  <SCORE.INTRA.POLAR.0>
0

>  <SCORE.INTRA.REPUL>
0

>  <SCORE.INTRA.REPUL.0>
0

>  <SCORE.INTRA.SOLV>
-0.483442

>  <SCORE.INTRA.SOLV.lig_0>
-47.4815

>  <SCORE.INTRA.VDW>
0.53474

>  <SCORE.INTRA.VDW.0>
-1.57492

>  <SCORE.INTRA.norm>
-0.779803

>  <SCORE.RESTR>
0

>  <SCORE.RESTR.CAVITY>
0

>  <SCORE.RESTR.norm>
0

>  <SCORE.SYSTEM>
0

>  <SCORE.SYSTEM.CONST>
0

>  <SCORE.SYSTEM.DIHEDRAL>
0

>  <SCORE.SYSTEM.SOLV>
0

>  <SCORE.SYSTEM.norm>
0

>  <SCORE.heavy>
14

>  <SCORE.norm>
-0.91298

>  <RMSD>
9.015

$$$$
ligand
 OpenBabel11021811493D
libRbt.so/2013.1/901 2013/11/27
 14 13  0  0  0  0  0  0  0  0999 V2000
   48.0384    5.0142   -9.1640 N   0  0  0  0  0  0  0  0  0  0  0  0
   49.3309    4.3428   -9.2258 C   0  0  0  0  0  0  0  0  0  0  0  0
   49.8939    4.1004   -7.8091 C   0  0  0  0  0  0  0  0  0  0  0  0
   49.0702    3.1209   -6.9496 C   0  0  0  0  0  0  0  0  0  0  0  0
   49.5413    2.8298   -5.5872 N   0  0  0  0  0  0  0  0  0  0  0  0
   48.8552    1.8444   -4.7441 C   0  0  0  0  0  0  0  0  0  0  0  0
   49.0778    0.3820   -5.1406 C   0  0  0  0  0  0  0  0  0  0  0  0
   48.0641   -0.5736   -4.4886 C   0  0  0  0  0  0  0  0  0  0  0  0
   48.2532   -2.0471   -4.8833 C   0  0  0  0  0  0  0  0  0  0  0  0
   48.1581   -2.3133   -6.3205 N   0  0  0  0  0  0  0  0  0  0  0  0
   46.9122   -1.9852   -7.0349 C   0  0  0  0  0  0  0  0  0  0  0  0
   47.0225   -1.7385   -8.5582 C   0  0  0  0  0  0  0  0  0  0  0  0
   47.9759   -0.6051   -8.9878 C   0  0  0  0  0  0  0  0  0  0  0  0
   48.1190   -0.4973  -10.4367 N   0  0  0  0  0  0  0  0  0  0  0  0
  1  2  1  0  0  0  0
  2  3  1  0  0  0  0
  3  4  1  0  0  0  0
  4  5  1  0  0  0  0
  5  6  1  0  0  0  0
  6  7  1  0  0  0  0
  7  8  1  0  0  0  0
  8  9  1  0  0  0  0
  9 10  1  0  0  0  0
 10 11  1  0  0  0  0
 11 12  1  0  0  0  0
 12 13  1  0  0  0  0
 13 14  1  0  0  0  0
M  END
>  <CHROM.1>
65.40782308,179.73990861,-176.13196818,73.28712332,-164.55635545,179.27232466
-58.82463361,-59.81590786,156.10746278,-58.34204511,175.22723857,48.45089505
0.84800660,-7.09471709,0.84253891,-1.25141778,-0.99093026

>  <Name>
ligand

>  <RI>
0

>  <Rbt.Current_Directory>
/home/itssahil/PROJECTS/Mol_Feturizer/New_Systems/rnas/4E8Q

>  <Rbt.Executable>
rbdock ($Id: //depot/dev/client3/rdock/2013.1/src/exe/rbdock.cxx#4 $)

>  <Rbt.Library>
libRbt.so (2013.1, Build901 2013/11/27)

>  <Rbt.Parameter_File>
/export/apps/rDock/src/rDock_2013.1_src/data/scripts/dock_solv.prm

>  <Rbt.Receptor>
prm/pocket_docking_7.prm

>  <SCORE>
-10.6637

>  <SCORE.INTER>
1.45994

>  <SCORE.INTER.CONST>
1

>  <SCORE.INTER.POLAR>
0

>  <SCORE.INTER.ROT>
11

>  <SCORE.INTER.SOLV>
8.38683

>  <SCORE.INTER.VDW>
-12.7556

>  <SCORE.INTER.norm>
0.104282

>  <SCORE.INTRA>
-12.1236

>  <SCORE.INTRA.DIHEDRAL>
-24.2898

>  <SCORE.INTRA.DIHEDRAL.0>
25.9209

>  <SCORE.INTRA.POLAR>
0

>  <SCORE.INTRA.POLAR.0>
0

>  <SCORE.INTRA.REPUL>
0

>  <SCORE.INTRA.REPUL.0>
0

>  <SCORE.INTRA.SOLV>
-0.760242

>  <SCORE.INTRA.SOLV.lig_0>
-47.4815

>  <SCORE.INTRA.VDW>
0.401406

>  <SCORE.INTRA.VDW.0>
-1.57492

>  <SCORE.INTRA.norm>
-0.865973

>  <SCORE.RESTR>
0

>  <SCORE.RESTR.CAVITY>
0

>  <SCORE.RESTR.norm>
0

>  <SCORE.SYSTEM>
0

>  <SCORE.SYSTEM.CONST>
0

>  <SCORE.SYSTEM.DIHEDRAL>
0

>  <SCORE.SYSTEM.SOLV>
0

>  <SCORE.SYSTEM.norm>
0

>  <SCORE.heavy>
14

>  <SCORE.norm>
-0.761691

>  <RMSD>
9.145

$$$$
ligand
 OpenBabel11021811493D
libRbt.so/2013.1/901 2013/11/27
 14 13  0  0  0  0  0  0  0  0999 V2000
   42.9917   -9.6951   -9.7539 N   0  0  0  0  0  0  0  0  0  0  0  0
   43.9423   -9.7556  -10.8575 C   0  0  0  0  0  0  0  0  0  0  0  0
   44.4467   -8.3446  -11.2280 C   0  0  0  0  0  0  0  0  0  0  0  0
   45.1122   -7.5757  -10.0694 C   0  0  0  0  0  0  0  0  0  0  0  0
   45.5951   -6.2113  -10.3305 N   0  0  0  0  0  0  0  0  0  0  0  0
   45.7169   -5.2316   -9.2452 C   0  0  0  0  0  0  0  0  0  0  0  0
   46.2833   -3.8701   -9.6587 C   0  0  0  0  0  0  0  0  0  0  0  0
   46.2450   -2.8372   -8.5196 C   0  0  0  0  0  0  0  0  0  0  0  0
   47.1990   -3.1554   -7.3572 C   0  0  0  0  0  0  0  0  0  0  0  0
   47.3041   -2.1018   -6.3451 N   0  0  0  0  0  0  0  0  0  0  0  0
   48.4263   -2.1262   -5.3909 C   0  0  0  0  0  0  0  0  0  0  0  0
   48.7613   -0.7992   -4.6695 C   0  0  0  0  0  0  0  0  0  0  0  0
   49.9855   -0.8345   -3.7325 C   0  0  0  0  0  0  0  0  0  0  0  0
   50.3573    0.4842   -3.2283 N   0  0  0  0  0  0  0  0  0  0  0  0
  1  2  1  0  0  0  0
  2  3  1  0  0  0  0
  3  4  1  0  0  0  0
  4  5  1  0  0  0  0
  5  6  1  0  0  0  0
  6  7  1  0  0  0  0
  7  8  1  0  0  0  0
  8  9  1  0  0  0  0
  9 10  1  0  0  0  0
 10 11  1  0  0  0  0
 11 12  1  0  0  0  0
 12 13  1  0  0  0  0
 13 14  1  0  0  0  0
M  END
>  <CHROM.1>
57.45628337,-178.71738245,154.46343688,177.76715228,173.71379843,67.97776090
172.57690139,-163.99706576,160.54354615,-176.92030981,172.08433511,46.59763803
-4.43246603,-7.88491073,-3.02862524,-1.09589421,-0.77658944

>  <Name>
ligand

>  <RI>
0

>  <Rbt.Current_Directory>
/home/itssahil/PROJECTS/Mol_Feturizer/New_Systems/rnas/4E8Q

>  <Rbt.Executable>
rbdock ($Id: //depot/dev/client3/rdock/2013.1/src/exe/rbdock.cxx#4 $)

>  <Rbt.Library>
libRbt.so (2013.1, Build901 2013/11/27)

>  <Rbt.Parameter_File>
/export/apps/rDock/src/rDock_2013.1_src/data/scripts/dock_solv.prm

>  <Rbt.Receptor>
prm/blind_docking_80.prm

>  <SCORE>
-15.0854

>  <SCORE.INTER>
-3.2457

>  <SCORE.INTER.CONST>
1

>  <SCORE.INTER.POLAR>
0

>  <SCORE.INTER.ROT>
11

>  <SCORE.INTER.SOLV>
12.7774

>  <SCORE.INTER.VDW>
-17.3563

>  <SCORE.INTER.norm>
-0.231836

>  <SCORE.INTRA>
-11.8397

>  <SCORE.INTRA.DIHEDRAL>
-24.0546

>  <SCORE.INTRA.DIHEDRAL.0>
25.9209

>  <SCORE.INTRA.POLAR>
0

>  <SCORE.INTRA.POLAR.0>
0

>  <SCORE.INTRA.REPUL>
0

>  <SCORE.INTRA.REPUL.0>
0

>  <SCORE.INTRA.SOLV>
-1.25606

>  <SCORE.INTRA.SOLV.lig_0>
-47.4815

>  <SCORE.INTRA.VDW>
0.815655

>  <SCORE.INTRA.VDW.0>
-1.57492

>  <SCORE.INTRA.norm>
-0.845689

>  <SCORE.RESTR>
0

>  <SCORE.RESTR.CAVITY>
0

>  <SCORE.RESTR.norm>
0

>  <SCORE.SYSTEM>
0

>  <SCORE.SYSTEM.CONST>
0

>  <SCORE.SYSTEM.DIHEDRAL>
0

>  <SCORE.SYSTEM.SOLV>
0

>  <SCORE.SYSTEM.norm>
0

>  <SCORE.heavy>
14

>  <SCORE.norm>
-1.07753

>  <RMSD>
11.958

$$$$
ligand
 OpenBabel11021811493D
libRbt.so/2013.1/901 2013/11/27
 14 13  0  0  0  0  0  0  0  0999 V2000
   48.2181   -3.7747   -6.6483 N   0  0  0  0  0  0  0  0  0  0  0  0
   47.9453   -2.3433   -6.6070 C   0  0  0  0  0  0  0  0  0  0  0  0
   46.5106   -2.0418   -7.0900 C   0  0  0  0  0  0  0  0  0  0  0  0
   46.2308   -2.4319   -8.5550 C   0  0  0  0  0  0  0  0  0  0  0  0
   46.3463   -3.8496   -8.9285 N   0  0  0  0  0  0  0  0  0  0  0  0
   45.5420   -4.4122  -10.0190 C   0  0  0  0  0  0  0  0  0  0  0  0
   45.5735   -5.9394  -10.1292 C   0  0  0  0  0  0  0  0  0  0  0  0
   45.0567   -6.6397   -8.8610 C   0  0  0  0  0  0  0  0  0  0  0  0
   45.0364   -8.1735   -8.9600 C   0  0  0  0  0  0  0  0  0  0  0  0
   44.5156   -8.8570   -7.7739 N   0  0  0  0  0  0  0  0  0  0  0  0
   45.4432   -9.2393   -6.6950 C   0  0  0  0  0  0  0  0  0  0  0  0
   46.5922  -10.2054   -7.0689 C   0  0  0  0  0  0  0  0  0  0  0  0
   47.4450  -10.7220   -5.8925 C   0  0  0  0  0  0  0  0  0  0  0  0
   46.6891  -11.5542   -4.9610 N   0  0  0  0  0  0  0  0  0  0  0  0
  1  2  1  0  0  0  0
  2  3  1  0  0  0  0
  3  4  1  0  0  0  0
  4  5  1  0  0  0  0
  5  6  1  0  0  0  0
  6  7  1  0  0  0  0
  7  8  1  0  0  0  0
  8  9  1  0  0  0  0
  9 10  1  0  0  0  0
 10 11  1  0  0  0  0
 11 12  1  0  0  0  0
 12 13  1  0  0  0  0
 13 14  1  0  0  0  0
M  END
>  <CHROM.1>
-62.65150620,61.87008680,150.83221502,-169.29474579,59.88591168,178.21165726
-178.53943969,-89.88392908,-59.85434803,-172.95056534,64.75759619,46.22454698
-6.44148781,-7.72806702,-1.46095469,0.93762332,2.84107938

>  <Name>
ligand

>  <RI>
0

>  <Rbt.Current_Directory>
/home/itssahil/PROJECTS/Mol_Feturizer/New_Systems/rnas/4E8Q

>  <Rbt.Executable>
rbdock ($Id: //depot/dev/client3/rdock/2013.1/src/exe/rbdock.cxx#4 $)

>  <Rbt.Library>
libRbt.so (2013.1, Build901 2013/11/27)

>  <Rbt.Parameter_File>
/export/apps/rDock/src/rDock_2013.1_src/data/scripts/dock_solv.prm

>  <Rbt.Receptor>
prm/blind_docking_80.prm

>  <SCORE>
-10.1229

>  <SCORE.INTER>
0.693324

>  <SCORE.INTER.CONST>
1

>  <SCORE.INTER.POLAR>
0

>  <SCORE.INTER.ROT>
11

>  <SCORE.INTER.SOLV>
10.8937

>  <SCORE.INTER.VDW>
-14.1024

>  <SCORE.INTER.norm>
0.0495232

>  <SCORE.INTRA>
-10.8162

>  <SCORE.INTRA.DIHEDRAL>
-24.3265

>  <SCORE.INTRA.DIHEDRAL.0>
25.9209

>  <SCORE.INTRA.POLAR>
0

>  <SCORE.INTRA.POLAR.0>
0

>  <SCORE.INTRA.REPUL>
0

>  <SCORE.INTRA.REPUL.0>
0

>  <SCORE.INTRA.SOLV>
1.56591

>  <SCORE.INTRA.SOLV.lig_0>
-47.4815

>  <SCORE.INTRA.VDW>
0.564061

>  <SCORE.INTRA.VDW.0>
-1.57492

>  <SCORE.INTRA.norm>
-0.772587

>  <SCORE.RESTR>
0

>  <SCORE.RESTR.CAVITY>
0

>  <SCORE.RESTR.norm>
0

>  <SCORE.SYSTEM>
0

>  <SCORE.SYSTEM.CONST>
0

>  <SCORE.SYSTEM.DIHEDRAL>
0

>  <SCORE.SYSTEM.SOLV>
0

>  <SCORE.SYSTEM.norm>
0

>  <SCORE.heavy>
14

>  <SCORE.norm>
-0.723064

>  <RMSD>
13.931

$$$$
ligand
 OpenBabel11021811493D
libRbt.so/2013.1/901 2013/11/27
 14 13  0  0  0  0  0  0  0  0999 V2000
   47.2488   -3.6555   -9.2802 N   0  0  0  0  0  0  0  0  0  0  0  0
   46.0299   -4.4393   -9.4391 C   0  0  0  0  0  0  0  0  0  0  0  0
   46.3381   -5.8162  -10.0650 C   0  0  0  0  0  0  0  0  0  0  0  0
   45.1027   -6.7106  -10.2897 C   0  0  0  0  0  0  0  0  0  0  0  0
   45.2993   -8.0111  -10.9476 N   0  0  0  0  0  0  0  0  0  0  0  0
   44.1612   -8.8876  -11.2456 C   0  0  0  0  0  0  0  0  0  0  0  0
   43.6608   -9.7271  -10.0665 C   0  0  0  0  0  0  0  0  0  0  0  0
   44.7223  -10.7074   -9.5393 C   0  0  0  0  0  0  0  0  0  0  0  0
   44.2802  -11.4959   -8.2961 C   0  0  0  0  0  0  0  0  0  0  0  0
   45.2784  -12.4350   -7.7793 N   0  0  0  0  0  0  0  0  0  0  0  0
   45.7926  -12.2612   -6.4096 C   0  0  0  0  0  0  0  0  0  0  0  0
   47.0441  -11.3678   -6.2395 C   0  0  0  0  0  0  0  0  0  0  0  0
   46.8728   -9.8884   -6.6396 C   0  0  0  0  0  0  0  0  0  0  0  0
   48.1044   -9.1152   -6.5099 N   0  0  0  0  0  0  0  0  0  0  0  0
  1  2  1  0  0  0  0
  2  3  1  0  0  0  0
  3  4  1  0  0  0  0
  4  5  1  0  0  0  0
  5  6  1  0  0  0  0
  6  7  1  0  0  0  0
  7  8  1  0  0  0  0
  8  9  1  0  0  0  0
  9 10  1  0  0  0  0
 10 11  1  0  0  0  0
 11 12  1  0  0  0  0
 12 13  1  0  0  0  0
 13 14  1  0  0  0  0
M  END
>  <CHROM.1>
-179.20314109,176.82305810,-177.33009505,-80.93679170,-62.22623225,176.10044358
179.99938509,119.17857543,-89.84997938,63.03516713,-177.50532843,45.70937117
-8.89439746,-8.76770636,-1.48894675,0.83181049,2.68362008

>  <Name>
ligand

>  <RI>
0

>  <Rbt.Current_Directory>
/home/itssahil/PROJECTS/Mol_Feturizer/New_Systems/rnas/4E8Q

>  <Rbt.Executable>
rbdock ($Id: //depot/dev/client3/rdock/2013.1/src/exe/rbdock.cxx#4 $)

>  <Rbt.Library>
libRbt.so (2013.1, Build901 2013/11/27)

>  <Rbt.Parameter_File>
/export/apps/rDock/src/rDock_2013.1_src/data/scripts/dock_solv.prm

>  <Rbt.Receptor>
prm/blind_docking_60.prm

>  <SCORE>
-10.013

>  <SCORE.INTER>
2.47872

>  <SCORE.INTER.CONST>
1

>  <SCORE.INTER.POLAR>
0

>  <SCORE.INTER.ROT>
11

>  <SCORE.INTER.SOLV>
5.0867

>  <SCORE.INTER.VDW>
-10.9764

>  <SCORE.INTER.norm>
0.177051

>  <SCORE.INTRA>
-12.4917

>  <SCORE.INTRA.DIHEDRAL>
-23.6134

>  <SCORE.INTRA.DIHEDRAL.0>
25.9209

>  <SCORE.INTRA.POLAR>
0

>  <SCORE.INTRA.POLAR.0>
0

>  <SCORE.INTRA.REPUL>
0

>  <SCORE.INTRA.REPUL.0>
0

>  <SCORE.INTRA.SOLV>
-1.43739

>  <SCORE.INTRA.SOLV.lig_0>
-47.4815

>  <SCORE.INTRA.VDW>
0.0336951

>  <SCORE.INTRA.VDW.0>
-1.57492

>  <SCORE.INTRA.norm>
-0.892264

>  <SCORE.RESTR>
0

>  <SCORE.RESTR.CAVITY>
0

>  <SCORE.RESTR.norm>
0

>  <SCORE.SYSTEM>
0

>  <SCORE.SYSTEM.CONST>
0

>  <SCORE.SYSTEM.DIHEDRAL>
0

>  <SCORE.SYSTEM.SOLV>
0

>  <SCORE.SYSTEM.norm>
0

>  <SCORE.heavy>
14

>  <SCORE.norm>
-0.715213

>  <RMSD>
16.036

$$$$
ligand
 OpenBabel11021811493D
libRbt.so/2013.1/901 2013/11/27
 14 13  0  0  0  0  0  0  0  0999 V2000
   34.7703   -5.7899    4.5994 N   0  0  0  0  0  0  0  0  0  0  0  0
   35.8982   -6.6642    4.8972 C   0  0  0  0  0  0  0  0  0  0  0  0
   37.2207   -5.8687    4.9200 C   0  0  0  0  0  0  0  0  0  0  0  0
   38.4581   -6.6913    5.3309 C   0  0  0  0  0  0  0  0  0  0  0  0
   39.7429   -5.9888    5.4677 N   0  0  0  0  0  0  0  0  0  0  0  0
   40.5987   -5.7438    4.3015 C   0  0  0  0  0  0  0  0  0  0  0  0
   42.0636   -5.4344    4.6235 C   0  0  0  0  0  0  0  0  0  0  0  0
   42.9371   -5.3065    3.3639 C   0  0  0  0  0  0  0  0  0  0  0  0
   42.6604   -4.0391    2.5394 C   0  0  0  0  0  0  0  0  0  0  0  0
   41.3630   -4.0216    1.8598 N   0  0  0  0  0  0  0  0  0  0  0  0
   41.0496   -2.9227    0.9298 C   0  0  0  0  0  0  0  0  0  0  0  0
   39.6641   -2.9607    0.2424 C   0  0  0  0  0  0  0  0  0  0  0  0
   39.3420   -1.7722   -0.6858 C   0  0  0  0  0  0  0  0  0  0  0  0
   40.2723   -1.6525   -1.8046 N   0  0  0  0  0  0  0  0  0  0  0  0
  1  2  1  0  0  0  0
  2  3  1  0  0  0  0
  3  4  1  0  0  0  0
  4  5  1  0  0  0  0
  5  6  1  0  0  0  0
  6  7  1  0  0  0  0
  7  8  1  0  0  0  0
  8  9  1  0  0  0  0
  9 10  1  0  0  0  0
 10 11  1  0  0  0  0
 11 12  1  0  0  0  0
 12 13  1  0  0  0  0
 13 14  1  0  0  0  0
M  END
>  <CHROM.1>
175.65325823,-175.88393182,-84.26124547,-160.83609315,175.04919027,70.90371920
-69.43651665,-173.65015976,179.95676970,177.84868241,60.92040618,39.71748436
-4.63270550,2.89908753,2.08906091,0.03196954,2.18080725

>  <Name>
ligand

>  <RI>
0

>  <Rbt.Current_Directory>
/home/itssahil/PROJECTS/Mol_Feturizer/New_Systems/rnas/4E8Q

>  <Rbt.Executable>
rbdock ($Id: //depot/dev/client3/rdock/2013.1/src/exe/rbdock.cxx#4 $)

>  <Rbt.Library>
libRbt.so (2013.1, Build901 2013/11/27)

>  <Rbt.Parameter_File>
/export/apps/rDock/src/rDock_2013.1_src/data/scripts/dock_solv.prm

>  <Rbt.Receptor>
prm/blind_docking_60.prm

>  <SCORE>
-11.6916

>  <SCORE.INTER>
0.0257159

>  <SCORE.INTER.CONST>
1

>  <SCORE.INTER.POLAR>
0

>  <SCORE.INTER.ROT>
11

>  <SCORE.INTER.SOLV>
15.062

>  <SCORE.INTER.VDW>
-15.9369

>  <SCORE.INTER.norm>
0.00183685

>  <SCORE.INTRA>
-11.7173

>  <SCORE.INTRA.DIHEDRAL>
-24.1248

>  <SCORE.INTRA.DIHEDRAL.0>
25.9209

>  <SCORE.INTRA.POLAR>
0

>  <SCORE.INTRA.POLAR.0>
0

>  <SCORE.INTRA.REPUL>
0

>  <SCORE.INTRA.REPUL.0>
0

>  <SCORE.INTRA.SOLV>
-0.529921

>  <SCORE.INTRA.SOLV.lig_0>
-47.4815

>  <SCORE.INTRA.VDW>
0.610064

>  <SCORE.INTRA.VDW.0>
-1.57492

>  <SCORE.INTRA.norm>
-0.836948

>  <SCORE.RESTR>
0

>  <SCORE.RESTR.CAVITY>
0

>  <SCORE.RESTR.norm>
0

>  <SCORE.SYSTEM>
0

>  <SCORE.SYSTEM.CONST>
0

>  <SCORE.SYSTEM.DIHEDRAL>
0

>  <SCORE.SYSTEM.SOLV>
0

>  <SCORE.SYSTEM.norm>
0

>  <SCORE.heavy>
14

>  <SCORE.norm>
-0.835111

>  <RMSD>
16.809

$$$$
ligand
 OpenBabel11021811493D
libRbt.so/2013.1/901 2013/11/27
 14 13  0  0  0  0  0  0  0  0999 V2000
   39.5741   -1.1129   -0.3457 N   0  0  0  0  0  0  0  0  0  0  0  0
   39.9794   -2.0976    0.6499 C   0  0  0  0  0  0  0  0  0  0  0  0
   41.3739   -2.6717    0.3209 C   0  0  0  0  0  0  0  0  0  0  0  0
   41.8807   -3.7367    1.3137 C   0  0  0  0  0  0  0  0  0  0  0  0
   42.2082   -3.3083    2.6819 N   0  0  0  0  0  0  0  0  0  0  0  0
   42.8529   -4.2260    3.6278 C   0  0  0  0  0  0  0  0  0  0  0  0
   41.9420   -4.7641    4.7352 C   0  0  0  0  0  0  0  0  0  0  0  0
   40.7115   -5.5066    4.1871 C   0  0  0  0  0  0  0  0  0  0  0  0
   39.7596   -6.0250    5.2769 C   0  0  0  0  0  0  0  0  0  0  0  0
   38.5377   -6.6564    4.7733 N   0  0  0  0  0  0  0  0  0  0  0  0
   37.7691   -7.5498    5.6573 C   0  0  0  0  0  0  0  0  0  0  0  0
   38.4914   -8.8179    6.1708 C   0  0  0  0  0  0  0  0  0  0  0  0
   37.6142   -9.8246    6.9423 C   0  0  0  0  0  0  0  0  0  0  0  0
   36.9719   -9.2407    8.1161 N   0  0  0  0  0  0  0  0  0  0  0  0
  1  2  1  0  0  0  0
  2  3  1  0  0  0  0
  3  4  1  0  0  0  0
  4  5  1  0  0  0  0
  5  6  1  0  0  0  0
  6  7  1  0  0  0  0
  7  8  1  0  0  0  0
  8  9  1  0  0  0  0
  9 10  1  0  0  0  0
 10 11  1  0  0  0  0
 11 12  1  0  0  0  0
 12 13  1  0  0  0  0
 13 14  1  0  0  0  0
M  END
>  <CHROM.1>
-179.32561857,-67.89624696,-172.21721477,-106.40004950,57.85909274,-178.44488540
176.12434813,160.88481247,-61.38389434,-172.43318321,-58.17061147,39.97644634
-5.39572608,3.86483433,1.19057891,-0.22377931,-0.83593695

>  <Name>
ligand

>  <RI>
0

>  <Rbt.Current_Directory>
/home/itssahil/PROJECTS/Mol_Feturizer/New_Systems/rnas/4E8Q

>  <Rbt.Executable>
rbdock ($Id: //depot/dev/client3/rdock/2013.1/src/exe/rbdock.cxx#4 $)

>  <Rbt.Library>
libRbt.so (2013.1, Build901 2013/11/27)

>  <Rbt.Parameter_File>
/export/apps/rDock/src/rDock_2013.1_src/data/scripts/dock_solv.prm

>  <Rbt.Receptor>
prm/blind_docking_80.prm

>  <SCORE>
-12.051

>  <SCORE.INTER>
-0.190069

>  <SCORE.INTER.CONST>
1

>  <SCORE.INTER.POLAR>
0

>  <SCORE.INTER.ROT>
11

>  <SCORE.INTER.SOLV>
10.7623

>  <SCORE.INTER.VDW>
-14.6475

>  <SCORE.INTER.norm>
-0.0135764

>  <SCORE.INTRA>
-11.8609

>  <SCORE.INTRA.DIHEDRAL>
-23.9949

>  <SCORE.INTRA.DIHEDRAL.0>
25.9209

>  <SCORE.INTRA.POLAR>
0

>  <SCORE.INTRA.POLAR.0>
0

>  <SCORE.INTRA.REPUL>
0

>  <SCORE.INTRA.REPUL.0>
0

>  <SCORE.INTRA.SOLV>
-0.764335

>  <SCORE.INTRA.SOLV.lig_0>
-47.4815

>  <SCORE.INTRA.VDW>
0.518709

>  <SCORE.INTRA.VDW.0>
-1.57492

>  <SCORE.INTRA.norm>
-0.847208

>  <SCORE.RESTR>
0

>  <SCORE.RESTR.CAVITY>
0

>  <SCORE.RESTR.norm>
0

>  <SCORE.SYSTEM>
0

>  <SCORE.SYSTEM.CONST>
0

>  <SCORE.SYSTEM.DIHEDRAL>
0

>  <SCORE.SYSTEM.SOLV>
0

>  <SCORE.SYSTEM.norm>
0

>  <SCORE.heavy>
14

>  <SCORE.norm>
-0.860785

>  <RMSD>
17.150

$$$$
ligand
 OpenBabel11021811493D
libRbt.so/2013.1/901 2013/11/27
 14 13  0  0  0  0  0  0  0  0999 V2000
   59.3491    0.5651   17.9206 N   0  0  0  0  0  0  0  0  0  0  0  0
   59.9288   -0.7630   18.0794 C   0  0  0  0  0  0  0  0  0  0  0  0
   61.0296   -1.0129   17.0266 C   0  0  0  0  0  0  0  0  0  0  0  0
   61.5874   -2.4500   17.0094 C   0  0  0  0  0  0  0  0  0  0  0  0
   60.6545   -3.5520   16.7300 N   0  0  0  0  0  0  0  0  0  0  0  0
   60.4721   -4.0611   15.3661 C   0  0  0  0  0  0  0  0  0  0  0  0
   59.1184   -4.7240   15.0950 C   0  0  0  0  0  0  0  0  0  0  0  0
   59.0368   -5.3644   13.6989 C   0  0  0  0  0  0  0  0  0  0  0  0
   59.2380   -4.3701   12.5442 C   0  0  0  0  0  0  0  0  0  0  0  0
   59.2169   -4.9704   11.2083 N   0  0  0  0  0  0  0  0  0  0  0  0
   59.4011   -4.1099   10.0268 C   0  0  0  0  0  0  0  0  0  0  0  0
   59.2508   -4.7813    8.6411 C   0  0  0  0  0  0  0  0  0  0  0  0
   60.2678   -5.8953    8.3207 C   0  0  0  0  0  0  0  0  0  0  0  0
   61.6453   -5.4142    8.2702 N   0  0  0  0  0  0  0  0  0  0  0  0
  1  2  1  0  0  0  0
  2  3  1  0  0  0  0
  3  4  1  0  0  0  0
  4  5  1  0  0  0  0
  5  6  1  0  0  0  0
  6  7  1  0  0  0  0
  7  8  1  0  0  0  0
  8  9  1  0  0  0  0
  9 10  1  0  0  0  0
 10 11  1  0  0  0  0
 11 12  1  0  0  0  0
 12 13  1  0  0  0  0
 13 14  1  0  0  0  0
M  END
>  <CHROM.1>
-173.19878229,60.26080618,93.49424654,-154.43003706,-174.13119777,-60.09749181
177.67828299,-179.95249393,-175.01601968,-62.54416548,-63.14671231,60.01396388
-3.63609445,13.56696497,-1.31680404,-1.44126064,-1.75134134

>  <Name>
ligand

>  <RI>
0

>  <Rbt.Current_Directory>
/home/itssahil/PROJECTS/Mol_Feturizer/New_Systems/rnas/4E8Q

>  <Rbt.Executable>
rbdock ($Id: //depot/dev/client3/rdock/2013.1/src/exe/rbdock.cxx#4 $)

>  <Rbt.Library>
libRbt.so (2013.1, Build901 2013/11/27)

>  <Rbt.Parameter_File>
/export/apps/rDock/src/rDock_2013.1_src/data/scripts/dock_solv.prm

>  <Rbt.Receptor>
prm/blind_docking_80.prm

>  <SCORE>
-14.261

>  <SCORE.INTER>
-2.7887

>  <SCORE.INTER.CONST>
1

>  <SCORE.INTER.POLAR>
0

>  <SCORE.INTER.ROT>
11

>  <SCORE.INTER.SOLV>
14.2392

>  <SCORE.INTER.VDW>
-17.5389

>  <SCORE.INTER.norm>
-0.199193

>  <SCORE.INTRA>
-11.4723

>  <SCORE.INTRA.DIHEDRAL>
-24.3444

>  <SCORE.INTRA.DIHEDRAL.0>
25.9209

>  <SCORE.INTRA.POLAR>
0

>  <SCORE.INTRA.POLAR.0>
0

>  <SCORE.INTRA.REPUL>
0

>  <SCORE.INTRA.REPUL.0>
0

>  <SCORE.INTRA.SOLV>
-0.11343

>  <SCORE.INTRA.SOLV.lig_0>
-47.4815

>  <SCORE.INTRA.VDW>
0.756598

>  <SCORE.INTRA.VDW.0>
-1.57492

>  <SCORE.INTRA.norm>
-0.819452

>  <SCORE.RESTR>
0

>  <SCORE.RESTR.CAVITY>
0

>  <SCORE.RESTR.norm>
0

>  <SCORE.SYSTEM>
0

>  <SCORE.SYSTEM.CONST>
0

>  <SCORE.SYSTEM.DIHEDRAL>
0

>  <SCORE.SYSTEM.SOLV>
0

>  <SCORE.SYSTEM.norm>
0

>  <SCORE.heavy>
14

>  <SCORE.norm>
-1.01864

>  <RMSD>
17.816

$$$$
ligand
 OpenBabel11021811493D
libRbt.so/2013.1/901 2013/11/27
 14 13  0  0  0  0  0  0  0  0999 V2000
   36.9466   -6.2869    5.9031 N   0  0  0  0  0  0  0  0  0  0  0  0
   37.7377   -5.6476    4.8587 C   0  0  0  0  0  0  0  0  0  0  0  0
   38.1709   -4.2292    5.2863 C   0  0  0  0  0  0  0  0  0  0  0  0
   37.0078   -3.2422    5.5091 C   0  0  0  0  0  0  0  0  0  0  0  0
   36.1609   -2.8980    4.3570 N   0  0  0  0  0  0  0  0  0  0  0  0
   34.8822   -2.2023    4.5395 C   0  0  0  0  0  0  0  0  0  0  0  0
   33.7504   -2.6700    3.6198 C   0  0  0  0  0  0  0  0  0  0  0  0
   33.4223   -4.1631    3.7895 C   0  0  0  0  0  0  0  0  0  0  0  0
   32.3175   -4.6695    2.8486 C   0  0  0  0  0  0  0  0  0  0  0  0
   32.0469   -6.1062    2.9389 N   0  0  0  0  0  0  0  0  0  0  0  0
   30.9321   -6.6812    2.1662 C   0  0  0  0  0  0  0  0  0  0  0  0
   31.2038   -7.0015    0.6772 C   0  0  0  0  0  0  0  0  0  0  0  0
   32.1830   -8.1618    0.4076 C   0  0  0  0  0  0  0  0  0  0  0  0
   31.6581   -9.4601    0.8204 N   0  0  0  0  0  0  0  0  0  0  0  0
  1  2  1  0  0  0  0
  2  3  1  0  0  0  0
  3  4  1  0  0  0  0
  4  5  1  0  0  0  0
  5  6  1  0  0  0  0
  6  7  1  0  0  0  0
  7  8  1  0  0  0  0
  8  9  1  0  0  0  0
  9 10  1  0  0  0  0
 10 11  1  0  0  0  0
 11 12  1  0  0  0  0
 12 13  1  0  0  0  0
 13 14  1  0  0  0  0
M  END
>  <CHROM.1>
-63.35490974,-63.33720904,166.93871388,-141.32230263,59.36191948,-178.29697553
176.49776192,174.89572703,81.81371910,68.64410155,67.14965213,34.17286944
-5.24387777,3.40867020,-0.65624550,0.47425537,-2.86711184

>  <Name>
ligand

>  <RI>
0

>  <Rbt.Current_Directory>
/home/itssahil/PROJECTS/Mol_Feturizer/New_Systems/rnas/4E8Q

>  <Rbt.Executable>
rbdock ($Id: //depot/dev/client3/rdock/2013.1/src/exe/rbdock.cxx#4 $)

>  <Rbt.Library>
libRbt.so (2013.1, Build901 2013/11/27)

>  <Rbt.Parameter_File>
/export/apps/rDock/src/rDock_2013.1_src/data/scripts/dock_solv.prm

>  <Rbt.Receptor>
prm/blind_docking_40.prm

>  <SCORE>
-11.6439

>  <SCORE.INTER>
-0.431846

>  <SCORE.INTER.CONST>
1

>  <SCORE.INTER.POLAR>
0

>  <SCORE.INTER.ROT>
11

>  <SCORE.INTER.SOLV>
6.81157

>  <SCORE.INTER.VDW>
-13.4918

>  <SCORE.INTER.norm>
-0.0308461

>  <SCORE.INTRA>
-11.212

>  <SCORE.INTRA.DIHEDRAL>
-23.9372

>  <SCORE.INTRA.DIHEDRAL.0>
25.9209

>  <SCORE.INTRA.POLAR>
0

>  <SCORE.INTRA.POLAR.0>
0

>  <SCORE.INTRA.REPUL>
0

>  <SCORE.INTRA.REPUL.0>
0

>  <SCORE.INTRA.SOLV>
1.19779

>  <SCORE.INTRA.SOLV.lig_0>
-47.4815

>  <SCORE.INTRA.VDW>
0.157671

>  <SCORE.INTRA.VDW.0>
-1.57492

>  <SCORE.INTRA.norm>
-0.800859

>  <SCORE.RESTR>
0

>  <SCORE.RESTR.CAVITY>
0

>  <SCORE.RESTR.norm>
0

>  <SCORE.SYSTEM>
0

>  <SCORE.SYSTEM.CONST>
0

>  <SCORE.SYSTEM.DIHEDRAL>
0

>  <SCORE.SYSTEM.SOLV>
0

>  <SCORE.SYSTEM.norm>
0

>  <SCORE.heavy>
14

>  <SCORE.norm>
-0.831706

>  <RMSD>
21.278

$$$$
ligand
 OpenBabel11021811493D
libRbt.so/2013.1/901 2013/11/27
 14 13  0  0  0  0  0  0  0  0999 V2000
   44.1240  -13.1898   -4.6549 N   0  0  0  0  0  0  0  0  0  0  0  0
   43.3566  -12.0061   -4.2873 C   0  0  0  0  0  0  0  0  0  0  0  0
   41.9359  -12.3928   -3.8240 C   0  0  0  0  0  0  0  0  0  0  0  0
   41.0246  -11.1976   -3.4808 C   0  0  0  0  0  0  0  0  0  0  0  0
   39.6201  -11.4721   -3.1419 N   0  0  0  0  0  0  0  0  0  0  0  0
   38.6793  -10.3787   -2.8738 C   0  0  0  0  0  0  0  0  0  0  0  0
   37.2416  -10.6293   -3.3382 C   0  0  0  0  0  0  0  0  0  0  0  0
   36.2564   -9.5625   -2.8310 C   0  0  0  0  0  0  0  0  0  0  0  0
   34.7959   -9.8206   -3.2345 C   0  0  0  0  0  0  0  0  0  0  0  0
   33.8287   -8.8756   -2.6715 N   0  0  0  0  0  0  0  0  0  0  0  0
   32.5813   -8.5964   -3.4038 C   0  0  0  0  0  0  0  0  0  0  0  0
   31.3474   -9.4553   -3.0384 C   0  0  0  0  0  0  0  0  0  0  0  0
   30.8792   -9.3685   -1.5717 C   0  0  0  0  0  0  0  0  0  0  0  0
   31.8477   -9.9210   -0.6291 N   0  0  0  0  0  0  0  0  0  0  0  0
  1  2  1  0  0  0  0
  2  3  1  0  0  0  0
  3  4  1  0  0  0  0
  4  5  1  0  0  0  0
  5  6  1  0  0  0  0
  6  7  1  0  0  0  0
  7  8  1  0  0  0  0
  8  9  1  0  0  0  0
  9 10  1  0  0  0  0
 10 11  1  0  0  0  0
 11 12  1  0  0  0  0
 12 13  1  0  0  0  0
 13 14  1  0  0  0  0
M  END
>  <CHROM.1>
-177.09014982,174.86220966,-176.76139271,145.36170024,170.54691178,-177.63561485
175.32504093,151.87637720,92.75328181,59.92207680,-66.00172668,36.96547332
-10.49029673,-3.07018106,0.00147527,-0.31500466,2.12520768

>  <Name>
ligand

>  <RI>
0

>  <Rbt.Current_Directory>
/home/itssahil/PROJECTS/Mol_Feturizer/New_Systems/rnas/4E8Q

>  <Rbt.Executable>
rbdock ($Id: //depot/dev/client3/rdock/2013.1/src/exe/rbdock.cxx#4 $)

>  <Rbt.Library>
libRbt.so (2013.1, Build901 2013/11/27)

>  <Rbt.Parameter_File>
/export/apps/rDock/src/rDock_2013.1_src/data/scripts/dock_solv.prm

>  <Rbt.Receptor>
prm/blind_docking_100.prm

>  <SCORE>
-14.0115

>  <SCORE.INTER>
-2.9726

>  <SCORE.INTER.CONST>
1

>  <SCORE.INTER.POLAR>
0

>  <SCORE.INTER.ROT>
11

>  <SCORE.INTER.SOLV>
5.68087

>  <SCORE.INTER.VDW>
-14.8087

>  <SCORE.INTER.norm>
-0.212328

>  <SCORE.INTRA>
-11.0389

>  <SCORE.INTRA.DIHEDRAL>
-23.2373

>  <SCORE.INTRA.DIHEDRAL.0>
25.9209

>  <SCORE.INTRA.POLAR>
0

>  <SCORE.INTRA.POLAR.0>
0

>  <SCORE.INTRA.REPUL>
0

>  <SCORE.INTRA.REPUL.0>
0

>  <SCORE.INTRA.SOLV>
0.774061

>  <SCORE.INTRA.SOLV.lig_0>
-47.4815

>  <SCORE.INTRA.VDW>
0.192678

>  <SCORE.INTRA.VDW.0>
-1.57492

>  <SCORE.INTRA.norm>
-0.788496

>  <SCORE.RESTR>
0

>  <SCORE.RESTR.CAVITY>
0

>  <SCORE.RESTR.norm>
0

>  <SCORE.SYSTEM>
0

>  <SCORE.SYSTEM.CONST>
0

>  <SCORE.SYSTEM.DIHEDRAL>
0

>  <SCORE.SYSTEM.SOLV>
0

>  <SCORE.SYSTEM.norm>
0

>  <SCORE.heavy>
14

>  <SCORE.norm>
-1.00082

>  <RMSD>
21.299

$$$$
ligand
 OpenBabel11021811493D
libRbt.so/2013.1/901 2013/11/27
 14 13  0  0  0  0  0  0  0  0999 V2000
   33.4787   -6.9825    7.8802 N   0  0  0  0  0  0  0  0  0  0  0  0
   33.4900   -5.6689    7.2479 C   0  0  0  0  0  0  0  0  0  0  0  0
   32.3618   -5.5518    6.2011 C   0  0  0  0  0  0  0  0  0  0  0  0
   32.2712   -4.1791    5.5053 C   0  0  0  0  0  0  0  0  0  0  0  0
   33.4136   -3.7386    4.6907 N   0  0  0  0  0  0  0  0  0  0  0  0
   33.2358   -2.7797    3.5946 C   0  0  0  0  0  0  0  0  0  0  0  0
   32.5239   -3.3323    2.3563 C   0  0  0  0  0  0  0  0  0  0  0  0
   32.3309   -2.2738    1.2572 C   0  0  0  0  0  0  0  0  0  0  0  0
   33.6343   -1.8569    0.5573 C   0  0  0  0  0  0  0  0  0  0  0  0
   34.6221   -1.2197    1.4311 N   0  0  0  0  0  0  0  0  0  0  0  0
   34.6985    0.2507    1.4833 C   0  0  0  0  0  0  0  0  0  0  0  0
   34.0702    0.9413    2.7169 C   0  0  0  0  0  0  0  0  0  0  0  0
   34.1644    2.4802    2.7457 C   0  0  0  0  0  0  0  0  0  0  0  0
   35.5345    2.9711    2.6308 N   0  0  0  0  0  0  0  0  0  0  0  0
  1  2  1  0  0  0  0
  2  3  1  0  0  0  0
  3  4  1  0  0  0  0
  4  5  1  0  0  0  0
  5  6  1  0  0  0  0
  6  7  1  0  0  0  0
  7  8  1  0  0  0  0
  8  9  1  0  0  0  0
  9 10  1  0  0  0  0
 10 11  1  0  0  0  0
 11 12  1  0  0  0  0
 12 13  1  0  0  0  0
 13 14  1  0  0  0  0
M  END
>  <CHROM.1>
178.42472563,62.86381695,154.71067118,-71.96061890,178.39165086,70.50684763
-62.67062236,-96.78326077,102.94563423,179.99844522,-55.91228422,33.55898673
-2.20998624,3.59250645,-2.05350991,-1.18172414,-1.05129416

>  <Name>
ligand

>  <RI>
0

>  <Rbt.Current_Directory>
/home/itssahil/PROJECTS/Mol_Feturizer/New_Systems/rnas/4E8Q

>  <Rbt.Executable>
rbdock ($Id: //depot/dev/client3/rdock/2013.1/src/exe/rbdock.cxx#4 $)

>  <Rbt.Library>
libRbt.so (2013.1, Build901 2013/11/27)

>  <Rbt.Parameter_File>
/export/apps/rDock/src/rDock_2013.1_src/data/scripts/dock_solv.prm

>  <Rbt.Receptor>
prm/blind_docking_100.prm

>  <SCORE>
-11.6185

>  <SCORE.INTER>
-0.669103

>  <SCORE.INTER.CONST>
1

>  <SCORE.INTER.POLAR>
0

>  <SCORE.INTER.ROT>
11

>  <SCORE.INTER.SOLV>
11.6223

>  <SCORE.INTER.VDW>
-15.2535

>  <SCORE.INTER.norm>
-0.0477931

>  <SCORE.INTRA>
-10.9494

>  <SCORE.INTRA.DIHEDRAL>
-22.9771

>  <SCORE.INTRA.DIHEDRAL.0>
25.9209

>  <SCORE.INTRA.POLAR>
0

>  <SCORE.INTRA.POLAR.0>
0

>  <SCORE.INTRA.REPUL>
0

>  <SCORE.INTRA.REPUL.0>
0

>  <SCORE.INTRA.SOLV>
-0.0789871

>  <SCORE.INTRA.SOLV.lig_0>
-47.4815

>  <SCORE.INTRA.VDW>
0.578597

>  <SCORE.INTRA.VDW.0>
-1.57492

>  <SCORE.INTRA.norm>
-0.782102

>  <SCORE.RESTR>
0

>  <SCORE.RESTR.CAVITY>
0

>  <SCORE.RESTR.norm>
0

>  <SCORE.SYSTEM>
0

>  <SCORE.SYSTEM.CONST>
0

>  <SCORE.SYSTEM.DIHEDRAL>
0

>  <SCORE.SYSTEM.SOLV>
0

>  <SCORE.SYSTEM.norm>
0

>  <SCORE.heavy>
14

>  <SCORE.norm>
-0.829896

>  <RMSD>
21.523

$$$$
ligand
 OpenBabel11021811493D
libRbt.so/2013.1/901 2013/11/27
 14 13  0  0  0  0  0  0  0  0999 V2000
   36.2876    2.7934    0.6944 N   0  0  0  0  0  0  0  0  0  0  0  0
   36.1189    3.0059    2.1267 C   0  0  0  0  0  0  0  0  0  0  0  0
   34.8669    2.2697    2.6491 C   0  0  0  0  0  0  0  0  0  0  0  0
   34.9039    0.7381    2.4771 C   0  0  0  0  0  0  0  0  0  0  0  0
   33.8105   -0.0515    3.0634 N   0  0  0  0  0  0  0  0  0  0  0  0
   34.0653   -1.0101    4.1444 C   0  0  0  0  0  0  0  0  0  0  0  0
   34.1361   -2.4769    3.7096 C   0  0  0  0  0  0  0  0  0  0  0  0
   32.7883   -3.0131    3.1980 C   0  0  0  0  0  0  0  0  0  0  0  0
   32.7917   -4.5197    2.8935 C   0  0  0  0  0  0  0  0  0  0  0  0
   31.4745   -5.0878    2.5973 N   0  0  0  0  0  0  0  0  0  0  0  0
   31.3498   -6.5361    2.3581 C   0  0  0  0  0  0  0  0  0  0  0  0
   31.6106   -7.0328    0.9163 C   0  0  0  0  0  0  0  0  0  0  0  0
   31.2948   -8.5185    0.6502 C   0  0  0  0  0  0  0  0  0  0  0  0
   32.0774   -9.4270    1.4832 N   0  0  0  0  0  0  0  0  0  0  0  0
  1  2  1  0  0  0  0
  2  3  1  0  0  0  0
  3  4  1  0  0  0  0
  4  5  1  0  0  0  0
  5  6  1  0  0  0  0
  6  7  1  0  0  0  0
  7  8  1  0  0  0  0
  8  9  1  0  0  0  0
  9 10  1  0  0  0  0
 10 11  1  0  0  0  0
 11 12  1  0  0  0  0
 12 13  1  0  0  0  0
 13 14  1  0  0  0  0
M  END
>  <CHROM.1>
61.45095320,174.23689589,-115.74301323,-100.97956611,-66.39928713,-173.93616094
171.35135425,-176.91634510,-85.52849711,-172.27934340,-60.17325983,33.39829409
-2.77609688,2.35453794,-0.62096624,-1.10679709,-2.17290980

>  <Name>
ligand

>  <RI>
0

>  <Rbt.Current_Directory>
/home/itssahil/PROJECTS/Mol_Feturizer/New_Systems/rnas/4E8Q

>  <Rbt.Executable>
rbdock ($Id: //depot/dev/client3/rdock/2013.1/src/exe/rbdock.cxx#4 $)

>  <Rbt.Library>
libRbt.so (2013.1, Build901 2013/11/27)

>  <Rbt.Parameter_File>
/export/apps/rDock/src/rDock_2013.1_src/data/scripts/dock_solv.prm

>  <Rbt.Receptor>
prm/blind_docking_40.prm

>  <SCORE>
-13.1329

>  <SCORE.INTER>
-2.23595

>  <SCORE.INTER.CONST>
1

>  <SCORE.INTER.POLAR>
0

>  <SCORE.INTER.ROT>
11

>  <SCORE.INTER.SOLV>
9.73476

>  <SCORE.INTER.VDW>
-15.6689

>  <SCORE.INTER.norm>
-0.159711

>  <SCORE.INTRA>
-10.897

>  <SCORE.INTRA.DIHEDRAL>
-22.401

>  <SCORE.INTRA.DIHEDRAL.0>
25.9209

>  <SCORE.INTRA.POLAR>
0

>  <SCORE.INTRA.POLAR.0>
0

>  <SCORE.INTRA.REPUL>
0

>  <SCORE.INTRA.REPUL.0>
0

>  <SCORE.INTRA.SOLV>
-0.407837

>  <SCORE.INTRA.SOLV.lig_0>
-47.4815

>  <SCORE.INTRA.VDW>
0.507449

>  <SCORE.INTRA.VDW.0>
-1.57492

>  <SCORE.INTRA.norm>
-0.778356

>  <SCORE.RESTR>
0

>  <SCORE.RESTR.CAVITY>
0

>  <SCORE.RESTR.norm>
0

>  <SCORE.SYSTEM>
0

>  <SCORE.SYSTEM.CONST>
0

>  <SCORE.SYSTEM.DIHEDRAL>
0

>  <SCORE.SYSTEM.SOLV>
0

>  <SCORE.SYSTEM.norm>
0

>  <SCORE.heavy>
14

>  <SCORE.norm>
-0.938067

>  <RMSD>
21.535

$$$$
ligand
 OpenBabel11021811493D
libRbt.so/2013.1/901 2013/11/27
 14 13  0  0  0  0  0  0  0  0999 V2000
   31.1916   -8.5207    2.6371 N   0  0  0  0  0  0  0  0  0  0  0  0
   31.9126   -7.8915    1.5373 C   0  0  0  0  0  0  0  0  0  0  0  0
   31.5049   -6.4103    1.3874 C   0  0  0  0  0  0  0  0  0  0  0  0
   31.9541   -5.4999    2.5476 C   0  0  0  0  0  0  0  0  0  0  0  0
   31.4789   -5.8187    3.9023 N   0  0  0  0  0  0  0  0  0  0  0  0
   31.4806   -4.8046    4.9625 C   0  0  0  0  0  0  0  0  0  0  0  0
   32.8679   -4.3664    5.4411 C   0  0  0  0  0  0  0  0  0  0  0  0
   33.5411   -3.3680    4.4841 C   0  0  0  0  0  0  0  0  0  0  0  0
   34.9961   -3.0359    4.8520 C   0  0  0  0  0  0  0  0  0  0  0  0
   35.9713   -4.0646    4.4829 N   0  0  0  0  0  0  0  0  0  0  0  0
   35.9483   -5.3639    5.1769 C   0  0  0  0  0  0  0  0  0  0  0  0
   37.0528   -6.3793    4.7991 C   0  0  0  0  0  0  0  0  0  0  0  0
   38.4779   -6.0287    5.2725 C   0  0  0  0  0  0  0  0  0  0  0  0
   38.9487   -4.7434    4.7646 N   0  0  0  0  0  0  0  0  0  0  0  0
  1  2  1  0  0  0  0
  2  3  1  0  0  0  0
  3  4  1  0  0  0  0
  4  5  1  0  0  0  0
  5  6  1  0  0  0  0
  6  7  1  0  0  0  0
  7  8  1  0  0  0  0
  8  9  1  0  0  0  0
  9 10  1  0  0  0  0
 10 11  1  0  0  0  0
 11 12  1  0  0  0  0
 12 13  1  0  0  0  0
 13 14  1  0  0  0  0
M  END
>  <CHROM.1>
68.05189393,-59.37738522,-159.83730526,-68.39155269,78.59625708,-173.29243485
77.67057025,-67.92323114,-176.64068964,70.53475427,-58.47984182,34.09465607
-5.44955574,4.01770229,-2.73221324,-0.19142133,0.53336963

>  <Name>
ligand

>  <RI>
0

>  <Rbt.Current_Directory>
/home/itssahil/PROJECTS/Mol_Feturizer/New_Systems/rnas/4E8Q

>  <Rbt.Executable>
rbdock ($Id: //depot/dev/client3/rdock/2013.1/src/exe/rbdock.cxx#4 $)

>  <Rbt.Library>
libRbt.so (2013.1, Build901 2013/11/27)

>  <Rbt.Parameter_File>
/export/apps/rDock/src/rDock_2013.1_src/data/scripts/dock_solv.prm

>  <Rbt.Receptor>
prm/blind_docking_80.prm

>  <SCORE>
-10.2088

>  <SCORE.INTER>
-1.43911

>  <SCORE.INTER.CONST>
1

>  <SCORE.INTER.POLAR>
0

>  <SCORE.INTER.ROT>
11

>  <SCORE.INTER.SOLV>
7.99894

>  <SCORE.INTER.VDW>
-14.5591

>  <SCORE.INTER.norm>
-0.102794

>  <SCORE.INTRA>
-8.76969

>  <SCORE.INTRA.DIHEDRAL>
-22.3437

>  <SCORE.INTRA.DIHEDRAL.0>
25.9209

>  <SCORE.INTRA.POLAR>
0

>  <SCORE.INTRA.POLAR.0>
0

>  <SCORE.INTRA.REPUL>
0

>  <SCORE.INTRA.REPUL.0>
0

>  <SCORE.INTRA.SOLV>
3.61559

>  <SCORE.INTRA.SOLV.lig_0>
-47.4815

>  <SCORE.INTRA.VDW>
0.594353

>  <SCORE.INTRA.VDW.0>
-1.57492

>  <SCORE.INTRA.norm>
-0.626406

>  <SCORE.RESTR>
0

>  <SCORE.RESTR.CAVITY>
0

>  <SCORE.RESTR.norm>
0

>  <SCORE.SYSTEM>
0

>  <SCORE.SYSTEM.CONST>
0

>  <SCORE.SYSTEM.DIHEDRAL>
0

>  <SCORE.SYSTEM.SOLV>
0

>  <SCORE.SYSTEM.norm>
0

>  <SCORE.heavy>
14

>  <SCORE.norm>
-0.7292

>  <RMSD>
21.579

$$$$
ligand
 OpenBabel11021811493D
libRbt.so/2013.1/901 2013/11/27
 14 13  0  0  0  0  0  0  0  0999 V2000
   31.6079   -9.7110   -0.0584 N   0  0  0  0  0  0  0  0  0  0  0  0
   32.1629   -8.3827    0.1716 C   0  0  0  0  0  0  0  0  0  0  0  0
   31.4111   -7.6613    1.3105 C   0  0  0  0  0  0  0  0  0  0  0  0
   31.9344   -6.2470    1.6306 C   0  0  0  0  0  0  0  0  0  0  0  0
   31.3413   -5.5302    2.7695 N   0  0  0  0  0  0  0  0  0  0  0  0
   31.6506   -5.9171    4.1506 C   0  0  0  0  0  0  0  0  0  0  0  0
   31.7167   -4.7593    5.1509 C   0  0  0  0  0  0  0  0  0  0  0  0
   32.7841   -3.7144    4.7841 C   0  0  0  0  0  0  0  0  0  0  0  0
   34.2181   -4.2674    4.7676 C   0  0  0  0  0  0  0  0  0  0  0  0
   34.6910   -4.7823    6.0547 N   0  0  0  0  0  0  0  0  0  0  0  0
   36.1328   -4.7585    6.3565 C   0  0  0  0  0  0  0  0  0  0  0  0
   36.7428   -3.3933    6.7534 C   0  0  0  0  0  0  0  0  0  0  0  0
   38.2705   -3.3755    6.9628 C   0  0  0  0  0  0  0  0  0  0  0  0
   39.0170   -3.7033    5.7518 N   0  0  0  0  0  0  0  0  0  0  0  0
  1  2  1  0  0  0  0
  2  3  1  0  0  0  0
  3  4  1  0  0  0  0
  4  5  1  0  0  0  0
  5  6  1  0  0  0  0
  6  7  1  0  0  0  0
  7  8  1  0  0  0  0
  8  9  1  0  0  0  0
  9 10  1  0  0  0  0
 10 11  1  0  0  0  0
 11 12  1  0  0  0  0
 12 13  1  0  0  0  0
 13 14  1  0  0  0  0
M  END
>  <CHROM.1>
179.72368457,-175.44372922,73.26090694,145.32912916,-59.62803596,-61.96083318
-61.67449735,-152.15133422,76.65258742,-175.67479050,62.70659553,33.83423475
-5.44289503,4.03989658,-2.27260574,-0.08539048,0.84551606

>  <Name>
ligand

>  <RI>
0

>  <Rbt.Current_Directory>
/home/itssahil/PROJECTS/Mol_Feturizer/New_Systems/rnas/4E8Q

>  <Rbt.Executable>
rbdock ($Id: //depot/dev/client3/rdock/2013.1/src/exe/rbdock.cxx#4 $)

>  <Rbt.Library>
libRbt.so (2013.1, Build901 2013/11/27)

>  <Rbt.Parameter_File>
/export/apps/rDock/src/rDock_2013.1_src/data/scripts/dock_solv.prm

>  <Rbt.Receptor>
prm/blind_docking_60.prm

>  <SCORE>
-11.0412

>  <SCORE.INTER>
0.195119

>  <SCORE.INTER.CONST>
1

>  <SCORE.INTER.POLAR>
0

>  <SCORE.INTER.ROT>
11

>  <SCORE.INTER.SOLV>
7.67189

>  <SCORE.INTER.VDW>
-13.3606

>  <SCORE.INTER.norm>
0.0139371

>  <SCORE.INTRA>
-11.2363

>  <SCORE.INTRA.DIHEDRAL>
-24.0863

>  <SCORE.INTRA.DIHEDRAL.0>
25.9209

>  <SCORE.INTRA.POLAR>
0

>  <SCORE.INTRA.POLAR.0>
0

>  <SCORE.INTRA.REPUL>
0

>  <SCORE.INTRA.REPUL.0>
0

>  <SCORE.INTRA.SOLV>
-0.152961

>  <SCORE.INTRA.SOLV.lig_0>
-47.4815

>  <SCORE.INTRA.VDW>
0.883358

>  <SCORE.INTRA.VDW.0>
-1.57492

>  <SCORE.INTRA.norm>
-0.802592

>  <SCORE.RESTR>
0

>  <SCORE.RESTR.CAVITY>
0

>  <SCORE.RESTR.norm>
0

>  <SCORE.SYSTEM>
0

>  <SCORE.SYSTEM.CONST>
0

>  <SCORE.SYSTEM.DIHEDRAL>
0

>  <SCORE.SYSTEM.SOLV>
0

>  <SCORE.SYSTEM.norm>
0

>  <SCORE.heavy>
14

>  <SCORE.norm>
-0.788655

>  <RMSD>
21.793

$$$$
ligand
 OpenBabel11021811493D
libRbt.so/2013.1/901 2013/11/27
 14 13  0  0  0  0  0  0  0  0999 V2000
   37.6390    0.4556   -0.5013 N   0  0  0  0  0  0  0  0  0  0  0  0
   37.7712   -0.9687   -0.2201 C   0  0  0  0  0  0  0  0  0  0  0  0
   36.9084   -1.3729    0.9943 C   0  0  0  0  0  0  0  0  0  0  0  0
   35.3923   -1.1715    0.8004 C   0  0  0  0  0  0  0  0  0  0  0  0
   34.4988   -1.5218    1.9148 N   0  0  0  0  0  0  0  0  0  0  0  0
   33.0411   -1.5023    1.7502 C   0  0  0  0  0  0  0  0  0  0  0  0
   32.3806   -2.8797    1.6408 C   0  0  0  0  0  0  0  0  0  0  0  0
   32.5882   -3.7423    2.8973 C   0  0  0  0  0  0  0  0  0  0  0  0
   31.8527   -5.0913    2.8560 C   0  0  0  0  0  0  0  0  0  0  0  0
   32.3076   -6.0051    1.8056 N   0  0  0  0  0  0  0  0  0  0  0  0
   31.3215   -6.8398    1.0975 C   0  0  0  0  0  0  0  0  0  0  0  0
   30.7897   -8.0840    1.8477 C   0  0  0  0  0  0  0  0  0  0  0  0
   29.9668   -7.8000    3.1206 C   0  0  0  0  0  0  0  0  0  0  0  0
   29.5130   -9.0153    3.7906 N   0  0  0  0  0  0  0  0  0  0  0  0
  1  2  1  0  0  0  0
  2  3  1  0  0  0  0
  3  4  1  0  0  0  0
  4  5  1  0  0  0  0
  5  6  1  0  0  0  0
  6  7  1  0  0  0  0
  7  8  1  0  0  0  0
  8  9  1  0  0  0  0
  9 10  1  0  0  0  0
 10 11  1  0  0  0  0
 11 12  1  0  0  0  0
 12 13  1  0  0  0  0
 13 14  1  0  0  0  0
M  END
>  <CHROM.1>
62.68636912,-179.50238265,-172.94308359,105.18613963,61.52636135,175.89775354
64.02372862,-142.18607555,-77.01153536,64.85477485,-179.12250731,33.28354965
-3.96706740,1.69958336,-0.70576407,-0.57414899,-2.88911686

>  <Name>
ligand

>  <RI>
0

>  <Rbt.Current_Directory>
/home/itssahil/PROJECTS/Mol_Feturizer/New_Systems/rnas/4E8Q

>  <Rbt.Executable>
rbdock ($Id: //depot/dev/client3/rdock/2013.1/src/exe/rbdock.cxx#4 $)

>  <Rbt.Library>
libRbt.so (2013.1, Build901 2013/11/27)

>  <Rbt.Parameter_File>
/export/apps/rDock/src/rDock_2013.1_src/data/scripts/dock_solv.prm

>  <Rbt.Receptor>
prm/blind_docking_80.prm

>  <SCORE>
-12.7247

>  <SCORE.INTER>
-1.20935

>  <SCORE.INTER.CONST>
1

>  <SCORE.INTER.POLAR>
0

>  <SCORE.INTER.ROT>
11

>  <SCORE.INTER.SOLV>
9.31973

>  <SCORE.INTER.VDW>
-14.8461

>  <SCORE.INTER.norm>
-0.0863823

>  <SCORE.INTRA>
-11.5154

>  <SCORE.INTRA.DIHEDRAL>
-23.5307

>  <SCORE.INTRA.DIHEDRAL.0>
25.9209

>  <SCORE.INTRA.POLAR>
0

>  <SCORE.INTRA.POLAR.0>
0

>  <SCORE.INTRA.REPUL>
0

>  <SCORE.INTRA.REPUL.0>
0

>  <SCORE.INTRA.SOLV>
-0.413481

>  <SCORE.INTRA.SOLV.lig_0>
-47.4815

>  <SCORE.INTRA.VDW>
0.456718

>  <SCORE.INTRA.VDW.0>
-1.57492

>  <SCORE.INTRA.norm>
-0.822527

>  <SCORE.RESTR>
0

>  <SCORE.RESTR.CAVITY>
0

>  <SCORE.RESTR.norm>
0

>  <SCORE.SYSTEM>
0

>  <SCORE.SYSTEM.CONST>
0

>  <SCORE.SYSTEM.DIHEDRAL>
0

>  <SCORE.SYSTEM.SOLV>
0

>  <SCORE.SYSTEM.norm>
0

>  <SCORE.heavy>
14

>  <SCORE.norm>
-0.908909

>  <RMSD>
21.806

$$$$
ligand
 OpenBabel11021811493D
libRbt.so/2013.1/901 2013/11/27
 14 13  0  0  0  0  0  0  0  0999 V2000
   31.8211   -9.8190   -0.2342 N   0  0  0  0  0  0  0  0  0  0  0  0
   31.8332   -8.4017    0.1065 C   0  0  0  0  0  0  0  0  0  0  0  0
   31.0713   -8.1454    1.4242 C   0  0  0  0  0  0  0  0  0  0  0  0
   31.0303   -6.6688    1.8657 C   0  0  0  0  0  0  0  0  0  0  0  0
   32.3085   -5.9790    2.0963 N   0  0  0  0  0  0  0  0  0  0  0  0
   32.3446   -4.5701    2.5043 C   0  0  0  0  0  0  0  0  0  0  0  0
   32.3020   -4.3297    4.0162 C   0  0  0  0  0  0  0  0  0  0  0  0
   33.5605   -4.8417    4.7372 C   0  0  0  0  0  0  0  0  0  0  0  0
   34.8313   -4.0372    4.4204 C   0  0  0  0  0  0  0  0  0  0  0  0
   36.0022   -4.4007    5.2219 N   0  0  0  0  0  0  0  0  0  0  0  0
   36.7467   -5.6297    4.8968 C   0  0  0  0  0  0  0  0  0  0  0  0
   36.2818   -6.9336    5.5878 C   0  0  0  0  0  0  0  0  0  0  0  0
   37.1465   -8.1816    5.3184 C   0  0  0  0  0  0  0  0  0  0  0  0
   36.6849   -9.3633    6.0409 N   0  0  0  0  0  0  0  0  0  0  0  0
  1  2  1  0  0  0  0
  2  3  1  0  0  0  0
  3  4  1  0  0  0  0
  4  5  1  0  0  0  0
  5  6  1  0  0  0  0
  6  7  1  0  0  0  0
  7  8  1  0  0  0  0
  8  9  1  0  0  0  0
  9 10  1  0  0  0  0
 10 11  1  0  0  0  0
 11 12  1  0  0  0  0
 12 13  1  0  0  0  0
 13 14  1  0  0  0  0
M  END
>  <CHROM.1>
-179.96570902,-58.96017614,179.35950844,88.92670939,66.42370550,69.02425778
172.69211896,76.97966111,-89.36583947,-175.28280465,177.70364768,33.85450599
-6.52118826,3.42879762,-2.70481331,-0.66059257,0.34662769

>  <Name>
ligand

>  <RI>
0

>  <Rbt.Current_Directory>
/home/itssahil/PROJECTS/Mol_Feturizer/New_Systems/rnas/4E8Q

>  <Rbt.Executable>
rbdock ($Id: //depot/dev/client3/rdock/2013.1/src/exe/rbdock.cxx#4 $)

>  <Rbt.Library>
libRbt.so (2013.1, Build901 2013/11/27)

>  <Rbt.Parameter_File>
/export/apps/rDock/src/rDock_2013.1_src/data/scripts/dock_solv.prm

>  <Rbt.Receptor>
prm/blind_docking_40.prm

>  <SCORE>
-12.1963

>  <SCORE.INTER>
-0.410234

>  <SCORE.INTER.CONST>
1

>  <SCORE.INTER.POLAR>
0

>  <SCORE.INTER.ROT>
11

>  <SCORE.INTER.SOLV>
7.49666

>  <SCORE.INTER.VDW>
-13.7057

>  <SCORE.INTER.norm>
-0.0293024

>  <SCORE.INTRA>
-11.786

>  <SCORE.INTRA.DIHEDRAL>
-23.755

>  <SCORE.INTRA.DIHEDRAL.0>
25.9209

>  <SCORE.INTRA.POLAR>
0

>  <SCORE.INTRA.POLAR.0>
0

>  <SCORE.INTRA.REPUL>
0

>  <SCORE.INTRA.REPUL.0>
0

>  <SCORE.INTRA.SOLV>
-1.22763

>  <SCORE.INTRA.SOLV.lig_0>
-47.4815

>  <SCORE.INTRA.VDW>
0.705259

>  <SCORE.INTRA.VDW.0>
-1.57492

>  <SCORE.INTRA.norm>
-0.84186

>  <SCORE.RESTR>
0

>  <SCORE.RESTR.CAVITY>
0

>  <SCORE.RESTR.norm>
0

>  <SCORE.SYSTEM>
0

>  <SCORE.SYSTEM.CONST>
0

>  <SCORE.SYSTEM.DIHEDRAL>
0

>  <SCORE.SYSTEM.SOLV>
0

>  <SCORE.SYSTEM.norm>
0

>  <SCORE.heavy>
14

>  <SCORE.norm>
-0.871162

>  <RMSD>
22.008

$$$$
ligand
 OpenBabel11021811493D
libRbt.so/2013.1/901 2013/11/27
 14 13  0  0  0  0  0  0  0  0999 V2000
   59.9861   -0.5178   17.7947 N   0  0  0  0  0  0  0  0  0  0  0  0
   61.2923   -0.2258   17.2170 C   0  0  0  0  0  0  0  0  0  0  0  0
   62.2283   -1.4485   17.3254 C   0  0  0  0  0  0  0  0  0  0  0  0
   61.8014   -2.6616   16.4752 C   0  0  0  0  0  0  0  0  0  0  0  0
   60.5873   -3.3915   16.8702 N   0  0  0  0  0  0  0  0  0  0  0  0
   60.0176   -4.4336   16.0088 C   0  0  0  0  0  0  0  0  0  0  0  0
   59.1534   -5.4724   16.7296 C   0  0  0  0  0  0  0  0  0  0  0  0
   59.9736   -6.4033   17.6387 C   0  0  0  0  0  0  0  0  0  0  0  0
   59.1258   -7.4282   18.4090 C   0  0  0  0  0  0  0  0  0  0  0  0
   58.3121   -8.3073   17.5660 N   0  0  0  0  0  0  0  0  0  0  0  0
   56.8710   -8.4411   17.8415 C   0  0  0  0  0  0  0  0  0  0  0  0
   56.3508   -9.8589   18.1771 C   0  0  0  0  0  0  0  0  0  0  0  0
   56.9457  -10.5109   19.4416 C   0  0  0  0  0  0  0  0  0  0  0  0
   56.4988   -9.8739   20.6770 N   0  0  0  0  0  0  0  0  0  0  0  0
  1  2  1  0  0  0  0
  2  3  1  0  0  0  0
  3  4  1  0  0  0  0
  4  5  1  0  0  0  0
  5  6  1  0  0  0  0
  6  7  1  0  0  0  0
  7  8  1  0  0  0  0
  8  9  1  0  0  0  0
  9 10  1  0  0  0  0
 10 11  1  0  0  0  0
 11 12  1  0  0  0  0
 12 13  1  0  0  0  0
 13 14  1  0  0  0  0
M  END
>  <CHROM.1>
66.70107734,-69.19057721,171.41742529,156.23213341,-69.75511905,178.18268581
57.77548158,-128.12468441,-120.12880642,61.51558542,69.96069932,59.22473520
-5.64110783,17.72634872,0.68600201,0.94347070,0.54855472

>  <Name>
ligand

>  <RI>
0

>  <Rbt.Current_Directory>
/home/itssahil/PROJECTS/Mol_Feturizer/New_Systems/rnas/4E8Q

>  <Rbt.Executable>
rbdock ($Id: //depot/dev/client3/rdock/2013.1/src/exe/rbdock.cxx#4 $)

>  <Rbt.Library>
libRbt.so (2013.1, Build901 2013/11/27)

>  <Rbt.Parameter_File>
/export/apps/rDock/src/rDock_2013.1_src/data/scripts/dock_solv.prm

>  <Rbt.Receptor>
prm/blind_docking_80.prm

>  <SCORE>
-10.6103

>  <SCORE.INTER>
-0.997064

>  <SCORE.INTER.CONST>
1

>  <SCORE.INTER.POLAR>
0

>  <SCORE.INTER.ROT>
11

>  <SCORE.INTER.SOLV>
11.9411

>  <SCORE.INTER.VDW>
-15.5784

>  <SCORE.INTER.norm>
-0.0712189

>  <SCORE.INTRA>
-9.61323

>  <SCORE.INTRA.DIHEDRAL>
-21.8651

>  <SCORE.INTRA.DIHEDRAL.0>
25.9209

>  <SCORE.INTRA.POLAR>
0

>  <SCORE.INTRA.POLAR.0>
0

>  <SCORE.INTRA.REPUL>
0

>  <SCORE.INTRA.REPUL.0>
0

>  <SCORE.INTRA.SOLV>
2.81768

>  <SCORE.INTRA.SOLV.lig_0>
-47.4815

>  <SCORE.INTRA.VDW>
-0.0895045

>  <SCORE.INTRA.VDW.0>
-1.57492

>  <SCORE.INTRA.norm>
-0.686659

>  <SCORE.RESTR>
0

>  <SCORE.RESTR.CAVITY>
0

>  <SCORE.RESTR.norm>
0

>  <SCORE.SYSTEM>
0

>  <SCORE.SYSTEM.CONST>
0

>  <SCORE.SYSTEM.DIHEDRAL>
0

>  <SCORE.SYSTEM.SOLV>
0

>  <SCORE.SYSTEM.norm>
0

>  <SCORE.heavy>
14

>  <SCORE.norm>
-0.757878

>  <RMSD>
22.219

$$$$
ligand
 OpenBabel11021811493D
libRbt.so/2013.1/901 2013/11/27
 14 13  0  0  0  0  0  0  0  0999 V2000
   36.2446   -8.1005    5.7741 N   0  0  0  0  0  0  0  0  0  0  0  0
   36.8063   -6.7617    5.9051 C   0  0  0  0  0  0  0  0  0  0  0  0
   36.2177   -5.8109    4.8411 C   0  0  0  0  0  0  0  0  0  0  0  0
   34.6986   -5.5762    4.9594 C   0  0  0  0  0  0  0  0  0  0  0  0
   34.0716   -4.6181    4.0366 N   0  0  0  0  0  0  0  0  0  0  0  0
   32.6164   -4.4331    4.0121 C   0  0  0  0  0  0  0  0  0  0  0  0
   31.9303   -4.8452    2.7064 C   0  0  0  0  0  0  0  0  0  0  0  0
   32.1871   -6.3158    2.3361 C   0  0  0  0  0  0  0  0  0  0  0  0
   31.4333   -6.7834    1.0808 C   0  0  0  0  0  0  0  0  0  0  0  0
   31.7896   -8.1263    0.6170 N   0  0  0  0  0  0  0  0  0  0  0  0
   31.2305   -8.6243   -0.6518 C   0  0  0  0  0  0  0  0  0  0  0  0
   32.1572   -9.4975   -1.5306 C   0  0  0  0  0  0  0  0  0  0  0  0
   33.4484   -8.8167   -2.0281 C   0  0  0  0  0  0  0  0  0  0  0  0
   34.3050   -9.7116   -2.8006 N   0  0  0  0  0  0  0  0  0  0  0  0
  1  2  1  0  0  0  0
  2  3  1  0  0  0  0
  3  4  1  0  0  0  0
  4  5  1  0  0  0  0
  5  6  1  0  0  0  0
  6  7  1  0  0  0  0
  7  8  1  0  0  0  0
  8  9  1  0  0  0  0
  9 10  1  0  0  0  0
 10 11  1  0  0  0  0
 11 12  1  0  0  0  0
 12 13  1  0  0  0  0
 13 14  1  0  0  0  0
M  END
>  <CHROM.1>
63.29676488,176.26296799,174.54471643,-115.32063666,57.63601353,176.07928375
172.84025546,-173.93101402,143.05428778,-61.22758641,177.43549092,33.50950612
-7.00124843,2.08990019,-1.15323048,0.52464678,-2.21852744

>  <Name>
ligand

>  <RI>
0

>  <Rbt.Current_Directory>
/home/itssahil/PROJECTS/Mol_Feturizer/New_Systems/rnas/4E8Q

>  <Rbt.Executable>
rbdock ($Id: //depot/dev/client3/rdock/2013.1/src/exe/rbdock.cxx#4 $)

>  <Rbt.Library>
libRbt.so (2013.1, Build901 2013/11/27)

>  <Rbt.Parameter_File>
/export/apps/rDock/src/rDock_2013.1_src/data/scripts/dock_solv.prm

>  <Rbt.Receptor>
prm/blind_docking_40.prm

>  <SCORE>
-12.9243

>  <SCORE.INTER>
-1.07418

>  <SCORE.INTER.CONST>
1

>  <SCORE.INTER.POLAR>
0

>  <SCORE.INTER.ROT>
11

>  <SCORE.INTER.SOLV>
9.21605

>  <SCORE.INTER.VDW>
-14.7215

>  <SCORE.INTER.norm>
-0.0767269

>  <SCORE.INTRA>
-11.8501

>  <SCORE.INTRA.DIHEDRAL>
-23.4698

>  <SCORE.INTRA.DIHEDRAL.0>
25.9209

>  <SCORE.INTRA.POLAR>
0

>  <SCORE.INTRA.POLAR.0>
0

>  <SCORE.INTRA.REPUL>
0

>  <SCORE.INTRA.REPUL.0>
0

>  <SCORE.INTRA.SOLV>
-0.7531

>  <SCORE.INTRA.SOLV.lig_0>
-47.4815

>  <SCORE.INTRA.VDW>
0.261346

>  <SCORE.INTRA.VDW.0>
-1.57492

>  <SCORE.INTRA.norm>
-0.846435

>  <SCORE.RESTR>
0

>  <SCORE.RESTR.CAVITY>
0

>  <SCORE.RESTR.norm>
0

>  <SCORE.SYSTEM>
0

>  <SCORE.SYSTEM.CONST>
0

>  <SCORE.SYSTEM.DIHEDRAL>
0

>  <SCORE.SYSTEM.SOLV>
0

>  <SCORE.SYSTEM.norm>
0

>  <SCORE.heavy>
14

>  <SCORE.norm>
-0.923162

>  <RMSD>
22.288

$$$$
ligand
 OpenBabel11021811493D
libRbt.so/2013.1/901 2013/11/27
 14 13  0  0  0  0  0  0  0  0999 V2000
   31.3524   -8.8068   -0.2262 N   0  0  0  0  0  0  0  0  0  0  0  0
   30.9507   -9.5710   -1.4010 C   0  0  0  0  0  0  0  0  0  0  0  0
   32.0618  -10.5553   -1.8240 C   0  0  0  0  0  0  0  0  0  0  0  0
   33.3821   -9.8867   -2.2557 C   0  0  0  0  0  0  0  0  0  0  0  0
   34.4715  -10.7503   -2.7355 N   0  0  0  0  0  0  0  0  0  0  0  0
   35.5460  -10.2142   -3.5785 C   0  0  0  0  0  0  0  0  0  0  0  0
   36.6513   -9.4672   -2.8264 C   0  0  0  0  0  0  0  0  0  0  0  0
   37.7237  -10.4089   -2.2526 C   0  0  0  0  0  0  0  0  0  0  0  0
   38.7944  -10.8292   -3.2721 C   0  0  0  0  0  0  0  0  0  0  0  0
   38.2701  -11.4561   -4.4877 N   0  0  0  0  0  0  0  0  0  0  0  0
   39.2086  -11.9112   -5.5281 C   0  0  0  0  0  0  0  0  0  0  0  0
   38.7160  -11.8447   -6.9932 C   0  0  0  0  0  0  0  0  0  0  0  0
   39.6798  -12.4165   -8.0525 C   0  0  0  0  0  0  0  0  0  0  0  0
   40.9993  -11.7925   -8.0206 N   0  0  0  0  0  0  0  0  0  0  0  0
  1  2  1  0  0  0  0
  2  3  1  0  0  0  0
  3  4  1  0  0  0  0
  4  5  1  0  0  0  0
  5  6  1  0  0  0  0
  6  7  1  0  0  0  0
  7  8  1  0  0  0  0
  8  9  1  0  0  0  0
  9 10  1  0  0  0  0
 10 11  1  0  0  0  0
 11 12  1  0  0  0  0
 12 13  1  0  0  0  0
 13 14  1  0  0  0  0
M  END
>  <CHROM.1>
-62.93920442,-177.12504575,158.59848038,80.28715569,83.66600059,82.24298199
-55.79481849,-179.38659592,-148.06327791,-175.96060107,-56.22384619,36.27199377
-10.70791249,-3.81813871,-2.48701524,0.01824872,-1.93319089

>  <Name>
ligand

>  <RI>
0

>  <Rbt.Current_Directory>
/home/itssahil/PROJECTS/Mol_Feturizer/New_Systems/rnas/4E8Q

>  <Rbt.Executable>
rbdock ($Id: //depot/dev/client3/rdock/2013.1/src/exe/rbdock.cxx#4 $)

>  <Rbt.Library>
libRbt.so (2013.1, Build901 2013/11/27)

>  <Rbt.Parameter_File>
/export/apps/rDock/src/rDock_2013.1_src/data/scripts/dock_solv.prm

>  <Rbt.Receptor>
prm/blind_docking_60.prm

>  <SCORE>
-9.26553

>  <SCORE.INTER>
0.220442

>  <SCORE.INTER.CONST>
1

>  <SCORE.INTER.POLAR>
0

>  <SCORE.INTER.ROT>
11

>  <SCORE.INTER.SOLV>
6.23853

>  <SCORE.INTER.VDW>
-12.8659

>  <SCORE.INTER.norm>
0.0157459

>  <SCORE.INTRA>
-9.48597

>  <SCORE.INTRA.DIHEDRAL>
-20.655

>  <SCORE.INTRA.DIHEDRAL.0>
25.9209

>  <SCORE.INTRA.POLAR>
0

>  <SCORE.INTRA.POLAR.0>
0

>  <SCORE.INTRA.REPUL>
0

>  <SCORE.INTRA.REPUL.0>
0

>  <SCORE.INTRA.SOLV>
0.603876

>  <SCORE.INTRA.SOLV.lig_0>
-47.4815

>  <SCORE.INTRA.VDW>
0.539579

>  <SCORE.INTRA.VDW.0>
-1.57492

>  <SCORE.INTRA.norm>
-0.677569

>  <SCORE.RESTR>
0

>  <SCORE.RESTR.CAVITY>
0

>  <SCORE.RESTR.norm>
0

>  <SCORE.SYSTEM>
0

>  <SCORE.SYSTEM.CONST>
0

>  <SCORE.SYSTEM.DIHEDRAL>
0

>  <SCORE.SYSTEM.SOLV>
0

>  <SCORE.SYSTEM.norm>
0

>  <SCORE.heavy>
14

>  <SCORE.norm>
-0.661824

>  <RMSD>
22.294

$$$$
ligand
 OpenBabel11021811493D
libRbt.so/2013.1/901 2013/11/27
 14 13  0  0  0  0  0  0  0  0999 V2000
   35.1330   -1.6704    4.9817 N   0  0  0  0  0  0  0  0  0  0  0  0
   33.8148   -1.0519    4.9124 C   0  0  0  0  0  0  0  0  0  0  0  0
   33.4874   -0.6130    3.4692 C   0  0  0  0  0  0  0  0  0  0  0  0
   33.3866   -1.7685    2.4537 C   0  0  0  0  0  0  0  0  0  0  0  0
   32.3929   -2.8240    2.7016 N   0  0  0  0  0  0  0  0  0  0  0  0
   32.7025   -4.2325    2.4320 C   0  0  0  0  0  0  0  0  0  0  0  0
   31.7121   -5.2405    3.0223 C   0  0  0  0  0  0  0  0  0  0  0  0
   31.6140   -5.1528    4.5548 C   0  0  0  0  0  0  0  0  0  0  0  0
   32.9304   -5.4684    5.2828 C   0  0  0  0  0  0  0  0  0  0  0  0
   32.8214   -5.5408    6.7417 N   0  0  0  0  0  0  0  0  0  0  0  0
   34.0232   -5.8329    7.5422 C   0  0  0  0  0  0  0  0  0  0  0  0
   33.8113   -6.5978    8.8702 C   0  0  0  0  0  0  0  0  0  0  0  0
   35.0842   -6.8783    9.6943 C   0  0  0  0  0  0  0  0  0  0  0  0
   36.0742   -7.6663    8.9660 N   0  0  0  0  0  0  0  0  0  0  0  0
  1  2  1  0  0  0  0
  2  3  1  0  0  0  0
  3  4  1  0  0  0  0
  4  5  1  0  0  0  0
  5  6  1  0  0  0  0
  6  7  1  0  0  0  0
  7  8  1  0  0  0  0
  8  9  1  0  0  0  0
  9 10  1  0  0  0  0
 10 11  1  0  0  0  0
 11 12  1  0  0  0  0
 12 13  1  0  0  0  0
 13 14  1  0  0  0  0
M  END
>  <CHROM.1>
63.69964063,58.86493152,-140.59289620,166.82889613,-60.10824258,-62.16065882
-173.32773897,-179.79350088,-149.21355073,-179.43373525,-59.15778890,33.49890849
-4.32410656,5.40158493,-1.91295910,0.87481675,2.52758862

>  <Name>
ligand

>  <RI>
0

>  <Rbt.Current_Directory>
/home/itssahil/PROJECTS/Mol_Feturizer/New_Systems/rnas/4E8Q

>  <Rbt.Executable>
rbdock ($Id: //depot/dev/client3/rdock/2013.1/src/exe/rbdock.cxx#4 $)

>  <Rbt.Library>
libRbt.so (2013.1, Build901 2013/11/27)

>  <Rbt.Parameter_File>
/export/apps/rDock/src/rDock_2013.1_src/data/scripts/dock_solv.prm

>  <Rbt.Receptor>
prm/blind_docking_100.prm

>  <SCORE>
-12.1402

>  <SCORE.INTER>
-1.2546

>  <SCORE.INTER.CONST>
1

>  <SCORE.INTER.POLAR>
0

>  <SCORE.INTER.ROT>
11

>  <SCORE.INTER.SOLV>
12.3317

>  <SCORE.INTER.VDW>
-15.8803

>  <SCORE.INTER.norm>
-0.0896145

>  <SCORE.INTRA>
-10.8856

>  <SCORE.INTRA.DIHEDRAL>
-24.0286

>  <SCORE.INTRA.DIHEDRAL.0>
25.9209

>  <SCORE.INTRA.POLAR>
0

>  <SCORE.INTRA.POLAR.0>
0

>  <SCORE.INTRA.REPUL>
0

>  <SCORE.INTRA.REPUL.0>
0

>  <SCORE.INTRA.SOLV>
1.39322

>  <SCORE.INTRA.SOLV.lig_0>
-47.4815

>  <SCORE.INTRA.VDW>
0.43207

>  <SCORE.INTRA.VDW.0>
-1.57492

>  <SCORE.INTRA.norm>
-0.777545

>  <SCORE.RESTR>
0

>  <SCORE.RESTR.CAVITY>
0

>  <SCORE.RESTR.norm>
0

>  <SCORE.SYSTEM>
0

>  <SCORE.SYSTEM.CONST>
0

>  <SCORE.SYSTEM.DIHEDRAL>
0

>  <SCORE.SYSTEM.SOLV>
0

>  <SCORE.SYSTEM.norm>
0

>  <SCORE.heavy>
14

>  <SCORE.norm>
-0.867159

>  <RMSD>
22.367

$$$$
ligand
 OpenBabel11021811493D
libRbt.so/2013.1/901 2013/11/27
 14 13  0  0  0  0  0  0  0  0999 V2000
   38.0538   -2.4973    4.3002 N   0  0  0  0  0  0  0  0  0  0  0  0
   36.6891   -2.0283    4.5071 C   0  0  0  0  0  0  0  0  0  0  0  0
   35.6712   -2.9943    3.8642 C   0  0  0  0  0  0  0  0  0  0  0  0
   34.1957   -2.5848    4.0429 C   0  0  0  0  0  0  0  0  0  0  0  0
   33.1584   -3.4848    3.5169 N   0  0  0  0  0  0  0  0  0  0  0  0
   32.8707   -4.7685    4.1665 C   0  0  0  0  0  0  0  0  0  0  0  0
   31.7906   -5.6142    3.4855 C   0  0  0  0  0  0  0  0  0  0  0  0
   32.1995   -6.0842    2.0792 C   0  0  0  0  0  0  0  0  0  0  0  0
   31.1937   -7.0457    1.4262 C   0  0  0  0  0  0  0  0  0  0  0  0
   31.5961   -7.5538    0.1126 N   0  0  0  0  0  0  0  0  0  0  0  0
   31.0894   -8.8601   -0.3428 C   0  0  0  0  0  0  0  0  0  0  0  0
   31.1961   -9.1637   -1.8560 C   0  0  0  0  0  0  0  0  0  0  0  0
   30.7841  -10.5861   -2.2864 C   0  0  0  0  0  0  0  0  0  0  0  0
   31.6074  -11.6277   -1.6793 N   0  0  0  0  0  0  0  0  0  0  0  0
  1  2  1  0  0  0  0
  2  3  1  0  0  0  0
  3  4  1  0  0  0  0
  4  5  1  0  0  0  0
  5  6  1  0  0  0  0
  6  7  1  0  0  0  0
  7  8  1  0  0  0  0
  8  9  1  0  0  0  0
  9 10  1  0  0  0  0
 10 11  1  0  0  0  0
 11 12  1  0  0  0  0
 12 13  1  0  0  0  0
 13 14  1  0  0  0  0
M  END
>  <CHROM.1>
179.50572534,-177.09167736,71.78868294,-178.49068933,64.88124364,174.41782941
-177.25557682,153.09778769,162.76328522,174.38616663,-61.26565218,33.00661128
-6.06374056,1.80987038,-1.09413457,-0.19701597,-2.37880036

>  <Name>
ligand

>  <RI>
0

>  <Rbt.Current_Directory>
/home/itssahil/PROJECTS/Mol_Feturizer/New_Systems/rnas/4E8Q

>  <Rbt.Executable>
rbdock ($Id: //depot/dev/client3/rdock/2013.1/src/exe/rbdock.cxx#4 $)

>  <Rbt.Library>
libRbt.so (2013.1, Build901 2013/11/27)

>  <Rbt.Parameter_File>
/export/apps/rDock/src/rDock_2013.1_src/data/scripts/dock_solv.prm

>  <Rbt.Receptor>
prm/blind_docking_40.prm

>  <SCORE>
-14.1181

>  <SCORE.INTER>
-1.70454

>  <SCORE.INTER.CONST>
1

>  <SCORE.INTER.POLAR>
0

>  <SCORE.INTER.ROT>
11

>  <SCORE.INTER.SOLV>
8.61351

>  <SCORE.INTER.VDW>
-14.9409

>  <SCORE.INTER.norm>
-0.121753

>  <SCORE.INTRA>
-12.4136

>  <SCORE.INTRA.DIHEDRAL>
-24.6718

>  <SCORE.INTRA.DIHEDRAL.0>
25.9209

>  <SCORE.INTRA.POLAR>
0

>  <SCORE.INTRA.POLAR.0>
0

>  <SCORE.INTRA.REPUL>
0

>  <SCORE.INTRA.REPUL.0>
0

>  <SCORE.INTRA.SOLV>
-1.10878

>  <SCORE.INTRA.SOLV.lig_0>
-47.4815

>  <SCORE.INTRA.VDW>
0.476705

>  <SCORE.INTRA.VDW.0>
-1.57492

>  <SCORE.INTRA.norm>
-0.886685

>  <SCORE.RESTR>
0

>  <SCORE.RESTR.CAVITY>
0

>  <SCORE.RESTR.norm>
0

>  <SCORE.SYSTEM>
0

>  <SCORE.SYSTEM.CONST>
0

>  <SCORE.SYSTEM.DIHEDRAL>
0

>  <SCORE.SYSTEM.SOLV>
0

>  <SCORE.SYSTEM.norm>
0

>  <SCORE.heavy>
14

>  <SCORE.norm>
-1.00844

>  <RMSD>
22.449

$$$$
ligand
 OpenBabel11021811493D
libRbt.so/2013.1/901 2013/11/27
 14 13  0  0  0  0  0  0  0  0999 V2000
   36.0217    0.2040    0.3534 N   0  0  0  0  0  0  0  0  0  0  0  0
   36.1594   -1.1368    0.9087 C   0  0  0  0  0  0  0  0  0  0  0  0
   36.2679   -1.0871    2.4477 C   0  0  0  0  0  0  0  0  0  0  0  0
   34.9543   -0.7337    3.1731 C   0  0  0  0  0  0  0  0  0  0  0  0
   33.8523   -1.7061    3.1236 N   0  0  0  0  0  0  0  0  0  0  0  0
   33.7184   -2.7501    4.1457 C   0  0  0  0  0  0  0  0  0  0  0  0
   33.4284   -4.1541    3.6072 C   0  0  0  0  0  0  0  0  0  0  0  0
   32.1160   -4.2271    2.8082 C   0  0  0  0  0  0  0  0  0  0  0  0
   31.8960   -5.5692    2.0920 C   0  0  0  0  0  0  0  0  0  0  0  0
   31.8462   -6.7350    2.9774 N   0  0  0  0  0  0  0  0  0  0  0  0
   31.3526   -8.0201    2.4525 C   0  0  0  0  0  0  0  0  0  0  0  0
   29.8189   -8.2198    2.4178 C   0  0  0  0  0  0  0  0  0  0  0  0
   29.1069   -8.1931    3.7854 C   0  0  0  0  0  0  0  0  0  0  0  0
   29.5536   -9.2545    4.6829 N   0  0  0  0  0  0  0  0  0  0  0  0
  1  2  1  0  0  0  0
  2  3  1  0  0  0  0
  3  4  1  0  0  0  0
  4  5  1  0  0  0  0
  5  6  1  0  0  0  0
  6  7  1  0  0  0  0
  7  8  1  0  0  0  0
  8  9  1  0  0  0  0
  9 10  1  0  0  0  0
 10 11  1  0  0  0  0
 11 12  1  0  0  0  0
 12 13  1  0  0  0  0
 13 14  1  0  0  0  0
M  END
>  <CHROM.1>
72.12308034,67.73239871,89.97339650,-134.22571366,-60.18783272,171.92429789
59.86649788,166.73191848,-82.67635488,-62.26064838,-61.61968130,32.86377827
-4.39877853,2.78397087,-0.16862755,-0.93073863,-1.97150423

>  <Name>
ligand

>  <RI>
0

>  <Rbt.Current_Directory>
/home/itssahil/PROJECTS/Mol_Feturizer/New_Systems/rnas/4E8Q

>  <Rbt.Executable>
rbdock ($Id: //depot/dev/client3/rdock/2013.1/src/exe/rbdock.cxx#4 $)

>  <Rbt.Library>
libRbt.so (2013.1, Build901 2013/11/27)

>  <Rbt.Parameter_File>
/export/apps/rDock/src/rDock_2013.1_src/data/scripts/dock_solv.prm

>  <Rbt.Receptor>
prm/blind_docking_40.prm

>  <SCORE>
-10.3812

>  <SCORE.INTER>
0.0270936

>  <SCORE.INTER.CONST>
1

>  <SCORE.INTER.POLAR>
0

>  <SCORE.INTER.ROT>
11

>  <SCORE.INTER.SOLV>
5.43172

>  <SCORE.INTER.VDW>
-12.7258

>  <SCORE.INTER.norm>
0.00193525

>  <SCORE.INTRA>
-10.4186

>  <SCORE.INTRA.DIHEDRAL>
-22.7064

>  <SCORE.INTRA.DIHEDRAL.0>
25.9209

>  <SCORE.INTRA.POLAR>
0

>  <SCORE.INTRA.POLAR.0>
0

>  <SCORE.INTRA.REPUL>
0

>  <SCORE.INTRA.REPUL.0>
0

>  <SCORE.INTRA.SOLV>
1.44432

>  <SCORE.INTRA.SOLV.lig_0>
-47.4815

>  <SCORE.INTRA.VDW>
0.212382

>  <SCORE.INTRA.VDW.0>
-1.57492

>  <SCORE.INTRA.norm>
-0.744189

>  <SCORE.RESTR>
0.0103761

>  <SCORE.RESTR.CAVITY>
0.0103761

>  <SCORE.RESTR.norm>
0.000741152

>  <SCORE.SYSTEM>
0

>  <SCORE.SYSTEM.CONST>
0

>  <SCORE.SYSTEM.DIHEDRAL>
0

>  <SCORE.SYSTEM.SOLV>
0

>  <SCORE.SYSTEM.norm>
0

>  <SCORE.heavy>
14

>  <SCORE.norm>
-0.741512

>  <RMSD>
22.489

$$$$
ligand
 OpenBabel11021811493D
libRbt.so/2013.1/901 2013/11/27
 14 13  0  0  0  0  0  0  0  0999 V2000
   31.6470   -9.8817    0.3550 N   0  0  0  0  0  0  0  0  0  0  0  0
   31.1972   -8.6713   -0.3217 C   0  0  0  0  0  0  0  0  0  0  0  0
   31.5426   -7.4160    0.5074 C   0  0  0  0  0  0  0  0  0  0  0  0
   30.8690   -7.3559    1.8928 C   0  0  0  0  0  0  0  0  0  0  0  0
   31.1588   -6.2000    2.7545 N   0  0  0  0  0  0  0  0  0  0  0  0
   31.4578   -6.3756    4.1801 C   0  0  0  0  0  0  0  0  0  0  0  0
   31.5067   -5.0820    4.9984 C   0  0  0  0  0  0  0  0  0  0  0  0
   32.6185   -4.1251    4.5355 C   0  0  0  0  0  0  0  0  0  0  0  0
   32.3582   -3.4848    3.1626 C   0  0  0  0  0  0  0  0  0  0  0  0
   33.3680   -2.5119    2.7392 N   0  0  0  0  0  0  0  0  0  0  0  0
   33.5535   -1.2768    3.5206 C   0  0  0  0  0  0  0  0  0  0  0  0
   34.3543   -1.3959    4.8390 C   0  0  0  0  0  0  0  0  0  0  0  0
   35.7715   -1.9905    4.7127 C   0  0  0  0  0  0  0  0  0  0  0  0
   36.4121   -2.2196    6.0045 N   0  0  0  0  0  0  0  0  0  0  0  0
  1  2  1  0  0  0  0
  2  3  1  0  0  0  0
  3  4  1  0  0  0  0
  4  5  1  0  0  0  0
  5  6  1  0  0  0  0
  6  7  1  0  0  0  0
  7  8  1  0  0  0  0
  8  9  1  0  0  0  0
  9 10  1  0  0  0  0
 10 11  1  0  0  0  0
 11 12  1  0  0  0  0
 12 13  1  0  0  0  0
 13 14  1  0  0  0  0
M  END
>  <CHROM.1>
-62.00786752,179.23409760,-135.23104493,-170.16851086,-62.58652328,70.00558523
176.65298302,-63.69188824,77.92608038,56.05875037,-173.29976830,32.70091293
-4.85608388,3.13438670,-2.28514223,0.86610019,1.12699903

>  <Name>
ligand

>  <RI>
0

>  <Rbt.Current_Directory>
/home/itssahil/PROJECTS/Mol_Feturizer/New_Systems/rnas/4E8Q

>  <Rbt.Executable>
rbdock ($Id: //depot/dev/client3/rdock/2013.1/src/exe/rbdock.cxx#4 $)

>  <Rbt.Library>
libRbt.so (2013.1, Build901 2013/11/27)

>  <Rbt.Parameter_File>
/export/apps/rDock/src/rDock_2013.1_src/data/scripts/dock_solv.prm

>  <Rbt.Receptor>
prm/blind_docking_60.prm

>  <SCORE>
-12.9092

>  <SCORE.INTER>
-2.16621

>  <SCORE.INTER.CONST>
1

>  <SCORE.INTER.POLAR>
0

>  <SCORE.INTER.ROT>
11

>  <SCORE.INTER.SOLV>
10.6933

>  <SCORE.INTER.VDW>
-15.9419

>  <SCORE.INTER.norm>
-0.154729

>  <SCORE.INTRA>
-10.743

>  <SCORE.INTRA.DIHEDRAL>
-23.8453

>  <SCORE.INTRA.DIHEDRAL.0>
25.9209

>  <SCORE.INTRA.POLAR>
0

>  <SCORE.INTRA.POLAR.0>
0

>  <SCORE.INTRA.REPUL>
0

>  <SCORE.INTRA.REPUL.0>
0

>  <SCORE.INTRA.SOLV>
0.0928424

>  <SCORE.INTRA.SOLV.lig_0>
-47.4815

>  <SCORE.INTRA.VDW>
1.13326

>  <SCORE.INTRA.VDW.0>
-1.57492

>  <SCORE.INTRA.norm>
-0.767356

>  <SCORE.RESTR>
0

>  <SCORE.RESTR.CAVITY>
0

>  <SCORE.RESTR.norm>
0

>  <SCORE.SYSTEM>
0

>  <SCORE.SYSTEM.CONST>
0

>  <SCORE.SYSTEM.DIHEDRAL>
0

>  <SCORE.SYSTEM.SOLV>
0

>  <SCORE.SYSTEM.norm>
0

>  <SCORE.heavy>
14

>  <SCORE.norm>
-0.922086

>  <RMSD>
22.584

$$$$
ligand
 OpenBabel11021811493D
libRbt.so/2013.1/901 2013/11/27
 14 13  0  0  0  0  0  0  0  0999 V2000
   33.3585    0.0862    1.9396 N   0  0  0  0  0  0  0  0  0  0  0  0
   33.3144   -1.2202    2.5850 C   0  0  0  0  0  0  0  0  0  0  0  0
   33.8970   -1.1492    4.0126 C   0  0  0  0  0  0  0  0  0  0  0  0
   33.9618   -2.5026    4.7479 C   0  0  0  0  0  0  0  0  0  0  0  0
   32.6964   -3.1892    5.0484 N   0  0  0  0  0  0  0  0  0  0  0  0
   32.6563   -4.6394    5.2670 C   0  0  0  0  0  0  0  0  0  0  0  0
   32.8053   -5.4919    4.0035 C   0  0  0  0  0  0  0  0  0  0  0  0
   31.7059   -5.2149    2.9640 C   0  0  0  0  0  0  0  0  0  0  0  0
   31.8551   -6.0266    1.6674 C   0  0  0  0  0  0  0  0  0  0  0  0
   31.6813   -7.4723    1.8263 N   0  0  0  0  0  0  0  0  0  0  0  0
   31.4941   -8.3130    0.6310 C   0  0  0  0  0  0  0  0  0  0  0  0
   32.6939   -8.4286   -0.3388 C   0  0  0  0  0  0  0  0  0  0  0  0
   32.4506   -9.2645   -1.6116 C   0  0  0  0  0  0  0  0  0  0  0  0
   33.6095   -9.3049   -2.4988 N   0  0  0  0  0  0  0  0  0  0  0  0
  1  2  1  0  0  0  0
  2  3  1  0  0  0  0
  3  4  1  0  0  0  0
  4  5  1  0  0  0  0
  5  6  1  0  0  0  0
  6  7  1  0  0  0  0
  7  8  1  0  0  0  0
  8  9  1  0  0  0  0
  9 10  1  0  0  0  0
 10 11  1  0  0  0  0
 11 12  1  0  0  0  0
 12 13  1  0  0  0  0
 13 14  1  0  0  0  0
M  END
>  <CHROM.1>
-176.86955520,-63.83711698,156.82691542,-74.19913747,-59.48015019,178.25607005
66.13442731,166.07406234,66.63560666,-177.44422854,178.51858032,32.72710462
-5.15229214,2.16049522,-1.22297062,-1.27228465,-2.20993026

>  <Name>
ligand

>  <RI>
0

>  <Rbt.Current_Directory>
/home/itssahil/PROJECTS/Mol_Feturizer/New_Systems/rnas/4E8Q

>  <Rbt.Executable>
rbdock ($Id: //depot/dev/client3/rdock/2013.1/src/exe/rbdock.cxx#4 $)

>  <Rbt.Library>
libRbt.so (2013.1, Build901 2013/11/27)

>  <Rbt.Parameter_File>
/export/apps/rDock/src/rDock_2013.1_src/data/scripts/dock_solv.prm

>  <Rbt.Receptor>
prm/blind_docking_80.prm

>  <SCORE>
-14.1432

>  <SCORE.INTER>
-1.54644

>  <SCORE.INTER.CONST>
1

>  <SCORE.INTER.POLAR>
0

>  <SCORE.INTER.ROT>
11

>  <SCORE.INTER.SOLV>
9.52787

>  <SCORE.INTER.VDW>
-15.1403

>  <SCORE.INTER.norm>
-0.11046

>  <SCORE.INTRA>
-12.5968

>  <SCORE.INTRA.DIHEDRAL>
-24.9037

>  <SCORE.INTRA.DIHEDRAL.0>
25.9209

>  <SCORE.INTRA.POLAR>
0

>  <SCORE.INTRA.POLAR.0>
0

>  <SCORE.INTRA.REPUL>
0

>  <SCORE.INTRA.REPUL.0>
0

>  <SCORE.INTRA.SOLV>
-1.12308

>  <SCORE.INTRA.SOLV.lig_0>
-47.4815

>  <SCORE.INTRA.VDW>
0.416621

>  <SCORE.INTRA.VDW.0>
-1.57492

>  <SCORE.INTRA.norm>
-0.899769

>  <SCORE.RESTR>
0

>  <SCORE.RESTR.CAVITY>
0

>  <SCORE.RESTR.norm>
0

>  <SCORE.SYSTEM>
0

>  <SCORE.SYSTEM.CONST>
0

>  <SCORE.SYSTEM.DIHEDRAL>
0

>  <SCORE.SYSTEM.SOLV>
0

>  <SCORE.SYSTEM.norm>
0

>  <SCORE.heavy>
14

>  <SCORE.norm>
-1.01023

>  <RMSD>
22.631

$$$$
ligand
 OpenBabel11021811493D
libRbt.so/2013.1/901 2013/11/27
 14 13  0  0  0  0  0  0  0  0999 V2000
   36.2869  -11.0513   -2.7983 N   0  0  0  0  0  0  0  0  0  0  0  0
   34.8479  -10.8346   -2.7103 C   0  0  0  0  0  0  0  0  0  0  0  0
   34.4895   -9.3721   -3.0495 C   0  0  0  0  0  0  0  0  0  0  0  0
   32.9917   -9.0311   -2.9191 C   0  0  0  0  0  0  0  0  0  0  0  0
   32.3734   -9.1236   -1.5880 N   0  0  0  0  0  0  0  0  0  0  0  0
   32.8671   -8.3158   -0.4671 C   0  0  0  0  0  0  0  0  0  0  0  0
   31.8010   -7.8897    0.5465 C   0  0  0  0  0  0  0  0  0  0  0  0
   32.3094   -6.8271    1.5356 C   0  0  0  0  0  0  0  0  0  0  0  0
   31.2562   -6.3736    2.5593 C   0  0  0  0  0  0  0  0  0  0  0  0
   31.6902   -5.2918    3.4462 N   0  0  0  0  0  0  0  0  0  0  0  0
   31.8550   -3.9330    2.9011 C   0  0  0  0  0  0  0  0  0  0  0  0
   33.2506   -3.2826    3.0514 C   0  0  0  0  0  0  0  0  0  0  0  0
   33.7141   -3.0138    4.4975 C   0  0  0  0  0  0  0  0  0  0  0  0
   35.0196   -2.3640    4.5675 N   0  0  0  0  0  0  0  0  0  0  0  0
  1  2  1  0  0  0  0
  2  3  1  0  0  0  0
  3  4  1  0  0  0  0
  4  5  1  0  0  0  0
  5  6  1  0  0  0  0
  6  7  1  0  0  0  0
  7  8  1  0  0  0  0
  8  9  1  0  0  0  0
  9 10  1  0  0  0  0
 10 11  1  0  0  0  0
 11 12  1  0  0  0  0
 12 13  1  0  0  0  0
 13 14  1  0  0  0  0
M  END
>  <CHROM.1>
-177.30582832,63.55424241,59.52574617,147.63606660,-168.64107398,179.60996931
-175.69681655,71.13353441,-122.24974112,-64.16811781,-178.29576762,33.19633532
-6.90742521,0.68368117,-1.43603802,0.17442401,0.75787683

>  <Name>
ligand

>  <RI>
0

>  <Rbt.Current_Directory>
/home/itssahil/PROJECTS/Mol_Feturizer/New_Systems/rnas/4E8Q

>  <Rbt.Executable>
rbdock ($Id: //depot/dev/client3/rdock/2013.1/src/exe/rbdock.cxx#4 $)

>  <Rbt.Library>
libRbt.so (2013.1, Build901 2013/11/27)

>  <Rbt.Parameter_File>
/export/apps/rDock/src/rDock_2013.1_src/data/scripts/dock_solv.prm

>  <Rbt.Receptor>
prm/blind_docking_40.prm

>  <SCORE>
-15.0339

>  <SCORE.INTER>
-3.20141

>  <SCORE.INTER.CONST>
1

>  <SCORE.INTER.POLAR>
0

>  <SCORE.INTER.ROT>
11

>  <SCORE.INTER.SOLV>
8.61377

>  <SCORE.INTER.VDW>
-15.9389

>  <SCORE.INTER.norm>
-0.228672

>  <SCORE.INTRA>
-11.8325

>  <SCORE.INTRA.DIHEDRAL>
-23.2559

>  <SCORE.INTRA.DIHEDRAL.0>
25.9209

>  <SCORE.INTRA.POLAR>
0

>  <SCORE.INTRA.POLAR.0>
0

>  <SCORE.INTRA.REPUL>
0

>  <SCORE.INTRA.REPUL.0>
0

>  <SCORE.INTRA.SOLV>
-1.53191

>  <SCORE.INTRA.SOLV.lig_0>
-47.4815

>  <SCORE.INTRA.VDW>
0.561347

>  <SCORE.INTRA.VDW.0>
-1.57492

>  <SCORE.INTRA.norm>
-0.845181

>  <SCORE.RESTR>
0

>  <SCORE.RESTR.CAVITY>
0

>  <SCORE.RESTR.norm>
0

>  <SCORE.SYSTEM>
0

>  <SCORE.SYSTEM.CONST>
0

>  <SCORE.SYSTEM.DIHEDRAL>
0

>  <SCORE.SYSTEM.SOLV>
0

>  <SCORE.SYSTEM.norm>
0

>  <SCORE.heavy>
14

>  <SCORE.norm>
-1.07385

>  <RMSD>
22.652

$$$$
ligand
 OpenBabel11021811493D
libRbt.so/2013.1/901 2013/11/27
 14 13  0  0  0  0  0  0  0  0999 V2000
   33.3189   -0.5751    1.0646 N   0  0  0  0  0  0  0  0  0  0  0  0
   33.4378   -1.4706    2.2088 C   0  0  0  0  0  0  0  0  0  0  0  0
   33.8595   -0.6941    3.4744 C   0  0  0  0  0  0  0  0  0  0  0  0
   34.0928   -1.5730    4.7193 C   0  0  0  0  0  0  0  0  0  0  0  0
   32.9643   -2.3669    5.2282 N   0  0  0  0  0  0  0  0  0  0  0  0
   32.8757   -3.8082    4.9686 C   0  0  0  0  0  0  0  0  0  0  0  0
   32.2327   -4.1899    3.6321 C   0  0  0  0  0  0  0  0  0  0  0  0
   32.1195   -5.7115    3.4377 C   0  0  0  0  0  0  0  0  0  0  0  0
   31.5509   -6.1248    2.0708 C   0  0  0  0  0  0  0  0  0  0  0  0
   31.3758   -7.5679    1.8912 N   0  0  0  0  0  0  0  0  0  0  0  0
   31.3058   -8.1229    0.5282 C   0  0  0  0  0  0  0  0  0  0  0  0
   32.6504   -8.4065   -0.1824 C   0  0  0  0  0  0  0  0  0  0  0  0
   32.5485   -9.0363   -1.5863 C   0  0  0  0  0  0  0  0  0  0  0  0
   31.8686  -10.3283   -1.5850 N   0  0  0  0  0  0  0  0  0  0  0  0
  1  2  1  0  0  0  0
  2  3  1  0  0  0  0
  3  4  1  0  0  0  0
  4  5  1  0  0  0  0
  5  6  1  0  0  0  0
  6  7  1  0  0  0  0
  7  8  1  0  0  0  0
  8  9  1  0  0  0  0
  9 10  1  0  0  0  0
 10 11  1  0  0  0  0
 11 12  1  0  0  0  0
 12 13  1  0  0  0  0
 13 14  1  0  0  0  0
M  END
>  <CHROM.1>
-176.52870507,-60.59527903,102.62835561,-85.25626989,-177.87198267,-176.71479667
-177.22605046,-158.48693014,83.43766042,177.78093718,-60.06299116,32.58588529
-4.99820398,2.13377718,-0.97411296,-1.26105575,-2.04346810

>  <Name>
ligand

>  <RI>
0

>  <Rbt.Current_Directory>
/home/itssahil/PROJECTS/Mol_Feturizer/New_Systems/rnas/4E8Q

>  <Rbt.Executable>
rbdock ($Id: //depot/dev/client3/rdock/2013.1/src/exe/rbdock.cxx#4 $)

>  <Rbt.Library>
libRbt.so (2013.1, Build901 2013/11/27)

>  <Rbt.Parameter_File>
/export/apps/rDock/src/rDock_2013.1_src/data/scripts/dock_solv.prm

>  <Rbt.Receptor>
prm/blind_docking_80.prm

>  <SCORE>
-14.895

>  <SCORE.INTER>
-2.92011

>  <SCORE.INTER.CONST>
1

>  <SCORE.INTER.POLAR>
0

>  <SCORE.INTER.ROT>
11

>  <SCORE.INTER.SOLV>
7.89261

>  <SCORE.INTER.VDW>
-15.5109

>  <SCORE.INTER.norm>
-0.208579

>  <SCORE.INTRA>
-11.9749

>  <SCORE.INTRA.DIHEDRAL>
-23.6033

>  <SCORE.INTRA.DIHEDRAL.0>
25.9209

>  <SCORE.INTRA.POLAR>
0

>  <SCORE.INTRA.POLAR.0>
0

>  <SCORE.INTRA.REPUL>
0

>  <SCORE.INTRA.REPUL.0>
0

>  <SCORE.INTRA.SOLV>
-1.0112

>  <SCORE.INTRA.SOLV.lig_0>
-47.4815

>  <SCORE.INTRA.VDW>
0.332298

>  <SCORE.INTRA.VDW.0>
-1.57492

>  <SCORE.INTRA.norm>
-0.855352

>  <SCORE.RESTR>
0

>  <SCORE.RESTR.CAVITY>
0

>  <SCORE.RESTR.norm>
0

>  <SCORE.SYSTEM>
0

>  <SCORE.SYSTEM.CONST>
0

>  <SCORE.SYSTEM.DIHEDRAL>
0

>  <SCORE.SYSTEM.SOLV>
0

>  <SCORE.SYSTEM.norm>
0

>  <SCORE.heavy>
14

>  <SCORE.norm>
-1.06393

>  <RMSD>
22.713

$$$$
ligand
 OpenBabel11021811493D
libRbt.so/2013.1/901 2013/11/27
 14 13  0  0  0  0  0  0  0  0999 V2000
   35.5208  -11.6825   -3.2396 N   0  0  0  0  0  0  0  0  0  0  0  0
   35.4289  -10.3624   -3.8510 C   0  0  0  0  0  0  0  0  0  0  0  0
   34.9163   -9.3193   -2.8351 C   0  0  0  0  0  0  0  0  0  0  0  0
   33.4864   -9.5747   -2.3186 C   0  0  0  0  0  0  0  0  0  0  0  0
   32.9359   -8.6488   -1.3173 N   0  0  0  0  0  0  0  0  0  0  0  0
   31.8178   -9.0458   -0.4542 C   0  0  0  0  0  0  0  0  0  0  0  0
   31.1832   -7.9088    0.3520 C   0  0  0  0  0  0  0  0  0  0  0  0
   32.1870   -7.2025    1.2791 C   0  0  0  0  0  0  0  0  0  0  0  0
   31.5455   -6.1752    2.2254 C   0  0  0  0  0  0  0  0  0  0  0  0
   32.4843   -5.5015    3.1254 N   0  0  0  0  0  0  0  0  0  0  0  0
   31.9618   -4.6812    4.2320 C   0  0  0  0  0  0  0  0  0  0  0  0
   32.9703   -3.7588    4.9569 C   0  0  0  0  0  0  0  0  0  0  0  0
   33.6075   -2.6509    4.0941 C   0  0  0  0  0  0  0  0  0  0  0  0
   34.6251   -1.8850    4.8079 N   0  0  0  0  0  0  0  0  0  0  0  0
  1  2  1  0  0  0  0
  2  3  1  0  0  0  0
  3  4  1  0  0  0  0
  4  5  1  0  0  0  0
  5  6  1  0  0  0  0
  6  7  1  0  0  0  0
  7  8  1  0  0  0  0
  8  9  1  0  0  0  0
  9 10  1  0  0  0  0
 10 11  1  0  0  0  0
 11 12  1  0  0  0  0
 12 13  1  0  0  0  0
 13 14  1  0  0  0  0
M  END
>  <CHROM.1>
-63.36442305,178.25991221,-159.05468406,-169.18253354,-58.85378515,-172.86013550
179.42707325,-169.17284255,-167.27651367,63.03357596,-175.45184953,33.19049501
-7.02843026,0.78977612,-1.42967597,0.33363475,0.77237662

>  <Name>
ligand

>  <RI>
0

>  <Rbt.Current_Directory>
/home/itssahil/PROJECTS/Mol_Feturizer/New_Systems/rnas/4E8Q

>  <Rbt.Executable>
rbdock ($Id: //depot/dev/client3/rdock/2013.1/src/exe/rbdock.cxx#4 $)

>  <Rbt.Library>
libRbt.so (2013.1, Build901 2013/11/27)

>  <Rbt.Parameter_File>
/export/apps/rDock/src/rDock_2013.1_src/data/scripts/dock_solv.prm

>  <Rbt.Receptor>
prm/blind_docking_60.prm

>  <SCORE>
-15.3149

>  <SCORE.INTER>
-2.85194

>  <SCORE.INTER.CONST>
1

>  <SCORE.INTER.POLAR>
0

>  <SCORE.INTER.ROT>
11

>  <SCORE.INTER.SOLV>
9.06123

>  <SCORE.INTER.VDW>
-15.855

>  <SCORE.INTER.norm>
-0.20371

>  <SCORE.INTRA>
-12.4629

>  <SCORE.INTRA.DIHEDRAL>
-24.8946

>  <SCORE.INTRA.DIHEDRAL.0>
25.9209

>  <SCORE.INTRA.POLAR>
0

>  <SCORE.INTRA.POLAR.0>
0

>  <SCORE.INTRA.REPUL>
0

>  <SCORE.INTRA.REPUL.0>
0

>  <SCORE.INTRA.SOLV>
-0.778649

>  <SCORE.INTRA.SOLV.lig_0>
-47.4815

>  <SCORE.INTRA.VDW>
0.373696

>  <SCORE.INTRA.VDW.0>
-1.57492

>  <SCORE.INTRA.norm>
-0.89021

>  <SCORE.RESTR>
0

>  <SCORE.RESTR.CAVITY>
0

>  <SCORE.RESTR.norm>
0

>  <SCORE.SYSTEM>
0

>  <SCORE.SYSTEM.CONST>
0

>  <SCORE.SYSTEM.DIHEDRAL>
0

>  <SCORE.SYSTEM.SOLV>
0

>  <SCORE.SYSTEM.norm>
0

>  <SCORE.heavy>
14

>  <SCORE.norm>
-1.09392

>  <RMSD>
22.735

$$$$
ligand
 OpenBabel11021811493D
libRbt.so/2013.1/901 2013/11/27
 14 13  0  0  0  0  0  0  0  0999 V2000
   34.9095   -9.2689   -3.0561 N   0  0  0  0  0  0  0  0  0  0  0  0
   33.6698   -9.3501   -2.2934 C   0  0  0  0  0  0  0  0  0  0  0  0
   32.4462   -9.1145   -3.2044 C   0  0  0  0  0  0  0  0  0  0  0  0
   31.0827   -9.3049   -2.5106 C   0  0  0  0  0  0  0  0  0  0  0  0
   30.7014   -8.3506   -1.4587 N   0  0  0  0  0  0  0  0  0  0  0  0
   31.3354   -8.3896   -0.1362 C   0  0  0  0  0  0  0  0  0  0  0  0
   31.2081   -7.1027    0.6842 C   0  0  0  0  0  0  0  0  0  0  0  0
   31.9033   -7.1968    2.0531 C   0  0  0  0  0  0  0  0  0  0  0  0
   31.8828   -5.8852    2.8542 C   0  0  0  0  0  0  0  0  0  0  0  0
   32.5410   -4.7547    2.1955 N   0  0  0  0  0  0  0  0  0  0  0  0
   32.6706   -3.4753    2.9145 C   0  0  0  0  0  0  0  0  0  0  0  0
   33.6021   -2.4109    2.2878 C   0  0  0  0  0  0  0  0  0  0  0  0
   33.7031   -1.0742    3.0500 C   0  0  0  0  0  0  0  0  0  0  0  0
   34.5780   -0.1070    2.3938 N   0  0  0  0  0  0  0  0  0  0  0  0
  1  2  1  0  0  0  0
  2  3  1  0  0  0  0
  3  4  1  0  0  0  0
  4  5  1  0  0  0  0
  5  6  1  0  0  0  0
  6  7  1  0  0  0  0
  7  8  1  0  0  0  0
  8  9  1  0  0  0  0
  9 10  1  0  0  0  0
 10 11  1  0  0  0  0
 11 12  1  0  0  0  0
 12 13  1  0  0  0  0
 13 14  1  0  0  0  0
M  END
>  <CHROM.1>
174.83136166,66.95863764,-73.38825487,160.46742893,-179.39143124,175.64223505
-60.09536000,-175.42607861,168.62717094,179.14007563,-178.97325103,32.58790543
-6.12773680,0.41257228,-1.73817199,0.70323390,0.72019913

>  <Name>
ligand

>  <RI>
0

>  <Rbt.Current_Directory>
/home/itssahil/PROJECTS/Mol_Feturizer/New_Systems/rnas/4E8Q

>  <Rbt.Executable>
rbdock ($Id: //depot/dev/client3/rdock/2013.1/src/exe/rbdock.cxx#4 $)

>  <Rbt.Library>
libRbt.so (2013.1, Build901 2013/11/27)

>  <Rbt.Parameter_File>
/export/apps/rDock/src/rDock_2013.1_src/data/scripts/dock_solv.prm

>  <Rbt.Receptor>
prm/blind_docking_40.prm

>  <SCORE>
-16.1997

>  <SCORE.INTER>
-3.37973

>  <SCORE.INTER.CONST>
1

>  <SCORE.INTER.POLAR>
0

>  <SCORE.INTER.ROT>
11

>  <SCORE.INTER.SOLV>
12.5823

>  <SCORE.INTER.VDW>
-17.3806

>  <SCORE.INTER.norm>
-0.24141

>  <SCORE.INTRA>
-12.82

>  <SCORE.INTRA.DIHEDRAL>
-25.0025

>  <SCORE.INTRA.DIHEDRAL.0>
25.9209

>  <SCORE.INTRA.POLAR>
0

>  <SCORE.INTRA.POLAR.0>
0

>  <SCORE.INTRA.REPUL>
0

>  <SCORE.INTRA.REPUL.0>
0

>  <SCORE.INTRA.SOLV>
-1.44072

>  <SCORE.INTRA.SOLV.lig_0>
-47.4815

>  <SCORE.INTRA.VDW>
0.401603

>  <SCORE.INTRA.VDW.0>
-1.57492

>  <SCORE.INTRA.norm>
-0.915714

>  <SCORE.RESTR>
0

>  <SCORE.RESTR.CAVITY>
0

>  <SCORE.RESTR.norm>
0

>  <SCORE.SYSTEM>
0

>  <SCORE.SYSTEM.CONST>
0

>  <SCORE.SYSTEM.DIHEDRAL>
0

>  <SCORE.SYSTEM.SOLV>
0

>  <SCORE.SYSTEM.norm>
0

>  <SCORE.heavy>
14

>  <SCORE.norm>
-1.15712

>  <RMSD>
22.879

$$$$
ligand
 OpenBabel11021811493D
libRbt.so/2013.1/901 2013/11/27
 14 13  0  0  0  0  0  0  0  0999 V2000
   34.9688   -0.5088    2.3985 N   0  0  0  0  0  0  0  0  0  0  0  0
   33.7214   -0.1928    3.0836 C   0  0  0  0  0  0  0  0  0  0  0  0
   33.8059   -0.5622    4.5799 C   0  0  0  0  0  0  0  0  0  0  0  0
   33.9564   -2.0704    4.8617 C   0  0  0  0  0  0  0  0  0  0  0  0
   32.8858   -2.9703    4.4071 N   0  0  0  0  0  0  0  0  0  0  0  0
   32.4503   -4.1040    5.2303 C   0  0  0  0  0  0  0  0  0  0  0  0
   31.5382   -5.1097    4.5218 C   0  0  0  0  0  0  0  0  0  0  0  0
   32.1986   -5.7476    3.2878 C   0  0  0  0  0  0  0  0  0  0  0  0
   31.2685   -6.6796    2.4947 C   0  0  0  0  0  0  0  0  0  0  0  0
   31.9095   -7.3808    1.3799 N   0  0  0  0  0  0  0  0  0  0  0  0
   31.0817   -7.8759    0.2663 C   0  0  0  0  0  0  0  0  0  0  0  0
   31.7179   -8.9385   -0.6608 C   0  0  0  0  0  0  0  0  0  0  0  0
   30.8298   -9.4386   -1.8179 C   0  0  0  0  0  0  0  0  0  0  0  0
   31.4670  -10.4802   -2.6183 N   0  0  0  0  0  0  0  0  0  0  0  0
  1  2  1  0  0  0  0
  2  3  1  0  0  0  0
  3  4  1  0  0  0  0
  4  5  1  0  0  0  0
  5  6  1  0  0  0  0
  6  7  1  0  0  0  0
  7  8  1  0  0  0  0
  8  9  1  0  0  0  0
  9 10  1  0  0  0  0
 10 11  1  0  0  0  0
 11 12  1  0  0  0  0
 12 13  1  0  0  0  0
 13 14  1  0  0  0  0
M  END
>  <CHROM.1>
-65.04145958,-60.95222111,-140.90860712,-168.25366864,59.63584254,-175.54374531
-175.26080286,-156.99379501,-162.93912167,-179.98080892,-177.49145776,32.41410140
-5.14702050,2.24425411,-0.99433341,-1.09058922,-2.03222354

>  <Name>
ligand

>  <RI>
0

>  <Rbt.Current_Directory>
/home/itssahil/PROJECTS/Mol_Feturizer/New_Systems/rnas/4E8Q

>  <Rbt.Executable>
rbdock ($Id: //depot/dev/client3/rdock/2013.1/src/exe/rbdock.cxx#4 $)

>  <Rbt.Library>
libRbt.so (2013.1, Build901 2013/11/27)

>  <Rbt.Parameter_File>
/export/apps/rDock/src/rDock_2013.1_src/data/scripts/dock_solv.prm

>  <Rbt.Receptor>
prm/blind_docking_40.prm

>  <SCORE>
-15.2407

>  <SCORE.INTER>
-3.48604

>  <SCORE.INTER.CONST>
1

>  <SCORE.INTER.POLAR>
0

>  <SCORE.INTER.ROT>
11

>  <SCORE.INTER.SOLV>
11.0939

>  <SCORE.INTER.VDW>
-16.9553

>  <SCORE.INTER.norm>
-0.249003

>  <SCORE.INTRA>
-11.7546

>  <SCORE.INTRA.DIHEDRAL>
-24.0362

>  <SCORE.INTRA.DIHEDRAL.0>
25.9209

>  <SCORE.INTRA.POLAR>
0

>  <SCORE.INTRA.POLAR.0>
0

>  <SCORE.INTRA.REPUL>
0

>  <SCORE.INTRA.REPUL.0>
0

>  <SCORE.INTRA.SOLV>
-0.182514

>  <SCORE.INTRA.SOLV.lig_0>
-47.4815

>  <SCORE.INTRA.VDW>
0.354711

>  <SCORE.INTRA.VDW.0>
-1.57492

>  <SCORE.INTRA.norm>
-0.839617

>  <SCORE.RESTR>
0

>  <SCORE.RESTR.CAVITY>
0

>  <SCORE.RESTR.norm>
0

>  <SCORE.SYSTEM>
0

>  <SCORE.SYSTEM.CONST>
0

>  <SCORE.SYSTEM.DIHEDRAL>
0

>  <SCORE.SYSTEM.SOLV>
0

>  <SCORE.SYSTEM.norm>
0

>  <SCORE.heavy>
14

>  <SCORE.norm>
-1.08862

>  <RMSD>
22.894

$$$$
ligand
 OpenBabel11021811493D
libRbt.so/2013.1/901 2013/11/27
 14 13  0  0  0  0  0  0  0  0999 V2000
   35.8578  -10.4369   -2.5154 N   0  0  0  0  0  0  0  0  0  0  0  0
   34.4521  -10.4986   -2.8968 C   0  0  0  0  0  0  0  0  0  0  0  0
   33.8623   -9.0812   -3.0570 C   0  0  0  0  0  0  0  0  0  0  0  0
   33.7252   -8.2900   -1.7409 C   0  0  0  0  0  0  0  0  0  0  0  0
   32.7776   -8.7845   -0.7308 N   0  0  0  0  0  0  0  0  0  0  0  0
   32.5522   -8.0493    0.5187 C   0  0  0  0  0  0  0  0  0  0  0  0
   31.2382   -7.2653    0.5839 C   0  0  0  0  0  0  0  0  0  0  0  0
   31.0178   -6.5829    1.9447 C   0  0  0  0  0  0  0  0  0  0  0  0
   32.0390   -5.4785    2.2610 C   0  0  0  0  0  0  0  0  0  0  0  0
   31.6536   -4.5826    3.3538 N   0  0  0  0  0  0  0  0  0  0  0  0
   31.5946   -5.1056    4.7298 C   0  0  0  0  0  0  0  0  0  0  0  0
   32.9425   -5.2965    5.4649 C   0  0  0  0  0  0  0  0  0  0  0  0
   32.8491   -5.8027    6.9185 C   0  0  0  0  0  0  0  0  0  0  0  0
   34.1555   -6.0229    7.5319 N   0  0  0  0  0  0  0  0  0  0  0  0
  1  2  1  0  0  0  0
  2  3  1  0  0  0  0
  3  4  1  0  0  0  0
  4  5  1  0  0  0  0
  5  6  1  0  0  0  0
  6  7  1  0  0  0  0
  7  8  1  0  0  0  0
  8  9  1  0  0  0  0
  9 10  1  0  0  0  0
 10 11  1  0  0  0  0
 11 12  1  0  0  0  0
 12 13  1  0  0  0  0
 13 14  1  0  0  0  0
M  END
>  <CHROM.1>
-68.74049720,-65.69235349,-177.25684421,104.25925371,176.63815283,65.40116688
164.34527811,68.16385729,77.19843195,178.13975979,177.20453848,32.90811141
-7.23402212,1.59746178,-1.36722969,-0.58730630,1.21095476

>  <Name>
ligand

>  <RI>
0

>  <Rbt.Current_Directory>
/home/itssahil/PROJECTS/Mol_Feturizer/New_Systems/rnas/4E8Q

>  <Rbt.Executable>
rbdock ($Id: //depot/dev/client3/rdock/2013.1/src/exe/rbdock.cxx#4 $)

>  <Rbt.Library>
libRbt.so (2013.1, Build901 2013/11/27)

>  <Rbt.Parameter_File>
/export/apps/rDock/src/rDock_2013.1_src/data/scripts/dock_solv.prm

>  <Rbt.Receptor>
prm/blind_docking_40.prm

>  <SCORE>
-13.1235

>  <SCORE.INTER>
-2.30435

>  <SCORE.INTER.CONST>
1

>  <SCORE.INTER.POLAR>
0

>  <SCORE.INTER.ROT>
11

>  <SCORE.INTER.SOLV>
12.8599

>  <SCORE.INTER.VDW>
-16.7562

>  <SCORE.INTER.norm>
-0.164597

>  <SCORE.INTRA>
-10.8192

>  <SCORE.INTRA.DIHEDRAL>
-23.137

>  <SCORE.INTRA.DIHEDRAL.0>
25.9209

>  <SCORE.INTRA.POLAR>
0

>  <SCORE.INTRA.POLAR.0>
0

>  <SCORE.INTRA.REPUL>
0

>  <SCORE.INTRA.REPUL.0>
0

>  <SCORE.INTRA.SOLV>
-0.589246

>  <SCORE.INTRA.SOLV.lig_0>
-47.4815

>  <SCORE.INTRA.VDW>
1.04397

>  <SCORE.INTRA.VDW.0>
-1.57492

>  <SCORE.INTRA.norm>
-0.772798

>  <SCORE.RESTR>
0

>  <SCORE.RESTR.CAVITY>
0

>  <SCORE.RESTR.norm>
0

>  <SCORE.SYSTEM>
0

>  <SCORE.SYSTEM.CONST>
0

>  <SCORE.SYSTEM.DIHEDRAL>
0

>  <SCORE.SYSTEM.SOLV>
0

>  <SCORE.SYSTEM.norm>
0

>  <SCORE.heavy>
14

>  <SCORE.norm>
-0.937395

>  <RMSD>
23.046

$$$$
ligand
 OpenBabel11021811493D
libRbt.so/2013.1/901 2013/11/27
 14 13  0  0  0  0  0  0  0  0999 V2000
   39.3205  -11.7766   -2.9676 N   0  0  0  0  0  0  0  0  0  0  0  0
   39.1210  -10.3928   -2.5545 C   0  0  0  0  0  0  0  0  0  0  0  0
   37.6773  -10.1694   -2.0563 C   0  0  0  0  0  0  0  0  0  0  0  0
   36.5847  -10.4472   -3.1079 C   0  0  0  0  0  0  0  0  0  0  0  0
   35.1837  -10.2049   -2.7321 N   0  0  0  0  0  0  0  0  0  0  0  0
   34.6112   -8.8548   -2.7772 C   0  0  0  0  0  0  0  0  0  0  0  0
   33.3292   -8.6646   -1.9614 C   0  0  0  0  0  0  0  0  0  0  0  0
   32.1545   -9.5039   -2.4920 C   0  0  0  0  0  0  0  0  0  0  0  0
   30.8153   -9.2120   -1.7963 C   0  0  0  0  0  0  0  0  0  0  0  0
   30.7776   -9.5536   -0.3724 N   0  0  0  0  0  0  0  0  0  0  0  0
   31.5360   -8.7329    0.5876 C   0  0  0  0  0  0  0  0  0  0  0  0
   31.1123   -7.2519    0.7309 C   0  0  0  0  0  0  0  0  0  0  0  0
   31.9081   -6.4220    1.7585 C   0  0  0  0  0  0  0  0  0  0  0  0
   31.7892   -6.9332    3.1209 N   0  0  0  0  0  0  0  0  0  0  0  0
  1  2  1  0  0  0  0
  2  3  1  0  0  0  0
  3  4  1  0  0  0  0
  4  5  1  0  0  0  0
  5  6  1  0  0  0  0
  6  7  1  0  0  0  0
  7  8  1  0  0  0  0
  8  9  1  0  0  0  0
  9 10  1  0  0  0  0
 10 11  1  0  0  0  0
 11 12  1  0  0  0  0
 12 13  1  0  0  0  0
 13 14  1  0  0  0  0
M  END
>  <CHROM.1>
-60.66596490,-177.51399715,81.54708441,-161.38673681,-64.58693162,-173.30355789
-64.45278270,71.37855095,63.38986086,179.06651573,-61.36653073,33.99421071
-9.15122028,-1.18730544,-0.59852390,-0.11176800,1.06046219

>  <Name>
ligand

>  <RI>
0

>  <Rbt.Current_Directory>
/home/itssahil/PROJECTS/Mol_Feturizer/New_Systems/rnas/4E8Q

>  <Rbt.Executable>
rbdock ($Id: //depot/dev/client3/rdock/2013.1/src/exe/rbdock.cxx#4 $)

>  <Rbt.Library>
libRbt.so (2013.1, Build901 2013/11/27)

>  <Rbt.Parameter_File>
/export/apps/rDock/src/rDock_2013.1_src/data/scripts/dock_solv.prm

>  <Rbt.Receptor>
prm/blind_docking_60.prm

>  <SCORE>
-16.7255

>  <SCORE.INTER>
-5.51055

>  <SCORE.INTER.CONST>
1

>  <SCORE.INTER.POLAR>
0

>  <SCORE.INTER.ROT>
11

>  <SCORE.INTER.SOLV>
7.73737

>  <SCORE.INTER.VDW>
-17.1862

>  <SCORE.INTER.norm>
-0.393611

>  <SCORE.INTRA>
-11.2149

>  <SCORE.INTRA.DIHEDRAL>
-24.8265

>  <SCORE.INTRA.DIHEDRAL.0>
25.9209

>  <SCORE.INTRA.POLAR>
0

>  <SCORE.INTRA.POLAR.0>
0

>  <SCORE.INTRA.REPUL>
0

>  <SCORE.INTRA.REPUL.0>
0

>  <SCORE.INTRA.SOLV>
-0.0716307

>  <SCORE.INTRA.SOLV.lig_0>
-47.4815

>  <SCORE.INTRA.VDW>
1.23415

>  <SCORE.INTRA.VDW.0>
-1.57492

>  <SCORE.INTRA.norm>
-0.801067

>  <SCORE.RESTR>
0

>  <SCORE.RESTR.CAVITY>
0

>  <SCORE.RESTR.norm>
0

>  <SCORE.SYSTEM>
0

>  <SCORE.SYSTEM.CONST>
0

>  <SCORE.SYSTEM.DIHEDRAL>
0

>  <SCORE.SYSTEM.SOLV>
0

>  <SCORE.SYSTEM.norm>
0

>  <SCORE.heavy>
14

>  <SCORE.norm>
-1.19468

>  <RMSD>
23.075

$$$$
ligand
 OpenBabel11021811493D
libRbt.so/2013.1/901 2013/11/27
 14 13  0  0  0  0  0  0  0  0999 V2000
   34.0970    1.2579    2.9497 N   0  0  0  0  0  0  0  0  0  0  0  0
   34.0796   -0.1985    3.0128 C   0  0  0  0  0  0  0  0  0  0  0  0
   33.6660   -0.6839    4.4185 C   0  0  0  0  0  0  0  0  0  0  0  0
   33.7083   -2.2133    4.6080 C   0  0  0  0  0  0  0  0  0  0  0  0
   32.9359   -3.0485    3.6761 N   0  0  0  0  0  0  0  0  0  0  0  0
   32.4099   -4.3544    4.0891 C   0  0  0  0  0  0  0  0  0  0  0  0
   31.8289   -5.2086    2.9585 C   0  0  0  0  0  0  0  0  0  0  0  0
   31.2494   -6.5434    3.4568 C   0  0  0  0  0  0  0  0  0  0  0  0
   30.6729   -7.4284    2.3401 C   0  0  0  0  0  0  0  0  0  0  0  0
   31.6659   -7.9513    1.3988 N   0  0  0  0  0  0  0  0  0  0  0  0
   31.3171   -8.0691   -0.0277 C   0  0  0  0  0  0  0  0  0  0  0  0
   30.9021   -9.4710   -0.5337 C   0  0  0  0  0  0  0  0  0  0  0  0
   30.5709   -9.5719   -2.0364 C   0  0  0  0  0  0  0  0  0  0  0  0
   31.6974   -9.2175   -2.8948 N   0  0  0  0  0  0  0  0  0  0  0  0
  1  2  1  0  0  0  0
  2  3  1  0  0  0  0
  3  4  1  0  0  0  0
  4  5  1  0  0  0  0
  5  6  1  0  0  0  0
  6  7  1  0  0  0  0
  7  8  1  0  0  0  0
  8  9  1  0  0  0  0
  9 10  1  0  0  0  0
 10 11  1  0  0  0  0
 11 12  1  0  0  0  0
 12 13  1  0  0  0  0
 13 14  1  0  0  0  0
M  END
>  <CHROM.1>
-176.19381973,-55.52066839,-151.60441636,-170.40056623,-178.00819777,-179.35846735
67.06998016,-143.12104684,-99.61976873,-178.76595759,60.72628886,32.19992318
-5.19318016,1.95857020,-0.79767670,-1.17565072,-1.89328173

>  <Name>
ligand

>  <RI>
0

>  <Rbt.Current_Directory>
/home/itssahil/PROJECTS/Mol_Feturizer/New_Systems/rnas/4E8Q

>  <Rbt.Executable>
rbdock ($Id: //depot/dev/client3/rdock/2013.1/src/exe/rbdock.cxx#4 $)

>  <Rbt.Library>
libRbt.so (2013.1, Build901 2013/11/27)

>  <Rbt.Parameter_File>
/export/apps/rDock/src/rDock_2013.1_src/data/scripts/dock_solv.prm

>  <Rbt.Receptor>
prm/blind_docking_80.prm

>  <SCORE>
-14.713

>  <SCORE.INTER>
-2.98339

>  <SCORE.INTER.CONST>
1

>  <SCORE.INTER.POLAR>
0

>  <SCORE.INTER.ROT>
11

>  <SCORE.INTER.SOLV>
11.4452

>  <SCORE.INTER.VDW>
-16.7373

>  <SCORE.INTER.norm>
-0.213099

>  <SCORE.INTRA>
-11.7296

>  <SCORE.INTRA.DIHEDRAL>
-23.2544

>  <SCORE.INTRA.DIHEDRAL.0>
25.9209

>  <SCORE.INTRA.POLAR>
0

>  <SCORE.INTRA.POLAR.0>
0

>  <SCORE.INTRA.REPUL>
0

>  <SCORE.INTRA.REPUL.0>
0

>  <SCORE.INTRA.SOLV>
-0.790192

>  <SCORE.INTRA.SOLV.lig_0>
-47.4815

>  <SCORE.INTRA.VDW>
0.292684

>  <SCORE.INTRA.VDW.0>
-1.57492

>  <SCORE.INTRA.norm>
-0.837828

>  <SCORE.RESTR>
0

>  <SCORE.RESTR.CAVITY>
0

>  <SCORE.RESTR.norm>
0

>  <SCORE.SYSTEM>
0

>  <SCORE.SYSTEM.CONST>
0

>  <SCORE.SYSTEM.DIHEDRAL>
0

>  <SCORE.SYSTEM.SOLV>
0

>  <SCORE.SYSTEM.norm>
0

>  <SCORE.heavy>
14

>  <SCORE.norm>
-1.05093

>  <RMSD>
23.106

$$$$
ligand
 OpenBabel11021811493D
libRbt.so/2013.1/901 2013/11/27
 14 13  0  0  0  0  0  0  0  0999 V2000
   32.2343  -11.2383   -2.0441 N   0  0  0  0  0  0  0  0  0  0  0  0
   30.8401  -10.8135   -2.0155 C   0  0  0  0  0  0  0  0  0  0  0  0
   30.7289   -9.3108   -1.6811 C   0  0  0  0  0  0  0  0  0  0  0  0
   31.2059   -8.9308   -0.2652 C   0  0  0  0  0  0  0  0  0  0  0  0
   31.2900   -7.5032    0.0777 N   0  0  0  0  0  0  0  0  0  0  0  0
   30.9032   -7.0210    1.4083 C   0  0  0  0  0  0  0  0  0  0  0  0
   32.0657   -6.5885    2.3065 C   0  0  0  0  0  0  0  0  0  0  0  0
   31.5956   -5.9595    3.6290 C   0  0  0  0  0  0  0  0  0  0  0  0
   32.7374   -5.6338    4.6051 C   0  0  0  0  0  0  0  0  0  0  0  0
   33.7989   -4.7927    4.0473 N   0  0  0  0  0  0  0  0  0  0  0  0
   34.1026   -3.4978    4.6811 C   0  0  0  0  0  0  0  0  0  0  0  0
   33.7512   -2.2245    3.8757 C   0  0  0  0  0  0  0  0  0  0  0  0
   33.9966   -0.8841    4.5975 C   0  0  0  0  0  0  0  0  0  0  0  0
   33.2267   -0.7498    5.8307 N   0  0  0  0  0  0  0  0  0  0  0  0
  1  2  1  0  0  0  0
  2  3  1  0  0  0  0
  3  4  1  0  0  0  0
  4  5  1  0  0  0  0
  5  6  1  0  0  0  0
  6  7  1  0  0  0  0
  7  8  1  0  0  0  0
  8  9  1  0  0  0  0
  9 10  1  0  0  0  0
 10 11  1  0  0  0  0
 11 12  1  0  0  0  0
 12 13  1  0  0  0  0
 13 14  1  0  0  0  0
M  END
>  <CHROM.1>
-65.30789739,172.62378830,141.25422618,107.66148989,174.10959787,174.69924183
54.36485061,120.97487780,-111.45969100,176.28408217,-59.95949771,32.31966622
-6.08201994,2.07525315,-2.83615777,1.32061982,1.93590903

>  <Name>
ligand

>  <RI>
0

>  <Rbt.Current_Directory>
/home/itssahil/PROJECTS/Mol_Feturizer/New_Systems/rnas/4E8Q

>  <Rbt.Executable>
rbdock ($Id: //depot/dev/client3/rdock/2013.1/src/exe/rbdock.cxx#4 $)

>  <Rbt.Library>
libRbt.so (2013.1, Build901 2013/11/27)

>  <Rbt.Parameter_File>
/export/apps/rDock/src/rDock_2013.1_src/data/scripts/dock_solv.prm

>  <Rbt.Receptor>
prm/blind_docking_60.prm

>  <SCORE>
-10.9283

>  <SCORE.INTER>
-0.669459

>  <SCORE.INTER.CONST>
1

>  <SCORE.INTER.POLAR>
0

>  <SCORE.INTER.ROT>
11

>  <SCORE.INTER.SOLV>
17.6695

>  <SCORE.INTER.VDW>
-17.2695

>  <SCORE.INTER.norm>
-0.0478185

>  <SCORE.INTRA>
-10.2589

>  <SCORE.INTRA.DIHEDRAL>
-20.9084

>  <SCORE.INTRA.DIHEDRAL.0>
25.9209

>  <SCORE.INTRA.POLAR>
0

>  <SCORE.INTRA.POLAR.0>
0

>  <SCORE.INTRA.REPUL>
0

>  <SCORE.INTRA.REPUL.0>
0

>  <SCORE.INTRA.SOLV>
-0.379635

>  <SCORE.INTRA.SOLV.lig_0>
-47.4815

>  <SCORE.INTRA.VDW>
0.385157

>  <SCORE.INTRA.VDW.0>
-1.57492

>  <SCORE.INTRA.norm>
-0.732777

>  <SCORE.RESTR>
0

>  <SCORE.RESTR.CAVITY>
0

>  <SCORE.RESTR.norm>
0

>  <SCORE.SYSTEM>
0

>  <SCORE.SYSTEM.CONST>
0

>  <SCORE.SYSTEM.DIHEDRAL>
0

>  <SCORE.SYSTEM.SOLV>
0

>  <SCORE.SYSTEM.norm>
0

>  <SCORE.heavy>
14

>  <SCORE.norm>
-0.780596

>  <RMSD>
23.222

$$$$
ligand
 OpenBabel11021811493D
libRbt.so/2013.1/901 2013/11/27
 14 13  0  0  0  0  0  0  0  0999 V2000
   36.0897   -7.7497    8.9945 N   0  0  0  0  0  0  0  0  0  0  0  0
   35.5308   -6.4530    9.3571 C   0  0  0  0  0  0  0  0  0  0  0  0
   34.8374   -5.7940    8.1457 C   0  0  0  0  0  0  0  0  0  0  0  0
   33.6159   -6.5650    7.6070 C   0  0  0  0  0  0  0  0  0  0  0  0
   32.9569   -6.0585    6.3937 N   0  0  0  0  0  0  0  0  0  0  0  0
   32.1810   -4.8136    6.4182 C   0  0  0  0  0  0  0  0  0  0  0  0
   31.1632   -4.6593    5.2843 C   0  0  0  0  0  0  0  0  0  0  0  0
   31.8263   -4.4699    3.9094 C   0  0  0  0  0  0  0  0  0  0  0  0
   32.5856   -5.7085    3.4075 C   0  0  0  0  0  0  0  0  0  0  0  0
   31.7625   -6.9100    3.2511 N   0  0  0  0  0  0  0  0  0  0  0  0
   30.7511   -6.9583    2.1810 C   0  0  0  0  0  0  0  0  0  0  0  0
   31.2727   -6.9739    0.7245 C   0  0  0  0  0  0  0  0  0  0  0  0
   32.1969   -8.1516    0.3546 C   0  0  0  0  0  0  0  0  0  0  0  0
   31.5172   -9.4433    0.3869 N   0  0  0  0  0  0  0  0  0  0  0  0
  1  2  1  0  0  0  0
  2  3  1  0  0  0  0
  3  4  1  0  0  0  0
  4  5  1  0  0  0  0
  5  6  1  0  0  0  0
  6  7  1  0  0  0  0
  7  8  1  0  0  0  0
  8  9  1  0  0  0  0
  9 10  1  0  0  0  0
 10 11  1  0  0  0  0
 11 12  1  0  0  0  0
 12 13  1  0  0  0  0
 13 14  1  0  0  0  0
M  END
>  <CHROM.1>
63.67087236,-175.58942701,-70.36773349,-159.02862059,-68.70814993,67.31090011
59.81499183,69.24550989,67.08067377,59.33987017,65.81707180,32.73467542,-6.47875739
4.74395503,-0.90218632,0.84789345,-2.26620153

>  <Name>
ligand

>  <RI>
0

>  <Rbt.Current_Directory>
/home/itssahil/PROJECTS/Mol_Feturizer/New_Systems/rnas/4E8Q

>  <Rbt.Executable>
rbdock ($Id: //depot/dev/client3/rdock/2013.1/src/exe/rbdock.cxx#4 $)

>  <Rbt.Library>
libRbt.so (2013.1, Build901 2013/11/27)

>  <Rbt.Parameter_File>
/export/apps/rDock/src/rDock_2013.1_src/data/scripts/dock_solv.prm

>  <Rbt.Receptor>
prm/blind_docking_40.prm

>  <SCORE>
-13.5721

>  <SCORE.INTER>
-3.33312

>  <SCORE.INTER.CONST>
1

>  <SCORE.INTER.POLAR>
0

>  <SCORE.INTER.ROT>
11

>  <SCORE.INTER.SOLV>
8.7219

>  <SCORE.INTER.VDW>
-16.0627

>  <SCORE.INTER.norm>
-0.23808

>  <SCORE.INTRA>
-10.239

>  <SCORE.INTRA.DIHEDRAL>
-24.6418

>  <SCORE.INTRA.DIHEDRAL.0>
25.9209

>  <SCORE.INTRA.POLAR>
0

>  <SCORE.INTRA.POLAR.0>
0

>  <SCORE.INTRA.REPUL>
0

>  <SCORE.INTRA.REPUL.0>
0

>  <SCORE.INTRA.SOLV>
2.09215

>  <SCORE.INTRA.SOLV.lig_0>
-47.4815

>  <SCORE.INTRA.VDW>
1.03581

>  <SCORE.INTRA.VDW.0>
-1.57492

>  <SCORE.INTRA.norm>
-0.731358

>  <SCORE.RESTR>
0

>  <SCORE.RESTR.CAVITY>
0

>  <SCORE.RESTR.norm>
0

>  <SCORE.SYSTEM>
0

>  <SCORE.SYSTEM.CONST>
0

>  <SCORE.SYSTEM.DIHEDRAL>
0

>  <SCORE.SYSTEM.SOLV>
0

>  <SCORE.SYSTEM.norm>
0

>  <SCORE.heavy>
14

>  <SCORE.norm>
-0.969438

>  <RMSD>
23.290

$$$$
ligand
 OpenBabel11021811493D
libRbt.so/2013.1/901 2013/11/27
 14 13  0  0  0  0  0  0  0  0999 V2000
   36.6297   -8.0702    9.0203 N   0  0  0  0  0  0  0  0  0  0  0  0
   35.1934   -8.0667    8.7711 C   0  0  0  0  0  0  0  0  0  0  0  0
   34.5322   -6.8106    9.3774 C   0  0  0  0  0  0  0  0  0  0  0  0
   33.0150   -6.6992    9.1273 C   0  0  0  0  0  0  0  0  0  0  0  0
   32.5444   -6.6466    7.7350 N   0  0  0  0  0  0  0  0  0  0  0  0
   32.6686   -5.4193    6.9406 C   0  0  0  0  0  0  0  0  0  0  0  0
   32.1401   -5.5167    5.5066 C   0  0  0  0  0  0  0  0  0  0  0  0
   32.2491   -4.1881    4.7393 C   0  0  0  0  0  0  0  0  0  0  0  0
   31.7006   -4.2498    3.3047 C   0  0  0  0  0  0  0  0  0  0  0  0
   32.3829   -5.2050    2.4286 N   0  0  0  0  0  0  0  0  0  0  0  0
   31.6226   -6.3283    1.8537 C   0  0  0  0  0  0  0  0  0  0  0  0
   32.3818   -7.2639    0.8832 C   0  0  0  0  0  0  0  0  0  0  0  0
   31.5532   -8.4108    0.2699 C   0  0  0  0  0  0  0  0  0  0  0  0
   31.0718   -9.3637    1.2657 N   0  0  0  0  0  0  0  0  0  0  0  0
  1  2  1  0  0  0  0
  2  3  1  0  0  0  0
  3  4  1  0  0  0  0
  4  5  1  0  0  0  0
  5  6  1  0  0  0  0
  6  7  1  0  0  0  0
  7  8  1  0  0  0  0
  8  9  1  0  0  0  0
  9 10  1  0  0  0  0
 10 11  1  0  0  0  0
 11 12  1  0  0  0  0
 12 13  1  0  0  0  0
 13 14  1  0  0  0  0
M  END
>  <CHROM.1>
178.29275456,-59.92107980,-76.38504640,179.77686369,177.89258002,-178.88825047
-61.07713439,118.18695387,177.16818372,-178.57615166,-63.82487875,32.83453996
-6.58819803,5.08737680,-0.73355494,1.07485870,-2.34038772

>  <Name>
ligand

>  <RI>
0

>  <Rbt.Current_Directory>
/home/itssahil/PROJECTS/Mol_Feturizer/New_Systems/rnas/4E8Q

>  <Rbt.Executable>
rbdock ($Id: //depot/dev/client3/rdock/2013.1/src/exe/rbdock.cxx#4 $)

>  <Rbt.Library>
libRbt.so (2013.1, Build901 2013/11/27)

>  <Rbt.Parameter_File>
/export/apps/rDock/src/rDock_2013.1_src/data/scripts/dock_solv.prm

>  <Rbt.Receptor>
prm/blind_docking_40.prm

>  <SCORE>
-13.299

>  <SCORE.INTER>
-0.986051

>  <SCORE.INTER.CONST>
1

>  <SCORE.INTER.POLAR>
0

>  <SCORE.INTER.ROT>
11

>  <SCORE.INTER.SOLV>
13.349

>  <SCORE.INTER.VDW>
-16.0404

>  <SCORE.INTER.norm>
-0.0704322

>  <SCORE.INTRA>
-12.3129

>  <SCORE.INTRA.DIHEDRAL>
-24.4092

>  <SCORE.INTRA.DIHEDRAL.0>
25.9209

>  <SCORE.INTRA.POLAR>
0

>  <SCORE.INTRA.POLAR.0>
0

>  <SCORE.INTRA.REPUL>
0

>  <SCORE.INTRA.REPUL.0>
0

>  <SCORE.INTRA.SOLV>
-0.794168

>  <SCORE.INTRA.SOLV.lig_0>
-47.4815

>  <SCORE.INTRA.VDW>
0.288756

>  <SCORE.INTRA.VDW.0>
-1.57492

>  <SCORE.INTRA.norm>
-0.879493

>  <SCORE.RESTR>
0

>  <SCORE.RESTR.CAVITY>
0

>  <SCORE.RESTR.norm>
0

>  <SCORE.SYSTEM>
0

>  <SCORE.SYSTEM.CONST>
0

>  <SCORE.SYSTEM.DIHEDRAL>
0

>  <SCORE.SYSTEM.SOLV>
0

>  <SCORE.SYSTEM.norm>
0

>  <SCORE.heavy>
14

>  <SCORE.norm>
-0.949926

>  <RMSD>
23.328

$$$$
ligand
 OpenBabel11021811493D
libRbt.so/2013.1/901 2013/11/27
 14 13  0  0  0  0  0  0  0  0999 V2000
   33.9136   -8.6579    8.2687 N   0  0  0  0  0  0  0  0  0  0  0  0
   33.8336   -7.5890    9.2568 C   0  0  0  0  0  0  0  0  0  0  0  0
   32.7110   -6.5916    8.8996 C   0  0  0  0  0  0  0  0  0  0  0  0
   32.9458   -5.7995    7.5981 C   0  0  0  0  0  0  0  0  0  0  0  0
   31.8902   -4.8805    7.1464 N   0  0  0  0  0  0  0  0  0  0  0  0
   31.9098   -4.3126    5.7937 C   0  0  0  0  0  0  0  0  0  0  0  0
   31.7958   -5.3337    4.6581 C   0  0  0  0  0  0  0  0  0  0  0  0
   31.8939   -4.6896    3.2648 C   0  0  0  0  0  0  0  0  0  0  0  0
   31.9077   -5.7029    2.1090 C   0  0  0  0  0  0  0  0  0  0  0  0
   30.7295   -6.5704    2.0410 N   0  0  0  0  0  0  0  0  0  0  0  0
   30.8627   -7.9269    1.4816 C   0  0  0  0  0  0  0  0  0  0  0  0
   31.3083   -8.0345    0.0040 C   0  0  0  0  0  0  0  0  0  0  0  0
   31.4062   -9.4641   -0.5656 C   0  0  0  0  0  0  0  0  0  0  0  0
   31.8660   -9.4970   -1.9509 N   0  0  0  0  0  0  0  0  0  0  0  0
  1  2  1  0  0  0  0
  2  3  1  0  0  0  0
  3  4  1  0  0  0  0
  4  5  1  0  0  0  0
  5  6  1  0  0  0  0
  6  7  1  0  0  0  0
  7  8  1  0  0  0  0
  8  9  1  0  0  0  0
  9 10  1  0  0  0  0
 10 11  1  0  0  0  0
 11 12  1  0  0  0  0
 12 13  1  0  0  0  0
 13 14  1  0  0  0  0
M  END
>  <CHROM.1>
-65.47377110,176.74589535,-166.98821287,62.82803293,-177.06956429,174.87131891
59.06018259,-150.37178793,-61.73623277,-178.56218440,-178.43367616,32.06956115
-6.78904545,4.14333741,-1.02150924,1.21119340,-2.31371645

>  <Name>
ligand

>  <RI>
0

>  <Rbt.Current_Directory>
/home/itssahil/PROJECTS/Mol_Feturizer/New_Systems/rnas/4E8Q

>  <Rbt.Executable>
rbdock ($Id: //depot/dev/client3/rdock/2013.1/src/exe/rbdock.cxx#4 $)

>  <Rbt.Library>
libRbt.so (2013.1, Build901 2013/11/27)

>  <Rbt.Parameter_File>
/export/apps/rDock/src/rDock_2013.1_src/data/scripts/dock_solv.prm

>  <Rbt.Receptor>
prm/blind_docking_40.prm

>  <SCORE>
-14.7314

>  <SCORE.INTER>
-2.72561

>  <SCORE.INTER.CONST>
1

>  <SCORE.INTER.POLAR>
0

>  <SCORE.INTER.ROT>
11

>  <SCORE.INTER.SOLV>
12.5556

>  <SCORE.INTER.VDW>
-16.9356

>  <SCORE.INTER.norm>
-0.194686

>  <SCORE.INTRA>
-12.0058

>  <SCORE.INTRA.DIHEDRAL>
-24.8745

>  <SCORE.INTRA.DIHEDRAL.0>
25.9209

>  <SCORE.INTRA.POLAR>
0

>  <SCORE.INTRA.POLAR.0>
0

>  <SCORE.INTRA.REPUL>
0

>  <SCORE.INTRA.REPUL.0>
0

>  <SCORE.INTRA.SOLV>
-1.08794

>  <SCORE.INTRA.SOLV.lig_0>
-47.4815

>  <SCORE.INTRA.VDW>
0.975406

>  <SCORE.INTRA.VDW.0>
-1.57492

>  <SCORE.INTRA.norm>
-0.857559

>  <SCORE.RESTR>
0

>  <SCORE.RESTR.CAVITY>
0

>  <SCORE.RESTR.norm>
0

>  <SCORE.SYSTEM>
0

>  <SCORE.SYSTEM.CONST>
0

>  <SCORE.SYSTEM.DIHEDRAL>
0

>  <SCORE.SYSTEM.SOLV>
0

>  <SCORE.SYSTEM.norm>
0

>  <SCORE.heavy>
14

>  <SCORE.norm>
-1.05225

>  <RMSD>
23.901

$$$$
ligand
 OpenBabel11021811493D
libRbt.so/2013.1/901 2013/11/27
 14 13  0  0  0  0  0  0  0  0999 V2000
   30.8410   -8.2758   -3.8500 N   0  0  0  0  0  0  0  0  0  0  0  0
   31.4335   -8.9585   -2.7063 C   0  0  0  0  0  0  0  0  0  0  0  0
   30.3746   -9.7912   -1.9527 C   0  0  0  0  0  0  0  0  0  0  0  0
   30.8659  -10.4076   -0.6279 C   0  0  0  0  0  0  0  0  0  0  0  0
   31.1071   -9.5057    0.5084 N   0  0  0  0  0  0  0  0  0  0  0  0
   30.0187   -9.1239    1.4151 C   0  0  0  0  0  0  0  0  0  0  0  0
   30.2471   -9.4731    2.8887 C   0  0  0  0  0  0  0  0  0  0  0  0
   31.3043   -8.5777    3.5569 C   0  0  0  0  0  0  0  0  0  0  0  0
   30.8302   -7.1382    3.8129 C   0  0  0  0  0  0  0  0  0  0  0  0
   31.8044   -6.2850    4.4975 N   0  0  0  0  0  0  0  0  0  0  0  0
   31.3571   -5.0164    5.0984 C   0  0  0  0  0  0  0  0  0  0  0  0
   32.4510   -3.9722    5.4249 C   0  0  0  0  0  0  0  0  0  0  0  0
   33.2537   -3.4412    4.2201 C   0  0  0  0  0  0  0  0  0  0  0  0
   34.3101   -2.5091    4.6034 N   0  0  0  0  0  0  0  0  0  0  0  0
  1  2  1  0  0  0  0
  2  3  1  0  0  0  0
  3  4  1  0  0  0  0
  4  5  1  0  0  0  0
  5  6  1  0  0  0  0
  6  7  1  0  0  0  0
  7  8  1  0  0  0  0
  8  9  1  0  0  0  0
  9 10  1  0  0  0  0
 10 11  1  0  0  0  0
 11 12  1  0  0  0  0
 12 13  1  0  0  0  0
 13 14  1  0  0  0  0
M  END
>  <CHROM.1>
-172.69477299,70.89903696,86.03918520,121.83075146,72.24309781,72.27033728
177.65888427,-164.52702157,-162.22612240,61.95804577,-177.25363612,31.44253117
-7.31996515,1.92087280,-2.08315004,1.09245961,1.35434019

>  <Name>
ligand

>  <RI>
0

>  <Rbt.Current_Directory>
/home/itssahil/PROJECTS/Mol_Feturizer/New_Systems/rnas/4E8Q

>  <Rbt.Executable>
rbdock ($Id: //depot/dev/client3/rdock/2013.1/src/exe/rbdock.cxx#4 $)

>  <Rbt.Library>
libRbt.so (2013.1, Build901 2013/11/27)

>  <Rbt.Parameter_File>
/export/apps/rDock/src/rDock_2013.1_src/data/scripts/dock_solv.prm

>  <Rbt.Receptor>
prm/blind_docking_60.prm

>  <SCORE>
-10.4918

>  <SCORE.INTER>
0.52159

>  <SCORE.INTER.CONST>
1

>  <SCORE.INTER.POLAR>
0

>  <SCORE.INTER.ROT>
11

>  <SCORE.INTER.SOLV>
12.1037

>  <SCORE.INTER.VDW>
-14.6202

>  <SCORE.INTER.norm>
0.0372564

>  <SCORE.INTRA>
-11.0134

>  <SCORE.INTRA.DIHEDRAL>
-21.9607

>  <SCORE.INTRA.DIHEDRAL.0>
25.9209

>  <SCORE.INTRA.POLAR>
0

>  <SCORE.INTRA.POLAR.0>
0

>  <SCORE.INTRA.REPUL>
0

>  <SCORE.INTRA.REPUL.0>
0

>  <SCORE.INTRA.SOLV>
-1.02461

>  <SCORE.INTRA.SOLV.lig_0>
-47.4815

>  <SCORE.INTRA.VDW>
0.479219

>  <SCORE.INTRA.VDW.0>
-1.57492

>  <SCORE.INTRA.norm>
-0.786673

>  <SCORE.RESTR>
0

>  <SCORE.RESTR.CAVITY>
0

>  <SCORE.RESTR.norm>
0

>  <SCORE.SYSTEM>
0

>  <SCORE.SYSTEM.CONST>
0

>  <SCORE.SYSTEM.DIHEDRAL>
0

>  <SCORE.SYSTEM.SOLV>
0

>  <SCORE.SYSTEM.norm>
0

>  <SCORE.heavy>
14

>  <SCORE.norm>
-0.749417

>  <RMSD>
24.436

$$$$
ligand
 OpenBabel11021811493D
libRbt.so/2013.1/901 2013/11/27
 14 13  0  0  0  0  0  0  0  0999 V2000
   58.5950   -4.1649   14.5163 N   0  0  0  0  0  0  0  0  0  0  0  0
   60.0014   -4.4611   14.7603 C   0  0  0  0  0  0  0  0  0  0  0  0
   60.1643   -5.8361   15.4426 C   0  0  0  0  0  0  0  0  0  0  0  0
   59.5111   -5.9437   16.8348 C   0  0  0  0  0  0  0  0  0  0  0  0
   59.5461   -7.2456   17.5178 N   0  0  0  0  0  0  0  0  0  0  0  0
   58.9874   -7.4084   18.8646 C   0  0  0  0  0  0  0  0  0  0  0  0
   58.4831   -8.8165   19.1937 C   0  0  0  0  0  0  0  0  0  0  0  0
   57.8191   -8.9039   20.5783 C   0  0  0  0  0  0  0  0  0  0  0  0
   57.2469  -10.2916   20.9089 C   0  0  0  0  0  0  0  0  0  0  0  0
   56.6094  -10.3940   22.2236 N   0  0  0  0  0  0  0  0  0  0  0  0
   55.6797  -11.5052   22.4910 C   0  0  0  0  0  0  0  0  0  0  0  0
   56.2559  -12.9380   22.3984 C   0  0  0  0  0  0  0  0  0  0  0  0
   57.3377  -13.2954   23.4376 C   0  0  0  0  0  0  0  0  0  0  0  0
   56.8130  -13.3989   24.7961 N   0  0  0  0  0  0  0  0  0  0  0  0
  1  2  1  0  0  0  0
  2  3  1  0  0  0  0
  3  4  1  0  0  0  0
  4  5  1  0  0  0  0
  5  6  1  0  0  0  0
  6  7  1  0  0  0  0
  7  8  1  0  0  0  0
  8  9  1  0  0  0  0
  9 10  1  0  0  0  0
 10 11  1  0  0  0  0
 11 12  1  0  0  0  0
 12 13  1  0  0  0  0
 13 14  1  0  0  0  0
M  END
>  <CHROM.1>
-62.49792607,176.20425616,177.76043548,152.32639947,-175.92636189,177.39335029
-179.95621732,161.29337024,61.31434477,64.72219311,69.18676863,58.07508245
-8.90027593,19.56878697,1.29335723,0.17386586,-0.76368714

>  <Name>
ligand

>  <RI>
0

>  <Rbt.Current_Directory>
/home/itssahil/PROJECTS/Mol_Feturizer/New_Systems/rnas/4E8Q

>  <Rbt.Executable>
rbdock ($Id: //depot/dev/client3/rdock/2013.1/src/exe/rbdock.cxx#4 $)

>  <Rbt.Library>
libRbt.so (2013.1, Build901 2013/11/27)

>  <Rbt.Parameter_File>
/export/apps/rDock/src/rDock_2013.1_src/data/scripts/dock_solv.prm

>  <Rbt.Receptor>
prm/blind_docking_80.prm

>  <SCORE>
-12.5956

>  <SCORE.INTER>
-0.883672

>  <SCORE.INTER.CONST>
1

>  <SCORE.INTER.POLAR>
0

>  <SCORE.INTER.ROT>
11

>  <SCORE.INTER.SOLV>
12.2988

>  <SCORE.INTER.VDW>
-15.622

>  <SCORE.INTER.norm>
-0.0631195

>  <SCORE.INTRA>
-11.7119

>  <SCORE.INTRA.DIHEDRAL>
-24.5567

>  <SCORE.INTRA.DIHEDRAL.0>
25.9209

>  <SCORE.INTRA.POLAR>
0

>  <SCORE.INTRA.POLAR.0>
0

>  <SCORE.INTRA.REPUL>
0

>  <SCORE.INTRA.REPUL.0>
0

>  <SCORE.INTRA.SOLV>
-0.0770373

>  <SCORE.INTRA.SOLV.lig_0>
-47.4815

>  <SCORE.INTRA.VDW>
0.604991

>  <SCORE.INTRA.VDW.0>
-1.57492

>  <SCORE.INTRA.norm>
-0.836563

>  <SCORE.RESTR>
0

>  <SCORE.RESTR.CAVITY>
0

>  <SCORE.RESTR.norm>
0

>  <SCORE.SYSTEM>
0

>  <SCORE.SYSTEM.CONST>
0

>  <SCORE.SYSTEM.DIHEDRAL>
0

>  <SCORE.SYSTEM.SOLV>
0

>  <SCORE.SYSTEM.norm>
0

>  <SCORE.heavy>
14

>  <SCORE.norm>
-0.899682

>  <RMSD>
24.806

$$$$
ligand
 OpenBabel11021811493D
libRbt.so/2013.1/901 2013/11/27
 14 13  0  0  0  0  0  0  0  0999 V2000
   59.4824   -5.1237   16.0298 N   0  0  0  0  0  0  0  0  0  0  0  0
   58.9313   -6.0610   17.0009 C   0  0  0  0  0  0  0  0  0  0  0  0
   60.0405   -6.9560   17.5934 C   0  0  0  0  0  0  0  0  0  0  0  0
   59.5387   -8.0416   18.5662 C   0  0  0  0  0  0  0  0  0  0  0  0
   58.7962   -7.6119   19.7607 N   0  0  0  0  0  0  0  0  0  0  0  0
   57.3349   -7.7263   19.8245 C   0  0  0  0  0  0  0  0  0  0  0  0
   56.7937   -9.1589   19.8142 C   0  0  0  0  0  0  0  0  0  0  0  0
   57.3185  -10.0032   20.9879 C   0  0  0  0  0  0  0  0  0  0  0  0
   56.6856  -11.4007   21.0826 C   0  0  0  0  0  0  0  0  0  0  0  0
   57.1728  -12.2197   22.1949 N   0  0  0  0  0  0  0  0  0  0  0  0
   56.7868  -11.8696   23.5729 C   0  0  0  0  0  0  0  0  0  0  0  0
   57.1438  -12.8888   24.6807 C   0  0  0  0  0  0  0  0  0  0  0  0
   56.4639  -14.2684   24.5685 C   0  0  0  0  0  0  0  0  0  0  0  0
   56.7109  -15.1229   25.7263 N   0  0  0  0  0  0  0  0  0  0  0  0
  1  2  1  0  0  0  0
  2  3  1  0  0  0  0
  3  4  1  0  0  0  0
  4  5  1  0  0  0  0
  5  6  1  0  0  0  0
  6  7  1  0  0  0  0
  7  8  1  0  0  0  0
  8  9  1  0  0  0  0
  9 10  1  0  0  0  0
 10 11  1  0  0  0  0
 11 12  1  0  0  0  0
 12 13  1  0  0  0  0
 13 14  1  0  0  0  0
M  END
>  <CHROM.1>
-176.30041613,-58.68856280,102.51038164,65.70048352,59.10849012,174.28113014
-179.98259719,71.16356795,170.71199325,-63.16988379,-172.88196179,57.79989429
-9.88942286,20.81447883,-1.33097909,-0.00946675,2.37578068

>  <Name>
ligand

>  <RI>
0

>  <Rbt.Current_Directory>
/home/itssahil/PROJECTS/Mol_Feturizer/New_Systems/rnas/4E8Q

>  <Rbt.Executable>
rbdock ($Id: //depot/dev/client3/rdock/2013.1/src/exe/rbdock.cxx#4 $)

>  <Rbt.Library>
libRbt.so (2013.1, Build901 2013/11/27)

>  <Rbt.Parameter_File>
/export/apps/rDock/src/rDock_2013.1_src/data/scripts/dock_solv.prm

>  <Rbt.Receptor>
prm/blind_docking_100.prm

>  <SCORE>
-13.4033

>  <SCORE.INTER>
-1.28973

>  <SCORE.INTER.CONST>
1

>  <SCORE.INTER.POLAR>
0

>  <SCORE.INTER.ROT>
11

>  <SCORE.INTER.SOLV>
10.9703

>  <SCORE.INTER.VDW>
-15.4499

>  <SCORE.INTER.norm>
-0.0921233

>  <SCORE.INTRA>
-12.1135

>  <SCORE.INTRA.DIHEDRAL>
-24.335

>  <SCORE.INTRA.DIHEDRAL.0>
25.9209

>  <SCORE.INTRA.POLAR>
0

>  <SCORE.INTRA.POLAR.0>
0

>  <SCORE.INTRA.REPUL>
0

>  <SCORE.INTRA.REPUL.0>
0

>  <SCORE.INTRA.SOLV>
-1.14307

>  <SCORE.INTRA.SOLV.lig_0>
-47.4815

>  <SCORE.INTRA.VDW>
0.625477

>  <SCORE.INTRA.VDW.0>
-1.57492

>  <SCORE.INTRA.norm>
-0.865253

>  <SCORE.RESTR>
0

>  <SCORE.RESTR.CAVITY>
0

>  <SCORE.RESTR.norm>
0

>  <SCORE.SYSTEM>
0

>  <SCORE.SYSTEM.CONST>
0

>  <SCORE.SYSTEM.DIHEDRAL>
0

>  <SCORE.SYSTEM.SOLV>
0

>  <SCORE.SYSTEM.norm>
0

>  <SCORE.heavy>
14

>  <SCORE.norm>
-0.957377

>  <RMSD>
26.220

$$$$
ligand
 OpenBabel11021811493D
libRbt.so/2013.1/901 2013/11/27
 14 13  0  0  0  0  0  0  0  0999 V2000
   57.8831   -5.8744   18.0745 N   0  0  0  0  0  0  0  0  0  0  0  0
   58.5905   -6.4394   19.2171 C   0  0  0  0  0  0  0  0  0  0  0  0
   58.9257   -7.9269   18.9768 C   0  0  0  0  0  0  0  0  0  0  0  0
   57.6972   -8.8491   18.8459 C   0  0  0  0  0  0  0  0  0  0  0  0
   56.7666   -8.9287   19.9818 N   0  0  0  0  0  0  0  0  0  0  0  0
   57.1507   -9.5999   21.2286 C   0  0  0  0  0  0  0  0  0  0  0  0
   56.7640  -11.0791   21.3167 C   0  0  0  0  0  0  0  0  0  0  0  0
   57.2676  -11.7515   22.6052 C   0  0  0  0  0  0  0  0  0  0  0  0
   56.7876  -13.2012   22.7805 C   0  0  0  0  0  0  0  0  0  0  0  0
   57.4532  -13.9411   23.8551 N   0  0  0  0  0  0  0  0  0  0  0  0
   56.9679  -13.7981   25.2388 C   0  0  0  0  0  0  0  0  0  0  0  0
   57.5541  -14.7695   26.2905 C   0  0  0  0  0  0  0  0  0  0  0  0
   57.0357  -14.5914   27.7319 C   0  0  0  0  0  0  0  0  0  0  0  0
   57.5474  -15.6028   28.6521 N   0  0  0  0  0  0  0  0  0  0  0  0
  1  2  1  0  0  0  0
  2  3  1  0  0  0  0
  3  4  1  0  0  0  0
  4  5  1  0  0  0  0
  5  6  1  0  0  0  0
  6  7  1  0  0  0  0
  7  8  1  0  0  0  0
  8  9  1  0  0  0  0
  9 10  1  0  0  0  0
 10 11  1  0  0  0  0
 11 12  1  0  0  0  0
 12 13  1  0  0  0  0
 13 14  1  0  0  0  0
M  END
>  <CHROM.1>
-64.16546611,-59.93465431,-70.68641324,-92.78382345,176.43667449,174.80917377
168.83985355,83.72087012,170.38267723,179.60839419,175.49667077,57.45654838
-11.16811054,22.48535031,-1.42004046,1.12140968,2.18925778

>  <Name>
ligand

>  <RI>
0

>  <Rbt.Current_Directory>
/home/itssahil/PROJECTS/Mol_Feturizer/New_Systems/rnas/4E8Q

>  <Rbt.Executable>
rbdock ($Id: //depot/dev/client3/rdock/2013.1/src/exe/rbdock.cxx#4 $)

>  <Rbt.Library>
libRbt.so (2013.1, Build901 2013/11/27)

>  <Rbt.Parameter_File>
/export/apps/rDock/src/rDock_2013.1_src/data/scripts/dock_solv.prm

>  <Rbt.Receptor>
prm/blind_docking_100.prm

>  <SCORE>
-14.6366

>  <SCORE.INTER>
-3.00742

>  <SCORE.INTER.CONST>
1

>  <SCORE.INTER.POLAR>
0

>  <SCORE.INTER.ROT>
11

>  <SCORE.INTER.SOLV>
12.73

>  <SCORE.INTER.VDW>
-17.1816

>  <SCORE.INTER.norm>
-0.214816

>  <SCORE.INTRA>
-11.6292

>  <SCORE.INTRA.DIHEDRAL>
-23.901

>  <SCORE.INTRA.DIHEDRAL.0>
25.9209

>  <SCORE.INTRA.POLAR>
0

>  <SCORE.INTRA.POLAR.0>
0

>  <SCORE.INTRA.REPUL>
0

>  <SCORE.INTRA.REPUL.0>
0

>  <SCORE.INTRA.SOLV>
-0.490236

>  <SCORE.INTRA.SOLV.lig_0>
-47.4815

>  <SCORE.INTRA.VDW>
0.566408

>  <SCORE.INTRA.VDW.0>
-1.57492

>  <SCORE.INTRA.norm>
-0.830657

>  <SCORE.RESTR>
0

>  <SCORE.RESTR.CAVITY>
0

>  <SCORE.RESTR.norm>
0

>  <SCORE.SYSTEM>
0

>  <SCORE.SYSTEM.CONST>
0

>  <SCORE.SYSTEM.DIHEDRAL>
0

>  <SCORE.SYSTEM.SOLV>
0

>  <SCORE.SYSTEM.norm>
0

>  <SCORE.heavy>
14

>  <SCORE.norm>
-1.04547

>  <RMSD>
28.136

$$$$
ligand
 OpenBabel11021811493D
libRbt.so/2013.1/901 2013/11/27
 14 13  0  0  0  0  0  0  0  0999 V2000
   40.2220    5.0583   29.5479 N   0  0  0  0  0  0  0  0  0  0  0  0
   40.1213    3.6215   29.7729 C   0  0  0  0  0  0  0  0  0  0  0  0
   41.5201    2.9908   29.9401 C   0  0  0  0  0  0  0  0  0  0  0  0
   42.4064    3.0505   28.6801 C   0  0  0  0  0  0  0  0  0  0  0  0
   42.0818    2.1525   27.5616 N   0  0  0  0  0  0  0  0  0  0  0  0
   40.7526    2.1679   26.9407 C   0  0  0  0  0  0  0  0  0  0  0  0
   40.7027    1.6553   25.4984 C   0  0  0  0  0  0  0  0  0  0  0  0
   41.1428    2.7144   24.4735 C   0  0  0  0  0  0  0  0  0  0  0  0
   41.2874    2.1741   23.0418 C   0  0  0  0  0  0  0  0  0  0  0  0
   40.1057    1.4781   22.5274 N   0  0  0  0  0  0  0  0  0  0  0  0
   39.9983    0.0181   22.6930 C   0  0  0  0  0  0  0  0  0  0  0  0
   38.9673   -0.7139   21.8015 C   0  0  0  0  0  0  0  0  0  0  0  0
   39.1726   -0.5695   20.2800 C   0  0  0  0  0  0  0  0  0  0  0  0
   38.9035    0.7802   19.7927 N   0  0  0  0  0  0  0  0  0  0  0  0
  1  2  1  0  0  0  0
  2  3  1  0  0  0  0
  3  4  1  0  0  0  0
  4  5  1  0  0  0  0
  5  6  1  0  0  0  0
  6  7  1  0  0  0  0
  7  8  1  0  0  0  0
  8  9  1  0  0  0  0
  9 10  1  0  0  0  0
 10 11  1  0  0  0  0
 11 12  1  0  0  0  0
 12 13  1  0  0  0  0
 13 14  1  0  0  0  0
M  END
>  <CHROM.1>
-65.45754264,-73.39339448,56.48665402,156.03704093,-80.71108703,172.08362998
53.51432766,-92.29605536,-162.91995726,59.23677107,-69.30763688,40.52756147
1.89826779,25.18239696,1.26274314,-0.88820000,0.94663602

>  <Name>
ligand

>  <RI>
0

>  <Rbt.Current_Directory>
/home/itssahil/PROJECTS/Mol_Feturizer/New_Systems/rnas/4E8Q

>  <Rbt.Executable>
rbdock ($Id: //depot/dev/client3/rdock/2013.1/src/exe/rbdock.cxx#4 $)

>  <Rbt.Library>
libRbt.so (2013.1, Build901 2013/11/27)

>  <Rbt.Parameter_File>
/export/apps/rDock/src/rDock_2013.1_src/data/scripts/dock_solv.prm

>  <Rbt.Receptor>
prm/blind_docking_60.prm

>  <SCORE>
-9.27658

>  <SCORE.INTER>
-0.613167

>  <SCORE.INTER.CONST>
1

>  <SCORE.INTER.POLAR>
0

>  <SCORE.INTER.ROT>
11

>  <SCORE.INTER.SOLV>
6.40292

>  <SCORE.INTER.VDW>
-13.4764

>  <SCORE.INTER.norm>
-0.0437976

>  <SCORE.INTRA>
-8.66342

>  <SCORE.INTRA.DIHEDRAL>
-21.6275

>  <SCORE.INTRA.DIHEDRAL.0>
25.9209

>  <SCORE.INTRA.POLAR>
0

>  <SCORE.INTRA.POLAR.0>
0

>  <SCORE.INTRA.REPUL>
0

>  <SCORE.INTRA.REPUL.0>
0

>  <SCORE.INTRA.SOLV>
3.03042

>  <SCORE.INTRA.SOLV.lig_0>
-47.4815

>  <SCORE.INTRA.VDW>
0.635145

>  <SCORE.INTRA.VDW.0>
-1.57492

>  <SCORE.INTRA.norm>
-0.618815

>  <SCORE.RESTR>
0

>  <SCORE.RESTR.CAVITY>
0

>  <SCORE.RESTR.norm>
0

>  <SCORE.SYSTEM>
0

>  <SCORE.SYSTEM.CONST>
0

>  <SCORE.SYSTEM.DIHEDRAL>
0

>  <SCORE.SYSTEM.SOLV>
0

>  <SCORE.SYSTEM.norm>
0

>  <SCORE.heavy>
14

>  <SCORE.norm>
-0.662613

>  <RMSD>
29.739

$$$$
ligand
 OpenBabel11021811493D
libRbt.so/2013.1/901 2013/11/27
 14 13  0  0  0  0  0  0  0  0999 V2000
   41.9246   10.0030   28.0862 N   0  0  0  0  0  0  0  0  0  0  0  0
   40.5923    9.5915   28.5112 C   0  0  0  0  0  0  0  0  0  0  0  0
   40.0594    8.4476   27.6223 C   0  0  0  0  0  0  0  0  0  0  0  0
   40.9025    7.1576   27.6616 C   0  0  0  0  0  0  0  0  0  0  0  0
   40.4553    6.0128   26.8540 N   0  0  0  0  0  0  0  0  0  0  0  0
   41.0272    4.6766   27.0543 C   0  0  0  0  0  0  0  0  0  0  0  0
   40.4617    3.5839   26.1423 C   0  0  0  0  0  0  0  0  0  0  0  0
   41.0490    2.1941   26.4418 C   0  0  0  0  0  0  0  0  0  0  0  0
   40.5155    1.0812   25.5256 C   0  0  0  0  0  0  0  0  0  0  0  0
   40.8083    1.2665   24.1024 N   0  0  0  0  0  0  0  0  0  0  0  0
   39.9690    0.5900   23.0983 C   0  0  0  0  0  0  0  0  0  0  0  0
   40.5813    0.3938   21.6911 C   0  0  0  0  0  0  0  0  0  0  0  0
   39.7270   -0.4144   20.6936 C   0  0  0  0  0  0  0  0  0  0  0  0
   38.4861    0.2610   20.3259 N   0  0  0  0  0  0  0  0  0  0  0  0
  1  2  1  0  0  0  0
  2  3  1  0  0  0  0
  3  4  1  0  0  0  0
  4  5  1  0  0  0  0
  5  6  1  0  0  0  0
  6  7  1  0  0  0  0
  7  8  1  0  0  0  0
  8  9  1  0  0  0  0
  9 10  1  0  0  0  0
 10 11  1  0  0  0  0
 11 12  1  0  0  0  0
 12 13  1  0  0  0  0
 13 14  1  0  0  0  0
M  END
>  <CHROM.1>
61.52899581,179.32527685,-166.81372268,179.90077525,-177.28090103,-179.06798029
61.45536354,-157.50354059,-158.86308835,175.34129493,66.03342021,40.46853568
3.91731599,25.27235290,1.24848161,-1.23448207,0.32204404

>  <Name>
ligand

>  <RI>
0

>  <Rbt.Current_Directory>
/home/itssahil/PROJECTS/Mol_Feturizer/New_Systems/rnas/4E8Q

>  <Rbt.Executable>
rbdock ($Id: //depot/dev/client3/rdock/2013.1/src/exe/rbdock.cxx#4 $)

>  <Rbt.Library>
libRbt.so (2013.1, Build901 2013/11/27)

>  <Rbt.Parameter_File>
/export/apps/rDock/src/rDock_2013.1_src/data/scripts/dock_solv.prm

>  <Rbt.Receptor>
prm/blind_docking_100.prm

>  <SCORE>
-11.1955

>  <SCORE.INTER>
1.0026

>  <SCORE.INTER.CONST>
1

>  <SCORE.INTER.POLAR>
0

>  <SCORE.INTER.ROT>
11

>  <SCORE.INTER.SOLV>
6.58265

>  <SCORE.INTER.VDW>
-12.4591

>  <SCORE.INTER.norm>
0.0716145

>  <SCORE.INTRA>
-12.1981

>  <SCORE.INTRA.DIHEDRAL>
-24.8133

>  <SCORE.INTRA.DIHEDRAL.0>
25.9209

>  <SCORE.INTRA.POLAR>
0

>  <SCORE.INTRA.POLAR.0>
0

>  <SCORE.INTRA.REPUL>
0

>  <SCORE.INTRA.REPUL.0>
0

>  <SCORE.INTRA.SOLV>
-0.426052

>  <SCORE.INTRA.SOLV.lig_0>
-47.4815

>  <SCORE.INTRA.VDW>
0.421539

>  <SCORE.INTRA.VDW.0>
-1.57492

>  <SCORE.INTRA.norm>
-0.871296

>  <SCORE.RESTR>
0

>  <SCORE.RESTR.CAVITY>
0

>  <SCORE.RESTR.norm>
0

>  <SCORE.SYSTEM>
0

>  <SCORE.SYSTEM.CONST>
0

>  <SCORE.SYSTEM.DIHEDRAL>
0

>  <SCORE.SYSTEM.SOLV>
0

>  <SCORE.SYSTEM.norm>
0

>  <SCORE.heavy>
14

>  <SCORE.norm>
-0.799682

>  <RMSD>
30.087

$$$$
ligand
 OpenBabel11021811493D
libRbt.so/2013.1/901 2013/11/27
 14 13  0  0  0  0  0  0  0  0999 V2000
   34.8403   -1.5050   23.9431 N   0  0  0  0  0  0  0  0  0  0  0  0
   34.7377   -0.7525   22.6988 C   0  0  0  0  0  0  0  0  0  0  0  0
   35.2303    0.6978   22.8900 C   0  0  0  0  0  0  0  0  0  0  0  0
   36.7196    0.8259   23.2670 C   0  0  0  0  0  0  0  0  0  0  0  0
   37.2714    2.1751   23.4615 N   0  0  0  0  0  0  0  0  0  0  0  0
   38.6676    2.3697   23.8683 C   0  0  0  0  0  0  0  0  0  0  0  0
   39.0572    3.8167   24.1841 C   0  0  0  0  0  0  0  0  0  0  0  0
   40.5488    3.9717   24.5260 C   0  0  0  0  0  0  0  0  0  0  0  0
   40.9563    5.4049   24.9036 C   0  0  0  0  0  0  0  0  0  0  0  0
   40.2946    5.9353   26.0979 N   0  0  0  0  0  0  0  0  0  0  0  0
   40.1281    7.3918   26.2446 C   0  0  0  0  0  0  0  0  0  0  0  0
   41.2235    8.1457   27.0353 C   0  0  0  0  0  0  0  0  0  0  0  0
   40.9749    9.6512   27.2585 C   0  0  0  0  0  0  0  0  0  0  0  0
   42.0190   10.2910   28.0533 N   0  0  0  0  0  0  0  0  0  0  0  0
  1  2  1  0  0  0  0
  2  3  1  0  0  0  0
  3  4  1  0  0  0  0
  4  5  1  0  0  0  0
  5  6  1  0  0  0  0
  6  7  1  0  0  0  0
  7  8  1  0  0  0  0
  8  9  1  0  0  0  0
  9 10  1  0  0  0  0
 10 11  1  0  0  0  0
 11 12  1  0  0  0  0
 12 13  1  0  0  0  0
 13 14  1  0  0  0  0
M  END
>  <CHROM.1>
63.22603682,179.71642557,177.78347898,-173.42319088,-176.71768825,-177.62475154
61.98493938,-153.94796267,-93.79053289,-175.87934467,177.80704715,38.76215205
4.17278734,24.88780405,2.12403759,-0.24241421,-2.58045685

>  <Name>
ligand

>  <RI>
0

>  <Rbt.Current_Directory>
/home/itssahil/PROJECTS/Mol_Feturizer/New_Systems/rnas/4E8Q

>  <Rbt.Executable>
rbdock ($Id: //depot/dev/client3/rdock/2013.1/src/exe/rbdock.cxx#4 $)

>  <Rbt.Library>
libRbt.so (2013.1, Build901 2013/11/27)

>  <Rbt.Parameter_File>
/export/apps/rDock/src/rDock_2013.1_src/data/scripts/dock_solv.prm

>  <Rbt.Receptor>
prm/blind_docking_100.prm

>  <SCORE>
-11.0938

>  <SCORE.INTER>
1.25125

>  <SCORE.INTER.CONST>
1

>  <SCORE.INTER.POLAR>
0

>  <SCORE.INTER.ROT>
11

>  <SCORE.INTER.SOLV>
11.2363

>  <SCORE.INTER.VDW>
-13.8446

>  <SCORE.INTER.norm>
0.0893751

>  <SCORE.INTRA>
-12.3451

>  <SCORE.INTRA.DIHEDRAL>
-24.4856

>  <SCORE.INTRA.DIHEDRAL.0>
25.9209

>  <SCORE.INTRA.POLAR>
0

>  <SCORE.INTRA.POLAR.0>
0

>  <SCORE.INTRA.REPUL>
0

>  <SCORE.INTRA.REPUL.0>
0

>  <SCORE.INTRA.SOLV>
-1.07269

>  <SCORE.INTRA.SOLV.lig_0>
-47.4815

>  <SCORE.INTRA.VDW>
0.434022

>  <SCORE.INTRA.VDW.0>
-1.57492

>  <SCORE.INTRA.norm>
-0.881793

>  <SCORE.RESTR>
0

>  <SCORE.RESTR.CAVITY>
0

>  <SCORE.RESTR.norm>
0

>  <SCORE.SYSTEM>
0

>  <SCORE.SYSTEM.CONST>
0

>  <SCORE.SYSTEM.DIHEDRAL>
0

>  <SCORE.SYSTEM.SOLV>
0

>  <SCORE.SYSTEM.norm>
0

>  <SCORE.heavy>
14

>  <SCORE.norm>
-0.792418

>  <RMSD>
30.484

$$$$
ligand
 OpenBabel11021811493D
libRbt.so/2013.1/901 2013/11/27
 14 13  0  0  0  0  0  0  0  0999 V2000
   42.9493    3.3668   28.6326 N   0  0  0  0  0  0  0  0  0  0  0  0
   41.7029    2.9188   28.0234 C   0  0  0  0  0  0  0  0  0  0  0  0
   40.5408    2.9809   29.0374 C   0  0  0  0  0  0  0  0  0  0  0  0
   40.2485    4.3886   29.5939 C   0  0  0  0  0  0  0  0  0  0  0  0
   39.8449    5.4382   28.6462 N   0  0  0  0  0  0  0  0  0  0  0  0
   39.7611    6.8423   29.0634 C   0  0  0  0  0  0  0  0  0  0  0  0
   39.3227    7.8206   27.9697 C   0  0  0  0  0  0  0  0  0  0  0  0
   40.2732    7.8283   26.7604 C   0  0  0  0  0  0  0  0  0  0  0  0
   40.1945    6.5588   25.8974 C   0  0  0  0  0  0  0  0  0  0  0  0
   41.0518    6.5712   24.7099 N   0  0  0  0  0  0  0  0  0  0  0  0
   40.7148    5.7053   23.5666 C   0  0  0  0  0  0  0  0  0  0  0  0
   41.4750    5.9637   22.2443 C   0  0  0  0  0  0  0  0  0  0  0  0
   41.0300    5.1144   21.0365 C   0  0  0  0  0  0  0  0  0  0  0  0
   41.8685    5.3135   19.8580 N   0  0  0  0  0  0  0  0  0  0  0  0
  1  2  1  0  0  0  0
  2  3  1  0  0  0  0
  3  4  1  0  0  0  0
  4  5  1  0  0  0  0
  5  6  1  0  0  0  0
  6  7  1  0  0  0  0
  7  8  1  0  0  0  0
  8  9  1  0  0  0  0
  9 10  1  0  0  0  0
 10 11  1  0  0  0  0
 11 12  1  0  0  0  0
 12 13  1  0  0  0  0
 13 14  1  0  0  0  0
M  END
>  <CHROM.1>
60.51094871,61.36862180,-170.04652988,-179.79285896,-59.88410013,71.36302644
177.57328985,-156.82887469,167.97717170,-175.64669624,-174.47058305,40.78387502
5.48664852,26.07452074,-1.80280096,1.11043655,-1.25389220

>  <Name>
ligand

>  <RI>
0

>  <Rbt.Current_Directory>
/home/itssahil/PROJECTS/Mol_Feturizer/New_Systems/rnas/4E8Q

>  <Rbt.Executable>
rbdock ($Id: //depot/dev/client3/rdock/2013.1/src/exe/rbdock.cxx#4 $)

>  <Rbt.Library>
libRbt.so (2013.1, Build901 2013/11/27)

>  <Rbt.Parameter_File>
/export/apps/rDock/src/rDock_2013.1_src/data/scripts/dock_solv.prm

>  <Rbt.Receptor>
prm/blind_docking_100.prm

>  <SCORE>
-12.3284

>  <SCORE.INTER>
-0.758842

>  <SCORE.INTER.CONST>
1

>  <SCORE.INTER.POLAR>
0

>  <SCORE.INTER.ROT>
11

>  <SCORE.INTER.SOLV>
11.249

>  <SCORE.INTER.VDW>
-15.1889

>  <SCORE.INTER.norm>
-0.054203

>  <SCORE.INTRA>
-11.5696

>  <SCORE.INTRA.DIHEDRAL>
-24.5938

>  <SCORE.INTRA.DIHEDRAL.0>
25.9209

>  <SCORE.INTRA.POLAR>
0

>  <SCORE.INTRA.POLAR.0>
0

>  <SCORE.INTRA.REPUL>
0

>  <SCORE.INTRA.REPUL.0>
0

>  <SCORE.INTRA.SOLV>
0.580364

>  <SCORE.INTRA.SOLV.lig_0>
-47.4815

>  <SCORE.INTRA.VDW>
0.437117

>  <SCORE.INTRA.VDW.0>
-1.57492

>  <SCORE.INTRA.norm>
-0.826399

>  <SCORE.RESTR>
0

>  <SCORE.RESTR.CAVITY>
0

>  <SCORE.RESTR.norm>
0

>  <SCORE.SYSTEM>
0

>  <SCORE.SYSTEM.CONST>
0

>  <SCORE.SYSTEM.DIHEDRAL>
0

>  <SCORE.SYSTEM.SOLV>
0

>  <SCORE.SYSTEM.norm>
0

>  <SCORE.heavy>
14

>  <SCORE.norm>
-0.880602

>  <RMSD>
30.609

$$$$
ligand
 OpenBabel11021811493D
libRbt.so/2013.1/901 2013/11/27
 14 13  0  0  0  0  0  0  0  0999 V2000
   42.7049    5.7117   19.5128 N   0  0  0  0  0  0  0  0  0  0  0  0
   41.4537    5.1585   20.0167 C   0  0  0  0  0  0  0  0  0  0  0  0
   41.0013    5.8950   21.2955 C   0  0  0  0  0  0  0  0  0  0  0  0
   42.0011    5.8216   22.4667 C   0  0  0  0  0  0  0  0  0  0  0  0
   41.5696    6.3269   23.7786 N   0  0  0  0  0  0  0  0  0  0  0  0
   40.7045    5.5247   24.6508 C   0  0  0  0  0  0  0  0  0  0  0  0
   40.6708    5.9658   26.1170 C   0  0  0  0  0  0  0  0  0  0  0  0
   39.9506    7.3099   26.3190 C   0  0  0  0  0  0  0  0  0  0  0  0
   39.8482    7.7476   27.7889 C   0  0  0  0  0  0  0  0  0  0  0  0
   39.2087    6.7725   28.6752 N   0  0  0  0  0  0  0  0  0  0  0  0
   39.5107    6.8000   30.1170 C   0  0  0  0  0  0  0  0  0  0  0  0
   40.9346    6.3700   30.5425 C   0  0  0  0  0  0  0  0  0  0  0  0
   41.2396    6.4568   32.0516 C   0  0  0  0  0  0  0  0  0  0  0  0
   42.6168    6.0983   32.3778 N   0  0  0  0  0  0  0  0  0  0  0  0
  1  2  1  0  0  0  0
  2  3  1  0  0  0  0
  3  4  1  0  0  0  0
  4  5  1  0  0  0  0
  5  6  1  0  0  0  0
  6  7  1  0  0  0  0
  7  8  1  0  0  0  0
  8  9  1  0  0  0  0
  9 10  1  0  0  0  0
 10 11  1  0  0  0  0
 11 12  1  0  0  0  0
 12 13  1  0  0  0  0
 13 14  1  0  0  0  0
M  END
>  <CHROM.1>
-59.99953125,-171.36450803,78.74189396,162.67519313,69.79102673,177.48717029
-55.73929823,155.85374130,-69.48640174,177.87207369,-177.26604342,40.95800430
6.28282504,26.12216298,-1.47581618,-0.39266333,1.51648859

>  <Name>
ligand

>  <RI>
0

>  <Rbt.Current_Directory>
/home/itssahil/PROJECTS/Mol_Feturizer/New_Systems/rnas/4E8Q

>  <Rbt.Executable>
rbdock ($Id: //depot/dev/client3/rdock/2013.1/src/exe/rbdock.cxx#4 $)

>  <Rbt.Library>
libRbt.so (2013.1, Build901 2013/11/27)

>  <Rbt.Parameter_File>
/export/apps/rDock/src/rDock_2013.1_src/data/scripts/dock_solv.prm

>  <Rbt.Receptor>
prm/blind_docking_80.prm

>  <SCORE>
-11.8311

>  <SCORE.INTER>
-0.0269177

>  <SCORE.INTER.CONST>
1

>  <SCORE.INTER.POLAR>
0

>  <SCORE.INTER.ROT>
11

>  <SCORE.INTER.SOLV>
12.9079

>  <SCORE.INTER.VDW>
-15.2539

>  <SCORE.INTER.norm>
-0.00192269

>  <SCORE.INTRA>
-11.8042

>  <SCORE.INTRA.DIHEDRAL>
-24.1602

>  <SCORE.INTRA.DIHEDRAL.0>
25.9209

>  <SCORE.INTRA.POLAR>
0

>  <SCORE.INTRA.POLAR.0>
0

>  <SCORE.INTRA.REPUL>
0

>  <SCORE.INTRA.REPUL.0>
0

>  <SCORE.INTRA.SOLV>
-0.698216

>  <SCORE.INTRA.SOLV.lig_0>
-47.4815

>  <SCORE.INTRA.VDW>
0.625009

>  <SCORE.INTRA.VDW.0>
-1.57492

>  <SCORE.INTRA.norm>
-0.843158

>  <SCORE.RESTR>
0

>  <SCORE.RESTR.CAVITY>
0

>  <SCORE.RESTR.norm>
0

>  <SCORE.SYSTEM>
0

>  <SCORE.SYSTEM.CONST>
0

>  <SCORE.SYSTEM.DIHEDRAL>
0

>  <SCORE.SYSTEM.SOLV>
0

>  <SCORE.SYSTEM.norm>
0

>  <SCORE.heavy>
14

>  <SCORE.norm>
-0.845081

>  <RMSD>
30.710

$$$$
ligand
 OpenBabel11021811493D
libRbt.so/2013.1/901 2013/11/27
 14 13  0  0  0  0  0  0  0  0999 V2000
   41.0876    6.7981   29.7861 N   0  0  0  0  0  0  0  0  0  0  0  0
   39.6967    6.6980   30.2110 C   0  0  0  0  0  0  0  0  0  0  0  0
   38.9911    5.5161   29.5125 C   0  0  0  0  0  0  0  0  0  0  0  0
   39.5162    4.1244   29.9174 C   0  0  0  0  0  0  0  0  0  0  0  0
   38.9525    2.9471   29.2399 N   0  0  0  0  0  0  0  0  0  0  0  0
   39.1400    2.7418   27.7993 C   0  0  0  0  0  0  0  0  0  0  0  0
   40.5853    2.4871   27.3614 C   0  0  0  0  0  0  0  0  0  0  0  0
   40.7342    2.3698   25.8350 C   0  0  0  0  0  0  0  0  0  0  0  0
   40.5526    3.7001   25.0868 C   0  0  0  0  0  0  0  0  0  0  0  0
   40.6450    3.6001   23.6284 N   0  0  0  0  0  0  0  0  0  0  0  0
   40.6943    4.8319   22.8217 C   0  0  0  0  0  0  0  0  0  0  0  0
   40.4486    4.6837   21.3014 C   0  0  0  0  0  0  0  0  0  0  0  0
   40.4561    5.9944   20.4889 C   0  0  0  0  0  0  0  0  0  0  0  0
   41.7598    6.6514   20.4762 N   0  0  0  0  0  0  0  0  0  0  0  0
  1  2  1  0  0  0  0
  2  3  1  0  0  0  0
  3  4  1  0  0  0  0
  4  5  1  0  0  0  0
  5  6  1  0  0  0  0
  6  7  1  0  0  0  0
  7  8  1  0  0  0  0
  8  9  1  0  0  0  0
  9 10  1  0  0  0  0
 10 11  1  0  0  0  0
 11 12  1  0  0  0  0
 12 13  1  0  0  0  0
 13 14  1  0  0  0  0
M  END
>  <CHROM.1>
66.75947384,-176.47179587,64.04239280,65.98409994,-176.29001075,71.05591575
-177.98914774,-170.65674823,-165.67175370,177.90218535,65.24776944,40.23272428
4.51008250,25.96192998,-2.48285090,-1.38141530,-2.40233531

>  <Name>
ligand

>  <RI>
0

>  <Rbt.Current_Directory>
/home/itssahil/PROJECTS/Mol_Feturizer/New_Systems/rnas/4E8Q

>  <Rbt.Executable>
rbdock ($Id: //depot/dev/client3/rdock/2013.1/src/exe/rbdock.cxx#4 $)

>  <Rbt.Library>
libRbt.so (2013.1, Build901 2013/11/27)

>  <Rbt.Parameter_File>
/export/apps/rDock/src/rDock_2013.1_src/data/scripts/dock_solv.prm

>  <Rbt.Receptor>
prm/blind_docking_80.prm

>  <SCORE>
-11.4628

>  <SCORE.INTER>
0.292919

>  <SCORE.INTER.CONST>
1

>  <SCORE.INTER.POLAR>
0

>  <SCORE.INTER.ROT>
11

>  <SCORE.INTER.SOLV>
9.79696

>  <SCORE.INTER.VDW>
-14.0037

>  <SCORE.INTER.norm>
0.0209228

>  <SCORE.INTRA>
-11.7557

>  <SCORE.INTRA.DIHEDRAL>
-24.7429

>  <SCORE.INTRA.DIHEDRAL.0>
25.9209

>  <SCORE.INTRA.POLAR>
0

>  <SCORE.INTRA.POLAR.0>
0

>  <SCORE.INTRA.REPUL>
0

>  <SCORE.INTRA.REPUL.0>
0

>  <SCORE.INTRA.SOLV>
-0.679623

>  <SCORE.INTRA.SOLV.lig_0>
-47.4815

>  <SCORE.INTRA.VDW>
0.955552

>  <SCORE.INTRA.VDW.0>
-1.57492

>  <SCORE.INTRA.norm>
-0.839693

>  <SCORE.RESTR>
0

>  <SCORE.RESTR.CAVITY>
0

>  <SCORE.RESTR.norm>
0

>  <SCORE.SYSTEM>
0

>  <SCORE.SYSTEM.CONST>
0

>  <SCORE.SYSTEM.DIHEDRAL>
0

>  <SCORE.SYSTEM.SOLV>
0

>  <SCORE.SYSTEM.norm>
0

>  <SCORE.heavy>
14

>  <SCORE.norm>
-0.818771

>  <RMSD>
30.778

$$$$
ligand
 OpenBabel11021811493D
libRbt.so/2013.1/901 2013/11/27
 14 13  0  0  0  0  0  0  0  0999 V2000
   35.1643    0.3238   28.7235 N   0  0  0  0  0  0  0  0  0  0  0  0
   35.5107    1.3993   29.6446 C   0  0  0  0  0  0  0  0  0  0  0  0
   37.0367    1.6295   29.6737 C   0  0  0  0  0  0  0  0  0  0  0  0
   37.6531    2.0215   28.3161 C   0  0  0  0  0  0  0  0  0  0  0  0
   39.0963    2.2995   28.2649 N   0  0  0  0  0  0  0  0  0  0  0  0
   39.7284    2.7926   27.0361 C   0  0  0  0  0  0  0  0  0  0  0  0
   41.1642    3.2991   27.2015 C   0  0  0  0  0  0  0  0  0  0  0  0
   41.7051    3.9829   25.9344 C   0  0  0  0  0  0  0  0  0  0  0  0
   40.9360    5.2522   25.5342 C   0  0  0  0  0  0  0  0  0  0  0  0
   41.5466    6.0214   24.4475 N   0  0  0  0  0  0  0  0  0  0  0  0
   41.5793    5.4518   23.0892 C   0  0  0  0  0  0  0  0  0  0  0  0
   41.9678    6.4090   21.9376 C   0  0  0  0  0  0  0  0  0  0  0  0
   42.0537    5.7728   20.5354 C   0  0  0  0  0  0  0  0  0  0  0  0
   40.7924    5.1820   20.0978 N   0  0  0  0  0  0  0  0  0  0  0  0
  1  2  1  0  0  0  0
  2  3  1  0  0  0  0
  3  4  1  0  0  0  0
  4  5  1  0  0  0  0
  5  6  1  0  0  0  0
  6  7  1  0  0  0  0
  7  8  1  0  0  0  0
  8  9  1  0  0  0  0
  9 10  1  0  0  0  0
 10 11  1  0  0  0  0
 11 12  1  0  0  0  0
 12 13  1  0  0  0  0
 13 14  1  0  0  0  0
M  END
>  <CHROM.1>
60.16703047,178.15879398,-174.52538246,168.38101218,-171.91299015,63.09140112
171.73063330,68.09273158,167.91707507,177.44583132,59.96151541,39.70984391
3.70276695,25.74562038,2.18065518,0.46134683,1.81506803

>  <Name>
ligand

>  <RI>
0

>  <Rbt.Current_Directory>
/home/itssahil/PROJECTS/Mol_Feturizer/New_Systems/rnas/4E8Q

>  <Rbt.Executable>
rbdock ($Id: //depot/dev/client3/rdock/2013.1/src/exe/rbdock.cxx#4 $)

>  <Rbt.Library>
libRbt.so (2013.1, Build901 2013/11/27)

>  <Rbt.Parameter_File>
/export/apps/rDock/src/rDock_2013.1_src/data/scripts/dock_solv.prm

>  <Rbt.Receptor>
prm/blind_docking_60.prm

>  <SCORE>
-11.2046

>  <SCORE.INTER>
0.379633

>  <SCORE.INTER.CONST>
1

>  <SCORE.INTER.POLAR>
0

>  <SCORE.INTER.ROT>
11

>  <SCORE.INTER.SOLV>
8.99763

>  <SCORE.INTER.VDW>
-13.6795

>  <SCORE.INTER.norm>
0.0271166

>  <SCORE.INTRA>
-11.5842

>  <SCORE.INTRA.DIHEDRAL>
-25.0436

>  <SCORE.INTRA.DIHEDRAL.0>
25.9209

>  <SCORE.INTRA.POLAR>
0

>  <SCORE.INTRA.POLAR.0>
0

>  <SCORE.INTRA.REPUL>
0

>  <SCORE.INTRA.REPUL.0>
0

>  <SCORE.INTRA.SOLV>
-0.548007

>  <SCORE.INTRA.SOLV.lig_0>
-47.4815

>  <SCORE.INTRA.VDW>
1.21156

>  <SCORE.INTRA.VDW.0>
-1.57492

>  <SCORE.INTRA.norm>
-0.827444

>  <SCORE.RESTR>
0

>  <SCORE.RESTR.CAVITY>
0

>  <SCORE.RESTR.norm>
0

>  <SCORE.SYSTEM>
0

>  <SCORE.SYSTEM.CONST>
0

>  <SCORE.SYSTEM.DIHEDRAL>
0

>  <SCORE.SYSTEM.SOLV>
0

>  <SCORE.SYSTEM.norm>
0

>  <SCORE.heavy>
14

>  <SCORE.norm>
-0.800328

>  <RMSD>
30.971

$$$$
ligand
 OpenBabel11021811493D
libRbt.so/2013.1/901 2013/11/27
 14 13  0  0  0  0  0  0  0  0999 V2000
   34.6457   -0.0854   28.2049 N   0  0  0  0  0  0  0  0  0  0  0  0
   34.3652   -1.0656   27.1628 C   0  0  0  0  0  0  0  0  0  0  0  0
   35.3762   -0.9412   26.0031 C   0  0  0  0  0  0  0  0  0  0  0  0
   35.3432    0.4115   25.2645 C   0  0  0  0  0  0  0  0  0  0  0  0
   36.2631    0.6060   24.1336 N   0  0  0  0  0  0  0  0  0  0  0  0
   36.0148    1.6438   23.1267 C   0  0  0  0  0  0  0  0  0  0  0  0
   37.2545    2.1191   22.3634 C   0  0  0  0  0  0  0  0  0  0  0  0
   38.2926    2.7960   23.2744 C   0  0  0  0  0  0  0  0  0  0  0  0
   39.5460    3.2880   22.5331 C   0  0  0  0  0  0  0  0  0  0  0  0
   40.5448    3.9391   23.3839 N   0  0  0  0  0  0  0  0  0  0  0  0
   40.3509    5.3450   23.7792 C   0  0  0  0  0  0  0  0  0  0  0  0
   40.2967    5.6449   25.2960 C   0  0  0  0  0  0  0  0  0  0  0  0
   40.0386    7.1156   25.6811 C   0  0  0  0  0  0  0  0  0  0  0  0
   40.0926    7.3470   27.1216 N   0  0  0  0  0  0  0  0  0  0  0  0
  1  2  1  0  0  0  0
  2  3  1  0  0  0  0
  3  4  1  0  0  0  0
  4  5  1  0  0  0  0
  5  6  1  0  0  0  0
  6  7  1  0  0  0  0
  7  8  1  0  0  0  0
  8  9  1  0  0  0  0
  9 10  1  0  0  0  0
 10 11  1  0  0  0  0
 11 12  1  0  0  0  0
 12 13  1  0  0  0  0
 13 14  1  0  0  0  0
M  END
>  <CHROM.1>
-62.50693845,-179.18219216,160.00300458,156.54697346,-63.37087041,-179.78635262
179.83518715,-80.08016206,121.82899967,-177.73111888,-175.96354189,37.74457145
2.72589492,24.80879141,2.98716648,-0.87281300,-1.96952306

>  <Name>
ligand

>  <RI>
0

>  <Rbt.Current_Directory>
/home/itssahil/PROJECTS/Mol_Feturizer/New_Systems/rnas/4E8Q

>  <Rbt.Executable>
rbdock ($Id: //depot/dev/client3/rdock/2013.1/src/exe/rbdock.cxx#4 $)

>  <Rbt.Library>
libRbt.so (2013.1, Build901 2013/11/27)

>  <Rbt.Parameter_File>
/export/apps/rDock/src/rDock_2013.1_src/data/scripts/dock_solv.prm

>  <Rbt.Receptor>
prm/blind_docking_80.prm

>  <SCORE>
-10.84

>  <SCORE.INTER>
1.04604

>  <SCORE.INTER.CONST>
1

>  <SCORE.INTER.POLAR>
0

>  <SCORE.INTER.ROT>
11

>  <SCORE.INTER.SOLV>
10.882

>  <SCORE.INTER.VDW>
-13.8633

>  <SCORE.INTER.norm>
0.0747172

>  <SCORE.INTRA>
-11.886

>  <SCORE.INTRA.DIHEDRAL>
-23.5729

>  <SCORE.INTRA.DIHEDRAL.0>
25.9209

>  <SCORE.INTRA.POLAR>
0

>  <SCORE.INTRA.POLAR.0>
0

>  <SCORE.INTRA.REPUL>
0

>  <SCORE.INTRA.REPUL.0>
0

>  <SCORE.INTRA.SOLV>
-1.08292

>  <SCORE.INTRA.SOLV.lig_0>
-47.4815

>  <SCORE.INTRA.VDW>
0.441887

>  <SCORE.INTRA.VDW.0>
-1.57492

>  <SCORE.INTRA.norm>
-0.849002

>  <SCORE.RESTR>
0

>  <SCORE.RESTR.CAVITY>
0

>  <SCORE.RESTR.norm>
0

>  <SCORE.SYSTEM>
0

>  <SCORE.SYSTEM.CONST>
0

>  <SCORE.SYSTEM.DIHEDRAL>
0

>  <SCORE.SYSTEM.SOLV>
0

>  <SCORE.SYSTEM.norm>
0

>  <SCORE.heavy>
14

>  <SCORE.norm>
-0.774285

>  <RMSD>
30.977

$$$$
ligand
 OpenBabel11021811493D
libRbt.so/2013.1/901 2013/11/27
 14 13  0  0  0  0  0  0  0  0999 V2000
   38.9468    6.7510   28.9090 N   0  0  0  0  0  0  0  0  0  0  0  0
   40.0254    5.9702   29.5025 C   0  0  0  0  0  0  0  0  0  0  0  0
   39.6120    4.4915   29.6612 C   0  0  0  0  0  0  0  0  0  0  0  0
   40.6796    3.5929   30.3165 C   0  0  0  0  0  0  0  0  0  0  0  0
   42.0172    3.5490   29.7069 N   0  0  0  0  0  0  0  0  0  0  0  0
   42.3270    2.6012   28.6307 C   0  0  0  0  0  0  0  0  0  0  0  0
   41.5459    2.8151   27.3309 C   0  0  0  0  0  0  0  0  0  0  0  0
   41.8350    4.1778   26.6787 C   0  0  0  0  0  0  0  0  0  0  0  0
   40.8579    4.5495   25.5519 C   0  0  0  0  0  0  0  0  0  0  0  0
   40.7849    3.5772   24.4588 N   0  0  0  0  0  0  0  0  0  0  0  0
   39.8864    3.8364   23.3204 C   0  0  0  0  0  0  0  0  0  0  0  0
   39.5957    2.6483   22.3731 C   0  0  0  0  0  0  0  0  0  0  0  0
   38.8137    1.4718   22.9915 C   0  0  0  0  0  0  0  0  0  0  0  0
   38.5406    0.4022   22.0361 N   0  0  0  0  0  0  0  0  0  0  0  0
  1  2  1  0  0  0  0
  2  3  1  0  0  0  0
  3  4  1  0  0  0  0
  4  5  1  0  0  0  0
  5  6  1  0  0  0  0
  6  7  1  0  0  0  0
  7  8  1  0  0  0  0
  8  9  1  0  0  0  0
  9 10  1  0  0  0  0
 10 11  1  0  0  0  0
 11 12  1  0  0  0  0
 12 13  1  0  0  0  0
 13 14  1  0  0  0  0
M  END
>  <CHROM.1>
-178.48651756,-55.52658723,-87.58769257,64.40867946,62.43042676,-167.61694939
-57.12479865,-179.60035049,-166.02515839,65.56967047,178.38289623,40.39071378
3.60245953,26.53354623,1.27277227,-0.92054299,0.96917920

>  <Name>
ligand

>  <RI>
0

>  <Rbt.Current_Directory>
/home/itssahil/PROJECTS/Mol_Feturizer/New_Systems/rnas/4E8Q

>  <Rbt.Executable>
rbdock ($Id: //depot/dev/client3/rdock/2013.1/src/exe/rbdock.cxx#4 $)

>  <Rbt.Library>
libRbt.so (2013.1, Build901 2013/11/27)

>  <Rbt.Parameter_File>
/export/apps/rDock/src/rDock_2013.1_src/data/scripts/dock_solv.prm

>  <Rbt.Receptor>
prm/blind_docking_60.prm

>  <SCORE>
-10.1281

>  <SCORE.INTER>
2.27231

>  <SCORE.INTER.CONST>
1

>  <SCORE.INTER.POLAR>
0

>  <SCORE.INTER.ROT>
11

>  <SCORE.INTER.SOLV>
8.69748

>  <SCORE.INTER.VDW>
-12.3176

>  <SCORE.INTER.norm>
0.162308

>  <SCORE.INTRA>
-12.4005

>  <SCORE.INTRA.DIHEDRAL>
-24.3419

>  <SCORE.INTRA.DIHEDRAL.0>
25.9209

>  <SCORE.INTRA.POLAR>
0

>  <SCORE.INTRA.POLAR.0>
0

>  <SCORE.INTRA.REPUL>
0

>  <SCORE.INTRA.REPUL.0>
0

>  <SCORE.INTRA.SOLV>
-0.394724

>  <SCORE.INTRA.SOLV.lig_0>
-47.4815

>  <SCORE.INTRA.VDW>
-0.0321486

>  <SCORE.INTRA.VDW.0>
-1.57492

>  <SCORE.INTRA.norm>
-0.885747

>  <SCORE.RESTR>
0

>  <SCORE.RESTR.CAVITY>
0

>  <SCORE.RESTR.norm>
0

>  <SCORE.SYSTEM>
0

>  <SCORE.SYSTEM.CONST>
0

>  <SCORE.SYSTEM.DIHEDRAL>
0

>  <SCORE.SYSTEM.SOLV>
0

>  <SCORE.SYSTEM.norm>
0

>  <SCORE.heavy>
14

>  <SCORE.norm>
-0.723439

>  <RMSD>
31.080

$$$$
ligand
 OpenBabel11021811493D
libRbt.so/2013.1/901 2013/11/27
 14 13  0  0  0  0  0  0  0  0999 V2000
   41.4523    9.0454   31.0870 N   0  0  0  0  0  0  0  0  0  0  0  0
   40.4316    8.0838   31.4852 C   0  0  0  0  0  0  0  0  0  0  0  0
   40.2140    7.0240   30.3843 C   0  0  0  0  0  0  0  0  0  0  0  0
   41.4340    6.1221   30.1107 C   0  0  0  0  0  0  0  0  0  0  0  0
   41.3590    5.1776   28.9860 N   0  0  0  0  0  0  0  0  0  0  0  0
   42.4555    4.2430   28.7089 C   0  0  0  0  0  0  0  0  0  0  0  0
   42.2911    3.4066   27.4365 C   0  0  0  0  0  0  0  0  0  0  0  0
   41.0357    2.5184   27.4647 C   0  0  0  0  0  0  0  0  0  0  0  0
   40.8139    1.7113   26.1756 C   0  0  0  0  0  0  0  0  0  0  0  0
   40.4825    2.5168   24.9979 N   0  0  0  0  0  0  0  0  0  0  0  0
   39.7597    1.8927   23.8761 C   0  0  0  0  0  0  0  0  0  0  0  0
   40.5724    0.9503   22.9570 C   0  0  0  0  0  0  0  0  0  0  0  0
   41.7490    1.5998   22.2008 C   0  0  0  0  0  0  0  0  0  0  0  0
   41.3288    2.6700   21.3011 N   0  0  0  0  0  0  0  0  0  0  0  0
  1  2  1  0  0  0  0
  2  3  1  0  0  0  0
  3  4  1  0  0  0  0
  4  5  1  0  0  0  0
  5  6  1  0  0  0  0
  6  7  1  0  0  0  0
  7  8  1  0  0  0  0
  8  9  1  0  0  0  0
  9 10  1  0  0  0  0
 10 11  1  0  0  0  0
 11 12  1  0  0  0  0
 12 13  1  0  0  0  0
 13 14  1  0  0  0  0
M  END
>  <CHROM.1>
64.52211698,-173.91741537,-176.93688532,-174.89224842,-60.54628985,177.58736723
-67.53945446,-156.64940947,-75.23105495,-62.01880021,-60.96477359,41.09851173
4.06837879,26.94098476,1.45051259,-1.44431769,0.81810352

>  <Name>
ligand

>  <RI>
0

>  <Rbt.Current_Directory>
/home/itssahil/PROJECTS/Mol_Feturizer/New_Systems/rnas/4E8Q

>  <Rbt.Executable>
rbdock ($Id: //depot/dev/client3/rdock/2013.1/src/exe/rbdock.cxx#4 $)

>  <Rbt.Library>
libRbt.so (2013.1, Build901 2013/11/27)

>  <Rbt.Parameter_File>
/export/apps/rDock/src/rDock_2013.1_src/data/scripts/dock_solv.prm

>  <Rbt.Receptor>
prm/blind_docking_60.prm

>  <SCORE>
-10.749

>  <SCORE.INTER>
0.84733

>  <SCORE.INTER.CONST>
1

>  <SCORE.INTER.POLAR>
0

>  <SCORE.INTER.ROT>
11

>  <SCORE.INTER.SOLV>
2.79359

>  <SCORE.INTER.VDW>
-11.2996

>  <SCORE.INTER.norm>
0.0605236

>  <SCORE.INTRA>
-11.5964

>  <SCORE.INTRA.DIHEDRAL>
-24.8432

>  <SCORE.INTRA.DIHEDRAL.0>
25.9209

>  <SCORE.INTRA.POLAR>
0

>  <SCORE.INTRA.POLAR.0>
0

>  <SCORE.INTRA.REPUL>
0

>  <SCORE.INTRA.REPUL.0>
0

>  <SCORE.INTRA.SOLV>
0.834552

>  <SCORE.INTRA.SOLV.lig_0>
-47.4815

>  <SCORE.INTRA.VDW>
0.40793

>  <SCORE.INTRA.VDW.0>
-1.57492

>  <SCORE.INTRA.norm>
-0.828312

>  <SCORE.RESTR>
0

>  <SCORE.RESTR.CAVITY>
0

>  <SCORE.RESTR.norm>
0

>  <SCORE.SYSTEM>
0

>  <SCORE.SYSTEM.CONST>
0

>  <SCORE.SYSTEM.DIHEDRAL>
0

>  <SCORE.SYSTEM.SOLV>
0

>  <SCORE.SYSTEM.norm>
0

>  <SCORE.heavy>
14

>  <SCORE.norm>
-0.767789

>  <RMSD>
31.268

$$$$
ligand
 OpenBabel11021811493D
libRbt.so/2013.1/901 2013/11/27
 14 13  0  0  0  0  0  0  0  0999 V2000
   39.9524    6.9386   26.7799 N   0  0  0  0  0  0  0  0  0  0  0  0
   39.4016    7.8582   27.7678 C   0  0  0  0  0  0  0  0  0  0  0  0
   39.7836    7.4231   29.1987 C   0  0  0  0  0  0  0  0  0  0  0  0
   39.1138    6.1183   29.6737 C   0  0  0  0  0  0  0  0  0  0  0  0
   39.5200    4.8581   29.0335 N   0  0  0  0  0  0  0  0  0  0  0  0
   38.7726    3.6171   29.2651 C   0  0  0  0  0  0  0  0  0  0  0  0
   39.2772    2.3991   28.4857 C   0  0  0  0  0  0  0  0  0  0  0  0
   39.2656    2.6184   26.9634 C   0  0  0  0  0  0  0  0  0  0  0  0
   39.7635    1.4093   26.1555 C   0  0  0  0  0  0  0  0  0  0  0  0
   39.7755    1.6054   24.7040 N   0  0  0  0  0  0  0  0  0  0  0  0
   38.4982    1.6580   23.9717 C   0  0  0  0  0  0  0  0  0  0  0  0
   38.4481    0.9462   22.5990 C   0  0  0  0  0  0  0  0  0  0  0  0
   37.0873    0.9796   21.8743 C   0  0  0  0  0  0  0  0  0  0  0  0
   36.0247    0.3152   22.6233 N   0  0  0  0  0  0  0  0  0  0  0  0
  1  2  1  0  0  0  0
  2  3  1  0  0  0  0
  3  4  1  0  0  0  0
  4  5  1  0  0  0  0
  5  6  1  0  0  0  0
  6  7  1  0  0  0  0
  7  8  1  0  0  0  0
  8  9  1  0  0  0  0
  9 10  1  0  0  0  0
 10 11  1  0  0  0  0
 11 12  1  0  0  0  0
 12 13  1  0  0  0  0
 13 14  1  0  0  0  0
M  END
>  <CHROM.1>
-68.62079187,68.81288889,-169.43921483,177.52637684,-58.37370410,-179.82523760
-179.27502673,-71.38200083,-140.01854133,178.18039122,-61.69972333,38.90603865
3.48177328,26.36420483,0.52866963,-1.31748072,-0.21334713

>  <Name>
ligand

>  <RI>
0

>  <Rbt.Current_Directory>
/home/itssahil/PROJECTS/Mol_Feturizer/New_Systems/rnas/4E8Q

>  <Rbt.Executable>
rbdock ($Id: //depot/dev/client3/rdock/2013.1/src/exe/rbdock.cxx#4 $)

>  <Rbt.Library>
libRbt.so (2013.1, Build901 2013/11/27)

>  <Rbt.Parameter_File>
/export/apps/rDock/src/rDock_2013.1_src/data/scripts/dock_solv.prm

>  <Rbt.Receptor>
prm/blind_docking_60.prm

>  <SCORE>
-11.4266

>  <SCORE.INTER>
-0.508256

>  <SCORE.INTER.CONST>
1

>  <SCORE.INTER.POLAR>
0

>  <SCORE.INTER.ROT>
11

>  <SCORE.INTER.SOLV>
8.11881

>  <SCORE.INTER.VDW>
-13.9784

>  <SCORE.INTER.norm>
-0.036304

>  <SCORE.INTRA>
-10.9184

>  <SCORE.INTRA.DIHEDRAL>
-24.2229

>  <SCORE.INTRA.DIHEDRAL.0>
25.9209

>  <SCORE.INTRA.POLAR>
0

>  <SCORE.INTRA.POLAR.0>
0

>  <SCORE.INTRA.REPUL>
0

>  <SCORE.INTRA.REPUL.0>
0

>  <SCORE.INTRA.SOLV>
1.63411

>  <SCORE.INTRA.SOLV.lig_0>
-47.4815

>  <SCORE.INTRA.VDW>
0.376009

>  <SCORE.INTRA.VDW.0>
-1.57492

>  <SCORE.INTRA.norm>
-0.779884

>  <SCORE.RESTR>
0

>  <SCORE.RESTR.CAVITY>
0

>  <SCORE.RESTR.norm>
0

>  <SCORE.SYSTEM>
0

>  <SCORE.SYSTEM.CONST>
0

>  <SCORE.SYSTEM.DIHEDRAL>
0

>  <SCORE.SYSTEM.SOLV>
0

>  <SCORE.SYSTEM.norm>
0

>  <SCORE.heavy>
14

>  <SCORE.norm>
-0.816188

>  <RMSD>
31.620

$$$$
ligand
 OpenBabel11021811493D
libRbt.so/2013.1/901 2013/11/27
 14 13  0  0  0  0  0  0  0  0999 V2000
   42.9017    4.3767   35.0842 N   0  0  0  0  0  0  0  0  0  0  0  0
   42.9311    4.6162   33.6465 C   0  0  0  0  0  0  0  0  0  0  0  0
   41.5261    4.9778   33.1196 C   0  0  0  0  0  0  0  0  0  0  0  0
   41.4418    5.1653   31.5917 C   0  0  0  0  0  0  0  0  0  0  0  0
   41.7263    4.0047   30.7345 N   0  0  0  0  0  0  0  0  0  0  0  0
   41.7518    4.1321   29.2731 C   0  0  0  0  0  0  0  0  0  0  0  0
   41.5424    2.8252   28.5026 C   0  0  0  0  0  0  0  0  0  0  0  0
   41.3910    3.0437   26.9876 C   0  0  0  0  0  0  0  0  0  0  0  0
   40.9673    1.7840   26.2154 C   0  0  0  0  0  0  0  0  0  0  0  0
   40.9107    1.9474   24.7609 N   0  0  0  0  0  0  0  0  0  0  0  0
   40.6090    0.7800   23.9142 C   0  0  0  0  0  0  0  0  0  0  0  0
   40.2582    1.0606   22.4337 C   0  0  0  0  0  0  0  0  0  0  0  0
   39.8942   -0.1737   21.5841 C   0  0  0  0  0  0  0  0  0  0  0  0
   39.5452    0.1632   20.2071 N   0  0  0  0  0  0  0  0  0  0  0  0
  1  2  1  0  0  0  0
  2  3  1  0  0  0  0
  3  4  1  0  0  0  0
  4  5  1  0  0  0  0
  5  6  1  0  0  0  0
  6  7  1  0  0  0  0
  7  8  1  0  0  0  0
  8  9  1  0  0  0  0
  9 10  1  0  0  0  0
 10 11  1  0  0  0  0
 11 12  1  0  0  0  0
 12 13  1  0  0  0  0
 13 14  1  0  0  0  0
M  END
>  <CHROM.1>
-176.46384445,63.46789200,-175.91758701,-158.40304510,172.32362945,-171.15116209
-175.84090734,175.70332695,167.01525880,-177.73825013,178.70523163,41.24261754
2.76456635,27.71823772,-1.08664817,1.17648033,-2.37854758

>  <Name>
ligand

>  <RI>
0

>  <Rbt.Current_Directory>
/home/itssahil/PROJECTS/Mol_Feturizer/New_Systems/rnas/4E8Q

>  <Rbt.Executable>
rbdock ($Id: //depot/dev/client3/rdock/2013.1/src/exe/rbdock.cxx#4 $)

>  <Rbt.Library>
libRbt.so (2013.1, Build901 2013/11/27)

>  <Rbt.Parameter_File>
/export/apps/rDock/src/rDock_2013.1_src/data/scripts/dock_solv.prm

>  <Rbt.Receptor>
prm/blind_docking_100.prm

>  <SCORE>
-11.8213

>  <SCORE.INTER>
1.12419

>  <SCORE.INTER.CONST>
1

>  <SCORE.INTER.POLAR>
0

>  <SCORE.INTER.ROT>
11

>  <SCORE.INTER.SOLV>
5.24473

>  <SCORE.INTER.VDW>
-11.9321

>  <SCORE.INTER.norm>
0.0802995

>  <SCORE.INTRA>
-12.9455

>  <SCORE.INTRA.DIHEDRAL>
-24.6883

>  <SCORE.INTRA.DIHEDRAL.0>
25.9209

>  <SCORE.INTRA.POLAR>
0

>  <SCORE.INTRA.POLAR.0>
0

>  <SCORE.INTRA.REPUL>
0

>  <SCORE.INTRA.REPUL.0>
0

>  <SCORE.INTRA.SOLV>
-1.82892

>  <SCORE.INTRA.SOLV.lig_0>
-47.4815

>  <SCORE.INTRA.VDW>
0.313155

>  <SCORE.INTRA.VDW.0>
-1.57492

>  <SCORE.INTRA.norm>
-0.924675

>  <SCORE.RESTR>
0

>  <SCORE.RESTR.CAVITY>
0

>  <SCORE.RESTR.norm>
0

>  <SCORE.SYSTEM>
0

>  <SCORE.SYSTEM.CONST>
0

>  <SCORE.SYSTEM.DIHEDRAL>
0

>  <SCORE.SYSTEM.SOLV>
0

>  <SCORE.SYSTEM.norm>
0

>  <SCORE.heavy>
14

>  <SCORE.norm>
-0.844376

>  <RMSD>
31.760

$$$$
ligand
 OpenBabel11021811493D
libRbt.so/2013.1/901 2013/11/27
 14 13  0  0  0  0  0  0  0  0999 V2000
   39.9271    7.3770   29.5025 N   0  0  0  0  0  0  0  0  0  0  0  0
   39.0980    6.1816   29.4084 C   0  0  0  0  0  0  0  0  0  0  0  0
   39.8092    4.9668   30.0417 C   0  0  0  0  0  0  0  0  0  0  0  0
   39.0310    3.6401   29.9364 C   0  0  0  0  0  0  0  0  0  0  0  0
   38.7645    3.0978   28.5956 N   0  0  0  0  0  0  0  0  0  0  0  0
   38.2497    1.7352   28.4196 C   0  0  0  0  0  0  0  0  0  0  0  0
   38.2306    1.2289   26.9743 C   0  0  0  0  0  0  0  0  0  0  0  0
   39.6391    1.0931   26.3713 C   0  0  0  0  0  0  0  0  0  0  0  0
   40.3510    2.4358   26.1414 C   0  0  0  0  0  0  0  0  0  0  0  0
   39.6915    3.3220   25.1795 N   0  0  0  0  0  0  0  0  0  0  0  0
   39.7937    3.0287   23.7394 C   0  0  0  0  0  0  0  0  0  0  0  0
   38.4669    2.8205   22.9713 C   0  0  0  0  0  0  0  0  0  0  0  0
   37.5814    1.6577   23.4631 C   0  0  0  0  0  0  0  0  0  0  0  0
   36.3690    1.4869   22.6679 N   0  0  0  0  0  0  0  0  0  0  0  0
  1  2  1  0  0  0  0
  2  3  1  0  0  0  0
  3  4  1  0  0  0  0
  4  5  1  0  0  0  0
  5  6  1  0  0  0  0
  6  7  1  0  0  0  0
  7  8  1  0  0  0  0
  8  9  1  0  0  0  0
  9 10  1  0  0  0  0
 10 11  1  0  0  0  0
 11 12  1  0  0  0  0
 12 13  1  0  0  0  0
 13 14  1  0  0  0  0
M  END
>  <CHROM.1>
-177.56015606,63.04242222,168.87738587,-170.70967875,64.68101459,-68.36385504
-62.92222703,-75.32405480,121.73686924,-60.22110381,-177.99814740,38.92887369
3.14772302,26.67238445,-0.81995794,-1.28636666,-1.34749765

>  <Name>
ligand

>  <RI>
0

>  <Rbt.Current_Directory>
/home/itssahil/PROJECTS/Mol_Feturizer/New_Systems/rnas/4E8Q

>  <Rbt.Executable>
rbdock ($Id: //depot/dev/client3/rdock/2013.1/src/exe/rbdock.cxx#4 $)

>  <Rbt.Library>
libRbt.so (2013.1, Build901 2013/11/27)

>  <Rbt.Parameter_File>
/export/apps/rDock/src/rDock_2013.1_src/data/scripts/dock_solv.prm

>  <Rbt.Receptor>
prm/blind_docking_60.prm

>  <SCORE>
-11.164

>  <SCORE.INTER>
0.508594

>  <SCORE.INTER.CONST>
1

>  <SCORE.INTER.POLAR>
0

>  <SCORE.INTER.ROT>
11

>  <SCORE.INTER.SOLV>
9.43245

>  <SCORE.INTER.VDW>
-13.7384

>  <SCORE.INTER.norm>
0.0363282

>  <SCORE.INTRA>
-11.6726

>  <SCORE.INTRA.DIHEDRAL>
-23.8956

>  <SCORE.INTRA.DIHEDRAL.0>
25.9209

>  <SCORE.INTRA.POLAR>
0

>  <SCORE.INTRA.POLAR.0>
0

>  <SCORE.INTRA.REPUL>
0

>  <SCORE.INTRA.REPUL.0>
0

>  <SCORE.INTRA.SOLV>
0.41762

>  <SCORE.INTRA.SOLV.lig_0>
-47.4815

>  <SCORE.INTRA.VDW>
0.066386

>  <SCORE.INTRA.VDW.0>
-1.57492

>  <SCORE.INTRA.norm>
-0.833758

>  <SCORE.RESTR>
0

>  <SCORE.RESTR.CAVITY>
0

>  <SCORE.RESTR.norm>
0

>  <SCORE.SYSTEM>
0

>  <SCORE.SYSTEM.CONST>
0

>  <SCORE.SYSTEM.DIHEDRAL>
0

>  <SCORE.SYSTEM.SOLV>
0

>  <SCORE.SYSTEM.norm>
0

>  <SCORE.heavy>
14

>  <SCORE.norm>
-0.79743

>  <RMSD>
31.829

$$$$
ligand
 OpenBabel11021811493D
libRbt.so/2013.1/901 2013/11/27
 14 13  0  0  0  0  0  0  0  0999 V2000
   40.5110    4.6466   23.5125 N   0  0  0  0  0  0  0  0  0  0  0  0
   39.5621    4.0714   24.4580 C   0  0  0  0  0  0  0  0  0  0  0  0
   39.1026    2.6725   23.9950 C   0  0  0  0  0  0  0  0  0  0  0  0
   38.4418    2.6417   22.6025 C   0  0  0  0  0  0  0  0  0  0  0  0
   37.8410    1.3785   22.1485 N   0  0  0  0  0  0  0  0  0  0  0  0
   36.6250    0.8505   22.7771 C   0  0  0  0  0  0  0  0  0  0  0  0
   36.3278   -0.6227   22.4826 C   0  0  0  0  0  0  0  0  0  0  0  0
   35.1294   -1.1609   23.2826 C   0  0  0  0  0  0  0  0  0  0  0  0
   35.3528   -1.1797   24.8032 C   0  0  0  0  0  0  0  0  0  0  0  0
   34.1512   -1.4516   25.5956 N   0  0  0  0  0  0  0  0  0  0  0  0
   34.1774   -1.2193   27.0502 C   0  0  0  0  0  0  0  0  0  0  0  0
   34.3764    0.2403   27.5229 C   0  0  0  0  0  0  0  0  0  0  0  0
   34.4658    0.4460   29.0486 C   0  0  0  0  0  0  0  0  0  0  0  0
   34.7483    1.8285   29.4231 N   0  0  0  0  0  0  0  0  0  0  0  0
  1  2  1  0  0  0  0
  2  3  1  0  0  0  0
  3  4  1  0  0  0  0
  4  5  1  0  0  0  0
  5  6  1  0  0  0  0
  6  7  1  0  0  0  0
  7  8  1  0  0  0  0
  8  9  1  0  0  0  0
  9 10  1  0  0  0  0
 10 11  1  0  0  0  0
 11 12  1  0  0  0  0
 12 13  1  0  0  0  0
 13 14  1  0  0  0  0
M  END
>  <CHROM.1>
-58.19193709,-173.31343066,69.29088881,-164.07561506,173.92789925,-64.40661371
169.28950680,-167.32407249,64.27865105,-177.25556750,175.88717681,36.48648438
0.93843168,24.90719803,-0.31728103,0.79956266,1.11146538

>  <Name>
ligand

>  <RI>
0

>  <Rbt.Current_Directory>
/home/itssahil/PROJECTS/Mol_Feturizer/New_Systems/rnas/4E8Q

>  <Rbt.Executable>
rbdock ($Id: //depot/dev/client3/rdock/2013.1/src/exe/rbdock.cxx#4 $)

>  <Rbt.Library>
libRbt.so (2013.1, Build901 2013/11/27)

>  <Rbt.Parameter_File>
/export/apps/rDock/src/rDock_2013.1_src/data/scripts/dock_solv.prm

>  <Rbt.Receptor>
prm/blind_docking_80.prm

>  <SCORE>
-12.1467

>  <SCORE.INTER>
-0.434746

>  <SCORE.INTER.CONST>
1

>  <SCORE.INTER.POLAR>
0

>  <SCORE.INTER.ROT>
11

>  <SCORE.INTER.SOLV>
12.8046

>  <SCORE.INTER.VDW>
-15.4913

>  <SCORE.INTER.norm>
-0.0310533

>  <SCORE.INTRA>
-11.7119

>  <SCORE.INTRA.DIHEDRAL>
-24.598

>  <SCORE.INTRA.DIHEDRAL.0>
25.9209

>  <SCORE.INTRA.POLAR>
0

>  <SCORE.INTRA.POLAR.0>
0

>  <SCORE.INTRA.REPUL>
0

>  <SCORE.INTRA.REPUL.0>
0

>  <SCORE.INTRA.SOLV>
-1.17371

>  <SCORE.INTRA.SOLV.lig_0>
-47.4815

>  <SCORE.INTRA.VDW>
1.17396

>  <SCORE.INTRA.VDW.0>
-1.57492

>  <SCORE.INTRA.norm>
-0.836565

>  <SCORE.RESTR>
0

>  <SCORE.RESTR.CAVITY>
0

>  <SCORE.RESTR.norm>
0

>  <SCORE.SYSTEM>
0

>  <SCORE.SYSTEM.CONST>
0

>  <SCORE.SYSTEM.DIHEDRAL>
0

>  <SCORE.SYSTEM.SOLV>
0

>  <SCORE.SYSTEM.norm>
0

>  <SCORE.heavy>
14

>  <SCORE.norm>
-0.867618

>  <RMSD>
31.849

$$$$
ligand
 OpenBabel11021811493D
libRbt.so/2013.1/901 2013/11/27
 14 13  0  0  0  0  0  0  0  0999 V2000
   37.9720    1.6737   29.1059 N   0  0  0  0  0  0  0  0  0  0  0  0
   36.9984    0.6830   28.6634 C   0  0  0  0  0  0  0  0  0  0  0  0
   35.6087    0.9662   29.2725 C   0  0  0  0  0  0  0  0  0  0  0  0
   34.5605   -0.1361   29.0213 C   0  0  0  0  0  0  0  0  0  0  0  0
   34.0823   -0.3367   27.6452 N   0  0  0  0  0  0  0  0  0  0  0  0
   34.9658   -0.8841   26.6097 C   0  0  0  0  0  0  0  0  0  0  0  0
   34.2506   -1.5131   25.4105 C   0  0  0  0  0  0  0  0  0  0  0  0
   35.2213   -1.9598   24.3041 C   0  0  0  0  0  0  0  0  0  0  0  0
   35.7995   -0.8006   23.4768 C   0  0  0  0  0  0  0  0  0  0  0  0
   36.7946   -1.1977   22.4780 N   0  0  0  0  0  0  0  0  0  0  0  0
   37.3439   -0.1826   21.5624 C   0  0  0  0  0  0  0  0  0  0  0  0
   38.6680   -0.5319   20.8426 C   0  0  0  0  0  0  0  0  0  0  0  0
   39.8908   -0.7532   21.7557 C   0  0  0  0  0  0  0  0  0  0  0  0
   40.2490    0.4326   22.5283 N   0  0  0  0  0  0  0  0  0  0  0  0
  1  2  1  0  0  0  0
  2  3  1  0  0  0  0
  3  4  1  0  0  0  0
  4  5  1  0  0  0  0
  5  6  1  0  0  0  0
  6  7  1  0  0  0  0
  7  8  1  0  0  0  0
  8  9  1  0  0  0  0
  9 10  1  0  0  0  0
 10 11  1  0  0  0  0
 11 12  1  0  0  0  0
 12 13  1  0  0  0  0
 13 14  1  0  0  0  0
M  END
>  <CHROM.1>
-171.89394401,-68.20360232,69.02963381,158.48700399,175.04764805,-74.77523151
176.06276407,175.61915115,161.73914613,-62.67330700,-61.90676618,36.60011350
-0.32449934,25.19107411,-2.02743689,-0.40871121,-1.88455962

>  <Name>
ligand

>  <RI>
0

>  <Rbt.Current_Directory>
/home/itssahil/PROJECTS/Mol_Feturizer/New_Systems/rnas/4E8Q

>  <Rbt.Executable>
rbdock ($Id: //depot/dev/client3/rdock/2013.1/src/exe/rbdock.cxx#4 $)

>  <Rbt.Library>
libRbt.so (2013.1, Build901 2013/11/27)

>  <Rbt.Parameter_File>
/export/apps/rDock/src/rDock_2013.1_src/data/scripts/dock_solv.prm

>  <Rbt.Receptor>
prm/blind_docking_60.prm

>  <SCORE>
-13.4792

>  <SCORE.INTER>
-2.22275

>  <SCORE.INTER.CONST>
1

>  <SCORE.INTER.POLAR>
0

>  <SCORE.INTER.ROT>
11

>  <SCORE.INTER.SOLV>
13.0184

>  <SCORE.INTER.VDW>
-16.7546

>  <SCORE.INTER.norm>
-0.158768

>  <SCORE.INTRA>
-11.2565

>  <SCORE.INTRA.DIHEDRAL>
-23.6853

>  <SCORE.INTRA.DIHEDRAL.0>
25.9209

>  <SCORE.INTRA.POLAR>
0

>  <SCORE.INTRA.POLAR.0>
0

>  <SCORE.INTRA.REPUL>
0

>  <SCORE.INTRA.REPUL.0>
0

>  <SCORE.INTRA.SOLV>
-0.112792

>  <SCORE.INTRA.SOLV.lig_0>
-47.4815

>  <SCORE.INTRA.VDW>
0.642576

>  <SCORE.INTRA.VDW.0>
-1.57492

>  <SCORE.INTRA.norm>
-0.804034

>  <SCORE.RESTR>
0

>  <SCORE.RESTR.CAVITY>
0

>  <SCORE.RESTR.norm>
0

>  <SCORE.SYSTEM>
0

>  <SCORE.SYSTEM.CONST>
0

>  <SCORE.SYSTEM.DIHEDRAL>
0

>  <SCORE.SYSTEM.SOLV>
0

>  <SCORE.SYSTEM.norm>
0

>  <SCORE.heavy>
14

>  <SCORE.norm>
-0.962802

>  <RMSD>
31.865

$$$$
ligand
 OpenBabel11021811493D
libRbt.so/2013.1/901 2013/11/27
 14 13  0  0  0  0  0  0  0  0999 V2000
   34.8284    0.3629   30.5469 N   0  0  0  0  0  0  0  0  0  0  0  0
   34.1942    0.1654   29.2492 C   0  0  0  0  0  0  0  0  0  0  0  0
   35.0439   -0.7641   28.3567 C   0  0  0  0  0  0  0  0  0  0  0  0
   34.4274   -1.0697   26.9772 C   0  0  0  0  0  0  0  0  0  0  0  0
   35.1883   -1.9228   26.0519 N   0  0  0  0  0  0  0  0  0  0  0  0
   34.9094   -1.9129   24.6115 C   0  0  0  0  0  0  0  0  0  0  0  0
   35.2299   -0.5973   23.8961 C   0  0  0  0  0  0  0  0  0  0  0  0
   34.8430   -0.6183   22.4075 C   0  0  0  0  0  0  0  0  0  0  0  0
   35.0784    0.7169   21.6833 C   0  0  0  0  0  0  0  0  0  0  0  0
   34.3401    1.8535   22.2388 N   0  0  0  0  0  0  0  0  0  0  0  0
   34.5240    3.1915   21.6501 C   0  0  0  0  0  0  0  0  0  0  0  0
   33.4641    3.6567   20.6236 C   0  0  0  0  0  0  0  0  0  0  0  0
   33.3062    2.7694   19.3722 C   0  0  0  0  0  0  0  0  0  0  0  0
   32.2791    3.2535   18.4545 N   0  0  0  0  0  0  0  0  0  0  0  0
  1  2  1  0  0  0  0
  2  3  1  0  0  0  0
  3  4  1  0  0  0  0
  4  5  1  0  0  0  0
  5  6  1  0  0  0  0
  6  7  1  0  0  0  0
  7  8  1  0  0  0  0
  8  9  1  0  0  0  0
  9 10  1  0  0  0  0
 10 11  1  0  0  0  0
 11 12  1  0  0  0  0
 12 13  1  0  0  0  0
 13 14  1  0  0  0  0
M  END
>  <CHROM.1>
178.04874948,178.58198324,-160.02247056,66.04874892,-176.70793123,176.65080149
-59.57712604,178.02756260,97.77060262,-59.43071074,179.21816511,34.40414182
0.64881054,24.00841126,1.10987860,-1.25428001,1.51374253

>  <Name>
ligand

>  <RI>
0

>  <Rbt.Current_Directory>
/home/itssahil/PROJECTS/Mol_Feturizer/New_Systems/rnas/4E8Q

>  <Rbt.Executable>
rbdock ($Id: //depot/dev/client3/rdock/2013.1/src/exe/rbdock.cxx#4 $)

>  <Rbt.Library>
libRbt.so (2013.1, Build901 2013/11/27)

>  <Rbt.Parameter_File>
/export/apps/rDock/src/rDock_2013.1_src/data/scripts/dock_solv.prm

>  <Rbt.Receptor>
prm/blind_docking_100.prm

>  <SCORE>
-14.6175

>  <SCORE.INTER>
-2.06253

>  <SCORE.INTER.CONST>
1

>  <SCORE.INTER.POLAR>
0

>  <SCORE.INTER.ROT>
11

>  <SCORE.INTER.SOLV>
16.0927

>  <SCORE.INTER.VDW>
-17.6726

>  <SCORE.INTER.norm>
-0.147323

>  <SCORE.INTRA>
-12.5549

>  <SCORE.INTRA.DIHEDRAL>
-24.637

>  <SCORE.INTRA.DIHEDRAL.0>
25.9209

>  <SCORE.INTRA.POLAR>
0

>  <SCORE.INTRA.POLAR.0>
0

>  <SCORE.INTRA.REPUL>
0

>  <SCORE.INTRA.REPUL.0>
0

>  <SCORE.INTRA.SOLV>
-1.4355

>  <SCORE.INTRA.SOLV.lig_0>
-47.4815

>  <SCORE.INTRA.VDW>
0.4813

>  <SCORE.INTRA.VDW.0>
-1.57492

>  <SCORE.INTRA.norm>
-0.896782

>  <SCORE.RESTR>
0

>  <SCORE.RESTR.CAVITY>
0

>  <SCORE.RESTR.norm>
0

>  <SCORE.SYSTEM>
0

>  <SCORE.SYSTEM.CONST>
0

>  <SCORE.SYSTEM.DIHEDRAL>
0

>  <SCORE.SYSTEM.SOLV>
0

>  <SCORE.SYSTEM.norm>
0

>  <SCORE.heavy>
14

>  <SCORE.norm>
-1.04411

>  <RMSD>
32.027

$$$$
ligand
 OpenBabel11021811493D
libRbt.so/2013.1/901 2013/11/27
 14 13  0  0  0  0  0  0  0  0999 V2000
   40.8863    4.2337   22.7513 N   0  0  0  0  0  0  0  0  0  0  0  0
   40.9073    5.4765   23.5131 C   0  0  0  0  0  0  0  0  0  0  0  0
   39.6778    5.5745   24.4411 C   0  0  0  0  0  0  0  0  0  0  0  0
   39.5944    6.8770   25.2615 C   0  0  0  0  0  0  0  0  0  0  0  0
   40.6965    7.1859   26.1850 N   0  0  0  0  0  0  0  0  0  0  0  0
   40.9344    6.3673   27.3790 C   0  0  0  0  0  0  0  0  0  0  0  0
   42.0386    5.3156   27.2370 C   0  0  0  0  0  0  0  0  0  0  0  0
   42.2816    4.5269   28.5350 C   0  0  0  0  0  0  0  0  0  0  0  0
   41.1366    3.5715   28.9076 C   0  0  0  0  0  0  0  0  0  0  0  0
   41.1832    3.0659   30.2815 N   0  0  0  0  0  0  0  0  0  0  0  0
   40.1534    2.1158   30.7369 C   0  0  0  0  0  0  0  0  0  0  0  0
   38.6818    2.5864   30.6565 C   0  0  0  0  0  0  0  0  0  0  0  0
   38.0715    2.6446   29.2415 C   0  0  0  0  0  0  0  0  0  0  0  0
   37.8887    1.3253   28.6434 N   0  0  0  0  0  0  0  0  0  0  0  0
  1  2  1  0  0  0  0
  2  3  1  0  0  0  0
  3  4  1  0  0  0  0
  4  5  1  0  0  0  0
  5  6  1  0  0  0  0
  6  7  1  0  0  0  0
  7  8  1  0  0  0  0
  8  9  1  0  0  0  0
  9 10  1  0  0  0  0
 10 11  1  0  0  0  0
 11 12  1  0  0  0  0
 12 13  1  0  0  0  0
 13 14  1  0  0  0  0
M  END
>  <CHROM.1>
-178.44051269,-59.88599429,-67.44641812,98.82226764,177.71080860,69.86967611
-165.52716237,-178.48588444,-58.51698994,73.46220499,68.39964530,40.29520178
4.34780516,27.41234442,1.34304128,-0.73897000,-1.17749963

>  <Name>
ligand

>  <RI>
0

>  <Rbt.Current_Directory>
/home/itssahil/PROJECTS/Mol_Feturizer/New_Systems/rnas/4E8Q

>  <Rbt.Executable>
rbdock ($Id: //depot/dev/client3/rdock/2013.1/src/exe/rbdock.cxx#4 $)

>  <Rbt.Library>
libRbt.so (2013.1, Build901 2013/11/27)

>  <Rbt.Parameter_File>
/export/apps/rDock/src/rDock_2013.1_src/data/scripts/dock_solv.prm

>  <Rbt.Receptor>
prm/blind_docking_60.prm

>  <SCORE>
-9.20074

>  <SCORE.INTER>
1.35458

>  <SCORE.INTER.CONST>
1

>  <SCORE.INTER.POLAR>
0

>  <SCORE.INTER.ROT>
11

>  <SCORE.INTER.SOLV>
7.84456

>  <SCORE.INTER.VDW>
-12.6451

>  <SCORE.INTER.norm>
0.0967557

>  <SCORE.INTRA>
-10.5553

>  <SCORE.INTRA.DIHEDRAL>
-22.9005

>  <SCORE.INTRA.DIHEDRAL.0>
25.9209

>  <SCORE.INTRA.POLAR>
0

>  <SCORE.INTRA.POLAR.0>
0

>  <SCORE.INTRA.REPUL>
0

>  <SCORE.INTRA.REPUL.0>
0

>  <SCORE.INTRA.SOLV>
0.153447

>  <SCORE.INTRA.SOLV.lig_0>
-47.4815

>  <SCORE.INTRA.VDW>
0.818199

>  <SCORE.INTRA.VDW.0>
-1.57492

>  <SCORE.INTRA.norm>
-0.753951

>  <SCORE.RESTR>
0

>  <SCORE.RESTR.CAVITY>
0

>  <SCORE.RESTR.norm>
0

>  <SCORE.SYSTEM>
0

>  <SCORE.SYSTEM.CONST>
0

>  <SCORE.SYSTEM.DIHEDRAL>
0

>  <SCORE.SYSTEM.SOLV>
0

>  <SCORE.SYSTEM.norm>
0

>  <SCORE.heavy>
14

>  <SCORE.norm>
-0.657196

>  <RMSD>
32.048

$$$$
ligand
 OpenBabel11021811493D
libRbt.so/2013.1/901 2013/11/27
 14 13  0  0  0  0  0  0  0  0999 V2000
   36.5183    0.6397   24.6762 N   0  0  0  0  0  0  0  0  0  0  0  0
   36.7535    0.8329   23.2506 C   0  0  0  0  0  0  0  0  0  0  0  0
   37.6261    2.0814   23.0005 C   0  0  0  0  0  0  0  0  0  0  0  0
   39.0723    1.9693   23.5226 C   0  0  0  0  0  0  0  0  0  0  0  0
   39.2805    1.9016   24.9769 N   0  0  0  0  0  0  0  0  0  0  0  0
   40.6249    2.0099   25.5542 C   0  0  0  0  0  0  0  0  0  0  0  0
   40.6739    2.5221   26.9966 C   0  0  0  0  0  0  0  0  0  0  0  0
   42.1095    2.6683   27.5292 C   0  0  0  0  0  0  0  0  0  0  0  0
   42.1922    3.2667   28.9426 C   0  0  0  0  0  0  0  0  0  0  0  0
   41.5992    2.4376   29.9944 N   0  0  0  0  0  0  0  0  0  0  0  0
   41.3957    3.0100   31.3366 C   0  0  0  0  0  0  0  0  0  0  0  0
   41.4979    2.0375   32.5355 C   0  0  0  0  0  0  0  0  0  0  0  0
   42.8912    1.4267   32.7880 C   0  0  0  0  0  0  0  0  0  0  0  0
   42.9283    0.5518   33.9563 N   0  0  0  0  0  0  0  0  0  0  0  0
  1  2  1  0  0  0  0
  2  3  1  0  0  0  0
  3  4  1  0  0  0  0
  4  5  1  0  0  0  0
  5  6  1  0  0  0  0
  6  7  1  0  0  0  0
  7  8  1  0  0  0  0
  8  9  1  0  0  0  0
  9 10  1  0  0  0  0
 10 11  1  0  0  0  0
 11 12  1  0  0  0  0
 12 13  1  0  0  0  0
 13 14  1  0  0  0  0
M  END
>  <CHROM.1>
66.53378240,-66.97291414,-170.13973143,154.73505049,-177.70031580,176.25385478
64.86672291,-168.75973342,-148.63813421,65.98370602,178.22894198,40.36894429
1.95421201,27.78976637,2.13965420,-0.54031718,-1.28937687

>  <Name>
ligand

>  <RI>
0

>  <Rbt.Current_Directory>
/home/itssahil/PROJECTS/Mol_Feturizer/New_Systems/rnas/4E8Q

>  <Rbt.Executable>
rbdock ($Id: //depot/dev/client3/rdock/2013.1/src/exe/rbdock.cxx#4 $)

>  <Rbt.Library>
libRbt.so (2013.1, Build901 2013/11/27)

>  <Rbt.Parameter_File>
/export/apps/rDock/src/rDock_2013.1_src/data/scripts/dock_solv.prm

>  <Rbt.Receptor>
prm/blind_docking_80.prm

>  <SCORE>
-10.8865

>  <SCORE.INTER>
0.51664

>  <SCORE.INTER.CONST>
1

>  <SCORE.INTER.POLAR>
0

>  <SCORE.INTER.ROT>
11

>  <SCORE.INTER.SOLV>
10.8177

>  <SCORE.INTER.VDW>
-14.1948

>  <SCORE.INTER.norm>
0.0369028

>  <SCORE.INTRA>
-11.4032

>  <SCORE.INTRA.DIHEDRAL>
-23.9904

>  <SCORE.INTRA.DIHEDRAL.0>
25.9209

>  <SCORE.INTRA.POLAR>
0

>  <SCORE.INTRA.POLAR.0>
0

>  <SCORE.INTRA.REPUL>
0

>  <SCORE.INTRA.REPUL.0>
0

>  <SCORE.INTRA.SOLV>
0.990976

>  <SCORE.INTRA.SOLV.lig_0>
-47.4815

>  <SCORE.INTRA.VDW>
0.0965328

>  <SCORE.INTRA.VDW.0>
-1.57492

>  <SCORE.INTRA.norm>
-0.814512

>  <SCORE.RESTR>
0

>  <SCORE.RESTR.CAVITY>
0

>  <SCORE.RESTR.norm>
0

>  <SCORE.SYSTEM>
0

>  <SCORE.SYSTEM.CONST>
0

>  <SCORE.SYSTEM.DIHEDRAL>
0

>  <SCORE.SYSTEM.SOLV>
0

>  <SCORE.SYSTEM.norm>
0

>  <SCORE.heavy>
14

>  <SCORE.norm>
-0.777609

>  <RMSD>
32.066

$$$$
ligand
 OpenBabel11021811493D
libRbt.so/2013.1/901 2013/11/27
 14 13  0  0  0  0  0  0  0  0999 V2000
   41.7018    5.3824   21.3131 N   0  0  0  0  0  0  0  0  0  0  0  0
   40.9240    4.7895   22.3942 C   0  0  0  0  0  0  0  0  0  0  0  0
   41.1109    5.5815   23.7058 C   0  0  0  0  0  0  0  0  0  0  0  0
   40.3610    4.9990   24.9203 C   0  0  0  0  0  0  0  0  0  0  0  0
   40.7284    3.6513   25.3802 N   0  0  0  0  0  0  0  0  0  0  0  0
   40.0010    3.0019   26.4764 C   0  0  0  0  0  0  0  0  0  0  0  0
   40.2450    3.6019   27.8641 C   0  0  0  0  0  0  0  0  0  0  0  0
   39.4284    2.9066   28.9666 C   0  0  0  0  0  0  0  0  0  0  0  0
   39.6510    3.4918   30.3704 C   0  0  0  0  0  0  0  0  0  0  0  0
   41.0076    3.3229   30.8964 N   0  0  0  0  0  0  0  0  0  0  0  0
   41.3568    3.9177   32.1982 C   0  0  0  0  0  0  0  0  0  0  0  0
   41.4633    5.4600   32.2575 C   0  0  0  0  0  0  0  0  0  0  0  0
   42.4794    6.1008   31.2906 C   0  0  0  0  0  0  0  0  0  0  0  0
   42.5146    7.5575   31.3817 N   0  0  0  0  0  0  0  0  0  0  0  0
  1  2  1  0  0  0  0
  2  3  1  0  0  0  0
  3  4  1  0  0  0  0
  4  5  1  0  0  0  0
  5  6  1  0  0  0  0
  6  7  1  0  0  0  0
  7  8  1  0  0  0  0
  8  9  1  0  0  0  0
  9 10  1  0  0  0  0
 10 11  1  0  0  0  0
 11 12  1  0  0  0  0
 12 13  1  0  0  0  0
 13 14  1  0  0  0  0
M  END
>  <CHROM.1>
-178.05075503,62.48523248,-176.19495540,-70.83158188,178.43489615,-179.83414076
-64.93015691,176.26791249,-70.50434514,-57.83778538,179.05756788,40.92643641
4.55444888,27.81564090,-1.65877291,1.00119605,1.63486661

>  <Name>
ligand

>  <RI>
0

>  <Rbt.Current_Directory>
/home/itssahil/PROJECTS/Mol_Feturizer/New_Systems/rnas/4E8Q

>  <Rbt.Executable>
rbdock ($Id: //depot/dev/client3/rdock/2013.1/src/exe/rbdock.cxx#4 $)

>  <Rbt.Library>
libRbt.so (2013.1, Build901 2013/11/27)

>  <Rbt.Parameter_File>
/export/apps/rDock/src/rDock_2013.1_src/data/scripts/dock_solv.prm

>  <Rbt.Receptor>
prm/blind_docking_60.prm

>  <SCORE>
-10.1263

>  <SCORE.INTER>
2.77424

>  <SCORE.INTER.CONST>
1

>  <SCORE.INTER.POLAR>
0

>  <SCORE.INTER.ROT>
11

>  <SCORE.INTER.SOLV>
4.5281

>  <SCORE.INTER.VDW>
-10.5932

>  <SCORE.INTER.norm>
0.19816

>  <SCORE.INTRA>
-12.9005

>  <SCORE.INTRA.DIHEDRAL>
-25.5556

>  <SCORE.INTRA.DIHEDRAL.0>
25.9209

>  <SCORE.INTRA.POLAR>
0

>  <SCORE.INTRA.POLAR.0>
0

>  <SCORE.INTRA.REPUL>
0

>  <SCORE.INTRA.REPUL.0>
0

>  <SCORE.INTRA.SOLV>
-1.17861

>  <SCORE.INTRA.SOLV.lig_0>
-47.4815

>  <SCORE.INTRA.VDW>
0.466603

>  <SCORE.INTRA.VDW.0>
-1.57492

>  <SCORE.INTRA.norm>
-0.921466

>  <SCORE.RESTR>
0

>  <SCORE.RESTR.CAVITY>
0

>  <SCORE.RESTR.norm>
0

>  <SCORE.SYSTEM>
0

>  <SCORE.SYSTEM.CONST>
0

>  <SCORE.SYSTEM.DIHEDRAL>
0

>  <SCORE.SYSTEM.SOLV>
0

>  <SCORE.SYSTEM.norm>
0

>  <SCORE.heavy>
14

>  <SCORE.norm>
-0.723306

>  <RMSD>
32.079

$$$$
ligand
 OpenBabel11021811493D
libRbt.so/2013.1/901 2013/11/27
 14 13  0  0  0  0  0  0  0  0999 V2000
   29.0985  -19.6746   -3.5368 N   0  0  0  0  0  0  0  0  0  0  0  0
   29.2951  -18.3867   -4.1909 C   0  0  0  0  0  0  0  0  0  0  0  0
   30.6704  -18.3277   -4.8891 C   0  0  0  0  0  0  0  0  0  0  0  0
   31.0316  -16.9509   -5.4813 C   0  0  0  0  0  0  0  0  0  0  0  0
   30.1028  -16.3477   -6.4489 N   0  0  0  0  0  0  0  0  0  0  0  0
   30.4770  -15.1517   -7.2119 C   0  0  0  0  0  0  0  0  0  0  0  0
   29.3033  -14.2934   -7.6925 C   0  0  0  0  0  0  0  0  0  0  0  0
   28.3555  -15.0535   -8.6358 C   0  0  0  0  0  0  0  0  0  0  0  0
   27.1632  -14.2176   -9.1281 C   0  0  0  0  0  0  0  0  0  0  0  0
   26.2404  -14.9298  -10.0150 N   0  0  0  0  0  0  0  0  0  0  0  0
   24.9867  -14.2758  -10.4285 C   0  0  0  0  0  0  0  0  0  0  0  0
   23.8112  -14.3162   -9.4235 C   0  0  0  0  0  0  0  0  0  0  0  0
   22.6075  -13.4134   -9.7612 C   0  0  0  0  0  0  0  0  0  0  0  0
   21.9608  -13.7707  -11.0204 N   0  0  0  0  0  0  0  0  0  0  0  0
  1  2  1  0  0  0  0
  2  3  1  0  0  0  0
  3  4  1  0  0  0  0
  4  5  1  0  0  0  0
  5  6  1  0  0  0  0
  6  7  1  0  0  0  0
  7  8  1  0  0  0  0
  8  9  1  0  0  0  0
  9 10  1  0  0  0  0
 10 11  1  0  0  0  0
 11 12  1  0  0  0  0
 12 13  1  0  0  0  0
 13 14  1  0  0  0  0
M  END
>  <CHROM.1>
-173.79647454,-56.23081178,-170.13189363,-154.72232535,-60.91106911,179.68747979
-179.29969429,173.34260527,-80.82675555,169.19992588,62.08560642,27.50770674
-15.65048048,-7.70454268,0.77441799,0.14947626,2.35643242

>  <Name>
ligand

>  <RI>
0

>  <Rbt.Current_Directory>
/home/itssahil/PROJECTS/Mol_Feturizer/New_Systems/rnas/4E8Q

>  <Rbt.Executable>
rbdock ($Id: //depot/dev/client3/rdock/2013.1/src/exe/rbdock.cxx#4 $)

>  <Rbt.Library>
libRbt.so (2013.1, Build901 2013/11/27)

>  <Rbt.Parameter_File>
/export/apps/rDock/src/rDock_2013.1_src/data/scripts/dock_solv.prm

>  <Rbt.Receptor>
prm/blind_docking_60.prm

>  <SCORE>
-11.2042

>  <SCORE.INTER>
0.957918

>  <SCORE.INTER.CONST>
1

>  <SCORE.INTER.POLAR>
0

>  <SCORE.INTER.ROT>
11

>  <SCORE.INTER.SOLV>
12.8158

>  <SCORE.INTER.VDW>
-14.5666

>  <SCORE.INTER.norm>
0.0684227

>  <SCORE.INTRA>
-12.1621

>  <SCORE.INTRA.DIHEDRAL>
-24.3812

>  <SCORE.INTRA.DIHEDRAL.0>
25.9209

>  <SCORE.INTRA.POLAR>
0

>  <SCORE.INTRA.POLAR.0>
0

>  <SCORE.INTRA.REPUL>
0

>  <SCORE.INTRA.REPUL.0>
0

>  <SCORE.INTRA.SOLV>
-0.773695

>  <SCORE.INTRA.SOLV.lig_0>
-47.4815

>  <SCORE.INTRA.VDW>
0.415342

>  <SCORE.INTRA.VDW.0>
-1.57492

>  <SCORE.INTRA.norm>
-0.868721

>  <SCORE.RESTR>
0

>  <SCORE.RESTR.CAVITY>
0

>  <SCORE.RESTR.norm>
0

>  <SCORE.SYSTEM>
0

>  <SCORE.SYSTEM.CONST>
0

>  <SCORE.SYSTEM.DIHEDRAL>
0

>  <SCORE.SYSTEM.SOLV>
0

>  <SCORE.SYSTEM.norm>
0

>  <SCORE.heavy>
14

>  <SCORE.norm>
-0.800298

>  <RMSD>
32.208

$$$$
ligand
 OpenBabel11021811493D
libRbt.so/2013.1/901 2013/11/27
 14 13  0  0  0  0  0  0  0  0999 V2000
   40.8867    5.3412   31.6833 N   0  0  0  0  0  0  0  0  0  0  0  0
   41.1969    6.7516   31.8828 C   0  0  0  0  0  0  0  0  0  0  0  0
   40.5500    7.6189   30.7820 C   0  0  0  0  0  0  0  0  0  0  0  0
   40.9671    9.1029   30.8056 C   0  0  0  0  0  0  0  0  0  0  0  0
   40.4328    9.9894   29.7608 N   0  0  0  0  0  0  0  0  0  0  0  0
   41.2496   10.3726   28.6038 C   0  0  0  0  0  0  0  0  0  0  0  0
   40.9860    9.5690   27.3270 C   0  0  0  0  0  0  0  0  0  0  0  0
   41.3660    8.0852   27.4670 C   0  0  0  0  0  0  0  0  0  0  0  0
   41.1992    7.2740   26.1721 C   0  0  0  0  0  0  0  0  0  0  0  0
   39.8133    7.1053   25.7292 N   0  0  0  0  0  0  0  0  0  0  0  0
   39.5221    6.2186   24.5893 C   0  0  0  0  0  0  0  0  0  0  0  0
   39.8266    4.7135   24.7772 C   0  0  0  0  0  0  0  0  0  0  0  0
   39.6292    3.8274   23.5306 C   0  0  0  0  0  0  0  0  0  0  0  0
   39.9403    2.4218   23.7736 N   0  0  0  0  0  0  0  0  0  0  0  0
  1  2  1  0  0  0  0
  2  3  1  0  0  0  0
  3  4  1  0  0  0  0
  4  5  1  0  0  0  0
  5  6  1  0  0  0  0
  6  7  1  0  0  0  0
  7  8  1  0  0  0  0
  8  9  1  0  0  0  0
  9 10  1  0  0  0  0
 10 11  1  0  0  0  0
 11 12  1  0  0  0  0
 12 13  1  0  0  0  0
 13 14  1  0  0  0  0
M  END
>  <CHROM.1>
-172.65341665,177.87911239,-101.22782481,98.87527705,-65.13574840,-176.17697854
-67.34511358,-173.05646892,64.63865677,-174.87226275,179.67548931,40.54052523
7.02829495,27.63455234,0.15376220,1.42181183,2.40514052

>  <Name>
ligand

>  <RI>
0

>  <Rbt.Current_Directory>
/home/itssahil/PROJECTS/Mol_Feturizer/New_Systems/rnas/4E8Q

>  <Rbt.Executable>
rbdock ($Id: //depot/dev/client3/rdock/2013.1/src/exe/rbdock.cxx#4 $)

>  <Rbt.Library>
libRbt.so (2013.1, Build901 2013/11/27)

>  <Rbt.Parameter_File>
/export/apps/rDock/src/rDock_2013.1_src/data/scripts/dock_solv.prm

>  <Rbt.Receptor>
prm/blind_docking_60.prm

>  <SCORE>
-9.96088

>  <SCORE.INTER>
2.15072

>  <SCORE.INTER.CONST>
1

>  <SCORE.INTER.POLAR>
0

>  <SCORE.INTER.ROT>
11

>  <SCORE.INTER.SOLV>
11.0449

>  <SCORE.INTER.VDW>
-13.1811

>  <SCORE.INTER.norm>
0.153623

>  <SCORE.INTRA>
-12.1116

>  <SCORE.INTRA.DIHEDRAL>
-23.3825

>  <SCORE.INTRA.DIHEDRAL.0>
25.9209

>  <SCORE.INTRA.POLAR>
0

>  <SCORE.INTRA.POLAR.0>
0

>  <SCORE.INTRA.REPUL>
0

>  <SCORE.INTRA.REPUL.0>
0

>  <SCORE.INTRA.SOLV>
-1.46975

>  <SCORE.INTRA.SOLV.lig_0>
-47.4815

>  <SCORE.INTRA.VDW>
0.314549

>  <SCORE.INTRA.VDW.0>
-1.57492

>  <SCORE.INTRA.norm>
-0.865114

>  <SCORE.RESTR>
0

>  <SCORE.RESTR.CAVITY>
0

>  <SCORE.RESTR.norm>
0

>  <SCORE.SYSTEM>
0

>  <SCORE.SYSTEM.CONST>
0

>  <SCORE.SYSTEM.DIHEDRAL>
0

>  <SCORE.SYSTEM.SOLV>
0

>  <SCORE.SYSTEM.norm>
0

>  <SCORE.heavy>
14

>  <SCORE.norm>
-0.711491

>  <RMSD>
32.283

$$$$
ligand
 OpenBabel11021811493D
libRbt.so/2013.1/901 2013/11/27
 14 13  0  0  0  0  0  0  0  0999 V2000
   40.2581    3.3033   28.0285 N   0  0  0  0  0  0  0  0  0  0  0  0
   39.8616    3.3872   29.4288 C   0  0  0  0  0  0  0  0  0  0  0  0
   38.3320    3.2427   29.5777 C   0  0  0  0  0  0  0  0  0  0  0  0
   37.7643    1.8932   29.0947 C   0  0  0  0  0  0  0  0  0  0  0  0
   36.3247    1.6461   29.2660 N   0  0  0  0  0  0  0  0  0  0  0  0
   35.7254    0.3655   28.8742 C   0  0  0  0  0  0  0  0  0  0  0  0
   35.4396    0.2122   27.3775 C   0  0  0  0  0  0  0  0  0  0  0  0
   34.9124   -1.1855   27.0110 C   0  0  0  0  0  0  0  0  0  0  0  0
   34.5972   -1.3609   25.5169 C   0  0  0  0  0  0  0  0  0  0  0  0
   35.7082   -1.0469   24.6155 N   0  0  0  0  0  0  0  0  0  0  0  0
   35.5169   -1.1773   23.1605 C   0  0  0  0  0  0  0  0  0  0  0  0
   36.6774   -0.6994   22.2559 C   0  0  0  0  0  0  0  0  0  0  0  0
   37.0902    0.7777   22.4173 C   0  0  0  0  0  0  0  0  0  0  0  0
   38.1391    1.1827   21.4860 N   0  0  0  0  0  0  0  0  0  0  0  0
  1  2  1  0  0  0  0
  2  3  1  0  0  0  0
  3  4  1  0  0  0  0
  4  5  1  0  0  0  0
  5  6  1  0  0  0  0
  6  7  1  0  0  0  0
  7  8  1  0  0  0  0
  8  9  1  0  0  0  0
  9 10  1  0  0  0  0
 10 11  1  0  0  0  0
 11 12  1  0  0  0  0
 12 13  1  0  0  0  0
 13 14  1  0  0  0  0
M  END
>  <CHROM.1>
61.91387375,176.86875666,-177.75435274,-80.11271116,175.64633195,179.14496201
54.86473441,-179.86880624,174.13658103,-58.44224609,-176.87532991,36.88164441
0.75268028,26.29377769,-1.17899142,-0.68177836,-1.77887028

>  <Name>
ligand

>  <RI>
0

>  <Rbt.Current_Directory>
/home/itssahil/PROJECTS/Mol_Feturizer/New_Systems/rnas/4E8Q

>  <Rbt.Executable>
rbdock ($Id: //depot/dev/client3/rdock/2013.1/src/exe/rbdock.cxx#4 $)

>  <Rbt.Library>
libRbt.so (2013.1, Build901 2013/11/27)

>  <Rbt.Parameter_File>
/export/apps/rDock/src/rDock_2013.1_src/data/scripts/dock_solv.prm

>  <Rbt.Receptor>
prm/blind_docking_80.prm

>  <SCORE>
-14.3181

>  <SCORE.INTER>
-1.78006

>  <SCORE.INTER.CONST>
1

>  <SCORE.INTER.POLAR>
0

>  <SCORE.INTER.ROT>
11

>  <SCORE.INTER.SOLV>
9.62611

>  <SCORE.INTER.VDW>
-15.3287

>  <SCORE.INTER.norm>
-0.127147

>  <SCORE.INTRA>
-12.538

>  <SCORE.INTRA.DIHEDRAL>
-25.3151

>  <SCORE.INTRA.DIHEDRAL.0>
25.9209

>  <SCORE.INTRA.POLAR>
0

>  <SCORE.INTRA.POLAR.0>
0

>  <SCORE.INTRA.REPUL>
0

>  <SCORE.INTRA.REPUL.0>
0

>  <SCORE.INTRA.SOLV>
-0.737414

>  <SCORE.INTRA.SOLV.lig_0>
-47.4815

>  <SCORE.INTRA.VDW>
0.488251

>  <SCORE.INTRA.VDW.0>
-1.57492

>  <SCORE.INTRA.norm>
-0.895572

>  <SCORE.RESTR>
0

>  <SCORE.RESTR.CAVITY>
0

>  <SCORE.RESTR.norm>
0

>  <SCORE.SYSTEM>
0

>  <SCORE.SYSTEM.CONST>
0

>  <SCORE.SYSTEM.DIHEDRAL>
0

>  <SCORE.SYSTEM.SOLV>
0

>  <SCORE.SYSTEM.norm>
0

>  <SCORE.heavy>
14

>  <SCORE.norm>
-1.02272

>  <RMSD>
32.479

$$$$
ligand
 OpenBabel11021811493D
libRbt.so/2013.1/901 2013/11/27
 14 13  0  0  0  0  0  0  0  0999 V2000
   35.6112    1.4594   29.8795 N   0  0  0  0  0  0  0  0  0  0  0  0
   37.0428    1.7310   29.8367 C   0  0  0  0  0  0  0  0  0  0  0  0
   37.4922    2.0935   28.4052 C   0  0  0  0  0  0  0  0  0  0  0  0
   39.0135    2.2772   28.2367 C   0  0  0  0  0  0  0  0  0  0  0  0
   39.6687    3.3568   28.9903 N   0  0  0  0  0  0  0  0  0  0  0  0
   40.7692    3.0716   29.9178 C   0  0  0  0  0  0  0  0  0  0  0  0
   41.6119    4.2855   30.3198 C   0  0  0  0  0  0  0  0  0  0  0  0
   42.3692    4.9052   29.1330 C   0  0  0  0  0  0  0  0  0  0  0  0
   43.2032    6.1422   29.5030 C   0  0  0  0  0  0  0  0  0  0  0  0
   44.0077    6.6885   28.4077 N   0  0  0  0  0  0  0  0  0  0  0  0
   44.9879    7.7511   28.6917 C   0  0  0  0  0  0  0  0  0  0  0  0
   45.9896    8.0992   27.5652 C   0  0  0  0  0  0  0  0  0  0  0  0
   46.9487    9.2708   27.8577 C   0  0  0  0  0  0  0  0  0  0  0  0
   46.2607   10.5507   27.9990 N   0  0  0  0  0  0  0  0  0  0  0  0
  1  2  1  0  0  0  0
  2  3  1  0  0  0  0
  3  4  1  0  0  0  0
  4  5  1  0  0  0  0
  5  6  1  0  0  0  0
  6  7  1  0  0  0  0
  7  8  1  0  0  0  0
  8  9  1  0  0  0  0
  9 10  1  0  0  0  0
 10 11  1  0  0  0  0
 11 12  1  0  0  0  0
 12 13  1  0  0  0  0
 13 14  1  0  0  0  0
M  END
>  <CHROM.1>
-174.89924891,-62.56649482,122.40813483,163.18787584,-64.33458416,178.92173213
175.77739648,-171.40455725,168.70474865,176.48778323,-65.10131121,41.78420581
5.12003601,28.91027379,2.66724174,0.52078904,2.19419333

>  <Name>
ligand

>  <RI>
0

>  <Rbt.Current_Directory>
/home/itssahil/PROJECTS/Mol_Feturizer/New_Systems/rnas/4E8Q

>  <Rbt.Executable>
rbdock ($Id: //depot/dev/client3/rdock/2013.1/src/exe/rbdock.cxx#4 $)

>  <Rbt.Library>
libRbt.so (2013.1, Build901 2013/11/27)

>  <Rbt.Parameter_File>
/export/apps/rDock/src/rDock_2013.1_src/data/scripts/dock_solv.prm

>  <Rbt.Receptor>
prm/blind_docking_100.prm

>  <SCORE>
-11.2014

>  <SCORE.INTER>
0.946224

>  <SCORE.INTER.CONST>
1

>  <SCORE.INTER.POLAR>
0

>  <SCORE.INTER.ROT>
11

>  <SCORE.INTER.SOLV>
8.25691

>  <SCORE.INTER.VDW>
-13.0548

>  <SCORE.INTER.norm>
0.0675874

>  <SCORE.INTRA>
-12.1476

>  <SCORE.INTRA.DIHEDRAL>
-23.9362

>  <SCORE.INTRA.DIHEDRAL.0>
25.9209

>  <SCORE.INTRA.POLAR>
0

>  <SCORE.INTRA.POLAR.0>
0

>  <SCORE.INTRA.REPUL>
0

>  <SCORE.INTRA.REPUL.0>
0

>  <SCORE.INTRA.SOLV>
-0.832499

>  <SCORE.INTRA.SOLV.lig_0>
-47.4815

>  <SCORE.INTRA.VDW>
0.236769

>  <SCORE.INTRA.VDW.0>
-1.57492

>  <SCORE.INTRA.norm>
-0.867684

>  <SCORE.RESTR>
0

>  <SCORE.RESTR.CAVITY>
0

>  <SCORE.RESTR.norm>
0

>  <SCORE.SYSTEM>
0

>  <SCORE.SYSTEM.CONST>
0

>  <SCORE.SYSTEM.DIHEDRAL>
0

>  <SCORE.SYSTEM.SOLV>
0

>  <SCORE.SYSTEM.norm>
0

>  <SCORE.heavy>
14

>  <SCORE.norm>
-0.800097

>  <RMSD>
32.997

$$$$
ligand
 OpenBabel11021811493D
libRbt.so/2013.1/901 2013/11/27
 14 13  0  0  0  0  0  0  0  0999 V2000
   35.0433    0.7027   28.4707 N   0  0  0  0  0  0  0  0  0  0  0  0
   36.3463    1.3533   28.4070 C   0  0  0  0  0  0  0  0  0  0  0  0
   37.1935    0.7777   27.2522 C   0  0  0  0  0  0  0  0  0  0  0  0
   38.5916    1.4102   27.1041 C   0  0  0  0  0  0  0  0  0  0  0  0
   39.4220    0.9960   25.9633 N   0  0  0  0  0  0  0  0  0  0  0  0
   40.8629    1.2713   25.9373 C   0  0  0  0  0  0  0  0  0  0  0  0
   41.2404    2.7529   25.8497 C   0  0  0  0  0  0  0  0  0  0  0  0
   42.0238    3.2426   27.0794 C   0  0  0  0  0  0  0  0  0  0  0  0
   41.2045    3.2453   28.3800 C   0  0  0  0  0  0  0  0  0  0  0  0
   41.9397    3.6905   29.5661 N   0  0  0  0  0  0  0  0  0  0  0  0
   41.2258    3.8332   30.8469 C   0  0  0  0  0  0  0  0  0  0  0  0
   41.0161    2.5459   31.6790 C   0  0  0  0  0  0  0  0  0  0  0  0
   40.2324    2.7176   32.9960 C   0  0  0  0  0  0  0  0  0  0  0  0
   40.0316    1.4598   33.7095 N   0  0  0  0  0  0  0  0  0  0  0  0
  1  2  1  0  0  0  0
  2  3  1  0  0  0  0
  3  4  1  0  0  0  0
  4  5  1  0  0  0  0
  5  6  1  0  0  0  0
  6  7  1  0  0  0  0
  7  8  1  0  0  0  0
  8  9  1  0  0  0  0
  9 10  1  0  0  0  0
 10 11  1  0  0  0  0
 11 12  1  0  0  0  0
 12 13  1  0  0  0  0
 13 14  1  0  0  0  0
M  END
>  <CHROM.1>
179.82495784,-175.19548058,-163.96941957,-66.62692130,117.17501266,-66.54350181
179.16358604,175.27253675,82.06084373,-178.38058379,178.08334181,39.74124956
2.14297082,28.80268952,2.03765349,-0.40001060,-1.64991882

>  <Name>
ligand

>  <RI>
0

>  <Rbt.Current_Directory>
/home/itssahil/PROJECTS/Mol_Feturizer/New_Systems/rnas/4E8Q

>  <Rbt.Executable>
rbdock ($Id: //depot/dev/client3/rdock/2013.1/src/exe/rbdock.cxx#4 $)

>  <Rbt.Library>
libRbt.so (2013.1, Build901 2013/11/27)

>  <Rbt.Parameter_File>
/export/apps/rDock/src/rDock_2013.1_src/data/scripts/dock_solv.prm

>  <Rbt.Receptor>
prm/blind_docking_60.prm

>  <SCORE>
-9.11315

>  <SCORE.INTER>
0.685251

>  <SCORE.INTER.CONST>
1

>  <SCORE.INTER.POLAR>
0

>  <SCORE.INTER.ROT>
11

>  <SCORE.INTER.SOLV>
6.39762

>  <SCORE.INTER.VDW>
-12.609

>  <SCORE.INTER.norm>
0.0489465

>  <SCORE.INTRA>
-9.7984

>  <SCORE.INTRA.DIHEDRAL>
-19.5288

>  <SCORE.INTRA.DIHEDRAL.0>
25.9209

>  <SCORE.INTRA.POLAR>
0

>  <SCORE.INTRA.POLAR.0>
0

>  <SCORE.INTRA.REPUL>
0

>  <SCORE.INTRA.REPUL.0>
0

>  <SCORE.INTRA.SOLV>
-1.56418

>  <SCORE.INTRA.SOLV.lig_0>
-47.4815

>  <SCORE.INTRA.VDW>
0.748072

>  <SCORE.INTRA.VDW.0>
-1.57492

>  <SCORE.INTRA.norm>
-0.699886

>  <SCORE.RESTR>
0

>  <SCORE.RESTR.CAVITY>
0

>  <SCORE.RESTR.norm>
0

>  <SCORE.SYSTEM>
0

>  <SCORE.SYSTEM.CONST>
0

>  <SCORE.SYSTEM.DIHEDRAL>
0

>  <SCORE.SYSTEM.SOLV>
0

>  <SCORE.SYSTEM.norm>
0

>  <SCORE.heavy>
14

>  <SCORE.norm>
-0.650939

>  <RMSD>
33.357

$$$$
ligand
 OpenBabel11021811493D
libRbt.so/2013.1/901 2013/11/27
 14 13  0  0  0  0  0  0  0  0999 V2000
   34.4456    0.1766   27.9157 N   0  0  0  0  0  0  0  0  0  0  0  0
   34.5795    1.6279   27.9470 C   0  0  0  0  0  0  0  0  0  0  0  0
   35.8008    2.0502   28.7911 C   0  0  0  0  0  0  0  0  0  0  0  0
   37.1554    1.5391   28.2614 C   0  0  0  0  0  0  0  0  0  0  0  0
   38.3707    1.8958   29.0088 N   0  0  0  0  0  0  0  0  0  0  0  0
   39.1147    3.1226   28.7017 C   0  0  0  0  0  0  0  0  0  0  0  0
   38.8677    4.2903   29.6613 C   0  0  0  0  0  0  0  0  0  0  0  0
   39.7905    5.4906   29.3901 C   0  0  0  0  0  0  0  0  0  0  0  0
   41.2803    5.1983   29.6303 C   0  0  0  0  0  0  0  0  0  0  0  0
   42.1797    6.3146   29.3297 N   0  0  0  0  0  0  0  0  0  0  0  0
   43.6340    6.1304   29.4771 C   0  0  0  0  0  0  0  0  0  0  0  0
   44.5292    7.3557   29.1762 C   0  0  0  0  0  0  0  0  0  0  0  0
   44.4553    7.9043   27.7369 C   0  0  0  0  0  0  0  0  0  0  0  0
   45.3308    9.0517   27.5171 N   0  0  0  0  0  0  0  0  0  0  0  0
  1  2  1  0  0  0  0
  2  3  1  0  0  0  0
  3  4  1  0  0  0  0
  4  5  1  0  0  0  0
  5  6  1  0  0  0  0
  6  7  1  0  0  0  0
  7  8  1  0  0  0  0
  8  9  1  0  0  0  0
  9 10  1  0  0  0  0
 10 11  1  0  0  0  0
 11 12  1  0  0  0  0
 12 13  1  0  0  0  0
 13 14  1  0  0  0  0
M  END
>  <CHROM.1>
61.48939081,-179.93672805,-89.80572407,101.24003147,173.35677658,-64.65797687
177.84347880,-177.80360786,-178.63057986,-61.54975852,-179.53478474,39.96668688
4.43919037,28.75329089,2.86006084,0.57295521,2.09231085

>  <Name>
ligand

>  <RI>
0

>  <Rbt.Current_Directory>
/home/itssahil/PROJECTS/Mol_Feturizer/New_Systems/rnas/4E8Q

>  <Rbt.Executable>
rbdock ($Id: //depot/dev/client3/rdock/2013.1/src/exe/rbdock.cxx#4 $)

>  <Rbt.Library>
libRbt.so (2013.1, Build901 2013/11/27)

>  <Rbt.Parameter_File>
/export/apps/rDock/src/rDock_2013.1_src/data/scripts/dock_solv.prm

>  <Rbt.Receptor>
prm/blind_docking_80.prm

>  <SCORE>
-11.9138

>  <SCORE.INTER>
-0.118979

>  <SCORE.INTER.CONST>
1

>  <SCORE.INTER.POLAR>
0

>  <SCORE.INTER.ROT>
11

>  <SCORE.INTER.SOLV>
6.91791

>  <SCORE.INTER.VDW>
-13.3186

>  <SCORE.INTER.norm>
-0.00849853

>  <SCORE.INTRA>
-11.7948

>  <SCORE.INTRA.DIHEDRAL>
-24.0967

>  <SCORE.INTRA.DIHEDRAL.0>
25.9209

>  <SCORE.INTRA.POLAR>
0

>  <SCORE.INTRA.POLAR.0>
0

>  <SCORE.INTRA.REPUL>
0

>  <SCORE.INTRA.REPUL.0>
0

>  <SCORE.INTRA.SOLV>
-0.947017

>  <SCORE.INTRA.SOLV.lig_0>
-47.4815

>  <SCORE.INTRA.VDW>
0.727057

>  <SCORE.INTRA.VDW.0>
-1.57492

>  <SCORE.INTRA.norm>
-0.842486

>  <SCORE.RESTR>
0

>  <SCORE.RESTR.CAVITY>
0

>  <SCORE.RESTR.norm>
0

>  <SCORE.SYSTEM>
0

>  <SCORE.SYSTEM.CONST>
0

>  <SCORE.SYSTEM.DIHEDRAL>
0

>  <SCORE.SYSTEM.SOLV>
0

>  <SCORE.SYSTEM.norm>
0

>  <SCORE.heavy>
14

>  <SCORE.norm>
-0.850984

>  <RMSD>
33.405

$$$$
ligand
 OpenBabel11021811493D
libRbt.so/2013.1/901 2013/11/27
 14 13  0  0  0  0  0  0  0  0999 V2000
   40.9777    4.4936   25.4104 N   0  0  0  0  0  0  0  0  0  0  0  0
   40.7467    5.5038   24.3850 C   0  0  0  0  0  0  0  0  0  0  0  0
   39.5644    6.4185   24.7696 C   0  0  0  0  0  0  0  0  0  0  0  0
   39.8200    7.3173   25.9958 C   0  0  0  0  0  0  0  0  0  0  0  0
   40.0731    6.6673   27.2905 N   0  0  0  0  0  0  0  0  0  0  0  0
   39.4108    7.1344   28.5135 C   0  0  0  0  0  0  0  0  0  0  0  0
   39.1568    6.0539   29.5686 C   0  0  0  0  0  0  0  0  0  0  0  0
   40.4337    5.2914   29.9610 C   0  0  0  0  0  0  0  0  0  0  0  0
   40.1807    4.0769   30.8685 C   0  0  0  0  0  0  0  0  0  0  0  0
   41.3853    3.3369   31.2514 N   0  0  0  0  0  0  0  0  0  0  0  0
   41.2667    2.1866   32.1643 C   0  0  0  0  0  0  0  0  0  0  0  0
   42.5842    1.5176   32.6228 C   0  0  0  0  0  0  0  0  0  0  0  0
   42.4319    0.3328   33.5980 C   0  0  0  0  0  0  0  0  0  0  0  0
   43.7089   -0.2705   33.9678 N   0  0  0  0  0  0  0  0  0  0  0  0
  1  2  1  0  0  0  0
  2  3  1  0  0  0  0
  3  4  1  0  0  0  0
  4  5  1  0  0  0  0
  5  6  1  0  0  0  0
  6  7  1  0  0  0  0
  7  8  1  0  0  0  0
  8  9  1  0  0  0  0
  9 10  1  0  0  0  0
 10 11  1  0  0  0  0
 11 12  1  0  0  0  0
 12 13  1  0  0  0  0
 13 14  1  0  0  0  0
M  END
>  <CHROM.1>
67.10275547,-62.46442718,-134.61945887,149.86544206,54.50166743,-171.97342009
179.92430912,177.53053479,-175.15254215,178.92051984,178.75121785,40.83835202
4.29032817,29.31186912,-2.07712150,-0.98401920,1.77642219

>  <Name>
ligand

>  <RI>
0

>  <Rbt.Current_Directory>
/home/itssahil/PROJECTS/Mol_Feturizer/New_Systems/rnas/4E8Q

>  <Rbt.Executable>
rbdock ($Id: //depot/dev/client3/rdock/2013.1/src/exe/rbdock.cxx#4 $)

>  <Rbt.Library>
libRbt.so (2013.1, Build901 2013/11/27)

>  <Rbt.Parameter_File>
/export/apps/rDock/src/rDock_2013.1_src/data/scripts/dock_solv.prm

>  <Rbt.Receptor>
prm/blind_docking_60.prm

>  <SCORE>
-11.3388

>  <SCORE.INTER>
-0.155576

>  <SCORE.INTER.CONST>
1

>  <SCORE.INTER.POLAR>
0

>  <SCORE.INTER.ROT>
11

>  <SCORE.INTER.SOLV>
10.5869

>  <SCORE.INTER.VDW>
-14.566

>  <SCORE.INTER.norm>
-0.0111126

>  <SCORE.INTRA>
-11.1832

>  <SCORE.INTRA.DIHEDRAL>
-23.658

>  <SCORE.INTRA.DIHEDRAL.0>
25.9209

>  <SCORE.INTRA.POLAR>
0

>  <SCORE.INTRA.POLAR.0>
0

>  <SCORE.INTRA.REPUL>
0

>  <SCORE.INTRA.REPUL.0>
0

>  <SCORE.INTRA.SOLV>
0.883834

>  <SCORE.INTRA.SOLV.lig_0>
-47.4815

>  <SCORE.INTRA.VDW>
0.203879

>  <SCORE.INTRA.VDW.0>
-1.57492

>  <SCORE.INTRA.norm>
-0.7988

>  <SCORE.RESTR>
0

>  <SCORE.RESTR.CAVITY>
0

>  <SCORE.RESTR.norm>
0

>  <SCORE.SYSTEM>
0

>  <SCORE.SYSTEM.CONST>
0

>  <SCORE.SYSTEM.DIHEDRAL>
0

>  <SCORE.SYSTEM.SOLV>
0

>  <SCORE.SYSTEM.norm>
0

>  <SCORE.heavy>
14

>  <SCORE.norm>
-0.809913

>  <RMSD>
33.409

$$$$
ligand
 OpenBabel11021811493D
libRbt.so/2013.1/901 2013/11/27
 14 13  0  0  0  0  0  0  0  0999 V2000
   36.1715    0.2469   22.6909 N   0  0  0  0  0  0  0  0  0  0  0  0
   34.7465   -0.0584   22.6537 C   0  0  0  0  0  0  0  0  0  0  0  0
   34.4946   -1.5502   22.9594 C   0  0  0  0  0  0  0  0  0  0  0  0
   34.9198   -1.9970   24.3723 C   0  0  0  0  0  0  0  0  0  0  0  0
   34.3117   -1.3175   25.5261 N   0  0  0  0  0  0  0  0  0  0  0  0
   34.8663   -1.4754   26.8752 C   0  0  0  0  0  0  0  0  0  0  0  0
   34.4630   -0.3880   27.8754 C   0  0  0  0  0  0  0  0  0  0  0  0
   34.8683    1.0234   27.4176 C   0  0  0  0  0  0  0  0  0  0  0  0
   34.7911    2.0848   28.5267 C   0  0  0  0  0  0  0  0  0  0  0  0
   35.6440    1.8206   29.6878 N   0  0  0  0  0  0  0  0  0  0  0  0
   37.1076    1.8045   29.5201 C   0  0  0  0  0  0  0  0  0  0  0  0
   37.7877    3.1503   29.1741 C   0  0  0  0  0  0  0  0  0  0  0  0
   39.3205    3.1060   29.0109 C   0  0  0  0  0  0  0  0  0  0  0  0
   40.0166    2.7544   30.2451 N   0  0  0  0  0  0  0  0  0  0  0  0
  1  2  1  0  0  0  0
  2  3  1  0  0  0  0
  3  4  1  0  0  0  0
  4  5  1  0  0  0  0
  5  6  1  0  0  0  0
  6  7  1  0  0  0  0
  7  8  1  0  0  0  0
  8  9  1  0  0  0  0
  9 10  1  0  0  0  0
 10 11  1  0  0  0  0
 11 12  1  0  0  0  0
 12 13  1  0  0  0  0
 13 14  1  0  0  0  0
M  END
>  <CHROM.1>
63.34421148,58.41500694,-166.61955042,160.31128002,-58.37978293,-165.99237235
59.79644419,64.20410472,67.28032127,179.72566035,-64.28662013,35.96470686
0.65736243,26.89532308,-2.10401855,0.55530637,1.30915815

>  <Name>
ligand

>  <RI>
0

>  <Rbt.Current_Directory>
/home/itssahil/PROJECTS/Mol_Feturizer/New_Systems/rnas/4E8Q

>  <Rbt.Executable>
rbdock ($Id: //depot/dev/client3/rdock/2013.1/src/exe/rbdock.cxx#4 $)

>  <Rbt.Library>
libRbt.so (2013.1, Build901 2013/11/27)

>  <Rbt.Parameter_File>
/export/apps/rDock/src/rDock_2013.1_src/data/scripts/dock_solv.prm

>  <Rbt.Receptor>
prm/blind_docking_100.prm

>  <SCORE>
-15.5379

>  <SCORE.INTER>
-4.4637

>  <SCORE.INTER.CONST>
1

>  <SCORE.INTER.POLAR>
0

>  <SCORE.INTER.ROT>
11

>  <SCORE.INTER.SOLV>
13.1376

>  <SCORE.INTER.VDW>
-18.2883

>  <SCORE.INTER.norm>
-0.318836

>  <SCORE.INTRA>
-11.0742

>  <SCORE.INTRA.DIHEDRAL>
-24.5124

>  <SCORE.INTRA.DIHEDRAL.0>
25.9209

>  <SCORE.INTRA.POLAR>
0

>  <SCORE.INTRA.POLAR.0>
0

>  <SCORE.INTRA.REPUL>
0

>  <SCORE.INTRA.REPUL.0>
0

>  <SCORE.INTRA.SOLV>
0.950928

>  <SCORE.INTRA.SOLV.lig_0>
-47.4815

>  <SCORE.INTRA.VDW>
0.706525

>  <SCORE.INTRA.VDW.0>
-1.57492

>  <SCORE.INTRA.norm>
-0.791014

>  <SCORE.RESTR>
0

>  <SCORE.RESTR.CAVITY>
0

>  <SCORE.RESTR.norm>
0

>  <SCORE.SYSTEM>
0

>  <SCORE.SYSTEM.CONST>
0

>  <SCORE.SYSTEM.DIHEDRAL>
0

>  <SCORE.SYSTEM.SOLV>
0

>  <SCORE.SYSTEM.norm>
0

>  <SCORE.heavy>
14

>  <SCORE.norm>
-1.10985

>  <RMSD>
33.425

$$$$
ligand
 OpenBabel11021811493D
libRbt.so/2013.1/901 2013/11/27
 14 13  0  0  0  0  0  0  0  0999 V2000
   40.1417    5.0943   24.1964 N   0  0  0  0  0  0  0  0  0  0  0  0
   40.8189    6.3130   24.6223 C   0  0  0  0  0  0  0  0  0  0  0  0
   40.2874    6.7887   25.9912 C   0  0  0  0  0  0  0  0  0  0  0  0
   40.5687    5.8237   27.1601 C   0  0  0  0  0  0  0  0  0  0  0  0
   40.0021    6.1480   28.4779 N   0  0  0  0  0  0  0  0  0  0  0  0
   39.8461    5.1158   29.5088 C   0  0  0  0  0  0  0  0  0  0  0  0
   38.7501    4.0821   29.2334 C   0  0  0  0  0  0  0  0  0  0  0  0
   38.7263    2.9472   30.2714 C   0  0  0  0  0  0  0  0  0  0  0  0
   37.6486    1.8835   30.0074 C   0  0  0  0  0  0  0  0  0  0  0  0
   37.7782    1.1850   28.7265 N   0  0  0  0  0  0  0  0  0  0  0  0
   37.2956   -0.2019   28.6080 C   0  0  0  0  0  0  0  0  0  0  0  0
   35.9721   -0.4194   27.8369 C   0  0  0  0  0  0  0  0  0  0  0  0
   34.7193    0.2333   28.4553 C   0  0  0  0  0  0  0  0  0  0  0  0
   33.4911   -0.0938   27.7370 N   0  0  0  0  0  0  0  0  0  0  0  0
  1  2  1  0  0  0  0
  2  3  1  0  0  0  0
  3  4  1  0  0  0  0
  4  5  1  0  0  0  0
  5  6  1  0  0  0  0
  6  7  1  0  0  0  0
  7  8  1  0  0  0  0
  8  9  1  0  0  0  0
  9 10  1  0  0  0  0
 10 11  1  0  0  0  0
 11 12  1  0  0  0  0
 12 13  1  0  0  0  0
 13 14  1  0  0  0  0
M  END
>  <CHROM.1>
64.49713964,-175.14346918,160.14084284,-70.96092712,174.19074573,-179.13568329
60.46701911,150.63276675,105.32003805,-63.21303729,-175.61892881,38.28920838
3.20715616,27.91686198,0.40276579,-0.85060984,-1.40299300

>  <Name>
ligand

>  <RI>
0

>  <Rbt.Current_Directory>
/home/itssahil/PROJECTS/Mol_Feturizer/New_Systems/rnas/4E8Q

>  <Rbt.Executable>
rbdock ($Id: //depot/dev/client3/rdock/2013.1/src/exe/rbdock.cxx#4 $)

>  <Rbt.Library>
libRbt.so (2013.1, Build901 2013/11/27)

>  <Rbt.Parameter_File>
/export/apps/rDock/src/rDock_2013.1_src/data/scripts/dock_solv.prm

>  <Rbt.Receptor>
prm/blind_docking_100.prm

>  <SCORE>
-10.2405

>  <SCORE.INTER>
1.49262

>  <SCORE.INTER.CONST>
1

>  <SCORE.INTER.POLAR>
0

>  <SCORE.INTER.ROT>
11

>  <SCORE.INTER.SOLV>
11.3366

>  <SCORE.INTER.VDW>
-13.7171

>  <SCORE.INTER.norm>
0.106616

>  <SCORE.INTRA>
-11.7331

>  <SCORE.INTRA.DIHEDRAL>
-23.5103

>  <SCORE.INTRA.DIHEDRAL.0>
25.9209

>  <SCORE.INTRA.POLAR>
0

>  <SCORE.INTRA.POLAR.0>
0

>  <SCORE.INTRA.REPUL>
0

>  <SCORE.INTRA.REPUL.0>
0

>  <SCORE.INTRA.SOLV>
-0.786695

>  <SCORE.INTRA.SOLV.lig_0>
-47.4815

>  <SCORE.INTRA.VDW>
0.415374

>  <SCORE.INTRA.VDW.0>
-1.57492

>  <SCORE.INTRA.norm>
-0.838081

>  <SCORE.RESTR>
0

>  <SCORE.RESTR.CAVITY>
0

>  <SCORE.RESTR.norm>
0

>  <SCORE.SYSTEM>
0

>  <SCORE.SYSTEM.CONST>
0

>  <SCORE.SYSTEM.DIHEDRAL>
0

>  <SCORE.SYSTEM.SOLV>
0

>  <SCORE.SYSTEM.norm>
0

>  <SCORE.heavy>
14

>  <SCORE.norm>
-0.731465

>  <RMSD>
33.446

$$$$
ligand
 OpenBabel11021811493D
libRbt.so/2013.1/901 2013/11/27
 14 13  0  0  0  0  0  0  0  0999 V2000
   36.0163    0.9512   22.3550 N   0  0  0  0  0  0  0  0  0  0  0  0
   35.2791    0.1499   23.3243 C   0  0  0  0  0  0  0  0  0  0  0  0
   35.6640   -1.3408   23.2133 C   0  0  0  0  0  0  0  0  0  0  0  0
   34.9099   -2.2728   24.1824 C   0  0  0  0  0  0  0  0  0  0  0  0
   35.1008   -2.0716   25.6266 N   0  0  0  0  0  0  0  0  0  0  0  0
   34.3356   -1.0543   26.3561 C   0  0  0  0  0  0  0  0  0  0  0  0
   34.9129   -0.6593   27.7185 C   0  0  0  0  0  0  0  0  0  0  0  0
   34.1627    0.5174   28.3656 C   0  0  0  0  0  0  0  0  0  0  0  0
   34.7702    0.9875   29.6969 C   0  0  0  0  0  0  0  0  0  0  0  0
   36.1990    1.3052   29.6400 N   0  0  0  0  0  0  0  0  0  0  0  0
   36.6573    2.4235   28.7976 C   0  0  0  0  0  0  0  0  0  0  0  0
   38.1819    2.6808   28.7438 C   0  0  0  0  0  0  0  0  0  0  0  0
   38.8494    3.0444   30.0855 C   0  0  0  0  0  0  0  0  0  0  0  0
   40.2747    3.3325   29.9550 N   0  0  0  0  0  0  0  0  0  0  0  0
  1  2  1  0  0  0  0
  2  3  1  0  0  0  0
  3  4  1  0  0  0  0
  4  5  1  0  0  0  0
  5  6  1  0  0  0  0
  6  7  1  0  0  0  0
  7  8  1  0  0  0  0
  8  9  1  0  0  0  0
  9 10  1  0  0  0  0
 10 11  1  0  0  0  0
 11 12  1  0  0  0  0
 12 13  1  0  0  0  0
 13 14  1  0  0  0  0
M  END
>  <CHROM.1>
-178.74579003,-62.78714842,82.83192451,-162.27368502,173.56584879,-176.69761002
53.33698446,64.15002610,-178.09796269,-61.65785376,-177.42010116,36.09350912
0.57084316,27.00437483,-2.09641137,0.66155830,1.34870616

>  <Name>
ligand

>  <RI>
0

>  <Rbt.Current_Directory>
/home/itssahil/PROJECTS/Mol_Feturizer/New_Systems/rnas/4E8Q

>  <Rbt.Executable>
rbdock ($Id: //depot/dev/client3/rdock/2013.1/src/exe/rbdock.cxx#4 $)

>  <Rbt.Library>
libRbt.so (2013.1, Build901 2013/11/27)

>  <Rbt.Parameter_File>
/export/apps/rDock/src/rDock_2013.1_src/data/scripts/dock_solv.prm

>  <Rbt.Receptor>
prm/blind_docking_80.prm

>  <SCORE>
-16.0106

>  <SCORE.INTER>
-3.58978

>  <SCORE.INTER.CONST>
1

>  <SCORE.INTER.POLAR>
0

>  <SCORE.INTER.ROT>
11

>  <SCORE.INTER.SOLV>
11.0102

>  <SCORE.INTER.VDW>
-16.9966

>  <SCORE.INTER.norm>
-0.256413

>  <SCORE.INTRA>
-12.4208

>  <SCORE.INTRA.DIHEDRAL>
-24.8455

>  <SCORE.INTRA.DIHEDRAL.0>
25.9209

>  <SCORE.INTRA.POLAR>
0

>  <SCORE.INTRA.POLAR.0>
0

>  <SCORE.INTRA.REPUL>
0

>  <SCORE.INTRA.REPUL.0>
0

>  <SCORE.INTRA.SOLV>
-1.10969

>  <SCORE.INTRA.SOLV.lig_0>
-47.4815

>  <SCORE.INTRA.VDW>
0.556758

>  <SCORE.INTRA.VDW.0>
-1.57492

>  <SCORE.INTRA.norm>
-0.887202

>  <SCORE.RESTR>
0

>  <SCORE.RESTR.CAVITY>
0

>  <SCORE.RESTR.norm>
0

>  <SCORE.SYSTEM>
0

>  <SCORE.SYSTEM.CONST>
0

>  <SCORE.SYSTEM.DIHEDRAL>
0

>  <SCORE.SYSTEM.SOLV>
0

>  <SCORE.SYSTEM.norm>
0

>  <SCORE.heavy>
14

>  <SCORE.norm>
-1.14362

>  <RMSD>
33.479

$$$$
ligand
 OpenBabel11021811493D
libRbt.so/2013.1/901 2013/11/27
 14 13  0  0  0  0  0  0  0  0999 V2000
   36.4686    1.6196   23.2058 N   0  0  0  0  0  0  0  0  0  0  0  0
   36.6612    0.6944   22.0958 C   0  0  0  0  0  0  0  0  0  0  0  0
   35.4770   -0.2896   21.9871 C   0  0  0  0  0  0  0  0  0  0  0  0
   35.3579   -1.2832   23.1598 C   0  0  0  0  0  0  0  0  0  0  0  0
   35.0277   -0.7490   24.4896 N   0  0  0  0  0  0  0  0  0  0  0  0
   35.1337   -1.5873   25.6890 C   0  0  0  0  0  0  0  0  0  0  0  0
   34.3965   -1.0553   26.9215 C   0  0  0  0  0  0  0  0  0  0  0  0
   34.8905    0.3343   27.3583 C   0  0  0  0  0  0  0  0  0  0  0  0
   34.1824    0.8835   28.6071 C   0  0  0  0  0  0  0  0  0  0  0  0
   34.3946    0.0997   29.8261 N   0  0  0  0  0  0  0  0  0  0  0  0
   35.5410    0.4138   30.6964 C   0  0  0  0  0  0  0  0  0  0  0  0
   36.9405   -0.0110   30.1918 C   0  0  0  0  0  0  0  0  0  0  0  0
   38.1204    0.3161   31.1293 C   0  0  0  0  0  0  0  0  0  0  0  0
   38.0297   -0.3609   32.4196 N   0  0  0  0  0  0  0  0  0  0  0  0
  1  2  1  0  0  0  0
  2  3  1  0  0  0  0
  3  4  1  0  0  0  0
  4  5  1  0  0  0  0
  5  6  1  0  0  0  0
  6  7  1  0  0  0  0
  7  8  1  0  0  0  0
  8  9  1  0  0  0  0
  9 10  1  0  0  0  0
 10 11  1  0  0  0  0
 11 12  1  0  0  0  0
 12 13  1  0  0  0  0
 13 14  1  0  0  0  0
M  END
>  <CHROM.1>
-67.20092475,66.53593461,-168.88508574,-163.28675060,-59.35085824,-179.09398414
63.51898018,89.46667772,-73.90975811,-179.35512672,62.10207172,35.75859417
-0.06973116,26.98387951,-1.68989633,0.27712432,1.57889992

>  <Name>
ligand

>  <RI>
0

>  <Rbt.Current_Directory>
/home/itssahil/PROJECTS/Mol_Feturizer/New_Systems/rnas/4E8Q

>  <Rbt.Executable>
rbdock ($Id: //depot/dev/client3/rdock/2013.1/src/exe/rbdock.cxx#4 $)

>  <Rbt.Library>
libRbt.so (2013.1, Build901 2013/11/27)

>  <Rbt.Parameter_File>
/export/apps/rDock/src/rDock_2013.1_src/data/scripts/dock_solv.prm

>  <Rbt.Receptor>
prm/blind_docking_60.prm

>  <SCORE>
-11.7374

>  <SCORE.INTER>
-0.660046

>  <SCORE.INTER.CONST>
1

>  <SCORE.INTER.POLAR>
0

>  <SCORE.INTER.ROT>
11

>  <SCORE.INTER.SOLV>
9.62289

>  <SCORE.INTER.VDW>
-14.581

>  <SCORE.INTER.norm>
-0.0471462

>  <SCORE.INTRA>
-11.0774

>  <SCORE.INTRA.DIHEDRAL>
-24.4473

>  <SCORE.INTRA.DIHEDRAL.0>
25.9209

>  <SCORE.INTRA.POLAR>
0

>  <SCORE.INTRA.POLAR.0>
0

>  <SCORE.INTRA.REPUL>
0

>  <SCORE.INTRA.REPUL.0>
0

>  <SCORE.INTRA.SOLV>
1.88574

>  <SCORE.INTRA.SOLV.lig_0>
-47.4815

>  <SCORE.INTRA.VDW>
0.203406

>  <SCORE.INTRA.VDW.0>
-1.57492

>  <SCORE.INTRA.norm>
-0.79124

>  <SCORE.RESTR>
0

>  <SCORE.RESTR.CAVITY>
0

>  <SCORE.RESTR.norm>
0

>  <SCORE.SYSTEM>
0

>  <SCORE.SYSTEM.CONST>
0

>  <SCORE.SYSTEM.DIHEDRAL>
0

>  <SCORE.SYSTEM.SOLV>
0

>  <SCORE.SYSTEM.norm>
0

>  <SCORE.heavy>
14

>  <SCORE.norm>
-0.838386

>  <RMSD>
33.655

$$$$
ligand
 OpenBabel11021811493D
libRbt.so/2013.1/901 2013/11/27
 14 13  0  0  0  0  0  0  0  0999 V2000
   34.8535   -1.5427   22.8750 N   0  0  0  0  0  0  0  0  0  0  0  0
   35.3378   -0.8166   24.0427 C   0  0  0  0  0  0  0  0  0  0  0  0
   34.8725   -1.4981   25.3471 C   0  0  0  0  0  0  0  0  0  0  0  0
   35.2276   -0.7293   26.6354 C   0  0  0  0  0  0  0  0  0  0  0  0
   34.7070    0.6371   26.7926 N   0  0  0  0  0  0  0  0  0  0  0  0
   34.3966    1.1801   28.1197 C   0  0  0  0  0  0  0  0  0  0  0  0
   35.4702    2.0957   28.7151 C   0  0  0  0  0  0  0  0  0  0  0  0
   36.8282    1.3928   28.8812 C   0  0  0  0  0  0  0  0  0  0  0  0
   37.8671    2.2189   29.6565 C   0  0  0  0  0  0  0  0  0  0  0  0
   38.1954    3.5124   29.0527 N   0  0  0  0  0  0  0  0  0  0  0  0
   39.1023    4.4313   29.7624 C   0  0  0  0  0  0  0  0  0  0  0  0
   38.9515    5.9401   29.4552 C   0  0  0  0  0  0  0  0  0  0  0  0
   39.8656    6.8844   30.2619 C   0  0  0  0  0  0  0  0  0  0  0  0
   41.2851    6.6705   29.9960 N   0  0  0  0  0  0  0  0  0  0  0  0
  1  2  1  0  0  0  0
  2  3  1  0  0  0  0
  3  4  1  0  0  0  0
  4  5  1  0  0  0  0
  5  6  1  0  0  0  0
  6  7  1  0  0  0  0
  7  8  1  0  0  0  0
  8  9  1  0  0  0  0
  9 10  1  0  0  0  0
 10 11  1  0  0  0  0
 11 12  1  0  0  0  0
 12 13  1  0  0  0  0
 13 14  1  0  0  0  0
M  END
>  <CHROM.1>
-174.65534790,59.29342165,149.14787617,99.64613731,-59.55381947,-171.78896198
-59.63344095,175.42158766,-154.12982375,177.13795241,63.32093057,36.92560621
2.16969851,27.82837918,-2.29921064,0.70510119,1.15790926

>  <Name>
ligand

>  <RI>
0

>  <Rbt.Current_Directory>
/home/itssahil/PROJECTS/Mol_Feturizer/New_Systems/rnas/4E8Q

>  <Rbt.Executable>
rbdock ($Id: //depot/dev/client3/rdock/2013.1/src/exe/rbdock.cxx#4 $)

>  <Rbt.Library>
libRbt.so (2013.1, Build901 2013/11/27)

>  <Rbt.Parameter_File>
/export/apps/rDock/src/rDock_2013.1_src/data/scripts/dock_solv.prm

>  <Rbt.Receptor>
prm/blind_docking_100.prm

>  <SCORE>
-14.2668

>  <SCORE.INTER>
-2.60604

>  <SCORE.INTER.CONST>
1

>  <SCORE.INTER.POLAR>
0

>  <SCORE.INTER.ROT>
11

>  <SCORE.INTER.SOLV>
14.3785

>  <SCORE.INTER.VDW>
-17.4635

>  <SCORE.INTER.norm>
-0.186146

>  <SCORE.INTRA>
-11.6608

>  <SCORE.INTRA.DIHEDRAL>
-23.4539

>  <SCORE.INTRA.DIHEDRAL.0>
25.9209

>  <SCORE.INTRA.POLAR>
0

>  <SCORE.INTRA.POLAR.0>
0

>  <SCORE.INTRA.REPUL>
0

>  <SCORE.INTRA.REPUL.0>
0

>  <SCORE.INTRA.SOLV>
-0.448336

>  <SCORE.INTRA.SOLV.lig_0>
-47.4815

>  <SCORE.INTRA.VDW>
0.290342

>  <SCORE.INTRA.VDW.0>
-1.57492

>  <SCORE.INTRA.norm>
-0.832911

>  <SCORE.RESTR>
0

>  <SCORE.RESTR.CAVITY>
0

>  <SCORE.RESTR.norm>
0

>  <SCORE.SYSTEM>
0

>  <SCORE.SYSTEM.CONST>
0

>  <SCORE.SYSTEM.DIHEDRAL>
0

>  <SCORE.SYSTEM.SOLV>
0

>  <SCORE.SYSTEM.norm>
0

>  <SCORE.heavy>
14

>  <SCORE.norm>
-1.01906

>  <RMSD>
33.767

$$$$
ligand
 OpenBabel11021811493D
libRbt.so/2013.1/901 2013/11/27
 14 13  0  0  0  0  0  0  0  0999 V2000
   40.5362    2.6184   25.3940 N   0  0  0  0  0  0  0  0  0  0  0  0
   40.8699    2.7370   26.8081 C   0  0  0  0  0  0  0  0  0  0  0  0
   42.0523    3.7073   27.0155 C   0  0  0  0  0  0  0  0  0  0  0  0
   41.7598    5.1693   26.6235 C   0  0  0  0  0  0  0  0  0  0  0  0
   40.6860    5.8764   27.3374 N   0  0  0  0  0  0  0  0  0  0  0  0
   40.7773    6.1323   28.7792 C   0  0  0  0  0  0  0  0  0  0  0  0
   39.5698    6.8494   29.3901 C   0  0  0  0  0  0  0  0  0  0  0  0
   39.7140    7.0757   30.9046 C   0  0  0  0  0  0  0  0  0  0  0  0
   40.8126    8.0820   31.2828 C   0  0  0  0  0  0  0  0  0  0  0  0
   40.5226    9.4709   30.9190 N   0  0  0  0  0  0  0  0  0  0  0  0
   41.5329   10.5114   31.1782 C   0  0  0  0  0  0  0  0  0  0  0  0
   41.9767   10.7061   32.6474 C   0  0  0  0  0  0  0  0  0  0  0  0
   43.0062   11.8271   32.8952 C   0  0  0  0  0  0  0  0  0  0  0  0
   44.2605   11.6198   32.1774 N   0  0  0  0  0  0  0  0  0  0  0  0
  1  2  1  0  0  0  0
  2  3  1  0  0  0  0
  3  4  1  0  0  0  0
  4  5  1  0  0  0  0
  5  6  1  0  0  0  0
  6  7  1  0  0  0  0
  7  8  1  0  0  0  0
  8  9  1  0  0  0  0
  9 10  1  0  0  0  0
 10 11  1  0  0  0  0
 11 12  1  0  0  0  0
 12 13  1  0  0  0  0
 13 14  1  0  0  0  0
M  END
>  <CHROM.1>
64.79840458,61.04939103,63.34429467,-178.64345270,179.32613780,67.96620431
69.31776901,-177.21278885,-59.42927014,-178.39901968,-60.43201139,41.29112201
7.31303201,29.52539265,-1.73433484,0.33205834,0.71582814

>  <Name>
ligand

>  <RI>
0

>  <Rbt.Current_Directory>
/home/itssahil/PROJECTS/Mol_Feturizer/New_Systems/rnas/4E8Q

>  <Rbt.Executable>
rbdock ($Id: //depot/dev/client3/rdock/2013.1/src/exe/rbdock.cxx#4 $)

>  <Rbt.Library>
libRbt.so (2013.1, Build901 2013/11/27)

>  <Rbt.Parameter_File>
/export/apps/rDock/src/rDock_2013.1_src/data/scripts/dock_solv.prm

>  <Rbt.Receptor>
prm/blind_docking_60.prm

>  <SCORE>
-10.4897

>  <SCORE.INTER>
0.664145

>  <SCORE.INTER.CONST>
1

>  <SCORE.INTER.POLAR>
0

>  <SCORE.INTER.ROT>
11

>  <SCORE.INTER.SOLV>
6.19028

>  <SCORE.INTER.VDW>
-12.554

>  <SCORE.INTER.norm>
0.0474389

>  <SCORE.INTRA>
-11.1538

>  <SCORE.INTRA.DIHEDRAL>
-25.2163

>  <SCORE.INTRA.DIHEDRAL.0>
25.9209

>  <SCORE.INTRA.POLAR>
0

>  <SCORE.INTRA.POLAR.0>
0

>  <SCORE.INTRA.REPUL>
0

>  <SCORE.INTRA.REPUL.0>
0

>  <SCORE.INTRA.SOLV>
0.751607

>  <SCORE.INTRA.SOLV.lig_0>
-47.4815

>  <SCORE.INTRA.VDW>
1.07851

>  <SCORE.INTRA.VDW.0>
-1.57492

>  <SCORE.INTRA.norm>
-0.796702

>  <SCORE.RESTR>
0

>  <SCORE.RESTR.CAVITY>
0

>  <SCORE.RESTR.norm>
0

>  <SCORE.SYSTEM>
0

>  <SCORE.SYSTEM.CONST>
0

>  <SCORE.SYSTEM.DIHEDRAL>
0

>  <SCORE.SYSTEM.SOLV>
0

>  <SCORE.SYSTEM.norm>
0

>  <SCORE.heavy>
14

>  <SCORE.norm>
-0.749263

>  <RMSD>
33.852

$$$$
ligand
 OpenBabel11021811493D
libRbt.so/2013.1/901 2013/11/27
 14 13  0  0  0  0  0  0  0  0999 V2000
   43.6460    6.8250   33.1877 N   0  0  0  0  0  0  0  0  0  0  0  0
   42.4788    6.1070   32.6904 C   0  0  0  0  0  0  0  0  0  0  0  0
   42.2836    4.7785   33.4518 C   0  0  0  0  0  0  0  0  0  0  0  0
   41.0886    3.9318   32.9704 C   0  0  0  0  0  0  0  0  0  0  0  0
   41.1295    3.3896   31.6040 N   0  0  0  0  0  0  0  0  0  0  0  0
   40.8170    4.2341   30.4456 C   0  0  0  0  0  0  0  0  0  0  0  0
   39.9068    3.5884   29.3968 C   0  0  0  0  0  0  0  0  0  0  0  0
   38.5182    3.2290   29.9522 C   0  0  0  0  0  0  0  0  0  0  0  0
   37.6281    2.4648   28.9591 C   0  0  0  0  0  0  0  0  0  0  0  0
   38.1665    1.1749   28.5211 N   0  0  0  0  0  0  0  0  0  0  0  0
   37.9348    0.7282   27.1364 C   0  0  0  0  0  0  0  0  0  0  0  0
   38.6270    1.5377   26.0143 C   0  0  0  0  0  0  0  0  0  0  0  0
   40.1688    1.5457   26.0450 C   0  0  0  0  0  0  0  0  0  0  0  0
   40.7575    2.3418   24.9721 N   0  0  0  0  0  0  0  0  0  0  0  0
  1  2  1  0  0  0  0
  2  3  1  0  0  0  0
  3  4  1  0  0  0  0
  4  5  1  0  0  0  0
  5  6  1  0  0  0  0
  6  7  1  0  0  0  0
  7  8  1  0  0  0  0
  8  9  1  0  0  0  0
  9 10  1  0  0  0  0
 10 11  1  0  0  0  0
 11 12  1  0  0  0  0
 12 13  1  0  0  0  0
 13 14  1  0  0  0  0
M  END
>  <CHROM.1>
-178.62228065,64.85186385,-78.76330516,-135.81883421,61.99038945,-174.75102862
60.90582868,-144.44000615,67.18261627,62.17403731,-179.18106834,40.22478604
3.27682852,29.66767385,-1.05136175,-0.53562802,-1.83966107

>  <Name>
ligand

>  <RI>
0

>  <Rbt.Current_Directory>
/home/itssahil/PROJECTS/Mol_Feturizer/New_Systems/rnas/4E8Q

>  <Rbt.Executable>
rbdock ($Id: //depot/dev/client3/rdock/2013.1/src/exe/rbdock.cxx#4 $)

>  <Rbt.Library>
libRbt.so (2013.1, Build901 2013/11/27)

>  <Rbt.Parameter_File>
/export/apps/rDock/src/rDock_2013.1_src/data/scripts/dock_solv.prm

>  <Rbt.Receptor>
prm/blind_docking_60.prm

>  <SCORE>
-11.1882

>  <SCORE.INTER>
0.911376

>  <SCORE.INTER.CONST>
1

>  <SCORE.INTER.POLAR>
0

>  <SCORE.INTER.ROT>
11

>  <SCORE.INTER.SOLV>
7.99764

>  <SCORE.INTER.VDW>
-12.9916

>  <SCORE.INTER.norm>
0.0650983

>  <SCORE.INTRA>
-12.0996

>  <SCORE.INTRA.DIHEDRAL>
-23.585

>  <SCORE.INTRA.DIHEDRAL.0>
25.9209

>  <SCORE.INTRA.POLAR>
0

>  <SCORE.INTRA.POLAR.0>
0

>  <SCORE.INTRA.REPUL>
0

>  <SCORE.INTRA.REPUL.0>
0

>  <SCORE.INTRA.SOLV>
-0.764708

>  <SCORE.INTRA.SOLV.lig_0>
-47.4815

>  <SCORE.INTRA.VDW>
0.0752544

>  <SCORE.INTRA.VDW.0>
-1.57492

>  <SCORE.INTRA.norm>
-0.864256

>  <SCORE.RESTR>
0

>  <SCORE.RESTR.CAVITY>
0

>  <SCORE.RESTR.norm>
0

>  <SCORE.SYSTEM>
0

>  <SCORE.SYSTEM.CONST>
0

>  <SCORE.SYSTEM.DIHEDRAL>
0

>  <SCORE.SYSTEM.SOLV>
0

>  <SCORE.SYSTEM.norm>
0

>  <SCORE.heavy>
14

>  <SCORE.norm>
-0.799158

>  <RMSD>
33.922

$$$$
ligand
 OpenBabel11021811493D
libRbt.so/2013.1/901 2013/11/27
 14 13  0  0  0  0  0  0  0  0999 V2000
   35.3158   -0.8144   22.3445 N   0  0  0  0  0  0  0  0  0  0  0  0
   34.9478   -0.3885   23.6892 C   0  0  0  0  0  0  0  0  0  0  0  0
   35.1488   -1.5340   24.7041 C   0  0  0  0  0  0  0  0  0  0  0  0
   34.7904   -1.1729   26.1594 C   0  0  0  0  0  0  0  0  0  0  0  0
   35.4475   -0.0053   26.7655 N   0  0  0  0  0  0  0  0  0  0  0  0
   35.3932    0.2263   28.2133 C   0  0  0  0  0  0  0  0  0  0  0  0
   36.0455    1.5278   28.6886 C   0  0  0  0  0  0  0  0  0  0  0  0
   37.4972    1.6793   28.2032 C   0  0  0  0  0  0  0  0  0  0  0  0
   38.2227    2.9056   28.7799 C   0  0  0  0  0  0  0  0  0  0  0  0
   38.4454    2.8610   30.2269 N   0  0  0  0  0  0  0  0  0  0  0  0
   39.4560    1.9391   30.7741 C   0  0  0  0  0  0  0  0  0  0  0  0
   39.8707    2.1502   32.2495 C   0  0  0  0  0  0  0  0  0  0  0  0
   40.5482    3.4978   32.5705 C   0  0  0  0  0  0  0  0  0  0  0  0
   40.9129    3.6330   33.9777 N   0  0  0  0  0  0  0  0  0  0  0  0
  1  2  1  0  0  0  0
  2  3  1  0  0  0  0
  3  4  1  0  0  0  0
  4  5  1  0  0  0  0
  5  6  1  0  0  0  0
  6  7  1  0  0  0  0
  7  8  1  0  0  0  0
  8  9  1  0  0  0  0
  9 10  1  0  0  0  0
 10 11  1  0  0  0  0
 11 12  1  0  0  0  0
 12 13  1  0  0  0  0
 13 14  1  0  0  0  0
M  END
>  <CHROM.1>
179.72462886,-55.31184350,-166.26068505,-176.25447937,-53.57935813,-174.18931531
65.76305731,72.26485057,166.86740768,-62.92369923,179.95992485,37.28861843
1.17884775,28.38190200,-2.25153084,0.66021243,1.57763010

>  <Name>
ligand

>  <RI>
0

>  <Rbt.Current_Directory>
/home/itssahil/PROJECTS/Mol_Feturizer/New_Systems/rnas/4E8Q

>  <Rbt.Executable>
rbdock ($Id: //depot/dev/client3/rdock/2013.1/src/exe/rbdock.cxx#4 $)

>  <Rbt.Library>
libRbt.so (2013.1, Build901 2013/11/27)

>  <Rbt.Parameter_File>
/export/apps/rDock/src/rDock_2013.1_src/data/scripts/dock_solv.prm

>  <Rbt.Receptor>
prm/blind_docking_100.prm

>  <SCORE>
-12.3965

>  <SCORE.INTER>
0.0494284

>  <SCORE.INTER.CONST>
1

>  <SCORE.INTER.POLAR>
0

>  <SCORE.INTER.ROT>
11

>  <SCORE.INTER.SOLV>
13.9375

>  <SCORE.INTER.VDW>
-15.5462

>  <SCORE.INTER.norm>
0.0035306

>  <SCORE.INTRA>
-12.4459

>  <SCORE.INTRA.DIHEDRAL>
-24.9698

>  <SCORE.INTRA.DIHEDRAL.0>
25.9209

>  <SCORE.INTRA.POLAR>
0

>  <SCORE.INTRA.POLAR.0>
0

>  <SCORE.INTRA.REPUL>
0

>  <SCORE.INTRA.REPUL.0>
0

>  <SCORE.INTRA.SOLV>
-0.785462

>  <SCORE.INTRA.SOLV.lig_0>
-47.4815

>  <SCORE.INTRA.VDW>
0.431746

>  <SCORE.INTRA.VDW.0>
-1.57492

>  <SCORE.INTRA.norm>
-0.888992

>  <SCORE.RESTR>
0

>  <SCORE.RESTR.CAVITY>
0

>  <SCORE.RESTR.norm>
0

>  <SCORE.SYSTEM>
0

>  <SCORE.SYSTEM.CONST>
0

>  <SCORE.SYSTEM.DIHEDRAL>
0

>  <SCORE.SYSTEM.SOLV>
0

>  <SCORE.SYSTEM.norm>
0

>  <SCORE.heavy>
14

>  <SCORE.norm>
-0.885461

>  <RMSD>
34.000

$$$$
ligand
 OpenBabel11021811493D
libRbt.so/2013.1/901 2013/11/27
 14 13  0  0  0  0  0  0  0  0999 V2000
   26.6743   -4.8645   24.4737 N   0  0  0  0  0  0  0  0  0  0  0  0
   27.5364   -5.2507   25.5840 C   0  0  0  0  0  0  0  0  0  0  0  0
   28.8855   -4.5036   25.5197 C   0  0  0  0  0  0  0  0  0  0  0  0
   29.7186   -4.7899   24.2545 C   0  0  0  0  0  0  0  0  0  0  0  0
   30.9989   -4.0844   24.0937 N   0  0  0  0  0  0  0  0  0  0  0  0
   32.0777   -4.6520   23.2773 C   0  0  0  0  0  0  0  0  0  0  0  0
   33.0353   -3.6274   22.6618 C   0  0  0  0  0  0  0  0  0  0  0  0
   33.5531   -2.6041   23.6867 C   0  0  0  0  0  0  0  0  0  0  0  0
   34.5733   -1.6081   23.1124 C   0  0  0  0  0  0  0  0  0  0  0  0
   35.0026   -0.5643   24.0460 N   0  0  0  0  0  0  0  0  0  0  0  0
   35.3739   -0.9347   25.4227 C   0  0  0  0  0  0  0  0  0  0  0  0
   35.8047    0.2141   26.3651 C   0  0  0  0  0  0  0  0  0  0  0  0
   36.1341   -0.1944   27.8152 C   0  0  0  0  0  0  0  0  0  0  0  0
   36.5750    0.9276   28.6387 N   0  0  0  0  0  0  0  0  0  0  0  0
  1  2  1  0  0  0  0
  2  3  1  0  0  0  0
  3  4  1  0  0  0  0
  4  5  1  0  0  0  0
  5  6  1  0  0  0  0
  6  7  1  0  0  0  0
  7  8  1  0  0  0  0
  8  9  1  0  0  0  0
  9 10  1  0  0  0  0
 10 11  1  0  0  0  0
 11 12  1  0  0  0  0
 12 13  1  0  0  0  0
 13 14  1  0  0  0  0
M  END
>  <CHROM.1>
-61.51650192,178.06414071,154.64076743,152.84791975,49.20994361,176.97701627
175.64679627,46.01011178,-179.38435291,177.67047050,178.11268692,32.56748656
-2.60992719,24.92496071,2.73727045,-0.47256389,-1.94927842

>  <Name>
ligand

>  <RI>
0

>  <Rbt.Current_Directory>
/home/itssahil/PROJECTS/Mol_Feturizer/New_Systems/rnas/4E8Q

>  <Rbt.Executable>
rbdock ($Id: //depot/dev/client3/rdock/2013.1/src/exe/rbdock.cxx#4 $)

>  <Rbt.Library>
libRbt.so (2013.1, Build901 2013/11/27)

>  <Rbt.Parameter_File>
/export/apps/rDock/src/rDock_2013.1_src/data/scripts/dock_solv.prm

>  <Rbt.Receptor>
prm/blind_docking_100.prm

>  <SCORE>
-16.6839

>  <SCORE.INTER>
-5.46783

>  <SCORE.INTER.CONST>
1

>  <SCORE.INTER.POLAR>
0

>  <SCORE.INTER.ROT>
11

>  <SCORE.INTER.SOLV>
14.3746

>  <SCORE.INTER.VDW>
-19.3701

>  <SCORE.INTER.norm>
-0.390559

>  <SCORE.INTRA>
-11.2161

>  <SCORE.INTRA.DIHEDRAL>
-24.2048

>  <SCORE.INTRA.DIHEDRAL.0>
25.9209

>  <SCORE.INTRA.POLAR>
0

>  <SCORE.INTRA.POLAR.0>
0

>  <SCORE.INTRA.REPUL>
0

>  <SCORE.INTRA.REPUL.0>
0

>  <SCORE.INTRA.SOLV>
-0.996187

>  <SCORE.INTRA.SOLV.lig_0>
-47.4815

>  <SCORE.INTRA.VDW>
1.38443

>  <SCORE.INTRA.VDW.0>
-1.57492

>  <SCORE.INTRA.norm>
-0.801149

>  <SCORE.RESTR>
0

>  <SCORE.RESTR.CAVITY>
0

>  <SCORE.RESTR.norm>
0

>  <SCORE.SYSTEM>
0

>  <SCORE.SYSTEM.CONST>
0

>  <SCORE.SYSTEM.DIHEDRAL>
0

>  <SCORE.SYSTEM.SOLV>
0

>  <SCORE.SYSTEM.norm>
0

>  <SCORE.heavy>
14

>  <SCORE.norm>
-1.19171

>  <RMSD>
34.179

$$$$
ligand
 OpenBabel11021811493D
libRbt.so/2013.1/901 2013/11/27
 14 13  0  0  0  0  0  0  0  0999 V2000
   40.3717    1.9070   24.8266 N   0  0  0  0  0  0  0  0  0  0  0  0
   40.1109    1.4714   26.1931 C   0  0  0  0  0  0  0  0  0  0  0  0
   38.6063    1.5675   26.5241 C   0  0  0  0  0  0  0  0  0  0  0  0
   38.2392    1.1670   27.9668 C   0  0  0  0  0  0  0  0  0  0  0  0
   38.7679    1.9849   29.0687 N   0  0  0  0  0  0  0  0  0  0  0  0
   38.7111    1.5119   30.4564 C   0  0  0  0  0  0  0  0  0  0  0  0
   39.4056    2.4147   31.4801 C   0  0  0  0  0  0  0  0  0  0  0  0
   40.8906    2.6511   31.1565 C   0  0  0  0  0  0  0  0  0  0  0  0
   41.6133    3.5540   32.1689 C   0  0  0  0  0  0  0  0  0  0  0  0
   41.0642    4.9070   32.2843 N   0  0  0  0  0  0  0  0  0  0  0  0
   41.0727    5.7927   31.1070 C   0  0  0  0  0  0  0  0  0  0  0  0
   40.9017    7.3078   31.3692 C   0  0  0  0  0  0  0  0  0  0  0  0
   42.0480    7.9890   32.1438 C   0  0  0  0  0  0  0  0  0  0  0  0
   41.8975    9.4387   32.2290 N   0  0  0  0  0  0  0  0  0  0  0  0
  1  2  1  0  0  0  0
  2  3  1  0  0  0  0
  3  4  1  0  0  0  0
  4  5  1  0  0  0  0
  5  6  1  0  0  0  0
  6  7  1  0  0  0  0
  7  8  1  0  0  0  0
  8  9  1  0  0  0  0
  9 10  1  0  0  0  0
 10 11  1  0  0  0  0
 11 12  1  0  0  0  0
 12 13  1  0  0  0  0
 13 14  1  0  0  0  0
M  END
>  <CHROM.1>
-178.22066964,64.00971217,-166.59014668,175.01214235,-57.32739889,-179.96717286
-60.71109697,-61.68518552,-161.60731787,65.82650323,173.62609390,40.26422433
3.83289500,29.92688837,-2.47899409,1.19178810,1.58029045

>  <Name>
ligand

>  <RI>
0

>  <Rbt.Current_Directory>
/home/itssahil/PROJECTS/Mol_Feturizer/New_Systems/rnas/4E8Q

>  <Rbt.Executable>
rbdock ($Id: //depot/dev/client3/rdock/2013.1/src/exe/rbdock.cxx#4 $)

>  <Rbt.Library>
libRbt.so (2013.1, Build901 2013/11/27)

>  <Rbt.Parameter_File>
/export/apps/rDock/src/rDock_2013.1_src/data/scripts/dock_solv.prm

>  <Rbt.Receptor>
prm/blind_docking_100.prm

>  <SCORE>
-10.6617

>  <SCORE.INTER>
1.78485

>  <SCORE.INTER.CONST>
1

>  <SCORE.INTER.POLAR>
0

>  <SCORE.INTER.ROT>
11

>  <SCORE.INTER.SOLV>
8.59897

>  <SCORE.INTER.VDW>
-12.6098

>  <SCORE.INTER.norm>
0.127489

>  <SCORE.INTRA>
-12.4466

>  <SCORE.INTRA.DIHEDRAL>
-25.1177

>  <SCORE.INTRA.DIHEDRAL.0>
25.9209

>  <SCORE.INTRA.POLAR>
0

>  <SCORE.INTRA.POLAR.0>
0

>  <SCORE.INTRA.REPUL>
0

>  <SCORE.INTRA.REPUL.0>
0

>  <SCORE.INTRA.SOLV>
-0.81266

>  <SCORE.INTRA.SOLV.lig_0>
-47.4815

>  <SCORE.INTRA.VDW>
0.518619

>  <SCORE.INTRA.VDW.0>
-1.57492

>  <SCORE.INTRA.norm>
-0.889041

>  <SCORE.RESTR>
0

>  <SCORE.RESTR.CAVITY>
0

>  <SCORE.RESTR.norm>
0

>  <SCORE.SYSTEM>
0

>  <SCORE.SYSTEM.CONST>
0

>  <SCORE.SYSTEM.DIHEDRAL>
0

>  <SCORE.SYSTEM.SOLV>
0

>  <SCORE.SYSTEM.norm>
0

>  <SCORE.heavy>
14

>  <SCORE.norm>
-0.761552

>  <RMSD>
34.279

$$$$
ligand
 OpenBabel11021811493D
libRbt.so/2013.1/901 2013/11/27
 14 13  0  0  0  0  0  0  0  0999 V2000
   28.2337   -5.1437   24.6596 N   0  0  0  0  0  0  0  0  0  0  0  0
   29.2756   -4.6182   25.5334 C   0  0  0  0  0  0  0  0  0  0  0  0
   30.4120   -3.9749   24.7104 C   0  0  0  0  0  0  0  0  0  0  0  0
   31.1002   -4.9268   23.7120 C   0  0  0  0  0  0  0  0  0  0  0  0
   32.0237   -4.3465   22.7255 N   0  0  0  0  0  0  0  0  0  0  0  0
   33.3922   -3.9723   23.0994 C   0  0  0  0  0  0  0  0  0  0  0  0
   33.5332   -2.5974   23.7591 C   0  0  0  0  0  0  0  0  0  0  0  0
   34.9931   -2.2389   24.0845 C   0  0  0  0  0  0  0  0  0  0  0  0
   35.1477   -0.9749   24.9453 C   0  0  0  0  0  0  0  0  0  0  0  0
   34.6503   -1.1033   26.3170 N   0  0  0  0  0  0  0  0  0  0  0  0
   34.6551    0.0758   27.2004 C   0  0  0  0  0  0  0  0  0  0  0  0
   34.7611   -0.1889   28.7210 C   0  0  0  0  0  0  0  0  0  0  0  0
   34.7975    1.0636   29.6198 C   0  0  0  0  0  0  0  0  0  0  0  0
   34.9533    0.7461   31.0363 N   0  0  0  0  0  0  0  0  0  0  0  0
  1  2  1  0  0  0  0
  2  3  1  0  0  0  0
  3  4  1  0  0  0  0
  4  5  1  0  0  0  0
  5  6  1  0  0  0  0
  6  7  1  0  0  0  0
  7  8  1  0  0  0  0
  8  9  1  0  0  0  0
  9 10  1  0  0  0  0
 10 11  1  0  0  0  0
 11 12  1  0  0  0  0
 12 13  1  0  0  0  0
 13 14  1  0  0  0  0
M  END
>  <CHROM.1>
-58.76202891,169.38344542,78.63798278,-82.91000641,-178.01668589,-170.71504724
67.75605109,-175.45361291,-152.64157188,178.61002031,-177.63066733,32.99512637
-2.29994486,25.72292386,2.21294725,-0.47286350,-2.02949237

>  <Name>
ligand

>  <RI>
0

>  <Rbt.Current_Directory>
/home/itssahil/PROJECTS/Mol_Feturizer/New_Systems/rnas/4E8Q

>  <Rbt.Executable>
rbdock ($Id: //depot/dev/client3/rdock/2013.1/src/exe/rbdock.cxx#4 $)

>  <Rbt.Library>
libRbt.so (2013.1, Build901 2013/11/27)

>  <Rbt.Parameter_File>
/export/apps/rDock/src/rDock_2013.1_src/data/scripts/dock_solv.prm

>  <Rbt.Receptor>
prm/blind_docking_60.prm

>  <SCORE>
-16.7739

>  <SCORE.INTER>
-4.91037

>  <SCORE.INTER.CONST>
1

>  <SCORE.INTER.POLAR>
0

>  <SCORE.INTER.ROT>
11

>  <SCORE.INTER.SOLV>
15.4688

>  <SCORE.INTER.VDW>
-19.3632

>  <SCORE.INTER.norm>
-0.350741

>  <SCORE.INTRA>
-11.8635

>  <SCORE.INTRA.DIHEDRAL>
-23.6969

>  <SCORE.INTRA.DIHEDRAL.0>
25.9209

>  <SCORE.INTRA.POLAR>
0

>  <SCORE.INTRA.POLAR.0>
0

>  <SCORE.INTRA.REPUL>
0

>  <SCORE.INTRA.REPUL.0>
0

>  <SCORE.INTRA.SOLV>
-0.983671

>  <SCORE.INTRA.SOLV.lig_0>
-47.4815

>  <SCORE.INTRA.VDW>
0.476761

>  <SCORE.INTRA.VDW.0>
-1.57492

>  <SCORE.INTRA.norm>
-0.847393

>  <SCORE.RESTR>
0

>  <SCORE.RESTR.CAVITY>
0

>  <SCORE.RESTR.norm>
0

>  <SCORE.SYSTEM>
0

>  <SCORE.SYSTEM.CONST>
0

>  <SCORE.SYSTEM.DIHEDRAL>
0

>  <SCORE.SYSTEM.SOLV>
0

>  <SCORE.SYSTEM.norm>
0

>  <SCORE.heavy>
14

>  <SCORE.norm>
-1.19813

>  <RMSD>
34.458

$$$$
ligand
 OpenBabel11021811493D
libRbt.so/2013.1/901 2013/11/27
 14 13  0  0  0  0  0  0  0  0999 V2000
   35.0972    0.0479   29.4285 N   0  0  0  0  0  0  0  0  0  0  0  0
   34.1721    0.5904   28.4410 C   0  0  0  0  0  0  0  0  0  0  0  0
   34.7443    0.4493   27.0144 C   0  0  0  0  0  0  0  0  0  0  0  0
   34.8457   -1.0017   26.5036 C   0  0  0  0  0  0  0  0  0  0  0  0
   35.4335   -1.2289   25.1748 N   0  0  0  0  0  0  0  0  0  0  0  0
   34.9530   -2.3130   24.3107 C   0  0  0  0  0  0  0  0  0  0  0  0
   33.7618   -1.9535   23.4179 C   0  0  0  0  0  0  0  0  0  0  0  0
   33.3158   -3.1201   22.5202 C   0  0  0  0  0  0  0  0  0  0  0  0
   32.7234   -4.3098   23.2924 C   0  0  0  0  0  0  0  0  0  0  0  0
   31.5688   -3.9815   24.1318 N   0  0  0  0  0  0  0  0  0  0  0  0
   30.3456   -4.7961   24.0282 C   0  0  0  0  0  0  0  0  0  0  0  0
   29.2668   -4.5809   25.1160 C   0  0  0  0  0  0  0  0  0  0  0  0
   27.9805   -5.4173   24.9610 C   0  0  0  0  0  0  0  0  0  0  0  0
   27.0038   -5.1642   26.0162 N   0  0  0  0  0  0  0  0  0  0  0  0
  1  2  1  0  0  0  0
  2  3  1  0  0  0  0
  3  4  1  0  0  0  0
  4  5  1  0  0  0  0
  5  6  1  0  0  0  0
  6  7  1  0  0  0  0
  7  8  1  0  0  0  0
  8  9  1  0  0  0  0
  9 10  1  0  0  0  0
 10 11  1  0  0  0  0
 11 12  1  0  0  0  0
 12 13  1  0  0  0  0
 13 14  1  0  0  0  0
M  END
>  <CHROM.1>
68.13895288,-177.47529494,-145.93901869,87.10090293,179.13304893,66.78790013
57.54814501,129.87602003,168.61428295,178.34074850,-179.83528993,32.51526734
-2.62712343,25.31085263,0.56989158,0.47031806,1.08512010

>  <Name>
ligand

>  <RI>
0

>  <Rbt.Current_Directory>
/home/itssahil/PROJECTS/Mol_Feturizer/New_Systems/rnas/4E8Q

>  <Rbt.Executable>
rbdock ($Id: //depot/dev/client3/rdock/2013.1/src/exe/rbdock.cxx#4 $)

>  <Rbt.Library>
libRbt.so (2013.1, Build901 2013/11/27)

>  <Rbt.Parameter_File>
/export/apps/rDock/src/rDock_2013.1_src/data/scripts/dock_solv.prm

>  <Rbt.Receptor>
prm/blind_docking_80.prm

>  <SCORE>
-17.5989

>  <SCORE.INTER>
-6.44306

>  <SCORE.INTER.CONST>
1

>  <SCORE.INTER.POLAR>
0

>  <SCORE.INTER.ROT>
11

>  <SCORE.INTER.SOLV>
16.4808

>  <SCORE.INTER.VDW>
-20.7223

>  <SCORE.INTER.norm>
-0.460218

>  <SCORE.INTRA>
-11.1558

>  <SCORE.INTRA.DIHEDRAL>
-22.9617

>  <SCORE.INTRA.DIHEDRAL.0>
25.9209

>  <SCORE.INTRA.POLAR>
0

>  <SCORE.INTRA.POLAR.0>
0

>  <SCORE.INTRA.REPUL>
0

>  <SCORE.INTRA.REPUL.0>
0

>  <SCORE.INTRA.SOLV>
-0.771741

>  <SCORE.INTRA.SOLV.lig_0>
-47.4815

>  <SCORE.INTRA.VDW>
0.710902

>  <SCORE.INTRA.VDW.0>
-1.57492

>  <SCORE.INTRA.norm>
-0.796845

>  <SCORE.RESTR>
0

>  <SCORE.RESTR.CAVITY>
0

>  <SCORE.RESTR.norm>
0

>  <SCORE.SYSTEM>
0

>  <SCORE.SYSTEM.CONST>
0

>  <SCORE.SYSTEM.DIHEDRAL>
0

>  <SCORE.SYSTEM.SOLV>
0

>  <SCORE.SYSTEM.norm>
0

>  <SCORE.heavy>
14

>  <SCORE.norm>
-1.25706

>  <RMSD>
34.498

$$$$
ligand
 OpenBabel11021811493D
libRbt.so/2013.1/901 2013/11/27
 14 13  0  0  0  0  0  0  0  0999 V2000
   44.0666    3.1602   35.3245 N   0  0  0  0  0  0  0  0  0  0  0  0
   43.3603    4.2576   34.6748 C   0  0  0  0  0  0  0  0  0  0  0  0
   43.9367    5.6204   35.1141 C   0  0  0  0  0  0  0  0  0  0  0  0
   45.3793    5.8899   34.6420 C   0  0  0  0  0  0  0  0  0  0  0  0
   45.6466    5.8885   33.1958 N   0  0  0  0  0  0  0  0  0  0  0  0
   45.1035    6.9372   32.3253 C   0  0  0  0  0  0  0  0  0  0  0  0
   43.6017    6.8351   32.0434 C   0  0  0  0  0  0  0  0  0  0  0  0
   43.0956    7.9393   31.0997 C   0  0  0  0  0  0  0  0  0  0  0  0
   43.5674    7.7811   29.6454 C   0  0  0  0  0  0  0  0  0  0  0  0
   42.8010    6.8156   28.8544 N   0  0  0  0  0  0  0  0  0  0  0  0
   42.9091    5.3795   29.1651 C   0  0  0  0  0  0  0  0  0  0  0  0
   42.4103    4.3899   28.0855 C   0  0  0  0  0  0  0  0  0  0  0  0
   42.5339    2.8936   28.4374 C   0  0  0  0  0  0  0  0  0  0  0  0
   41.7235    2.5087   29.5892 N   0  0  0  0  0  0  0  0  0  0  0  0
  1  2  1  0  0  0  0
  2  3  1  0  0  0  0
  3  4  1  0  0  0  0
  4  5  1  0  0  0  0
  5  6  1  0  0  0  0
  6  7  1  0  0  0  0
  7  8  1  0  0  0  0
  8  9  1  0  0  0  0
  9 10  1  0  0  0  0
 10 11  1  0  0  0  0
 11 12  1  0  0  0  0
 12 13  1  0  0  0  0
 13 14  1  0  0  0  0
M  END
>  <CHROM.1>
66.84701992,59.31726471,68.05332961,-73.83361804,-178.61857363,70.78573465
80.33886894,-69.15445194,-163.53030930,-179.94060905,63.21103928,43.58112309
5.45010574,31.58539465,0.63337368,1.16622823,2.40224732

>  <Name>
ligand

>  <RI>
0

>  <Rbt.Current_Directory>
/home/itssahil/PROJECTS/Mol_Feturizer/New_Systems/rnas/4E8Q

>  <Rbt.Executable>
rbdock ($Id: //depot/dev/client3/rdock/2013.1/src/exe/rbdock.cxx#4 $)

>  <Rbt.Library>
libRbt.so (2013.1, Build901 2013/11/27)

>  <Rbt.Parameter_File>
/export/apps/rDock/src/rDock_2013.1_src/data/scripts/dock_solv.prm

>  <Rbt.Receptor>
prm/blind_docking_100.prm

>  <SCORE>
-8.75832

>  <SCORE.INTER>
1.56526

>  <SCORE.INTER.CONST>
1

>  <SCORE.INTER.POLAR>
0

>  <SCORE.INTER.ROT>
11

>  <SCORE.INTER.SOLV>
13.4209

>  <SCORE.INTER.VDW>
-14.3635

>  <SCORE.INTER.norm>
0.111804

>  <SCORE.INTRA>
-10.3236

>  <SCORE.INTRA.DIHEDRAL>
-23.3193

>  <SCORE.INTRA.DIHEDRAL.0>
25.9209

>  <SCORE.INTRA.POLAR>
0

>  <SCORE.INTRA.POLAR.0>
0

>  <SCORE.INTRA.REPUL>
0

>  <SCORE.INTRA.REPUL.0>
0

>  <SCORE.INTRA.SOLV>
0.604849

>  <SCORE.INTRA.SOLV.lig_0>
-47.4815

>  <SCORE.INTRA.VDW>
1.03367

>  <SCORE.INTRA.VDW.0>
-1.57492

>  <SCORE.INTRA.norm>
-0.737398

>  <SCORE.RESTR>
0

>  <SCORE.RESTR.CAVITY>
0

>  <SCORE.RESTR.norm>
0

>  <SCORE.SYSTEM>
0

>  <SCORE.SYSTEM.CONST>
0

>  <SCORE.SYSTEM.DIHEDRAL>
0

>  <SCORE.SYSTEM.SOLV>
0

>  <SCORE.SYSTEM.norm>
0

>  <SCORE.heavy>
14

>  <SCORE.norm>
-0.625594

>  <RMSD>
34.689

$$$$
ligand
 OpenBabel11021811493D
libRbt.so/2013.1/901 2013/11/27
 14 13  0  0  0  0  0  0  0  0999 V2000
   44.4951    6.7767   30.8083 N   0  0  0  0  0  0  0  0  0  0  0  0
   44.8262    6.8326   32.2269 C   0  0  0  0  0  0  0  0  0  0  0  0
   44.1395    8.0367   32.9059 C   0  0  0  0  0  0  0  0  0  0  0  0
   42.5986    7.9907   32.8892 C   0  0  0  0  0  0  0  0  0  0  0  0
   41.9180    8.0415   31.5865 N   0  0  0  0  0  0  0  0  0  0  0  0
   40.7018    7.2596   31.3376 C   0  0  0  0  0  0  0  0  0  0  0  0
   40.1621    7.3343   29.9063 C   0  0  0  0  0  0  0  0  0  0  0  0
   38.9955    6.3633   29.6573 C   0  0  0  0  0  0  0  0  0  0  0  0
   39.3941    4.8802   29.7222 C   0  0  0  0  0  0  0  0  0  0  0  0
   38.2861    3.9397   29.5407 N   0  0  0  0  0  0  0  0  0  0  0  0
   38.5395    2.4933   29.6598 C   0  0  0  0  0  0  0  0  0  0  0  0
   37.3034    1.5629   29.6552 C   0  0  0  0  0  0  0  0  0  0  0  0
   36.4450    1.5930   28.3745 C   0  0  0  0  0  0  0  0  0  0  0  0
   35.3076    0.6792   28.4275 N   0  0  0  0  0  0  0  0  0  0  0  0
  1  2  1  0  0  0  0
  2  3  1  0  0  0  0
  3  4  1  0  0  0  0
  4  5  1  0  0  0  0
  5  6  1  0  0  0  0
  6  7  1  0  0  0  0
  7  8  1  0  0  0  0
  8  9  1  0  0  0  0
  9 10  1  0  0  0  0
 10 11  1  0  0  0  0
 11 12  1  0  0  0  0
 12 13  1  0  0  0  0
 13 14  1  0  0  0  0
M  END
>  <CHROM.1>
62.85953941,-63.87896785,142.97886830,-175.79813609,172.82095189,-66.55395172
177.67217555,-176.56528557,171.69877787,61.80428534,179.14000936,40.22241384
5.27043907,30.47857806,-0.70776821,0.35554754,-3.03467638

>  <Name>
ligand

>  <RI>
0

>  <Rbt.Current_Directory>
/home/itssahil/PROJECTS/Mol_Feturizer/New_Systems/rnas/4E8Q

>  <Rbt.Executable>
rbdock ($Id: //depot/dev/client3/rdock/2013.1/src/exe/rbdock.cxx#4 $)

>  <Rbt.Library>
libRbt.so (2013.1, Build901 2013/11/27)

>  <Rbt.Parameter_File>
/export/apps/rDock/src/rDock_2013.1_src/data/scripts/dock_solv.prm

>  <Rbt.Receptor>
prm/blind_docking_60.prm

>  <SCORE>
-12.4638

>  <SCORE.INTER>
-1.42955

>  <SCORE.INTER.CONST>
1

>  <SCORE.INTER.POLAR>
0

>  <SCORE.INTER.ROT>
11

>  <SCORE.INTER.SOLV>
11.9211

>  <SCORE.INTER.VDW>
-15.8601

>  <SCORE.INTER.norm>
-0.102111

>  <SCORE.INTRA>
-11.0343

>  <SCORE.INTRA.DIHEDRAL>
-24.531

>  <SCORE.INTRA.DIHEDRAL.0>
25.9209

>  <SCORE.INTRA.POLAR>
0

>  <SCORE.INTRA.POLAR.0>
0

>  <SCORE.INTRA.REPUL>
0

>  <SCORE.INTRA.REPUL.0>
0

>  <SCORE.INTRA.SOLV>
1.53048

>  <SCORE.INTRA.SOLV.lig_0>
-47.4815

>  <SCORE.INTRA.VDW>
0.465997

>  <SCORE.INTRA.VDW.0>
-1.57492

>  <SCORE.INTRA.norm>
-0.788163

>  <SCORE.RESTR>
0

>  <SCORE.RESTR.CAVITY>
0

>  <SCORE.RESTR.norm>
0

>  <SCORE.SYSTEM>
0

>  <SCORE.SYSTEM.CONST>
0

>  <SCORE.SYSTEM.DIHEDRAL>
0

>  <SCORE.SYSTEM.SOLV>
0

>  <SCORE.SYSTEM.norm>
0

>  <SCORE.heavy>
14

>  <SCORE.norm>
-0.890273

>  <RMSD>
34.809

$$$$
ligand
 OpenBabel11021811493D
libRbt.so/2013.1/901 2013/11/27
 14 13  0  0  0  0  0  0  0  0999 V2000
   40.8672    3.0370   33.6246 N   0  0  0  0  0  0  0  0  0  0  0  0
   41.6355    3.5048   32.4775 C   0  0  0  0  0  0  0  0  0  0  0  0
   40.7197    3.7279   31.2551 C   0  0  0  0  0  0  0  0  0  0  0  0
   41.4615    4.1024   29.9566 C   0  0  0  0  0  0  0  0  0  0  0  0
   42.3088    5.3045   29.9648 N   0  0  0  0  0  0  0  0  0  0  0  0
   43.0163    5.7393   28.7553 C   0  0  0  0  0  0  0  0  0  0  0  0
   43.9778    6.9151   28.9517 C   0  0  0  0  0  0  0  0  0  0  0  0
   45.1219    6.5933   29.9280 C   0  0  0  0  0  0  0  0  0  0  0  0
   44.7101    6.6396   31.4081 C   0  0  0  0  0  0  0  0  0  0  0  0
   44.2754    7.9556   31.8821 N   0  0  0  0  0  0  0  0  0  0  0  0
   43.2856    8.0408   32.9700 C   0  0  0  0  0  0  0  0  0  0  0  0
   42.7995    9.4553   33.3653 C   0  0  0  0  0  0  0  0  0  0  0  0
   42.1553   10.2843   32.2357 C   0  0  0  0  0  0  0  0  0  0  0  0
   40.9738    9.6469   31.6617 N   0  0  0  0  0  0  0  0  0  0  0  0
  1  2  1  0  0  0  0
  2  3  1  0  0  0  0
  3  4  1  0  0  0  0
  4  5  1  0  0  0  0
  5  6  1  0  0  0  0
  6  7  1  0  0  0  0
  7  8  1  0  0  0  0
  8  9  1  0  0  0  0
  9 10  1  0  0  0  0
 10 11  1  0  0  0  0
 11 12  1  0  0  0  0
 12 13  1  0  0  0  0
 13 14  1  0  0  0  0
M  END
>  <CHROM.1>
-174.77838930,-58.04618601,-178.42215622,-173.63255933,62.04510691,-77.74063533
-63.30859671,150.31702113,-176.22414043,57.91321530,59.87671628,42.66511633
6.49620204,31.31670125,2.00115607,-0.89144106,-2.67242106

>  <Name>
ligand

>  <RI>
0

>  <Rbt.Current_Directory>
/home/itssahil/PROJECTS/Mol_Feturizer/New_Systems/rnas/4E8Q

>  <Rbt.Executable>
rbdock ($Id: //depot/dev/client3/rdock/2013.1/src/exe/rbdock.cxx#4 $)

>  <Rbt.Library>
libRbt.so (2013.1, Build901 2013/11/27)

>  <Rbt.Parameter_File>
/export/apps/rDock/src/rDock_2013.1_src/data/scripts/dock_solv.prm

>  <Rbt.Receptor>
prm/blind_docking_60.prm

>  <SCORE>
-10.9481

>  <SCORE.INTER>
0.257883

>  <SCORE.INTER.CONST>
1

>  <SCORE.INTER.POLAR>
0

>  <SCORE.INTER.ROT>
11

>  <SCORE.INTER.SOLV>
8.72913

>  <SCORE.INTER.VDW>
-13.6711

>  <SCORE.INTER.norm>
0.0184202

>  <SCORE.INTRA>
-11.206

>  <SCORE.INTRA.DIHEDRAL>
-23.8656

>  <SCORE.INTRA.DIHEDRAL.0>
25.9209

>  <SCORE.INTRA.POLAR>
0

>  <SCORE.INTRA.POLAR.0>
0

>  <SCORE.INTRA.REPUL>
0

>  <SCORE.INTRA.REPUL.0>
0

>  <SCORE.INTRA.SOLV>
1.72228

>  <SCORE.INTRA.SOLV.lig_0>
-47.4815

>  <SCORE.INTRA.VDW>
-0.134335

>  <SCORE.INTRA.VDW.0>
-1.57492

>  <SCORE.INTRA.norm>
-0.800428

>  <SCORE.RESTR>
0

>  <SCORE.RESTR.CAVITY>
0

>  <SCORE.RESTR.norm>
0

>  <SCORE.SYSTEM>
0

>  <SCORE.SYSTEM.CONST>
0

>  <SCORE.SYSTEM.DIHEDRAL>
0

>  <SCORE.SYSTEM.SOLV>
0

>  <SCORE.SYSTEM.norm>
0

>  <SCORE.heavy>
14

>  <SCORE.norm>
-0.782008

>  <RMSD>
35.067

$$$$
ligand
 OpenBabel11021811493D
libRbt.so/2013.1/901 2013/11/27
 14 13  0  0  0  0  0  0  0  0999 V2000
   44.0517    7.7110   32.5948 N   0  0  0  0  0  0  0  0  0  0  0  0
   42.9942    6.7200   32.7519 C   0  0  0  0  0  0  0  0  0  0  0  0
   43.4878    5.5143   33.5797 C   0  0  0  0  0  0  0  0  0  0  0  0
   42.4391    4.4029   33.7840 C   0  0  0  0  0  0  0  0  0  0  0  0
   41.9766    3.6610   32.6014 N   0  0  0  0  0  0  0  0  0  0  0  0
   41.0250    4.2587   31.6582 C   0  0  0  0  0  0  0  0  0  0  0  0
   40.1432    3.2597   30.9033 C   0  0  0  0  0  0  0  0  0  0  0  0
   39.2169    3.9370   29.8789 C   0  0  0  0  0  0  0  0  0  0  0  0
   38.2685    2.9656   29.1581 C   0  0  0  0  0  0  0  0  0  0  0  0
   37.2648    2.3368   30.0199 N   0  0  0  0  0  0  0  0  0  0  0  0
   36.3243    1.3618   29.4408 C   0  0  0  0  0  0  0  0  0  0  0  0
   35.2284    1.9187   28.5015 C   0  0  0  0  0  0  0  0  0  0  0  0
   34.2300    0.8831   27.9459 C   0  0  0  0  0  0  0  0  0  0  0  0
   34.8724   -0.1628   27.1554 N   0  0  0  0  0  0  0  0  0  0  0  0
  1  2  1  0  0  0  0
  2  3  1  0  0  0  0
  3  4  1  0  0  0  0
  4  5  1  0  0  0  0
  5  6  1  0  0  0  0
  6  7  1  0  0  0  0
  7  8  1  0  0  0  0
  8  9  1  0  0  0  0
  9 10  1  0  0  0  0
 10 11  1  0  0  0  0
 11 12  1  0  0  0  0
 12 13  1  0  0  0  0
 13 14  1  0  0  0  0
M  END
>  <CHROM.1>
-179.27747393,65.38356501,-76.18661974,-152.41802101,-177.09538628,-176.99635468
65.98894168,-178.48728347,-71.36617936,-178.09076220,-60.23106298,39.39444089
3.48345017,30.71246010,0.15384325,-0.69950604,-0.55170022

>  <Name>
ligand

>  <RI>
0

>  <Rbt.Current_Directory>
/home/itssahil/PROJECTS/Mol_Feturizer/New_Systems/rnas/4E8Q

>  <Rbt.Executable>
rbdock ($Id: //depot/dev/client3/rdock/2013.1/src/exe/rbdock.cxx#4 $)

>  <Rbt.Library>
libRbt.so (2013.1, Build901 2013/11/27)

>  <Rbt.Parameter_File>
/export/apps/rDock/src/rDock_2013.1_src/data/scripts/dock_solv.prm

>  <Rbt.Receptor>
prm/blind_docking_60.prm

>  <SCORE>
-11.8402

>  <SCORE.INTER>
0.341092

>  <SCORE.INTER.CONST>
1

>  <SCORE.INTER.POLAR>
0

>  <SCORE.INTER.ROT>
11

>  <SCORE.INTER.SOLV>
10.9195

>  <SCORE.INTER.VDW>
-14.3458

>  <SCORE.INTER.norm>
0.0243637

>  <SCORE.INTRA>
-12.1813

>  <SCORE.INTRA.DIHEDRAL>
-24.7596

>  <SCORE.INTRA.DIHEDRAL.0>
25.9209

>  <SCORE.INTRA.POLAR>
0

>  <SCORE.INTRA.POLAR.0>
0

>  <SCORE.INTRA.REPUL>
0

>  <SCORE.INTRA.REPUL.0>
0

>  <SCORE.INTRA.SOLV>
-0.775115

>  <SCORE.INTRA.SOLV.lig_0>
-47.4815

>  <SCORE.INTRA.VDW>
0.586071

>  <SCORE.INTRA.VDW.0>
-1.57492

>  <SCORE.INTRA.norm>
-0.870093

>  <SCORE.RESTR>
0

>  <SCORE.RESTR.CAVITY>
0

>  <SCORE.RESTR.norm>
0

>  <SCORE.SYSTEM>
0

>  <SCORE.SYSTEM.CONST>
0

>  <SCORE.SYSTEM.DIHEDRAL>
0

>  <SCORE.SYSTEM.SOLV>
0

>  <SCORE.SYSTEM.norm>
0

>  <SCORE.heavy>
14

>  <SCORE.norm>
-0.84573

>  <RMSD>
35.225

$$$$
ligand
 OpenBabel11021811493D
libRbt.so/2013.1/901 2013/11/27
 14 13  0  0  0  0  0  0  0  0999 V2000
   34.6296   -0.3730   27.0795 N   0  0  0  0  0  0  0  0  0  0  0  0
   33.8915    0.5485   27.9347 C   0  0  0  0  0  0  0  0  0  0  0  0
   34.7910    1.7168   28.3911 C   0  0  0  0  0  0  0  0  0  0  0  0
   36.0139    1.2960   29.2303 C   0  0  0  0  0  0  0  0  0  0  0  0
   36.9164    2.3503   29.7166 N   0  0  0  0  0  0  0  0  0  0  0  0
   38.3644    2.1283   29.7978 C   0  0  0  0  0  0  0  0  0  0  0  0
   39.1241    3.1125   30.6920 C   0  0  0  0  0  0  0  0  0  0  0  0
   40.6299    2.8085   30.7688 C   0  0  0  0  0  0  0  0  0  0  0  0
   41.3841    3.6523   31.8089 C   0  0  0  0  0  0  0  0  0  0  0  0
   41.3657    5.0951   31.5570 N   0  0  0  0  0  0  0  0  0  0  0  0
   42.0019    6.0055   32.5249 C   0  0  0  0  0  0  0  0  0  0  0  0
   42.3532    7.4263   32.0236 C   0  0  0  0  0  0  0  0  0  0  0  0
   43.0060    8.3623   33.0608 C   0  0  0  0  0  0  0  0  0  0  0  0
   43.4051    9.6490   32.4980 N   0  0  0  0  0  0  0  0  0  0  0  0
  1  2  1  0  0  0  0
  2  3  1  0  0  0  0
  3  4  1  0  0  0  0
  4  5  1  0  0  0  0
  5  6  1  0  0  0  0
  6  7  1  0  0  0  0
  7  8  1  0  0  0  0
  8  9  1  0  0  0  0
  9 10  1  0  0  0  0
 10 11  1  0  0  0  0
 11 12  1  0  0  0  0
 12 13  1  0  0  0  0
 13 14  1  0  0  0  0
M  END
>  <CHROM.1>
-61.62958944,-179.42458939,-143.99445584,-162.37637045,178.45198473,-171.84101898
-62.35700337,177.07993741,161.17086124,179.45314011,175.57812542,39.13407799
3.84117626,30.50611551,2.44975903,0.45644738,-3.07300970

>  <Name>
ligand

>  <RI>
0

>  <Rbt.Current_Directory>
/home/itssahil/PROJECTS/Mol_Feturizer/New_Systems/rnas/4E8Q

>  <Rbt.Executable>
rbdock ($Id: //depot/dev/client3/rdock/2013.1/src/exe/rbdock.cxx#4 $)

>  <Rbt.Library>
libRbt.so (2013.1, Build901 2013/11/27)

>  <Rbt.Parameter_File>
/export/apps/rDock/src/rDock_2013.1_src/data/scripts/dock_solv.prm

>  <Rbt.Receptor>
prm/blind_docking_60.prm

>  <SCORE>
-11.9213

>  <SCORE.INTER>
0.311811

>  <SCORE.INTER.CONST>
1

>  <SCORE.INTER.POLAR>
0

>  <SCORE.INTER.ROT>
11

>  <SCORE.INTER.SOLV>
10.94

>  <SCORE.INTER.VDW>
-14.3721

>  <SCORE.INTER.norm>
0.0222722

>  <SCORE.INTRA>
-12.2331

>  <SCORE.INTRA.DIHEDRAL>
-24.2306

>  <SCORE.INTRA.DIHEDRAL.0>
25.9209

>  <SCORE.INTRA.POLAR>
0

>  <SCORE.INTRA.POLAR.0>
0

>  <SCORE.INTRA.REPUL>
0

>  <SCORE.INTRA.REPUL.0>
0

>  <SCORE.INTRA.SOLV>
-1.08577

>  <SCORE.INTRA.SOLV.lig_0>
-47.4815

>  <SCORE.INTRA.VDW>
0.42508

>  <SCORE.INTRA.VDW.0>
-1.57492

>  <SCORE.INTRA.norm>
-0.873795

>  <SCORE.RESTR>
0

>  <SCORE.RESTR.CAVITY>
0

>  <SCORE.RESTR.norm>
0

>  <SCORE.SYSTEM>
0

>  <SCORE.SYSTEM.CONST>
0

>  <SCORE.SYSTEM.DIHEDRAL>
0

>  <SCORE.SYSTEM.SOLV>
0

>  <SCORE.SYSTEM.norm>
0

>  <SCORE.heavy>
14

>  <SCORE.norm>
-0.851523

>  <RMSD>
35.236

$$$$
ligand
 OpenBabel11021811493D
libRbt.so/2013.1/901 2013/11/27
 14 13  0  0  0  0  0  0  0  0999 V2000
   38.2959   -2.0241   31.2861 N   0  0  0  0  0  0  0  0  0  0  0  0
   37.9696   -1.0623   30.2403 C   0  0  0  0  0  0  0  0  0  0  0  0
   37.1012    0.0851   30.7987 C   0  0  0  0  0  0  0  0  0  0  0  0
   36.6502    1.1192   29.7480 C   0  0  0  0  0  0  0  0  0  0  0  0
   37.6878    1.8708   29.0260 N   0  0  0  0  0  0  0  0  0  0  0  0
   38.3155    3.0558   29.6212 C   0  0  0  0  0  0  0  0  0  0  0  0
   39.4431    3.6794   28.7934 C   0  0  0  0  0  0  0  0  0  0  0  0
   40.0600    4.9187   29.4639 C   0  0  0  0  0  0  0  0  0  0  0  0
   39.1148    6.1291   29.5265 C   0  0  0  0  0  0  0  0  0  0  0  0
   39.7350    7.3664   30.0061 N   0  0  0  0  0  0  0  0  0  0  0  0
   40.0723    7.4989   31.4341 C   0  0  0  0  0  0  0  0  0  0  0  0
   41.1727    8.5224   31.8017 C   0  0  0  0  0  0  0  0  0  0  0  0
   40.8462    9.9983   31.4964 C   0  0  0  0  0  0  0  0  0  0  0  0
   41.9149   10.9127   31.8878 N   0  0  0  0  0  0  0  0  0  0  0  0
  1  2  1  0  0  0  0
  2  3  1  0  0  0  0
  3  4  1  0  0  0  0
  4  5  1  0  0  0  0
  5  6  1  0  0  0  0
  6  7  1  0  0  0  0
  7  8  1  0  0  0  0
  8  9  1  0  0  0  0
  9 10  1  0  0  0  0
 10 11  1  0  0  0  0
 11 12  1  0  0  0  0
 12 13  1  0  0  0  0
 13 14  1  0  0  0  0
M  END
>  <CHROM.1>
-177.27789403,-60.82716457,-82.19213120,176.10007057,179.83851874,-68.30889235
-172.66258893,-72.69182653,157.09018620,64.02834459,179.00577807,39.16984304
4.43356891,30.36636699,-2.32601005,-1.07479334,-0.57809345

>  <Name>
ligand

>  <RI>
0

>  <Rbt.Current_Directory>
/home/itssahil/PROJECTS/Mol_Feturizer/New_Systems/rnas/4E8Q

>  <Rbt.Executable>
rbdock ($Id: //depot/dev/client3/rdock/2013.1/src/exe/rbdock.cxx#4 $)

>  <Rbt.Library>
libRbt.so (2013.1, Build901 2013/11/27)

>  <Rbt.Parameter_File>
/export/apps/rDock/src/rDock_2013.1_src/data/scripts/dock_solv.prm

>  <Rbt.Receptor>
prm/blind_docking_80.prm

>  <SCORE>
-11.7538

>  <SCORE.INTER>
0.374868

>  <SCORE.INTER.CONST>
1

>  <SCORE.INTER.POLAR>
0

>  <SCORE.INTER.ROT>
11

>  <SCORE.INTER.SOLV>
10.9479

>  <SCORE.INTER.VDW>
-14.3327

>  <SCORE.INTER.norm>
0.0267763

>  <SCORE.INTRA>
-12.1286

>  <SCORE.INTRA.DIHEDRAL>
-24.4551

>  <SCORE.INTRA.DIHEDRAL.0>
25.9209

>  <SCORE.INTRA.POLAR>
0

>  <SCORE.INTRA.POLAR.0>
0

>  <SCORE.INTRA.REPUL>
0

>  <SCORE.INTRA.REPUL.0>
0

>  <SCORE.INTRA.SOLV>
-1.40337

>  <SCORE.INTRA.SOLV.lig_0>
-47.4815

>  <SCORE.INTRA.VDW>
0.800599

>  <SCORE.INTRA.VDW.0>
-1.57492

>  <SCORE.INTRA.norm>
-0.866332

>  <SCORE.RESTR>
0

>  <SCORE.RESTR.CAVITY>
0

>  <SCORE.RESTR.norm>
0

>  <SCORE.SYSTEM>
0

>  <SCORE.SYSTEM.CONST>
0

>  <SCORE.SYSTEM.DIHEDRAL>
0

>  <SCORE.SYSTEM.SOLV>
0

>  <SCORE.SYSTEM.norm>
0

>  <SCORE.heavy>
14

>  <SCORE.norm>
-0.839556

>  <RMSD>
35.274

$$$$
ligand
 OpenBabel11021811493D
libRbt.so/2013.1/901 2013/11/27
 14 13  0  0  0  0  0  0  0  0999 V2000
   38.9818    1.7785   35.6586 N   0  0  0  0  0  0  0  0  0  0  0  0
   38.9677    2.8915   34.7172 C   0  0  0  0  0  0  0  0  0  0  0  0
   39.6222    4.1448   35.3363 C   0  0  0  0  0  0  0  0  0  0  0  0
   41.1327    4.0100   35.6138 C   0  0  0  0  0  0  0  0  0  0  0  0
   42.0285    3.7736   34.4717 N   0  0  0  0  0  0  0  0  0  0  0  0
   42.0243    4.6689   33.3093 C   0  0  0  0  0  0  0  0  0  0  0  0
   40.9754    4.3436   32.2419 C   0  0  0  0  0  0  0  0  0  0  0  0
   41.1587    2.9432   31.6328 C   0  0  0  0  0  0  0  0  0  0  0  0
   40.0436    2.5374   30.6558 C   0  0  0  0  0  0  0  0  0  0  0  0
   39.8674    3.4421   29.5174 N   0  0  0  0  0  0  0  0  0  0  0  0
   39.0772    2.9968   28.3565 C   0  0  0  0  0  0  0  0  0  0  0  0
   39.8590    2.3814   27.1717 C   0  0  0  0  0  0  0  0  0  0  0  0
   39.0099    1.9463   25.9603 C   0  0  0  0  0  0  0  0  0  0  0  0
   39.8107    1.4061   24.8656 N   0  0  0  0  0  0  0  0  0  0  0  0
  1  2  1  0  0  0  0
  2  3  1  0  0  0  0
  3  4  1  0  0  0  0
  4  5  1  0  0  0  0
  5  6  1  0  0  0  0
  6  7  1  0  0  0  0
  7  8  1  0  0  0  0
  8  9  1  0  0  0  0
  9 10  1  0  0  0  0
 10 11  1  0  0  0  0
 11 12  1  0  0  0  0
 12 13  1  0  0  0  0
 13 14  1  0  0  0  0
M  END
>  <CHROM.1>
66.31252169,61.71973248,54.24606304,-85.51749566,-60.82475011,174.52087349
58.11353621,165.00599969,-94.92879062,-178.98757110,178.53928975,40.18280633
3.09048900,31.39361017,1.44105768,0.60376621,1.47753182

>  <Name>
ligand

>  <RI>
0

>  <Rbt.Current_Directory>
/home/itssahil/PROJECTS/Mol_Feturizer/New_Systems/rnas/4E8Q

>  <Rbt.Executable>
rbdock ($Id: //depot/dev/client3/rdock/2013.1/src/exe/rbdock.cxx#4 $)

>  <Rbt.Library>
libRbt.so (2013.1, Build901 2013/11/27)

>  <Rbt.Parameter_File>
/export/apps/rDock/src/rDock_2013.1_src/data/scripts/dock_solv.prm

>  <Rbt.Receptor>
prm/blind_docking_80.prm

>  <SCORE>
-8.82075

>  <SCORE.INTER>
2.86142

>  <SCORE.INTER.CONST>
1

>  <SCORE.INTER.POLAR>
0

>  <SCORE.INTER.ROT>
11

>  <SCORE.INTER.SOLV>
7.45923

>  <SCORE.INTER.VDW>
-11.5121

>  <SCORE.INTER.norm>
0.204387

>  <SCORE.INTRA>
-11.6822

>  <SCORE.INTRA.DIHEDRAL>
-24.1911

>  <SCORE.INTRA.DIHEDRAL.0>
25.9209

>  <SCORE.INTRA.POLAR>
0

>  <SCORE.INTRA.POLAR.0>
0

>  <SCORE.INTRA.REPUL>
0

>  <SCORE.INTRA.REPUL.0>
0

>  <SCORE.INTRA.SOLV>
0.162324

>  <SCORE.INTRA.SOLV.lig_0>
-47.4815

>  <SCORE.INTRA.VDW>
0.332197

>  <SCORE.INTRA.VDW.0>
-1.57492

>  <SCORE.INTRA.norm>
-0.834441

>  <SCORE.RESTR>
0

>  <SCORE.RESTR.CAVITY>
0

>  <SCORE.RESTR.norm>
0

>  <SCORE.SYSTEM>
0

>  <SCORE.SYSTEM.CONST>
0

>  <SCORE.SYSTEM.DIHEDRAL>
0

>  <SCORE.SYSTEM.SOLV>
0

>  <SCORE.SYSTEM.norm>
0

>  <SCORE.heavy>
14

>  <SCORE.norm>
-0.630054

>  <RMSD>
35.559

$$$$
ligand
 OpenBabel11021811493D
libRbt.so/2013.1/901 2013/11/27
 14 13  0  0  0  0  0  0  0  0999 V2000
   42.5486    9.5400   32.1392 N   0  0  0  0  0  0  0  0  0  0  0  0
   43.0132    8.6876   33.2267 C   0  0  0  0  0  0  0  0  0  0  0  0
   44.0829    7.6927   32.7282 C   0  0  0  0  0  0  0  0  0  0  0  0
   44.6058    6.7196   33.8036 C   0  0  0  0  0  0  0  0  0  0  0  0
   43.6540    5.7712   34.4013 N   0  0  0  0  0  0  0  0  0  0  0  0
   43.1423    4.6293   33.6353 C   0  0  0  0  0  0  0  0  0  0  0  0
   42.0173    4.9591   32.6498 C   0  0  0  0  0  0  0  0  0  0  0  0
   41.5091    3.7225   31.8893 C   0  0  0  0  0  0  0  0  0  0  0  0
   40.3801    4.0250   30.8911 C   0  0  0  0  0  0  0  0  0  0  0  0
   39.8771    2.8577   30.1631 N   0  0  0  0  0  0  0  0  0  0  0  0
   38.4655    2.8216   29.7430 C   0  0  0  0  0  0  0  0  0  0  0  0
   38.0120    1.5952   28.9161 C   0  0  0  0  0  0  0  0  0  0  0  0
   36.5248    1.5723   28.5090 C   0  0  0  0  0  0  0  0  0  0  0  0
   35.6207    1.4873   29.6521 N   0  0  0  0  0  0  0  0  0  0  0  0
  1  2  1  0  0  0  0
  2  3  1  0  0  0  0
  3  4  1  0  0  0  0
  4  5  1  0  0  0  0
  5  6  1  0  0  0  0
  6  7  1  0  0  0  0
  7  8  1  0  0  0  0
  8  9  1  0  0  0  0
  9 10  1  0  0  0  0
 10 11  1  0  0  0  0
 11 12  1  0  0  0  0
 12 13  1  0  0  0  0
 13 14  1  0  0  0  0
M  END
>  <CHROM.1>
-178.32839552,63.29165561,71.96076991,-79.31284964,-179.26295170,-179.92081907
-179.63735003,149.07003741,177.00232699,179.06965528,-64.14155311,40.96117510
4.72000816,31.59628076,0.55404583,-0.64779125,-0.13912143

>  <Name>
ligand

>  <RI>
0

>  <Rbt.Current_Directory>
/home/itssahil/PROJECTS/Mol_Feturizer/New_Systems/rnas/4E8Q

>  <Rbt.Executable>
rbdock ($Id: //depot/dev/client3/rdock/2013.1/src/exe/rbdock.cxx#4 $)

>  <Rbt.Library>
libRbt.so (2013.1, Build901 2013/11/27)

>  <Rbt.Parameter_File>
/export/apps/rDock/src/rDock_2013.1_src/data/scripts/dock_solv.prm

>  <Rbt.Receptor>
prm/blind_docking_60.prm

>  <SCORE>
-12.9932

>  <SCORE.INTER>
-0.394357

>  <SCORE.INTER.CONST>
1

>  <SCORE.INTER.POLAR>
0

>  <SCORE.INTER.ROT>
11

>  <SCORE.INTER.SOLV>
9.36393

>  <SCORE.INTER.VDW>
-14.3175

>  <SCORE.INTER.norm>
-0.0281683

>  <SCORE.INTRA>
-12.5988

>  <SCORE.INTRA.DIHEDRAL>
-24.767

>  <SCORE.INTRA.DIHEDRAL.0>
25.9209

>  <SCORE.INTRA.POLAR>
0

>  <SCORE.INTRA.POLAR.0>
0

>  <SCORE.INTRA.REPUL>
0

>  <SCORE.INTRA.REPUL.0>
0

>  <SCORE.INTRA.SOLV>
-1.12947

>  <SCORE.INTRA.SOLV.lig_0>
-47.4815

>  <SCORE.INTRA.VDW>
0.349411

>  <SCORE.INTRA.VDW.0>
-1.57492

>  <SCORE.INTRA.norm>
-0.899917

>  <SCORE.RESTR>
0

>  <SCORE.RESTR.CAVITY>
0

>  <SCORE.RESTR.norm>
0

>  <SCORE.SYSTEM>
0

>  <SCORE.SYSTEM.CONST>
0

>  <SCORE.SYSTEM.DIHEDRAL>
0

>  <SCORE.SYSTEM.SOLV>
0

>  <SCORE.SYSTEM.norm>
0

>  <SCORE.heavy>
14

>  <SCORE.norm>
-0.928085

>  <RMSD>
35.588

$$$$
ligand
 OpenBabel11021811493D
libRbt.so/2013.1/901 2013/11/27
 14 13  0  0  0  0  0  0  0  0999 V2000
   41.2839   10.2553   31.4306 N   0  0  0  0  0  0  0  0  0  0  0  0
   41.4580    8.8930   30.9417 C   0  0  0  0  0  0  0  0  0  0  0  0
   40.3842    7.9545   31.5321 C   0  0  0  0  0  0  0  0  0  0  0  0
   40.5370    6.4729   31.1341 C   0  0  0  0  0  0  0  0  0  0  0  0
   40.4443    6.1255   29.7081 N   0  0  0  0  0  0  0  0  0  0  0  0
   40.8842    4.8141   29.2190 C   0  0  0  0  0  0  0  0  0  0  0  0
   39.7850    3.9520   28.5914 C   0  0  0  0  0  0  0  0  0  0  0  0
   38.7164    3.5150   29.6077 C   0  0  0  0  0  0  0  0  0  0  0  0
   37.6191    2.6184   29.0121 C   0  0  0  0  0  0  0  0  0  0  0  0
   36.6588    2.0959   29.9870 N   0  0  0  0  0  0  0  0  0  0  0  0
   35.4375    1.4246   29.5093 C   0  0  0  0  0  0  0  0  0  0  0  0
   34.8051    0.3701   30.4482 C   0  0  0  0  0  0  0  0  0  0  0  0
   34.3850    0.8780   31.8424 C   0  0  0  0  0  0  0  0  0  0  0  0
   33.8213   -0.1712   32.6867 N   0  0  0  0  0  0  0  0  0  0  0  0
  1  2  1  0  0  0  0
  2  3  1  0  0  0  0
  3  4  1  0  0  0  0
  4  5  1  0  0  0  0
  5  6  1  0  0  0  0
  6  7  1  0  0  0  0
  7  8  1  0  0  0  0
  8  9  1  0  0  0  0
  9 10  1  0  0  0  0
 10 11  1  0  0  0  0
 11 12  1  0  0  0  0
 12 13  1  0  0  0  0
 13 14  1  0  0  0  0
M  END
>  <CHROM.1>
-176.66893712,-61.74298021,165.54946839,117.37727835,-66.01339535,-178.53246650
174.87459805,169.40072363,153.10705023,58.90634522,-178.83207000,38.30151594
4.22828064,30.40336757,0.58145012,0.70048848,0.75398158

>  <Name>
ligand

>  <RI>
0

>  <Rbt.Current_Directory>
/home/itssahil/PROJECTS/Mol_Feturizer/New_Systems/rnas/4E8Q

>  <Rbt.Executable>
rbdock ($Id: //depot/dev/client3/rdock/2013.1/src/exe/rbdock.cxx#4 $)

>  <Rbt.Library>
libRbt.so (2013.1, Build901 2013/11/27)

>  <Rbt.Parameter_File>
/export/apps/rDock/src/rDock_2013.1_src/data/scripts/dock_solv.prm

>  <Rbt.Receptor>
prm/blind_docking_100.prm

>  <SCORE>
-10.2824

>  <SCORE.INTER>
1.97723

>  <SCORE.INTER.CONST>
1

>  <SCORE.INTER.POLAR>
0

>  <SCORE.INTER.ROT>
11

>  <SCORE.INTER.SOLV>
9.18287

>  <SCORE.INTER.VDW>
-12.6761

>  <SCORE.INTER.norm>
0.141231

>  <SCORE.INTRA>
-12.2597

>  <SCORE.INTRA.DIHEDRAL>
-23.6634

>  <SCORE.INTRA.DIHEDRAL.0>
25.9209

>  <SCORE.INTRA.POLAR>
0

>  <SCORE.INTRA.POLAR.0>
0

>  <SCORE.INTRA.REPUL>
0

>  <SCORE.INTRA.REPUL.0>
0

>  <SCORE.INTRA.SOLV>
-1.18957

>  <SCORE.INTRA.SOLV.lig_0>
-47.4815

>  <SCORE.INTRA.VDW>
0.166844

>  <SCORE.INTRA.VDW.0>
-1.57492

>  <SCORE.INTRA.norm>
-0.87569

>  <SCORE.RESTR>
0

>  <SCORE.RESTR.CAVITY>
0

>  <SCORE.RESTR.norm>
0

>  <SCORE.SYSTEM>
0

>  <SCORE.SYSTEM.CONST>
0

>  <SCORE.SYSTEM.DIHEDRAL>
0

>  <SCORE.SYSTEM.SOLV>
0

>  <SCORE.SYSTEM.norm>
0

>  <SCORE.heavy>
14

>  <SCORE.norm>
-0.734459

>  <RMSD>
35.637

$$$$
ligand
 OpenBabel11021811493D
libRbt.so/2013.1/901 2013/11/27
 14 13  0  0  0  0  0  0  0  0999 V2000
   44.0197    9.4469   32.4065 N   0  0  0  0  0  0  0  0  0  0  0  0
   42.8523    9.7859   33.2112 C   0  0  0  0  0  0  0  0  0  0  0  0
   41.7245   10.3634   32.3296 C   0  0  0  0  0  0  0  0  0  0  0  0
   41.1701    9.3862   31.2740 C   0  0  0  0  0  0  0  0  0  0  0  0
   40.6441    8.0928   31.7358 N   0  0  0  0  0  0  0  0  0  0  0  0
   39.6890    7.3312   30.9232 C   0  0  0  0  0  0  0  0  0  0  0  0
   40.2207    6.0083   30.3642 C   0  0  0  0  0  0  0  0  0  0  0  0
   39.1775    5.2543   29.5221 C   0  0  0  0  0  0  0  0  0  0  0  0
   39.6645    3.8939   28.9980 C   0  0  0  0  0  0  0  0  0  0  0  0
   39.8599    2.8739   30.0308 N   0  0  0  0  0  0  0  0  0  0  0  0
   41.2031    2.6715   30.6011 C   0  0  0  0  0  0  0  0  0  0  0  0
   41.5519    3.4773   31.8749 C   0  0  0  0  0  0  0  0  0  0  0  0
   40.6305    3.2456   33.0895 C   0  0  0  0  0  0  0  0  0  0  0  0
   40.5947    1.8516   33.5219 N   0  0  0  0  0  0  0  0  0  0  0  0
  1  2  1  0  0  0  0
  2  3  1  0  0  0  0
  3  4  1  0  0  0  0
  4  5  1  0  0  0  0
  5  6  1  0  0  0  0
  6  7  1  0  0  0  0
  7  8  1  0  0  0  0
  8  9  1  0  0  0  0
  9 10  1  0  0  0  0
 10 11  1  0  0  0  0
 11 12  1  0  0  0  0
 12 13  1  0  0  0  0
 13 14  1  0  0  0  0
M  END
>  <CHROM.1>
62.95889514,56.43744722,157.74906579,112.91270964,179.98650205,-177.52447051
68.45950777,-95.32274900,91.91727789,58.74702052,58.76927366,40.92861721
5.97752088,31.41999555,-1.10784895,0.94187964,2.92052107

>  <Name>
ligand

>  <RI>
0

>  <Rbt.Current_Directory>
/home/itssahil/PROJECTS/Mol_Feturizer/New_Systems/rnas/4E8Q

>  <Rbt.Executable>
rbdock ($Id: //depot/dev/client3/rdock/2013.1/src/exe/rbdock.cxx#4 $)

>  <Rbt.Library>
libRbt.so (2013.1, Build901 2013/11/27)

>  <Rbt.Parameter_File>
/export/apps/rDock/src/rDock_2013.1_src/data/scripts/dock_solv.prm

>  <Rbt.Receptor>
prm/blind_docking_80.prm

>  <SCORE>
-10.6031

>  <SCORE.INTER>
-0.222945

>  <SCORE.INTER.CONST>
1

>  <SCORE.INTER.POLAR>
0

>  <SCORE.INTER.ROT>
11

>  <SCORE.INTER.SOLV>
9.03476

>  <SCORE.INTER.VDW>
-14.0935

>  <SCORE.INTER.norm>
-0.0159246

>  <SCORE.INTRA>
-10.3802

>  <SCORE.INTRA.DIHEDRAL>
-22.5887

>  <SCORE.INTRA.DIHEDRAL.0>
25.9209

>  <SCORE.INTRA.POLAR>
0

>  <SCORE.INTRA.POLAR.0>
0

>  <SCORE.INTRA.REPUL>
0

>  <SCORE.INTRA.REPUL.0>
0

>  <SCORE.INTRA.SOLV>
1.60165

>  <SCORE.INTRA.SOLV.lig_0>
-47.4815

>  <SCORE.INTRA.VDW>
0.11338

>  <SCORE.INTRA.VDW.0>
-1.57492

>  <SCORE.INTRA.norm>
-0.741441

>  <SCORE.RESTR>
0

>  <SCORE.RESTR.CAVITY>
0

>  <SCORE.RESTR.norm>
0

>  <SCORE.SYSTEM>
0

>  <SCORE.SYSTEM.CONST>
0

>  <SCORE.SYSTEM.DIHEDRAL>
0

>  <SCORE.SYSTEM.SOLV>
0

>  <SCORE.SYSTEM.norm>
0

>  <SCORE.heavy>
14

>  <SCORE.norm>
-0.757365

>  <RMSD>
35.675

$$$$
ligand
 OpenBabel11021811493D
libRbt.so/2013.1/901 2013/11/27
 14 13  0  0  0  0  0  0  0  0999 V2000
   41.5428   10.2984   29.8582 N   0  0  0  0  0  0  0  0  0  0  0  0
   41.3880   10.2804   31.3076 C   0  0  0  0  0  0  0  0  0  0  0  0
   41.3745    8.8324   31.8422 C   0  0  0  0  0  0  0  0  0  0  0  0
   40.1242    8.0171   31.4568 C   0  0  0  0  0  0  0  0  0  0  0  0
   39.9577    7.6281   30.0483 N   0  0  0  0  0  0  0  0  0  0  0  0
   39.3333    6.3511   29.6852 C   0  0  0  0  0  0  0  0  0  0  0  0
   39.9659    5.1124   30.3261 C   0  0  0  0  0  0  0  0  0  0  0  0
   39.3019    3.8012   29.8724 C   0  0  0  0  0  0  0  0  0  0  0  0
   39.7574    2.5652   30.6645 C   0  0  0  0  0  0  0  0  0  0  0  0
   41.2056    2.3464   30.6791 N   0  0  0  0  0  0  0  0  0  0  0  0
   41.8648    1.9581   31.9381 C   0  0  0  0  0  0  0  0  0  0  0  0
   42.1902    3.0935   32.9374 C   0  0  0  0  0  0  0  0  0  0  0  0
   40.9763    3.7569   33.6188 C   0  0  0  0  0  0  0  0  0  0  0  0
   40.2831    2.8657   34.5444 N   0  0  0  0  0  0  0  0  0  0  0  0
  1  2  1  0  0  0  0
  2  3  1  0  0  0  0
  3  4  1  0  0  0  0
  4  5  1  0  0  0  0
  5  6  1  0  0  0  0
  6  7  1  0  0  0  0
  7  8  1  0  0  0  0
  8  9  1  0  0  0  0
  9 10  1  0  0  0  0
 10 11  1  0  0  0  0
 11 12  1  0  0  0  0
 12 13  1  0  0  0  0
 13 14  1  0  0  0  0
M  END
>  <CHROM.1>
-68.98429290,69.64993500,145.72234505,-54.32085316,-178.03419933,-170.59627726
-55.35414114,137.09007457,-81.32905146,69.19472231,68.11285620,40.66179215
5.49322605,31.34139063,-1.56246700,1.12417233,2.91550891

>  <Name>
ligand

>  <RI>
0

>  <Rbt.Current_Directory>
/home/itssahil/PROJECTS/Mol_Feturizer/New_Systems/rnas/4E8Q

>  <Rbt.Executable>
rbdock ($Id: //depot/dev/client3/rdock/2013.1/src/exe/rbdock.cxx#4 $)

>  <Rbt.Library>
libRbt.so (2013.1, Build901 2013/11/27)

>  <Rbt.Parameter_File>
/export/apps/rDock/src/rDock_2013.1_src/data/scripts/dock_solv.prm

>  <Rbt.Receptor>
prm/blind_docking_80.prm

>  <SCORE>
-8.86353

>  <SCORE.INTER>
0.852922

>  <SCORE.INTER.CONST>
1

>  <SCORE.INTER.POLAR>
0

>  <SCORE.INTER.ROT>
11

>  <SCORE.INTER.SOLV>
10.0432

>  <SCORE.INTER.VDW>
-13.7125

>  <SCORE.INTER.norm>
0.060923

>  <SCORE.INTRA>
-9.71645

>  <SCORE.INTRA.DIHEDRAL>
-22.186

>  <SCORE.INTRA.DIHEDRAL.0>
25.9209

>  <SCORE.INTRA.POLAR>
0

>  <SCORE.INTRA.POLAR.0>
0

>  <SCORE.INTRA.REPUL>
0

>  <SCORE.INTRA.REPUL.0>
0

>  <SCORE.INTRA.SOLV>
2.46654

>  <SCORE.INTRA.SOLV.lig_0>
-47.4815

>  <SCORE.INTRA.VDW>
0.143289

>  <SCORE.INTRA.VDW.0>
-1.57492

>  <SCORE.INTRA.norm>
-0.694032

>  <SCORE.RESTR>
0

>  <SCORE.RESTR.CAVITY>
0

>  <SCORE.RESTR.norm>
0

>  <SCORE.SYSTEM>
0

>  <SCORE.SYSTEM.CONST>
0

>  <SCORE.SYSTEM.DIHEDRAL>
0

>  <SCORE.SYSTEM.SOLV>
0

>  <SCORE.SYSTEM.norm>
0

>  <SCORE.heavy>
14

>  <SCORE.norm>
-0.633109

>  <RMSD>
35.697

$$$$
ligand
 OpenBabel11021811493D
libRbt.so/2013.1/901 2013/11/27
 14 13  0  0  0  0  0  0  0  0999 V2000
   40.4198    2.6455   25.0574 N   0  0  0  0  0  0  0  0  0  0  0  0
   40.7163    2.2581   26.4312 C   0  0  0  0  0  0  0  0  0  0  0  0
   41.9526    3.0145   26.9622 C   0  0  0  0  0  0  0  0  0  0  0  0
   42.3475    2.6631   28.4104 C   0  0  0  0  0  0  0  0  0  0  0  0
   41.3778    2.9427   29.4801 N   0  0  0  0  0  0  0  0  0  0  0  0
   41.6721    2.6004   30.8761 C   0  0  0  0  0  0  0  0  0  0  0  0
   40.5333    2.8662   31.8648 C   0  0  0  0  0  0  0  0  0  0  0  0
   40.9458    2.6292   33.3275 C   0  0  0  0  0  0  0  0  0  0  0  0
   41.3247    1.1727   33.6402 C   0  0  0  0  0  0  0  0  0  0  0  0
   41.5870    0.8982   35.0549 N   0  0  0  0  0  0  0  0  0  0  0  0
   42.8992    1.2466   35.6270 C   0  0  0  0  0  0  0  0  0  0  0  0
   43.0405    1.1510   37.1647 C   0  0  0  0  0  0  0  0  0  0  0  0
   42.7490   -0.2321   37.7813 C   0  0  0  0  0  0  0  0  0  0  0  0
   42.7283   -0.2140   39.2410 N   0  0  0  0  0  0  0  0  0  0  0  0
  1  2  1  0  0  0  0
  2  3  1  0  0  0  0
  3  4  1  0  0  0  0
  4  5  1  0  0  0  0
  5  6  1  0  0  0  0
  6  7  1  0  0  0  0
  7  8  1  0  0  0  0
  8  9  1  0  0  0  0
  9 10  1  0  0  0  0
 10 11  1  0  0  0  0
 11 12  1  0  0  0  0
 12 13  1  0  0  0  0
 13 14  1  0  0  0  0
M  END
>  <CHROM.1>
-179.71589002,-61.62963353,178.31304445,-176.17464836,-173.97616299,-63.66552297
-174.00537578,-80.51323467,170.24797469,58.25610589,-172.46515978,41.73536762
1.83169154,32.20848140,-1.71949426,-0.49722626,1.71285661

>  <Name>
ligand

>  <RI>
0

>  <Rbt.Current_Directory>
/home/itssahil/PROJECTS/Mol_Feturizer/New_Systems/rnas/4E8Q

>  <Rbt.Executable>
rbdock ($Id: //depot/dev/client3/rdock/2013.1/src/exe/rbdock.cxx#4 $)

>  <Rbt.Library>
libRbt.so (2013.1, Build901 2013/11/27)

>  <Rbt.Parameter_File>
/export/apps/rDock/src/rDock_2013.1_src/data/scripts/dock_solv.prm

>  <Rbt.Receptor>
prm/blind_docking_60.prm

>  <SCORE>
-9.96718

>  <SCORE.INTER>
2.37965

>  <SCORE.INTER.CONST>
1

>  <SCORE.INTER.POLAR>
0

>  <SCORE.INTER.ROT>
11

>  <SCORE.INTER.SOLV>
9.0536

>  <SCORE.INTER.VDW>
-12.3648

>  <SCORE.INTER.norm>
0.169975

>  <SCORE.INTRA>
-12.3468

>  <SCORE.INTRA.DIHEDRAL>
-24.9549

>  <SCORE.INTRA.DIHEDRAL.0>
25.9209

>  <SCORE.INTRA.POLAR>
0

>  <SCORE.INTRA.POLAR.0>
0

>  <SCORE.INTRA.REPUL>
0

>  <SCORE.INTRA.REPUL.0>
0

>  <SCORE.INTRA.SOLV>
-1.37213

>  <SCORE.INTRA.SOLV.lig_0>
-47.4815

>  <SCORE.INTRA.VDW>
0.816697

>  <SCORE.INTRA.VDW.0>
-1.57492

>  <SCORE.INTRA.norm>
-0.881916

>  <SCORE.RESTR>
0

>  <SCORE.RESTR.CAVITY>
0

>  <SCORE.RESTR.norm>
0

>  <SCORE.SYSTEM>
0

>  <SCORE.SYSTEM.CONST>
0

>  <SCORE.SYSTEM.DIHEDRAL>
0

>  <SCORE.SYSTEM.SOLV>
0

>  <SCORE.SYSTEM.norm>
0

>  <SCORE.heavy>
14

>  <SCORE.norm>
-0.711942

>  <RMSD>
35.746

$$$$
ligand
 OpenBabel11021811493D
libRbt.so/2013.1/901 2013/11/27
 14 13  0  0  0  0  0  0  0  0999 V2000
   39.4472    7.4341   26.8736 N   0  0  0  0  0  0  0  0  0  0  0  0
   39.4866    7.6632   28.3127 C   0  0  0  0  0  0  0  0  0  0  0  0
   40.5789    8.6911   28.6771 C   0  0  0  0  0  0  0  0  0  0  0  0
   40.7973    8.8870   30.1906 C   0  0  0  0  0  0  0  0  0  0  0  0
   41.1821    7.7158   30.9924 N   0  0  0  0  0  0  0  0  0  0  0  0
   42.1113    7.8439   32.1206 C   0  0  0  0  0  0  0  0  0  0  0  0
   43.5650    8.1344   31.7361 C   0  0  0  0  0  0  0  0  0  0  0  0
   44.5237    8.0713   32.9372 C   0  0  0  0  0  0  0  0  0  0  0  0
   44.7344    6.6537   33.4928 C   0  0  0  0  0  0  0  0  0  0  0  0
   45.6217    6.5773   34.6557 N   0  0  0  0  0  0  0  0  0  0  0  0
   46.0951    5.2608   35.1177 C   0  0  0  0  0  0  0  0  0  0  0  0
   45.1146    4.4252   35.9744 C   0  0  0  0  0  0  0  0  0  0  0  0
   43.8167    3.9819   35.2694 C   0  0  0  0  0  0  0  0  0  0  0  0
   42.9291    3.2132   36.1371 N   0  0  0  0  0  0  0  0  0  0  0  0
  1  2  1  0  0  0  0
  2  3  1  0  0  0  0
  3  4  1  0  0  0  0
  4  5  1  0  0  0  0
  5  6  1  0  0  0  0
  6  7  1  0  0  0  0
  7  8  1  0  0  0  0
  8  9  1  0  0  0  0
  9 10  1  0  0  0  0
 10 11  1  0  0  0  0
 11 12  1  0  0  0  0
 12 13  1  0  0  0  0
 13 14  1  0  0  0  0
M  END
>  <CHROM.1>
-173.82163374,59.02189659,144.17738781,-70.53851495,-172.28966555,69.65650610
-178.72720979,-168.73643962,-79.76866227,63.82301249,-179.24518075,42.85763145
6.75399408,32.32059310,2.26484955,-0.59984518,-0.68264861

>  <Name>
ligand

>  <RI>
0

>  <Rbt.Current_Directory>
/home/itssahil/PROJECTS/Mol_Feturizer/New_Systems/rnas/4E8Q

>  <Rbt.Executable>
rbdock ($Id: //depot/dev/client3/rdock/2013.1/src/exe/rbdock.cxx#4 $)

>  <Rbt.Library>
libRbt.so (2013.1, Build901 2013/11/27)

>  <Rbt.Parameter_File>
/export/apps/rDock/src/rDock_2013.1_src/data/scripts/dock_solv.prm

>  <Rbt.Receptor>
prm/blind_docking_100.prm

>  <SCORE>
-12.4317

>  <SCORE.INTER>
-0.666751

>  <SCORE.INTER.CONST>
1

>  <SCORE.INTER.POLAR>
0

>  <SCORE.INTER.ROT>
11

>  <SCORE.INTER.SOLV>
12.7707

>  <SCORE.INTER.VDW>
-15.6347

>  <SCORE.INTER.norm>
-0.0476251

>  <SCORE.INTRA>
-11.765

>  <SCORE.INTRA.DIHEDRAL>
-23.8417

>  <SCORE.INTRA.DIHEDRAL.0>
25.9209

>  <SCORE.INTRA.POLAR>
0

>  <SCORE.INTRA.POLAR.0>
0

>  <SCORE.INTRA.REPUL>
0

>  <SCORE.INTRA.REPUL.0>
0

>  <SCORE.INTRA.SOLV>
-1.34806

>  <SCORE.INTRA.SOLV.lig_0>
-47.4815

>  <SCORE.INTRA.VDW>
0.829949

>  <SCORE.INTRA.VDW.0>
-1.57492

>  <SCORE.INTRA.norm>
-0.840354

>  <SCORE.RESTR>
0

>  <SCORE.RESTR.CAVITY>
0

>  <SCORE.RESTR.norm>
0

>  <SCORE.SYSTEM>
0

>  <SCORE.SYSTEM.CONST>
0

>  <SCORE.SYSTEM.DIHEDRAL>
0

>  <SCORE.SYSTEM.SOLV>
0

>  <SCORE.SYSTEM.norm>
0

>  <SCORE.heavy>
14

>  <SCORE.norm>
-0.887979

>  <RMSD>
35.786

$$$$
ligand
 OpenBabel11021811493D
libRbt.so/2013.1/901 2013/11/27
 14 13  0  0  0  0  0  0  0  0999 V2000
   33.2924   -0.5985   33.2191 N   0  0  0  0  0  0  0  0  0  0  0  0
   32.9203   -0.5439   31.8107 C   0  0  0  0  0  0  0  0  0  0  0  0
   34.0596    0.0610   30.9630 C   0  0  0  0  0  0  0  0  0  0  0  0
   33.7596    0.1497   29.4535 C   0  0  0  0  0  0  0  0  0  0  0  0
   34.7422    0.8220   28.5902 N   0  0  0  0  0  0  0  0  0  0  0  0
   35.9060    0.0999   28.0641 C   0  0  0  0  0  0  0  0  0  0  0  0
   37.0999    0.9802   27.6832 C   0  0  0  0  0  0  0  0  0  0  0  0
   37.7162    1.7049   28.8918 C   0  0  0  0  0  0  0  0  0  0  0  0
   38.8301    2.6974   28.5221 C   0  0  0  0  0  0  0  0  0  0  0  0
   39.5374    3.2783   29.6657 N   0  0  0  0  0  0  0  0  0  0  0  0
   40.6332    2.5225   30.2969 C   0  0  0  0  0  0  0  0  0  0  0  0
   40.8839    2.7780   31.8020 C   0  0  0  0  0  0  0  0  0  0  0  0
   42.0145    1.9494   32.4448 C   0  0  0  0  0  0  0  0  0  0  0  0
   42.1615    2.1969   33.8761 N   0  0  0  0  0  0  0  0  0  0  0  0
  1  2  1  0  0  0  0
  2  3  1  0  0  0  0
  3  4  1  0  0  0  0
  4  5  1  0  0  0  0
  5  6  1  0  0  0  0
  6  7  1  0  0  0  0
  7  8  1  0  0  0  0
  8  9  1  0  0  0  0
  9 10  1  0  0  0  0
 10 11  1  0  0  0  0
 11 12  1  0  0  0  0
 12 13  1  0  0  0  0
 13 14  1  0  0  0  0
M  END
>  <CHROM.1>
179.58000061,174.68550424,84.35287810,-156.37052674,64.40704803,-174.51032179
-173.06575888,82.72466220,-151.25190564,178.59771046,-177.57550404,37.39690683
1.29264261,30.37698464,3.04974571,-0.35820085,-1.40001636

>  <Name>
ligand

>  <RI>
0

>  <Rbt.Current_Directory>
/home/itssahil/PROJECTS/Mol_Feturizer/New_Systems/rnas/4E8Q

>  <Rbt.Executable>
rbdock ($Id: //depot/dev/client3/rdock/2013.1/src/exe/rbdock.cxx#4 $)

>  <Rbt.Library>
libRbt.so (2013.1, Build901 2013/11/27)

>  <Rbt.Parameter_File>
/export/apps/rDock/src/rDock_2013.1_src/data/scripts/dock_solv.prm

>  <Rbt.Receptor>
prm/blind_docking_100.prm

>  <SCORE>
-12.7104

>  <SCORE.INTER>
-0.406386

>  <SCORE.INTER.CONST>
1

>  <SCORE.INTER.POLAR>
0

>  <SCORE.INTER.ROT>
11

>  <SCORE.INTER.SOLV>
9.10787

>  <SCORE.INTER.VDW>
-14.2402

>  <SCORE.INTER.norm>
-0.0290276

>  <SCORE.INTRA>
-12.304

>  <SCORE.INTRA.DIHEDRAL>
-23.6395

>  <SCORE.INTRA.DIHEDRAL.0>
25.9209

>  <SCORE.INTRA.POLAR>
0

>  <SCORE.INTRA.POLAR.0>
0

>  <SCORE.INTRA.REPUL>
0

>  <SCORE.INTRA.REPUL.0>
0

>  <SCORE.INTRA.SOLV>
-1.7635

>  <SCORE.INTRA.SOLV.lig_0>
-47.4815

>  <SCORE.INTRA.VDW>
0.397495

>  <SCORE.INTRA.VDW.0>
-1.57492

>  <SCORE.INTRA.norm>
-0.878856

>  <SCORE.RESTR>
0

>  <SCORE.RESTR.CAVITY>
0

>  <SCORE.RESTR.norm>
0

>  <SCORE.SYSTEM>
0

>  <SCORE.SYSTEM.CONST>
0

>  <SCORE.SYSTEM.DIHEDRAL>
0

>  <SCORE.SYSTEM.SOLV>
0

>  <SCORE.SYSTEM.norm>
0

>  <SCORE.heavy>
14

>  <SCORE.norm>
-0.907884

>  <RMSD>
35.821

$$$$
ligand
 OpenBabel11021811493D
libRbt.so/2013.1/901 2013/11/27
 14 13  0  0  0  0  0  0  0  0999 V2000
   33.8602   -0.0107   33.6859 N   0  0  0  0  0  0  0  0  0  0  0  0
   32.6190    0.1969   32.9500 C   0  0  0  0  0  0  0  0  0  0  0  0
   32.6841   -0.4718   31.5604 C   0  0  0  0  0  0  0  0  0  0  0  0
   33.7363    0.1289   30.6072 C   0  0  0  0  0  0  0  0  0  0  0  0
   33.8734   -0.4602   29.2667 N   0  0  0  0  0  0  0  0  0  0  0  0
   33.9511    0.3880   28.0721 C   0  0  0  0  0  0  0  0  0  0  0  0
   35.2432    1.1982   27.9328 C   0  0  0  0  0  0  0  0  0  0  0  0
   36.4951    0.3107   27.8268 C   0  0  0  0  0  0  0  0  0  0  0  0
   37.8141    1.0977   27.7687 C   0  0  0  0  0  0  0  0  0  0  0  0
   38.0883    1.9216   28.9483 N   0  0  0  0  0  0  0  0  0  0  0  0
   39.0699    3.0160   28.8526 C   0  0  0  0  0  0  0  0  0  0  0  0
   39.2310    3.9230   30.0956 C   0  0  0  0  0  0  0  0  0  0  0  0
   40.2773    5.0492   29.9743 C   0  0  0  0  0  0  0  0  0  0  0  0
   39.9845    5.9874   28.8947 N   0  0  0  0  0  0  0  0  0  0  0  0
  1  2  1  0  0  0  0
  2  3  1  0  0  0  0
  3  4  1  0  0  0  0
  4  5  1  0  0  0  0
  5  6  1  0  0  0  0
  6  7  1  0  0  0  0
  7  8  1  0  0  0  0
  8  9  1  0  0  0  0
  9 10  1  0  0  0  0
 10 11  1  0  0  0  0
 11 12  1  0  0  0  0
 12 13  1  0  0  0  0
 13 14  1  0  0  0  0
M  END
>  <CHROM.1>
-64.75076301,179.36467279,133.67921545,69.69665934,61.43418590,-176.61114598
61.41583102,-161.22100231,175.10935010,179.26524384,60.43285161,36.20900190
1.59096972,29.74524992,-3.05533079,-0.65839969,-1.89134921

>  <Name>
ligand

>  <RI>
0

>  <Rbt.Current_Directory>
/home/itssahil/PROJECTS/Mol_Feturizer/New_Systems/rnas/4E8Q

>  <Rbt.Executable>
rbdock ($Id: //depot/dev/client3/rdock/2013.1/src/exe/rbdock.cxx#4 $)

>  <Rbt.Library>
libRbt.so (2013.1, Build901 2013/11/27)

>  <Rbt.Parameter_File>
/export/apps/rDock/src/rDock_2013.1_src/data/scripts/dock_solv.prm

>  <Rbt.Receptor>
prm/blind_docking_80.prm

>  <SCORE>
-13.0784

>  <SCORE.INTER>
-1.43678

>  <SCORE.INTER.CONST>
1

>  <SCORE.INTER.POLAR>
0

>  <SCORE.INTER.ROT>
11

>  <SCORE.INTER.SOLV>
9.50831

>  <SCORE.INTER.VDW>
-15.0606

>  <SCORE.INTER.norm>
-0.102627

>  <SCORE.INTRA>
-11.6416

>  <SCORE.INTRA.DIHEDRAL>
-24.353

>  <SCORE.INTRA.DIHEDRAL.0>
25.9209

>  <SCORE.INTRA.POLAR>
0

>  <SCORE.INTRA.POLAR.0>
0

>  <SCORE.INTRA.REPUL>
0

>  <SCORE.INTRA.REPUL.0>
0

>  <SCORE.INTRA.SOLV>
-0.0260392

>  <SCORE.INTRA.SOLV.lig_0>
-47.4815

>  <SCORE.INTRA.VDW>
0.54796

>  <SCORE.INTRA.VDW.0>
-1.57492

>  <SCORE.INTRA.norm>
-0.831541

>  <SCORE.RESTR>
0

>  <SCORE.RESTR.CAVITY>
0

>  <SCORE.RESTR.norm>
0

>  <SCORE.SYSTEM>
0

>  <SCORE.SYSTEM.CONST>
0

>  <SCORE.SYSTEM.DIHEDRAL>
0

>  <SCORE.SYSTEM.SOLV>
0

>  <SCORE.SYSTEM.norm>
0

>  <SCORE.heavy>
14

>  <SCORE.norm>
-0.934169

>  <RMSD>
35.975

$$$$
ligand
 OpenBabel11021811493D
libRbt.so/2013.1/901 2013/11/27
 14 13  0  0  0  0  0  0  0  0999 V2000
   43.2136    2.5320   36.6164 N   0  0  0  0  0  0  0  0  0  0  0  0
   44.5172    3.1407   36.3813 C   0  0  0  0  0  0  0  0  0  0  0  0
   44.3777    4.4429   35.5643 C   0  0  0  0  0  0  0  0  0  0  0  0
   45.7030    5.1902   35.3157 C   0  0  0  0  0  0  0  0  0  0  0  0
   45.6512    6.4722   34.5970 N   0  0  0  0  0  0  0  0  0  0  0  0
   45.5443    6.5154   33.1343 C   0  0  0  0  0  0  0  0  0  0  0  0
   44.1205    6.3974   32.5826 C   0  0  0  0  0  0  0  0  0  0  0  0
   43.1985    7.5305   33.0641 C   0  0  0  0  0  0  0  0  0  0  0  0
   41.8156    7.5367   32.3932 C   0  0  0  0  0  0  0  0  0  0  0  0
   41.1071    6.2555   32.4385 N   0  0  0  0  0  0  0  0  0  0  0  0
   41.0392    5.4243   31.2240 C   0  0  0  0  0  0  0  0  0  0  0  0
   40.8302    3.9048   31.4261 C   0  0  0  0  0  0  0  0  0  0  0  0
   40.7210    3.0645   30.1377 C   0  0  0  0  0  0  0  0  0  0  0  0
   41.9135    3.1465   29.2994 N   0  0  0  0  0  0  0  0  0  0  0  0
  1  2  1  0  0  0  0
  2  3  1  0  0  0  0
  3  4  1  0  0  0  0
  4  5  1  0  0  0  0
  5  6  1  0  0  0  0
  6  7  1  0  0  0  0
  7  8  1  0  0  0  0
  8  9  1  0  0  0  0
  9 10  1  0  0  0  0
 10 11  1  0  0  0  0
 11 12  1  0  0  0  0
 12 13  1  0  0  0  0
 13 14  1  0  0  0  0
M  END
>  <CHROM.1>
177.58691215,-177.30497531,-80.06150808,84.29248527,60.46537989,172.90667641
51.72254282,-104.18273408,155.38714852,178.25131012,60.25903728,43.12525633
5.11118117,33.15530309,0.35832727,0.85983953,2.62232179

>  <Name>
ligand

>  <RI>
0

>  <Rbt.Current_Directory>
/home/itssahil/PROJECTS/Mol_Feturizer/New_Systems/rnas/4E8Q

>  <Rbt.Executable>
rbdock ($Id: //depot/dev/client3/rdock/2013.1/src/exe/rbdock.cxx#4 $)

>  <Rbt.Library>
libRbt.so (2013.1, Build901 2013/11/27)

>  <Rbt.Parameter_File>
/export/apps/rDock/src/rDock_2013.1_src/data/scripts/dock_solv.prm

>  <Rbt.Receptor>
prm/blind_docking_80.prm

>  <SCORE>
-12.2621

>  <SCORE.INTER>
-0.47298

>  <SCORE.INTER.CONST>
1

>  <SCORE.INTER.POLAR>
0

>  <SCORE.INTER.ROT>
11

>  <SCORE.INTER.SOLV>
13.8221

>  <SCORE.INTER.VDW>
-15.856

>  <SCORE.INTER.norm>
-0.0337843

>  <SCORE.INTRA>
-11.7891

>  <SCORE.INTRA.DIHEDRAL>
-23.2313

>  <SCORE.INTRA.DIHEDRAL.0>
25.9209

>  <SCORE.INTRA.POLAR>
0

>  <SCORE.INTRA.POLAR.0>
0

>  <SCORE.INTRA.REPUL>
0

>  <SCORE.INTRA.REPUL.0>
0

>  <SCORE.INTRA.SOLV>
-0.693875

>  <SCORE.INTRA.SOLV.lig_0>
-47.4815

>  <SCORE.INTRA.VDW>
0.173478

>  <SCORE.INTRA.VDW.0>
-1.57492

>  <SCORE.INTRA.norm>
-0.842078

>  <SCORE.RESTR>
0

>  <SCORE.RESTR.CAVITY>
0

>  <SCORE.RESTR.norm>
0

>  <SCORE.SYSTEM>
0

>  <SCORE.SYSTEM.CONST>
0

>  <SCORE.SYSTEM.DIHEDRAL>
0

>  <SCORE.SYSTEM.SOLV>
0

>  <SCORE.SYSTEM.norm>
0

>  <SCORE.heavy>
14

>  <SCORE.norm>
-0.875862

>  <RMSD>
36.297

$$$$
ligand
 OpenBabel11021811493D
libRbt.so/2013.1/901 2013/11/27
 14 13  0  0  0  0  0  0  0  0999 V2000
   41.1936    8.3517   31.5957 N   0  0  0  0  0  0  0  0  0  0  0  0
   40.0820    7.6105   31.0124 C   0  0  0  0  0  0  0  0  0  0  0  0
   40.5126    6.1763   30.6377 C   0  0  0  0  0  0  0  0  0  0  0  0
   39.4289    5.3471   29.9203 C   0  0  0  0  0  0  0  0  0  0  0  0
   39.7438    3.9553   29.5646 N   0  0  0  0  0  0  0  0  0  0  0  0
   38.8346    3.1645   28.7276 C   0  0  0  0  0  0  0  0  0  0  0  0
   37.7986    2.3375   29.4946 C   0  0  0  0  0  0  0  0  0  0  0  0
   36.9390    1.4554   28.5733 C   0  0  0  0  0  0  0  0  0  0  0  0
   35.9457    0.5532   29.3229 C   0  0  0  0  0  0  0  0  0  0  0  0
   34.9350    1.2707   30.1032 N   0  0  0  0  0  0  0  0  0  0  0  0
   34.8026    0.9921   31.5439 C   0  0  0  0  0  0  0  0  0  0  0  0
   34.2741   -0.4067   31.9410 C   0  0  0  0  0  0  0  0  0  0  0  0
   34.1036   -0.6558   33.4532 C   0  0  0  0  0  0  0  0  0  0  0  0
   33.6717   -2.0156   33.7631 N   0  0  0  0  0  0  0  0  0  0  0  0
  1  2  1  0  0  0  0
  2  3  1  0  0  0  0
  3  4  1  0  0  0  0
  4  5  1  0  0  0  0
  5  6  1  0  0  0  0
  6  7  1  0  0  0  0
  7  8  1  0  0  0  0
  8  9  1  0  0  0  0
  9 10  1  0  0  0  0
 10 11  1  0  0  0  0
 11 12  1  0  0  0  0
 12 13  1  0  0  0  0
 13 14  1  0  0  0  0
M  END
>  <CHROM.1>
-175.84984731,-178.18279860,-171.82020801,-91.93330757,-175.99653524,176.62521211
62.45249867,-123.84651508,-67.90547833,-178.15449611,-176.87942697,37.30466357
2.72394594,30.68930416,0.15553346,0.87327432,1.15236422

>  <Name>
ligand

>  <RI>
0

>  <Rbt.Current_Directory>
/home/itssahil/PROJECTS/Mol_Feturizer/New_Systems/rnas/4E8Q

>  <Rbt.Executable>
rbdock ($Id: //depot/dev/client3/rdock/2013.1/src/exe/rbdock.cxx#4 $)

>  <Rbt.Library>
libRbt.so (2013.1, Build901 2013/11/27)

>  <Rbt.Parameter_File>
/export/apps/rDock/src/rDock_2013.1_src/data/scripts/dock_solv.prm

>  <Rbt.Receptor>
prm/blind_docking_100.prm

>  <SCORE>
-10.2439

>  <SCORE.INTER>
1.95409

>  <SCORE.INTER.CONST>
1

>  <SCORE.INTER.POLAR>
0

>  <SCORE.INTER.ROT>
11

>  <SCORE.INTER.SOLV>
10.2292

>  <SCORE.INTER.VDW>
-13.0403

>  <SCORE.INTER.norm>
0.139578

>  <SCORE.INTRA>
-12.1979

>  <SCORE.INTRA.DIHEDRAL>
-23.7097

>  <SCORE.INTRA.DIHEDRAL.0>
25.9209

>  <SCORE.INTRA.POLAR>
0

>  <SCORE.INTRA.POLAR.0>
0

>  <SCORE.INTRA.REPUL>
0

>  <SCORE.INTRA.REPUL.0>
0

>  <SCORE.INTRA.SOLV>
-1.76436

>  <SCORE.INTRA.SOLV.lig_0>
-47.4815

>  <SCORE.INTRA.VDW>
0.539093

>  <SCORE.INTRA.VDW.0>
-1.57492

>  <SCORE.INTRA.norm>
-0.871282

>  <SCORE.RESTR>
0

>  <SCORE.RESTR.CAVITY>
0

>  <SCORE.RESTR.norm>
0

>  <SCORE.SYSTEM>
0

>  <SCORE.SYSTEM.CONST>
0

>  <SCORE.SYSTEM.DIHEDRAL>
0

>  <SCORE.SYSTEM.SOLV>
0

>  <SCORE.SYSTEM.norm>
0

>  <SCORE.heavy>
14

>  <SCORE.norm>
-0.731704

>  <RMSD>
36.317

$$$$
ligand
 OpenBabel11021811493D
libRbt.so/2013.1/901 2013/11/27
 14 13  0  0  0  0  0  0  0  0999 V2000
   40.1969    2.4159   26.6423 N   0  0  0  0  0  0  0  0  0  0  0  0
   39.0525    1.5181   26.5455 C   0  0  0  0  0  0  0  0  0  0  0  0
   38.3646    1.3526   27.9173 C   0  0  0  0  0  0  0  0  0  0  0  0
   37.1902    0.3540   27.9307 C   0  0  0  0  0  0  0  0  0  0  0  0
   36.0160    0.6543   27.0978 N   0  0  0  0  0  0  0  0  0  0  0  0
   34.8658   -0.2556   27.0561 C   0  0  0  0  0  0  0  0  0  0  0  0
   33.7902    0.0070   28.1142 C   0  0  0  0  0  0  0  0  0  0  0  0
   34.2928   -0.2329   29.5479 C   0  0  0  0  0  0  0  0  0  0  0  0
   33.2197   -0.0224   30.6281 C   0  0  0  0  0  0  0  0  0  0  0  0
   33.6513   -0.3424   31.9908 N   0  0  0  0  0  0  0  0  0  0  0  0
   33.4035   -1.6913   32.5290 C   0  0  0  0  0  0  0  0  0  0  0  0
   33.8542   -1.9581   33.9847 C   0  0  0  0  0  0  0  0  0  0  0  0
   35.3719   -1.8736   34.2442 C   0  0  0  0  0  0  0  0  0  0  0  0
   35.9165   -0.5378   34.0195 N   0  0  0  0  0  0  0  0  0  0  0  0
  1  2  1  0  0  0  0
  2  3  1  0  0  0  0
  3  4  1  0  0  0  0
  4  5  1  0  0  0  0
  5  6  1  0  0  0  0
  6  7  1  0  0  0  0
  7  8  1  0  0  0  0
  8  9  1  0  0  0  0
  9 10  1  0  0  0  0
 10 11  1  0  0  0  0
 11 12  1  0  0  0  0
 12 13  1  0  0  0  0
 13 14  1  0  0  0  0
M  END
>  <CHROM.1>
-176.60026852,-62.86787455,179.63734745,88.93963803,-65.15899476,-178.05029981
175.66857432,-93.16835601,-178.67497263,-64.03588993,63.89887963,35.65583911
-0.04396605,29.87482966,-1.01641595,0.25892869,1.81567351

>  <Name>
ligand

>  <RI>
0

>  <Rbt.Current_Directory>
/home/itssahil/PROJECTS/Mol_Feturizer/New_Systems/rnas/4E8Q

>  <Rbt.Executable>
rbdock ($Id: //depot/dev/client3/rdock/2013.1/src/exe/rbdock.cxx#4 $)

>  <Rbt.Library>
libRbt.so (2013.1, Build901 2013/11/27)

>  <Rbt.Parameter_File>
/export/apps/rDock/src/rDock_2013.1_src/data/scripts/dock_solv.prm

>  <Rbt.Receptor>
prm/blind_docking_80.prm

>  <SCORE>
-11.0435

>  <SCORE.INTER>
0.357486

>  <SCORE.INTER.CONST>
1

>  <SCORE.INTER.POLAR>
0

>  <SCORE.INTER.ROT>
11

>  <SCORE.INTER.SOLV>
8.73691

>  <SCORE.INTER.VDW>
-13.6073

>  <SCORE.INTER.norm>
0.0255347

>  <SCORE.INTRA>
-11.4009

>  <SCORE.INTRA.DIHEDRAL>
-24.2735

>  <SCORE.INTRA.DIHEDRAL.0>
25.9209

>  <SCORE.INTRA.POLAR>
0

>  <SCORE.INTRA.POLAR.0>
0

>  <SCORE.INTRA.REPUL>
0

>  <SCORE.INTRA.REPUL.0>
0

>  <SCORE.INTRA.SOLV>
1.06768

>  <SCORE.INTRA.SOLV.lig_0>
-47.4815

>  <SCORE.INTRA.VDW>
0.201968

>  <SCORE.INTRA.VDW.0>
-1.57492

>  <SCORE.INTRA.norm>
-0.814353

>  <SCORE.RESTR>
0

>  <SCORE.RESTR.CAVITY>
0

>  <SCORE.RESTR.norm>
0

>  <SCORE.SYSTEM>
0

>  <SCORE.SYSTEM.CONST>
0

>  <SCORE.SYSTEM.DIHEDRAL>
0

>  <SCORE.SYSTEM.SOLV>
0

>  <SCORE.SYSTEM.norm>
0

>  <SCORE.heavy>
14

>  <SCORE.norm>
-0.788818

>  <RMSD>
36.372

$$$$
ligand
 OpenBabel11021811493D
libRbt.so/2013.1/901 2013/11/27
 14 13  0  0  0  0  0  0  0  0999 V2000
   42.3681    1.9219   37.1833 N   0  0  0  0  0  0  0  0  0  0  0  0
   43.0936    3.1520   36.8906 C   0  0  0  0  0  0  0  0  0  0  0  0
   44.5676    2.8528   36.5438 C   0  0  0  0  0  0  0  0  0  0  0  0
   45.3960    4.0886   36.1396 C   0  0  0  0  0  0  0  0  0  0  0  0
   44.9650    4.8565   34.9618 N   0  0  0  0  0  0  0  0  0  0  0  0
   45.6989    6.0503   34.5273 C   0  0  0  0  0  0  0  0  0  0  0  0
   45.2087    6.6742   33.2174 C   0  0  0  0  0  0  0  0  0  0  0  0
   43.7607    7.1857   33.3057 C   0  0  0  0  0  0  0  0  0  0  0  0
   43.2519    7.8432   32.0129 C   0  0  0  0  0  0  0  0  0  0  0  0
   41.8810    8.3541   32.0840 N   0  0  0  0  0  0  0  0  0  0  0  0
   40.7529    7.4124   31.9797 C   0  0  0  0  0  0  0  0  0  0  0  0
   40.0926    7.2618   30.5888 C   0  0  0  0  0  0  0  0  0  0  0  0
   40.9913    6.6819   29.4779 C   0  0  0  0  0  0  0  0  0  0  0  0
   40.3163    6.5900   28.1866 N   0  0  0  0  0  0  0  0  0  0  0  0
  1  2  1  0  0  0  0
  2  3  1  0  0  0  0
  3  4  1  0  0  0  0
  4  5  1  0  0  0  0
  5  6  1  0  0  0  0
  6  7  1  0  0  0  0
  7  8  1  0  0  0  0
  8  9  1  0  0  0  0
  9 10  1  0  0  0  0
 10 11  1  0  0  0  0
 11 12  1  0  0  0  0
 12 13  1  0  0  0  0
 13 14  1  0  0  0  0
M  END
>  <CHROM.1>
176.64691604,-60.29145053,179.44453857,174.84680490,62.75929422,178.81925573
-179.15208956,-77.93661501,-97.38554927,63.98106893,-178.90284940,43.02487088
5.78052796,33.36434346,1.09400476,0.46354063,2.35093386

>  <Name>
ligand

>  <RI>
0

>  <Rbt.Current_Directory>
/home/itssahil/PROJECTS/Mol_Feturizer/New_Systems/rnas/4E8Q

>  <Rbt.Executable>
rbdock ($Id: //depot/dev/client3/rdock/2013.1/src/exe/rbdock.cxx#4 $)

>  <Rbt.Library>
libRbt.so (2013.1, Build901 2013/11/27)

>  <Rbt.Parameter_File>
/export/apps/rDock/src/rDock_2013.1_src/data/scripts/dock_solv.prm

>  <Rbt.Receptor>
prm/blind_docking_80.prm

>  <SCORE>
-14.0969

>  <SCORE.INTER>
-1.47194

>  <SCORE.INTER.CONST>
1

>  <SCORE.INTER.POLAR>
0

>  <SCORE.INTER.ROT>
11

>  <SCORE.INTER.SOLV>
8.79546

>  <SCORE.INTER.VDW>
-14.8464

>  <SCORE.INTER.norm>
-0.105139

>  <SCORE.INTRA>
-12.625

>  <SCORE.INTRA.DIHEDRAL>
-24.6826

>  <SCORE.INTRA.DIHEDRAL.0>
25.9209

>  <SCORE.INTRA.POLAR>
0

>  <SCORE.INTRA.POLAR.0>
0

>  <SCORE.INTRA.REPUL>
0

>  <SCORE.INTRA.REPUL.0>
0

>  <SCORE.INTRA.SOLV>
-1.1689

>  <SCORE.INTRA.SOLV.lig_0>
-47.4815

>  <SCORE.INTRA.VDW>
0.300731

>  <SCORE.INTRA.VDW.0>
-1.57492

>  <SCORE.INTRA.norm>
-0.901786

>  <SCORE.RESTR>
0

>  <SCORE.RESTR.CAVITY>
0

>  <SCORE.RESTR.norm>
0

>  <SCORE.SYSTEM>
0

>  <SCORE.SYSTEM.CONST>
0

>  <SCORE.SYSTEM.DIHEDRAL>
0

>  <SCORE.SYSTEM.SOLV>
0

>  <SCORE.SYSTEM.norm>
0

>  <SCORE.heavy>
14

>  <SCORE.norm>
-1.00692

>  <RMSD>
36.646

$$$$
ligand
 OpenBabel11021811493D
libRbt.so/2013.1/901 2013/11/27
 14 13  0  0  0  0  0  0  0  0999 V2000
   32.6408    1.9280   34.5465 N   0  0  0  0  0  0  0  0  0  0  0  0
   32.2087    1.1416   33.3976 C   0  0  0  0  0  0  0  0  0  0  0  0
   33.3203    0.1711   32.9449 C   0  0  0  0  0  0  0  0  0  0  0  0
   32.9602   -0.6908   31.7185 C   0  0  0  0  0  0  0  0  0  0  0  0
   32.7017   -0.0066   30.4427 N   0  0  0  0  0  0  0  0  0  0  0  0
   33.7308    0.0622   29.3993 C   0  0  0  0  0  0  0  0  0  0  0  0
   34.7646    1.1779   29.5781 C   0  0  0  0  0  0  0  0  0  0  0  0
   35.8409    1.1756   28.4793 C   0  0  0  0  0  0  0  0  0  0  0  0
   36.8745    2.3049   28.6166 C   0  0  0  0  0  0  0  0  0  0  0  0
   37.6359    2.2896   29.8677 N   0  0  0  0  0  0  0  0  0  0  0  0
   38.9131    3.0199   29.9449 C   0  0  0  0  0  0  0  0  0  0  0  0
   38.8760    4.5320   29.6197 C   0  0  0  0  0  0  0  0  0  0  0  0
   40.2264    5.2714   29.7082 C   0  0  0  0  0  0  0  0  0  0  0  0
   41.2089    4.7838   28.7446 N   0  0  0  0  0  0  0  0  0  0  0  0
  1  2  1  0  0  0  0
  2  3  1  0  0  0  0
  3  4  1  0  0  0  0
  4  5  1  0  0  0  0
  5  6  1  0  0  0  0
  6  7  1  0  0  0  0
  7  8  1  0  0  0  0
  8  9  1  0  0  0  0
  9 10  1  0  0  0  0
 10 11  1  0  0  0  0
 11 12  1  0  0  0  0
 12 13  1  0  0  0  0
 13 14  1  0  0  0  0
M  END
>  <CHROM.1>
-179.14931218,63.24358414,100.12430848,-82.60065972,178.29955576,178.71668775
59.92374187,160.61509724,56.92198442,-179.99774184,63.14304307,35.85012355
1.93992769,30.50045599,-3.01324924,-0.59893932,-2.01498338

>  <Name>
ligand

>  <RI>
0

>  <Rbt.Current_Directory>
/home/itssahil/PROJECTS/Mol_Feturizer/New_Systems/rnas/4E8Q

>  <Rbt.Executable>
rbdock ($Id: //depot/dev/client3/rdock/2013.1/src/exe/rbdock.cxx#4 $)

>  <Rbt.Library>
libRbt.so (2013.1, Build901 2013/11/27)

>  <Rbt.Parameter_File>
/export/apps/rDock/src/rDock_2013.1_src/data/scripts/dock_solv.prm

>  <Rbt.Receptor>
prm/blind_docking_100.prm

>  <SCORE>
-12.7484

>  <SCORE.INTER>
-0.886898

>  <SCORE.INTER.CONST>
1

>  <SCORE.INTER.POLAR>
0

>  <SCORE.INTER.ROT>
11

>  <SCORE.INTER.SOLV>
11.897

>  <SCORE.INTER.VDW>
-15.4903

>  <SCORE.INTER.norm>
-0.0633499

>  <SCORE.INTRA>
-11.8615

>  <SCORE.INTRA.DIHEDRAL>
-24.2554

>  <SCORE.INTRA.DIHEDRAL.0>
25.9209

>  <SCORE.INTRA.POLAR>
0

>  <SCORE.INTRA.POLAR.0>
0

>  <SCORE.INTRA.REPUL>
0

>  <SCORE.INTRA.REPUL.0>
0

>  <SCORE.INTRA.SOLV>
-0.799161

>  <SCORE.INTRA.SOLV.lig_0>
-47.4815

>  <SCORE.INTRA.VDW>
0.665815

>  <SCORE.INTRA.VDW.0>
-1.57492

>  <SCORE.INTRA.norm>
-0.847248

>  <SCORE.RESTR>
0

>  <SCORE.RESTR.CAVITY>
0

>  <SCORE.RESTR.norm>
0

>  <SCORE.SYSTEM>
0

>  <SCORE.SYSTEM.CONST>
0

>  <SCORE.SYSTEM.DIHEDRAL>
0

>  <SCORE.SYSTEM.SOLV>
0

>  <SCORE.SYSTEM.norm>
0

>  <SCORE.heavy>
14

>  <SCORE.norm>
-0.910598

>  <RMSD>
36.822

$$$$
ligand
 OpenBabel11021811493D
libRbt.so/2013.1/901 2013/11/27
 14 13  0  0  0  0  0  0  0  0999 V2000
   34.8208   -4.0692   34.7289 N   0  0  0  0  0  0  0  0  0  0  0  0
   33.7707   -3.0745   34.5469 C   0  0  0  0  0  0  0  0  0  0  0  0
   34.1416   -2.0809   33.4254 C   0  0  0  0  0  0  0  0  0  0  0  0
   33.1262   -0.9400   33.2164 C   0  0  0  0  0  0  0  0  0  0  0  0
   33.4251    0.0752   32.1951 N   0  0  0  0  0  0  0  0  0  0  0  0
   33.3742   -0.2521   30.7658 C   0  0  0  0  0  0  0  0  0  0  0  0
   34.1959    0.6679   29.8583 C   0  0  0  0  0  0  0  0  0  0  0  0
   34.1229    0.2639   28.3760 C   0  0  0  0  0  0  0  0  0  0  0  0
   34.8903    1.2058   27.4345 C   0  0  0  0  0  0  0  0  0  0  0  0
   36.3311    1.2835   27.6866 N   0  0  0  0  0  0  0  0  0  0  0  0
   36.8336    2.1928   28.7312 C   0  0  0  0  0  0  0  0  0  0  0  0
   38.3464    2.5163   28.7095 C   0  0  0  0  0  0  0  0  0  0  0  0
   38.8439    3.4757   29.8095 C   0  0  0  0  0  0  0  0  0  0  0  0
   40.2736    3.7570   29.7185 N   0  0  0  0  0  0  0  0  0  0  0  0
  1  2  1  0  0  0  0
  2  3  1  0  0  0  0
  3  4  1  0  0  0  0
  4  5  1  0  0  0  0
  5  6  1  0  0  0  0
  6  7  1  0  0  0  0
  7  8  1  0  0  0  0
  8  9  1  0  0  0  0
  9 10  1  0  0  0  0
 10 11  1  0  0  0  0
 11 12  1  0  0  0  0
 12 13  1  0  0  0  0
 13 14  1  0  0  0  0
M  END
>  <CHROM.1>
-176.56446658,178.10865861,70.44807349,-157.42814391,179.08047803,177.53773519
61.50306055,-83.41512245,-164.40608771,179.71032258,-179.00630559,35.46370955
0.35870424,30.65715628,-2.16381808,-0.44152720,-1.05682063

>  <Name>
ligand

>  <RI>
0

>  <Rbt.Current_Directory>
/home/itssahil/PROJECTS/Mol_Feturizer/New_Systems/rnas/4E8Q

>  <Rbt.Executable>
rbdock ($Id: //depot/dev/client3/rdock/2013.1/src/exe/rbdock.cxx#4 $)

>  <Rbt.Library>
libRbt.so (2013.1, Build901 2013/11/27)

>  <Rbt.Parameter_File>
/export/apps/rDock/src/rDock_2013.1_src/data/scripts/dock_solv.prm

>  <Rbt.Receptor>
prm/blind_docking_60.prm

>  <SCORE>
-13.4236

>  <SCORE.INTER>
-0.855436

>  <SCORE.INTER.CONST>
1

>  <SCORE.INTER.POLAR>
0

>  <SCORE.INTER.ROT>
11

>  <SCORE.INTER.SOLV>
8.50297

>  <SCORE.INTER.VDW>
-14.3379

>  <SCORE.INTER.norm>
-0.0611026

>  <SCORE.INTRA>
-12.5682

>  <SCORE.INTRA.DIHEDRAL>
-24.7753

>  <SCORE.INTRA.DIHEDRAL.0>
25.9209

>  <SCORE.INTRA.POLAR>
0

>  <SCORE.INTRA.POLAR.0>
0

>  <SCORE.INTRA.REPUL>
0

>  <SCORE.INTRA.REPUL.0>
0

>  <SCORE.INTRA.SOLV>
-1.7583

>  <SCORE.INTRA.SOLV.lig_0>
-47.4815

>  <SCORE.INTRA.VDW>
0.698631

>  <SCORE.INTRA.VDW.0>
-1.57492

>  <SCORE.INTRA.norm>
-0.897726

>  <SCORE.RESTR>
0

>  <SCORE.RESTR.CAVITY>
0

>  <SCORE.RESTR.norm>
0

>  <SCORE.SYSTEM>
0

>  <SCORE.SYSTEM.CONST>
0

>  <SCORE.SYSTEM.DIHEDRAL>
0

>  <SCORE.SYSTEM.SOLV>
0

>  <SCORE.SYSTEM.norm>
0

>  <SCORE.heavy>
14

>  <SCORE.norm>
-0.958828

>  <RMSD>
37.205

$$$$
ligand
 OpenBabel11021811493D
libRbt.so/2013.1/901 2013/11/27
 14 13  0  0  0  0  0  0  0  0999 V2000
   40.4428    2.3301   31.9980 N   0  0  0  0  0  0  0  0  0  0  0  0
   40.7822    3.5038   32.7932 C   0  0  0  0  0  0  0  0  0  0  0  0
   41.5565    4.5371   31.9474 C   0  0  0  0  0  0  0  0  0  0  0  0
   42.0319    5.7789   32.7274 C   0  0  0  0  0  0  0  0  0  0  0  0
   42.7916    6.8059   31.9987 N   0  0  0  0  0  0  0  0  0  0  0  0
   43.6043    7.7956   32.7146 C   0  0  0  0  0  0  0  0  0  0  0  0
   44.9265    7.2664   33.2779 C   0  0  0  0  0  0  0  0  0  0  0  0
   44.7262    6.1929   34.3610 C   0  0  0  0  0  0  0  0  0  0  0  0
   46.0308    5.7313   35.0300 C   0  0  0  0  0  0  0  0  0  0  0  0
   45.8553    4.7468   36.1003 N   0  0  0  0  0  0  0  0  0  0  0  0
   45.7058    3.3226   35.7541 C   0  0  0  0  0  0  0  0  0  0  0  0
   44.2721    2.7418   35.7825 C   0  0  0  0  0  0  0  0  0  0  0  0
   43.5907    2.7020   37.1653 C   0  0  0  0  0  0  0  0  0  0  0  0
   42.2725    2.0752   37.1349 N   0  0  0  0  0  0  0  0  0  0  0  0
  1  2  1  0  0  0  0
  2  3  1  0  0  0  0
  3  4  1  0  0  0  0
  4  5  1  0  0  0  0
  5  6  1  0  0  0  0
  6  7  1  0  0  0  0
  7  8  1  0  0  0  0
  8  9  1  0  0  0  0
  9 10  1  0  0  0  0
 10 11  1  0  0  0  0
 11 12  1  0  0  0  0
 12 13  1  0  0  0  0
 13 14  1  0  0  0  0
M  END
>  <CHROM.1>
-176.56226791,179.29706437,-161.85349499,75.33624130,-64.14239438,-174.99344214
177.74798919,82.51523567,-101.48967952,-65.09294733,-176.76351648,43.47090454
4.68100765,34.19891229,2.13623412,-0.61621507,-0.70608470

>  <Name>
ligand

>  <RI>
0

>  <Rbt.Current_Directory>
/home/itssahil/PROJECTS/Mol_Feturizer/New_Systems/rnas/4E8Q

>  <Rbt.Executable>
rbdock ($Id: //depot/dev/client3/rdock/2013.1/src/exe/rbdock.cxx#4 $)

>  <Rbt.Library>
libRbt.so (2013.1, Build901 2013/11/27)

>  <Rbt.Parameter_File>
/export/apps/rDock/src/rDock_2013.1_src/data/scripts/dock_solv.prm

>  <Rbt.Receptor>
prm/blind_docking_60.prm

>  <SCORE>
-14.0827

>  <SCORE.INTER>
-1.8207

>  <SCORE.INTER.CONST>
1

>  <SCORE.INTER.POLAR>
0

>  <SCORE.INTER.ROT>
11

>  <SCORE.INTER.SOLV>
10.5863

>  <SCORE.INTER.VDW>
-15.6759

>  <SCORE.INTER.norm>
-0.13005

>  <SCORE.INTRA>
-12.262

>  <SCORE.INTRA.DIHEDRAL>
-23.8042

>  <SCORE.INTRA.DIHEDRAL.0>
25.9209

>  <SCORE.INTRA.POLAR>
0

>  <SCORE.INTRA.POLAR.0>
0

>  <SCORE.INTRA.REPUL>
0

>  <SCORE.INTRA.REPUL.0>
0

>  <SCORE.INTRA.SOLV>
-1.4927

>  <SCORE.INTRA.SOLV.lig_0>
-47.4815

>  <SCORE.INTRA.VDW>
0.386517

>  <SCORE.INTRA.VDW.0>
-1.57492

>  <SCORE.INTRA.norm>
-0.875854

>  <SCORE.RESTR>
0

>  <SCORE.RESTR.CAVITY>
0

>  <SCORE.RESTR.norm>
0

>  <SCORE.SYSTEM>
0

>  <SCORE.SYSTEM.CONST>
0

>  <SCORE.SYSTEM.DIHEDRAL>
0

>  <SCORE.SYSTEM.SOLV>
0

>  <SCORE.SYSTEM.norm>
0

>  <SCORE.heavy>
14

>  <SCORE.norm>
-1.0059

>  <RMSD>
37.214

$$$$
ligand
 OpenBabel11021811493D
libRbt.so/2013.1/901 2013/11/27
 14 13  0  0  0  0  0  0  0  0999 V2000
   40.1353    6.2128   30.5785 N   0  0  0  0  0  0  0  0  0  0  0  0
   39.4920    5.7567   29.3524 C   0  0  0  0  0  0  0  0  0  0  0  0
   38.7794    4.4055   29.5741 C   0  0  0  0  0  0  0  0  0  0  0  0
   39.7028    3.2605   30.0356 C   0  0  0  0  0  0  0  0  0  0  0  0
   40.3282    3.3669   31.3624 N   0  0  0  0  0  0  0  0  0  0  0  0
   41.4532    2.5039   31.7395 C   0  0  0  0  0  0  0  0  0  0  0  0
   41.9935    2.7217   33.1559 C   0  0  0  0  0  0  0  0  0  0  0  0
   43.2425    1.8751   33.4545 C   0  0  0  0  0  0  0  0  0  0  0  0
   43.8470    2.1248   34.8455 C   0  0  0  0  0  0  0  0  0  0  0  0
   43.0380    1.6314   35.9625 N   0  0  0  0  0  0  0  0  0  0  0  0
   43.5317    1.7977   37.3406 C   0  0  0  0  0  0  0  0  0  0  0  0
   42.9239    0.8696   38.4189 C   0  0  0  0  0  0  0  0  0  0  0  0
   41.4021    0.9963   38.6339 C   0  0  0  0  0  0  0  0  0  0  0  0
   40.9944    2.3322   39.0591 N   0  0  0  0  0  0  0  0  0  0  0  0
  1  2  1  0  0  0  0
  2  3  1  0  0  0  0
  3  4  1  0  0  0  0
  4  5  1  0  0  0  0
  5  6  1  0  0  0  0
  6  7  1  0  0  0  0
  7  8  1  0  0  0  0
  8  9  1  0  0  0  0
  9 10  1  0  0  0  0
 10 11  1  0  0  0  0
 11 12  1  0  0  0  0
 12 13  1  0  0  0  0
 13 14  1  0  0  0  0
M  END
>  <CHROM.1>
-59.39406180,65.98585961,-165.03958527,-179.55398301,-175.22077443,177.16391729
69.95263147,179.03098028,-159.64634626,-61.08380061,-60.60089075,41.49044109
2.84657814,33.82222441,1.93629093,0.50304912,-1.36928356

>  <Name>
ligand

>  <RI>
0

>  <Rbt.Current_Directory>
/home/itssahil/PROJECTS/Mol_Feturizer/New_Systems/rnas/4E8Q

>  <Rbt.Executable>
rbdock ($Id: //depot/dev/client3/rdock/2013.1/src/exe/rbdock.cxx#4 $)

>  <Rbt.Library>
libRbt.so (2013.1, Build901 2013/11/27)

>  <Rbt.Parameter_File>
/export/apps/rDock/src/rDock_2013.1_src/data/scripts/dock_solv.prm

>  <Rbt.Receptor>
prm/blind_docking_60.prm

>  <SCORE>
-9.20693

>  <SCORE.INTER>
1.71657

>  <SCORE.INTER.CONST>
1

>  <SCORE.INTER.POLAR>
0

>  <SCORE.INTER.ROT>
11

>  <SCORE.INTER.SOLV>
10.6821

>  <SCORE.INTER.VDW>
-13.3497

>  <SCORE.INTER.norm>
0.122612

>  <SCORE.INTRA>
-10.9235

>  <SCORE.INTRA.DIHEDRAL>
-24.8078

>  <SCORE.INTRA.DIHEDRAL.0>
25.9209

>  <SCORE.INTRA.POLAR>
0

>  <SCORE.INTRA.POLAR.0>
0

>  <SCORE.INTRA.REPUL>
0

>  <SCORE.INTRA.REPUL.0>
0

>  <SCORE.INTRA.SOLV>
2.66217

>  <SCORE.INTRA.SOLV.lig_0>
-47.4815

>  <SCORE.INTRA.VDW>
0.149314

>  <SCORE.INTRA.VDW.0>
-1.57492

>  <SCORE.INTRA.norm>
-0.78025

>  <SCORE.RESTR>
0

>  <SCORE.RESTR.CAVITY>
0

>  <SCORE.RESTR.norm>
0

>  <SCORE.SYSTEM>
0

>  <SCORE.SYSTEM.CONST>
0

>  <SCORE.SYSTEM.DIHEDRAL>
0

>  <SCORE.SYSTEM.SOLV>
0

>  <SCORE.SYSTEM.norm>
0

>  <SCORE.heavy>
14

>  <SCORE.norm>
-0.657638

>  <RMSD>
37.391

$$$$
ligand
 OpenBabel11021811493D
libRbt.so/2013.1/901 2013/11/27
 14 13  0  0  0  0  0  0  0  0999 V2000
   34.2840   -3.4255   36.1514 N   0  0  0  0  0  0  0  0  0  0  0  0
   34.2000   -3.3159   34.7002 C   0  0  0  0  0  0  0  0  0  0  0  0
   33.6408   -1.9389   34.2832 C   0  0  0  0  0  0  0  0  0  0  0  0
   33.5110   -1.7326   32.7610 C   0  0  0  0  0  0  0  0  0  0  0  0
   32.9767   -0.4501   32.2788 N   0  0  0  0  0  0  0  0  0  0  0  0
   32.9290   -0.1418   30.8452 C   0  0  0  0  0  0  0  0  0  0  0  0
   34.2751    0.2255   30.2138 C   0  0  0  0  0  0  0  0  0  0  0  0
   34.1599    0.5630   28.7176 C   0  0  0  0  0  0  0  0  0  0  0  0
   35.4900    0.9759   28.0674 C   0  0  0  0  0  0  0  0  0  0  0  0
   36.1006    2.1808   28.6336 N   0  0  0  0  0  0  0  0  0  0  0  0
   37.5686    2.2785   28.7112 C   0  0  0  0  0  0  0  0  0  0  0  0
   38.1539    3.5921   29.2816 C   0  0  0  0  0  0  0  0  0  0  0  0
   39.6911    3.6519   29.3883 C   0  0  0  0  0  0  0  0  0  0  0  0
   40.2337    2.7059   30.3591 N   0  0  0  0  0  0  0  0  0  0  0  0
  1  2  1  0  0  0  0
  2  3  1  0  0  0  0
  3  4  1  0  0  0  0
  4  5  1  0  0  0  0
  5  6  1  0  0  0  0
  6  7  1  0  0  0  0
  7  8  1  0  0  0  0
  8  9  1  0  0  0  0
  9 10  1  0  0  0  0
 10 11  1  0  0  0  0
 11 12  1  0  0  0  0
 12 13  1  0  0  0  0
 13 14  1  0  0  0  0
M  END
>  <CHROM.1>
-179.79887237,179.57149621,174.89994853,-75.53034701,-178.95735777,178.28865492
-61.47917402,145.54222708,178.29860250,178.34454198,-66.15517881,35.51516919
0.36925729,31.02768685,-2.17829609,-0.39132280,-1.03660907

>  <Name>
ligand

>  <RI>
0

>  <Rbt.Current_Directory>
/home/itssahil/PROJECTS/Mol_Feturizer/New_Systems/rnas/4E8Q

>  <Rbt.Executable>
rbdock ($Id: //depot/dev/client3/rdock/2013.1/src/exe/rbdock.cxx#4 $)

>  <Rbt.Library>
libRbt.so (2013.1, Build901 2013/11/27)

>  <Rbt.Parameter_File>
/export/apps/rDock/src/rDock_2013.1_src/data/scripts/dock_solv.prm

>  <Rbt.Receptor>
prm/blind_docking_100.prm

>  <SCORE>
-12.1993

>  <SCORE.INTER>
0.30119

>  <SCORE.INTER.CONST>
1

>  <SCORE.INTER.POLAR>
0

>  <SCORE.INTER.ROT>
11

>  <SCORE.INTER.SOLV>
11.8092

>  <SCORE.INTER.VDW>
-14.6689

>  <SCORE.INTER.norm>
0.0215136

>  <SCORE.INTRA>
-12.5005

>  <SCORE.INTRA.DIHEDRAL>
-24.7928

>  <SCORE.INTRA.DIHEDRAL.0>
25.9209

>  <SCORE.INTRA.POLAR>
0

>  <SCORE.INTRA.POLAR.0>
0

>  <SCORE.INTRA.REPUL>
0

>  <SCORE.INTRA.REPUL.0>
0

>  <SCORE.INTRA.SOLV>
-1.12217

>  <SCORE.INTRA.SOLV.lig_0>
-47.4815

>  <SCORE.INTRA.VDW>
0.456965

>  <SCORE.INTRA.VDW.0>
-1.57492

>  <SCORE.INTRA.norm>
-0.892895

>  <SCORE.RESTR>
0

>  <SCORE.RESTR.CAVITY>
0

>  <SCORE.RESTR.norm>
0

>  <SCORE.SYSTEM>
0

>  <SCORE.SYSTEM.CONST>
0

>  <SCORE.SYSTEM.DIHEDRAL>
0

>  <SCORE.SYSTEM.SOLV>
0

>  <SCORE.SYSTEM.norm>
0

>  <SCORE.heavy>
14

>  <SCORE.norm>
-0.871382

>  <RMSD>
37.518

$$$$
ligand
 OpenBabel11021811493D
libRbt.so/2013.1/901 2013/11/27
 14 13  0  0  0  0  0  0  0  0999 V2000
   34.7081    3.2623   36.6143 N   0  0  0  0  0  0  0  0  0  0  0  0
   35.9813    3.6901   36.0476 C   0  0  0  0  0  0  0  0  0  0  0  0
   37.1555    2.9172   36.6851 C   0  0  0  0  0  0  0  0  0  0  0  0
   38.5496    3.3291   36.1718 C   0  0  0  0  0  0  0  0  0  0  0  0
   38.8130    3.2317   34.7282 N   0  0  0  0  0  0  0  0  0  0  0  0
   40.1828    3.1159   34.2155 C   0  0  0  0  0  0  0  0  0  0  0  0
   40.3415    3.3891   32.7170 C   0  0  0  0  0  0  0  0  0  0  0  0
   39.4889    2.4509   31.8461 C   0  0  0  0  0  0  0  0  0  0  0  0
   39.4727    2.8269   30.3558 C   0  0  0  0  0  0  0  0  0  0  0  0
   38.8606    4.1238   30.0579 N   0  0  0  0  0  0  0  0  0  0  0  0
   39.5771    5.0797   29.1956 C   0  0  0  0  0  0  0  0  0  0  0  0
   39.2952    6.5826   29.4309 C   0  0  0  0  0  0  0  0  0  0  0  0
   39.8100    7.1620   30.7640 C   0  0  0  0  0  0  0  0  0  0  0  0
   41.2672    7.1990   30.8461 N   0  0  0  0  0  0  0  0  0  0  0  0
  1  2  1  0  0  0  0
  2  3  1  0  0  0  0
  3  4  1  0  0  0  0
  4  5  1  0  0  0  0
  5  6  1  0  0  0  0
  6  7  1  0  0  0  0
  7  8  1  0  0  0  0
  8  9  1  0  0  0  0
  9 10  1  0  0  0  0
 10 11  1  0  0  0  0
 11 12  1  0  0  0  0
 12 13  1  0  0  0  0
 13 14  1  0  0  0  0
M  END
>  <CHROM.1>
-178.52490096,-57.38300561,-157.18039015,-164.70418786,-58.48888158,171.82541588
-64.08329667,130.67480405,-151.56964539,68.28621481,67.33526046,38.82185814
4.16847602,32.83389148,2.27187014,-0.85511633,2.51929033

>  <Name>
ligand

>  <RI>
0

>  <Rbt.Current_Directory>
/home/itssahil/PROJECTS/Mol_Feturizer/New_Systems/rnas/4E8Q

>  <Rbt.Executable>
rbdock ($Id: //depot/dev/client3/rdock/2013.1/src/exe/rbdock.cxx#4 $)

>  <Rbt.Library>
libRbt.so (2013.1, Build901 2013/11/27)

>  <Rbt.Parameter_File>
/export/apps/rDock/src/rDock_2013.1_src/data/scripts/dock_solv.prm

>  <Rbt.Receptor>
prm/blind_docking_60.prm

>  <SCORE>
-10.7152

>  <SCORE.INTER>
0.588937

>  <SCORE.INTER.CONST>
1

>  <SCORE.INTER.POLAR>
0

>  <SCORE.INTER.ROT>
11

>  <SCORE.INTER.SOLV>
8.77837

>  <SCORE.INTER.VDW>
-13.4668

>  <SCORE.INTER.norm>
0.0420669

>  <SCORE.INTRA>
-11.3041

>  <SCORE.INTRA.DIHEDRAL>
-22.861

>  <SCORE.INTRA.DIHEDRAL.0>
25.9209

>  <SCORE.INTRA.POLAR>
0

>  <SCORE.INTRA.POLAR.0>
0

>  <SCORE.INTRA.REPUL>
0

>  <SCORE.INTRA.REPUL.0>
0

>  <SCORE.INTRA.SOLV>
0.516922

>  <SCORE.INTRA.SOLV.lig_0>
-47.4815

>  <SCORE.INTRA.VDW>
-0.132076

>  <SCORE.INTRA.VDW.0>
-1.57492

>  <SCORE.INTRA.norm>
-0.807437

>  <SCORE.RESTR>
0

>  <SCORE.RESTR.CAVITY>
0

>  <SCORE.RESTR.norm>
0

>  <SCORE.SYSTEM>
0

>  <SCORE.SYSTEM.CONST>
0

>  <SCORE.SYSTEM.DIHEDRAL>
0

>  <SCORE.SYSTEM.SOLV>
0

>  <SCORE.SYSTEM.norm>
0

>  <SCORE.heavy>
14

>  <SCORE.norm>
-0.76537

>  <RMSD>
37.633

$$$$
ligand
 OpenBabel11021811493D
libRbt.so/2013.1/901 2013/11/27
 14 13  0  0  0  0  0  0  0  0999 V2000
   41.9236   11.5548   31.5134 N   0  0  0  0  0  0  0  0  0  0  0  0
   42.6824   11.4458   32.7533 C   0  0  0  0  0  0  0  0  0  0  0  0
   42.8242    9.9705   33.1844 C   0  0  0  0  0  0  0  0  0  0  0  0
   43.5816    9.0781   32.1811 C   0  0  0  0  0  0  0  0  0  0  0  0
   43.7647    7.6583   32.5177 N   0  0  0  0  0  0  0  0  0  0  0  0
   44.9260    7.2086   33.2934 C   0  0  0  0  0  0  0  0  0  0  0  0
   44.6448    6.0807   34.2904 C   0  0  0  0  0  0  0  0  0  0  0  0
   45.9191    5.5596   34.9764 C   0  0  0  0  0  0  0  0  0  0  0  0
   45.6579    4.4819   36.0408 C   0  0  0  0  0  0  0  0  0  0  0  0
   44.9042    3.3200   35.5641 N   0  0  0  0  0  0  0  0  0  0  0  0
   44.0800    2.5540   36.5150 C   0  0  0  0  0  0  0  0  0  0  0  0
   42.8446    3.2722   37.1078 C   0  0  0  0  0  0  0  0  0  0  0  0
   41.8047    3.7741   36.0857 C   0  0  0  0  0  0  0  0  0  0  0  0
   41.1475    2.6908   35.3604 N   0  0  0  0  0  0  0  0  0  0  0  0
  1  2  1  0  0  0  0
  2  3  1  0  0  0  0
  3  4  1  0  0  0  0
  4  5  1  0  0  0  0
  5  6  1  0  0  0  0
  6  7  1  0  0  0  0
  7  8  1  0  0  0  0
  8  9  1  0  0  0  0
  9 10  1  0  0  0  0
 10 11  1  0  0  0  0
 11 12  1  0  0  0  0
 12 13  1  0  0  0  0
 13 14  1  0  0  0  0
M  END
>  <CHROM.1>
61.65197461,179.80966398,-88.43849929,142.84328330,174.52189814,176.70882429
55.32673976,-152.39557762,66.96910129,58.70127284,65.32421775,43.62209327
6.33211632,34.38483200,1.65428026,0.01891119,-0.49331144

>  <Name>
ligand

>  <RI>
0

>  <Rbt.Current_Directory>
/home/itssahil/PROJECTS/Mol_Feturizer/New_Systems/rnas/4E8Q

>  <Rbt.Executable>
rbdock ($Id: //depot/dev/client3/rdock/2013.1/src/exe/rbdock.cxx#4 $)

>  <Rbt.Library>
libRbt.so (2013.1, Build901 2013/11/27)

>  <Rbt.Parameter_File>
/export/apps/rDock/src/rDock_2013.1_src/data/scripts/dock_solv.prm

>  <Rbt.Receptor>
prm/blind_docking_60.prm

>  <SCORE>
-13.4491

>  <SCORE.INTER>
-2.19619

>  <SCORE.INTER.CONST>
1

>  <SCORE.INTER.POLAR>
0

>  <SCORE.INTER.ROT>
11

>  <SCORE.INTER.SOLV>
9.59111

>  <SCORE.INTER.VDW>
-15.5945

>  <SCORE.INTER.norm>
-0.156871

>  <SCORE.INTRA>
-11.2529

>  <SCORE.INTRA.DIHEDRAL>
-23.6222

>  <SCORE.INTRA.DIHEDRAL.0>
25.9209

>  <SCORE.INTRA.POLAR>
0

>  <SCORE.INTRA.POLAR.0>
0

>  <SCORE.INTRA.REPUL>
0

>  <SCORE.INTRA.REPUL.0>
0

>  <SCORE.INTRA.SOLV>
0.494448

>  <SCORE.INTRA.SOLV.lig_0>
-47.4815

>  <SCORE.INTRA.VDW>
0.310985

>  <SCORE.INTRA.VDW.0>
-1.57492

>  <SCORE.INTRA.norm>
-0.803777

>  <SCORE.RESTR>
0

>  <SCORE.RESTR.CAVITY>
0

>  <SCORE.RESTR.norm>
0

>  <SCORE.SYSTEM>
0

>  <SCORE.SYSTEM.CONST>
0

>  <SCORE.SYSTEM.DIHEDRAL>
0

>  <SCORE.SYSTEM.SOLV>
0

>  <SCORE.SYSTEM.norm>
0

>  <SCORE.heavy>
14

>  <SCORE.norm>
-0.960648

>  <RMSD>
37.739

$$$$
ligand
 OpenBabel11021811493D
libRbt.so/2013.1/901 2013/11/27
 14 13  0  0  0  0  0  0  0  0999 V2000
   43.5014    7.2935   29.3622 N   0  0  0  0  0  0  0  0  0  0  0  0
   44.6244    6.8720   30.1907 C   0  0  0  0  0  0  0  0  0  0  0  0
   44.2225    6.8246   31.6803 C   0  0  0  0  0  0  0  0  0  0  0  0
   45.3507    6.3886   32.6363 C   0  0  0  0  0  0  0  0  0  0  0  0
   45.0261    6.2235   34.0611 N   0  0  0  0  0  0  0  0  0  0  0  0
   46.0540    5.8260   35.0297 C   0  0  0  0  0  0  0  0  0  0  0  0
   45.9519    4.3824   35.5307 C   0  0  0  0  0  0  0  0  0  0  0  0
   44.5936    4.0719   36.1823 C   0  0  0  0  0  0  0  0  0  0  0  0
   44.4911    2.6527   36.7637 C   0  0  0  0  0  0  0  0  0  0  0  0
   43.2431    2.3718   37.4772 N   0  0  0  0  0  0  0  0  0  0  0  0
   42.5265    1.1124   37.2108 C   0  0  0  0  0  0  0  0  0  0  0  0
   43.0927   -0.1682   37.8686 C   0  0  0  0  0  0  0  0  0  0  0  0
   43.2643   -0.1170   39.4003 C   0  0  0  0  0  0  0  0  0  0  0  0
   42.0275    0.2112   40.1031 N   0  0  0  0  0  0  0  0  0  0  0  0
  1  2  1  0  0  0  0
  2  3  1  0  0  0  0
  3  4  1  0  0  0  0
  4  5  1  0  0  0  0
  5  6  1  0  0  0  0
  6  7  1  0  0  0  0
  7  8  1  0  0  0  0
  8  9  1  0  0  0  0
  9 10  1  0  0  0  0
 10 11  1  0  0  0  0
 11 12  1  0  0  0  0
 12 13  1  0  0  0  0
 13 14  1  0  0  0  0
M  END
>  <CHROM.1>
-179.95022910,-175.68405321,-179.28299040,-106.37012505,-57.45919640,-176.80890244
175.59533891,133.82836846,77.52475495,55.09023426,56.10863754,44.14098074
3.85317372,35.24979759,1.35880817,-0.63877437,-0.99342909

>  <Name>
ligand

>  <RI>
0

>  <Rbt.Current_Directory>
/home/itssahil/PROJECTS/Mol_Feturizer/New_Systems/rnas/4E8Q

>  <Rbt.Executable>
rbdock ($Id: //depot/dev/client3/rdock/2013.1/src/exe/rbdock.cxx#4 $)

>  <Rbt.Library>
libRbt.so (2013.1, Build901 2013/11/27)

>  <Rbt.Parameter_File>
/export/apps/rDock/src/rDock_2013.1_src/data/scripts/dock_solv.prm

>  <Rbt.Receptor>
prm/blind_docking_60.prm

>  <SCORE>
-13.4219

>  <SCORE.INTER>
-2.29581

>  <SCORE.INTER.CONST>
1

>  <SCORE.INTER.POLAR>
0

>  <SCORE.INTER.ROT>
11

>  <SCORE.INTER.SOLV>
16.4987

>  <SCORE.INTER.VDW>
-17.9635

>  <SCORE.INTER.norm>
-0.163986

>  <SCORE.INTRA>
-11.1261

>  <SCORE.INTRA.DIHEDRAL>
-23.224

>  <SCORE.INTRA.DIHEDRAL.0>
25.9209

>  <SCORE.INTRA.POLAR>
0

>  <SCORE.INTRA.POLAR.0>
0

>  <SCORE.INTRA.REPUL>
0

>  <SCORE.INTRA.REPUL.0>
0

>  <SCORE.INTRA.SOLV>
0.108752

>  <SCORE.INTRA.SOLV.lig_0>
-47.4815

>  <SCORE.INTRA.VDW>
0.431511

>  <SCORE.INTRA.VDW.0>
-1.57492

>  <SCORE.INTRA.norm>
-0.794723

>  <SCORE.RESTR>
0

>  <SCORE.RESTR.CAVITY>
0

>  <SCORE.RESTR.norm>
0

>  <SCORE.SYSTEM>
0

>  <SCORE.SYSTEM.CONST>
0

>  <SCORE.SYSTEM.DIHEDRAL>
0

>  <SCORE.SYSTEM.SOLV>
0

>  <SCORE.SYSTEM.norm>
0

>  <SCORE.heavy>
14

>  <SCORE.norm>
-0.958709

>  <RMSD>
38.192

$$$$
ligand
 OpenBabel11021811493D
libRbt.so/2013.1/901 2013/11/27
 14 13  0  0  0  0  0  0  0  0999 V2000
   42.9422    6.5733   31.7736 N   0  0  0  0  0  0  0  0  0  0  0  0
   44.3473    6.9546   31.6987 C   0  0  0  0  0  0  0  0  0  0  0  0
   44.8710    7.4021   33.0799 C   0  0  0  0  0  0  0  0  0  0  0  0
   44.9954    6.2688   34.1177 C   0  0  0  0  0  0  0  0  0  0  0  0
   43.7694    5.5686   34.5292 N   0  0  0  0  0  0  0  0  0  0  0  0
   43.7402    4.7447   35.7429 C   0  0  0  0  0  0  0  0  0  0  0  0
   44.5681    3.4581   35.6754 C   0  0  0  0  0  0  0  0  0  0  0  0
   44.8124    2.8328   37.0594 C   0  0  0  0  0  0  0  0  0  0  0  0
   43.5493    2.2477   37.7109 C   0  0  0  0  0  0  0  0  0  0  0  0
   43.2200    0.8832   37.2923 N   0  0  0  0  0  0  0  0  0  0  0  0
   42.3692    0.6767   36.1074 C   0  0  0  0  0  0  0  0  0  0  0  0
   41.7489   -0.7290   35.9270 C   0  0  0  0  0  0  0  0  0  0  0  0
   42.7512   -1.8917   35.7806 C   0  0  0  0  0  0  0  0  0  0  0  0
   42.1024   -3.1816   35.5646 N   0  0  0  0  0  0  0  0  0  0  0  0
  1  2  1  0  0  0  0
  2  3  1  0  0  0  0
  3  4  1  0  0  0  0
  4  5  1  0  0  0  0
  5  6  1  0  0  0  0
  6  7  1  0  0  0  0
  7  8  1  0  0  0  0
  8  9  1  0  0  0  0
  9 10  1  0  0  0  0
 10 11  1  0  0  0  0
 11 12  1  0  0  0  0
 12 13  1  0  0  0  0
 13 14  1  0  0  0  0
M  END
>  <CHROM.1>
69.47779300,-62.78332606,-163.61613816,-68.70057332,164.63968932,69.11343054
84.20464584,-88.69518408,-164.24730801,-60.88880291,-177.86833878,43.55644368
2.98651673,35.14725553,1.08618410,-1.12012171,-0.83374740

>  <Name>
ligand

>  <RI>
0

>  <Rbt.Current_Directory>
/home/itssahil/PROJECTS/Mol_Feturizer/New_Systems/rnas/4E8Q

>  <Rbt.Executable>
rbdock ($Id: //depot/dev/client3/rdock/2013.1/src/exe/rbdock.cxx#4 $)

>  <Rbt.Library>
libRbt.so (2013.1, Build901 2013/11/27)

>  <Rbt.Parameter_File>
/export/apps/rDock/src/rDock_2013.1_src/data/scripts/dock_solv.prm

>  <Rbt.Receptor>
prm/blind_docking_80.prm

>  <SCORE>
-9.3863

>  <SCORE.INTER>
0.172992

>  <SCORE.INTER.CONST>
1

>  <SCORE.INTER.POLAR>
0

>  <SCORE.INTER.ROT>
11

>  <SCORE.INTER.SOLV>
8.87698

>  <SCORE.INTER.VDW>
-13.777

>  <SCORE.INTER.norm>
0.0123566

>  <SCORE.INTRA>
-9.55929

>  <SCORE.INTRA.DIHEDRAL>
-21.3953

>  <SCORE.INTRA.DIHEDRAL.0>
25.9209

>  <SCORE.INTRA.POLAR>
0

>  <SCORE.INTRA.POLAR.0>
0

>  <SCORE.INTRA.REPUL>
0

>  <SCORE.INTRA.REPUL.0>
0

>  <SCORE.INTRA.SOLV>
1.10083

>  <SCORE.INTRA.SOLV.lig_0>
-47.4815

>  <SCORE.INTRA.VDW>
0.587954

>  <SCORE.INTRA.VDW.0>
-1.57492

>  <SCORE.INTRA.norm>
-0.682806

>  <SCORE.RESTR>
0

>  <SCORE.RESTR.CAVITY>
0

>  <SCORE.RESTR.norm>
0

>  <SCORE.SYSTEM>
0

>  <SCORE.SYSTEM.CONST>
0

>  <SCORE.SYSTEM.DIHEDRAL>
0

>  <SCORE.SYSTEM.SOLV>
0

>  <SCORE.SYSTEM.norm>
0

>  <SCORE.heavy>
14

>  <SCORE.norm>
-0.67045

>  <RMSD>
38.283

$$$$
ligand
 OpenBabel11021811493D
libRbt.so/2013.1/901 2013/11/27
 14 13  0  0  0  0  0  0  0  0999 V2000
   38.0055    4.0714   37.0204 N   0  0  0  0  0  0  0  0  0  0  0  0
   38.9380    2.9521   36.9687 C   0  0  0  0  0  0  0  0  0  0  0  0
   39.0084    2.3591   35.5454 C   0  0  0  0  0  0  0  0  0  0  0  0
   39.6934    3.2670   34.5046 C   0  0  0  0  0  0  0  0  0  0  0  0
   41.1268    3.5513   34.6697 N   0  0  0  0  0  0  0  0  0  0  0  0
   42.1168    2.4684   34.6757 C   0  0  0  0  0  0  0  0  0  0  0  0
   43.5783    2.9237   34.7195 C   0  0  0  0  0  0  0  0  0  0  0  0
   43.8977    3.7859   35.9526 C   0  0  0  0  0  0  0  0  0  0  0  0
   45.3514    4.2823   36.0068 C   0  0  0  0  0  0  0  0  0  0  0  0
   45.7807    5.0498   34.8354 N   0  0  0  0  0  0  0  0  0  0  0  0
   45.0089    6.2363   34.4269 C   0  0  0  0  0  0  0  0  0  0  0  0
   45.2617    6.7792   33.0004 C   0  0  0  0  0  0  0  0  0  0  0  0
   44.4712    8.0455   32.6137 C   0  0  0  0  0  0  0  0  0  0  0  0
   43.0252    7.8448   32.6339 N   0  0  0  0  0  0  0  0  0  0  0  0
  1  2  1  0  0  0  0
  2  3  1  0  0  0  0
  3  4  1  0  0  0  0
  4  5  1  0  0  0  0
  5  6  1  0  0  0  0
  6  7  1  0  0  0  0
  7  8  1  0  0  0  0
  8  9  1  0  0  0  0
  9 10  1  0  0  0  0
 10 11  1  0  0  0  0
 11 12  1  0  0  0  0
 12 13  1  0  0  0  0
 13 14  1  0  0  0  0
M  END
>  <CHROM.1>
69.83611372,65.73367634,59.78378405,174.31428915,58.58297243,-178.76111241
56.67303568,55.34395120,-164.03748434,-178.28855878,-61.65310558,42.51908008
4.54381225,34.82669614,2.51019668,-0.01115104,2.57491911

>  <Name>
ligand

>  <RI>
0

>  <Rbt.Current_Directory>
/home/itssahil/PROJECTS/Mol_Feturizer/New_Systems/rnas/4E8Q

>  <Rbt.Executable>
rbdock ($Id: //depot/dev/client3/rdock/2013.1/src/exe/rbdock.cxx#4 $)

>  <Rbt.Library>
libRbt.so (2013.1, Build901 2013/11/27)

>  <Rbt.Parameter_File>
/export/apps/rDock/src/rDock_2013.1_src/data/scripts/dock_solv.prm

>  <Rbt.Receptor>
prm/blind_docking_100.prm

>  <SCORE>
-10.2253

>  <SCORE.INTER>
1.08049

>  <SCORE.INTER.CONST>
1

>  <SCORE.INTER.POLAR>
0

>  <SCORE.INTER.ROT>
11

>  <SCORE.INTER.SOLV>
11.4916

>  <SCORE.INTER.VDW>
-14.0436

>  <SCORE.INTER.norm>
0.0771782

>  <SCORE.INTRA>
-11.3058

>  <SCORE.INTRA.DIHEDRAL>
-25.1204

>  <SCORE.INTRA.DIHEDRAL.0>
25.9209

>  <SCORE.INTRA.POLAR>
0

>  <SCORE.INTRA.POLAR.0>
0

>  <SCORE.INTRA.REPUL>
0

>  <SCORE.INTRA.REPUL.0>
0

>  <SCORE.INTRA.SOLV>
0.689834

>  <SCORE.INTRA.SOLV.lig_0>
-47.4815

>  <SCORE.INTRA.VDW>
0.909532

>  <SCORE.INTRA.VDW.0>
-1.57492

>  <SCORE.INTRA.norm>
-0.807554

>  <SCORE.RESTR>
0

>  <SCORE.RESTR.CAVITY>
0

>  <SCORE.RESTR.norm>
0

>  <SCORE.SYSTEM>
0

>  <SCORE.SYSTEM.CONST>
0

>  <SCORE.SYSTEM.DIHEDRAL>
0

>  <SCORE.SYSTEM.SOLV>
0

>  <SCORE.SYSTEM.norm>
0

>  <SCORE.heavy>
14

>  <SCORE.norm>
-0.730376

>  <RMSD>
38.295

$$$$
ligand
 OpenBabel11021811493D
libRbt.so/2013.1/901 2013/11/27
 14 13  0  0  0  0  0  0  0  0999 V2000
   40.6277    3.8580   40.2854 N   0  0  0  0  0  0  0  0  0  0  0  0
   40.4875    2.7469   39.3522 C   0  0  0  0  0  0  0  0  0  0  0  0
   40.6641    3.2255   37.8954 C   0  0  0  0  0  0  0  0  0  0  0  0
   42.0638    3.7823   37.5675 C   0  0  0  0  0  0  0  0  0  0  0  0
   42.3119    4.2737   36.2037 N   0  0  0  0  0  0  0  0  0  0  0  0
   43.6207    4.8153   35.8214 C   0  0  0  0  0  0  0  0  0  0  0  0
   43.6140    5.7218   34.5871 C   0  0  0  0  0  0  0  0  0  0  0  0
   45.0018    6.3017   34.2655 C   0  0  0  0  0  0  0  0  0  0  0  0
   45.0161    7.2506   33.0563 C   0  0  0  0  0  0  0  0  0  0  0  0
   44.2381    8.4790   33.2324 N   0  0  0  0  0  0  0  0  0  0  0  0
   42.7979    8.4726   32.9221 C   0  0  0  0  0  0  0  0  0  0  0  0
   42.3198    9.4202   31.7965 C   0  0  0  0  0  0  0  0  0  0  0  0
   40.8225    9.3350   31.4376 C   0  0  0  0  0  0  0  0  0  0  0  0
   40.4150    8.0034   30.9989 N   0  0  0  0  0  0  0  0  0  0  0  0
  1  2  1  0  0  0  0
  2  3  1  0  0  0  0
  3  4  1  0  0  0  0
  4  5  1  0  0  0  0
  5  6  1  0  0  0  0
  6  7  1  0  0  0  0
  7  8  1  0  0  0  0
  8  9  1  0  0  0  0
  9 10  1  0  0  0  0
 10 11  1  0  0  0  0
 11 12  1  0  0  0  0
 12 13  1  0  0  0  0
 13 14  1  0  0  0  0
M  END
>  <CHROM.1>
63.78792159,-179.35511937,-179.92306836,-159.26060230,177.83565791,-178.20737741
64.47535230,-86.29894403,-118.30069942,176.63731607,-59.19187983,42.42884101
6.12041243,34.95862016,1.73528618,-0.05869610,2.24342686

>  <Name>
ligand

>  <RI>
0

>  <Rbt.Current_Directory>
/home/itssahil/PROJECTS/Mol_Feturizer/New_Systems/rnas/4E8Q

>  <Rbt.Executable>
rbdock ($Id: //depot/dev/client3/rdock/2013.1/src/exe/rbdock.cxx#4 $)

>  <Rbt.Library>
libRbt.so (2013.1, Build901 2013/11/27)

>  <Rbt.Parameter_File>
/export/apps/rDock/src/rDock_2013.1_src/data/scripts/dock_solv.prm

>  <Rbt.Receptor>
prm/blind_docking_80.prm

>  <SCORE>
-11.1167

>  <SCORE.INTER>
0.390928

>  <SCORE.INTER.CONST>
1

>  <SCORE.INTER.POLAR>
0

>  <SCORE.INTER.ROT>
11

>  <SCORE.INTER.SOLV>
12.6616

>  <SCORE.INTER.VDW>
-14.8932

>  <SCORE.INTER.norm>
0.0279234

>  <SCORE.INTRA>
-11.5077

>  <SCORE.INTRA.DIHEDRAL>
-23.7111

>  <SCORE.INTRA.DIHEDRAL.0>
25.9209

>  <SCORE.INTRA.POLAR>
0

>  <SCORE.INTRA.POLAR.0>
0

>  <SCORE.INTRA.REPUL>
0

>  <SCORE.INTRA.REPUL.0>
0

>  <SCORE.INTRA.SOLV>
-0.397845

>  <SCORE.INTRA.SOLV.lig_0>
-47.4815

>  <SCORE.INTRA.VDW>
0.546798

>  <SCORE.INTRA.VDW.0>
-1.57492

>  <SCORE.INTRA.norm>
-0.821975

>  <SCORE.RESTR>
0

>  <SCORE.RESTR.CAVITY>
0

>  <SCORE.RESTR.norm>
0

>  <SCORE.SYSTEM>
0

>  <SCORE.SYSTEM.CONST>
0

>  <SCORE.SYSTEM.DIHEDRAL>
0

>  <SCORE.SYSTEM.SOLV>
0

>  <SCORE.SYSTEM.norm>
0

>  <SCORE.heavy>
14

>  <SCORE.norm>
-0.794052

>  <RMSD>
38.506

$$$$
ligand
 OpenBabel11021811493D
libRbt.so/2013.1/901 2013/11/27
 14 13  0  0  0  0  0  0  0  0999 V2000
   42.8516    6.3473   32.4891 N   0  0  0  0  0  0  0  0  0  0  0  0
   44.1184    6.9181   32.0479 C   0  0  0  0  0  0  0  0  0  0  0  0
   44.9528    7.4038   33.2522 C   0  0  0  0  0  0  0  0  0  0  0  0
   45.4603    6.2798   34.1772 C   0  0  0  0  0  0  0  0  0  0  0  0
   44.4637    5.4643   34.8876 N   0  0  0  0  0  0  0  0  0  0  0  0
   44.8754    4.4261   35.8389 C   0  0  0  0  0  0  0  0  0  0  0  0
   43.7405    3.5493   36.3762 C   0  0  0  0  0  0  0  0  0  0  0  0
   44.2378    2.4439   37.3231 C   0  0  0  0  0  0  0  0  0  0  0  0
   43.1191    1.5456   37.8747 C   0  0  0  0  0  0  0  0  0  0  0  0
   42.3254    0.8587   36.8532 N   0  0  0  0  0  0  0  0  0  0  0  0
   42.9985   -0.0379   35.8974 C   0  0  0  0  0  0  0  0  0  0  0  0
   42.3303   -1.4078   35.6323 C   0  0  0  0  0  0  0  0  0  0  0  0
   42.2541   -2.3630   36.8405 C   0  0  0  0  0  0  0  0  0  0  0  0
   41.6749   -3.6610   36.5069 N   0  0  0  0  0  0  0  0  0  0  0  0
  1  2  1  0  0  0  0
  2  3  1  0  0  0  0
  3  4  1  0  0  0  0
  4  5  1  0  0  0  0
  5  6  1  0  0  0  0
  6  7  1  0  0  0  0
  7  8  1  0  0  0  0
  8  9  1  0  0  0  0
  9 10  1  0  0  0  0
 10 11  1  0  0  0  0
 11 12  1  0  0  0  0
 12 13  1  0  0  0  0
 13 14  1  0  0  0  0
M  END
>  <CHROM.1>
67.15641370,-63.30498232,-176.66532450,-173.10366140,177.65543298,-179.84128380
58.23501835,58.40470221,134.73213030,-64.05896080,-177.08087984,43.52905614
2.69784363,35.42847335,1.04073428,-1.08059532,-0.84842993

>  <Name>
ligand

>  <RI>
0

>  <Rbt.Current_Directory>
/home/itssahil/PROJECTS/Mol_Feturizer/New_Systems/rnas/4E8Q

>  <Rbt.Executable>
rbdock ($Id: //depot/dev/client3/rdock/2013.1/src/exe/rbdock.cxx#4 $)

>  <Rbt.Library>
libRbt.so (2013.1, Build901 2013/11/27)

>  <Rbt.Parameter_File>
/export/apps/rDock/src/rDock_2013.1_src/data/scripts/dock_solv.prm

>  <Rbt.Receptor>
prm/blind_docking_80.prm

>  <SCORE>
-10.9525

>  <SCORE.INTER>
0.172216

>  <SCORE.INTER.CONST>
1

>  <SCORE.INTER.POLAR>
0

>  <SCORE.INTER.ROT>
11

>  <SCORE.INTER.SOLV>
11.71

>  <SCORE.INTER.VDW>
-14.7219

>  <SCORE.INTER.norm>
0.0123011

>  <SCORE.INTRA>
-11.1247

>  <SCORE.INTRA.DIHEDRAL>
-24.4812

>  <SCORE.INTRA.DIHEDRAL.0>
25.9209

>  <SCORE.INTRA.POLAR>
0

>  <SCORE.INTRA.POLAR.0>
0

>  <SCORE.INTRA.REPUL>
0

>  <SCORE.INTRA.REPUL.0>
0

>  <SCORE.INTRA.SOLV>
1.12917

>  <SCORE.INTRA.SOLV.lig_0>
-47.4815

>  <SCORE.INTRA.VDW>
0.55129

>  <SCORE.INTRA.VDW.0>
-1.57492

>  <SCORE.INTRA.norm>
-0.794622

>  <SCORE.RESTR>
0

>  <SCORE.RESTR.CAVITY>
0

>  <SCORE.RESTR.norm>
0

>  <SCORE.SYSTEM>
0

>  <SCORE.SYSTEM.CONST>
0

>  <SCORE.SYSTEM.DIHEDRAL>
0

>  <SCORE.SYSTEM.SOLV>
0

>  <SCORE.SYSTEM.norm>
0

>  <SCORE.heavy>
14

>  <SCORE.norm>
-0.782321

>  <RMSD>
38.578

$$$$
ligand
 OpenBabel11021811493D
libRbt.so/2013.1/901 2013/11/27
 14 13  0  0  0  0  0  0  0  0999 V2000
   17.0702    4.1410    1.6418 N   0  0  0  0  0  0  0  0  0  0  0  0
   15.7835    3.6228    2.0902 C   0  0  0  0  0  0  0  0  0  0  0  0
   15.0886    4.6211    3.0404 C   0  0  0  0  0  0  0  0  0  0  0  0
   13.7083    4.1648    3.5536 C   0  0  0  0  0  0  0  0  0  0  0  0
   13.0315    5.0001    4.5571 N   0  0  0  0  0  0  0  0  0  0  0  0
   13.4975    5.0384    5.9478 C   0  0  0  0  0  0  0  0  0  0  0  0
   14.5042    6.1478    6.2659 C   0  0  0  0  0  0  0  0  0  0  0  0
   15.3777    5.8273    7.4907 C   0  0  0  0  0  0  0  0  0  0  0  0
   16.5348    4.8596    7.1953 C   0  0  0  0  0  0  0  0  0  0  0  0
   16.1279    3.5763    6.6180 N   0  0  0  0  0  0  0  0  0  0  0  0
   17.1589    2.6485    6.1213 C   0  0  0  0  0  0  0  0  0  0  0  0
   16.7175    1.6157    5.0574 C   0  0  0  0  0  0  0  0  0  0  0  0
   15.7337    0.5313    5.5414 C   0  0  0  0  0  0  0  0  0  0  0  0
   14.3961    1.0518    5.8090 N   0  0  0  0  0  0  0  0  0  0  0  0
  1  2  1  0  0  0  0
  2  3  1  0  0  0  0
  3  4  1  0  0  0  0
  4  5  1  0  0  0  0
  5  6  1  0  0  0  0
  6  7  1  0  0  0  0
  7  8  1  0  0  0  0
  8  9  1  0  0  0  0
  9 10  1  0  0  0  0
 10 11  1  0  0  0  0
 11 12  1  0  0  0  0
 12 13  1  0  0  0  0
 13 14  1  0  0  0  0
M  END
>  <CHROM.1>
179.26343391,174.61957221,-73.12785369,92.34828663,-156.45417951,79.16501691
-56.47218061,171.52891271,-156.59197215,-67.54410550,70.75121328,15.33795389
3.77487921,5.06658904,0.86589807,1.11187745,-1.63149368

>  <Name>
ligand

>  <RI>
0

>  <Rbt.Current_Directory>
/home/itssahil/PROJECTS/Mol_Feturizer/New_Systems/rnas/4E8Q

>  <Rbt.Executable>
rbdock ($Id: //depot/dev/client3/rdock/2013.1/src/exe/rbdock.cxx#4 $)

>  <Rbt.Library>
libRbt.so (2013.1, Build901 2013/11/27)

>  <Rbt.Parameter_File>
/export/apps/rDock/src/rDock_2013.1_src/data/scripts/dock_solv.prm

>  <Rbt.Receptor>
prm/blind_docking_20.prm

>  <SCORE>
-4.68396

>  <SCORE.INTER>
5.12109

>  <SCORE.INTER.CONST>
1

>  <SCORE.INTER.POLAR>
0

>  <SCORE.INTER.ROT>
11

>  <SCORE.INTER.SOLV>
12.0252

>  <SCORE.INTER.VDW>
-11.5277

>  <SCORE.INTER.norm>
0.365792

>  <SCORE.INTRA>
-9.80504

>  <SCORE.INTRA.DIHEDRAL>
-20.5992

>  <SCORE.INTRA.DIHEDRAL.0>
25.9209

>  <SCORE.INTRA.POLAR>
0

>  <SCORE.INTRA.POLAR.0>
0

>  <SCORE.INTRA.REPUL>
0

>  <SCORE.INTRA.REPUL.0>
0

>  <SCORE.INTRA.SOLV>
3.27467

>  <SCORE.INTRA.SOLV.lig_0>
-47.4815

>  <SCORE.INTRA.VDW>
-1.14277

>  <SCORE.INTRA.VDW.0>
-1.57492

>  <SCORE.INTRA.norm>
-0.70036

>  <SCORE.RESTR>
0

>  <SCORE.RESTR.CAVITY>
0

>  <SCORE.RESTR.norm>
0

>  <SCORE.SYSTEM>
0

>  <SCORE.SYSTEM.CONST>
0

>  <SCORE.SYSTEM.DIHEDRAL>
0

>  <SCORE.SYSTEM.SOLV>
0

>  <SCORE.SYSTEM.norm>
0

>  <SCORE.heavy>
14

>  <SCORE.norm>
-0.334568

>  <RMSD>
38.794

$$$$
ligand
 OpenBabel11021811493D
libRbt.so/2013.1/901 2013/11/27
 14 13  0  0  0  0  0  0  0  0999 V2000
   15.2614    4.7380    2.3543 N   0  0  0  0  0  0  0  0  0  0  0  0
   15.1055    6.1740    2.5508 C   0  0  0  0  0  0  0  0  0  0  0  0
   13.7287    6.4992    3.1684 C   0  0  0  0  0  0  0  0  0  0  0  0
   13.5318    5.9816    4.6071 C   0  0  0  0  0  0  0  0  0  0  0  0
   14.4086    6.5141    5.6610 N   0  0  0  0  0  0  0  0  0  0  0  0
   14.4521    5.8975    6.9916 C   0  0  0  0  0  0  0  0  0  0  0  0
   15.1985    4.5623    7.0655 C   0  0  0  0  0  0  0  0  0  0  0  0
   16.7265    4.7290    7.0061 C   0  0  0  0  0  0  0  0  0  0  0  0
   17.4943    3.4027    6.8889 C   0  0  0  0  0  0  0  0  0  0  0  0
   17.2646    2.6700    5.6416 N   0  0  0  0  0  0  0  0  0  0  0  0
   16.5598    1.3769    5.6827 C   0  0  0  0  0  0  0  0  0  0  0  0
   15.1397    1.3336    5.0703 C   0  0  0  0  0  0  0  0  0  0  0  0
   14.4002   -0.0149    5.1837 C   0  0  0  0  0  0  0  0  0  0  0  0
   13.0764    0.0059    4.5684 N   0  0  0  0  0  0  0  0  0  0  0  0
  1  2  1  0  0  0  0
  2  3  1  0  0  0  0
  3  4  1  0  0  0  0
  4  5  1  0  0  0  0
  5  6  1  0  0  0  0
  6  7  1  0  0  0  0
  7  8  1  0  0  0  0
  8  9  1  0  0  0  0
  9 10  1  0  0  0  0
 10 11  1  0  0  0  0
 11 12  1  0  0  0  0
 12 13  1  0  0  0  0
 13 14  1  0  0  0  0
M  END
>  <CHROM.1>
66.40463795,62.92121892,-168.56407331,74.34444205,75.01828014,-172.26110924
65.31229034,-113.15094457,110.57534553,-177.34270385,-179.08470764,15.16779141
3.84799481,5.17456221,1.83016478,-0.95769715,0.00735634

>  <Name>
ligand

>  <RI>
0

>  <Rbt.Current_Directory>
/home/itssahil/PROJECTS/Mol_Feturizer/New_Systems/rnas/4E8Q

>  <Rbt.Executable>
rbdock ($Id: //depot/dev/client3/rdock/2013.1/src/exe/rbdock.cxx#4 $)

>  <Rbt.Library>
libRbt.so (2013.1, Build901 2013/11/27)

>  <Rbt.Parameter_File>
/export/apps/rDock/src/rDock_2013.1_src/data/scripts/dock_solv.prm

>  <Rbt.Receptor>
prm/blind_docking_20.prm

>  <SCORE>
-3.96789

>  <SCORE.INTER>
7.19778

>  <SCORE.INTER.CONST>
1

>  <SCORE.INTER.POLAR>
0

>  <SCORE.INTER.ROT>
11

>  <SCORE.INTER.SOLV>
11.2562

>  <SCORE.INTER.VDW>
-9.88689

>  <SCORE.INTER.norm>
0.514127

>  <SCORE.INTRA>
-11.1711

>  <SCORE.INTRA.DIHEDRAL>
-21.9849

>  <SCORE.INTRA.DIHEDRAL.0>
25.9209

>  <SCORE.INTRA.POLAR>
0

>  <SCORE.INTRA.POLAR.0>
0

>  <SCORE.INTRA.REPUL>
0

>  <SCORE.INTRA.REPUL.0>
0

>  <SCORE.INTRA.SOLV>
0.301573

>  <SCORE.INTRA.SOLV.lig_0>
-47.4815

>  <SCORE.INTRA.VDW>
-0.329469

>  <SCORE.INTRA.VDW.0>
-1.57492

>  <SCORE.INTRA.norm>
-0.797938

>  <SCORE.RESTR>
0.00546991

>  <SCORE.RESTR.CAVITY>
0.00546991

>  <SCORE.RESTR.norm>
0.000390708

>  <SCORE.SYSTEM>
0

>  <SCORE.SYSTEM.CONST>
0

>  <SCORE.SYSTEM.DIHEDRAL>
0

>  <SCORE.SYSTEM.SOLV>
0

>  <SCORE.SYSTEM.norm>
0

>  <SCORE.heavy>
14

>  <SCORE.norm>
-0.283421

>  <RMSD>
39.089

$$$$
ligand
 OpenBabel11021811493D
libRbt.so/2013.1/901 2013/11/27
 14 13  0  0  0  0  0  0  0  0999 V2000
   15.9414    5.3530    2.0582 N   0  0  0  0  0  0  0  0  0  0  0  0
   16.8173    4.1903    2.1386 C   0  0  0  0  0  0  0  0  0  0  0  0
   16.0719    2.9086    1.7096 C   0  0  0  0  0  0  0  0  0  0  0  0
   14.9088    2.5014    2.6360 C   0  0  0  0  0  0  0  0  0  0  0  0
   15.2312    2.0728    4.0053 N   0  0  0  0  0  0  0  0  0  0  0  0
   15.4733    3.0551    5.0679 C   0  0  0  0  0  0  0  0  0  0  0  0
   16.9050    3.0864    5.6107 C   0  0  0  0  0  0  0  0  0  0  0  0
   17.3349    1.7488    6.2368 C   0  0  0  0  0  0  0  0  0  0  0  0
   16.6629    1.4475    7.5860 C   0  0  0  0  0  0  0  0  0  0  0  0
   15.1986    1.4384    7.5526 N   0  0  0  0  0  0  0  0  0  0  0  0
   14.4553    0.7840    8.6433 C   0  0  0  0  0  0  0  0  0  0  0  0
   12.9209    0.9815    8.6621 C   0  0  0  0  0  0  0  0  0  0  0  0
   12.1743    0.5645    7.3789 C   0  0  0  0  0  0  0  0  0  0  0  0
   12.2819   -0.8633    7.0937 N   0  0  0  0  0  0  0  0  0  0  0  0
  1  2  1  0  0  0  0
  2  3  1  0  0  0  0
  3  4  1  0  0  0  0
  4  5  1  0  0  0  0
  5  6  1  0  0  0  0
  6  7  1  0  0  0  0
  7  8  1  0  0  0  0
  8  9  1  0  0  0  0
  9 10  1  0  0  0  0
 10 11  1  0  0  0  0
 11 12  1  0  0  0  0
 12 13  1  0  0  0  0
 13 14  1  0  0  0  0
M  END
>  <CHROM.1>
-65.05541084,-66.56544916,81.71724043,-113.56461255,-60.89536224,-72.10680290
56.94198946,161.89096676,171.42235944,56.00059997,63.40979752,15.17004728
2.09067399,5.45582233,1.14674010,-0.39124589,-1.20227759

>  <Name>
ligand

>  <RI>
0

>  <Rbt.Current_Directory>
/home/itssahil/PROJECTS/Mol_Feturizer/New_Systems/rnas/4E8Q

>  <Rbt.Executable>
rbdock ($Id: //depot/dev/client3/rdock/2013.1/src/exe/rbdock.cxx#4 $)

>  <Rbt.Library>
libRbt.so (2013.1, Build901 2013/11/27)

>  <Rbt.Parameter_File>
/export/apps/rDock/src/rDock_2013.1_src/data/scripts/dock_solv.prm

>  <Rbt.Receptor>
prm/blind_docking_20.prm

>  <SCORE>
-6.5264

>  <SCORE.INTER>
2.97288

>  <SCORE.INTER.CONST>
1

>  <SCORE.INTER.POLAR>
0

>  <SCORE.INTER.ROT>
11

>  <SCORE.INTER.SOLV>
10.3227

>  <SCORE.INTER.VDW>
-12.3923

>  <SCORE.INTER.norm>
0.212348

>  <SCORE.INTRA>
-9.49928

>  <SCORE.INTRA.DIHEDRAL>
-23.1026

>  <SCORE.INTRA.DIHEDRAL.0>
25.9209

>  <SCORE.INTRA.POLAR>
0

>  <SCORE.INTRA.POLAR.0>
0

>  <SCORE.INTRA.REPUL>
0

>  <SCORE.INTRA.REPUL.0>
0

>  <SCORE.INTRA.SOLV>
3.81421

>  <SCORE.INTRA.SOLV.lig_0>
-47.4815

>  <SCORE.INTRA.VDW>
0.144891

>  <SCORE.INTRA.VDW.0>
-1.57492

>  <SCORE.INTRA.norm>
-0.67852

>  <SCORE.RESTR>
0

>  <SCORE.RESTR.CAVITY>
0

>  <SCORE.RESTR.norm>
0

>  <SCORE.SYSTEM>
0

>  <SCORE.SYSTEM.CONST>
0

>  <SCORE.SYSTEM.DIHEDRAL>
0

>  <SCORE.SYSTEM.SOLV>
0

>  <SCORE.SYSTEM.norm>
0

>  <SCORE.heavy>
14

>  <SCORE.norm>
-0.466172

>  <RMSD>
39.106

$$$$
ligand
 OpenBabel11021811493D
libRbt.so/2013.1/901 2013/11/27
 14 13  0  0  0  0  0  0  0  0999 V2000
   44.2001    7.4783   30.8909 N   0  0  0  0  0  0  0  0  0  0  0  0
   44.1133    8.3941   32.0218 C   0  0  0  0  0  0  0  0  0  0  0  0
   43.8681    7.6238   33.3368 C   0  0  0  0  0  0  0  0  0  0  0  0
   45.0183    6.6869   33.7564 C   0  0  0  0  0  0  0  0  0  0  0  0
   44.8578    5.9023   34.9899 N   0  0  0  0  0  0  0  0  0  0  0  0
   45.8840    4.9441   35.4155 C   0  0  0  0  0  0  0  0  0  0  0  0
   45.3775    3.7960   36.2934 C   0  0  0  0  0  0  0  0  0  0  0  0
   44.1817    3.0536   35.6731 C   0  0  0  0  0  0  0  0  0  0  0  0
   43.6672    1.8806   36.5229 C   0  0  0  0  0  0  0  0  0  0  0  0
   43.2752    2.2388   37.8879 N   0  0  0  0  0  0  0  0  0  0  0  0
   42.8016    1.1860   38.8032 C   0  0  0  0  0  0  0  0  0  0  0  0
   41.2777    1.1150   39.0604 C   0  0  0  0  0  0  0  0  0  0  0  0
   40.6227    2.4120   39.5771 C   0  0  0  0  0  0  0  0  0  0  0  0
   41.2510    2.9251   40.7910 N   0  0  0  0  0  0  0  0  0  0  0  0
  1  2  1  0  0  0  0
  2  3  1  0  0  0  0
  3  4  1  0  0  0  0
  4  5  1  0  0  0  0
  5  6  1  0  0  0  0
  6  7  1  0  0  0  0
  7  8  1  0  0  0  0
  8  9  1  0  0  0  0
  9 10  1  0  0  0  0
 10 11  1  0  0  0  0
 11 12  1  0  0  0  0
 12 13  1  0  0  0  0
 13 14  1  0  0  0  0
M  END
>  <CHROM.1>
64.63883467,-179.24433890,177.08709954,-154.11128778,52.31371659,179.04047278
56.73436416,-178.34349342,-103.80614645,-55.59571717,-55.24572603,43.59981387
4.25959419,36.07285123,1.22593669,0.50051188,-0.70637181

>  <Name>
ligand

>  <RI>
0

>  <Rbt.Current_Directory>
/home/itssahil/PROJECTS/Mol_Feturizer/New_Systems/rnas/4E8Q

>  <Rbt.Executable>
rbdock ($Id: //depot/dev/client3/rdock/2013.1/src/exe/rbdock.cxx#4 $)

>  <Rbt.Library>
libRbt.so (2013.1, Build901 2013/11/27)

>  <Rbt.Parameter_File>
/export/apps/rDock/src/rDock_2013.1_src/data/scripts/dock_solv.prm

>  <Rbt.Receptor>
prm/blind_docking_100.prm

>  <SCORE>
-12.8486

>  <SCORE.INTER>
-1.90594

>  <SCORE.INTER.CONST>
1

>  <SCORE.INTER.POLAR>
0

>  <SCORE.INTER.ROT>
11

>  <SCORE.INTER.SOLV>
14.4227

>  <SCORE.INTER.VDW>
-17.0115

>  <SCORE.INTER.norm>
-0.136139

>  <SCORE.INTRA>
-10.9426

>  <SCORE.INTRA.DIHEDRAL>
-23.937

>  <SCORE.INTRA.DIHEDRAL.0>
25.9209

>  <SCORE.INTRA.POLAR>
0

>  <SCORE.INTRA.POLAR.0>
0

>  <SCORE.INTRA.REPUL>
0

>  <SCORE.INTRA.REPUL.0>
0

>  <SCORE.INTRA.SOLV>
1.17389

>  <SCORE.INTRA.SOLV.lig_0>
-47.4815

>  <SCORE.INTRA.VDW>
0.438904

>  <SCORE.INTRA.VDW.0>
-1.57492

>  <SCORE.INTRA.norm>
-0.781617

>  <SCORE.RESTR>
0

>  <SCORE.RESTR.CAVITY>
0

>  <SCORE.RESTR.norm>
0

>  <SCORE.SYSTEM>
0

>  <SCORE.SYSTEM.CONST>
0

>  <SCORE.SYSTEM.DIHEDRAL>
0

>  <SCORE.SYSTEM.SOLV>
0

>  <SCORE.SYSTEM.norm>
0

>  <SCORE.heavy>
14

>  <SCORE.norm>
-0.917756

>  <RMSD>
39.186

$$$$
ligand
 OpenBabel11021811493D
libRbt.so/2013.1/901 2013/11/27
 14 13  0  0  0  0  0  0  0  0999 V2000
   14.7578   -1.1702    6.7285 N   0  0  0  0  0  0  0  0  0  0  0  0
   13.5023   -0.5078    6.3967 C   0  0  0  0  0  0  0  0  0  0  0  0
   12.7283   -0.1223    7.6753 C   0  0  0  0  0  0  0  0  0  0  0  0
   13.2463    1.1462    8.3819 C   0  0  0  0  0  0  0  0  0  0  0  0
   14.6679    1.2001    8.7545 N   0  0  0  0  0  0  0  0  0  0  0  0
   15.7023    1.4800    7.7524 C   0  0  0  0  0  0  0  0  0  0  0  0
   15.5860    2.8413    7.0605 C   0  0  0  0  0  0  0  0  0  0  0  0
   16.4493    2.9410    5.7914 C   0  0  0  0  0  0  0  0  0  0  0  0
   16.0236    1.9791    4.6707 C   0  0  0  0  0  0  0  0  0  0  0  0
   16.6758    2.2149    3.3805 N   0  0  0  0  0  0  0  0  0  0  0  0
   16.0562    3.1408    2.4165 C   0  0  0  0  0  0  0  0  0  0  0  0
   16.1272    4.6499    2.7500 C   0  0  0  0  0  0  0  0  0  0  0  0
   15.2152    5.5670    1.9103 C   0  0  0  0  0  0  0  0  0  0  0  0
   13.7948    5.2839    2.0946 N   0  0  0  0  0  0  0  0  0  0  0  0
  1  2  1  0  0  0  0
  2  3  1  0  0  0  0
  3  4  1  0  0  0  0
  4  5  1  0  0  0  0
  5  6  1  0  0  0  0
  6  7  1  0  0  0  0
  7  8  1  0  0  0  0
  8  9  1  0  0  0  0
  9 10  1  0  0  0  0
 10 11  1  0  0  0  0
 11 12  1  0  0  0  0
 12 13  1  0  0  0  0
 13 14  1  0  0  0  0
M  END
>  <CHROM.1>
78.56086650,-54.82246249,77.62370861,61.16590497,-165.24118220,64.46927416
169.92342053,-89.65586916,72.44959608,-166.85867559,62.92643587,15.03808775
2.18898492,5.41178090,1.79468044,0.34023091,2.16074289

>  <Name>
ligand

>  <RI>
0

>  <Rbt.Current_Directory>
/home/itssahil/PROJECTS/Mol_Feturizer/New_Systems/rnas/4E8Q

>  <Rbt.Executable>
rbdock ($Id: //depot/dev/client3/rdock/2013.1/src/exe/rbdock.cxx#4 $)

>  <Rbt.Library>
libRbt.so (2013.1, Build901 2013/11/27)

>  <Rbt.Parameter_File>
/export/apps/rDock/src/rDock_2013.1_src/data/scripts/dock_solv.prm

>  <Rbt.Receptor>
prm/blind_docking_20.prm

>  <SCORE>
-2.37026

>  <SCORE.INTER>
5.98985

>  <SCORE.INTER.CONST>
1

>  <SCORE.INTER.POLAR>
0

>  <SCORE.INTER.ROT>
11

>  <SCORE.INTER.SOLV>
11.3724

>  <SCORE.INTER.VDW>
-10.7309

>  <SCORE.INTER.norm>
0.427846

>  <SCORE.INTRA>
-8.36267

>  <SCORE.INTRA.DIHEDRAL>
-21.762

>  <SCORE.INTRA.DIHEDRAL.0>
25.9209

>  <SCORE.INTRA.POLAR>
0

>  <SCORE.INTRA.POLAR.0>
0

>  <SCORE.INTRA.REPUL>
0

>  <SCORE.INTRA.REPUL.0>
0

>  <SCORE.INTRA.SOLV>
3.1617

>  <SCORE.INTRA.SOLV.lig_0>
-47.4815

>  <SCORE.INTRA.VDW>
0.937489

>  <SCORE.INTRA.VDW.0>
-1.57492

>  <SCORE.INTRA.norm>
-0.597333

>  <SCORE.RESTR>
0.00255848

>  <SCORE.RESTR.CAVITY>
0.00255848

>  <SCORE.RESTR.norm>
0.000182748

>  <SCORE.SYSTEM>
0

>  <SCORE.SYSTEM.CONST>
0

>  <SCORE.SYSTEM.DIHEDRAL>
0

>  <SCORE.SYSTEM.SOLV>
0

>  <SCORE.SYSTEM.norm>
0

>  <SCORE.heavy>
14

>  <SCORE.norm>
-0.169304

>  <RMSD>
39.208

$$$$
ligand
 OpenBabel11021811493D
libRbt.so/2013.1/901 2013/11/27
 14 13  0  0  0  0  0  0  0  0999 V2000
   16.2063    1.4430    6.9207 N   0  0  0  0  0  0  0  0  0  0  0  0
   15.4566    1.6494    8.1538 C   0  0  0  0  0  0  0  0  0  0  0  0
   13.9786    1.2419    7.9747 C   0  0  0  0  0  0  0  0  0  0  0  0
   13.7588   -0.2472    7.6416 C   0  0  0  0  0  0  0  0  0  0  0  0
   13.9685   -0.6849    6.2534 N   0  0  0  0  0  0  0  0  0  0  0  0
   12.9895   -0.3732    5.2061 C   0  0  0  0  0  0  0  0  0  0  0  0
   13.5874   -0.0258    3.8396 C   0  0  0  0  0  0  0  0  0  0  0  0
   14.5810    1.1465    3.9039 C   0  0  0  0  0  0  0  0  0  0  0  0
   15.1286    1.5756    2.5333 C   0  0  0  0  0  0  0  0  0  0  0  0
   16.1893    2.5844    2.5858 N   0  0  0  0  0  0  0  0  0  0  0  0
   16.3090    3.5642    1.4922 C   0  0  0  0  0  0  0  0  0  0  0  0
   16.4880    5.0468    1.8967 C   0  0  0  0  0  0  0  0  0  0  0  0
   15.3482    5.6558    2.7381 C   0  0  0  0  0  0  0  0  0  0  0  0
   14.0723    5.6938    2.0295 N   0  0  0  0  0  0  0  0  0  0  0  0
  1  2  1  0  0  0  0
  2  3  1  0  0  0  0
  3  4  1  0  0  0  0
  4  5  1  0  0  0  0
  5  6  1  0  0  0  0
  6  7  1  0  0  0  0
  7  8  1  0  0  0  0
  8  9  1  0  0  0  0
  9 10  1  0  0  0  0
 10 11  1  0  0  0  0
 11 12  1  0  0  0  0
 12 13  1  0  0  0  0
 13 14  1  0  0  0  0
M  END
>  <CHROM.1>
62.29012903,-79.60626119,-74.75896154,142.02705183,-56.25561228,-176.29351519
-173.29838821,-148.01359224,133.12438225,-60.14165687,-63.19582929,14.86147993
2.01920039,4.51213323,-2.11597393,-1.15106057,-1.36155725

>  <Name>
ligand

>  <RI>
0

>  <Rbt.Current_Directory>
/home/itssahil/PROJECTS/Mol_Feturizer/New_Systems/rnas/4E8Q

>  <Rbt.Executable>
rbdock ($Id: //depot/dev/client3/rdock/2013.1/src/exe/rbdock.cxx#4 $)

>  <Rbt.Library>
libRbt.so (2013.1, Build901 2013/11/27)

>  <Rbt.Parameter_File>
/export/apps/rDock/src/rDock_2013.1_src/data/scripts/dock_solv.prm

>  <Rbt.Receptor>
prm/blind_docking_20.prm

>  <SCORE>
-4.90365

>  <SCORE.INTER>
4.11824

>  <SCORE.INTER.CONST>
1

>  <SCORE.INTER.POLAR>
0

>  <SCORE.INTER.ROT>
11

>  <SCORE.INTER.SOLV>
9.70237

>  <SCORE.INTER.VDW>
-11.422

>  <SCORE.INTER.norm>
0.29416

>  <SCORE.INTRA>
-9.0304

>  <SCORE.INTRA.DIHEDRAL>
-21.5132

>  <SCORE.INTRA.DIHEDRAL.0>
25.9209

>  <SCORE.INTRA.POLAR>
0

>  <SCORE.INTRA.POLAR.0>
0

>  <SCORE.INTRA.REPUL>
0.00872808

>  <SCORE.INTRA.REPUL.0>
0

>  <SCORE.INTRA.SOLV>
4.0039

>  <SCORE.INTRA.SOLV.lig_0>
-47.4815

>  <SCORE.INTRA.VDW>
-0.319412

>  <SCORE.INTRA.VDW.0>
-1.57492

>  <SCORE.INTRA.norm>
-0.645028

>  <SCORE.RESTR>
0.0085033

>  <SCORE.RESTR.CAVITY>
0.0085033

>  <SCORE.RESTR.norm>
0.000607379

>  <SCORE.SYSTEM>
0

>  <SCORE.SYSTEM.CONST>
0

>  <SCORE.SYSTEM.DIHEDRAL>
0

>  <SCORE.SYSTEM.SOLV>
0

>  <SCORE.SYSTEM.norm>
0

>  <SCORE.heavy>
14

>  <SCORE.norm>
-0.350261

>  <RMSD>
39.219

$$$$
ligand
 OpenBabel11021811493D
libRbt.so/2013.1/901 2013/11/27
 14 13  0  0  0  0  0  0  0  0999 V2000
   15.0326   -0.8336    6.4931 N   0  0  0  0  0  0  0  0  0  0  0  0
   15.2815    0.3360    5.6592 C   0  0  0  0  0  0  0  0  0  0  0  0
   16.5450    1.0883    6.1287 C   0  0  0  0  0  0  0  0  0  0  0  0
   16.8207    2.4087    5.3823 C   0  0  0  0  0  0  0  0  0  0  0  0
   17.0454    2.3498    3.9301 N   0  0  0  0  0  0  0  0  0  0  0  0
   15.9210    2.2307    2.9952 C   0  0  0  0  0  0  0  0  0  0  0  0
   16.0499    3.0597    1.7140 C   0  0  0  0  0  0  0  0  0  0  0  0
   16.2002    4.5653    1.9904 C   0  0  0  0  0  0  0  0  0  0  0  0
   14.9106    5.2403    2.4842 C   0  0  0  0  0  0  0  0  0  0  0  0
   14.3416    4.6574    3.7016 N   0  0  0  0  0  0  0  0  0  0  0  0
   13.1803    5.3037    4.3373 C   0  0  0  0  0  0  0  0  0  0  0  0
   12.5162    4.5497    5.5137 C   0  0  0  0  0  0  0  0  0  0  0  0
   11.3166    5.2587    6.1743 C   0  0  0  0  0  0  0  0  0  0  0  0
   10.6688    4.4483    7.2015 N   0  0  0  0  0  0  0  0  0  0  0  0
  1  2  1  0  0  0  0
  2  3  1  0  0  0  0
  3  4  1  0  0  0  0
  4  5  1  0  0  0  0
  5  6  1  0  0  0  0
  6  7  1  0  0  0  0
  7  8  1  0  0  0  0
  8  9  1  0  0  0  0
  9 10  1  0  0  0  0
 10 11  1  0  0  0  0
 11 12  1  0  0  0  0
 12 13  1  0  0  0  0
 13 14  1  0  0  0  0
M  END
>  <CHROM.1>
-174.97532855,-60.81201085,79.25161705,140.47402060,-58.70319397,-72.09512599
57.36613582,174.17243645,172.62474571,179.10420134,175.26607685,14.70234394
3.19042989,4.55008190,0.28382483,-0.63448964,2.40170876

>  <Name>
ligand

>  <RI>
0

>  <Rbt.Current_Directory>
/home/itssahil/PROJECTS/Mol_Feturizer/New_Systems/rnas/4E8Q

>  <Rbt.Executable>
rbdock ($Id: //depot/dev/client3/rdock/2013.1/src/exe/rbdock.cxx#4 $)

>  <Rbt.Library>
libRbt.so (2013.1, Build901 2013/11/27)

>  <Rbt.Parameter_File>
/export/apps/rDock/src/rDock_2013.1_src/data/scripts/dock_solv.prm

>  <Rbt.Receptor>
prm/blind_docking_20.prm

>  <SCORE>
-5.56642

>  <SCORE.INTER>
5.57906

>  <SCORE.INTER.CONST>
1

>  <SCORE.INTER.POLAR>
0

>  <SCORE.INTER.ROT>
11

>  <SCORE.INTER.SOLV>
10.3978

>  <SCORE.INTER.VDW>
-10.6799

>  <SCORE.INTER.norm>
0.398504

>  <SCORE.INTRA>
-11.4388

>  <SCORE.INTRA.DIHEDRAL>
-23.8713

>  <SCORE.INTRA.DIHEDRAL.0>
25.9209

>  <SCORE.INTRA.POLAR>
0

>  <SCORE.INTRA.POLAR.0>
0

>  <SCORE.INTRA.REPUL>
0

>  <SCORE.INTRA.REPUL.0>
0

>  <SCORE.INTRA.SOLV>
0.516752

>  <SCORE.INTRA.SOLV.lig_0>
-47.4815

>  <SCORE.INTRA.VDW>
0.238517

>  <SCORE.INTRA.VDW.0>
-1.57492

>  <SCORE.INTRA.norm>
-0.817054

>  <SCORE.RESTR>
0.29328

>  <SCORE.RESTR.CAVITY>
0.29328

>  <SCORE.RESTR.norm>
0.0209486

>  <SCORE.SYSTEM>
0

>  <SCORE.SYSTEM.CONST>
0

>  <SCORE.SYSTEM.DIHEDRAL>
0

>  <SCORE.SYSTEM.SOLV>
0

>  <SCORE.SYSTEM.norm>
0

>  <SCORE.heavy>
14

>  <SCORE.norm>
-0.397602

>  <RMSD>
39.408

$$$$
ligand
 OpenBabel11021811493D
libRbt.so/2013.1/901 2013/11/27
 14 13  0  0  0  0  0  0  0  0999 V2000
   38.9009    2.5263   29.2137 N   0  0  0  0  0  0  0  0  0  0  0  0
   39.1831    3.0242   30.5544 C   0  0  0  0  0  0  0  0  0  0  0  0
   40.6674    3.4247   30.6922 C   0  0  0  0  0  0  0  0  0  0  0  0
   41.0757    3.9028   32.0998 C   0  0  0  0  0  0  0  0  0  0  0  0
   40.9542    2.9534   33.2163 N   0  0  0  0  0  0  0  0  0  0  0  0
   39.6830    2.7823   33.9285 C   0  0  0  0  0  0  0  0  0  0  0  0
   39.5594    3.5695   35.2364 C   0  0  0  0  0  0  0  0  0  0  0  0
   38.2566    3.2646   35.9952 C   0  0  0  0  0  0  0  0  0  0  0  0
   38.1969    3.8783   37.4031 C   0  0  0  0  0  0  0  0  0  0  0  0
   39.2001    3.3643   38.3385 N   0  0  0  0  0  0  0  0  0  0  0  0
   39.2651    3.9161   39.7030 C   0  0  0  0  0  0  0  0  0  0  0  0
   40.2331    3.2250   40.6924 C   0  0  0  0  0  0  0  0  0  0  0  0
   41.7297    3.2948   40.3272 C   0  0  0  0  0  0  0  0  0  0  0  0
   42.0461    2.6057   39.0796 N   0  0  0  0  0  0  0  0  0  0  0  0
  1  2  1  0  0  0  0
  2  3  1  0  0  0  0
  3  4  1  0  0  0  0
  4  5  1  0  0  0  0
  5  6  1  0  0  0  0
  6  7  1  0  0  0  0
  7  8  1  0  0  0  0
  8  9  1  0  0  0  0
  9 10  1  0  0  0  0
 10 11  1  0  0  0  0
 11 12  1  0  0  0  0
 12 13  1  0  0  0  0
 13 14  1  0  0  0  0
M  END
>  <CHROM.1>
-177.28513516,62.07816339,-85.05233595,-97.73054371,-175.35649806,171.53443003
-63.91233877,177.90153369,173.22675843,63.61050205,-63.42917778,39.92495624
3.26674295,35.46308649,1.62453012,0.10520769,-1.60673875

>  <Name>
ligand

>  <RI>
0

>  <Rbt.Current_Directory>
/home/itssahil/PROJECTS/Mol_Feturizer/New_Systems/rnas/4E8Q

>  <Rbt.Executable>
rbdock ($Id: //depot/dev/client3/rdock/2013.1/src/exe/rbdock.cxx#4 $)

>  <Rbt.Library>
libRbt.so (2013.1, Build901 2013/11/27)

>  <Rbt.Parameter_File>
/export/apps/rDock/src/rDock_2013.1_src/data/scripts/dock_solv.prm

>  <Rbt.Receptor>
prm/blind_docking_100.prm

>  <SCORE>
-11.3512

>  <SCORE.INTER>
0.0131882

>  <SCORE.INTER.CONST>
1

>  <SCORE.INTER.POLAR>
0

>  <SCORE.INTER.ROT>
11

>  <SCORE.INTER.SOLV>
7.70198

>  <SCORE.INTER.VDW>
-13.4919

>  <SCORE.INTER.norm>
0.000942017

>  <SCORE.INTRA>
-11.3644

>  <SCORE.INTRA.DIHEDRAL>
-24.0251

>  <SCORE.INTRA.DIHEDRAL.0>
25.9209

>  <SCORE.INTRA.POLAR>
0

>  <SCORE.INTRA.POLAR.0>
0

>  <SCORE.INTRA.REPUL>
0

>  <SCORE.INTRA.REPUL.0>
0

>  <SCORE.INTRA.SOLV>
1.10689

>  <SCORE.INTRA.SOLV.lig_0>
-47.4815

>  <SCORE.INTRA.VDW>
0.0946813

>  <SCORE.INTRA.VDW.0>
-1.57492

>  <SCORE.INTRA.norm>
-0.811743

>  <SCORE.RESTR>
0

>  <SCORE.RESTR.CAVITY>
0

>  <SCORE.RESTR.norm>
0

>  <SCORE.SYSTEM>
0

>  <SCORE.SYSTEM.CONST>
0

>  <SCORE.SYSTEM.DIHEDRAL>
0

>  <SCORE.SYSTEM.SOLV>
0

>  <SCORE.SYSTEM.norm>
0

>  <SCORE.heavy>
14

>  <SCORE.norm>
-0.810801

>  <RMSD>
39.409

$$$$
ligand
 OpenBabel11021811493D
libRbt.so/2013.1/901 2013/11/27
 14 13  0  0  0  0  0  0  0  0999 V2000
   14.7482    7.5888    5.0152 N   0  0  0  0  0  0  0  0  0  0  0  0
   13.8314    6.5751    4.5083 C   0  0  0  0  0  0  0  0  0  0  0  0
   14.5831    5.5270    3.6604 C   0  0  0  0  0  0  0  0  0  0  0  0
   13.7098    4.3590    3.1606 C   0  0  0  0  0  0  0  0  0  0  0  0
   14.3618    3.2828    2.3994 N   0  0  0  0  0  0  0  0  0  0  0  0
   14.7647    2.0320    3.0517 C   0  0  0  0  0  0  0  0  0  0  0  0
   16.2267    1.9762    3.5044 C   0  0  0  0  0  0  0  0  0  0  0  0
   16.5688    3.0513    4.5499 C   0  0  0  0  0  0  0  0  0  0  0  0
   15.7670    2.9287    5.8556 C   0  0  0  0  0  0  0  0  0  0  0  0
   15.9575    1.6672    6.5752 N   0  0  0  0  0  0  0  0  0  0  0  0
   14.9947    0.5699    6.3768 C   0  0  0  0  0  0  0  0  0  0  0  0
   13.6019    0.7336    7.0302 C   0  0  0  0  0  0  0  0  0  0  0  0
   13.5985    0.9691    8.5542 C   0  0  0  0  0  0  0  0  0  0  0  0
   14.2724   -0.0913    9.2977 N   0  0  0  0  0  0  0  0  0  0  0  0
  1  2  1  0  0  0  0
  2  3  1  0  0  0  0
  3  4  1  0  0  0  0
  4  5  1  0  0  0  0
  5  6  1  0  0  0  0
  6  7  1  0  0  0  0
  7  8  1  0  0  0  0
  8  9  1  0  0  0  0
  9 10  1  0  0  0  0
 10 11  1  0  0  0  0
 11 12  1  0  0  0  0
 12 13  1  0  0  0  0
 13 14  1  0  0  0  0
M  END
>  <CHROM.1>
176.00451427,-177.13414146,97.86541248,-95.77208744,61.57573189,61.56071652
60.51061172,-95.86406796,-73.35482108,-56.53720308,-57.28432620,14.78473979
2.94061060,5.25259891,1.52285814,1.26377305,-0.65158963

>  <Name>
ligand

>  <RI>
0

>  <Rbt.Current_Directory>
/home/itssahil/PROJECTS/Mol_Feturizer/New_Systems/rnas/4E8Q

>  <Rbt.Executable>
rbdock ($Id: //depot/dev/client3/rdock/2013.1/src/exe/rbdock.cxx#4 $)

>  <Rbt.Library>
libRbt.so (2013.1, Build901 2013/11/27)

>  <Rbt.Parameter_File>
/export/apps/rDock/src/rDock_2013.1_src/data/scripts/dock_solv.prm

>  <Rbt.Receptor>
prm/blind_docking_20.prm

>  <SCORE>
-3.66397

>  <SCORE.INTER>
7.09112

>  <SCORE.INTER.CONST>
1

>  <SCORE.INTER.POLAR>
0

>  <SCORE.INTER.ROT>
11

>  <SCORE.INTER.SOLV>
12.9532

>  <SCORE.INTER.VDW>
-10.5237

>  <SCORE.INTER.norm>
0.506509

>  <SCORE.INTRA>
-10.7551

>  <SCORE.INTRA.DIHEDRAL>
-23.1951

>  <SCORE.INTRA.DIHEDRAL.0>
25.9209

>  <SCORE.INTRA.POLAR>
0

>  <SCORE.INTRA.POLAR.0>
0

>  <SCORE.INTRA.REPUL>
0

>  <SCORE.INTRA.REPUL.0>
0

>  <SCORE.INTRA.SOLV>
0.953684

>  <SCORE.INTRA.SOLV.lig_0>
-47.4815

>  <SCORE.INTRA.VDW>
0.365629

>  <SCORE.INTRA.VDW.0>
-1.57492

>  <SCORE.INTRA.norm>
-0.768221

>  <SCORE.RESTR>
0

>  <SCORE.RESTR.CAVITY>
0

>  <SCORE.RESTR.norm>
0

>  <SCORE.SYSTEM>
0

>  <SCORE.SYSTEM.CONST>
0

>  <SCORE.SYSTEM.DIHEDRAL>
0

>  <SCORE.SYSTEM.SOLV>
0

>  <SCORE.SYSTEM.norm>
0

>  <SCORE.heavy>
14

>  <SCORE.norm>
-0.261712

>  <RMSD>
39.439

$$$$
ligand
 OpenBabel11021811493D
libRbt.so/2013.1/901 2013/11/27
 14 13  0  0  0  0  0  0  0  0999 V2000
   15.9777    4.0345    6.8194 N   0  0  0  0  0  0  0  0  0  0  0  0
   15.4982    5.3792    7.1147 C   0  0  0  0  0  0  0  0  0  0  0  0
   14.2095    5.6903    6.3243 C   0  0  0  0  0  0  0  0  0  0  0  0
   14.4052    5.8158    4.8002 C   0  0  0  0  0  0  0  0  0  0  0  0
   14.7434    4.6014    4.0429 N   0  0  0  0  0  0  0  0  0  0  0  0
   15.9716    4.5259    3.2439 C   0  0  0  0  0  0  0  0  0  0  0  0
   15.9701    3.4554    2.1487 C   0  0  0  0  0  0  0  0  0  0  0  0
   15.8205    2.0303    2.7079 C   0  0  0  0  0  0  0  0  0  0  0  0
   14.4043    1.7018    3.2068 C   0  0  0  0  0  0  0  0  0  0  0  0
   14.2470    0.3551    3.7609 N   0  0  0  0  0  0  0  0  0  0  0  0
   14.8138    0.0483    5.0856 C   0  0  0  0  0  0  0  0  0  0  0  0
   14.1002    0.6642    6.3124 C   0  0  0  0  0  0  0  0  0  0  0  0
   12.6392    0.2221    6.5316 C   0  0  0  0  0  0  0  0  0  0  0  0
   12.5059   -1.2119    6.7707 N   0  0  0  0  0  0  0  0  0  0  0  0
  1  2  1  0  0  0  0
  2  3  1  0  0  0  0
  3  4  1  0  0  0  0
  4  5  1  0  0  0  0
  5  6  1  0  0  0  0
  6  7  1  0  0  0  0
  7  8  1  0  0  0  0
  8  9  1  0  0  0  0
  9 10  1  0  0  0  0
 10 11  1  0  0  0  0
 11 12  1  0  0  0  0
 12 13  1  0  0  0  0
 13 14  1  0  0  0  0
M  END
>  <CHROM.1>
-68.18159736,68.72234943,-121.73667756,-159.44032326,-61.64811478,73.50873593
-179.16174183,73.62965004,72.12656373,62.21096880,61.95234900,14.66488240
2.66545945,4.91911474,0.67923245,1.15300663,0.68270193

>  <Name>
ligand

>  <RI>
0

>  <Rbt.Current_Directory>
/home/itssahil/PROJECTS/Mol_Feturizer/New_Systems/rnas/4E8Q

>  <Rbt.Executable>
rbdock ($Id: //depot/dev/client3/rdock/2013.1/src/exe/rbdock.cxx#4 $)

>  <Rbt.Library>
libRbt.so (2013.1, Build901 2013/11/27)

>  <Rbt.Parameter_File>
/export/apps/rDock/src/rDock_2013.1_src/data/scripts/dock_solv.prm

>  <Rbt.Receptor>
prm/blind_docking_20.prm

>  <SCORE>
-5.8308

>  <SCORE.INTER>
3.38511

>  <SCORE.INTER.CONST>
1

>  <SCORE.INTER.POLAR>
0

>  <SCORE.INTER.ROT>
11

>  <SCORE.INTER.SOLV>
9.47163

>  <SCORE.INTER.VDW>
-11.8338

>  <SCORE.INTER.norm>
0.241794

>  <SCORE.INTRA>
-9.21591

>  <SCORE.INTRA.DIHEDRAL>
-22.8325

>  <SCORE.INTRA.DIHEDRAL.0>
25.9209

>  <SCORE.INTRA.POLAR>
0

>  <SCORE.INTRA.POLAR.0>
0

>  <SCORE.INTRA.REPUL>
0

>  <SCORE.INTRA.REPUL.0>
0

>  <SCORE.INTRA.SOLV>
4.3098

>  <SCORE.INTRA.SOLV.lig_0>
-47.4815

>  <SCORE.INTRA.VDW>
0.0454593

>  <SCORE.INTRA.VDW.0>
-1.57492

>  <SCORE.INTRA.norm>
-0.658279

>  <SCORE.RESTR>
0

>  <SCORE.RESTR.CAVITY>
0

>  <SCORE.RESTR.norm>
0

>  <SCORE.SYSTEM>
0

>  <SCORE.SYSTEM.CONST>
0

>  <SCORE.SYSTEM.DIHEDRAL>
0

>  <SCORE.SYSTEM.SOLV>
0

>  <SCORE.SYSTEM.norm>
0

>  <SCORE.heavy>
14

>  <SCORE.norm>
-0.416486

>  <RMSD>
39.516

$$$$
ligand
 OpenBabel11021811493D
libRbt.so/2013.1/901 2013/11/27
 14 13  0  0  0  0  0  0  0  0999 V2000
   11.9662    4.6463    3.6533 N   0  0  0  0  0  0  0  0  0  0  0  0
   12.4439    5.9829    3.9859 C   0  0  0  0  0  0  0  0  0  0  0  0
   13.5057    5.9257    5.1047 C   0  0  0  0  0  0  0  0  0  0  0  0
   14.8661    5.3449    4.6700 C   0  0  0  0  0  0  0  0  0  0  0  0
   15.5786    6.0024    3.5642 N   0  0  0  0  0  0  0  0  0  0  0  0
   15.5358    5.4533    2.2044 C   0  0  0  0  0  0  0  0  0  0  0  0
   16.5974    4.3929    1.8976 C   0  0  0  0  0  0  0  0  0  0  0  0
   16.4947    3.1631    2.8156 C   0  0  0  0  0  0  0  0  0  0  0  0
   15.2498    2.2980    2.5620 C   0  0  0  0  0  0  0  0  0  0  0  0
   15.0584    1.2048    3.5179 N   0  0  0  0  0  0  0  0  0  0  0  0
   13.8952    0.3126    3.3715 C   0  0  0  0  0  0  0  0  0  0  0  0
   13.2740   -0.2475    4.6730 C   0  0  0  0  0  0  0  0  0  0  0  0
   14.2288   -1.0453    5.5839 C   0  0  0  0  0  0  0  0  0  0  0  0
   13.6180   -1.4328    6.8521 N   0  0  0  0  0  0  0  0  0  0  0  0
  1  2  1  0  0  0  0
  2  3  1  0  0  0  0
  3  4  1  0  0  0  0
  4  5  1  0  0  0  0
  5  6  1  0  0  0  0
  6  7  1  0  0  0  0
  7  8  1  0  0  0  0
  8  9  1  0  0  0  0
  9 10  1  0  0  0  0
 10 11  1  0  0  0  0
 11 12  1  0  0  0  0
 12 13  1  0  0  0  0
 13 14  1  0  0  0  0
M  END
>  <CHROM.1>
71.51463956,58.03641034,-100.19232475,-86.90264923,60.04975933,69.43555751
-173.76112198,179.90685599,-146.72286412,-57.48239728,174.36853082,14.45105199
3.00024033,3.88951311,1.42632330,0.64996889,-0.19440360

>  <Name>
ligand

>  <RI>
0

>  <Rbt.Current_Directory>
/home/itssahil/PROJECTS/Mol_Feturizer/New_Systems/rnas/4E8Q

>  <Rbt.Executable>
rbdock ($Id: //depot/dev/client3/rdock/2013.1/src/exe/rbdock.cxx#4 $)

>  <Rbt.Library>
libRbt.so (2013.1, Build901 2013/11/27)

>  <Rbt.Parameter_File>
/export/apps/rDock/src/rDock_2013.1_src/data/scripts/dock_solv.prm

>  <Rbt.Receptor>
prm/blind_docking_20.prm

>  <SCORE>
-6.26928

>  <SCORE.INTER>
4.14763

>  <SCORE.INTER.CONST>
1

>  <SCORE.INTER.POLAR>
0

>  <SCORE.INTER.ROT>
11

>  <SCORE.INTER.SOLV>
7.90436

>  <SCORE.INTER.VDW>
-10.803

>  <SCORE.INTER.norm>
0.296259

>  <SCORE.INTRA>
-10.4169

>  <SCORE.INTRA.DIHEDRAL>
-22.654

>  <SCORE.INTRA.DIHEDRAL.0>
25.9209

>  <SCORE.INTRA.POLAR>
0

>  <SCORE.INTRA.POLAR.0>
0

>  <SCORE.INTRA.REPUL>
0

>  <SCORE.INTRA.REPUL.0>
0

>  <SCORE.INTRA.SOLV>
1.43393

>  <SCORE.INTRA.SOLV.lig_0>
-47.4815

>  <SCORE.INTRA.VDW>
0.193112

>  <SCORE.INTRA.VDW.0>
-1.57492

>  <SCORE.INTRA.norm>
-0.744065

>  <SCORE.RESTR>
0

>  <SCORE.RESTR.CAVITY>
0

>  <SCORE.RESTR.norm>
0

>  <SCORE.SYSTEM>
0

>  <SCORE.SYSTEM.CONST>
0

>  <SCORE.SYSTEM.DIHEDRAL>
0

>  <SCORE.SYSTEM.SOLV>
0

>  <SCORE.SYSTEM.norm>
0

>  <SCORE.heavy>
14

>  <SCORE.norm>
-0.447806

>  <RMSD>
39.630

$$$$
ligand
 OpenBabel11021811493D
libRbt.so/2013.1/901 2013/11/27
 14 13  0  0  0  0  0  0  0  0999 V2000
   16.5077    5.9862    7.4941 N   0  0  0  0  0  0  0  0  0  0  0  0
   15.4588    6.3517    6.5499 C   0  0  0  0  0  0  0  0  0  0  0  0
   14.3530    5.2754    6.5114 C   0  0  0  0  0  0  0  0  0  0  0  0
   13.2228    5.5516    5.5000 C   0  0  0  0  0  0  0  0  0  0  0  0
   13.5839    5.7063    4.0827 N   0  0  0  0  0  0  0  0  0  0  0  0
   14.0179    4.5555    3.2829 C   0  0  0  0  0  0  0  0  0  0  0  0
   15.4964    4.5617    2.8835 C   0  0  0  0  0  0  0  0  0  0  0  0
   15.9035    3.3121    2.0842 C   0  0  0  0  0  0  0  0  0  0  0  0
   15.9109    2.0173    2.9124 C   0  0  0  0  0  0  0  0  0  0  0  0
   14.6156    1.6528    3.4910 N   0  0  0  0  0  0  0  0  0  0  0  0
   14.4875    0.3885    4.2364 C   0  0  0  0  0  0  0  0  0  0  0  0
   13.2315    0.2232    5.1244 C   0  0  0  0  0  0  0  0  0  0  0  0
   13.0758    1.2489    6.2653 C   0  0  0  0  0  0  0  0  0  0  0  0
   11.9003    1.0052    7.0962 N   0  0  0  0  0  0  0  0  0  0  0  0
  1  2  1  0  0  0  0
  2  3  1  0  0  0  0
  3  4  1  0  0  0  0
  4  5  1  0  0  0  0
  5  6  1  0  0  0  0
  6  7  1  0  0  0  0
  7  8  1  0  0  0  0
  8  9  1  0  0  0  0
  9 10  1  0  0  0  0
 10 11  1  0  0  0  0
 11 12  1  0  0  0  0
 12 13  1  0  0  0  0
 13 14  1  0  0  0  0
M  END
>  <CHROM.1>
-177.88051031,58.29502167,71.27873044,-110.35985909,178.25358769,-69.39138308
60.66482754,176.35953300,164.62335710,-61.35059818,-177.71518578,14.41194581
3.41680821,4.82216275,1.04770649,1.04676294,0.65039306

>  <Name>
ligand

>  <RI>
0

>  <Rbt.Current_Directory>
/home/itssahil/PROJECTS/Mol_Feturizer/New_Systems/rnas/4E8Q

>  <Rbt.Executable>
rbdock ($Id: //depot/dev/client3/rdock/2013.1/src/exe/rbdock.cxx#4 $)

>  <Rbt.Library>
libRbt.so (2013.1, Build901 2013/11/27)

>  <Rbt.Parameter_File>
/export/apps/rDock/src/rDock_2013.1_src/data/scripts/dock_solv.prm

>  <Rbt.Receptor>
prm/blind_docking_20.prm

>  <SCORE>
-8.24289

>  <SCORE.INTER>
4.08661

>  <SCORE.INTER.CONST>
1

>  <SCORE.INTER.POLAR>
0

>  <SCORE.INTER.ROT>
11

>  <SCORE.INTER.SOLV>
8.73013

>  <SCORE.INTER.VDW>
-11.119

>  <SCORE.INTER.norm>
0.291901

>  <SCORE.INTRA>
-12.3295

>  <SCORE.INTRA.DIHEDRAL>
-24.0687

>  <SCORE.INTRA.DIHEDRAL.0>
25.9209

>  <SCORE.INTRA.POLAR>
0

>  <SCORE.INTRA.POLAR.0>
0

>  <SCORE.INTRA.REPUL>
0

>  <SCORE.INTRA.REPUL.0>
0

>  <SCORE.INTRA.SOLV>
-0.383427

>  <SCORE.INTRA.SOLV.lig_0>
-47.4815

>  <SCORE.INTRA.VDW>
-0.103436

>  <SCORE.INTRA.VDW.0>
-1.57492

>  <SCORE.INTRA.norm>
-0.880679

>  <SCORE.RESTR>
0

>  <SCORE.RESTR.CAVITY>
0

>  <SCORE.RESTR.norm>
0

>  <SCORE.SYSTEM>
0

>  <SCORE.SYSTEM.CONST>
0

>  <SCORE.SYSTEM.DIHEDRAL>
0

>  <SCORE.SYSTEM.SOLV>
0

>  <SCORE.SYSTEM.norm>
0

>  <SCORE.heavy>
14

>  <SCORE.norm>
-0.588778

>  <RMSD>
39.747

$$$$
ligand
 OpenBabel11021811493D
libRbt.so/2013.1/901 2013/11/27
 14 13  0  0  0  0  0  0  0  0999 V2000
   11.8684    6.8878    3.3617 N   0  0  0  0  0  0  0  0  0  0  0  0
   12.8373    5.8000    3.4194 C   0  0  0  0  0  0  0  0  0  0  0  0
   13.9261    5.9743    2.3393 C   0  0  0  0  0  0  0  0  0  0  0  0
   14.9725    4.8431    2.2938 C   0  0  0  0  0  0  0  0  0  0  0  0
   15.8046    4.6207    3.4858 N   0  0  0  0  0  0  0  0  0  0  0  0
   16.7253    3.4810    3.5636 C   0  0  0  0  0  0  0  0  0  0  0  0
   16.0587    2.1209    3.7901 C   0  0  0  0  0  0  0  0  0  0  0  0
   15.2137    2.0774    5.0746 C   0  0  0  0  0  0  0  0  0  0  0  0
   16.0278    2.2746    6.3634 C   0  0  0  0  0  0  0  0  0  0  0  0
   15.2241    2.4998    7.5671 N   0  0  0  0  0  0  0  0  0  0  0  0
   14.9551    1.3729    8.4772 C   0  0  0  0  0  0  0  0  0  0  0  0
   13.8727    0.3593    8.0359 C   0  0  0  0  0  0  0  0  0  0  0  0
   12.4563    0.9346    7.8341 C   0  0  0  0  0  0  0  0  0  0  0  0
   12.3914    1.9336    6.7714 N   0  0  0  0  0  0  0  0  0  0  0  0
  1  2  1  0  0  0  0
  2  3  1  0  0  0  0
  3  4  1  0  0  0  0
  4  5  1  0  0  0  0
  5  6  1  0  0  0  0
  6  7  1  0  0  0  0
  7  8  1  0  0  0  0
  8  9  1  0  0  0  0
  9 10  1  0  0  0  0
 10 11  1  0  0  0  0
 11 12  1  0  0  0  0
 12 13  1  0  0  0  0
 13 14  1  0  0  0  0
M  END
>  <CHROM.1>
-178.10411359,-61.59786845,173.85256663,-74.22428257,-57.92639998,-63.36315291
168.53987548,98.57541163,-77.12681288,-60.46726128,62.69250617,14.45268483
3.22684277,5.16975425,1.59118302,0.37188822,-0.84651062

>  <Name>
ligand

>  <RI>
0

>  <Rbt.Current_Directory>
/home/itssahil/PROJECTS/Mol_Feturizer/New_Systems/rnas/4E8Q

>  <Rbt.Executable>
rbdock ($Id: //depot/dev/client3/rdock/2013.1/src/exe/rbdock.cxx#4 $)

>  <Rbt.Library>
libRbt.so (2013.1, Build901 2013/11/27)

>  <Rbt.Parameter_File>
/export/apps/rDock/src/rDock_2013.1_src/data/scripts/dock_solv.prm

>  <Rbt.Receptor>
prm/blind_docking_20.prm

>  <SCORE>
-3.54121

>  <SCORE.INTER>
6.58357

>  <SCORE.INTER.CONST>
1

>  <SCORE.INTER.POLAR>
0

>  <SCORE.INTER.ROT>
11

>  <SCORE.INTER.SOLV>
8.47212

>  <SCORE.INTER.VDW>
-9.36832

>  <SCORE.INTER.norm>
0.470255

>  <SCORE.INTRA>
-10.1413

>  <SCORE.INTRA.DIHEDRAL>
-24.0481

>  <SCORE.INTRA.DIHEDRAL.0>
25.9209

>  <SCORE.INTRA.POLAR>
0

>  <SCORE.INTRA.POLAR.0>
0

>  <SCORE.INTRA.REPUL>
0

>  <SCORE.INTRA.REPUL.0>
0

>  <SCORE.INTRA.SOLV>
3.0276

>  <SCORE.INTRA.SOLV.lig_0>
-47.4815

>  <SCORE.INTRA.VDW>
0.368945

>  <SCORE.INTRA.VDW.0>
-1.57492

>  <SCORE.INTRA.norm>
-0.724379

>  <SCORE.RESTR>
0.0165209

>  <SCORE.RESTR.CAVITY>
0.0165209

>  <SCORE.RESTR.norm>
0.00118007

>  <SCORE.SYSTEM>
0

>  <SCORE.SYSTEM.CONST>
0

>  <SCORE.SYSTEM.DIHEDRAL>
0

>  <SCORE.SYSTEM.SOLV>
0

>  <SCORE.SYSTEM.norm>
0

>  <SCORE.heavy>
14

>  <SCORE.norm>
-0.252943

>  <RMSD>
39.747

$$$$
ligand
 OpenBabel11021811493D
libRbt.so/2013.1/901 2013/11/27
 14 13  0  0  0  0  0  0  0  0999 V2000
   14.5247    0.2659    8.6486 N   0  0  0  0  0  0  0  0  0  0  0  0
   13.1565    0.6582    8.3334 C   0  0  0  0  0  0  0  0  0  0  0  0
   13.1150    1.5459    7.0713 C   0  0  0  0  0  0  0  0  0  0  0  0
   13.6667    0.8766    5.7968 C   0  0  0  0  0  0  0  0  0  0  0  0
   13.6975    1.6671    4.5571 N   0  0  0  0  0  0  0  0  0  0  0  0
   14.5409    1.2662    3.4254 C   0  0  0  0  0  0  0  0  0  0  0  0
   15.7426    2.1764    3.1556 C   0  0  0  0  0  0  0  0  0  0  0  0
   16.8245    2.0742    4.2442 C   0  0  0  0  0  0  0  0  0  0  0  0
   16.4142    2.6915    5.5908 C   0  0  0  0  0  0  0  0  0  0  0  0
   16.1314    4.1279    5.5454 N   0  0  0  0  0  0  0  0  0  0  0  0
   15.2281    4.7182    6.5484 C   0  0  0  0  0  0  0  0  0  0  0  0
   14.8010    6.1886    6.3270 C   0  0  0  0  0  0  0  0  0  0  0  0
   14.0808    6.4858    4.9962 C   0  0  0  0  0  0  0  0  0  0  0  0
   12.8366    5.7380    4.8405 N   0  0  0  0  0  0  0  0  0  0  0  0
  1  2  1  0  0  0  0
  2  3  1  0  0  0  0
  3  4  1  0  0  0  0
  4  5  1  0  0  0  0
  5  6  1  0  0  0  0
  6  7  1  0  0  0  0
  7  8  1  0  0  0  0
  8  9  1  0  0  0  0
  9 10  1  0  0  0  0
 10 11  1  0  0  0  0
 11 12  1  0  0  0  0
 12 13  1  0  0  0  0
 13 14  1  0  0  0  0
M  END
>  <CHROM.1>
60.15977829,-178.35855625,162.06408957,-110.01439645,69.80741156,-70.41554257
-61.78546229,154.73826931,-171.13748116,58.35020098,60.59354910,14.62587529
2.89143946,5.64852926,1.83769203,-1.07894943,3.03208042

>  <Name>
ligand

>  <RI>
0

>  <Rbt.Current_Directory>
/home/itssahil/PROJECTS/Mol_Feturizer/New_Systems/rnas/4E8Q

>  <Rbt.Executable>
rbdock ($Id: //depot/dev/client3/rdock/2013.1/src/exe/rbdock.cxx#4 $)

>  <Rbt.Library>
libRbt.so (2013.1, Build901 2013/11/27)

>  <Rbt.Parameter_File>
/export/apps/rDock/src/rDock_2013.1_src/data/scripts/dock_solv.prm

>  <Rbt.Receptor>
prm/blind_docking_20.prm

>  <SCORE>
-6.71442

>  <SCORE.INTER>
3.74856

>  <SCORE.INTER.CONST>
1

>  <SCORE.INTER.POLAR>
0

>  <SCORE.INTER.ROT>
11

>  <SCORE.INTER.SOLV>
10.3065

>  <SCORE.INTER.VDW>
-11.8698

>  <SCORE.INTER.norm>
0.267754

>  <SCORE.INTRA>
-10.463

>  <SCORE.INTRA.DIHEDRAL>
-23.2054

>  <SCORE.INTRA.DIHEDRAL.0>
25.9209

>  <SCORE.INTRA.POLAR>
0

>  <SCORE.INTRA.POLAR.0>
0

>  <SCORE.INTRA.REPUL>
0

>  <SCORE.INTRA.REPUL.0>
0

>  <SCORE.INTRA.SOLV>
3.19817

>  <SCORE.INTRA.SOLV.lig_0>
-47.4815

>  <SCORE.INTRA.VDW>
-0.45934

>  <SCORE.INTRA.VDW.0>
-1.57492

>  <SCORE.INTRA.norm>
-0.747355

>  <SCORE.RESTR>
0

>  <SCORE.RESTR.CAVITY>
0

>  <SCORE.RESTR.norm>
0

>  <SCORE.SYSTEM>
0

>  <SCORE.SYSTEM.CONST>
0

>  <SCORE.SYSTEM.DIHEDRAL>
0

>  <SCORE.SYSTEM.SOLV>
0

>  <SCORE.SYSTEM.norm>
0

>  <SCORE.heavy>
14

>  <SCORE.norm>
-0.479601

>  <RMSD>
39.752

$$$$
ligand
 OpenBabel11021811493D
libRbt.so/2013.1/901 2013/11/27
 14 13  0  0  0  0  0  0  0  0999 V2000
   45.7133    6.2248   34.3307 N   0  0  0  0  0  0  0  0  0  0  0  0
   44.4204    5.5668   34.4746 C   0  0  0  0  0  0  0  0  0  0  0  0
   44.3512    4.7714   35.7956 C   0  0  0  0  0  0  0  0  0  0  0  0
   43.0353    3.9978   36.0113 C   0  0  0  0  0  0  0  0  0  0  0  0
   42.8477    3.2923   37.2880 N   0  0  0  0  0  0  0  0  0  0  0  0
   43.6713    2.1296   37.6377 C   0  0  0  0  0  0  0  0  0  0  0  0
   43.0803    1.2140   38.7137 C   0  0  0  0  0  0  0  0  0  0  0  0
   41.7780    0.5296   38.2649 C   0  0  0  0  0  0  0  0  0  0  0  0
   41.9822   -0.5661   37.2065 C   0  0  0  0  0  0  0  0  0  0  0  0
   42.6332   -1.7815   37.7008 N   0  0  0  0  0  0  0  0  0  0  0  0
   42.8036   -2.9297   36.7935 C   0  0  0  0  0  0  0  0  0  0  0  0
   41.5273   -3.7167   36.4126 C   0  0  0  0  0  0  0  0  0  0  0  0
   40.4868   -2.9448   35.5762 C   0  0  0  0  0  0  0  0  0  0  0  0
   39.3185   -3.7502   35.2328 N   0  0  0  0  0  0  0  0  0  0  0  0
  1  2  1  0  0  0  0
  2  3  1  0  0  0  0
  3  4  1  0  0  0  0
  4  5  1  0  0  0  0
  5  6  1  0  0  0  0
  6  7  1  0  0  0  0
  7  8  1  0  0  0  0
  8  9  1  0  0  0  0
  9 10  1  0  0  0  0
 10 11  1  0  0  0  0
 11 12  1  0  0  0  0
 12 13  1  0  0  0  0
 13 14  1  0  0  0  0
M  END
>  <CHROM.1>
-177.89351359,-175.67351444,-67.35943163,-159.58130089,64.68190396,71.58394731
70.64042858,176.21078368,-71.26487176,65.62059627,179.05467974,42.68923889
0.85976281,36.53150832,0.42998034,-1.14205980,-1.21915538

>  <Name>
ligand

>  <RI>
0

>  <Rbt.Current_Directory>
/home/itssahil/PROJECTS/Mol_Feturizer/New_Systems/rnas/4E8Q

>  <Rbt.Executable>
rbdock ($Id: //depot/dev/client3/rdock/2013.1/src/exe/rbdock.cxx#4 $)

>  <Rbt.Library>
libRbt.so (2013.1, Build901 2013/11/27)

>  <Rbt.Parameter_File>
/export/apps/rDock/src/rDock_2013.1_src/data/scripts/dock_solv.prm

>  <Rbt.Receptor>
prm/blind_docking_60.prm

>  <SCORE>
-10.4643

>  <SCORE.INTER>
1.07628

>  <SCORE.INTER.CONST>
1

>  <SCORE.INTER.POLAR>
0

>  <SCORE.INTER.ROT>
11

>  <SCORE.INTER.SOLV>
13.6094

>  <SCORE.INTER.VDW>
-14.7523

>  <SCORE.INTER.norm>
0.0768772

>  <SCORE.INTRA>
-11.5406

>  <SCORE.INTRA.DIHEDRAL>
-24.1973

>  <SCORE.INTRA.DIHEDRAL.0>
25.9209

>  <SCORE.INTRA.POLAR>
0

>  <SCORE.INTRA.POLAR.0>
0

>  <SCORE.INTRA.REPUL>
0

>  <SCORE.INTRA.REPUL.0>
0

>  <SCORE.INTRA.SOLV>
-0.690017

>  <SCORE.INTRA.SOLV.lig_0>
-47.4815

>  <SCORE.INTRA.VDW>
0.903055

>  <SCORE.INTRA.VDW.0>
-1.57492

>  <SCORE.INTRA.norm>
-0.824327

>  <SCORE.RESTR>
0

>  <SCORE.RESTR.CAVITY>
0

>  <SCORE.RESTR.norm>
0

>  <SCORE.SYSTEM>
0

>  <SCORE.SYSTEM.CONST>
0

>  <SCORE.SYSTEM.DIHEDRAL>
0

>  <SCORE.SYSTEM.SOLV>
0

>  <SCORE.SYSTEM.norm>
0

>  <SCORE.heavy>
14

>  <SCORE.norm>
-0.74745

>  <RMSD>
39.823

$$$$
ligand
 OpenBabel11021811493D
libRbt.so/2013.1/901 2013/11/27
 14 13  0  0  0  0  0  0  0  0999 V2000
   14.5707    0.4633    8.1520 N   0  0  0  0  0  0  0  0  0  0  0  0
   13.7267    0.6660    6.9808 C   0  0  0  0  0  0  0  0  0  0  0  0
   14.5599    0.5990    5.6832 C   0  0  0  0  0  0  0  0  0  0  0  0
   13.7557    0.8404    4.3902 C   0  0  0  0  0  0  0  0  0  0  0  0
   14.4733    0.7865    3.1077 N   0  0  0  0  0  0  0  0  0  0  0  0
   15.0217    2.0023    2.4963 C   0  0  0  0  0  0  0  0  0  0  0  0
   16.2430    2.5934    3.2065 C   0  0  0  0  0  0  0  0  0  0  0  0
   16.7112    3.9196    2.5838 C   0  0  0  0  0  0  0  0  0  0  0  0
   15.7266    5.0832    2.7818 C   0  0  0  0  0  0  0  0  0  0  0  0
   15.5483    5.5047    4.1732 N   0  0  0  0  0  0  0  0  0  0  0  0
   14.4144    4.9732    4.9493 C   0  0  0  0  0  0  0  0  0  0  0  0
   13.0096    5.5190    4.6002 C   0  0  0  0  0  0  0  0  0  0  0  0
   11.8427    4.9535    5.4348 C   0  0  0  0  0  0  0  0  0  0  0  0
   10.5382    5.4423    4.9980 N   0  0  0  0  0  0  0  0  0  0  0  0
  1  2  1  0  0  0  0
  2  3  1  0  0  0  0
  3  4  1  0  0  0  0
  4  5  1  0  0  0  0
  5  6  1  0  0  0  0
  6  7  1  0  0  0  0
  7  8  1  0  0  0  0
  8  9  1  0  0  0  0
  9 10  1  0  0  0  0
 10 11  1  0  0  0  0
 11 12  1  0  0  0  0
 12 13  1  0  0  0  0
 13 14  1  0  0  0  0
M  END
>  <CHROM.1>
-178.43934335,-179.67038186,-93.14737074,71.33672019,-175.81405812,67.95767478
65.58939710,-95.99319584,-73.23212354,-179.56043324,-176.22816314,14.29606241
3.09619406,4.53817616,1.46778409,-0.69954610,2.67359561

>  <Name>
ligand

>  <RI>
0

>  <Rbt.Current_Directory>
/home/itssahil/PROJECTS/Mol_Feturizer/New_Systems/rnas/4E8Q

>  <Rbt.Executable>
rbdock ($Id: //depot/dev/client3/rdock/2013.1/src/exe/rbdock.cxx#4 $)

>  <Rbt.Library>
libRbt.so (2013.1, Build901 2013/11/27)

>  <Rbt.Parameter_File>
/export/apps/rDock/src/rDock_2013.1_src/data/scripts/dock_solv.prm

>  <Rbt.Receptor>
prm/blind_docking_20.prm

>  <SCORE>
-7.16991

>  <SCORE.INTER>
5.17506

>  <SCORE.INTER.CONST>
1

>  <SCORE.INTER.POLAR>
0

>  <SCORE.INTER.ROT>
11

>  <SCORE.INTER.SOLV>
9.07594

>  <SCORE.INTER.VDW>
-10.5086

>  <SCORE.INTER.norm>
0.369647

>  <SCORE.INTRA>
-12.345

>  <SCORE.INTRA.DIHEDRAL>
-23.6871

>  <SCORE.INTRA.DIHEDRAL.0>
25.9209

>  <SCORE.INTRA.POLAR>
0

>  <SCORE.INTRA.POLAR.0>
0

>  <SCORE.INTRA.REPUL>
0

>  <SCORE.INTRA.REPUL.0>
0

>  <SCORE.INTRA.SOLV>
-1.38908

>  <SCORE.INTRA.SOLV.lig_0>
-47.4815

>  <SCORE.INTRA.VDW>
0.193123

>  <SCORE.INTRA.VDW.0>
-1.57492

>  <SCORE.INTRA.norm>
-0.881784

>  <SCORE.RESTR>
0

>  <SCORE.RESTR.CAVITY>
0

>  <SCORE.RESTR.norm>
0

>  <SCORE.SYSTEM>
0

>  <SCORE.SYSTEM.CONST>
0

>  <SCORE.SYSTEM.DIHEDRAL>
0

>  <SCORE.SYSTEM.SOLV>
0

>  <SCORE.SYSTEM.norm>
0

>  <SCORE.heavy>
14

>  <SCORE.norm>
-0.512136

>  <RMSD>
39.839

$$$$
ligand
 OpenBabel11021811493D
libRbt.so/2013.1/901 2013/11/27
 14 13  0  0  0  0  0  0  0  0999 V2000
   13.8894    0.4520    7.2920 N   0  0  0  0  0  0  0  0  0  0  0  0
   12.7842    0.6486    6.3618 C   0  0  0  0  0  0  0  0  0  0  0  0
   13.2734    1.3148    5.0582 C   0  0  0  0  0  0  0  0  0  0  0  0
   14.2694    0.4696    4.2394 C   0  0  0  0  0  0  0  0  0  0  0  0
   14.8390    1.0597    3.0187 N   0  0  0  0  0  0  0  0  0  0  0  0
   15.6646    2.2711    3.0784 C   0  0  0  0  0  0  0  0  0  0  0  0
   16.0622    2.8547    1.7195 C   0  0  0  0  0  0  0  0  0  0  0  0
   16.7105    4.2448    1.8340 C   0  0  0  0  0  0  0  0  0  0  0  0
   15.7286    5.3602    2.2270 C   0  0  0  0  0  0  0  0  0  0  0  0
   15.1522    5.2248    3.5667 N   0  0  0  0  0  0  0  0  0  0  0  0
   13.8627    5.8710    3.8668 C   0  0  0  0  0  0  0  0  0  0  0  0
   12.6106    5.2963    3.1628 C   0  0  0  0  0  0  0  0  0  0  0  0
   11.2645    5.9364    3.5582 C   0  0  0  0  0  0  0  0  0  0  0  0
   10.8876    5.6651    4.9424 N   0  0  0  0  0  0  0  0  0  0  0  0
  1  2  1  0  0  0  0
  2  3  1  0  0  0  0
  3  4  1  0  0  0  0
  4  5  1  0  0  0  0
  5  6  1  0  0  0  0
  6  7  1  0  0  0  0
  7  8  1  0  0  0  0
  8  9  1  0  0  0  0
  9 10  1  0  0  0  0
 10 11  1  0  0  0  0
 11 12  1  0  0  0  0
 12 13  1  0  0  0  0
 13 14  1  0  0  0  0
M  END
>  <CHROM.1>
63.91247680,-176.86659603,62.10953976,-173.69247372,169.96190826,-71.05722642
64.99471251,-156.21990520,68.46343072,176.50876480,-66.97720863,14.07150439
3.33360404,3.85149495,1.61177378,-0.60332491,2.67705608

>  <Name>
ligand

>  <RI>
0

>  <Rbt.Current_Directory>
/home/itssahil/PROJECTS/Mol_Feturizer/New_Systems/rnas/4E8Q

>  <Rbt.Executable>
rbdock ($Id: //depot/dev/client3/rdock/2013.1/src/exe/rbdock.cxx#4 $)

>  <Rbt.Library>
libRbt.so (2013.1, Build901 2013/11/27)

>  <Rbt.Parameter_File>
/export/apps/rDock/src/rDock_2013.1_src/data/scripts/dock_solv.prm

>  <Rbt.Receptor>
prm/blind_docking_20.prm

>  <SCORE>
-6.26838

>  <SCORE.INTER>
5.13853

>  <SCORE.INTER.CONST>
1

>  <SCORE.INTER.POLAR>
0

>  <SCORE.INTER.ROT>
11

>  <SCORE.INTER.SOLV>
8.79765

>  <SCORE.INTER.VDW>
-10.4402

>  <SCORE.INTER.norm>
0.367038

>  <SCORE.INTRA>
-11.4074

>  <SCORE.INTRA.DIHEDRAL>
-24.1309

>  <SCORE.INTRA.DIHEDRAL.0>
25.9209

>  <SCORE.INTRA.POLAR>
0

>  <SCORE.INTRA.POLAR.0>
0

>  <SCORE.INTRA.REPUL>
0

>  <SCORE.INTRA.REPUL.0>
0

>  <SCORE.INTRA.SOLV>
0.321838

>  <SCORE.INTRA.SOLV.lig_0>
-47.4815

>  <SCORE.INTRA.VDW>
0.497102

>  <SCORE.INTRA.VDW.0>
-1.57492

>  <SCORE.INTRA.norm>
-0.814816

>  <SCORE.RESTR>
0.000508438

>  <SCORE.RESTR.CAVITY>
0.000508438

>  <SCORE.RESTR.norm>
3.6317e-05

>  <SCORE.SYSTEM>
0

>  <SCORE.SYSTEM.CONST>
0

>  <SCORE.SYSTEM.DIHEDRAL>
0

>  <SCORE.SYSTEM.SOLV>
0

>  <SCORE.SYSTEM.norm>
0

>  <SCORE.heavy>
14

>  <SCORE.norm>
-0.447742

>  <RMSD>
39.967

$$$$
ligand
 OpenBabel11021811493D
libRbt.so/2013.1/901 2013/11/27
 14 13  0  0  0  0  0  0  0  0999 V2000
   10.0474    6.1385    2.9498 N   0  0  0  0  0  0  0  0  0  0  0  0
   11.4604    6.1019    3.3066 C   0  0  0  0  0  0  0  0  0  0  0  0
   12.3308    5.7701    2.0759 C   0  0  0  0  0  0  0  0  0  0  0  0
   13.8434    5.6874    2.3623 C   0  0  0  0  0  0  0  0  0  0  0  0
   14.3154    4.6586    3.3012 N   0  0  0  0  0  0  0  0  0  0  0  0
   14.1835    3.2313    2.9881 C   0  0  0  0  0  0  0  0  0  0  0  0
   15.4886    2.5253    2.6091 C   0  0  0  0  0  0  0  0  0  0  0  0
   16.5515    2.6009    3.7184 C   0  0  0  0  0  0  0  0  0  0  0  0
   16.1192    1.9489    5.0415 C   0  0  0  0  0  0  0  0  0  0  0  0
   15.6845    0.5551    4.9242 N   0  0  0  0  0  0  0  0  0  0  0  0
   15.1123   -0.1244    6.0996 C   0  0  0  0  0  0  0  0  0  0  0  0
   13.7704    0.4232    6.6407 C   0  0  0  0  0  0  0  0  0  0  0  0
   13.2566   -0.2247    7.9424 C   0  0  0  0  0  0  0  0  0  0  0  0
   14.1637   -0.0369    9.0708 N   0  0  0  0  0  0  0  0  0  0  0  0
  1  2  1  0  0  0  0
  2  3  1  0  0  0  0
  3  4  1  0  0  0  0
  4  5  1  0  0  0  0
  5  6  1  0  0  0  0
  6  7  1  0  0  0  0
  7  8  1  0  0  0  0
  8  9  1  0  0  0  0
  9 10  1  0  0  0  0
 10 11  1  0  0  0  0
 11 12  1  0  0  0  0
 12 13  1  0  0  0  0
 13 14  1  0  0  0  0
M  END
>  <CHROM.1>
-179.07554915,62.20638023,65.07619820,106.40985639,59.10544895,60.53689119
54.74498659,-173.47125128,64.93408079,-174.83947212,61.63705778,14.02360170
2.80393298,4.50195627,1.92255995,0.44804913,-0.83194772

>  <Name>
ligand

>  <RI>
0

>  <Rbt.Current_Directory>
/home/itssahil/PROJECTS/Mol_Feturizer/New_Systems/rnas/4E8Q

>  <Rbt.Executable>
rbdock ($Id: //depot/dev/client3/rdock/2013.1/src/exe/rbdock.cxx#4 $)

>  <Rbt.Library>
libRbt.so (2013.1, Build901 2013/11/27)

>  <Rbt.Parameter_File>
/export/apps/rDock/src/rDock_2013.1_src/data/scripts/dock_solv.prm

>  <Rbt.Receptor>
prm/blind_docking_20.prm

>  <SCORE>
-4.40281

>  <SCORE.INTER>
6.71292

>  <SCORE.INTER.CONST>
1

>  <SCORE.INTER.POLAR>
0

>  <SCORE.INTER.ROT>
11

>  <SCORE.INTER.SOLV>
8.82324

>  <SCORE.INTER.VDW>
-9.39913

>  <SCORE.INTER.norm>
0.479494

>  <SCORE.INTRA>
-11.1157

>  <SCORE.INTRA.DIHEDRAL>
-24.5508

>  <SCORE.INTRA.DIHEDRAL.0>
25.9209

>  <SCORE.INTRA.POLAR>
0

>  <SCORE.INTRA.POLAR.0>
0

>  <SCORE.INTRA.REPUL>
0

>  <SCORE.INTRA.REPUL.0>
0

>  <SCORE.INTRA.SOLV>
0.212761

>  <SCORE.INTRA.SOLV.lig_0>
-47.4815

>  <SCORE.INTRA.VDW>
1.05332

>  <SCORE.INTRA.VDW.0>
-1.57492

>  <SCORE.INTRA.norm>
-0.793981

>  <SCORE.RESTR>
0

>  <SCORE.RESTR.CAVITY>
0

>  <SCORE.RESTR.norm>
0

>  <SCORE.SYSTEM>
0

>  <SCORE.SYSTEM.CONST>
0

>  <SCORE.SYSTEM.DIHEDRAL>
0

>  <SCORE.SYSTEM.SOLV>
0

>  <SCORE.SYSTEM.norm>
0

>  <SCORE.heavy>
14

>  <SCORE.norm>
-0.314486

>  <RMSD>
40.032

$$$$
ligand
 OpenBabel11021811493D
libRbt.so/2013.1/901 2013/11/27
 14 13  0  0  0  0  0  0  0  0999 V2000
   12.2739    0.4185    7.2212 N   0  0  0  0  0  0  0  0  0  0  0  0
   13.4490    1.0774    7.7781 C   0  0  0  0  0  0  0  0  0  0  0  0
   14.6407    0.9972    6.8003 C   0  0  0  0  0  0  0  0  0  0  0  0
   15.9598    1.5791    7.3463 C   0  0  0  0  0  0  0  0  0  0  0  0
   15.9832    2.9974    7.7344 N   0  0  0  0  0  0  0  0  0  0  0  0
   16.7608    3.9782    6.9689 C   0  0  0  0  0  0  0  0  0  0  0  0
   16.7439    5.4028    7.5307 C   0  0  0  0  0  0  0  0  0  0  0  0
   15.3299    6.0055    7.5856 C   0  0  0  0  0  0  0  0  0  0  0  0
   14.7159    6.2819    6.2039 C   0  0  0  0  0  0  0  0  0  0  0  0
   14.4085    5.0838    5.4194 N   0  0  0  0  0  0  0  0  0  0  0  0
   13.2307    4.2720    5.7722 C   0  0  0  0  0  0  0  0  0  0  0  0
   11.8421    4.9008    5.5080 C   0  0  0  0  0  0  0  0  0  0  0  0
   11.5114    5.2032    4.0325 C   0  0  0  0  0  0  0  0  0  0  0  0
   12.4538    6.1313    3.4143 N   0  0  0  0  0  0  0  0  0  0  0  0
  1  2  1  0  0  0  0
  2  3  1  0  0  0  0
  3  4  1  0  0  0  0
  4  5  1  0  0  0  0
  5  6  1  0  0  0  0
  6  7  1  0  0  0  0
  7  8  1  0  0  0  0
  8  9  1  0  0  0  0
  9 10  1  0  0  0  0
 10 11  1  0  0  0  0
 11 12  1  0  0  0  0
 12 13  1  0  0  0  0
 13 14  1  0  0  0  0
M  END
>  <CHROM.1>
-175.78919894,-59.97152742,-111.59716376,-177.17157846,-60.68926459,-68.01713280
67.60137423,75.36676152,69.30785651,63.12223266,-59.60249123,14.23613568
3.88074816,6.37987650,1.09112589,0.49367052,2.77814079

>  <Name>
ligand

>  <RI>
0

>  <Rbt.Current_Directory>
/home/itssahil/PROJECTS/Mol_Feturizer/New_Systems/rnas/4E8Q

>  <Rbt.Executable>
rbdock ($Id: //depot/dev/client3/rdock/2013.1/src/exe/rbdock.cxx#4 $)

>  <Rbt.Library>
libRbt.so (2013.1, Build901 2013/11/27)

>  <Rbt.Parameter_File>
/export/apps/rDock/src/rDock_2013.1_src/data/scripts/dock_solv.prm

>  <Rbt.Receptor>
prm/blind_docking_20.prm

>  <SCORE>
-4.03662

>  <SCORE.INTER>
6.01646

>  <SCORE.INTER.CONST>
1

>  <SCORE.INTER.POLAR>
0

>  <SCORE.INTER.ROT>
11

>  <SCORE.INTER.SOLV>
6.9002

>  <SCORE.INTER.VDW>
-9.22242

>  <SCORE.INTER.norm>
0.429747

>  <SCORE.INTRA>
-10.0531

>  <SCORE.INTRA.DIHEDRAL>
-23.9303

>  <SCORE.INTRA.DIHEDRAL.0>
25.9209

>  <SCORE.INTRA.POLAR>
0

>  <SCORE.INTRA.POLAR.0>
0

>  <SCORE.INTRA.REPUL>
0

>  <SCORE.INTRA.REPUL.0>
0

>  <SCORE.INTRA.SOLV>
4.26762

>  <SCORE.INTRA.SOLV.lig_0>
-47.4815

>  <SCORE.INTRA.VDW>
-0.221766

>  <SCORE.INTRA.VDW.0>
-1.57492

>  <SCORE.INTRA.norm>
-0.718077

>  <SCORE.RESTR>
0

>  <SCORE.RESTR.CAVITY>
0

>  <SCORE.RESTR.norm>
0

>  <SCORE.SYSTEM>
0

>  <SCORE.SYSTEM.CONST>
0

>  <SCORE.SYSTEM.DIHEDRAL>
0

>  <SCORE.SYSTEM.SOLV>
0

>  <SCORE.SYSTEM.norm>
0

>  <SCORE.heavy>
14

>  <SCORE.norm>
-0.28833

>  <RMSD>
40.168

$$$$
ligand
 OpenBabel11021811493D
libRbt.so/2013.1/901 2013/11/27
 14 13  0  0  0  0  0  0  0  0999 V2000
   42.0539    1.6202   33.7419 N   0  0  0  0  0  0  0  0  0  0  0  0
   40.7331    1.0037   33.7687 C   0  0  0  0  0  0  0  0  0  0  0  0
   40.6323   -0.0330   34.9078 C   0  0  0  0  0  0  0  0  0  0  0  0
   41.6073   -1.2207   34.7835 C   0  0  0  0  0  0  0  0  0  0  0  0
   41.5551   -2.2704   35.8121 N   0  0  0  0  0  0  0  0  0  0  0  0
   42.7380   -2.6033   36.6137 C   0  0  0  0  0  0  0  0  0  0  0  0
   42.8958   -1.7968   37.9060 C   0  0  0  0  0  0  0  0  0  0  0  0
   43.0190   -0.2845   37.6540 C   0  0  0  0  0  0  0  0  0  0  0  0
   43.1009    0.5569   38.9377 C   0  0  0  0  0  0  0  0  0  0  0  0
   41.8560    0.6239   39.7066 N   0  0  0  0  0  0  0  0  0  0  0  0
   40.8183    1.5948   39.3178 C   0  0  0  0  0  0  0  0  0  0  0  0
   40.6554    2.8434   40.2167 C   0  0  0  0  0  0  0  0  0  0  0  0
   39.5523    3.8352   39.7952 C   0  0  0  0  0  0  0  0  0  0  0  0
   39.7741    4.4072   38.4704 N   0  0  0  0  0  0  0  0  0  0  0  0
  1  2  1  0  0  0  0
  2  3  1  0  0  0  0
  3  4  1  0  0  0  0
  4  5  1  0  0  0  0
  5  6  1  0  0  0  0
  6  7  1  0  0  0  0
  7  8  1  0  0  0  0
  8  9  1  0  0  0  0
  9 10  1  0  0  0  0
 10 11  1  0  0  0  0
 11 12  1  0  0  0  0
 12 13  1  0  0  0  0
 13 14  1  0  0  0  0
M  END
>  <CHROM.1>
-62.10360609,-178.63249827,-121.75850283,89.39584409,-60.36716061,176.81142902
-70.38412725,-82.58285092,-105.63858304,-179.37418997,-61.32391772,41.49946459
0.59097924,37.25956422,1.03055148,1.08069415,-1.85931690

>  <Name>
ligand

>  <RI>
0

>  <Rbt.Current_Directory>
/home/itssahil/PROJECTS/Mol_Feturizer/New_Systems/rnas/4E8Q

>  <Rbt.Executable>
rbdock ($Id: //depot/dev/client3/rdock/2013.1/src/exe/rbdock.cxx#4 $)

>  <Rbt.Library>
libRbt.so (2013.1, Build901 2013/11/27)

>  <Rbt.Parameter_File>
/export/apps/rDock/src/rDock_2013.1_src/data/scripts/dock_solv.prm

>  <Rbt.Receptor>
prm/blind_docking_100.prm

>  <SCORE>
-10.7226

>  <SCORE.INTER>
0.15708

>  <SCORE.INTER.CONST>
1

>  <SCORE.INTER.POLAR>
0

>  <SCORE.INTER.ROT>
11

>  <SCORE.INTER.SOLV>
7.22862

>  <SCORE.INTER.VDW>
-13.2382

>  <SCORE.INTER.norm>
0.01122

>  <SCORE.INTRA>
-10.8797

>  <SCORE.INTRA.DIHEDRAL>
-22.2584

>  <SCORE.INTRA.DIHEDRAL.0>
25.9209

>  <SCORE.INTRA.POLAR>
0

>  <SCORE.INTRA.POLAR.0>
0

>  <SCORE.INTRA.REPUL>
0

>  <SCORE.INTRA.REPUL.0>
0

>  <SCORE.INTRA.SOLV>
0.118293

>  <SCORE.INTRA.SOLV.lig_0>
-47.4815

>  <SCORE.INTRA.VDW>
0.190354

>  <SCORE.INTRA.VDW.0>
-1.57492

>  <SCORE.INTRA.norm>
-0.777123

>  <SCORE.RESTR>
0

>  <SCORE.RESTR.CAVITY>
0

>  <SCORE.RESTR.norm>
0

>  <SCORE.SYSTEM>
0

>  <SCORE.SYSTEM.CONST>
0

>  <SCORE.SYSTEM.DIHEDRAL>
0

>  <SCORE.SYSTEM.SOLV>
0

>  <SCORE.SYSTEM.norm>
0

>  <SCORE.heavy>
14

>  <SCORE.norm>
-0.765903

>  <RMSD>
40.799

$$$$
ligand
 OpenBabel11021811493D
libRbt.so/2013.1/901 2013/11/27
 14 13  0  0  0  0  0  0  0  0999 V2000
   18.1551   10.4873   14.2977 N   0  0  0  0  0  0  0  0  0  0  0  0
   19.3852   11.0549   14.8360 C   0  0  0  0  0  0  0  0  0  0  0  0
   19.1173   12.4243   15.4959 C   0  0  0  0  0  0  0  0  0  0  0  0
   20.3780   13.1468   16.0111 C   0  0  0  0  0  0  0  0  0  0  0  0
   20.2106   14.4587   16.6542 N   0  0  0  0  0  0  0  0  0  0  0  0
   19.7847   15.6309   15.8815 C   0  0  0  0  0  0  0  0  0  0  0  0
   18.2729   15.8734   15.8479 C   0  0  0  0  0  0  0  0  0  0  0  0
   17.9051   17.2758   15.3341 C   0  0  0  0  0  0  0  0  0  0  0  0
   18.3174   18.4145   16.2806 C   0  0  0  0  0  0  0  0  0  0  0  0
   17.6031   19.6757   16.0693 N   0  0  0  0  0  0  0  0  0  0  0  0
   18.3698   20.9012   15.7852 C   0  0  0  0  0  0  0  0  0  0  0  0
   18.9812   21.0326   14.3701 C   0  0  0  0  0  0  0  0  0  0  0  0
   19.7033   22.3619   14.0712 C   0  0  0  0  0  0  0  0  0  0  0  0
   20.2472   22.4249   12.7178 N   0  0  0  0  0  0  0  0  0  0  0  0
  1  2  1  0  0  0  0
  2  3  1  0  0  0  0
  3  4  1  0  0  0  0
  4  5  1  0  0  0  0
  5  6  1  0  0  0  0
  6  7  1  0  0  0  0
  7  8  1  0  0  0  0
  8  9  1  0  0  0  0
  9 10  1  0  0  0  0
 10 11  1  0  0  0  0
 11 12  1  0  0  0  0
 12 13  1  0  0  0  0
 13 14  1  0  0  0  0
M  END
>  <CHROM.1>
-176.07425573,-179.98607110,-68.11297134,91.86172204,165.82486517,-67.80730301
-159.99714395,-123.08005269,74.35540879,176.34560066,-179.54899442,19.03076186
16.79736297,15.26103594,-1.54944642,0.94775794,-0.10495453

>  <Name>
ligand

>  <RI>
0

>  <Rbt.Current_Directory>
/home/itssahil/PROJECTS/Mol_Feturizer/New_Systems/rnas/4E8Q

>  <Rbt.Executable>
rbdock ($Id: //depot/dev/client3/rdock/2013.1/src/exe/rbdock.cxx#4 $)

>  <Rbt.Library>
libRbt.so (2013.1, Build901 2013/11/27)

>  <Rbt.Parameter_File>
/export/apps/rDock/src/rDock_2013.1_src/data/scripts/dock_solv.prm

>  <Rbt.Receptor>
prm/blind_docking_40.prm

>  <SCORE>
-9.99062

>  <SCORE.INTER>
0.842705

>  <SCORE.INTER.CONST>
1

>  <SCORE.INTER.POLAR>
0

>  <SCORE.INTER.ROT>
11

>  <SCORE.INTER.SOLV>
18.9311

>  <SCORE.INTER.VDW>
-16.6819

>  <SCORE.INTER.norm>
0.0601932

>  <SCORE.INTRA>
-10.8333

>  <SCORE.INTRA.DIHEDRAL>
-21.3876

>  <SCORE.INTRA.DIHEDRAL.0>
25.9209

>  <SCORE.INTRA.POLAR>
0

>  <SCORE.INTRA.POLAR.0>
0

>  <SCORE.INTRA.REPUL>
0

>  <SCORE.INTRA.REPUL.0>
0

>  <SCORE.INTRA.SOLV>
-1.95584

>  <SCORE.INTRA.SOLV.lig_0>
-47.4815

>  <SCORE.INTRA.VDW>
0.83841

>  <SCORE.INTRA.VDW.0>
-1.57492

>  <SCORE.INTRA.norm>
-0.773809

>  <SCORE.RESTR>
0

>  <SCORE.RESTR.CAVITY>
0

>  <SCORE.RESTR.norm>
0

>  <SCORE.SYSTEM>
0

>  <SCORE.SYSTEM.CONST>
0

>  <SCORE.SYSTEM.DIHEDRAL>
0

>  <SCORE.SYSTEM.SOLV>
0

>  <SCORE.SYSTEM.norm>
0

>  <SCORE.heavy>
14

>  <SCORE.norm>
-0.713616

>  <RMSD>
41.298

$$$$
ligand
 OpenBabel11021811493D
libRbt.so/2013.1/901 2013/11/27
 14 13  0  0  0  0  0  0  0  0999 V2000
   18.9450   22.5380   14.3714 N   0  0  0  0  0  0  0  0  0  0  0  0
   19.1556   21.1456   14.7483 C   0  0  0  0  0  0  0  0  0  0  0  0
   18.3203   20.7797   15.9937 C   0  0  0  0  0  0  0  0  0  0  0  0
   18.5396   19.3458   16.5156 C   0  0  0  0  0  0  0  0  0  0  0  0
   18.2291   18.2256   15.6148 N   0  0  0  0  0  0  0  0  0  0  0  0
   18.3042   16.8366   16.0815 C   0  0  0  0  0  0  0  0  0  0  0  0
   17.6285   15.8072   15.1709 C   0  0  0  0  0  0  0  0  0  0  0  0
   17.3317   14.4797   15.8888 C   0  0  0  0  0  0  0  0  0  0  0  0
   18.5893   13.7253   16.3494 C   0  0  0  0  0  0  0  0  0  0  0  0
   19.4307   13.2169   15.2637 N   0  0  0  0  0  0  0  0  0  0  0  0
   19.4649   11.7689   14.9938 C   0  0  0  0  0  0  0  0  0  0  0  0
   18.1703   11.1293   14.4385 C   0  0  0  0  0  0  0  0  0  0  0  0
   17.7134   11.6315   13.0539 C   0  0  0  0  0  0  0  0  0  0  0  0
   16.4620   11.0243   12.6103 N   0  0  0  0  0  0  0  0  0  0  0  0
  1  2  1  0  0  0  0
  2  3  1  0  0  0  0
  3  4  1  0  0  0  0
  4  5  1  0  0  0  0
  5  6  1  0  0  0  0
  6  7  1  0  0  0  0
  7  8  1  0  0  0  0
  8  9  1  0  0  0  0
  9 10  1  0  0  0  0
 10 11  1  0  0  0  0
 11 12  1  0  0  0  0
 12 13  1  0  0  0  0
 13 14  1  0  0  0  0
M  END
>  <CHROM.1>
-176.69484094,-60.43415168,-174.72763591,165.31599624,-161.41721344,-64.21030409
-66.81959138,-107.75348817,67.84801031,63.37858806,-177.91490831,18.30606391
15.83227939,15.07843042,1.37373622,-1.18513340,-0.05486377

>  <Name>
ligand

>  <RI>
0

>  <Rbt.Current_Directory>
/home/itssahil/PROJECTS/Mol_Feturizer/New_Systems/rnas/4E8Q

>  <Rbt.Executable>
rbdock ($Id: //depot/dev/client3/rdock/2013.1/src/exe/rbdock.cxx#4 $)

>  <Rbt.Library>
libRbt.so (2013.1, Build901 2013/11/27)

>  <Rbt.Parameter_File>
/export/apps/rDock/src/rDock_2013.1_src/data/scripts/dock_solv.prm

>  <Rbt.Receptor>
prm/blind_docking_40.prm

>  <SCORE>
-11.697

>  <SCORE.INTER>
-0.284844

>  <SCORE.INTER.CONST>
1

>  <SCORE.INTER.POLAR>
0

>  <SCORE.INTER.ROT>
11

>  <SCORE.INTER.SOLV>
9.64513

>  <SCORE.INTER.VDW>
-14.3383

>  <SCORE.INTER.norm>
-0.020346

>  <SCORE.INTRA>
-11.4122

>  <SCORE.INTRA.DIHEDRAL>
-23.0425

>  <SCORE.INTRA.DIHEDRAL.0>
25.9209

>  <SCORE.INTRA.POLAR>
0

>  <SCORE.INTRA.POLAR.0>
0

>  <SCORE.INTRA.REPUL>
0

>  <SCORE.INTRA.REPUL.0>
0

>  <SCORE.INTRA.SOLV>
-0.911914

>  <SCORE.INTRA.SOLV.lig_0>
-47.4815

>  <SCORE.INTRA.VDW>
0.565037

>  <SCORE.INTRA.VDW.0>
-1.57492

>  <SCORE.INTRA.norm>
-0.815154

>  <SCORE.RESTR>
0

>  <SCORE.RESTR.CAVITY>
0

>  <SCORE.RESTR.norm>
0

>  <SCORE.SYSTEM>
0

>  <SCORE.SYSTEM.CONST>
0

>  <SCORE.SYSTEM.DIHEDRAL>
0

>  <SCORE.SYSTEM.SOLV>
0

>  <SCORE.SYSTEM.norm>
0

>  <SCORE.heavy>
14

>  <SCORE.norm>
-0.8355

>  <RMSD>
41.444

$$$$
ligand
 OpenBabel11021811493D
libRbt.so/2013.1/901 2013/11/27
 14 13  0  0  0  0  0  0  0  0999 V2000
   22.8402   15.8065   15.1282 N   0  0  0  0  0  0  0  0  0  0  0  0
   22.1446   15.7814   16.4091 C   0  0  0  0  0  0  0  0  0  0  0  0
   21.9602   14.3322   16.9075 C   0  0  0  0  0  0  0  0  0  0  0  0
   21.0413   13.4622   16.0269 C   0  0  0  0  0  0  0  0  0  0  0  0
   19.6095   13.7943   15.9800 N   0  0  0  0  0  0  0  0  0  0  0  0
   18.6890   13.3215   17.0201 C   0  0  0  0  0  0  0  0  0  0  0  0
   17.2013   13.4816   16.6936 C   0  0  0  0  0  0  0  0  0  0  0  0
   16.2871   12.8086   17.7315 C   0  0  0  0  0  0  0  0  0  0  0  0
   14.7898   12.9014   17.3968 C   0  0  0  0  0  0  0  0  0  0  0  0
   14.4010   12.2517   16.1429 N   0  0  0  0  0  0  0  0  0  0  0  0
   13.1864   12.7031   15.4419 C   0  0  0  0  0  0  0  0  0  0  0  0
   13.1729   12.5603   13.9015 C   0  0  0  0  0  0  0  0  0  0  0  0
   13.4339   11.1417   13.3561 C   0  0  0  0  0  0  0  0  0  0  0  0
   13.5711   11.1044   11.9031 N   0  0  0  0  0  0  0  0  0  0  0  0
  1  2  1  0  0  0  0
  2  3  1  0  0  0  0
  3  4  1  0  0  0  0
  4  5  1  0  0  0  0
  5  6  1  0  0  0  0
  6  7  1  0  0  0  0
  7  8  1  0  0  0  0
  8  9  1  0  0  0  0
  9 10  1  0  0  0  0
 10 11  1  0  0  0  0
 11 12  1  0  0  0  0
 12 13  1  0  0  0  0
 13 14  1  0  0  0  0
M  END
>  <CHROM.1>
-65.18701653,-67.85315663,-83.01660167,-167.46559253,172.59897415,-177.50165001
61.55939342,-155.46589349,150.09458868,55.87414511,-172.91760602,17.30905450
13.24650778,15.71744927,-0.25438931,-0.30761529,-1.69881864

>  <Name>
ligand

>  <RI>
0

>  <Rbt.Current_Directory>
/home/itssahil/PROJECTS/Mol_Feturizer/New_Systems/rnas/4E8Q

>  <Rbt.Executable>
rbdock ($Id: //depot/dev/client3/rdock/2013.1/src/exe/rbdock.cxx#4 $)

>  <Rbt.Library>
libRbt.so (2013.1, Build901 2013/11/27)

>  <Rbt.Parameter_File>
/export/apps/rDock/src/rDock_2013.1_src/data/scripts/dock_solv.prm

>  <Rbt.Receptor>
prm/blind_docking_100.prm

>  <SCORE>
-16.0575

>  <SCORE.INTER>
-4.54051

>  <SCORE.INTER.CONST>
1

>  <SCORE.INTER.POLAR>
0

>  <SCORE.INTER.ROT>
11

>  <SCORE.INTER.SOLV>
15.3419

>  <SCORE.INTER.VDW>
-19.0743

>  <SCORE.INTER.norm>
-0.324322

>  <SCORE.INTRA>
-11.517

>  <SCORE.INTRA.DIHEDRAL>
-23.5602

>  <SCORE.INTRA.DIHEDRAL.0>
25.9209

>  <SCORE.INTRA.POLAR>
0

>  <SCORE.INTRA.POLAR.0>
0

>  <SCORE.INTRA.REPUL>
0

>  <SCORE.INTRA.REPUL.0>
0

>  <SCORE.INTRA.SOLV>
0.00526679

>  <SCORE.INTRA.SOLV.lig_0>
-47.4815

>  <SCORE.INTRA.VDW>
0.260479

>  <SCORE.INTRA.VDW.0>
-1.57492

>  <SCORE.INTRA.norm>
-0.822641

>  <SCORE.RESTR>
0

>  <SCORE.RESTR.CAVITY>
0

>  <SCORE.RESTR.norm>
0

>  <SCORE.SYSTEM>
0

>  <SCORE.SYSTEM.CONST>
0

>  <SCORE.SYSTEM.DIHEDRAL>
0

>  <SCORE.SYSTEM.SOLV>
0

>  <SCORE.SYSTEM.norm>
0

>  <SCORE.heavy>
14

>  <SCORE.norm>
-1.14696

>  <RMSD>
41.577

$$$$
ligand
 OpenBabel11021811493D
libRbt.so/2013.1/901 2013/11/27
 14 13  0  0  0  0  0  0  0  0999 V2000
   14.6870   12.0033   13.4549 N   0  0  0  0  0  0  0  0  0  0  0  0
   13.2305   11.9452   13.4328 C   0  0  0  0  0  0  0  0  0  0  0  0
   12.6319   12.6666   14.6591 C   0  0  0  0  0  0  0  0  0  0  0  0
   12.9581   12.0081   16.0143 C   0  0  0  0  0  0  0  0  0  0  0  0
   14.3604   11.9919   16.4569 N   0  0  0  0  0  0  0  0  0  0  0  0
   14.8386   12.9194   17.4884 C   0  0  0  0  0  0  0  0  0  0  0  0
   16.3578   13.1052   17.5419 C   0  0  0  0  0  0  0  0  0  0  0  0
   16.9372   13.6619   16.2302 C   0  0  0  0  0  0  0  0  0  0  0  0
   18.3584   14.2307   16.3683 C   0  0  0  0  0  0  0  0  0  0  0  0
   19.3483   13.2859   16.8907 N   0  0  0  0  0  0  0  0  0  0  0  0
   20.7405   13.7292   17.0799 C   0  0  0  0  0  0  0  0  0  0  0  0
   21.6029   13.8920   15.8058 C   0  0  0  0  0  0  0  0  0  0  0  0
   23.0397   14.4057   16.0284 C   0  0  0  0  0  0  0  0  0  0  0  0
   23.7968   14.5409   14.7874 N   0  0  0  0  0  0  0  0  0  0  0  0
  1  2  1  0  0  0  0
  2  3  1  0  0  0  0
  3  4  1  0  0  0  0
  4  5  1  0  0  0  0
  5  6  1  0  0  0  0
  6  7  1  0  0  0  0
  7  8  1  0  0  0  0
  8  9  1  0  0  0  0
  9 10  1  0  0  0  0
 10 11  1  0  0  0  0
 11 12  1  0  0  0  0
 12 13  1  0  0  0  0
 13 14  1  0  0  0  0
M  END
>  <CHROM.1>
-65.18755819,65.53129759,103.31816483,-161.61651186,60.37011710,163.54578505
56.95927603,-179.26091019,-74.56751782,177.87889256,-179.79728413,17.34887114
13.17051377,15.87440889,-3.03558596,0.20964724,1.46828299

>  <Name>
ligand

>  <RI>
0

>  <Rbt.Current_Directory>
/home/itssahil/PROJECTS/Mol_Feturizer/New_Systems/rnas/4E8Q

>  <Rbt.Executable>
rbdock ($Id: //depot/dev/client3/rdock/2013.1/src/exe/rbdock.cxx#4 $)

>  <Rbt.Library>
libRbt.so (2013.1, Build901 2013/11/27)

>  <Rbt.Parameter_File>
/export/apps/rDock/src/rDock_2013.1_src/data/scripts/dock_solv.prm

>  <Rbt.Receptor>
prm/blind_docking_100.prm

>  <SCORE>
-15.866

>  <SCORE.INTER>
-5.43318

>  <SCORE.INTER.CONST>
1

>  <SCORE.INTER.POLAR>
0

>  <SCORE.INTER.ROT>
11

>  <SCORE.INTER.SOLV>
12.3023

>  <SCORE.INTER.VDW>
-18.6562

>  <SCORE.INTER.norm>
-0.388084

>  <SCORE.INTRA>
-10.4329

>  <SCORE.INTRA.DIHEDRAL>
-23.1759

>  <SCORE.INTRA.DIHEDRAL.0>
25.9209

>  <SCORE.INTRA.POLAR>
0

>  <SCORE.INTRA.POLAR.0>
0

>  <SCORE.INTRA.REPUL>
0

>  <SCORE.INTRA.REPUL.0>
0

>  <SCORE.INTRA.SOLV>
1.92976

>  <SCORE.INTRA.SOLV.lig_0>
-47.4815

>  <SCORE.INTRA.VDW>
0.190225

>  <SCORE.INTRA.VDW.0>
-1.57492

>  <SCORE.INTRA.norm>
-0.745204

>  <SCORE.RESTR>
0

>  <SCORE.RESTR.CAVITY>
0

>  <SCORE.RESTR.norm>
0

>  <SCORE.SYSTEM>
0

>  <SCORE.SYSTEM.CONST>
0

>  <SCORE.SYSTEM.DIHEDRAL>
0

>  <SCORE.SYSTEM.SOLV>
0

>  <SCORE.SYSTEM.norm>
0

>  <SCORE.heavy>
14

>  <SCORE.norm>
-1.13329

>  <RMSD>
41.590

$$$$
ligand
 OpenBabel11021811493D
libRbt.so/2013.1/901 2013/11/27
 14 13  0  0  0  0  0  0  0  0999 V2000
   38.0119    3.2397   36.9054 N   0  0  0  0  0  0  0  0  0  0  0  0
   39.2587    3.7177   37.4904 C   0  0  0  0  0  0  0  0  0  0  0  0
   39.0707    4.0604   38.9836 C   0  0  0  0  0  0  0  0  0  0  0  0
   40.3461    4.5549   39.6946 C   0  0  0  0  0  0  0  0  0  0  0  0
   41.5176    3.6660   39.7136 N   0  0  0  0  0  0  0  0  0  0  0  0
   41.4274    2.3077   40.2607 C   0  0  0  0  0  0  0  0  0  0  0  0
   41.4647    1.1840   39.2208 C   0  0  0  0  0  0  0  0  0  0  0  0
   42.8301    1.0620   38.5233 C   0  0  0  0  0  0  0  0  0  0  0  0
   42.7965    0.2364   37.2272 C   0  0  0  0  0  0  0  0  0  0  0  0
   42.2201   -1.1027   37.3687 N   0  0  0  0  0  0  0  0  0  0  0  0
   43.0165   -2.1688   38.0010 C   0  0  0  0  0  0  0  0  0  0  0  0
   42.8992   -3.5859   37.3913 C   0  0  0  0  0  0  0  0  0  0  0  0
   43.3281   -3.7201   35.9162 C   0  0  0  0  0  0  0  0  0  0  0  0
   43.1116   -5.0598   35.3779 N   0  0  0  0  0  0  0  0  0  0  0  0
  1  2  1  0  0  0  0
  2  3  1  0  0  0  0
  3  4  1  0  0  0  0
  4  5  1  0  0  0  0
  5  6  1  0  0  0  0
  6  7  1  0  0  0  0
  7  8  1  0  0  0  0
  8  9  1  0  0  0  0
  9 10  1  0  0  0  0
 10 11  1  0  0  0  0
 11 12  1  0  0  0  0
 12 13  1  0  0  0  0
 13 14  1  0  0  0  0
M  END
>  <CHROM.1>
179.07830898,-58.83189540,-56.36710805,107.65007292,67.83370792,-163.74493664
-53.81199144,-76.10994722,-141.38636795,60.57498385,-176.25765515,41.52150213
0.59955041,38.00561826,2.08635851,-0.66705638,0.64836712

>  <Name>
ligand

>  <RI>
0

>  <Rbt.Current_Directory>
/home/itssahil/PROJECTS/Mol_Feturizer/New_Systems/rnas/4E8Q

>  <Rbt.Executable>
rbdock ($Id: //depot/dev/client3/rdock/2013.1/src/exe/rbdock.cxx#4 $)

>  <Rbt.Library>
libRbt.so (2013.1, Build901 2013/11/27)

>  <Rbt.Parameter_File>
/export/apps/rDock/src/rDock_2013.1_src/data/scripts/dock_solv.prm

>  <Rbt.Receptor>
prm/blind_docking_60.prm

>  <SCORE>
-12.558

>  <SCORE.INTER>
-1.33748

>  <SCORE.INTER.CONST>
1

>  <SCORE.INTER.POLAR>
0

>  <SCORE.INTER.ROT>
11

>  <SCORE.INTER.SOLV>
7.01653

>  <SCORE.INTER.VDW>
-14.1638

>  <SCORE.INTER.norm>
-0.0955345

>  <SCORE.INTRA>
-11.2205

>  <SCORE.INTRA.DIHEDRAL>
-22.2906

>  <SCORE.INTRA.DIHEDRAL.0>
25.9209

>  <SCORE.INTRA.POLAR>
0

>  <SCORE.INTRA.POLAR.0>
0

>  <SCORE.INTRA.REPUL>
0

>  <SCORE.INTRA.REPUL.0>
0

>  <SCORE.INTRA.SOLV>
-0.715764

>  <SCORE.INTRA.SOLV.lig_0>
-47.4815

>  <SCORE.INTRA.VDW>
0.282661

>  <SCORE.INTRA.VDW.0>
-1.57492

>  <SCORE.INTRA.norm>
-0.801466

>  <SCORE.RESTR>
0

>  <SCORE.RESTR.CAVITY>
0

>  <SCORE.RESTR.norm>
0

>  <SCORE.SYSTEM>
0

>  <SCORE.SYSTEM.CONST>
0

>  <SCORE.SYSTEM.DIHEDRAL>
0

>  <SCORE.SYSTEM.SOLV>
0

>  <SCORE.SYSTEM.norm>
0

>  <SCORE.heavy>
14

>  <SCORE.norm>
-0.897

>  <RMSD>
41.590

$$$$
ligand
 OpenBabel11021811493D
libRbt.so/2013.1/901 2013/11/27
 14 13  0  0  0  0  0  0  0  0999 V2000
   19.5288   -8.4629   30.0402 N   0  0  0  0  0  0  0  0  0  0  0  0
   20.5229   -8.6607   31.0881 C   0  0  0  0  0  0  0  0  0  0  0  0
   21.9498   -8.4401   30.5423 C   0  0  0  0  0  0  0  0  0  0  0  0
   22.2305   -7.0108   30.0374 C   0  0  0  0  0  0  0  0  0  0  0  0
   23.5899   -6.6943   29.5739 N   0  0  0  0  0  0  0  0  0  0  0  0
   24.0584   -5.3061   29.4963 C   0  0  0  0  0  0  0  0  0  0  0  0
   25.3976   -5.1109   28.7796 C   0  0  0  0  0  0  0  0  0  0  0  0
   25.3641   -5.5792   27.3149 C   0  0  0  0  0  0  0  0  0  0  0  0
   26.6577   -5.2880   26.5375 C   0  0  0  0  0  0  0  0  0  0  0  0
   26.6163   -5.6550   25.1201 N   0  0  0  0  0  0  0  0  0  0  0  0
   27.2687   -4.7821   24.1286 C   0  0  0  0  0  0  0  0  0  0  0  0
   28.8145   -4.8151   24.0761 C   0  0  0  0  0  0  0  0  0  0  0  0
   29.4399   -6.1053   23.5084 C   0  0  0  0  0  0  0  0  0  0  0  0
   29.3482   -6.1928   22.0540 N   0  0  0  0  0  0  0  0  0  0  0  0
  1  2  1  0  0  0  0
  2  3  1  0  0  0  0
  3  4  1  0  0  0  0
  4  5  1  0  0  0  0
  5  6  1  0  0  0  0
  6  7  1  0  0  0  0
  7  8  1  0  0  0  0
  8  9  1  0  0  0  0
  9 10  1  0  0  0  0
 10 11  1  0  0  0  0
 11 12  1  0  0  0  0
 12 13  1  0  0  0  0
 13 14  1  0  0  0  0
M  END
>  <CHROM.1>
62.98923702,176.48632951,-159.90417271,-170.13605307,60.62722628,175.17385800
-176.56156812,141.57857545,74.17370338,70.67871859,76.16126895,25.05634048
-6.29289790,27.30719415,2.75489567,0.69426181,0.90204017

>  <Name>
ligand

>  <RI>
0

>  <Rbt.Current_Directory>
/home/itssahil/PROJECTS/Mol_Feturizer/New_Systems/rnas/4E8Q

>  <Rbt.Executable>
rbdock ($Id: //depot/dev/client3/rdock/2013.1/src/exe/rbdock.cxx#4 $)

>  <Rbt.Library>
libRbt.so (2013.1, Build901 2013/11/27)

>  <Rbt.Parameter_File>
/export/apps/rDock/src/rDock_2013.1_src/data/scripts/dock_solv.prm

>  <Rbt.Receptor>
prm/blind_docking_40.prm

>  <SCORE>
-13.7779

>  <SCORE.INTER>
-2.77038

>  <SCORE.INTER.CONST>
1

>  <SCORE.INTER.POLAR>
0

>  <SCORE.INTER.ROT>
11

>  <SCORE.INTER.SOLV>
15.455

>  <SCORE.INTER.VDW>
-17.9319

>  <SCORE.INTER.norm>
-0.197885

>  <SCORE.INTRA>
-11.0076

>  <SCORE.INTRA.DIHEDRAL>
-22.9517

>  <SCORE.INTRA.DIHEDRAL.0>
25.9209

>  <SCORE.INTRA.POLAR>
0

>  <SCORE.INTRA.POLAR.0>
0

>  <SCORE.INTRA.REPUL>
0

>  <SCORE.INTRA.REPUL.0>
0

>  <SCORE.INTRA.SOLV>
0.0127096

>  <SCORE.INTRA.SOLV.lig_0>
-47.4815

>  <SCORE.INTRA.VDW>
0.461939

>  <SCORE.INTRA.VDW.0>
-1.57492

>  <SCORE.INTRA.norm>
-0.786254

>  <SCORE.RESTR>
0

>  <SCORE.RESTR.CAVITY>
0

>  <SCORE.RESTR.norm>
0

>  <SCORE.SYSTEM>
0

>  <SCORE.SYSTEM.CONST>
0

>  <SCORE.SYSTEM.DIHEDRAL>
0

>  <SCORE.SYSTEM.SOLV>
0

>  <SCORE.SYSTEM.norm>
0

>  <SCORE.heavy>
14

>  <SCORE.norm>
-0.984138

>  <RMSD>
41.662

$$$$
ligand
 OpenBabel11021811493D
libRbt.so/2013.1/901 2013/11/27
 14 13  0  0  0  0  0  0  0  0999 V2000
    7.0460    6.9354    7.5852 N   0  0  0  0  0  0  0  0  0  0  0  0
    7.7452    6.9927    6.3073 C   0  0  0  0  0  0  0  0  0  0  0  0
    9.1123    6.2816    6.3951 C   0  0  0  0  0  0  0  0  0  0  0  0
    9.8409    6.1216    5.0459 C   0  0  0  0  0  0  0  0  0  0  0  0
   11.1348    5.4227    5.0359 N   0  0  0  0  0  0  0  0  0  0  0  0
   11.8958    5.2581    3.7924 C   0  0  0  0  0  0  0  0  0  0  0  0
   12.7425    6.4669    3.3833 C   0  0  0  0  0  0  0  0  0  0  0  0
   13.9387    6.7021    4.3211 C   0  0  0  0  0  0  0  0  0  0  0  0
   15.2222    5.9753    3.8888 C   0  0  0  0  0  0  0  0  0  0  0  0
   15.1268    4.5137    3.8850 N   0  0  0  0  0  0  0  0  0  0  0  0
   15.1134    3.7941    2.5995 C   0  0  0  0  0  0  0  0  0  0  0  0
   15.6216    2.3328    2.6096 C   0  0  0  0  0  0  0  0  0  0  0  0
   14.8706    1.3670    3.5482 C   0  0  0  0  0  0  0  0  0  0  0  0
   13.4466    1.2652    3.2429 N   0  0  0  0  0  0  0  0  0  0  0  0
  1  2  1  0  0  0  0
  2  3  1  0  0  0  0
  3  4  1  0  0  0  0
  4  5  1  0  0  0  0
  5  6  1  0  0  0  0
  6  7  1  0  0  0  0
  7  8  1  0  0  0  0
  8  9  1  0  0  0  0
  9 10  1  0  0  0  0
 10 11  1  0  0  0  0
 11 12  1  0  0  0  0
 12 13  1  0  0  0  0
 13 14  1  0  0  0  0
M  END
>  <CHROM.1>
172.04892709,-178.42026996,-178.76028459,82.16335577,69.28414635,90.42449602
-63.19319582,109.46333832,154.10493466,58.62225630,59.01594264,12.34722435
4.95940330,4.40265565,2.64209163,0.40462350,0.10851772

>  <Name>
ligand

>  <RI>
0

>  <Rbt.Current_Directory>
/home/itssahil/PROJECTS/Mol_Feturizer/New_Systems/rnas/4E8Q

>  <Rbt.Executable>
rbdock ($Id: //depot/dev/client3/rdock/2013.1/src/exe/rbdock.cxx#4 $)

>  <Rbt.Library>
libRbt.so (2013.1, Build901 2013/11/27)

>  <Rbt.Parameter_File>
/export/apps/rDock/src/rDock_2013.1_src/data/scripts/dock_solv.prm

>  <Rbt.Receptor>
prm/blind_docking_20.prm

>  <SCORE>
-3.58696

>  <SCORE.INTER>
5.62202

>  <SCORE.INTER.CONST>
1

>  <SCORE.INTER.POLAR>
0

>  <SCORE.INTER.ROT>
11

>  <SCORE.INTER.SOLV>
10.8365

>  <SCORE.INTER.VDW>
-10.7975

>  <SCORE.INTER.norm>
0.401573

>  <SCORE.INTRA>
-9.56066

>  <SCORE.INTRA.DIHEDRAL>
-20.2337

>  <SCORE.INTRA.DIHEDRAL.0>
25.9209

>  <SCORE.INTRA.POLAR>
0

>  <SCORE.INTRA.POLAR.0>
0

>  <SCORE.INTRA.REPUL>
0

>  <SCORE.INTRA.REPUL.0>
0

>  <SCORE.INTRA.SOLV>
1.12782

>  <SCORE.INTRA.SOLV.lig_0>
-47.4815

>  <SCORE.INTRA.VDW>
-0.00770709

>  <SCORE.INTRA.VDW.0>
-1.57492

>  <SCORE.INTRA.norm>
-0.682904

>  <SCORE.RESTR>
0.351671

>  <SCORE.RESTR.CAVITY>
0.351671

>  <SCORE.RESTR.norm>
0.0251194

>  <SCORE.SYSTEM>
0

>  <SCORE.SYSTEM.CONST>
0

>  <SCORE.SYSTEM.DIHEDRAL>
0

>  <SCORE.SYSTEM.SOLV>
0

>  <SCORE.SYSTEM.norm>
0

>  <SCORE.heavy>
14

>  <SCORE.norm>
-0.256211

>  <RMSD>
41.853

$$$$
ligand
 OpenBabel11021811493D
libRbt.so/2013.1/901 2013/11/27
 14 13  0  0  0  0  0  0  0  0999 V2000
   42.8698    1.5328   34.2486 N   0  0  0  0  0  0  0  0  0  0  0  0
   42.7032    0.0848   34.2745 C   0  0  0  0  0  0  0  0  0  0  0  0
   42.1091   -0.3773   35.6221 C   0  0  0  0  0  0  0  0  0  0  0  0
   43.0017   -0.0972   36.8474 C   0  0  0  0  0  0  0  0  0  0  0  0
   42.4832   -0.4501   38.1776 N   0  0  0  0  0  0  0  0  0  0  0  0
   43.2653   -0.1824   39.3897 C   0  0  0  0  0  0  0  0  0  0  0  0
   42.5083    0.5450   40.5047 C   0  0  0  0  0  0  0  0  0  0  0  0
   41.8753    1.8651   40.0329 C   0  0  0  0  0  0  0  0  0  0  0  0
   41.4202    2.7828   41.1789 C   0  0  0  0  0  0  0  0  0  0  0  0
   40.5825    3.9107   40.7646 N   0  0  0  0  0  0  0  0  0  0  0  0
   41.0653    4.8203   39.7111 C   0  0  0  0  0  0  0  0  0  0  0  0
   40.0971    5.9359   39.2513 C   0  0  0  0  0  0  0  0  0  0  0  0
   38.6776    5.4753   38.8626 C   0  0  0  0  0  0  0  0  0  0  0  0
   38.6720    4.4859   37.7890 N   0  0  0  0  0  0  0  0  0  0  0  0
  1  2  1  0  0  0  0
  2  3  1  0  0  0  0
  3  4  1  0  0  0  0
  4  5  1  0  0  0  0
  5  6  1  0  0  0  0
  6  7  1  0  0  0  0
  7  8  1  0  0  0  0
  8  9  1  0  0  0  0
  9 10  1  0  0  0  0
 10 11  1  0  0  0  0
 11 12  1  0  0  0  0
 12 13  1  0  0  0  0
 13 14  1  0  0  0  0
M  END
>  <CHROM.1>
-63.32669402,177.24003131,-178.53911913,130.12282930,-54.82242227,-165.43522109
-168.40469783,-53.89292961,176.05184638,-51.19391005,-58.06268334,41.52375280
2.16645865,38.33274842,0.66395997,1.00298742,-1.67335902

>  <Name>
ligand

>  <RI>
0

>  <Rbt.Current_Directory>
/home/itssahil/PROJECTS/Mol_Feturizer/New_Systems/rnas/4E8Q

>  <Rbt.Executable>
rbdock ($Id: //depot/dev/client3/rdock/2013.1/src/exe/rbdock.cxx#4 $)

>  <Rbt.Library>
libRbt.so (2013.1, Build901 2013/11/27)

>  <Rbt.Parameter_File>
/export/apps/rDock/src/rDock_2013.1_src/data/scripts/dock_solv.prm

>  <Rbt.Receptor>
prm/blind_docking_100.prm

>  <SCORE>
-12.4149

>  <SCORE.INTER>
-2.26618

>  <SCORE.INTER.CONST>
1

>  <SCORE.INTER.POLAR>
0

>  <SCORE.INTER.ROT>
11

>  <SCORE.INTER.SOLV>
11.2373

>  <SCORE.INTER.VDW>
-16.1899

>  <SCORE.INTER.norm>
-0.16187

>  <SCORE.INTRA>
-10.1487

>  <SCORE.INTRA.DIHEDRAL>
-22.9438

>  <SCORE.INTRA.DIHEDRAL.0>
25.9209

>  <SCORE.INTRA.POLAR>
0

>  <SCORE.INTRA.POLAR.0>
0

>  <SCORE.INTRA.REPUL>
0

>  <SCORE.INTRA.REPUL.0>
0

>  <SCORE.INTRA.SOLV>
0.824157

>  <SCORE.INTRA.SOLV.lig_0>
-47.4815

>  <SCORE.INTRA.VDW>
0.911103

>  <SCORE.INTRA.VDW.0>
-1.57492

>  <SCORE.INTRA.norm>
-0.724908

>  <SCORE.RESTR>
0

>  <SCORE.RESTR.CAVITY>
0

>  <SCORE.RESTR.norm>
0

>  <SCORE.SYSTEM>
0

>  <SCORE.SYSTEM.CONST>
0

>  <SCORE.SYSTEM.DIHEDRAL>
0

>  <SCORE.SYSTEM.SOLV>
0

>  <SCORE.SYSTEM.norm>
0

>  <SCORE.heavy>
14

>  <SCORE.norm>
-0.886778

>  <RMSD>
41.859

$$$$
ligand
 OpenBabel11021811493D
libRbt.so/2013.1/901 2013/11/27
 14 13  0  0  0  0  0  0  0  0999 V2000
   34.1105    3.7818   37.1569 N   0  0  0  0  0  0  0  0  0  0  0  0
   35.4753    4.2715   37.3077 C   0  0  0  0  0  0  0  0  0  0  0  0
   36.4836    3.1027   37.3027 C   0  0  0  0  0  0  0  0  0  0  0  0
   37.9604    3.5279   37.4253 C   0  0  0  0  0  0  0  0  0  0  0  0
   38.3737    4.2555   38.6347 N   0  0  0  0  0  0  0  0  0  0  0  0
   39.7551    4.7206   38.8023 C   0  0  0  0  0  0  0  0  0  0  0  0
   40.3732    4.4411   40.1754 C   0  0  0  0  0  0  0  0  0  0  0  0
   40.5275    2.9384   40.4653 C   0  0  0  0  0  0  0  0  0  0  0  0
   41.5893    2.2421   39.5991 C   0  0  0  0  0  0  0  0  0  0  0  0
   41.7449    0.8084   39.8553 N   0  0  0  0  0  0  0  0  0  0  0  0
   42.9336    0.1074   39.3395 C   0  0  0  0  0  0  0  0  0  0  0  0
   43.0701   -0.0019   37.8024 C   0  0  0  0  0  0  0  0  0  0  0  0
   41.9435   -0.7688   37.0808 C   0  0  0  0  0  0  0  0  0  0  0  0
   42.1597   -0.8810   35.6413 N   0  0  0  0  0  0  0  0  0  0  0  0
  1  2  1  0  0  0  0
  2  3  1  0  0  0  0
  3  4  1  0  0  0  0
  4  5  1  0  0  0  0
  5  6  1  0  0  0  0
  6  7  1  0  0  0  0
  7  8  1  0  0  0  0
  8  9  1  0  0  0  0
  9 10  1  0  0  0  0
 10 11  1  0  0  0  0
 11 12  1  0  0  0  0
 12 13  1  0  0  0  0
 13 14  1  0  0  0  0
M  END
>  <CHROM.1>
178.67670471,60.90587588,-178.41791920,-134.27082166,64.56967917,69.06375442
-179.64869525,-165.13213303,-65.90908562,-61.24053471,-177.71259596,39.75030619
2.32483075,38.32796584,2.80688825,-0.45766277,0.77108309

>  <Name>
ligand

>  <RI>
0

>  <Rbt.Current_Directory>
/home/itssahil/PROJECTS/Mol_Feturizer/New_Systems/rnas/4E8Q

>  <Rbt.Executable>
rbdock ($Id: //depot/dev/client3/rdock/2013.1/src/exe/rbdock.cxx#4 $)

>  <Rbt.Library>
libRbt.so (2013.1, Build901 2013/11/27)

>  <Rbt.Parameter_File>
/export/apps/rDock/src/rDock_2013.1_src/data/scripts/dock_solv.prm

>  <Rbt.Receptor>
prm/blind_docking_60.prm

>  <SCORE>
-14.245

>  <SCORE.INTER>
-2.28701

>  <SCORE.INTER.CONST>
1

>  <SCORE.INTER.POLAR>
0

>  <SCORE.INTER.ROT>
11

>  <SCORE.INTER.SOLV>
7.16603

>  <SCORE.INTER.VDW>
-14.8467

>  <SCORE.INTER.norm>
-0.163358

>  <SCORE.INTRA>
-11.958

>  <SCORE.INTRA.DIHEDRAL>
-24.2248

>  <SCORE.INTRA.DIHEDRAL.0>
25.9209

>  <SCORE.INTRA.POLAR>
0

>  <SCORE.INTRA.POLAR.0>
0

>  <SCORE.INTRA.REPUL>
0

>  <SCORE.INTRA.REPUL.0>
0

>  <SCORE.INTRA.SOLV>
-0.882078

>  <SCORE.INTRA.SOLV.lig_0>
-47.4815

>  <SCORE.INTRA.VDW>
0.59545

>  <SCORE.INTRA.VDW.0>
-1.57492

>  <SCORE.INTRA.norm>
-0.854143

>  <SCORE.RESTR>
0

>  <SCORE.RESTR.CAVITY>
0

>  <SCORE.RESTR.norm>
0

>  <SCORE.SYSTEM>
0

>  <SCORE.SYSTEM.CONST>
0

>  <SCORE.SYSTEM.DIHEDRAL>
0

>  <SCORE.SYSTEM.SOLV>
0

>  <SCORE.SYSTEM.norm>
0

>  <SCORE.heavy>
14

>  <SCORE.norm>
-1.0175

>  <RMSD>
42.252

$$$$
ligand
 OpenBabel11021811493D
libRbt.so/2013.1/901 2013/11/27
 14 13  0  0  0  0  0  0  0  0999 V2000
   45.5966   11.4575   39.7360 N   0  0  0  0  0  0  0  0  0  0  0  0
   44.2468   11.0161   40.0655 C   0  0  0  0  0  0  0  0  0  0  0  0
   44.2815    9.7538   40.9531 C   0  0  0  0  0  0  0  0  0  0  0  0
   42.9310    9.3857   41.5993 C   0  0  0  0  0  0  0  0  0  0  0  0
   41.9527    8.6470   40.7868 N   0  0  0  0  0  0  0  0  0  0  0  0
   42.0455    7.1912   40.6297 C   0  0  0  0  0  0  0  0  0  0  0  0
   40.9745    6.5645   39.7322 C   0  0  0  0  0  0  0  0  0  0  0  0
   40.9798    5.0272   39.7816 C   0  0  0  0  0  0  0  0  0  0  0  0
   39.9105    4.3711   38.8936 C   0  0  0  0  0  0  0  0  0  0  0  0
   39.7941    2.9190   39.0463 N   0  0  0  0  0  0  0  0  0  0  0  0
   39.6330    2.0773   37.8479 C   0  0  0  0  0  0  0  0  0  0  0  0
   38.2881    2.1864   37.0910 C   0  0  0  0  0  0  0  0  0  0  0  0
   38.1305    3.4174   36.1756 C   0  0  0  0  0  0  0  0  0  0  0  0
   39.0883    3.4366   35.0740 N   0  0  0  0  0  0  0  0  0  0  0  0
  1  2  1  0  0  0  0
  2  3  1  0  0  0  0
  3  4  1  0  0  0  0
  4  5  1  0  0  0  0
  5  6  1  0  0  0  0
  6  7  1  0  0  0  0
  7  8  1  0  0  0  0
  8  9  1  0  0  0  0
  9 10  1  0  0  0  0
 10 11  1  0  0  0  0
 11 12  1  0  0  0  0
 12 13  1  0  0  0  0
 13 14  1  0  0  0  0
M  END
>  <CHROM.1>
167.59079773,81.53025857,81.92606157,-178.79704203,-170.81875341,179.77360039
-173.12264415,-137.62019199,-69.37426735,78.56141185,63.41780057,41.27507926
6.24633959,39.10108493,-0.22103875,-0.99576128,-1.39156445

>  <Name>
ligand

>  <RI>
0

>  <Rbt.Current_Directory>
/home/itssahil/PROJECTS/Mol_Feturizer/New_Systems/rnas/4E8Q

>  <Rbt.Executable>
rbdock ($Id: //depot/dev/client3/rdock/2013.1/src/exe/rbdock.cxx#4 $)

>  <Rbt.Library>
libRbt.so (2013.1, Build901 2013/11/27)

>  <Rbt.Parameter_File>
/export/apps/rDock/src/rDock_2013.1_src/data/scripts/dock_solv.prm

>  <Rbt.Receptor>
prm/blind_docking_80.prm

>  <SCORE>
-14.5725

>  <SCORE.INTER>
-4.64065

>  <SCORE.INTER.CONST>
1

>  <SCORE.INTER.POLAR>
0

>  <SCORE.INTER.ROT>
11

>  <SCORE.INTER.SOLV>
20.2811

>  <SCORE.INTER.VDW>
-20.7875

>  <SCORE.INTER.norm>
-0.331475

>  <SCORE.INTRA>
-9.93189

>  <SCORE.INTRA.DIHEDRAL>
-20.6565

>  <SCORE.INTRA.DIHEDRAL.0>
25.9209

>  <SCORE.INTRA.POLAR>
0

>  <SCORE.INTRA.POLAR.0>
0

>  <SCORE.INTRA.REPUL>
0

>  <SCORE.INTRA.REPUL.0>
0

>  <SCORE.INTRA.SOLV>
-0.112467

>  <SCORE.INTRA.SOLV.lig_0>
-47.4815

>  <SCORE.INTRA.VDW>
0.452587

>  <SCORE.INTRA.VDW.0>
-1.57492

>  <SCORE.INTRA.norm>
-0.709421

>  <SCORE.RESTR>
0

>  <SCORE.RESTR.CAVITY>
0

>  <SCORE.RESTR.norm>
0

>  <SCORE.SYSTEM>
0

>  <SCORE.SYSTEM.CONST>
0

>  <SCORE.SYSTEM.DIHEDRAL>
0

>  <SCORE.SYSTEM.SOLV>
0

>  <SCORE.SYSTEM.norm>
0

>  <SCORE.heavy>
14

>  <SCORE.norm>
-1.0409

>  <RMSD>
42.702

$$$$
ligand
 OpenBabel11021811493D
libRbt.so/2013.1/901 2013/11/27
 14 13  0  0  0  0  0  0  0  0999 V2000
   15.3117   11.5991   13.0686 N   0  0  0  0  0  0  0  0  0  0  0  0
   15.4420   10.2106   13.4933 C   0  0  0  0  0  0  0  0  0  0  0  0
   14.0563    9.5807   13.7497 C   0  0  0  0  0  0  0  0  0  0  0  0
   13.2798   10.1959   14.9309 C   0  0  0  0  0  0  0  0  0  0  0  0
   13.0146   11.6423   14.9075 N   0  0  0  0  0  0  0  0  0  0  0  0
   12.0673   12.2527   15.8470 C   0  0  0  0  0  0  0  0  0  0  0  0
   12.4798   12.1880   17.3204 C   0  0  0  0  0  0  0  0  0  0  0  0
   13.7151   13.0498   17.6324 C   0  0  0  0  0  0  0  0  0  0  0  0
   15.0194   12.5146   17.0201 C   0  0  0  0  0  0  0  0  0  0  0  0
   16.1877   13.3753   17.2190 N   0  0  0  0  0  0  0  0  0  0  0  0
   17.5066   12.9245   16.7416 C   0  0  0  0  0  0  0  0  0  0  0  0
   18.5959   14.0089   16.5657 C   0  0  0  0  0  0  0  0  0  0  0  0
   19.9917   13.4984   16.1545 C   0  0  0  0  0  0  0  0  0  0  0  0
   20.9539   14.5754   15.9408 N   0  0  0  0  0  0  0  0  0  0  0  0
  1  2  1  0  0  0  0
  2  3  1  0  0  0  0
  3  4  1  0  0  0  0
  4  5  1  0  0  0  0
  5  6  1  0  0  0  0
  6  7  1  0  0  0  0
  7  8  1  0  0  0  0
  8  9  1  0  0  0  0
  9 10  1  0  0  0  0
 10 11  1  0  0  0  0
 11 12  1  0  0  0  0
 12 13  1  0  0  0  0
 13 14  1  0  0  0  0
M  END
>  <CHROM.1>
-65.62200798,56.85987345,167.88446988,65.29501272,67.44063888,-69.33827197
175.51502779,176.51494061,161.30653521,176.13274468,177.12157890,15.54408417
12.25807114,15.75671830,-2.77722275,0.24312093,0.95066810

>  <Name>
ligand

>  <RI>
0

>  <Rbt.Current_Directory>
/home/itssahil/PROJECTS/Mol_Feturizer/New_Systems/rnas/4E8Q

>  <Rbt.Executable>
rbdock ($Id: //depot/dev/client3/rdock/2013.1/src/exe/rbdock.cxx#4 $)

>  <Rbt.Library>
libRbt.so (2013.1, Build901 2013/11/27)

>  <Rbt.Parameter_File>
/export/apps/rDock/src/rDock_2013.1_src/data/scripts/dock_solv.prm

>  <Rbt.Receptor>
prm/blind_docking_40.prm

>  <SCORE>
-15.3645

>  <SCORE.INTER>
-4.43615

>  <SCORE.INTER.CONST>
1

>  <SCORE.INTER.POLAR>
0

>  <SCORE.INTER.ROT>
11

>  <SCORE.INTER.SOLV>
11.6307

>  <SCORE.INTER.VDW>
-17.7677

>  <SCORE.INTER.norm>
-0.316868

>  <SCORE.INTRA>
-10.9284

>  <SCORE.INTRA.DIHEDRAL>
-24.6214

>  <SCORE.INTRA.DIHEDRAL.0>
25.9209

>  <SCORE.INTRA.POLAR>
0

>  <SCORE.INTRA.POLAR.0>
0

>  <SCORE.INTRA.REPUL>
0

>  <SCORE.INTRA.REPUL.0>
0

>  <SCORE.INTRA.SOLV>
2.16969

>  <SCORE.INTRA.SOLV.lig_0>
-47.4815

>  <SCORE.INTRA.VDW>
0.297489

>  <SCORE.INTRA.VDW.0>
-1.57492

>  <SCORE.INTRA.norm>
-0.780597

>  <SCORE.RESTR>
0

>  <SCORE.RESTR.CAVITY>
0

>  <SCORE.RESTR.norm>
0

>  <SCORE.SYSTEM>
0

>  <SCORE.SYSTEM.CONST>
0

>  <SCORE.SYSTEM.DIHEDRAL>
0

>  <SCORE.SYSTEM.SOLV>
0

>  <SCORE.SYSTEM.norm>
0

>  <SCORE.heavy>
14

>  <SCORE.norm>
-1.09746

>  <RMSD>
42.866

$$$$
ligand
 OpenBabel11021811493D
libRbt.so/2013.1/901 2013/11/27
 14 13  0  0  0  0  0  0  0  0999 V2000
   14.9019   10.0309   12.6883 N   0  0  0  0  0  0  0  0  0  0  0  0
   13.7681   10.8645   13.0690 C   0  0  0  0  0  0  0  0  0  0  0  0
   13.4160   10.6685   14.5590 C   0  0  0  0  0  0  0  0  0  0  0  0
   12.2847   11.5788   15.0768 C   0  0  0  0  0  0  0  0  0  0  0  0
   11.9862   11.5620   16.5167 N   0  0  0  0  0  0  0  0  0  0  0  0
   12.1658   12.7629   17.3403 C   0  0  0  0  0  0  0  0  0  0  0  0
   13.5629   12.9344   17.9438 C   0  0  0  0  0  0  0  0  0  0  0  0
   14.6855   12.7710   16.9051 C   0  0  0  0  0  0  0  0  0  0  0  0
   16.0953   13.0129   17.4676 C   0  0  0  0  0  0  0  0  0  0  0  0
   17.1738   12.9120   16.4816 N   0  0  0  0  0  0  0  0  0  0  0  0
   18.2901   13.8721   16.5313 C   0  0  0  0  0  0  0  0  0  0  0  0
   19.6844   13.3070   16.8918 C   0  0  0  0  0  0  0  0  0  0  0  0
   20.8379   14.3302   16.9173 C   0  0  0  0  0  0  0  0  0  0  0  0
   21.0843   14.9459   15.6166 N   0  0  0  0  0  0  0  0  0  0  0  0
  1  2  1  0  0  0  0
  2  3  1  0  0  0  0
  3  4  1  0  0  0  0
  4  5  1  0  0  0  0
  5  6  1  0  0  0  0
  6  7  1  0  0  0  0
  7  8  1  0  0  0  0
  8  9  1  0  0  0  0
  9 10  1  0  0  0  0
 10 11  1  0  0  0  0
 11 12  1  0  0  0  0
 12 13  1  0  0  0  0
 13 14  1  0  0  0  0
M  END
>  <CHROM.1>
176.23588346,-173.44403569,116.66055562,-88.56265468,49.55893847,176.87813102
-177.77720217,139.82376945,113.50881129,179.17569033,-62.69641571,15.70954087
12.53958152,16.00064413,-2.83370634,0.24493383,1.06596090

>  <Name>
ligand

>  <RI>
0

>  <Rbt.Current_Directory>
/home/itssahil/PROJECTS/Mol_Feturizer/New_Systems/rnas/4E8Q

>  <Rbt.Executable>
rbdock ($Id: //depot/dev/client3/rdock/2013.1/src/exe/rbdock.cxx#4 $)

>  <Rbt.Library>
libRbt.so (2013.1, Build901 2013/11/27)

>  <Rbt.Parameter_File>
/export/apps/rDock/src/rDock_2013.1_src/data/scripts/dock_solv.prm

>  <Rbt.Receptor>
prm/blind_docking_40.prm

>  <SCORE>
-16.5812

>  <SCORE.INTER>
-5.82516

>  <SCORE.INTER.CONST>
1

>  <SCORE.INTER.POLAR>
0

>  <SCORE.INTER.ROT>
11

>  <SCORE.INTER.SOLV>
14.1

>  <SCORE.INTER.VDW>
-19.5168

>  <SCORE.INTER.norm>
-0.416083

>  <SCORE.INTRA>
-10.756

>  <SCORE.INTRA.DIHEDRAL>
-21.3985

>  <SCORE.INTRA.DIHEDRAL.0>
25.9209

>  <SCORE.INTRA.POLAR>
0

>  <SCORE.INTRA.POLAR.0>
0

>  <SCORE.INTRA.REPUL>
0

>  <SCORE.INTRA.REPUL.0>
0

>  <SCORE.INTRA.SOLV>
-1.03378

>  <SCORE.INTRA.SOLV.lig_0>
-47.4815

>  <SCORE.INTRA.VDW>
0.460109

>  <SCORE.INTRA.VDW.0>
-1.57492

>  <SCORE.INTRA.norm>
-0.768288

>  <SCORE.RESTR>
0

>  <SCORE.RESTR.CAVITY>
0

>  <SCORE.RESTR.norm>
0

>  <SCORE.SYSTEM>
0

>  <SCORE.SYSTEM.CONST>
0

>  <SCORE.SYSTEM.DIHEDRAL>
0

>  <SCORE.SYSTEM.SOLV>
0

>  <SCORE.SYSTEM.norm>
0

>  <SCORE.heavy>
14

>  <SCORE.norm>
-1.18437

>  <RMSD>
42.890

$$$$
ligand
 OpenBabel11021811493D
libRbt.so/2013.1/901 2013/11/27
 14 13  0  0  0  0  0  0  0  0999 V2000
   12.9333   13.5169   18.1684 N   0  0  0  0  0  0  0  0  0  0  0  0
   11.9254   12.5954   17.6586 C   0  0  0  0  0  0  0  0  0  0  0  0
   12.5166   11.6840   16.5621 C   0  0  0  0  0  0  0  0  0  0  0  0
   12.9886   12.4259   15.2958 C   0  0  0  0  0  0  0  0  0  0  0  0
   13.6588   11.6454   14.2449 N   0  0  0  0  0  0  0  0  0  0  0  0
   14.5677   12.2879   13.2890 C   0  0  0  0  0  0  0  0  0  0  0  0
   15.8965   12.7699   13.8784 C   0  0  0  0  0  0  0  0  0  0  0  0
   16.7909   11.6138   14.3573 C   0  0  0  0  0  0  0  0  0  0  0  0
   18.0946   12.0718   15.0306 C   0  0  0  0  0  0  0  0  0  0  0  0
   17.9405   12.5375   16.4107 N   0  0  0  0  0  0  0  0  0  0  0  0
   17.1444   13.7476   16.6800 C   0  0  0  0  0  0  0  0  0  0  0  0
   17.7578   15.1002   16.2470 C   0  0  0  0  0  0  0  0  0  0  0  0
   17.9011   15.3168   14.7269 C   0  0  0  0  0  0  0  0  0  0  0  0
   18.5299   16.5901   14.3880 N   0  0  0  0  0  0  0  0  0  0  0  0
  1  2  1  0  0  0  0
  2  3  1  0  0  0  0
  3  4  1  0  0  0  0
  4  5  1  0  0  0  0
  5  6  1  0  0  0  0
  6  7  1  0  0  0  0
  7  8  1  0  0  0  0
  8  9  1  0  0  0  0
  9 10  1  0  0  0  0
 10 11  1  0  0  0  0
 11 12  1  0  0  0  0
 12 13  1  0  0  0  0
 13 14  1  0  0  0  0
M  END
>  <CHROM.1>
-63.62280801,175.39900532,-156.41094146,69.98518613,66.22657413,-176.52057545
77.73060320,-64.68234850,-71.28277339,67.10750411,-177.91719847,15.61751215
13.13576547,15.49541781,3.08121260,-0.44913953,-2.23005110

>  <Name>
ligand

>  <RI>
0

>  <Rbt.Current_Directory>
/home/itssahil/PROJECTS/Mol_Feturizer/New_Systems/rnas/4E8Q

>  <Rbt.Executable>
rbdock ($Id: //depot/dev/client3/rdock/2013.1/src/exe/rbdock.cxx#4 $)

>  <Rbt.Library>
libRbt.so (2013.1, Build901 2013/11/27)

>  <Rbt.Parameter_File>
/export/apps/rDock/src/rDock_2013.1_src/data/scripts/dock_solv.prm

>  <Rbt.Receptor>
prm/blind_docking_40.prm

>  <SCORE>
-11.4633

>  <SCORE.INTER>
-0.299662

>  <SCORE.INTER.CONST>
1

>  <SCORE.INTER.POLAR>
0

>  <SCORE.INTER.ROT>
11

>  <SCORE.INTER.SOLV>
13.187

>  <SCORE.INTER.VDW>
-15.5288

>  <SCORE.INTER.norm>
-0.0214044

>  <SCORE.INTRA>
-11.1637

>  <SCORE.INTRA.DIHEDRAL>
-23.6818

>  <SCORE.INTRA.DIHEDRAL.0>
25.9209

>  <SCORE.INTRA.POLAR>
0

>  <SCORE.INTRA.POLAR.0>
0

>  <SCORE.INTRA.REPUL>
0

>  <SCORE.INTRA.REPUL.0>
0

>  <SCORE.INTRA.SOLV>
-0.224441

>  <SCORE.INTRA.SOLV.lig_0>
-47.4815

>  <SCORE.INTRA.VDW>
0.789461

>  <SCORE.INTRA.VDW.0>
-1.57492

>  <SCORE.INTRA.norm>
-0.797405

>  <SCORE.RESTR>
0

>  <SCORE.RESTR.CAVITY>
0

>  <SCORE.RESTR.norm>
0

>  <SCORE.SYSTEM>
0

>  <SCORE.SYSTEM.CONST>
0

>  <SCORE.SYSTEM.DIHEDRAL>
0

>  <SCORE.SYSTEM.SOLV>
0

>  <SCORE.SYSTEM.norm>
0

>  <SCORE.heavy>
14

>  <SCORE.norm>
-0.81881

>  <RMSD>
43.041

$$$$
ligand
 OpenBabel11021811493D
libRbt.so/2013.1/901 2013/11/27
 14 13  0  0  0  0  0  0  0  0999 V2000
   33.5181   -1.2171   37.3368 N   0  0  0  0  0  0  0  0  0  0  0  0
   34.4025   -0.4333   36.4831 C   0  0  0  0  0  0  0  0  0  0  0  0
   35.0584    0.7163   37.2774 C   0  0  0  0  0  0  0  0  0  0  0  0
   35.9463    1.6539   36.4353 C   0  0  0  0  0  0  0  0  0  0  0  0
   36.5639    2.8089   37.1042 N   0  0  0  0  0  0  0  0  0  0  0  0
   37.8342    2.6745   37.8259 C   0  0  0  0  0  0  0  0  0  0  0  0
   38.3882    3.9751   38.4149 C   0  0  0  0  0  0  0  0  0  0  0  0
   39.7995    3.8096   39.0038 C   0  0  0  0  0  0  0  0  0  0  0  0
   40.3746    5.0970   39.6158 C   0  0  0  0  0  0  0  0  0  0  0  0
   41.7325    4.9680   40.1496 N   0  0  0  0  0  0  0  0  0  0  0  0
   42.1917    5.9048   41.1898 C   0  0  0  0  0  0  0  0  0  0  0  0
   42.2471    7.4030   40.8079 C   0  0  0  0  0  0  0  0  0  0  0  0
   42.6355    8.3716   41.9432 C   0  0  0  0  0  0  0  0  0  0  0  0
   42.6878    9.7655   41.5121 N   0  0  0  0  0  0  0  0  0  0  0  0
  1  2  1  0  0  0  0
  2  3  1  0  0  0  0
  3  4  1  0  0  0  0
  4  5  1  0  0  0  0
  5  6  1  0  0  0  0
  6  7  1  0  0  0  0
  7  8  1  0  0  0  0
  8  9  1  0  0  0  0
  9 10  1  0  0  0  0
 10 11  1  0  0  0  0
 11 12  1  0  0  0  0
 12 13  1  0  0  0  0
 13 14  1  0  0  0  0
M  END
>  <CHROM.1>
-176.44456789,177.48284055,84.79844102,177.22721844,-172.79507254,-179.38556690
-178.42940714,-156.36347822,-62.07420019,175.86404625,179.17533216,38.81294064
3.96409132,38.93565227,-2.49008332,-0.58721186,-0.10061246

>  <Name>
ligand

>  <RI>
0

>  <Rbt.Current_Directory>
/home/itssahil/PROJECTS/Mol_Feturizer/New_Systems/rnas/4E8Q

>  <Rbt.Executable>
rbdock ($Id: //depot/dev/client3/rdock/2013.1/src/exe/rbdock.cxx#4 $)

>  <Rbt.Library>
libRbt.so (2013.1, Build901 2013/11/27)

>  <Rbt.Parameter_File>
/export/apps/rDock/src/rDock_2013.1_src/data/scripts/dock_solv.prm

>  <Rbt.Receptor>
prm/blind_docking_100.prm

>  <SCORE>
-14.3168

>  <SCORE.INTER>
-1.60465

>  <SCORE.INTER.CONST>
1

>  <SCORE.INTER.POLAR>
0

>  <SCORE.INTER.ROT>
11

>  <SCORE.INTER.SOLV>
15.8107

>  <SCORE.INTER.VDW>
-17.2733

>  <SCORE.INTER.norm>
-0.114618

>  <SCORE.INTRA>
-12.7121

>  <SCORE.INTRA.DIHEDRAL>
-24.725

>  <SCORE.INTRA.DIHEDRAL.0>
25.9209

>  <SCORE.INTRA.POLAR>
0

>  <SCORE.INTRA.POLAR.0>
0

>  <SCORE.INTRA.REPUL>
0

>  <SCORE.INTRA.REPUL.0>
0

>  <SCORE.INTRA.SOLV>
-2.11174

>  <SCORE.INTRA.SOLV.lig_0>
-47.4815

>  <SCORE.INTRA.VDW>
0.706259

>  <SCORE.INTRA.VDW.0>
-1.57492

>  <SCORE.INTRA.norm>
-0.90801

>  <SCORE.RESTR>
0

>  <SCORE.RESTR.CAVITY>
0

>  <SCORE.RESTR.norm>
0

>  <SCORE.SYSTEM>
0

>  <SCORE.SYSTEM.CONST>
0

>  <SCORE.SYSTEM.DIHEDRAL>
0

>  <SCORE.SYSTEM.SOLV>
0

>  <SCORE.SYSTEM.norm>
0

>  <SCORE.heavy>
14

>  <SCORE.norm>
-1.02263

>  <RMSD>
43.127

$$$$
ligand
 OpenBabel11021811493D
libRbt.so/2013.1/901 2013/11/27
 14 13  0  0  0  0  0  0  0  0999 V2000
   12.4535    5.3941   17.5140 N   0  0  0  0  0  0  0  0  0  0  0  0
   11.6344    6.3435   16.7703 C   0  0  0  0  0  0  0  0  0  0  0  0
   12.4227    7.6370   16.4736 C   0  0  0  0  0  0  0  0  0  0  0  0
   11.6272    8.7124   15.7072 C   0  0  0  0  0  0  0  0  0  0  0  0
   12.3454    9.9122   15.2518 N   0  0  0  0  0  0  0  0  0  0  0  0
   12.5197   11.0703   16.1355 C   0  0  0  0  0  0  0  0  0  0  0  0
   12.1154   12.4174   15.5296 C   0  0  0  0  0  0  0  0  0  0  0  0
   12.9497   12.7893   14.2921 C   0  0  0  0  0  0  0  0  0  0  0  0
   14.4511   12.9522   14.5784 C   0  0  0  0  0  0  0  0  0  0  0  0
   15.2626   13.3044   13.4110 N   0  0  0  0  0  0  0  0  0  0  0  0
   16.7034   12.9969   13.4135 C   0  0  0  0  0  0  0  0  0  0  0  0
   17.1026   11.5113   13.2488 C   0  0  0  0  0  0  0  0  0  0  0  0
   16.6873   10.8474   11.9204 C   0  0  0  0  0  0  0  0  0  0  0  0
   16.9972    9.4215   11.8728 N   0  0  0  0  0  0  0  0  0  0  0  0
  1  2  1  0  0  0  0
  2  3  1  0  0  0  0
  3  4  1  0  0  0  0
  4  5  1  0  0  0  0
  5  6  1  0  0  0  0
  6  7  1  0  0  0  0
  7  8  1  0  0  0  0
  8  9  1  0  0  0  0
  9 10  1  0  0  0  0
 10 11  1  0  0  0  0
 11 12  1  0  0  0  0
 12 13  1  0  0  0  0
 13 14  1  0  0  0  0
M  END
>  <CHROM.1>
-179.07496458,-173.25595023,-85.98412833,-129.39085415,-61.83042900,-61.99065466
179.91132703,-156.93407042,73.16597987,62.37543534,-175.34856281,13.94787826
10.37962411,14.72287112,-2.31294151,0.60634248,-0.14771591

>  <Name>
ligand

>  <RI>
0

>  <Rbt.Current_Directory>
/home/itssahil/PROJECTS/Mol_Feturizer/New_Systems/rnas/4E8Q

>  <Rbt.Executable>
rbdock ($Id: //depot/dev/client3/rdock/2013.1/src/exe/rbdock.cxx#4 $)

>  <Rbt.Library>
libRbt.so (2013.1, Build901 2013/11/27)

>  <Rbt.Parameter_File>
/export/apps/rDock/src/rDock_2013.1_src/data/scripts/dock_solv.prm

>  <Rbt.Receptor>
prm/blind_docking_40.prm

>  <SCORE>
-12.8126

>  <SCORE.INTER>
-1.35279

>  <SCORE.INTER.CONST>
1

>  <SCORE.INTER.POLAR>
0

>  <SCORE.INTER.ROT>
11

>  <SCORE.INTER.SOLV>
13.9534

>  <SCORE.INTER.VDW>
-16.4863

>  <SCORE.INTER.norm>
-0.0966281

>  <SCORE.INTRA>
-11.4672

>  <SCORE.INTRA.DIHEDRAL>
-23.4877

>  <SCORE.INTRA.DIHEDRAL.0>
25.9209

>  <SCORE.INTRA.POLAR>
0

>  <SCORE.INTRA.POLAR.0>
0

>  <SCORE.INTRA.REPUL>
0

>  <SCORE.INTRA.REPUL.0>
0

>  <SCORE.INTRA.SOLV>
-1.09221

>  <SCORE.INTRA.SOLV.lig_0>
-47.4815

>  <SCORE.INTRA.VDW>
0.822723

>  <SCORE.INTRA.VDW.0>
-1.57492

>  <SCORE.INTRA.norm>
-0.819088

>  <SCORE.RESTR>
0.0073857

>  <SCORE.RESTR.CAVITY>
0.0073857

>  <SCORE.RESTR.norm>
0.00052755

>  <SCORE.SYSTEM>
0

>  <SCORE.SYSTEM.CONST>
0

>  <SCORE.SYSTEM.DIHEDRAL>
0

>  <SCORE.SYSTEM.SOLV>
0

>  <SCORE.SYSTEM.norm>
0

>  <SCORE.heavy>
14

>  <SCORE.norm>
-0.915188

>  <RMSD>
43.677

$$$$
ligand
 OpenBabel11021811493D
libRbt.so/2013.1/901 2013/11/27
 14 13  0  0  0  0  0  0  0  0999 V2000
   16.7392   10.3987   12.2939 N   0  0  0  0  0  0  0  0  0  0  0  0
   16.0896   11.1799   13.3393 C   0  0  0  0  0  0  0  0  0  0  0  0
   15.8751   12.6390   12.8836 C   0  0  0  0  0  0  0  0  0  0  0  0
   15.2709   13.5651   13.9579 C   0  0  0  0  0  0  0  0  0  0  0  0
   13.8999   13.2933   14.4153 N   0  0  0  0  0  0  0  0  0  0  0  0
   13.6112   12.1705   15.3144 C   0  0  0  0  0  0  0  0  0  0  0  0
   12.1530   12.0596   15.7689 C   0  0  0  0  0  0  0  0  0  0  0  0
   11.8616   10.7521   16.5249 C   0  0  0  0  0  0  0  0  0  0  0  0
   11.9910    9.4890   15.6586 C   0  0  0  0  0  0  0  0  0  0  0  0
   11.4987    8.2615   16.2882 N   0  0  0  0  0  0  0  0  0  0  0  0
   12.4621    7.2304   16.7117 C   0  0  0  0  0  0  0  0  0  0  0  0
   11.8773    5.8856   17.2043 C   0  0  0  0  0  0  0  0  0  0  0  0
   11.0055    5.1199   16.1885 C   0  0  0  0  0  0  0  0  0  0  0  0
   10.4178    3.9036   16.7424 N   0  0  0  0  0  0  0  0  0  0  0  0
  1  2  1  0  0  0  0
  2  3  1  0  0  0  0
  3  4  1  0  0  0  0
  4  5  1  0  0  0  0
  5  6  1  0  0  0  0
  6  7  1  0  0  0  0
  7  8  1  0  0  0  0
  8  9  1  0  0  0  0
  9 10  1  0  0  0  0
 10 11  1  0  0  0  0
 11 12  1  0  0  0  0
 12 13  1  0  0  0  0
 13 14  1  0  0  0  0
M  END
>  <CHROM.1>
-176.43435604,-65.44491473,74.77975731,176.65762883,171.04907830,-65.81438024
-169.99128813,-109.40955197,-172.49591874,59.39227747,-176.40620604,13.19666794
9.71088902,15.23525163,-0.92203029,-0.66097419,-3.12257858

>  <Name>
ligand

>  <RI>
0

>  <Rbt.Current_Directory>
/home/itssahil/PROJECTS/Mol_Feturizer/New_Systems/rnas/4E8Q

>  <Rbt.Executable>
rbdock ($Id: //depot/dev/client3/rdock/2013.1/src/exe/rbdock.cxx#4 $)

>  <Rbt.Library>
libRbt.so (2013.1, Build901 2013/11/27)

>  <Rbt.Parameter_File>
/export/apps/rDock/src/rDock_2013.1_src/data/scripts/dock_solv.prm

>  <Rbt.Receptor>
prm/blind_docking_100.prm

>  <SCORE>
-14.717

>  <SCORE.INTER>
-3.01285

>  <SCORE.INTER.CONST>
1

>  <SCORE.INTER.POLAR>
0

>  <SCORE.INTER.ROT>
11

>  <SCORE.INTER.SOLV>
13.9051

>  <SCORE.INTER.VDW>
-17.5769

>  <SCORE.INTER.norm>
-0.215203

>  <SCORE.INTRA>
-11.7055

>  <SCORE.INTRA.DIHEDRAL>
-23.5668

>  <SCORE.INTRA.DIHEDRAL.0>
25.9209

>  <SCORE.INTRA.POLAR>
0

>  <SCORE.INTRA.POLAR.0>
0

>  <SCORE.INTRA.REPUL>
0

>  <SCORE.INTRA.REPUL.0>
0

>  <SCORE.INTRA.SOLV>
-1.34321

>  <SCORE.INTRA.SOLV.lig_0>
-47.4815

>  <SCORE.INTRA.VDW>
0.749559

>  <SCORE.INTRA.VDW.0>
-1.57492

>  <SCORE.INTRA.norm>
-0.836105

>  <SCORE.RESTR>
0.00130109

>  <SCORE.RESTR.CAVITY>
0.00130109

>  <SCORE.RESTR.norm>
9.29347e-05

>  <SCORE.SYSTEM>
0

>  <SCORE.SYSTEM.CONST>
0

>  <SCORE.SYSTEM.DIHEDRAL>
0

>  <SCORE.SYSTEM.SOLV>
0

>  <SCORE.SYSTEM.norm>
0

>  <SCORE.heavy>
14

>  <SCORE.norm>
-1.05122

>  <RMSD>
44.448

$$$$
ligand
 OpenBabel11021811493D
libRbt.so/2013.1/901 2013/11/27
 14 13  0  0  0  0  0  0  0  0999 V2000
   18.9627   14.0792   15.9985 N   0  0  0  0  0  0  0  0  0  0  0  0
   17.9556   13.0866   16.3531 C   0  0  0  0  0  0  0  0  0  0  0  0
   16.7203   13.7584   16.9897 C   0  0  0  0  0  0  0  0  0  0  0  0
   15.5755   12.7899   17.3476 C   0  0  0  0  0  0  0  0  0  0  0  0
   14.9397   12.0357   16.2569 N   0  0  0  0  0  0  0  0  0  0  0  0
   13.8109   12.5975   15.5068 C   0  0  0  0  0  0  0  0  0  0  0  0
   12.5202   12.7767   16.3114 C   0  0  0  0  0  0  0  0  0  0  0  0
   12.0848   11.4909   17.0346 C   0  0  0  0  0  0  0  0  0  0  0  0
   11.7737   10.3191   16.0898 C   0  0  0  0  0  0  0  0  0  0  0  0
   11.5190    9.0423   16.7608 N   0  0  0  0  0  0  0  0  0  0  0  0
   11.2316    7.8455   15.9511 C   0  0  0  0  0  0  0  0  0  0  0  0
   11.2631    6.4818   16.6811 C   0  0  0  0  0  0  0  0  0  0  0  0
   10.8685    5.2563   15.8324 C   0  0  0  0  0  0  0  0  0  0  0  0
   10.8935    4.0067   16.5870 N   0  0  0  0  0  0  0  0  0  0  0  0
  1  2  1  0  0  0  0
  2  3  1  0  0  0  0
  3  4  1  0  0  0  0
  4  5  1  0  0  0  0
  5  6  1  0  0  0  0
  6  7  1  0  0  0  0
  7  8  1  0  0  0  0
  8  9  1  0  0  0  0
  9 10  1  0  0  0  0
 10 11  1  0  0  0  0
 11 12  1  0  0  0  0
 12 13  1  0  0  0  0
 13 14  1  0  0  0  0
M  END
>  <CHROM.1>
177.69542709,-61.76321502,-87.66927740,-66.91780374,-52.55918143,-61.74348621
172.77988287,-179.01907311,167.60973222,176.14169039,-178.86036950,13.57972612
10.39786602,16.40720187,-0.89711795,-0.00404668,-3.12283392

>  <Name>
ligand

>  <RI>
0

>  <Rbt.Current_Directory>
/home/itssahil/PROJECTS/Mol_Feturizer/New_Systems/rnas/4E8Q

>  <Rbt.Executable>
rbdock ($Id: //depot/dev/client3/rdock/2013.1/src/exe/rbdock.cxx#4 $)

>  <Rbt.Library>
libRbt.so (2013.1, Build901 2013/11/27)

>  <Rbt.Parameter_File>
/export/apps/rDock/src/rDock_2013.1_src/data/scripts/dock_solv.prm

>  <Rbt.Receptor>
prm/blind_docking_40.prm

>  <SCORE>
-18.2768

>  <SCORE.INTER>
-6.43002

>  <SCORE.INTER.CONST>
1

>  <SCORE.INTER.POLAR>
0

>  <SCORE.INTER.ROT>
11

>  <SCORE.INTER.SOLV>
15.4916

>  <SCORE.INTER.VDW>
-20.3839

>  <SCORE.INTER.norm>
-0.459287

>  <SCORE.INTRA>
-11.8468

>  <SCORE.INTRA.DIHEDRAL>
-24.725

>  <SCORE.INTRA.DIHEDRAL.0>
25.9209

>  <SCORE.INTRA.POLAR>
0

>  <SCORE.INTRA.POLAR.0>
0

>  <SCORE.INTRA.REPUL>
0

>  <SCORE.INTRA.REPUL.0>
0

>  <SCORE.INTRA.SOLV>
-1.00829

>  <SCORE.INTRA.SOLV.lig_0>
-47.4815

>  <SCORE.INTRA.VDW>
1.01987

>  <SCORE.INTRA.VDW.0>
-1.57492

>  <SCORE.INTRA.norm>
-0.846198

>  <SCORE.RESTR>
0

>  <SCORE.RESTR.CAVITY>
0

>  <SCORE.RESTR.norm>
0

>  <SCORE.SYSTEM>
0

>  <SCORE.SYSTEM.CONST>
0

>  <SCORE.SYSTEM.DIHEDRAL>
0

>  <SCORE.SYSTEM.SOLV>
0

>  <SCORE.SYSTEM.norm>
0

>  <SCORE.heavy>
14

>  <SCORE.norm>
-1.30549

>  <RMSD>
44.570

$$$$
ligand
 OpenBabel11021811493D
libRbt.so/2013.1/901 2013/11/27
 14 13  0  0  0  0  0  0  0  0999 V2000
   22.0134   19.0927   24.4030 N   0  0  0  0  0  0  0  0  0  0  0  0
   22.3862   19.7760   25.6356 C   0  0  0  0  0  0  0  0  0  0  0  0
   23.8359   20.3004   25.5578 C   0  0  0  0  0  0  0  0  0  0  0  0
   24.0841   21.3400   24.4468 C   0  0  0  0  0  0  0  0  0  0  0  0
   25.4449   21.8754   24.2905 N   0  0  0  0  0  0  0  0  0  0  0  0
   25.8051   22.6985   23.1307 C   0  0  0  0  0  0  0  0  0  0  0  0
   25.1123   24.0626   23.0610 C   0  0  0  0  0  0  0  0  0  0  0  0
   25.2195   24.7157   21.6726 C   0  0  0  0  0  0  0  0  0  0  0  0
   24.4484   26.0393   21.5450 C   0  0  0  0  0  0  0  0  0  0  0  0
   24.9749   27.1360   22.3608 N   0  0  0  0  0  0  0  0  0  0  0  0
   24.5506   28.5174   22.0743 C   0  0  0  0  0  0  0  0  0  0  0  0
   25.6462   29.6090   22.1135 C   0  0  0  0  0  0  0  0  0  0  0  0
   25.2258   31.0014   21.6011 C   0  0  0  0  0  0  0  0  0  0  0  0
   24.1803   31.6173   22.4130 N   0  0  0  0  0  0  0  0  0  0  0  0
  1  2  1  0  0  0  0
  2  3  1  0  0  0  0
  3  4  1  0  0  0  0
  4  5  1  0  0  0  0
  5  6  1  0  0  0  0
  6  7  1  0  0  0  0
  7  8  1  0  0  0  0
  8  9  1  0  0  0  0
  9 10  1  0  0  0  0
 10 11  1  0  0  0  0
 11 12  1  0  0  0  0
 12 13  1  0  0  0  0
 13 14  1  0  0  0  0
M  END
>  <CHROM.1>
61.84695980,-179.06104305,170.15374301,66.58369791,-164.52891654,175.88972289
66.62763051,164.52817158,-137.72316027,170.92964939,63.78811291,24.49497345
24.84150678,23.16460825,1.73607896,-0.51588948,2.93761626

>  <Name>
ligand

>  <RI>
0

>  <Rbt.Current_Directory>
/home/itssahil/PROJECTS/Mol_Feturizer/New_Systems/rnas/4E8Q

>  <Rbt.Executable>
rbdock ($Id: //depot/dev/client3/rdock/2013.1/src/exe/rbdock.cxx#4 $)

>  <Rbt.Library>
libRbt.so (2013.1, Build901 2013/11/27)

>  <Rbt.Parameter_File>
/export/apps/rDock/src/rDock_2013.1_src/data/scripts/dock_solv.prm

>  <Rbt.Receptor>
prm/blind_docking_100.prm

>  <SCORE>
-16.3062

>  <SCORE.INTER>
-5.11721

>  <SCORE.INTER.CONST>
1

>  <SCORE.INTER.POLAR>
0

>  <SCORE.INTER.ROT>
11

>  <SCORE.INTER.SOLV>
16.4861

>  <SCORE.INTER.VDW>
-19.8402

>  <SCORE.INTER.norm>
-0.365515

>  <SCORE.INTRA>
-11.189

>  <SCORE.INTRA.DIHEDRAL>
-23.1936

>  <SCORE.INTRA.DIHEDRAL.0>
25.9209

>  <SCORE.INTRA.POLAR>
0

>  <SCORE.INTRA.POLAR.0>
0

>  <SCORE.INTRA.REPUL>
0

>  <SCORE.INTRA.REPUL.0>
0

>  <SCORE.INTRA.SOLV>
-0.442983

>  <SCORE.INTRA.SOLV.lig_0>
-47.4815

>  <SCORE.INTRA.VDW>
0.629285

>  <SCORE.INTRA.VDW.0>
-1.57492

>  <SCORE.INTRA.norm>
-0.799214

>  <SCORE.RESTR>
0

>  <SCORE.RESTR.CAVITY>
0

>  <SCORE.RESTR.norm>
0

>  <SCORE.SYSTEM>
0

>  <SCORE.SYSTEM.CONST>
0

>  <SCORE.SYSTEM.DIHEDRAL>
0

>  <SCORE.SYSTEM.SOLV>
0

>  <SCORE.SYSTEM.norm>
0

>  <SCORE.heavy>
14

>  <SCORE.norm>
-1.16473

>  <RMSD>
44.601

$$$$
ligand
 OpenBabel11021811493D
libRbt.so/2013.1/901 2013/11/27
 14 13  0  0  0  0  0  0  0  0999 V2000
   18.9371   14.4187   16.3132 N   0  0  0  0  0  0  0  0  0  0  0  0
   17.4899   14.3436   16.1544 C   0  0  0  0  0  0  0  0  0  0  0  0
   17.1063   13.2915   15.0921 C   0  0  0  0  0  0  0  0  0  0  0  0
   15.5978   13.2097   14.7846 C   0  0  0  0  0  0  0  0  0  0  0  0
   14.6874   12.8356   15.8773 N   0  0  0  0  0  0  0  0  0  0  0  0
   13.5189   11.9836   15.6297 C   0  0  0  0  0  0  0  0  0  0  0  0
   12.6068   11.7631   16.8400 C   0  0  0  0  0  0  0  0  0  0  0  0
   11.5068   10.7209   16.5759 C   0  0  0  0  0  0  0  0  0  0  0  0
   12.0395    9.2990   16.3369 C   0  0  0  0  0  0  0  0  0  0  0  0
   11.0042    8.2716   16.2025 N   0  0  0  0  0  0  0  0  0  0  0  0
   11.3802    6.8504   16.2992 C   0  0  0  0  0  0  0  0  0  0  0  0
   10.2271    5.8294   16.4458 C   0  0  0  0  0  0  0  0  0  0  0  0
   10.6518    4.3670   16.6890 C   0  0  0  0  0  0  0  0  0  0  0  0
    9.5239    3.4838   16.9706 N   0  0  0  0  0  0  0  0  0  0  0  0
  1  2  1  0  0  0  0
  2  3  1  0  0  0  0
  3  4  1  0  0  0  0
  4  5  1  0  0  0  0
  5  6  1  0  0  0  0
  6  7  1  0  0  0  0
  7  8  1  0  0  0  0
  8  9  1  0  0  0  0
  9 10  1  0  0  0  0
 10 11  1  0  0  0  0
 11 12  1  0  0  0  0
 12 13  1  0  0  0  0
 13 14  1  0  0  0  0
M  END
>  <CHROM.1>
-175.97044068,-61.68485453,-142.65328364,-175.69435746,-172.48047394,65.20609042
174.79483278,-165.24011487,167.61453043,-174.00354395,173.38191840,13.30545525
10.04783262,16.15788631,-0.90905134,-0.06014636,3.08511240

>  <Name>
ligand

>  <RI>
0

>  <Rbt.Current_Directory>
/home/itssahil/PROJECTS/Mol_Feturizer/New_Systems/rnas/4E8Q

>  <Rbt.Executable>
rbdock ($Id: //depot/dev/client3/rdock/2013.1/src/exe/rbdock.cxx#4 $)

>  <Rbt.Library>
libRbt.so (2013.1, Build901 2013/11/27)

>  <Rbt.Parameter_File>
/export/apps/rDock/src/rDock_2013.1_src/data/scripts/dock_solv.prm

>  <Rbt.Receptor>
prm/blind_docking_40.prm

>  <SCORE>
-15.1365

>  <SCORE.INTER>
-3.02416

>  <SCORE.INTER.CONST>
1

>  <SCORE.INTER.POLAR>
0

>  <SCORE.INTER.ROT>
11

>  <SCORE.INTER.SOLV>
14.3786

>  <SCORE.INTER.VDW>
-17.7423

>  <SCORE.INTER.norm>
-0.216012

>  <SCORE.INTRA>
-12.1123

>  <SCORE.INTRA.DIHEDRAL>
-23.9914

>  <SCORE.INTRA.DIHEDRAL.0>
25.9209

>  <SCORE.INTRA.POLAR>
0

>  <SCORE.INTRA.POLAR.0>
0

>  <SCORE.INTRA.REPUL>
0

>  <SCORE.INTRA.REPUL.0>
0

>  <SCORE.INTRA.SOLV>
-1.65383

>  <SCORE.INTRA.SOLV.lig_0>
-47.4815

>  <SCORE.INTRA.VDW>
0.710266

>  <SCORE.INTRA.VDW.0>
-1.57492

>  <SCORE.INTRA.norm>
-0.865167

>  <SCORE.RESTR>
0

>  <SCORE.RESTR.CAVITY>
0

>  <SCORE.RESTR.norm>
0

>  <SCORE.SYSTEM>
0

>  <SCORE.SYSTEM.CONST>
0

>  <SCORE.SYSTEM.DIHEDRAL>
0

>  <SCORE.SYSTEM.SOLV>
0

>  <SCORE.SYSTEM.norm>
0

>  <SCORE.heavy>
14

>  <SCORE.norm>
-1.08118

>  <RMSD>
44.719

$$$$
ligand
 OpenBabel11021811493D
libRbt.so/2013.1/901 2013/11/27
 14 13  0  0  0  0  0  0  0  0999 V2000
   26.8745   -0.0939   37.6386 N   0  0  0  0  0  0  0  0  0  0  0  0
   26.7369    1.2428   37.0734 C   0  0  0  0  0  0  0  0  0  0  0  0
   25.5964    2.0189   37.7660 C   0  0  0  0  0  0  0  0  0  0  0  0
   25.3792    3.4501   37.2359 C   0  0  0  0  0  0  0  0  0  0  0  0
   25.0582    3.6198   35.8107 N   0  0  0  0  0  0  0  0  0  0  0  0
   25.1262    4.9389   35.1721 C   0  0  0  0  0  0  0  0  0  0  0  0
   25.5265    4.9259   33.6939 C   0  0  0  0  0  0  0  0  0  0  0  0
   25.5423    6.3308   33.0679 C   0  0  0  0  0  0  0  0  0  0  0  0
   26.0253    6.3579   31.6090 C   0  0  0  0  0  0  0  0  0  0  0  0
   25.0729    5.8139   30.6382 N   0  0  0  0  0  0  0  0  0  0  0  0
   24.9001    4.3544   30.5357 C   0  0  0  0  0  0  0  0  0  0  0  0
   23.7021    3.7360   31.2946 C   0  0  0  0  0  0  0  0  0  0  0  0
   23.6106    2.1969   31.2654 C   0  0  0  0  0  0  0  0  0  0  0  0
   22.4264    1.6819   31.9464 N   0  0  0  0  0  0  0  0  0  0  0  0
  1  2  1  0  0  0  0
  2  3  1  0  0  0  0
  3  4  1  0  0  0  0
  4  5  1  0  0  0  0
  5  6  1  0  0  0  0
  6  7  1  0  0  0  0
  7  8  1  0  0  0  0
  8  9  1  0  0  0  0
  9 10  1  0  0  0  0
 10 11  1  0  0  0  0
 11 12  1  0  0  0  0
 12 13  1  0  0  0  0
 13 14  1  0  0  0  0
M  END
>  <CHROM.1>
179.78659757,59.10033867,-166.51623765,148.06811407,178.36922248,176.38616080
72.78238558,-75.86820607,97.75948556,-175.20822542,-177.34367093,25.11279771
3.61280246,33.91051480,-1.12939378,-1.06094837,-0.71155387

>  <Name>
ligand

>  <RI>
0

>  <Rbt.Current_Directory>
/home/itssahil/PROJECTS/Mol_Feturizer/New_Systems/rnas/4E8Q

>  <Rbt.Executable>
rbdock ($Id: //depot/dev/client3/rdock/2013.1/src/exe/rbdock.cxx#4 $)

>  <Rbt.Library>
libRbt.so (2013.1, Build901 2013/11/27)

>  <Rbt.Parameter_File>
/export/apps/rDock/src/rDock_2013.1_src/data/scripts/dock_solv.prm

>  <Rbt.Receptor>
prm/blind_docking_80.prm

>  <SCORE>
-13.564

>  <SCORE.INTER>
-1.56084

>  <SCORE.INTER.CONST>
1

>  <SCORE.INTER.POLAR>
0

>  <SCORE.INTER.ROT>
11

>  <SCORE.INTER.SOLV>
17.0489

>  <SCORE.INTER.VDW>
-17.6569

>  <SCORE.INTER.norm>
-0.111489

>  <SCORE.INTRA>
-12.0032

>  <SCORE.INTRA.DIHEDRAL>
-23.3079

>  <SCORE.INTRA.DIHEDRAL.0>
25.9209

>  <SCORE.INTRA.POLAR>
0

>  <SCORE.INTRA.POLAR.0>
0

>  <SCORE.INTRA.REPUL>
0

>  <SCORE.INTRA.REPUL.0>
0

>  <SCORE.INTRA.SOLV>
-1.52977

>  <SCORE.INTRA.SOLV.lig_0>
-47.4815

>  <SCORE.INTRA.VDW>
0.415665

>  <SCORE.INTRA.VDW.0>
-1.57492

>  <SCORE.INTRA.norm>
-0.85737

>  <SCORE.RESTR>
0

>  <SCORE.RESTR.CAVITY>
0

>  <SCORE.RESTR.norm>
0

>  <SCORE.SYSTEM>
0

>  <SCORE.SYSTEM.CONST>
0

>  <SCORE.SYSTEM.DIHEDRAL>
0

>  <SCORE.SYSTEM.SOLV>
0

>  <SCORE.SYSTEM.norm>
0

>  <SCORE.heavy>
14

>  <SCORE.norm>
-0.968859

>  <RMSD>
45.349

$$$$
ligand
 OpenBabel11021811493D
libRbt.so/2013.1/901 2013/11/27
 14 13  0  0  0  0  0  0  0  0999 V2000
   25.3601   11.5713   34.9990 N   0  0  0  0  0  0  0  0  0  0  0  0
   23.9594   11.6099   34.5968 C   0  0  0  0  0  0  0  0  0  0  0  0
   23.5423   10.2839   33.9257 C   0  0  0  0  0  0  0  0  0  0  0  0
   24.2850    9.9674   32.6123 C   0  0  0  0  0  0  0  0  0  0  0  0
   24.1383    8.6203   32.0408 N   0  0  0  0  0  0  0  0  0  0  0  0
   25.2505    7.6637   32.0641 C   0  0  0  0  0  0  0  0  0  0  0  0
   24.8407    6.1928   32.1818 C   0  0  0  0  0  0  0  0  0  0  0  0
   24.1699    5.8663   33.5269 C   0  0  0  0  0  0  0  0  0  0  0  0
   23.6829    4.4132   33.6442 C   0  0  0  0  0  0  0  0  0  0  0  0
   24.7468    3.4068   33.6212 N   0  0  0  0  0  0  0  0  0  0  0  0
   24.5728    2.1902   32.8086 C   0  0  0  0  0  0  0  0  0  0  0  0
   25.5353    1.0133   33.0949 C   0  0  0  0  0  0  0  0  0  0  0  0
   25.3963    0.3540   34.4820 C   0  0  0  0  0  0  0  0  0  0  0  0
   25.6741    1.2731   35.5818 N   0  0  0  0  0  0  0  0  0  0  0  0
  1  2  1  0  0  0  0
  2  3  1  0  0  0  0
  3  4  1  0  0  0  0
  4  5  1  0  0  0  0
  5  6  1  0  0  0  0
  6  7  1  0  0  0  0
  7  8  1  0  0  0  0
  8  9  1  0  0  0  0
  9 10  1  0  0  0  0
 10 11  1  0  0  0  0
 11 12  1  0  0  0  0
 12 13  1  0  0  0  0
 13 14  1  0  0  0  0
M  END
>  <CHROM.1>
-63.27066729,168.76623568,-108.73203580,147.96996943,-65.73310895,177.02071658
64.73726335,-136.15045495,-164.74367854,65.75390976,-61.78455465,24.65376809
6.03034932,33.51264246,-2.11338044,1.39714029,-2.63206690

>  <Name>
ligand

>  <RI>
0

>  <Rbt.Current_Directory>
/home/itssahil/PROJECTS/Mol_Feturizer/New_Systems/rnas/4E8Q

>  <Rbt.Executable>
rbdock ($Id: //depot/dev/client3/rdock/2013.1/src/exe/rbdock.cxx#4 $)

>  <Rbt.Library>
libRbt.so (2013.1, Build901 2013/11/27)

>  <Rbt.Parameter_File>
/export/apps/rDock/src/rDock_2013.1_src/data/scripts/dock_solv.prm

>  <Rbt.Receptor>
prm/blind_docking_80.prm

>  <SCORE>
-12.4259

>  <SCORE.INTER>
-2.38803

>  <SCORE.INTER.CONST>
1

>  <SCORE.INTER.POLAR>
0

>  <SCORE.INTER.ROT>
11

>  <SCORE.INTER.SOLV>
15.5184

>  <SCORE.INTER.VDW>
-17.6982

>  <SCORE.INTER.norm>
-0.170574

>  <SCORE.INTRA>
-10.0379

>  <SCORE.INTRA.DIHEDRAL>
-22.0936

>  <SCORE.INTRA.DIHEDRAL.0>
25.9209

>  <SCORE.INTRA.POLAR>
0

>  <SCORE.INTRA.POLAR.0>
0

>  <SCORE.INTRA.REPUL>
0

>  <SCORE.INTRA.REPUL.0>
0

>  <SCORE.INTRA.SOLV>
1.96427

>  <SCORE.INTRA.SOLV.lig_0>
-47.4815

>  <SCORE.INTRA.VDW>
0.0267864

>  <SCORE.INTRA.VDW.0>
-1.57492

>  <SCORE.INTRA.norm>
-0.716993

>  <SCORE.RESTR>
0

>  <SCORE.RESTR.CAVITY>
0

>  <SCORE.RESTR.norm>
0

>  <SCORE.SYSTEM>
0

>  <SCORE.SYSTEM.CONST>
0

>  <SCORE.SYSTEM.DIHEDRAL>
0

>  <SCORE.SYSTEM.SOLV>
0

>  <SCORE.SYSTEM.norm>
0

>  <SCORE.heavy>
14

>  <SCORE.norm>
-0.887567

>  <RMSD>
45.765

$$$$
ligand
 OpenBabel11021811493D
libRbt.so/2013.1/901 2013/11/27
 14 13  0  0  0  0  0  0  0  0999 V2000
   21.9020   -1.7014   32.0005 N   0  0  0  0  0  0  0  0  0  0  0  0
   23.2798   -1.2782   32.2188 C   0  0  0  0  0  0  0  0  0  0  0  0
   23.4825   -0.7889   33.6687 C   0  0  0  0  0  0  0  0  0  0  0  0
   24.9015   -0.2729   33.9799 C   0  0  0  0  0  0  0  0  0  0  0  0
   25.2131    0.1034   35.3670 N   0  0  0  0  0  0  0  0  0  0  0  0
   26.5902    0.0600   35.8713 C   0  0  0  0  0  0  0  0  0  0  0  0
   26.7456    0.3607   37.3649 C   0  0  0  0  0  0  0  0  0  0  0  0
   26.7023    1.8661   37.6778 C   0  0  0  0  0  0  0  0  0  0  0  0
   25.3508    2.5289   37.3670 C   0  0  0  0  0  0  0  0  0  0  0  0
   25.1206    2.8149   35.9490 N   0  0  0  0  0  0  0  0  0  0  0  0
   25.5658    4.1035   35.3905 C   0  0  0  0  0  0  0  0  0  0  0  0
   24.9660    4.5202   34.0266 C   0  0  0  0  0  0  0  0  0  0  0  0
   25.4928    5.8446   33.4378 C   0  0  0  0  0  0  0  0  0  0  0  0
   24.8600    6.1980   32.1704 N   0  0  0  0  0  0  0  0  0  0  0  0
  1  2  1  0  0  0  0
  2  3  1  0  0  0  0
  3  4  1  0  0  0  0
  4  5  1  0  0  0  0
  5  6  1  0  0  0  0
  6  7  1  0  0  0  0
  7  8  1  0  0  0  0
  8  9  1  0  0  0  0
  9 10  1  0  0  0  0
 10 11  1  0  0  0  0
 11 12  1  0  0  0  0
 12 13  1  0  0  0  0
 13 14  1  0  0  0  0
M  END
>  <CHROM.1>
-177.93966224,-174.82474972,154.21204355,-174.89321762,-79.64052808,64.77744952
-78.10918642,-88.77694273,-163.46460884,-177.56911293,-178.38289434,25.01265883
1.73986171,34.74965511,2.18355832,1.01493393,2.81805763

>  <Name>
ligand

>  <RI>
0

>  <Rbt.Current_Directory>
/home/itssahil/PROJECTS/Mol_Feturizer/New_Systems/rnas/4E8Q

>  <Rbt.Executable>
rbdock ($Id: //depot/dev/client3/rdock/2013.1/src/exe/rbdock.cxx#4 $)

>  <Rbt.Library>
libRbt.so (2013.1, Build901 2013/11/27)

>  <Rbt.Parameter_File>
/export/apps/rDock/src/rDock_2013.1_src/data/scripts/dock_solv.prm

>  <Rbt.Receptor>
prm/blind_docking_100.prm

>  <SCORE>
-12.3184

>  <SCORE.INTER>
-2.08814

>  <SCORE.INTER.CONST>
1

>  <SCORE.INTER.POLAR>
0

>  <SCORE.INTER.ROT>
11

>  <SCORE.INTER.SOLV>
12.4237

>  <SCORE.INTER.VDW>
-16.4666

>  <SCORE.INTER.norm>
-0.149153

>  <SCORE.INTRA>
-10.2302

>  <SCORE.INTRA.DIHEDRAL>
-21.9281

>  <SCORE.INTRA.DIHEDRAL.0>
25.9209

>  <SCORE.INTRA.POLAR>
0

>  <SCORE.INTRA.POLAR.0>
0

>  <SCORE.INTRA.REPUL>
0

>  <SCORE.INTRA.REPUL.0>
0

>  <SCORE.INTRA.SOLV>
1.03809

>  <SCORE.INTRA.SOLV.lig_0>
-47.4815

>  <SCORE.INTRA.VDW>
0.214751

>  <SCORE.INTRA.VDW.0>
-1.57492

>  <SCORE.INTRA.norm>
-0.730732

>  <SCORE.RESTR>
0

>  <SCORE.RESTR.CAVITY>
0

>  <SCORE.RESTR.norm>
0

>  <SCORE.SYSTEM>
0

>  <SCORE.SYSTEM.CONST>
0

>  <SCORE.SYSTEM.DIHEDRAL>
0

>  <SCORE.SYSTEM.SOLV>
0

>  <SCORE.SYSTEM.norm>
0

>  <SCORE.heavy>
14

>  <SCORE.norm>
-0.879884

>  <RMSD>
46.260

$$$$
ligand
 OpenBabel11021811493D
libRbt.so/2013.1/901 2013/11/27
 14 13  0  0  0  0  0  0  0  0999 V2000
    7.5680    2.7219   19.6829 N   0  0  0  0  0  0  0  0  0  0  0  0
    7.6270    4.1777   19.6333 C   0  0  0  0  0  0  0  0  0  0  0  0
    8.0578    4.6641   18.2331 C   0  0  0  0  0  0  0  0  0  0  0  0
    9.4364    4.1514   17.7711 C   0  0  0  0  0  0  0  0  0  0  0  0
    9.9743    4.6598   16.5004 N   0  0  0  0  0  0  0  0  0  0  0  0
   10.3490    6.0702   16.3481 C   0  0  0  0  0  0  0  0  0  0  0  0
   11.8082    6.3949   16.6808 C   0  0  0  0  0  0  0  0  0  0  0  0
   12.0601    7.9028   16.8499 C   0  0  0  0  0  0  0  0  0  0  0  0
   11.7430    8.7324   15.5953 C   0  0  0  0  0  0  0  0  0  0  0  0
   11.8430   10.1822   15.7782 N   0  0  0  0  0  0  0  0  0  0  0  0
   13.1337   10.8525   15.5430 C   0  0  0  0  0  0  0  0  0  0  0  0
   13.6392   10.9058   14.0818 C   0  0  0  0  0  0  0  0  0  0  0  0
   15.0522   11.4898   13.8807 C   0  0  0  0  0  0  0  0  0  0  0  0
   15.4756   11.4928   12.4835 N   0  0  0  0  0  0  0  0  0  0  0  0
  1  2  1  0  0  0  0
  2  3  1  0  0  0  0
  3  4  1  0  0  0  0
  4  5  1  0  0  0  0
  5  6  1  0  0  0  0
  6  7  1  0  0  0  0
  7  8  1  0  0  0  0
  8  9  1  0  0  0  0
  9 10  1  0  0  0  0
 10 11  1  0  0  0  0
 11 12  1  0  0  0  0
 12 13  1  0  0  0  0
 13 14  1  0  0  0  0
M  END
>  <CHROM.1>
-59.23541251,-174.79625071,66.36619753,91.12915563,-165.54958882,-60.35768624
173.95467727,89.28473795,68.60788929,-174.30171904,179.13526614,11.26912987
7.45709779,16.36169656,2.53444025,-0.80803720,-2.90773533

>  <Name>
ligand

>  <RI>
0

>  <Rbt.Current_Directory>
/home/itssahil/PROJECTS/Mol_Feturizer/New_Systems/rnas/4E8Q

>  <Rbt.Executable>
rbdock ($Id: //depot/dev/client3/rdock/2013.1/src/exe/rbdock.cxx#4 $)

>  <Rbt.Library>
libRbt.so (2013.1, Build901 2013/11/27)

>  <Rbt.Parameter_File>
/export/apps/rDock/src/rDock_2013.1_src/data/scripts/dock_solv.prm

>  <Rbt.Receptor>
prm/blind_docking_40.prm

>  <SCORE>
-14.6895

>  <SCORE.INTER>
-3.71935

>  <SCORE.INTER.CONST>
1

>  <SCORE.INTER.POLAR>
0

>  <SCORE.INTER.ROT>
11

>  <SCORE.INTER.SOLV>
15.4795

>  <SCORE.INTER.VDW>
-18.5727

>  <SCORE.INTER.norm>
-0.265668

>  <SCORE.INTRA>
-10.9701

>  <SCORE.INTRA.DIHEDRAL>
-23.4955

>  <SCORE.INTRA.DIHEDRAL.0>
25.9209

>  <SCORE.INTRA.POLAR>
0

>  <SCORE.INTRA.POLAR.0>
0

>  <SCORE.INTRA.REPUL>
0

>  <SCORE.INTRA.REPUL.0>
0

>  <SCORE.INTRA.SOLV>
-1.21115

>  <SCORE.INTRA.SOLV.lig_0>
-47.4815

>  <SCORE.INTRA.VDW>
1.38318

>  <SCORE.INTRA.VDW.0>
-1.57492

>  <SCORE.INTRA.norm>
-0.783582

>  <SCORE.RESTR>
0

>  <SCORE.RESTR.CAVITY>
0

>  <SCORE.RESTR.norm>
0

>  <SCORE.SYSTEM>
0

>  <SCORE.SYSTEM.CONST>
0

>  <SCORE.SYSTEM.DIHEDRAL>
0

>  <SCORE.SYSTEM.SOLV>
0

>  <SCORE.SYSTEM.norm>
0

>  <SCORE.heavy>
14

>  <SCORE.norm>
-1.04925

>  <RMSD>
46.387

$$$$
ligand
 OpenBabel11021811493D
libRbt.so/2013.1/901 2013/11/27
 14 13  0  0  0  0  0  0  0  0999 V2000
   15.1484   10.0218   13.8382 N   0  0  0  0  0  0  0  0  0  0  0  0
   13.7043   10.2192   13.8100 C   0  0  0  0  0  0  0  0  0  0  0  0
   13.3518   11.6375   13.3134 C   0  0  0  0  0  0  0  0  0  0  0  0
   13.7063   12.7694   14.2982 C   0  0  0  0  0  0  0  0  0  0  0  0
   12.8284   12.9775   15.4596 N   0  0  0  0  0  0  0  0  0  0  0  0
   12.8246   12.0343   16.5834 C   0  0  0  0  0  0  0  0  0  0  0  0
   12.2186   12.5732   17.8826 C   0  0  0  0  0  0  0  0  0  0  0  0
   13.0298   13.7342   18.4825 C   0  0  0  0  0  0  0  0  0  0  0  0
   12.4099   14.3364   19.7536 C   0  0  0  0  0  0  0  0  0  0  0  0
   12.2593   13.3960   20.8664 N   0  0  0  0  0  0  0  0  0  0  0  0
   11.4729   13.7940   22.0469 C   0  0  0  0  0  0  0  0  0  0  0  0
   11.2433   12.7150   23.1316 C   0  0  0  0  0  0  0  0  0  0  0  0
   10.3887   13.1484   24.3399 C   0  0  0  0  0  0  0  0  0  0  0  0
   10.1588   12.0677   25.2942 N   0  0  0  0  0  0  0  0  0  0  0  0
  1  2  1  0  0  0  0
  2  3  1  0  0  0  0
  3  4  1  0  0  0  0
  4  5  1  0  0  0  0
  5  6  1  0  0  0  0
  6  7  1  0  0  0  0
  7  8  1  0  0  0  0
  8  9  1  0  0  0  0
  9 10  1  0  0  0  0
 10 11  1  0  0  0  0
 11 12  1  0  0  0  0
 12 13  1  0  0  0  0
 13 14  1  0  0  0  0
M  END
>  <CHROM.1>
-70.07408076,-76.73651492,72.59765191,161.80453360,-65.01658643,177.40259038
60.23603612,-169.60958952,174.65416018,-178.59051792,177.31770633,12.48173985
12.53050425,18.50702360,0.04224428,-1.27713967,3.01581945

>  <Name>
ligand

>  <RI>
0

>  <Rbt.Current_Directory>
/home/itssahil/PROJECTS/Mol_Feturizer/New_Systems/rnas/4E8Q

>  <Rbt.Executable>
rbdock ($Id: //depot/dev/client3/rdock/2013.1/src/exe/rbdock.cxx#4 $)

>  <Rbt.Library>
libRbt.so (2013.1, Build901 2013/11/27)

>  <Rbt.Parameter_File>
/export/apps/rDock/src/rDock_2013.1_src/data/scripts/dock_solv.prm

>  <Rbt.Receptor>
prm/blind_docking_40.prm

>  <SCORE>
-14.8509

>  <SCORE.INTER>
-3.41607

>  <SCORE.INTER.CONST>
1

>  <SCORE.INTER.POLAR>
0

>  <SCORE.INTER.ROT>
11

>  <SCORE.INTER.SOLV>
18.7118

>  <SCORE.INTER.VDW>
-19.448

>  <SCORE.INTER.norm>
-0.244005

>  <SCORE.INTRA>
-11.5079

>  <SCORE.INTRA.DIHEDRAL>
-23.9061

>  <SCORE.INTRA.DIHEDRAL.0>
25.9209

>  <SCORE.INTRA.POLAR>
0

>  <SCORE.INTRA.POLAR.0>
0

>  <SCORE.INTRA.REPUL>
0

>  <SCORE.INTRA.REPUL.0>
0

>  <SCORE.INTRA.SOLV>
0.211124

>  <SCORE.INTRA.SOLV.lig_0>
-47.4815

>  <SCORE.INTRA.VDW>
0.339562

>  <SCORE.INTRA.VDW.0>
-1.57492

>  <SCORE.INTRA.norm>
-0.821996

>  <SCORE.RESTR>
0.0731305

>  <SCORE.RESTR.CAVITY>
0.0731305

>  <SCORE.RESTR.norm>
0.00522361

>  <SCORE.SYSTEM>
0

>  <SCORE.SYSTEM.CONST>
0

>  <SCORE.SYSTEM.DIHEDRAL>
0

>  <SCORE.SYSTEM.SOLV>
0

>  <SCORE.SYSTEM.norm>
0

>  <SCORE.heavy>
14

>  <SCORE.norm>
-1.06078

>  <RMSD>
46.840

$$$$
ligand
 OpenBabel11021811493D
libRbt.so/2013.1/901 2013/11/27
 14 13  0  0  0  0  0  0  0  0999 V2000
   11.6494   26.0187   21.3518 N   0  0  0  0  0  0  0  0  0  0  0  0
   12.9293   26.5888   20.9493 C   0  0  0  0  0  0  0  0  0  0  0  0
   13.4817   25.8734   19.6981 C   0  0  0  0  0  0  0  0  0  0  0  0
   14.8602   26.3774   19.2262 C   0  0  0  0  0  0  0  0  0  0  0  0
   15.4769   25.7211   18.0636 N   0  0  0  0  0  0  0  0  0  0  0  0
   15.2072   26.1894   16.6996 C   0  0  0  0  0  0  0  0  0  0  0  0
   15.3867   25.1357   15.6028 C   0  0  0  0  0  0  0  0  0  0  0  0
   16.7977   24.5234   15.5892 C   0  0  0  0  0  0  0  0  0  0  0  0
   16.9828   23.4070   14.5490 C   0  0  0  0  0  0  0  0  0  0  0  0
   18.3136   22.7952   14.5372 N   0  0  0  0  0  0  0  0  0  0  0  0
   18.5599   21.6180   13.6864 C   0  0  0  0  0  0  0  0  0  0  0  0
   19.6273   20.6109   14.1761 C   0  0  0  0  0  0  0  0  0  0  0  0
   19.3684   19.9765   15.5577 C   0  0  0  0  0  0  0  0  0  0  0  0
   18.2312   19.0610   15.5619 N   0  0  0  0  0  0  0  0  0  0  0  0
  1  2  1  0  0  0  0
  2  3  1  0  0  0  0
  3  4  1  0  0  0  0
  4  5  1  0  0  0  0
  5  6  1  0  0  0  0
  6  7  1  0  0  0  0
  7  8  1  0  0  0  0
  8  9  1  0  0  0  0
  9 10  1  0  0  0  0
 10 11  1  0  0  0  0
 11 12  1  0  0  0  0
 12 13  1  0  0  0  0
 13 14  1  0  0  0  0
M  END
>  <CHROM.1>
-177.96736282,178.20944017,88.61715094,-155.05657725,-57.20029765,176.79069407
-178.96655931,173.31039994,-150.18371564,58.95414513,68.86277145,16.20527860
23.84993260,16.80325093,3.01714062,0.94179040,-0.63077234

>  <Name>
ligand

>  <RI>
0

>  <Rbt.Current_Directory>
/home/itssahil/PROJECTS/Mol_Feturizer/New_Systems/rnas/4E8Q

>  <Rbt.Executable>
rbdock ($Id: //depot/dev/client3/rdock/2013.1/src/exe/rbdock.cxx#4 $)

>  <Rbt.Library>
libRbt.so (2013.1, Build901 2013/11/27)

>  <Rbt.Parameter_File>
/export/apps/rDock/src/rDock_2013.1_src/data/scripts/dock_solv.prm

>  <Rbt.Receptor>
prm/blind_docking_40.prm

>  <SCORE>
-11.5298

>  <SCORE.INTER>
0.239197

>  <SCORE.INTER.CONST>
1

>  <SCORE.INTER.POLAR>
0

>  <SCORE.INTER.ROT>
11

>  <SCORE.INTER.SOLV>
13.7795

>  <SCORE.INTER.VDW>
-15.367

>  <SCORE.INTER.norm>
0.0170855

>  <SCORE.INTRA>
-11.769

>  <SCORE.INTRA.DIHEDRAL>
-23.8902

>  <SCORE.INTRA.DIHEDRAL.0>
25.9209

>  <SCORE.INTRA.POLAR>
0

>  <SCORE.INTRA.POLAR.0>
0

>  <SCORE.INTRA.REPUL>
0

>  <SCORE.INTRA.REPUL.0>
0

>  <SCORE.INTRA.SOLV>
-0.21327

>  <SCORE.INTRA.SOLV.lig_0>
-47.4815

>  <SCORE.INTRA.VDW>
0.282691

>  <SCORE.INTRA.VDW.0>
-1.57492

>  <SCORE.INTRA.norm>
-0.840645

>  <SCORE.RESTR>
0

>  <SCORE.RESTR.CAVITY>
0

>  <SCORE.RESTR.norm>
0

>  <SCORE.SYSTEM>
0

>  <SCORE.SYSTEM.CONST>
0

>  <SCORE.SYSTEM.DIHEDRAL>
0

>  <SCORE.SYSTEM.SOLV>
0

>  <SCORE.SYSTEM.norm>
0

>  <SCORE.heavy>
14

>  <SCORE.norm>
-0.823559

>  <RMSD>
47.054

$$$$
ligand
 OpenBabel11021811493D
libRbt.so/2013.1/901 2013/11/27
 14 13  0  0  0  0  0  0  0  0999 V2000
   23.2146    3.9572   28.9737 N   0  0  0  0  0  0  0  0  0  0  0  0
   24.0419    4.1366   30.1605 C   0  0  0  0  0  0  0  0  0  0  0  0
   23.8189    2.9873   31.1664 C   0  0  0  0  0  0  0  0  0  0  0  0
   24.5093    3.1846   32.5306 C   0  0  0  0  0  0  0  0  0  0  0  0
   24.3318    2.1435   33.5539 N   0  0  0  0  0  0  0  0  0  0  0  0
   25.1371    0.9173   33.5329 C   0  0  0  0  0  0  0  0  0  0  0  0
   24.4085   -0.3473   33.9969 C   0  0  0  0  0  0  0  0  0  0  0  0
   23.3768   -0.8508   32.9731 C   0  0  0  0  0  0  0  0  0  0  0  0
   22.4699   -1.9733   33.5023 C   0  0  0  0  0  0  0  0  0  0  0  0
   21.4594   -1.5394   34.4698 N   0  0  0  0  0  0  0  0  0  0  0  0
   21.7044   -1.7389   35.9088 C   0  0  0  0  0  0  0  0  0  0  0  0
   20.5301   -2.2948   36.7487 C   0  0  0  0  0  0  0  0  0  0  0  0
   20.8013   -2.4563   38.2582 C   0  0  0  0  0  0  0  0  0  0  0  0
   19.6718   -3.0305   38.9834 N   0  0  0  0  0  0  0  0  0  0  0  0
  1  2  1  0  0  0  0
  2  3  1  0  0  0  0
  3  4  1  0  0  0  0
  4  5  1  0  0  0  0
  5  6  1  0  0  0  0
  6  7  1  0  0  0  0
  7  8  1  0  0  0  0
  8  9  1  0  0  0  0
  9 10  1  0  0  0  0
 10 11  1  0  0  0  0
 11 12  1  0  0  0  0
 12 13  1  0  0  0  0
 13 14  1  0  0  0  0
M  END
>  <CHROM.1>
-172.34218500,179.16950065,81.12247577,-144.80030657,72.59406603,-170.42005345
72.94463111,-99.59948947,-135.45721199,-178.33955774,-177.87391914,22.81996657
0.22101766,33.91134228,1.16572754,-0.42272665,-1.01367234

>  <Name>
ligand

>  <RI>
0

>  <Rbt.Current_Directory>
/home/itssahil/PROJECTS/Mol_Feturizer/New_Systems/rnas/4E8Q

>  <Rbt.Executable>
rbdock ($Id: //depot/dev/client3/rdock/2013.1/src/exe/rbdock.cxx#4 $)

>  <Rbt.Library>
libRbt.so (2013.1, Build901 2013/11/27)

>  <Rbt.Parameter_File>
/export/apps/rDock/src/rDock_2013.1_src/data/scripts/dock_solv.prm

>  <Rbt.Receptor>
prm/blind_docking_80.prm

>  <SCORE>
-13.6641

>  <SCORE.INTER>
-2.49648

>  <SCORE.INTER.CONST>
1

>  <SCORE.INTER.POLAR>
0

>  <SCORE.INTER.ROT>
11

>  <SCORE.INTER.SOLV>
9.21205

>  <SCORE.INTER.VDW>
-15.6683

>  <SCORE.INTER.norm>
-0.17832

>  <SCORE.INTRA>
-11.1676

>  <SCORE.INTRA.DIHEDRAL>
-21.1108

>  <SCORE.INTRA.DIHEDRAL.0>
25.9209

>  <SCORE.INTRA.POLAR>
0

>  <SCORE.INTRA.POLAR.0>
0

>  <SCORE.INTRA.REPUL>
0

>  <SCORE.INTRA.REPUL.0>
0

>  <SCORE.INTRA.SOLV>
-1.47468

>  <SCORE.INTRA.SOLV.lig_0>
-47.4815

>  <SCORE.INTRA.VDW>
0.125179

>  <SCORE.INTRA.VDW.0>
-1.57492

>  <SCORE.INTRA.norm>
-0.797684

>  <SCORE.RESTR>
0

>  <SCORE.RESTR.CAVITY>
0

>  <SCORE.RESTR.norm>
0

>  <SCORE.SYSTEM>
0

>  <SCORE.SYSTEM.CONST>
0

>  <SCORE.SYSTEM.DIHEDRAL>
0

>  <SCORE.SYSTEM.SOLV>
0

>  <SCORE.SYSTEM.norm>
0

>  <SCORE.heavy>
14

>  <SCORE.norm>
-0.976004

>  <RMSD>
47.091

$$$$
ligand
 OpenBabel11021811493D
libRbt.so/2013.1/901 2013/11/27
 14 13  0  0  0  0  0  0  0  0999 V2000
    9.3522   12.5297   27.0458 N   0  0  0  0  0  0  0  0  0  0  0  0
    9.9677   13.7419   26.5197 C   0  0  0  0  0  0  0  0  0  0  0  0
   10.1486   13.6485   24.9897 C   0  0  0  0  0  0  0  0  0  0  0  0
   11.1358   12.5594   24.5249 C   0  0  0  0  0  0  0  0  0  0  0  0
   11.3724   12.4093   23.0812 N   0  0  0  0  0  0  0  0  0  0  0  0
   11.5922   13.5803   22.2252 C   0  0  0  0  0  0  0  0  0  0  0  0
   12.2239   13.2804   20.8626 C   0  0  0  0  0  0  0  0  0  0  0  0
   12.3388   14.5283   19.9708 C   0  0  0  0  0  0  0  0  0  0  0  0
   12.2913   14.2249   18.4648 C   0  0  0  0  0  0  0  0  0  0  0  0
   13.2153   13.1785   18.0213 N   0  0  0  0  0  0  0  0  0  0  0  0
   12.7188   12.0971   17.1526 C   0  0  0  0  0  0  0  0  0  0  0  0
   13.6069   11.7020   15.9491 C   0  0  0  0  0  0  0  0  0  0  0  0
   13.7492   12.7655   14.8415 C   0  0  0  0  0  0  0  0  0  0  0  0
   14.5893   12.3255   13.7314 N   0  0  0  0  0  0  0  0  0  0  0  0
  1  2  1  0  0  0  0
  2  3  1  0  0  0  0
  3  4  1  0  0  0  0
  4  5  1  0  0  0  0
  5  6  1  0  0  0  0
  6  7  1  0  0  0  0
  7  8  1  0  0  0  0
  8  9  1  0  0  0  0
  9 10  1  0  0  0  0
 10 11  1  0  0  0  0
 11 12  1  0  0  0  0
 12 13  1  0  0  0  0
 13 14  1  0  0  0  0
M  END
>  <CHROM.1>
-65.14279991,-179.61683893,44.96072760,162.73037922,175.93537742,-151.48770223
-50.63976425,131.83497399,135.91471779,-67.20694283,-179.49393909,12.02155984
13.04098081,20.52721725,-3.13903015,1.23814683,-0.05819395

>  <Name>
ligand

>  <RI>
0

>  <Rbt.Current_Directory>
/home/itssahil/PROJECTS/Mol_Feturizer/New_Systems/rnas/4E8Q

>  <Rbt.Executable>
rbdock ($Id: //depot/dev/client3/rdock/2013.1/src/exe/rbdock.cxx#4 $)

>  <Rbt.Library>
libRbt.so (2013.1, Build901 2013/11/27)

>  <Rbt.Parameter_File>
/export/apps/rDock/src/rDock_2013.1_src/data/scripts/dock_solv.prm

>  <Rbt.Receptor>
prm/blind_docking_40.prm

>  <SCORE>
-5.74776

>  <SCORE.INTER>
3.70432

>  <SCORE.INTER.CONST>
1

>  <SCORE.INTER.POLAR>
0

>  <SCORE.INTER.ROT>
11

>  <SCORE.INTER.SOLV>
17.0645

>  <SCORE.INTER.VDW>
-14.1519

>  <SCORE.INTER.norm>
0.264594

>  <SCORE.INTRA>
-9.56076

>  <SCORE.INTRA.DIHEDRAL>
-19.9192

>  <SCORE.INTRA.DIHEDRAL.0>
25.9209

>  <SCORE.INTRA.POLAR>
0

>  <SCORE.INTRA.POLAR.0>
0

>  <SCORE.INTRA.REPUL>
0

>  <SCORE.INTRA.REPUL.0>
0

>  <SCORE.INTRA.SOLV>
-0.777841

>  <SCORE.INTRA.SOLV.lig_0>
-47.4815

>  <SCORE.INTRA.VDW>
0.787739

>  <SCORE.INTRA.VDW.0>
-1.57492

>  <SCORE.INTRA.norm>
-0.682911

>  <SCORE.RESTR>
0.108675

>  <SCORE.RESTR.CAVITY>
0.108675

>  <SCORE.RESTR.norm>
0.00776253

>  <SCORE.SYSTEM>
0

>  <SCORE.SYSTEM.CONST>
0

>  <SCORE.SYSTEM.DIHEDRAL>
0

>  <SCORE.SYSTEM.SOLV>
0

>  <SCORE.SYSTEM.norm>
0

>  <SCORE.heavy>
14

>  <SCORE.norm>
-0.410555

>  <RMSD>
48.273

$$$$
ligand
 OpenBabel11021811493D
libRbt.so/2013.1/901 2013/11/27
 14 13  0  0  0  0  0  0  0  0999 V2000
   11.2045   24.8106   22.1566 N   0  0  0  0  0  0  0  0  0  0  0  0
   12.5478   24.2452   22.1239 C   0  0  0  0  0  0  0  0  0  0  0  0
   13.5683   25.2797   21.6036 C   0  0  0  0  0  0  0  0  0  0  0  0
   13.3213   25.7547   20.1579 C   0  0  0  0  0  0  0  0  0  0  0  0
   14.2101   26.7888   19.6070 N   0  0  0  0  0  0  0  0  0  0  0  0
   15.4953   26.4336   18.9950 C   0  0  0  0  0  0  0  0  0  0  0  0
   15.4204   26.0084   17.5257 C   0  0  0  0  0  0  0  0  0  0  0  0
   14.8237   27.0982   16.6190 C   0  0  0  0  0  0  0  0  0  0  0  0
   14.6713   26.6725   15.1500 C   0  0  0  0  0  0  0  0  0  0  0  0
   13.9587   27.6332   14.3046 N   0  0  0  0  0  0  0  0  0  0  0  0
   13.3718   27.1791   13.0318 C   0  0  0  0  0  0  0  0  0  0  0  0
   12.6005   28.2320   12.2012 C   0  0  0  0  0  0  0  0  0  0  0  0
   11.3820   28.8737   12.8952 C   0  0  0  0  0  0  0  0  0  0  0  0
   11.7364   29.6144   14.1023 N   0  0  0  0  0  0  0  0  0  0  0  0
  1  2  1  0  0  0  0
  2  3  1  0  0  0  0
  3  4  1  0  0  0  0
  4  5  1  0  0  0  0
  5  6  1  0  0  0  0
  6  7  1  0  0  0  0
  7  8  1  0  0  0  0
  8  9  1  0  0  0  0
  9 10  1  0  0  0  0
 10 11  1  0  0  0  0
 11 12  1  0  0  0  0
 12 13  1  0  0  0  0
 13 14  1  0  0  0  0
M  END
>  <CHROM.1>
-62.29684452,177.11854145,84.94127567,83.76598683,58.97309583,-177.09569350
172.98032088,-160.33331687,178.46114793,-60.15573934,61.90347740,13.45114060
26.75868272,17.17655173,1.53265689,-0.16066334,1.92795560

>  <Name>
ligand

>  <RI>
0

>  <Rbt.Current_Directory>
/home/itssahil/PROJECTS/Mol_Feturizer/New_Systems/rnas/4E8Q

>  <Rbt.Executable>
rbdock ($Id: //depot/dev/client3/rdock/2013.1/src/exe/rbdock.cxx#4 $)

>  <Rbt.Library>
libRbt.so (2013.1, Build901 2013/11/27)

>  <Rbt.Parameter_File>
/export/apps/rDock/src/rDock_2013.1_src/data/scripts/dock_solv.prm

>  <Rbt.Receptor>
prm/blind_docking_40.prm

>  <SCORE>
-12.6509

>  <SCORE.INTER>
-1.60204

>  <SCORE.INTER.CONST>
1

>  <SCORE.INTER.POLAR>
0

>  <SCORE.INTER.ROT>
11

>  <SCORE.INTER.SOLV>
12.0782

>  <SCORE.INTER.VDW>
-16.0274

>  <SCORE.INTER.norm>
-0.114432

>  <SCORE.INTRA>
-11.0488

>  <SCORE.INTRA.DIHEDRAL>
-24.4887

>  <SCORE.INTRA.DIHEDRAL.0>
25.9209

>  <SCORE.INTRA.POLAR>
0

>  <SCORE.INTRA.POLAR.0>
0

>  <SCORE.INTRA.REPUL>
0

>  <SCORE.INTRA.REPUL.0>
0

>  <SCORE.INTRA.SOLV>
1.67126

>  <SCORE.INTRA.SOLV.lig_0>
-47.4815

>  <SCORE.INTRA.VDW>
0.359902

>  <SCORE.INTRA.VDW.0>
-1.57492

>  <SCORE.INTRA.norm>
-0.789202

>  <SCORE.RESTR>
0

>  <SCORE.RESTR.CAVITY>
0

>  <SCORE.RESTR.norm>
0

>  <SCORE.SYSTEM>
0

>  <SCORE.SYSTEM.CONST>
0

>  <SCORE.SYSTEM.DIHEDRAL>
0

>  <SCORE.SYSTEM.SOLV>
0

>  <SCORE.SYSTEM.norm>
0

>  <SCORE.heavy>
14

>  <SCORE.norm>
-0.903634

>  <RMSD>
50.581

$$$$
ligand
 OpenBabel11021811493D
libRbt.so/2013.1/901 2013/11/27
 14 13  0  0  0  0  0  0  0  0999 V2000
   13.3390   11.9649   35.8448 N   0  0  0  0  0  0  0  0  0  0  0  0
   13.8129   11.3113   34.6309 C   0  0  0  0  0  0  0  0  0  0  0  0
   15.3030   11.6271   34.3812 C   0  0  0  0  0  0  0  0  0  0  0  0
   16.2651   11.0728   35.4506 C   0  0  0  0  0  0  0  0  0  0  0  0
   16.3541    9.6139   35.6130 N   0  0  0  0  0  0  0  0  0  0  0  0
   17.5656    8.9854   36.1517 C   0  0  0  0  0  0  0  0  0  0  0  0
   17.9476    7.6503   35.5059 C   0  0  0  0  0  0  0  0  0  0  0  0
   19.3056    7.1185   35.9945 C   0  0  0  0  0  0  0  0  0  0  0  0
   20.5118    7.9155   35.4725 C   0  0  0  0  0  0  0  0  0  0  0  0
   20.7319    7.8174   34.0277 N   0  0  0  0  0  0  0  0  0  0  0  0
   22.1094    7.7456   33.5102 C   0  0  0  0  0  0  0  0  0  0  0  0
   22.9095    6.4593   33.8246 C   0  0  0  0  0  0  0  0  0  0  0  0
   24.3529    6.4170   33.2836 C   0  0  0  0  0  0  0  0  0  0  0  0
   25.0617    5.1918   33.6417 N   0  0  0  0  0  0  0  0  0  0  0  0
  1  2  1  0  0  0  0
  2  3  1  0  0  0  0
  3  4  1  0  0  0  0
  4  5  1  0  0  0  0
  5  6  1  0  0  0  0
  6  7  1  0  0  0  0
  7  8  1  0  0  0  0
  8  9  1  0  0  0  0
  9 10  1  0  0  0  0
 10 11  1  0  0  0  0
 11 12  1  0  0  0  0
 12 13  1  0  0  0  0
 13 14  1  0  0  0  0
M  END
>  <CHROM.1>
64.75062125,63.43011602,154.30786755,-142.37837396,173.44629328,-71.28296469
-66.79878609,-141.86387221,68.17679935,-179.39045246,178.62468846,18.96934716
8.63505399,34.80950197,-2.91808655,-0.47584927,2.33530137

>  <Name>
ligand

>  <RI>
0

>  <Rbt.Current_Directory>
/home/itssahil/PROJECTS/Mol_Feturizer/New_Systems/rnas/4E8Q

>  <Rbt.Executable>
rbdock ($Id: //depot/dev/client3/rdock/2013.1/src/exe/rbdock.cxx#4 $)

>  <Rbt.Library>
libRbt.so (2013.1, Build901 2013/11/27)

>  <Rbt.Parameter_File>
/export/apps/rDock/src/rDock_2013.1_src/data/scripts/dock_solv.prm

>  <Rbt.Receptor>
prm/blind_docking_100.prm

>  <SCORE>
-15.0122

>  <SCORE.INTER>
-4.37479

>  <SCORE.INTER.CONST>
1

>  <SCORE.INTER.POLAR>
0

>  <SCORE.INTER.ROT>
11

>  <SCORE.INTER.SOLV>
16.0906

>  <SCORE.INTER.VDW>
-19.2134

>  <SCORE.INTER.norm>
-0.312485

>  <SCORE.INTRA>
-10.6374

>  <SCORE.INTRA.DIHEDRAL>
-22.7294

>  <SCORE.INTRA.DIHEDRAL.0>
25.9209

>  <SCORE.INTRA.POLAR>
0

>  <SCORE.INTRA.POLAR.0>
0

>  <SCORE.INTRA.REPUL>
0

>  <SCORE.INTRA.REPUL.0>
0

>  <SCORE.INTRA.SOLV>
0.026189

>  <SCORE.INTRA.SOLV.lig_0>
-47.4815

>  <SCORE.INTRA.VDW>
0.714213

>  <SCORE.INTRA.VDW.0>
-1.57492

>  <SCORE.INTRA.norm>
-0.759813

>  <SCORE.RESTR>
0

>  <SCORE.RESTR.CAVITY>
0

>  <SCORE.RESTR.norm>
0

>  <SCORE.SYSTEM>
0

>  <SCORE.SYSTEM.CONST>
0

>  <SCORE.SYSTEM.DIHEDRAL>
0

>  <SCORE.SYSTEM.SOLV>
0

>  <SCORE.SYSTEM.norm>
0

>  <SCORE.heavy>
14

>  <SCORE.norm>
-1.0723

>  <RMSD>
50.621

$$$$
ligand
 OpenBabel11021811493D
libRbt.so/2013.1/901 2013/11/27
 14 13  0  0  0  0  0  0  0  0999 V2000
   -0.7931    8.6295   11.5471 N   0  0  0  0  0  0  0  0  0  0  0  0
   -0.1120    7.3812   11.2260 C   0  0  0  0  0  0  0  0  0  0  0  0
   -0.5733    6.8384    9.8566 C   0  0  0  0  0  0  0  0  0  0  0  0
   -0.1219    7.6805    8.6467 C   0  0  0  0  0  0  0  0  0  0  0  0
    1.3211    7.8633    8.4296 N   0  0  0  0  0  0  0  0  0  0  0  0
    1.9188    7.6570    7.1057 C   0  0  0  0  0  0  0  0  0  0  0  0
    3.4494    7.6953    7.0701 C   0  0  0  0  0  0  0  0  0  0  0  0
    4.0938    6.6428    7.9881 C   0  0  0  0  0  0  0  0  0  0  0  0
    5.5913    6.8741    8.2466 C   0  0  0  0  0  0  0  0  0  0  0  0
    6.4489    6.7063    7.0711 N   0  0  0  0  0  0  0  0  0  0  0  0
    7.9125    6.7070    7.2388 C   0  0  0  0  0  0  0  0  0  0  0  0
    8.4913    5.7911    8.3432 C   0  0  0  0  0  0  0  0  0  0  0  0
   10.0191    5.8599    8.5405 C   0  0  0  0  0  0  0  0  0  0  0  0
   10.7673    5.4206    7.3663 N   0  0  0  0  0  0  0  0  0  0  0  0
  1  2  1  0  0  0  0
  2  3  1  0  0  0  0
  3  4  1  0  0  0  0
  4  5  1  0  0  0  0
  5  6  1  0  0  0  0
  6  7  1  0  0  0  0
  7  8  1  0  0  0  0
  8  9  1  0  0  0  0
  9 10  1  0  0  0  0
 10 11  1  0  0  0  0
 11 12  1  0  0  0  0
 12 13  1  0  0  0  0
 13 14  1  0  0  0  0
M  END
>  <CHROM.1>
68.82869881,59.88896221,132.21059114,-172.01118177,58.47785684,-165.63981025
-66.96259678,-171.04948005,49.18494356,-177.29155600,-63.09928201,4.17226379
6.98185719,8.47683539,-2.94446760,0.21181631,-1.45033568

>  <Name>
ligand

>  <RI>
0

>  <Rbt.Current_Directory>
/home/itssahil/PROJECTS/Mol_Feturizer/New_Systems/rnas/4E8Q

>  <Rbt.Executable>
rbdock ($Id: //depot/dev/client3/rdock/2013.1/src/exe/rbdock.cxx#4 $)

>  <Rbt.Library>
libRbt.so (2013.1, Build901 2013/11/27)

>  <Rbt.Parameter_File>
/export/apps/rDock/src/rDock_2013.1_src/data/scripts/dock_solv.prm

>  <Rbt.Receptor>
prm/blind_docking_20.prm

>  <SCORE>
-12.3632

>  <SCORE.INTER>
-1.97232

>  <SCORE.INTER.CONST>
1

>  <SCORE.INTER.POLAR>
0

>  <SCORE.INTER.ROT>
11

>  <SCORE.INTER.SOLV>
11.9443

>  <SCORE.INTER.VDW>
-16.2297

>  <SCORE.INTER.norm>
-0.14088

>  <SCORE.INTRA>
-10.4246

>  <SCORE.INTRA.DIHEDRAL>
-23.2605

>  <SCORE.INTRA.DIHEDRAL.0>
25.9209

>  <SCORE.INTRA.POLAR>
0

>  <SCORE.INTRA.POLAR.0>
0

>  <SCORE.INTRA.REPUL>
0

>  <SCORE.INTRA.REPUL.0>
0

>  <SCORE.INTRA.SOLV>
0.746888

>  <SCORE.INTRA.SOLV.lig_0>
-47.4815

>  <SCORE.INTRA.VDW>
0.832184

>  <SCORE.INTRA.VDW.0>
-1.57492

>  <SCORE.INTRA.norm>
-0.744616

>  <SCORE.RESTR>
0.0337027

>  <SCORE.RESTR.CAVITY>
0.0337027

>  <SCORE.RESTR.norm>
0.00240733

>  <SCORE.SYSTEM>
0

>  <SCORE.SYSTEM.CONST>
0

>  <SCORE.SYSTEM.DIHEDRAL>
0

>  <SCORE.SYSTEM.SOLV>
0

>  <SCORE.SYSTEM.norm>
0

>  <SCORE.heavy>
14

>  <SCORE.norm>
-0.883089

>  <RMSD>
50.622

$$$$
ligand
 OpenBabel11021811493D
libRbt.so/2013.1/901 2013/11/27
 14 13  0  0  0  0  0  0  0  0999 V2000
    9.6650    4.5316    7.5887 N   0  0  0  0  0  0  0  0  0  0  0  0
    9.3546    5.6338    8.4910 C   0  0  0  0  0  0  0  0  0  0  0  0
    9.2381    6.9637    7.7162 C   0  0  0  0  0  0  0  0  0  0  0  0
    8.0218    7.0533    6.7732 C   0  0  0  0  0  0  0  0  0  0  0  0
    6.6783    7.0224    7.3706 N   0  0  0  0  0  0  0  0  0  0  0  0
    5.5356    6.4709    6.6339 C   0  0  0  0  0  0  0  0  0  0  0  0
    4.2000    7.1786    6.8807 C   0  0  0  0  0  0  0  0  0  0  0  0
    3.7193    7.0545    8.3365 C   0  0  0  0  0  0  0  0  0  0  0  0
    2.3382    7.6786    8.5924 C   0  0  0  0  0  0  0  0  0  0  0  0
    1.7979    7.4419    9.9331 N   0  0  0  0  0  0  0  0  0  0  0  0
    0.5744    8.1467   10.3536 C   0  0  0  0  0  0  0  0  0  0  0  0
   -0.1109    7.6486   11.6481 C   0  0  0  0  0  0  0  0  0  0  0  0
   -0.7562    6.2502   11.5711 C   0  0  0  0  0  0  0  0  0  0  0  0
   -1.8190    6.1654   10.5737 N   0  0  0  0  0  0  0  0  0  0  0  0
  1  2  1  0  0  0  0
  2  3  1  0  0  0  0
  3  4  1  0  0  0  0
  4  5  1  0  0  0  0
  5  6  1  0  0  0  0
  6  7  1  0  0  0  0
  7  8  1  0  0  0  0
  8  9  1  0  0  0  0
  9 10  1  0  0  0  0
 10 11  1  0  0  0  0
 11 12  1  0  0  0  0
 12 13  1  0  0  0  0
 13 14  1  0  0  0  0
M  END
>  <CHROM.1>
68.20151570,64.17797969,-150.35978875,-144.74706985,-63.97598460,-176.30922457
173.55462058,171.47932168,167.71803842,-68.22387907,-61.05255754,4.17410898
6.80308573,8.74731018,-0.26526005,-0.25969123,2.05443346

>  <Name>
ligand

>  <RI>
0

>  <Rbt.Current_Directory>
/home/itssahil/PROJECTS/Mol_Feturizer/New_Systems/rnas/4E8Q

>  <Rbt.Executable>
rbdock ($Id: //depot/dev/client3/rdock/2013.1/src/exe/rbdock.cxx#4 $)

>  <Rbt.Library>
libRbt.so (2013.1, Build901 2013/11/27)

>  <Rbt.Parameter_File>
/export/apps/rDock/src/rDock_2013.1_src/data/scripts/dock_solv.prm

>  <Rbt.Receptor>
prm/blind_docking_20.prm

>  <SCORE>
-13.6872

>  <SCORE.INTER>
-2.67546

>  <SCORE.INTER.CONST>
1

>  <SCORE.INTER.POLAR>
0

>  <SCORE.INTER.ROT>
11

>  <SCORE.INTER.SOLV>
11.9925

>  <SCORE.INTER.VDW>
-16.7145

>  <SCORE.INTER.norm>
-0.191104

>  <SCORE.INTRA>
-11.0139

>  <SCORE.INTRA.DIHEDRAL>
-23.5459

>  <SCORE.INTRA.DIHEDRAL.0>
25.9209

>  <SCORE.INTRA.POLAR>
0

>  <SCORE.INTRA.POLAR.0>
0

>  <SCORE.INTRA.REPUL>
0

>  <SCORE.INTRA.REPUL.0>
0

>  <SCORE.INTRA.SOLV>
1.15118

>  <SCORE.INTRA.SOLV.lig_0>
-47.4815

>  <SCORE.INTRA.VDW>
0.183445

>  <SCORE.INTRA.VDW.0>
-1.57492

>  <SCORE.INTRA.norm>
-0.786709

>  <SCORE.RESTR>
0.00213745

>  <SCORE.RESTR.CAVITY>
0.00213745

>  <SCORE.RESTR.norm>
0.000152675

>  <SCORE.SYSTEM>
0

>  <SCORE.SYSTEM.CONST>
0

>  <SCORE.SYSTEM.DIHEDRAL>
0

>  <SCORE.SYSTEM.SOLV>
0

>  <SCORE.SYSTEM.norm>
0

>  <SCORE.heavy>
14

>  <SCORE.norm>
-0.977661

>  <RMSD>
50.695

$$$$
ligand
 OpenBabel11021811493D
libRbt.so/2013.1/901 2013/11/27
 14 13  0  0  0  0  0  0  0  0999 V2000
    9.9980    4.9051    7.0462 N   0  0  0  0  0  0  0  0  0  0  0  0
   10.0524    6.0065    7.9997 C   0  0  0  0  0  0  0  0  0  0  0  0
    8.9165    7.0183    7.7377 C   0  0  0  0  0  0  0  0  0  0  0  0
    7.5039    6.4984    8.0708 C   0  0  0  0  0  0  0  0  0  0  0  0
    6.3810    6.9650    7.2435 N   0  0  0  0  0  0  0  0  0  0  0  0
    5.0350    7.1114    7.8086 C   0  0  0  0  0  0  0  0  0  0  0  0
    3.9073    7.2317    6.7795 C   0  0  0  0  0  0  0  0  0  0  0  0
    2.5133    7.2932    7.4267 C   0  0  0  0  0  0  0  0  0  0  0  0
    1.3544    7.2009    6.4212 C   0  0  0  0  0  0  0  0  0  0  0  0
    0.0303    7.0379    7.0258 N   0  0  0  0  0  0  0  0  0  0  0  0
   -0.5438    8.1411    7.8157 C   0  0  0  0  0  0  0  0  0  0  0  0
    0.0849    8.4098    9.2035 C   0  0  0  0  0  0  0  0  0  0  0  0
    0.0121    7.2445   10.2109 C   0  0  0  0  0  0  0  0  0  0  0  0
   -1.3552    6.9052   10.5942 N   0  0  0  0  0  0  0  0  0  0  0  0
  1  2  1  0  0  0  0
  2  3  1  0  0  0  0
  3  4  1  0  0  0  0
  4  5  1  0  0  0  0
  5  6  1  0  0  0  0
  6  7  1  0  0  0  0
  7  8  1  0  0  0  0
  8  9  1  0  0  0  0
  9 10  1  0  0  0  0
 10 11  1  0  0  0  0
 11 12  1  0  0  0  0
 12 13  1  0  0  0  0
 13 14  1  0  0  0  0
M  END
>  <CHROM.1>
69.57619455,-146.54158089,-148.92375388,-164.13491763,176.37230299,-171.28341524
170.50627297,67.18507971,-72.14479145,-60.57024798,-64.56096321,3.84931800
6.99802576,7.95598874,0.11368053,0.15819688,-1.48874810

>  <Name>
ligand

>  <RI>
0

>  <Rbt.Current_Directory>
/home/itssahil/PROJECTS/Mol_Feturizer/New_Systems/rnas/4E8Q

>  <Rbt.Executable>
rbdock ($Id: //depot/dev/client3/rdock/2013.1/src/exe/rbdock.cxx#4 $)

>  <Rbt.Library>
libRbt.so (2013.1, Build901 2013/11/27)

>  <Rbt.Parameter_File>
/export/apps/rDock/src/rDock_2013.1_src/data/scripts/dock_solv.prm

>  <Rbt.Receptor>
prm/blind_docking_20.prm

>  <SCORE>
-10.0694

>  <SCORE.INTER>
-0.739576

>  <SCORE.INTER.CONST>
1

>  <SCORE.INTER.POLAR>
0

>  <SCORE.INTER.ROT>
11

>  <SCORE.INTER.SOLV>
9.19965

>  <SCORE.INTER.VDW>
-14.4929

>  <SCORE.INTER.norm>
-0.0528269

>  <SCORE.INTRA>
-9.32984

>  <SCORE.INTRA.DIHEDRAL>
-20.5593

>  <SCORE.INTRA.DIHEDRAL.0>
25.9209

>  <SCORE.INTRA.POLAR>
0

>  <SCORE.INTRA.POLAR.0>
0

>  <SCORE.INTRA.REPUL>
0

>  <SCORE.INTRA.REPUL.0>
0

>  <SCORE.INTRA.SOLV>
0.31006

>  <SCORE.INTRA.SOLV.lig_0>
-47.4815

>  <SCORE.INTRA.VDW>
0.794753

>  <SCORE.INTRA.VDW.0>
-1.57492

>  <SCORE.INTRA.norm>
-0.666417

>  <SCORE.RESTR>
0

>  <SCORE.RESTR.CAVITY>
0

>  <SCORE.RESTR.norm>
0

>  <SCORE.SYSTEM>
0

>  <SCORE.SYSTEM.CONST>
0

>  <SCORE.SYSTEM.DIHEDRAL>
0

>  <SCORE.SYSTEM.SOLV>
0

>  <SCORE.SYSTEM.norm>
0

>  <SCORE.heavy>
14

>  <SCORE.norm>
-0.719244

>  <RMSD>
50.812

$$$$
ligand
 OpenBabel11021811493D
libRbt.so/2013.1/901 2013/11/27
 14 13  0  0  0  0  0  0  0  0999 V2000
   -1.6054    7.3520   11.1659 N   0  0  0  0  0  0  0  0  0  0  0  0
   -0.6788    8.4683   11.3086 C   0  0  0  0  0  0  0  0  0  0  0  0
    0.7727    8.0172   11.0401 C   0  0  0  0  0  0  0  0  0  0  0  0
    1.0347    7.5164    9.6057 C   0  0  0  0  0  0  0  0  0  0  0  0
    1.0163    8.5015    8.5139 N   0  0  0  0  0  0  0  0  0  0  0  0
    1.1650    8.0832    7.1155 C   0  0  0  0  0  0  0  0  0  0  0  0
    2.3221    7.1170    6.8452 C   0  0  0  0  0  0  0  0  0  0  0  0
    3.6899    7.6993    7.2401 C   0  0  0  0  0  0  0  0  0  0  0  0
    4.8607    6.7206    7.0562 C   0  0  0  0  0  0  0  0  0  0  0  0
    6.1758    7.2674    7.3984 N   0  0  0  0  0  0  0  0  0  0  0  0
    7.2707    6.3475    7.7525 C   0  0  0  0  0  0  0  0  0  0  0  0
    8.7096    6.9116    7.6826 C   0  0  0  0  0  0  0  0  0  0  0  0
    9.8291    5.9547    8.1398 C   0  0  0  0  0  0  0  0  0  0  0  0
    9.9513    4.7720    7.2926 N   0  0  0  0  0  0  0  0  0  0  0  0
  1  2  1  0  0  0  0
  2  3  1  0  0  0  0
  3  4  1  0  0  0  0
  4  5  1  0  0  0  0
  5  6  1  0  0  0  0
  6  7  1  0  0  0  0
  7  8  1  0  0  0  0
  8  9  1  0  0  0  0
  9 10  1  0  0  0  0
 10 11  1  0  0  0  0
 11 12  1  0  0  0  0
 12 13  1  0  0  0  0
 13 14  1  0  0  0  0
M  END
>  <CHROM.1>
63.38465839,69.97181857,-175.72732271,-47.92804333,-59.21619886,176.62531791
178.67661635,157.21753639,161.88740892,176.43772403,64.10286275,3.89383185
7.19498723,8.43972789,-2.89306478,0.24018755,-1.46794049

>  <Name>
ligand

>  <RI>
0

>  <Rbt.Current_Directory>
/home/itssahil/PROJECTS/Mol_Feturizer/New_Systems/rnas/4E8Q

>  <Rbt.Executable>
rbdock ($Id: //depot/dev/client3/rdock/2013.1/src/exe/rbdock.cxx#4 $)

>  <Rbt.Library>
libRbt.so (2013.1, Build901 2013/11/27)

>  <Rbt.Parameter_File>
/export/apps/rDock/src/rDock_2013.1_src/data/scripts/dock_solv.prm

>  <Rbt.Receptor>
prm/blind_docking_20.prm

>  <SCORE>
-12.6784

>  <SCORE.INTER>
-1.51055

>  <SCORE.INTER.CONST>
1

>  <SCORE.INTER.POLAR>
0

>  <SCORE.INTER.ROT>
11

>  <SCORE.INTER.SOLV>
10.6647

>  <SCORE.INTER.VDW>
-15.4953

>  <SCORE.INTER.norm>
-0.107896

>  <SCORE.INTRA>
-11.1733

>  <SCORE.INTRA.DIHEDRAL>
-24.5824

>  <SCORE.INTRA.DIHEDRAL.0>
25.9209

>  <SCORE.INTRA.POLAR>
0

>  <SCORE.INTRA.POLAR.0>
0

>  <SCORE.INTRA.REPUL>
0

>  <SCORE.INTRA.REPUL.0>
0

>  <SCORE.INTRA.SOLV>
0.355589

>  <SCORE.INTRA.SOLV.lig_0>
-47.4815

>  <SCORE.INTRA.VDW>
0.940093

>  <SCORE.INTRA.VDW.0>
-1.57492

>  <SCORE.INTRA.norm>
-0.798092

>  <SCORE.RESTR>
0.00540953

>  <SCORE.RESTR.CAVITY>
0.00540953

>  <SCORE.RESTR.norm>
0.000386395

>  <SCORE.SYSTEM>
0

>  <SCORE.SYSTEM.CONST>
0

>  <SCORE.SYSTEM.DIHEDRAL>
0

>  <SCORE.SYSTEM.SOLV>
0

>  <SCORE.SYSTEM.norm>
0

>  <SCORE.heavy>
14

>  <SCORE.norm>
-0.905602

>  <RMSD>
50.926

$$$$
ligand
 OpenBabel11021811493D
libRbt.so/2013.1/901 2013/11/27
 14 13  0  0  0  0  0  0  0  0999 V2000
   -1.4724    8.0319   14.2213 N   0  0  0  0  0  0  0  0  0  0  0  0
   -0.8221    7.2043   13.2127 C   0  0  0  0  0  0  0  0  0  0  0  0
   -0.6067    7.9963   11.9055 C   0  0  0  0  0  0  0  0  0  0  0  0
    0.0321    7.1851   10.7608 C   0  0  0  0  0  0  0  0  0  0  0  0
    0.3384    7.8838    9.5035 N   0  0  0  0  0  0  0  0  0  0  0  0
    1.5444    7.5605    8.7330 C   0  0  0  0  0  0  0  0  0  0  0  0
    2.8625    7.6967    9.5008 C   0  0  0  0  0  0  0  0  0  0  0  0
    4.0976    7.5552    8.5952 C   0  0  0  0  0  0  0  0  0  0  0  0
    4.3559    6.1188    8.1130 C   0  0  0  0  0  0  0  0  0  0  0  0
    5.6386    5.9220    7.4338 N   0  0  0  0  0  0  0  0  0  0  0  0
    6.8792    5.8911    8.2279 C   0  0  0  0  0  0  0  0  0  0  0  0
    8.2117    5.8402    7.4435 C   0  0  0  0  0  0  0  0  0  0  0  0
    9.4924    5.7657    8.2992 C   0  0  0  0  0  0  0  0  0  0  0  0
   10.7092    5.6629    7.4988 N   0  0  0  0  0  0  0  0  0  0  0  0
  1  2  1  0  0  0  0
  2  3  1  0  0  0  0
  3  4  1  0  0  0  0
  4  5  1  0  0  0  0
  5  6  1  0  0  0  0
  6  7  1  0  0  0  0
  7  8  1  0  0  0  0
  8  9  1  0  0  0  0
  9 10  1  0  0  0  0
 10 11  1  0  0  0  0
 11 12  1  0  0  0  0
 12 13  1  0  0  0  0
 13 14  1  0  0  0  0
M  END
>  <CHROM.1>
-177.94532657,-176.77540096,143.00311383,-56.69878921,-171.28562680,-72.52401758
-170.54975439,74.39339803,-173.31625604,-178.22549590,177.54263130,3.66142963
6.87961512,9.53201314,-2.71282423,0.22280956,-1.52808146

>  <Name>
ligand

>  <RI>
0

>  <Rbt.Current_Directory>
/home/itssahil/PROJECTS/Mol_Feturizer/New_Systems/rnas/4E8Q

>  <Rbt.Executable>
rbdock ($Id: //depot/dev/client3/rdock/2013.1/src/exe/rbdock.cxx#4 $)

>  <Rbt.Library>
libRbt.so (2013.1, Build901 2013/11/27)

>  <Rbt.Parameter_File>
/export/apps/rDock/src/rDock_2013.1_src/data/scripts/dock_solv.prm

>  <Rbt.Receptor>
prm/blind_docking_20.prm

>  <SCORE>
-12.1833

>  <SCORE.INTER>
-0.549236

>  <SCORE.INTER.CONST>
1

>  <SCORE.INTER.POLAR>
0

>  <SCORE.INTER.ROT>
11

>  <SCORE.INTER.SOLV>
12.4686

>  <SCORE.INTER.VDW>
-15.4557

>  <SCORE.INTER.norm>
-0.0392311

>  <SCORE.INTRA>
-11.6341

>  <SCORE.INTRA.DIHEDRAL>
-23.5602

>  <SCORE.INTRA.DIHEDRAL.0>
25.9209

>  <SCORE.INTRA.POLAR>
0

>  <SCORE.INTRA.POLAR.0>
0

>  <SCORE.INTRA.REPUL>
0

>  <SCORE.INTRA.REPUL.0>
0

>  <SCORE.INTRA.SOLV>
-2.03739

>  <SCORE.INTRA.SOLV.lig_0>
-47.4815

>  <SCORE.INTRA.VDW>
1.1647

>  <SCORE.INTRA.VDW.0>
-1.57492

>  <SCORE.INTRA.norm>
-0.831006

>  <SCORE.RESTR>
0

>  <SCORE.RESTR.CAVITY>
0

>  <SCORE.RESTR.norm>
0

>  <SCORE.SYSTEM>
0

>  <SCORE.SYSTEM.CONST>
0

>  <SCORE.SYSTEM.DIHEDRAL>
0

>  <SCORE.SYSTEM.SOLV>
0

>  <SCORE.SYSTEM.norm>
0

>  <SCORE.heavy>
14

>  <SCORE.norm>
-0.870237

>  <RMSD>
51.401

$$$$
ligand
 OpenBabel11021811493D
libRbt.so/2013.1/901 2013/11/27
 14 13  0  0  0  0  0  0  0  0999 V2000
   -1.0653    6.5771    9.7659 N   0  0  0  0  0  0  0  0  0  0  0  0
   -1.6680    6.7861   11.0767 C   0  0  0  0  0  0  0  0  0  0  0  0
   -0.5854    6.8702   12.1736 C   0  0  0  0  0  0  0  0  0  0  0  0
    0.2504    8.1654   12.1532 C   0  0  0  0  0  0  0  0  0  0  0  0
    1.4112    8.2268   11.2524 N   0  0  0  0  0  0  0  0  0  0  0  0
    1.2364    8.3510    9.8010 C   0  0  0  0  0  0  0  0  0  0  0  0
    2.0423    7.3556    8.9613 C   0  0  0  0  0  0  0  0  0  0  0  0
    3.5611    7.5689    9.0783 C   0  0  0  0  0  0  0  0  0  0  0  0
    4.3926    6.6337    8.1858 C   0  0  0  0  0  0  0  0  0  0  0  0
    5.7183    7.1450    7.8302 N   0  0  0  0  0  0  0  0  0  0  0  0
    6.9118    6.3435    8.1520 C   0  0  0  0  0  0  0  0  0  0  0  0
    8.2620    6.8373    7.5804 C   0  0  0  0  0  0  0  0  0  0  0  0
    9.5076    6.0385    8.0146 C   0  0  0  0  0  0  0  0  0  0  0  0
    9.5194    4.6731    7.4977 N   0  0  0  0  0  0  0  0  0  0  0  0
  1  2  1  0  0  0  0
  2  3  1  0  0  0  0
  3  4  1  0  0  0  0
  4  5  1  0  0  0  0
  5  6  1  0  0  0  0
  6  7  1  0  0  0  0
  7  8  1  0  0  0  0
  8  9  1  0  0  0  0
  9 10  1  0  0  0  0
 10 11  1  0  0  0  0
 11 12  1  0  0  0  0
 12 13  1  0  0  0  0
 13 14  1  0  0  0  0
M  END
>  <CHROM.1>
71.87128035,-84.58250335,72.82807807,-130.63558826,-65.51822845,-176.80919133
155.24914550,123.53794743,171.72790141,175.80582378,66.44534838,3.53515992
6.96957414,9.39462612,2.75321886,0.02951484,1.11402913

>  <Name>
ligand

>  <RI>
0

>  <Rbt.Current_Directory>
/home/itssahil/PROJECTS/Mol_Feturizer/New_Systems/rnas/4E8Q

>  <Rbt.Executable>
rbdock ($Id: //depot/dev/client3/rdock/2013.1/src/exe/rbdock.cxx#4 $)

>  <Rbt.Library>
libRbt.so (2013.1, Build901 2013/11/27)

>  <Rbt.Parameter_File>
/export/apps/rDock/src/rDock_2013.1_src/data/scripts/dock_solv.prm

>  <Rbt.Receptor>
prm/blind_docking_20.prm

>  <SCORE>
-9.33005

>  <SCORE.INTER>
-1.89618

>  <SCORE.INTER.CONST>
1

>  <SCORE.INTER.POLAR>
0

>  <SCORE.INTER.ROT>
11

>  <SCORE.INTER.SOLV>
12.9564

>  <SCORE.INTER.VDW>
-16.5162

>  <SCORE.INTER.norm>
-0.135441

>  <SCORE.INTRA>
-7.44106

>  <SCORE.INTRA.DIHEDRAL>
-18.5424

>  <SCORE.INTRA.DIHEDRAL.0>
25.9209

>  <SCORE.INTRA.POLAR>
0

>  <SCORE.INTRA.POLAR.0>
0

>  <SCORE.INTRA.REPUL>
0

>  <SCORE.INTRA.REPUL.0>
0

>  <SCORE.INTRA.SOLV>
3.03767

>  <SCORE.INTRA.SOLV.lig_0>
-47.4815

>  <SCORE.INTRA.VDW>
0.311296

>  <SCORE.INTRA.VDW.0>
-1.57492

>  <SCORE.INTRA.norm>
-0.531504

>  <SCORE.RESTR>
0.00718527

>  <SCORE.RESTR.CAVITY>
0.00718527

>  <SCORE.RESTR.norm>
0.000513234

>  <SCORE.SYSTEM>
0

>  <SCORE.SYSTEM.CONST>
0

>  <SCORE.SYSTEM.DIHEDRAL>
0

>  <SCORE.SYSTEM.SOLV>
0

>  <SCORE.SYSTEM.norm>
0

>  <SCORE.heavy>
14

>  <SCORE.norm>
-0.666432

>  <RMSD>
51.458

$$$$
ligand
 OpenBabel11021811493D
libRbt.so/2013.1/901 2013/11/27
 14 13  0  0  0  0  0  0  0  0999 V2000
   -0.7354    7.7665   14.7289 N   0  0  0  0  0  0  0  0  0  0  0  0
   -1.1642    8.5466   13.5744 C   0  0  0  0  0  0  0  0  0  0  0  0
   -1.5801    7.6233   12.4095 C   0  0  0  0  0  0  0  0  0  0  0  0
   -0.4248    6.8136   11.7879 C   0  0  0  0  0  0  0  0  0  0  0  0
    0.6721    7.5529   11.1453 N   0  0  0  0  0  0  0  0  0  0  0  0
    0.9333    7.4202    9.7077 C   0  0  0  0  0  0  0  0  0  0  0  0
    2.3942    7.6155    9.2915 C   0  0  0  0  0  0  0  0  0  0  0  0
    2.6120    7.4397    7.7790 C   0  0  0  0  0  0  0  0  0  0  0  0
    4.0762    7.5945    7.3378 C   0  0  0  0  0  0  0  0  0  0  0  0
    5.0050    6.6431    7.9523 N   0  0  0  0  0  0  0  0  0  0  0  0
    6.4394    6.7200    7.6250 C   0  0  0  0  0  0  0  0  0  0  0  0
    7.3296    5.5466    8.0982 C   0  0  0  0  0  0  0  0  0  0  0  0
    8.7776    5.5456    7.5679 C   0  0  0  0  0  0  0  0  0  0  0  0
    9.5480    6.7051    8.0078 N   0  0  0  0  0  0  0  0  0  0  0  0
  1  2  1  0  0  0  0
  2  3  1  0  0  0  0
  3  4  1  0  0  0  0
  4  5  1  0  0  0  0
  5  6  1  0  0  0  0
  6  7  1  0  0  0  0
  7  8  1  0  0  0  0
  8  9  1  0  0  0  0
  9 10  1  0  0  0  0
 10 11  1  0  0  0  0
 11 12  1  0  0  0  0
 12 13  1  0  0  0  0
 13 14  1  0  0  0  0
M  END
>  <CHROM.1>
-67.07204746,-62.66771309,-116.15514392,-150.53280112,178.94769514,-178.51024950
59.76473190,-178.61745846,-169.42326910,171.30086326,62.92184088,3.13429490
7.10949122,9.78638305,-2.61581670,0.20366800,-1.51458752

>  <Name>
ligand

>  <RI>
0

>  <Rbt.Current_Directory>
/home/itssahil/PROJECTS/Mol_Feturizer/New_Systems/rnas/4E8Q

>  <Rbt.Executable>
rbdock ($Id: //depot/dev/client3/rdock/2013.1/src/exe/rbdock.cxx#4 $)

>  <Rbt.Library>
libRbt.so (2013.1, Build901 2013/11/27)

>  <Rbt.Parameter_File>
/export/apps/rDock/src/rDock_2013.1_src/data/scripts/dock_solv.prm

>  <Rbt.Receptor>
prm/blind_docking_20.prm

>  <SCORE>
-9.55545

>  <SCORE.INTER>
1.65386

>  <SCORE.INTER.CONST>
1

>  <SCORE.INTER.POLAR>
0

>  <SCORE.INTER.ROT>
11

>  <SCORE.INTER.SOLV>
14.6509

>  <SCORE.INTER.VDW>
-14.7144

>  <SCORE.INTER.norm>
0.118133

>  <SCORE.INTRA>
-11.2093

>  <SCORE.INTRA.DIHEDRAL>
-23.5172

>  <SCORE.INTRA.DIHEDRAL.0>
25.9209

>  <SCORE.INTRA.POLAR>
0

>  <SCORE.INTRA.POLAR.0>
0

>  <SCORE.INTRA.REPUL>
0

>  <SCORE.INTRA.REPUL.0>
0

>  <SCORE.INTRA.SOLV>
0.412789

>  <SCORE.INTRA.SOLV.lig_0>
-47.4815

>  <SCORE.INTRA.VDW>
0.342917

>  <SCORE.INTRA.VDW.0>
-1.57492

>  <SCORE.INTRA.norm>
-0.800665

>  <SCORE.RESTR>
0

>  <SCORE.RESTR.CAVITY>
0

>  <SCORE.RESTR.norm>
0

>  <SCORE.SYSTEM>
0

>  <SCORE.SYSTEM.CONST>
0

>  <SCORE.SYSTEM.DIHEDRAL>
0

>  <SCORE.SYSTEM.SOLV>
0

>  <SCORE.SYSTEM.norm>
0

>  <SCORE.heavy>
14

>  <SCORE.norm>
-0.682532

>  <RMSD>
52.013

$$$$
ligand
 OpenBabel11021811493D
libRbt.so/2013.1/901 2013/11/27
 14 13  0  0  0  0  0  0  0  0999 V2000
   -3.3669    6.0569    6.5163 N   0  0  0  0  0  0  0  0  0  0  0  0
   -3.2307    6.0790    7.9676 C   0  0  0  0  0  0  0  0  0  0  0  0
   -1.8928    6.7256    8.3855 C   0  0  0  0  0  0  0  0  0  0  0  0
   -1.6960    6.8677    9.9079 C   0  0  0  0  0  0  0  0  0  0  0  0
   -0.4828    7.5454   10.3893 N   0  0  0  0  0  0  0  0  0  0  0  0
    0.8516    7.0595   10.0208 C   0  0  0  0  0  0  0  0  0  0  0  0
    1.9238    8.1444    9.8838 C   0  0  0  0  0  0  0  0  0  0  0  0
    3.2872    7.5834    9.4453 C   0  0  0  0  0  0  0  0  0  0  0  0
    3.3358    7.1423    7.9737 C   0  0  0  0  0  0  0  0  0  0  0  0
    4.5179    6.3585    7.6079 N   0  0  0  0  0  0  0  0  0  0  0  0
    5.8359    7.0156    7.5666 C   0  0  0  0  0  0  0  0  0  0  0  0
    7.0752    6.0942    7.4737 C   0  0  0  0  0  0  0  0  0  0  0  0
    8.4370    6.8093    7.3629 C   0  0  0  0  0  0  0  0  0  0  0  0
    9.5472    5.8907    7.1282 N   0  0  0  0  0  0  0  0  0  0  0  0
  1  2  1  0  0  0  0
  2  3  1  0  0  0  0
  3  4  1  0  0  0  0
  4  5  1  0  0  0  0
  5  6  1  0  0  0  0
  6  7  1  0  0  0  0
  7  8  1  0  0  0  0
  8  9  1  0  0  0  0
  9 10  1  0  0  0  0
 10 11  1  0  0  0  0
 11 12  1  0  0  0  0
 12 13  1  0  0  0  0
 13 14  1  0  0  0  0
M  END
>  <CHROM.1>
176.61369425,-176.48433651,-57.57754153,147.70414952,-177.84960279,72.53916393
-167.97934857,-69.45047926,167.32932261,177.14217272,-173.52214992,2.43870203
6.81245661,8.40230638,3.02889102,0.03298421,1.11742082

>  <Name>
ligand

>  <RI>
0

>  <Rbt.Current_Directory>
/home/itssahil/PROJECTS/Mol_Feturizer/New_Systems/rnas/4E8Q

>  <Rbt.Executable>
rbdock ($Id: //depot/dev/client3/rdock/2013.1/src/exe/rbdock.cxx#4 $)

>  <Rbt.Library>
libRbt.so (2013.1, Build901 2013/11/27)

>  <Rbt.Parameter_File>
/export/apps/rDock/src/rDock_2013.1_src/data/scripts/dock_solv.prm

>  <Rbt.Receptor>
prm/blind_docking_20.prm

>  <SCORE>
-9.98108

>  <SCORE.INTER>
1.7347

>  <SCORE.INTER.CONST>
1

>  <SCORE.INTER.POLAR>
0

>  <SCORE.INTER.ROT>
11

>  <SCORE.INTER.SOLV>
9.69947

>  <SCORE.INTER.VDW>
-13.01

>  <SCORE.INTER.norm>
0.123907

>  <SCORE.INTRA>
-11.7158

>  <SCORE.INTRA.DIHEDRAL>
-23.5844

>  <SCORE.INTRA.DIHEDRAL.0>
25.9209

>  <SCORE.INTRA.POLAR>
0

>  <SCORE.INTRA.POLAR.0>
0

>  <SCORE.INTRA.REPUL>
0

>  <SCORE.INTRA.REPUL.0>
0

>  <SCORE.INTRA.SOLV>
-1.95288

>  <SCORE.INTRA.SOLV.lig_0>
-47.4815

>  <SCORE.INTRA.VDW>
1.05285

>  <SCORE.INTRA.VDW.0>
-1.57492

>  <SCORE.INTRA.norm>
-0.836842

>  <SCORE.RESTR>
0

>  <SCORE.RESTR.CAVITY>
0

>  <SCORE.RESTR.norm>
0

>  <SCORE.SYSTEM>
0

>  <SCORE.SYSTEM.CONST>
0

>  <SCORE.SYSTEM.DIHEDRAL>
0

>  <SCORE.SYSTEM.SOLV>
0

>  <SCORE.SYSTEM.norm>
0

>  <SCORE.heavy>
14

>  <SCORE.norm>
-0.712934

>  <RMSD>
52.252

$$$$
ligand
 OpenBabel11021811493D
libRbt.so/2013.1/901 2013/11/27
 14 13  0  0  0  0  0  0  0  0999 V2000
    9.4251    6.6416    7.7045 N   0  0  0  0  0  0  0  0  0  0  0  0
    8.0087    6.7959    7.3957 C   0  0  0  0  0  0  0  0  0  0  0  0
    7.1404    5.9613    8.3611 C   0  0  0  0  0  0  0  0  0  0  0  0
    5.6316    5.9775    8.0450 C   0  0  0  0  0  0  0  0  0  0  0  0
    4.9281    7.2682    8.0905 N   0  0  0  0  0  0  0  0  0  0  0  0
    3.4760    7.3453    7.8956 C   0  0  0  0  0  0  0  0  0  0  0  0
    2.6608    7.5870    9.1693 C   0  0  0  0  0  0  0  0  0  0  0  0
    1.1477    7.6629    8.9036 C   0  0  0  0  0  0  0  0  0  0  0  0
    0.3332    8.2068   10.0883 C   0  0  0  0  0  0  0  0  0  0  0  0
    0.4060    7.3956   11.3056 N   0  0  0  0  0  0  0  0  0  0  0  0
    0.2348    8.0443   12.6173 C   0  0  0  0  0  0  0  0  0  0  0  0
   -0.6122    7.2875   13.6677 C   0  0  0  0  0  0  0  0  0  0  0  0
   -0.7254    7.9604   15.0505 C   0  0  0  0  0  0  0  0  0  0  0  0
   -1.5533    7.2060   15.9870 N   0  0  0  0  0  0  0  0  0  0  0  0
  1  2  1  0  0  0  0
  2  3  1  0  0  0  0
  3  4  1  0  0  0  0
  4  5  1  0  0  0  0
  5  6  1  0  0  0  0
  6  7  1  0  0  0  0
  7  8  1  0  0  0  0
  8  9  1  0  0  0  0
  9 10  1  0  0  0  0
 10 11  1  0  0  0  0
 11 12  1  0  0  0  0
 12 13  1  0  0  0  0
 13 14  1  0  0  0  0
M  END
>  <CHROM.1>
-175.61373486,-61.52453908,-175.58181472,104.94099128,179.81768846,-167.21535788
-62.03120606,151.92109096,138.95076321,177.50389996,179.13244247,2.89280307
7.23862629,10.30564737,-0.63518391,-0.21819157,1.68940252

>  <Name>
ligand

>  <RI>
0

>  <Rbt.Current_Directory>
/home/itssahil/PROJECTS/Mol_Feturizer/New_Systems/rnas/4E8Q

>  <Rbt.Executable>
rbdock ($Id: //depot/dev/client3/rdock/2013.1/src/exe/rbdock.cxx#4 $)

>  <Rbt.Library>
libRbt.so (2013.1, Build901 2013/11/27)

>  <Rbt.Parameter_File>
/export/apps/rDock/src/rDock_2013.1_src/data/scripts/dock_solv.prm

>  <Rbt.Receptor>
prm/blind_docking_20.prm

>  <SCORE>
-12.8104

>  <SCORE.INTER>
-1.03557

>  <SCORE.INTER.CONST>
1

>  <SCORE.INTER.POLAR>
0

>  <SCORE.INTER.ROT>
11

>  <SCORE.INTER.SOLV>
16.4609

>  <SCORE.INTER.VDW>
-17.1107

>  <SCORE.INTER.norm>
-0.0739692

>  <SCORE.INTRA>
-11.7748

>  <SCORE.INTRA.DIHEDRAL>
-22.6304

>  <SCORE.INTRA.DIHEDRAL.0>
25.9209

>  <SCORE.INTRA.POLAR>
0

>  <SCORE.INTRA.POLAR.0>
0

>  <SCORE.INTRA.REPUL>
0

>  <SCORE.INTRA.REPUL.0>
0

>  <SCORE.INTRA.SOLV>
-1.48639

>  <SCORE.INTRA.SOLV.lig_0>
-47.4815

>  <SCORE.INTRA.VDW>
0.283583

>  <SCORE.INTRA.VDW.0>
-1.57492

>  <SCORE.INTRA.norm>
-0.841058

>  <SCORE.RESTR>
0

>  <SCORE.RESTR.CAVITY>
0

>  <SCORE.RESTR.norm>
0

>  <SCORE.SYSTEM>
0

>  <SCORE.SYSTEM.CONST>
0

>  <SCORE.SYSTEM.DIHEDRAL>
0

>  <SCORE.SYSTEM.SOLV>
0

>  <SCORE.SYSTEM.norm>
0

>  <SCORE.heavy>
14

>  <SCORE.norm>
-0.915027

>  <RMSD>
52.404

$$$$
ligand
 OpenBabel11021811493D
libRbt.so/2013.1/901 2013/11/27
 14 13  0  0  0  0  0  0  0  0999 V2000
   -0.4846   10.5391   13.3027 N   0  0  0  0  0  0  0  0  0  0  0  0
   -0.8957    9.4281   14.1523 C   0  0  0  0  0  0  0  0  0  0  0  0
   -0.1261    8.1410   13.7866 C   0  0  0  0  0  0  0  0  0  0  0  0
   -0.4160    7.5991   12.3727 C   0  0  0  0  0  0  0  0  0  0  0  0
    0.0181    8.4029   11.2202 N   0  0  0  0  0  0  0  0  0  0  0  0
   -0.2054    7.9380    9.8468 C   0  0  0  0  0  0  0  0  0  0  0  0
    0.9766    8.1351    8.8931 C   0  0  0  0  0  0  0  0  0  0  0  0
    2.2286    7.3533    9.3254 C   0  0  0  0  0  0  0  0  0  0  0  0
    3.3815    7.4117    8.3105 C   0  0  0  0  0  0  0  0  0  0  0  0
    4.5488    6.5998    8.6620 N   0  0  0  0  0  0  0  0  0  0  0  0
    5.8467    6.8880    8.0272 C   0  0  0  0  0  0  0  0  0  0  0  0
    7.0367    5.9825    8.4239 C   0  0  0  0  0  0  0  0  0  0  0  0
    8.4142    6.4041    7.8736 C   0  0  0  0  0  0  0  0  0  0  0  0
    8.4912    6.3411    6.4170 N   0  0  0  0  0  0  0  0  0  0  0  0
  1  2  1  0  0  0  0
  2  3  1  0  0  0  0
  3  4  1  0  0  0  0
  4  5  1  0  0  0  0
  5  6  1  0  0  0  0
  6  7  1  0  0  0  0
  7  8  1  0  0  0  0
  8  9  1  0  0  0  0
  9 10  1  0  0  0  0
 10 11  1  0  0  0  0
 11 12  1  0  0  0  0
 12 13  1  0  0  0  0
 13 14  1  0  0  0  0
M  END
>  <CHROM.1>
-64.75380279,66.54151374,178.99381888,-136.98860988,62.08923018,173.83509553
-176.07074833,-160.79563346,-179.11903918,-173.19693425,-64.20507749,2.77232336
7.65442527,10.04392221,-2.52363671,0.16303355,-1.79135471

>  <Name>
ligand

>  <RI>
0

>  <Rbt.Current_Directory>
/home/itssahil/PROJECTS/Mol_Feturizer/New_Systems/rnas/4E8Q

>  <Rbt.Executable>
rbdock ($Id: //depot/dev/client3/rdock/2013.1/src/exe/rbdock.cxx#4 $)

>  <Rbt.Library>
libRbt.so (2013.1, Build901 2013/11/27)

>  <Rbt.Parameter_File>
/export/apps/rDock/src/rDock_2013.1_src/data/scripts/dock_solv.prm

>  <Rbt.Receptor>
prm/blind_docking_20.prm

>  <SCORE>
-11.1483

>  <SCORE.INTER>
-0.113156

>  <SCORE.INTER.CONST>
1

>  <SCORE.INTER.POLAR>
0

>  <SCORE.INTER.ROT>
11

>  <SCORE.INTER.SOLV>
10.2335

>  <SCORE.INTER.VDW>
-14.4199

>  <SCORE.INTER.norm>
-0.00808256

>  <SCORE.INTRA>
-11.0351

>  <SCORE.INTRA.DIHEDRAL>
-23.9449

>  <SCORE.INTRA.DIHEDRAL.0>
25.9209

>  <SCORE.INTRA.POLAR>
0

>  <SCORE.INTRA.POLAR.0>
0

>  <SCORE.INTRA.REPUL>
0

>  <SCORE.INTRA.REPUL.0>
0

>  <SCORE.INTRA.SOLV>
1.45584

>  <SCORE.INTRA.SOLV.lig_0>
-47.4815

>  <SCORE.INTRA.VDW>
0.209403

>  <SCORE.INTRA.VDW.0>
-1.57492

>  <SCORE.INTRA.norm>
-0.788225

>  <SCORE.RESTR>
0

>  <SCORE.RESTR.CAVITY>
0

>  <SCORE.RESTR.norm>
0

>  <SCORE.SYSTEM>
0

>  <SCORE.SYSTEM.CONST>
0

>  <SCORE.SYSTEM.DIHEDRAL>
0

>  <SCORE.SYSTEM.SOLV>
0

>  <SCORE.SYSTEM.norm>
0

>  <SCORE.heavy>
14

>  <SCORE.norm>
-0.796307

>  <RMSD>
52.490

$$$$
ligand
 OpenBabel11021811493D
libRbt.so/2013.1/901 2013/11/27
 14 13  0  0  0  0  0  0  0  0999 V2000
   -1.4289   10.3195   12.6455 N   0  0  0  0  0  0  0  0  0  0  0  0
   -0.7722    9.6753   13.7765 C   0  0  0  0  0  0  0  0  0  0  0  0
   -0.5715    8.1680   13.5114 C   0  0  0  0  0  0  0  0  0  0  0  0
    0.4409    7.8413   12.3956 C   0  0  0  0  0  0  0  0  0  0  0  0
    0.0829    8.1881   11.0120 N   0  0  0  0  0  0  0  0  0  0  0  0
    0.7911    7.5897    9.8750 C   0  0  0  0  0  0  0  0  0  0  0  0
    0.3678    8.1102    8.4983 C   0  0  0  0  0  0  0  0  0  0  0  0
    1.1228    7.4281    7.3447 C   0  0  0  0  0  0  0  0  0  0  0  0
    2.6116    7.8021    7.2668 C   0  0  0  0  0  0  0  0  0  0  0  0
    3.3932    7.4560    8.4562 N   0  0  0  0  0  0  0  0  0  0  0  0
    4.3942    6.3781    8.3742 C   0  0  0  0  0  0  0  0  0  0  0  0
    5.8345    6.7880    7.9856 C   0  0  0  0  0  0  0  0  0  0  0  0
    6.8688    5.6451    7.9395 C   0  0  0  0  0  0  0  0  0  0  0  0
    8.2033    6.0973    7.5572 N   0  0  0  0  0  0  0  0  0  0  0  0
  1  2  1  0  0  0  0
  2  3  1  0  0  0  0
  3  4  1  0  0  0  0
  4  5  1  0  0  0  0
  5  6  1  0  0  0  0
  6  7  1  0  0  0  0
  7  8  1  0  0  0  0
  8  9  1  0  0  0  0
  9 10  1  0  0  0  0
 10 11  1  0  0  0  0
 11 12  1  0  0  0  0
 12 13  1  0  0  0  0
 13 14  1  0  0  0  0
M  END
>  <CHROM.1>
67.80984470,-68.29091105,-162.66350662,-176.39356490,-178.85573408,-69.37577527
60.25828941,110.54798771,90.61336361,178.62207236,179.57074203,2.23832898
7.67749375,9.75982752,-2.51791601,0.30229920,-1.67475565

>  <Name>
ligand

>  <RI>
0

>  <Rbt.Current_Directory>
/home/itssahil/PROJECTS/Mol_Feturizer/New_Systems/rnas/4E8Q

>  <Rbt.Executable>
rbdock ($Id: //depot/dev/client3/rdock/2013.1/src/exe/rbdock.cxx#4 $)

>  <Rbt.Library>
libRbt.so (2013.1, Build901 2013/11/27)

>  <Rbt.Parameter_File>
/export/apps/rDock/src/rDock_2013.1_src/data/scripts/dock_solv.prm

>  <Rbt.Receptor>
prm/blind_docking_20.prm

>  <SCORE>
-8.9113

>  <SCORE.INTER>
1.35185

>  <SCORE.INTER.CONST>
1

>  <SCORE.INTER.POLAR>
0

>  <SCORE.INTER.ROT>
11

>  <SCORE.INTER.SOLV>
10.1324

>  <SCORE.INTER.VDW>
-13.4096

>  <SCORE.INTER.norm>
0.0965608

>  <SCORE.INTRA>
-10.2632

>  <SCORE.INTRA.DIHEDRAL>
-23.0743

>  <SCORE.INTRA.DIHEDRAL.0>
25.9209

>  <SCORE.INTRA.POLAR>
0

>  <SCORE.INTRA.POLAR.0>
0

>  <SCORE.INTRA.REPUL>
0

>  <SCORE.INTRA.REPUL.0>
0

>  <SCORE.INTRA.SOLV>
1.38434

>  <SCORE.INTRA.SOLV.lig_0>
-47.4815

>  <SCORE.INTRA.VDW>
0.581804

>  <SCORE.INTRA.VDW.0>
-1.57492

>  <SCORE.INTRA.norm>
-0.733082

>  <SCORE.RESTR>
0

>  <SCORE.RESTR.CAVITY>
0

>  <SCORE.RESTR.norm>
0

>  <SCORE.SYSTEM>
0

>  <SCORE.SYSTEM.CONST>
0

>  <SCORE.SYSTEM.DIHEDRAL>
0

>  <SCORE.SYSTEM.SOLV>
0

>  <SCORE.SYSTEM.norm>
0

>  <SCORE.heavy>
14

>  <SCORE.norm>
-0.636521

>  <RMSD>
52.929

$$$$
ligand
 OpenBabel11021811493D
libRbt.so/2013.1/901 2013/11/27
 14 13  0  0  0  0  0  0  0  0999 V2000
   -1.1612   11.9773   15.0996 N   0  0  0  0  0  0  0  0  0  0  0  0
   -0.3627   12.0875   13.8849 C   0  0  0  0  0  0  0  0  0  0  0  0
    0.3782   10.7657   13.5909 C   0  0  0  0  0  0  0  0  0  0  0  0
   -0.5376    9.5334   13.4513 C   0  0  0  0  0  0  0  0  0  0  0  0
    0.0922    8.2250   13.2183 N   0  0  0  0  0  0  0  0  0  0  0  0
    0.0066    7.5668   11.9099 C   0  0  0  0  0  0  0  0  0  0  0  0
    0.9769    8.0972   10.8504 C   0  0  0  0  0  0  0  0  0  0  0  0
    0.8971    7.3195    9.5258 C   0  0  0  0  0  0  0  0  0  0  0  0
    1.9086    7.7863    8.4668 C   0  0  0  0  0  0  0  0  0  0  0  0
    3.3131    7.6513    8.8598 N   0  0  0  0  0  0  0  0  0  0  0  0
    4.0914    6.4984    8.3744 C   0  0  0  0  0  0  0  0  0  0  0  0
    5.5954    6.7345    8.0993 C   0  0  0  0  0  0  0  0  0  0  0  0
    6.3945    5.5012    7.6321 C   0  0  0  0  0  0  0  0  0  0  0  0
    7.7965    5.8001    7.3551 N   0  0  0  0  0  0  0  0  0  0  0  0
  1  2  1  0  0  0  0
  2  3  1  0  0  0  0
  3  4  1  0  0  0  0
  4  5  1  0  0  0  0
  5  6  1  0  0  0  0
  6  7  1  0  0  0  0
  7  8  1  0  0  0  0
  8  9  1  0  0  0  0
  9 10  1  0  0  0  0
 10 11  1  0  0  0  0
 11 12  1  0  0  0  0
 12 13  1  0  0  0  0
 13 14  1  0  0  0  0
M  END
>  <CHROM.1>
57.28187358,-177.86184249,-107.81032508,79.15241956,176.80268604,-177.17638793
60.89124342,99.59368737,146.56038220,178.26687665,178.41034848,2.09903757
8.25308592,10.73687862,-2.28925899,-0.23229216,-2.40018052

>  <Name>
ligand

>  <RI>
0

>  <Rbt.Current_Directory>
/home/itssahil/PROJECTS/Mol_Feturizer/New_Systems/rnas/4E8Q

>  <Rbt.Executable>
rbdock ($Id: //depot/dev/client3/rdock/2013.1/src/exe/rbdock.cxx#4 $)

>  <Rbt.Library>
libRbt.so (2013.1, Build901 2013/11/27)

>  <Rbt.Parameter_File>
/export/apps/rDock/src/rDock_2013.1_src/data/scripts/dock_solv.prm

>  <Rbt.Receptor>
prm/blind_docking_20.prm

>  <SCORE>
-10.8221

>  <SCORE.INTER>
0.611618

>  <SCORE.INTER.CONST>
1

>  <SCORE.INTER.POLAR>
0

>  <SCORE.INTER.ROT>
11

>  <SCORE.INTER.SOLV>
11.1391

>  <SCORE.INTER.VDW>
-14.2386

>  <SCORE.INTER.norm>
0.043687

>  <SCORE.INTRA>
-11.4338

>  <SCORE.INTRA.DIHEDRAL>
-22.8244

>  <SCORE.INTRA.DIHEDRAL.0>
25.9209

>  <SCORE.INTRA.POLAR>
0

>  <SCORE.INTRA.POLAR.0>
0

>  <SCORE.INTRA.REPUL>
0

>  <SCORE.INTRA.REPUL.0>
0

>  <SCORE.INTRA.SOLV>
-1.00302

>  <SCORE.INTRA.SOLV.lig_0>
-47.4815

>  <SCORE.INTRA.VDW>
0.479941

>  <SCORE.INTRA.VDW.0>
-1.57492

>  <SCORE.INTRA.norm>
-0.816696

>  <SCORE.RESTR>
0

>  <SCORE.RESTR.CAVITY>
0

>  <SCORE.RESTR.norm>
0

>  <SCORE.SYSTEM>
0

>  <SCORE.SYSTEM.CONST>
0

>  <SCORE.SYSTEM.DIHEDRAL>
0

>  <SCORE.SYSTEM.SOLV>
0

>  <SCORE.SYSTEM.norm>
0

>  <SCORE.heavy>
14

>  <SCORE.norm>
-0.773009

>  <RMSD>
53.350

$$$$
ligand
 OpenBabel11021811493D
libRbt.so/2013.1/901 2013/11/27
 14 13  0  0  0  0  0  0  0  0999 V2000
    4.8630   17.7167   24.2922 N   0  0  0  0  0  0  0  0  0  0  0  0
    5.3687   19.0086   24.7398 C   0  0  0  0  0  0  0  0  0  0  0  0
    6.8519   19.1846   24.3502 C   0  0  0  0  0  0  0  0  0  0  0  0
    7.4860   20.5097   24.8179 C   0  0  0  0  0  0  0  0  0  0  0  0
    8.8824   20.7795   24.4437 N   0  0  0  0  0  0  0  0  0  0  0  0
    9.9763   19.9437   24.9512 C   0  0  0  0  0  0  0  0  0  0  0  0
   11.3049   20.6735   25.1692 C   0  0  0  0  0  0  0  0  0  0  0  0
   11.8453   21.3248   23.8849 C   0  0  0  0  0  0  0  0  0  0  0  0
   13.1585   22.0988   24.0832 C   0  0  0  0  0  0  0  0  0  0  0  0
   13.6010   22.8639   22.9152 N   0  0  0  0  0  0  0  0  0  0  0  0
   12.8322   24.0478   22.4937 C   0  0  0  0  0  0  0  0  0  0  0  0
   13.5332   25.0296   21.5250 C   0  0  0  0  0  0  0  0  0  0  0  0
   12.6722   26.2055   21.0210 C   0  0  0  0  0  0  0  0  0  0  0  0
   13.3630   27.0416   20.0437 N   0  0  0  0  0  0  0  0  0  0  0  0
  1  2  1  0  0  0  0
  2  3  1  0  0  0  0
  3  4  1  0  0  0  0
  4  5  1  0  0  0  0
  5  6  1  0  0  0  0
  6  7  1  0  0  0  0
  7  8  1  0  0  0  0
  8  9  1  0  0  0  0
  9 10  1  0  0  0  0
 10 11  1  0  0  0  0
 11 12  1  0  0  0  0
 12 13  1  0  0  0  0
 13 14  1  0  0  0  0
M  END
>  <CHROM.1>
-178.39118595,-177.72596206,-64.88409944,-147.74890051,-58.76547184,178.34533967
-172.71047644,69.04814126,163.64399707,175.79684235,-176.14974636,10.40998794
21.88763908,23.48101537,2.37170060,0.20428179,2.46977837

>  <Name>
ligand

>  <RI>
0

>  <Rbt.Current_Directory>
/home/itssahil/PROJECTS/Mol_Feturizer/New_Systems/rnas/4E8Q

>  <Rbt.Executable>
rbdock ($Id: //depot/dev/client3/rdock/2013.1/src/exe/rbdock.cxx#4 $)

>  <Rbt.Library>
libRbt.so (2013.1, Build901 2013/11/27)

>  <Rbt.Parameter_File>
/export/apps/rDock/src/rDock_2013.1_src/data/scripts/dock_solv.prm

>  <Rbt.Receptor>
prm/blind_docking_40.prm

>  <SCORE>
-17.3163

>  <SCORE.INTER>
-4.99672

>  <SCORE.INTER.CONST>
1

>  <SCORE.INTER.POLAR>
0

>  <SCORE.INTER.ROT>
11

>  <SCORE.INTER.SOLV>
11.6969

>  <SCORE.INTER.VDW>
-18.1634

>  <SCORE.INTER.norm>
-0.356908

>  <SCORE.INTRA>
-12.3196

>  <SCORE.INTRA.DIHEDRAL>
-24.5902

>  <SCORE.INTRA.DIHEDRAL.0>
25.9209

>  <SCORE.INTRA.POLAR>
0

>  <SCORE.INTRA.POLAR.0>
0

>  <SCORE.INTRA.REPUL>
0

>  <SCORE.INTRA.REPUL.0>
0

>  <SCORE.INTRA.SOLV>
-1.72873

>  <SCORE.INTRA.SOLV.lig_0>
-47.4815

>  <SCORE.INTRA.VDW>
0.839901

>  <SCORE.INTRA.VDW.0>
-1.57492

>  <SCORE.INTRA.norm>
-0.879969

>  <SCORE.RESTR>
0

>  <SCORE.RESTR.CAVITY>
0

>  <SCORE.RESTR.norm>
0

>  <SCORE.SYSTEM>
0

>  <SCORE.SYSTEM.CONST>
0

>  <SCORE.SYSTEM.DIHEDRAL>
0

>  <SCORE.SYSTEM.SOLV>
0

>  <SCORE.SYSTEM.norm>
0

>  <SCORE.heavy>
14

>  <SCORE.norm>
-1.23688

>  <RMSD>
53.724

$$$$
ligand
 OpenBabel11021811493D
libRbt.so/2013.1/901 2013/11/27
 14 13  0  0  0  0  0  0  0  0999 V2000
    6.1559   20.6109   22.6509 N   0  0  0  0  0  0  0  0  0  0  0  0
    7.3545   20.8658   23.4406 C   0  0  0  0  0  0  0  0  0  0  0  0
    7.9153   19.5539   24.0296 C   0  0  0  0  0  0  0  0  0  0  0  0
    9.1263   19.7362   24.9660 C   0  0  0  0  0  0  0  0  0  0  0  0
    9.7090   18.5370   25.5866 N   0  0  0  0  0  0  0  0  0  0  0  0
    8.9048   17.6664   26.4514 C   0  0  0  0  0  0  0  0  0  0  0  0
    9.6255   16.4176   26.9677 C   0  0  0  0  0  0  0  0  0  0  0  0
    9.9541   15.4136   25.8497 C   0  0  0  0  0  0  0  0  0  0  0  0
   10.6991   14.1604   26.3363 C   0  0  0  0  0  0  0  0  0  0  0  0
   11.0105   13.1868   25.2872 N   0  0  0  0  0  0  0  0  0  0  0  0
    9.9196   12.4018   24.6835 C   0  0  0  0  0  0  0  0  0  0  0  0
    9.0850   11.5141   25.6368 C   0  0  0  0  0  0  0  0  0  0  0  0
    7.9161   10.7456   24.9878 C   0  0  0  0  0  0  0  0  0  0  0  0
    7.1051   10.0144   25.9569 N   0  0  0  0  0  0  0  0  0  0  0  0
  1  2  1  0  0  0  0
  2  3  1  0  0  0  0
  3  4  1  0  0  0  0
  4  5  1  0  0  0  0
  5  6  1  0  0  0  0
  6  7  1  0  0  0  0
  7  8  1  0  0  0  0
  8  9  1  0  0  0  0
  9 10  1  0  0  0  0
 10 11  1  0  0  0  0
 11 12  1  0  0  0  0
 12 13  1  0  0  0  0
 13 14  1  0  0  0  0
M  END
>  <CHROM.1>
-175.75664333,179.07336532,-59.33232040,176.98792243,-67.23821768,179.03423695
179.49025783,-70.88883476,-59.31896301,177.73216022,-175.33884876,8.89164321
15.77325776,25.20235623,1.71736629,-0.57121452,-0.08569869

>  <Name>
ligand

>  <RI>
0

>  <Rbt.Current_Directory>
/home/itssahil/PROJECTS/Mol_Feturizer/New_Systems/rnas/4E8Q

>  <Rbt.Executable>
rbdock ($Id: //depot/dev/client3/rdock/2013.1/src/exe/rbdock.cxx#4 $)

>  <Rbt.Library>
libRbt.so (2013.1, Build901 2013/11/27)

>  <Rbt.Parameter_File>
/export/apps/rDock/src/rDock_2013.1_src/data/scripts/dock_solv.prm

>  <Rbt.Receptor>
prm/blind_docking_100.prm

>  <SCORE>
-15.5593

>  <SCORE.INTER>
-3.01354

>  <SCORE.INTER.CONST>
1

>  <SCORE.INTER.POLAR>
0

>  <SCORE.INTER.ROT>
11

>  <SCORE.INTER.SOLV>
14.4142

>  <SCORE.INTER.VDW>
-17.7471

>  <SCORE.INTER.norm>
-0.215253

>  <SCORE.INTRA>
-12.5457

>  <SCORE.INTRA.DIHEDRAL>
-25.4447

>  <SCORE.INTRA.DIHEDRAL.0>
25.9209

>  <SCORE.INTRA.POLAR>
0

>  <SCORE.INTRA.POLAR.0>
0

>  <SCORE.INTRA.REPUL>
0

>  <SCORE.INTRA.REPUL.0>
0

>  <SCORE.INTRA.SOLV>
-1.77827

>  <SCORE.INTRA.SOLV.lig_0>
-47.4815

>  <SCORE.INTRA.VDW>
1.06578

>  <SCORE.INTRA.VDW.0>
-1.57492

>  <SCORE.INTRA.norm>
-0.896124

>  <SCORE.RESTR>
0

>  <SCORE.RESTR.CAVITY>
0

>  <SCORE.RESTR.norm>
0

>  <SCORE.SYSTEM>
0

>  <SCORE.SYSTEM.CONST>
0

>  <SCORE.SYSTEM.DIHEDRAL>
0

>  <SCORE.SYSTEM.SOLV>
0

>  <SCORE.SYSTEM.norm>
0

>  <SCORE.heavy>
14

>  <SCORE.norm>
-1.11138

>  <RMSD>
53.897

$$$$
ligand
 OpenBabel11021811493D
libRbt.so/2013.1/901 2013/11/27
 14 13  0  0  0  0  0  0  0  0999 V2000
   10.2444   12.7401   38.1416 N   0  0  0  0  0  0  0  0  0  0  0  0
   10.7018   13.9228   37.4224 C   0  0  0  0  0  0  0  0  0  0  0  0
   12.0170   13.6342   36.6677 C   0  0  0  0  0  0  0  0  0  0  0  0
   11.8890   12.6099   35.5227 C   0  0  0  0  0  0  0  0  0  0  0  0
   13.1120   12.2108   34.8102 N   0  0  0  0  0  0  0  0  0  0  0  0
   14.0575   11.2597   35.4052 C   0  0  0  0  0  0  0  0  0  0  0  0
   14.8497   10.4165   34.4018 C   0  0  0  0  0  0  0  0  0  0  0  0
   15.7197    9.3441   35.0794 C   0  0  0  0  0  0  0  0  0  0  0  0
   16.8253    9.9164   35.9809 C   0  0  0  0  0  0  0  0  0  0  0  0
   17.5895    8.9128   36.7253 N   0  0  0  0  0  0  0  0  0  0  0  0
   18.8696    8.4287   36.1798 C   0  0  0  0  0  0  0  0  0  0  0  0
   18.7966    7.4724   34.9659 C   0  0  0  0  0  0  0  0  0  0  0  0
   20.1484    7.0903   34.3297 C   0  0  0  0  0  0  0  0  0  0  0  0
   20.0077    6.2042   33.1780 N   0  0  0  0  0  0  0  0  0  0  0  0
  1  2  1  0  0  0  0
  2  3  1  0  0  0  0
  3  4  1  0  0  0  0
  4  5  1  0  0  0  0
  5  6  1  0  0  0  0
  6  7  1  0  0  0  0
  7  8  1  0  0  0  0
  8  9  1  0  0  0  0
  9 10  1  0  0  0  0
 10 11  1  0  0  0  0
 11 12  1  0  0  0  0
 12 13  1  0  0  0  0
 13 14  1  0  0  0  0
M  END
>  <CHROM.1>
65.85809811,-176.01947222,77.24943953,150.94244509,-174.31333606,-63.61449158
174.94557353,95.83602149,-73.41970555,174.27414259,-179.08626942,15.34492075
10.29747154,35.62928896,-2.86314766,0.60084624,-1.69453113

>  <Name>
ligand

>  <RI>
0

>  <Rbt.Current_Directory>
/home/itssahil/PROJECTS/Mol_Feturizer/New_Systems/rnas/4E8Q

>  <Rbt.Executable>
rbdock ($Id: //depot/dev/client3/rdock/2013.1/src/exe/rbdock.cxx#4 $)

>  <Rbt.Library>
libRbt.so (2013.1, Build901 2013/11/27)

>  <Rbt.Parameter_File>
/export/apps/rDock/src/rDock_2013.1_src/data/scripts/dock_solv.prm

>  <Rbt.Receptor>
prm/blind_docking_60.prm

>  <SCORE>
-13.7092

>  <SCORE.INTER>
-2.25555

>  <SCORE.INTER.CONST>
1

>  <SCORE.INTER.POLAR>
0

>  <SCORE.INTER.ROT>
11

>  <SCORE.INTER.SOLV>
15.2383

>  <SCORE.INTER.VDW>
-17.5165

>  <SCORE.INTER.norm>
-0.161111

>  <SCORE.INTRA>
-11.4537

>  <SCORE.INTRA.DIHEDRAL>
-23.6124

>  <SCORE.INTRA.DIHEDRAL.0>
25.9209

>  <SCORE.INTRA.POLAR>
0

>  <SCORE.INTRA.POLAR.0>
0

>  <SCORE.INTRA.REPUL>
0

>  <SCORE.INTRA.REPUL.0>
0

>  <SCORE.INTRA.SOLV>
-1.28788

>  <SCORE.INTRA.SOLV.lig_0>
-47.4815

>  <SCORE.INTRA.VDW>
0.99645

>  <SCORE.INTRA.VDW.0>
-1.57492

>  <SCORE.INTRA.norm>
-0.818119

>  <SCORE.RESTR>
0

>  <SCORE.RESTR.CAVITY>
0

>  <SCORE.RESTR.norm>
0

>  <SCORE.SYSTEM>
0

>  <SCORE.SYSTEM.CONST>
0

>  <SCORE.SYSTEM.DIHEDRAL>
0

>  <SCORE.SYSTEM.SOLV>
0

>  <SCORE.SYSTEM.norm>
0

>  <SCORE.heavy>
14

>  <SCORE.norm>
-0.97923

>  <RMSD>
53.952

$$$$
ligand
 OpenBabel11021811493D
libRbt.so/2013.1/901 2013/11/27
 14 13  0  0  0  0  0  0  0  0999 V2000
    6.5170    5.6489    7.5873 N   0  0  0  0  0  0  0  0  0  0  0  0
    5.0721    5.8347    7.6424 C   0  0  0  0  0  0  0  0  0  0  0  0
    4.6867    7.2762    7.2473 C   0  0  0  0  0  0  0  0  0  0  0  0
    3.1692    7.5363    7.1677 C   0  0  0  0  0  0  0  0  0  0  0  0
    2.3796    7.4136    8.4022 N   0  0  0  0  0  0  0  0  0  0  0  0
    0.9829    7.8600    8.4542 C   0  0  0  0  0  0  0  0  0  0  0  0
    0.4355    8.1209    9.8605 C   0  0  0  0  0  0  0  0  0  0  0  0
    0.2347    6.8294   10.6714 C   0  0  0  0  0  0  0  0  0  0  0  0
   -0.3860    7.0549   12.0594 C   0  0  0  0  0  0  0  0  0  0  0  0
    0.4404    7.8391   12.9799 N   0  0  0  0  0  0  0  0  0  0  0  0
   -0.2071    8.7897   13.9006 C   0  0  0  0  0  0  0  0  0  0  0  0
   -0.4914   10.2094   13.3555 C   0  0  0  0  0  0  0  0  0  0  0  0
   -1.2245   11.1646   14.3189 C   0  0  0  0  0  0  0  0  0  0  0  0
   -2.5504   10.6859   14.6990 N   0  0  0  0  0  0  0  0  0  0  0  0
  1  2  1  0  0  0  0
  2  3  1  0  0  0  0
  3  4  1  0  0  0  0
  4  5  1  0  0  0  0
  5  6  1  0  0  0  0
  6  7  1  0  0  0  0
  7  8  1  0  0  0  0
  8  9  1  0  0  0  0
  9 10  1  0  0  0  0
 10 11  1  0  0  0  0
 11 12  1  0  0  0  0
 12 13  1  0  0  0  0
 13 14  1  0  0  0  0
M  END
>  <CHROM.1>
175.36787633,63.72298757,169.69843784,-160.14690815,-70.59976469,-176.83687633
-64.19263859,142.89513706,-85.88997187,177.44533351,-61.42764417,1.36120185
8.01888093,10.59601839,-0.77187571,-0.50773044,1.55903203

>  <Name>
ligand

>  <RI>
0

>  <Rbt.Current_Directory>
/home/itssahil/PROJECTS/Mol_Feturizer/New_Systems/rnas/4E8Q

>  <Rbt.Executable>
rbdock ($Id: //depot/dev/client3/rdock/2013.1/src/exe/rbdock.cxx#4 $)

>  <Rbt.Library>
libRbt.so (2013.1, Build901 2013/11/27)

>  <Rbt.Parameter_File>
/export/apps/rDock/src/rDock_2013.1_src/data/scripts/dock_solv.prm

>  <Rbt.Receptor>
prm/blind_docking_20.prm

>  <SCORE>
-10.1616

>  <SCORE.INTER>
1.75743

>  <SCORE.INTER.CONST>
1

>  <SCORE.INTER.POLAR>
0

>  <SCORE.INTER.ROT>
11

>  <SCORE.INTER.SOLV>
9.43108

>  <SCORE.INTER.VDW>
-12.9054

>  <SCORE.INTER.norm>
0.125531

>  <SCORE.INTRA>
-11.919

>  <SCORE.INTRA.DIHEDRAL>
-23.5619

>  <SCORE.INTRA.DIHEDRAL.0>
25.9209

>  <SCORE.INTRA.POLAR>
0

>  <SCORE.INTRA.POLAR.0>
0

>  <SCORE.INTRA.REPUL>
0

>  <SCORE.INTRA.REPUL.0>
0

>  <SCORE.INTRA.SOLV>
-0.532494

>  <SCORE.INTRA.SOLV.lig_0>
-47.4815

>  <SCORE.INTRA.VDW>
0.128221

>  <SCORE.INTRA.VDW.0>
-1.57492

>  <SCORE.INTRA.norm>
-0.851357

>  <SCORE.RESTR>
0

>  <SCORE.RESTR.CAVITY>
0

>  <SCORE.RESTR.norm>
0

>  <SCORE.SYSTEM>
0

>  <SCORE.SYSTEM.CONST>
0

>  <SCORE.SYSTEM.DIHEDRAL>
0

>  <SCORE.SYSTEM.SOLV>
0

>  <SCORE.SYSTEM.norm>
0

>  <SCORE.heavy>
14

>  <SCORE.norm>
-0.725826

>  <RMSD>
53.968

$$$$
ligand
 OpenBabel11021811493D
libRbt.so/2013.1/901 2013/11/27
 14 13  0  0  0  0  0  0  0  0999 V2000
    3.9151   19.0125   20.5969 N   0  0  0  0  0  0  0  0  0  0  0  0
    4.7737   17.8398   20.4842 C   0  0  0  0  0  0  0  0  0  0  0  0
    6.1463   18.0969   21.1418 C   0  0  0  0  0  0  0  0  0  0  0  0
    6.0856   18.4288   22.6461 C   0  0  0  0  0  0  0  0  0  0  0  0
    7.3533   18.6459   23.3593 N   0  0  0  0  0  0  0  0  0  0  0  0
    7.3795   19.2966   24.6741 C   0  0  0  0  0  0  0  0  0  0  0  0
    8.7659   19.4140   25.3140 C   0  0  0  0  0  0  0  0  0  0  0  0
    9.7493   20.2329   24.4605 C   0  0  0  0  0  0  0  0  0  0  0  0
   11.1143   20.4616   25.1291 C   0  0  0  0  0  0  0  0  0  0  0  0
   12.1235   21.0793   24.2657 N   0  0  0  0  0  0  0  0  0  0  0  0
   11.9318   22.4669   23.8092 C   0  0  0  0  0  0  0  0  0  0  0  0
   12.9407   23.0074   22.7683 C   0  0  0  0  0  0  0  0  0  0  0  0
   12.7357   24.4721   22.3318 C   0  0  0  0  0  0  0  0  0  0  0  0
   11.4187   24.7162   21.7508 N   0  0  0  0  0  0  0  0  0  0  0  0
  1  2  1  0  0  0  0
  2  3  1  0  0  0  0
  3  4  1  0  0  0  0
  4  5  1  0  0  0  0
  5  6  1  0  0  0  0
  6  7  1  0  0  0  0
  7  8  1  0  0  0  0
  8  9  1  0  0  0  0
  9 10  1  0  0  0  0
 10 11  1  0  0  0  0
 11 12  1  0  0  0  0
 12 13  1  0  0  0  0
 13 14  1  0  0  0  0
M  END
>  <CHROM.1>
60.32163132,178.10817225,163.93003376,178.14786385,60.23107905,175.40763482
172.11573851,66.53869403,-172.95311660,-178.67962990,-58.52126034,9.03110158
20.51206496,23.05249660,2.94903276,0.59928415,2.21402474

>  <Name>
ligand

>  <RI>
0

>  <Rbt.Current_Directory>
/home/itssahil/PROJECTS/Mol_Feturizer/New_Systems/rnas/4E8Q

>  <Rbt.Executable>
rbdock ($Id: //depot/dev/client3/rdock/2013.1/src/exe/rbdock.cxx#4 $)

>  <Rbt.Library>
libRbt.so (2013.1, Build901 2013/11/27)

>  <Rbt.Parameter_File>
/export/apps/rDock/src/rDock_2013.1_src/data/scripts/dock_solv.prm

>  <Rbt.Receptor>
prm/blind_docking_40.prm

>  <SCORE>
-16.4274

>  <SCORE.INTER>
-4.38559

>  <SCORE.INTER.CONST>
1

>  <SCORE.INTER.POLAR>
0

>  <SCORE.INTER.ROT>
11

>  <SCORE.INTER.SOLV>
17.7699

>  <SCORE.INTER.VDW>
-19.7804

>  <SCORE.INTER.norm>
-0.313256

>  <SCORE.INTRA>
-12.0418

>  <SCORE.INTRA.DIHEDRAL>
-25.2938

>  <SCORE.INTRA.DIHEDRAL.0>
25.9209

>  <SCORE.INTRA.POLAR>
0

>  <SCORE.INTRA.POLAR.0>
0

>  <SCORE.INTRA.REPUL>
0

>  <SCORE.INTRA.REPUL.0>
0

>  <SCORE.INTRA.SOLV>
-0.353739

>  <SCORE.INTRA.SOLV.lig_0>
-47.4815

>  <SCORE.INTRA.VDW>
0.781968

>  <SCORE.INTRA.VDW.0>
-1.57492

>  <SCORE.INTRA.norm>
-0.86013

>  <SCORE.RESTR>
0

>  <SCORE.RESTR.CAVITY>
0

>  <SCORE.RESTR.norm>
0

>  <SCORE.SYSTEM>
0

>  <SCORE.SYSTEM.CONST>
0

>  <SCORE.SYSTEM.DIHEDRAL>
0

>  <SCORE.SYSTEM.SOLV>
0

>  <SCORE.SYSTEM.norm>
0

>  <SCORE.heavy>
14

>  <SCORE.norm>
-1.17339

>  <RMSD>
54.031

$$$$
ligand
 OpenBabel11021811493D
libRbt.so/2013.1/901 2013/11/27
 14 13  0  0  0  0  0  0  0  0999 V2000
   -1.4301   10.1625   14.3104 N   0  0  0  0  0  0  0  0  0  0  0  0
   -0.0952   10.0803   13.7302 C   0  0  0  0  0  0  0  0  0  0  0  0
   -0.0487    9.0274   12.6024 C   0  0  0  0  0  0  0  0  0  0  0  0
   -0.3313    7.5828   13.0604 C   0  0  0  0  0  0  0  0  0  0  0  0
   -0.3038    6.5169   12.0475 N   0  0  0  0  0  0  0  0  0  0  0  0
   -1.4448    6.2949   11.1522 C   0  0  0  0  0  0  0  0  0  0  0  0
   -1.5772    7.3014   10.0056 C   0  0  0  0  0  0  0  0  0  0  0  0
   -0.4736    7.1464    8.9454 C   0  0  0  0  0  0  0  0  0  0  0  0
    0.9295    7.5250    9.4461 C   0  0  0  0  0  0  0  0  0  0  0  0
    1.9657    7.5402    8.4111 N   0  0  0  0  0  0  0  0  0  0  0  0
    3.3482    7.1766    8.7677 C   0  0  0  0  0  0  0  0  0  0  0  0
    4.4349    7.4167    7.6930 C   0  0  0  0  0  0  0  0  0  0  0  0
    5.8265    6.8285    8.0019 C   0  0  0  0  0  0  0  0  0  0  0  0
    5.8770    5.3762    7.8615 N   0  0  0  0  0  0  0  0  0  0  0  0
  1  2  1  0  0  0  0
  2  3  1  0  0  0  0
  3  4  1  0  0  0  0
  4  5  1  0  0  0  0
  5  6  1  0  0  0  0
  6  7  1  0  0  0  0
  7  8  1  0  0  0  0
  8  9  1  0  0  0  0
  9 10  1  0  0  0  0
 10 11  1  0  0  0  0
 11 12  1  0  0  0  0
 12 13  1  0  0  0  0
 13 14  1  0  0  0  0
M  END
>  <CHROM.1>
-63.27047202,-179.88760677,-79.35373313,76.50308915,69.89961177,-67.81082261
-172.94401827,-147.75261741,-170.95993356,-170.76856592,73.61068414,1.19108021
7.56975384,10.43100760,-2.40739322,-0.19960550,-2.17636005

>  <Name>
ligand

>  <RI>
0

>  <Rbt.Current_Directory>
/home/itssahil/PROJECTS/Mol_Feturizer/New_Systems/rnas/4E8Q

>  <Rbt.Executable>
rbdock ($Id: //depot/dev/client3/rdock/2013.1/src/exe/rbdock.cxx#4 $)

>  <Rbt.Library>
libRbt.so (2013.1, Build901 2013/11/27)

>  <Rbt.Parameter_File>
/export/apps/rDock/src/rDock_2013.1_src/data/scripts/dock_solv.prm

>  <Rbt.Receptor>
prm/blind_docking_20.prm

>  <SCORE>
-9.81656

>  <SCORE.INTER>
1.09861

>  <SCORE.INTER.CONST>
1

>  <SCORE.INTER.POLAR>
0

>  <SCORE.INTER.ROT>
11

>  <SCORE.INTER.SOLV>
8.9736

>  <SCORE.INTER.VDW>
-13.1921

>  <SCORE.INTER.norm>
0.078472

>  <SCORE.INTRA>
-10.9152

>  <SCORE.INTRA.DIHEDRAL>
-22.8621

>  <SCORE.INTRA.DIHEDRAL.0>
25.9209

>  <SCORE.INTRA.POLAR>
0

>  <SCORE.INTRA.POLAR.0>
0

>  <SCORE.INTRA.REPUL>
0

>  <SCORE.INTRA.REPUL.0>
0

>  <SCORE.INTRA.SOLV>
0.0697213

>  <SCORE.INTRA.SOLV.lig_0>
-47.4815

>  <SCORE.INTRA.VDW>
0.480996

>  <SCORE.INTRA.VDW.0>
-1.57492

>  <SCORE.INTRA.norm>
-0.779655

>  <SCORE.RESTR>
0

>  <SCORE.RESTR.CAVITY>
0

>  <SCORE.RESTR.norm>
0

>  <SCORE.SYSTEM>
0

>  <SCORE.SYSTEM.CONST>
0

>  <SCORE.SYSTEM.DIHEDRAL>
0

>  <SCORE.SYSTEM.SOLV>
0

>  <SCORE.SYSTEM.norm>
0

>  <SCORE.heavy>
14

>  <SCORE.norm>
-0.701183

>  <RMSD>
54.034

$$$$
ligand
 OpenBabel11021811493D
libRbt.so/2013.1/901 2013/11/27
 14 13  0  0  0  0  0  0  0  0999 V2000
   10.3659   13.4262   38.0482 N   0  0  0  0  0  0  0  0  0  0  0  0
   11.5484   13.6152   37.2167 C   0  0  0  0  0  0  0  0  0  0  0  0
   11.3712   12.9322   35.8439 C   0  0  0  0  0  0  0  0  0  0  0  0
   12.6302   12.9421   34.9543 C   0  0  0  0  0  0  0  0  0  0  0  0
   13.8371   12.2667   35.4543 N   0  0  0  0  0  0  0  0  0  0  0  0
   14.8809   11.8033   34.5333 C   0  0  0  0  0  0  0  0  0  0  0  0
   16.1102   11.1824   35.2030 C   0  0  0  0  0  0  0  0  0  0  0  0
   15.7687    9.9379   36.0400 C   0  0  0  0  0  0  0  0  0  0  0  0
   15.3439    8.7208   35.2028 C   0  0  0  0  0  0  0  0  0  0  0  0
   16.3704    8.2197   34.2860 N   0  0  0  0  0  0  0  0  0  0  0  0
   16.3574    6.7996   33.8938 C   0  0  0  0  0  0  0  0  0  0  0  0
   16.7793    5.7718   34.9704 C   0  0  0  0  0  0  0  0  0  0  0  0
   16.9095    4.3120   34.4909 C   0  0  0  0  0  0  0  0  0  0  0  0
   17.9774    4.1248   33.5131 N   0  0  0  0  0  0  0  0  0  0  0  0
  1  2  1  0  0  0  0
  2  3  1  0  0  0  0
  3  4  1  0  0  0  0
  4  5  1  0  0  0  0
  5  6  1  0  0  0  0
  6  7  1  0  0  0  0
  7  8  1  0  0  0  0
  8  9  1  0  0  0  0
  9 10  1  0  0  0  0
 10 11  1  0  0  0  0
 11 12  1  0  0  0  0
 12 13  1  0  0  0  0
 13 14  1  0  0  0  0
M  END
>  <CHROM.1>
-173.46216617,60.92262829,157.51435171,177.02946232,60.68104743,69.41148542
62.06047426,153.03284664,-72.08143334,-173.40393544,64.86039806,14.73222083
9.71829393,35.26074259,2.26609904,0.55969725,-0.13333198

>  <Name>
ligand

>  <RI>
0

>  <Rbt.Current_Directory>
/home/itssahil/PROJECTS/Mol_Feturizer/New_Systems/rnas/4E8Q

>  <Rbt.Executable>
rbdock ($Id: //depot/dev/client3/rdock/2013.1/src/exe/rbdock.cxx#4 $)

>  <Rbt.Library>
libRbt.so (2013.1, Build901 2013/11/27)

>  <Rbt.Parameter_File>
/export/apps/rDock/src/rDock_2013.1_src/data/scripts/dock_solv.prm

>  <Rbt.Receptor>
prm/blind_docking_60.prm

>  <SCORE>
-17.404

>  <SCORE.INTER>
-6.01452

>  <SCORE.INTER.CONST>
1

>  <SCORE.INTER.POLAR>
0

>  <SCORE.INTER.ROT>
11

>  <SCORE.INTER.SOLV>
10.3628

>  <SCORE.INTER.VDW>
-18.3973

>  <SCORE.INTER.norm>
-0.429608

>  <SCORE.INTRA>
-11.3895

>  <SCORE.INTRA.DIHEDRAL>
-24.1254

>  <SCORE.INTRA.DIHEDRAL.0>
25.9209

>  <SCORE.INTRA.POLAR>
0

>  <SCORE.INTRA.POLAR.0>
0

>  <SCORE.INTRA.REPUL>
0

>  <SCORE.INTRA.REPUL.0>
0

>  <SCORE.INTRA.SOLV>
-0.00730985

>  <SCORE.INTRA.SOLV.lig_0>
-47.4815

>  <SCORE.INTRA.VDW>
0.676879

>  <SCORE.INTRA.VDW.0>
-1.57492

>  <SCORE.INTRA.norm>
-0.813532

>  <SCORE.RESTR>
0

>  <SCORE.RESTR.CAVITY>
0

>  <SCORE.RESTR.norm>
0

>  <SCORE.SYSTEM>
0

>  <SCORE.SYSTEM.CONST>
0

>  <SCORE.SYSTEM.DIHEDRAL>
0

>  <SCORE.SYSTEM.SOLV>
0

>  <SCORE.SYSTEM.norm>
0

>  <SCORE.heavy>
14

>  <SCORE.norm>
-1.24314

>  <RMSD>
54.100

$$$$
ligand
 OpenBabel11021811493D
libRbt.so/2013.1/901 2013/11/27
 14 13  0  0  0  0  0  0  0  0999 V2000
    1.9452   12.4128   12.7236 N   0  0  0  0  0  0  0  0  0  0  0  0
    1.4704   11.7276   13.9196 C   0  0  0  0  0  0  0  0  0  0  0  0
    0.3062   10.7723   13.5814 C   0  0  0  0  0  0  0  0  0  0  0  0
   -0.2503    9.9864   14.7854 C   0  0  0  0  0  0  0  0  0  0  0  0
   -1.2959    8.9832   14.5345 N   0  0  0  0  0  0  0  0  0  0  0  0
   -0.9497    7.5947   14.2107 C   0  0  0  0  0  0  0  0  0  0  0  0
   -0.7728    7.2997   12.7183 C   0  0  0  0  0  0  0  0  0  0  0  0
    0.4953    7.9410   12.1298 C   0  0  0  0  0  0  0  0  0  0  0  0
    0.7295    7.6123   10.6467 C   0  0  0  0  0  0  0  0  0  0  0  0
    2.0150    8.0690   10.1135 N   0  0  0  0  0  0  0  0  0  0  0  0
    2.5734    7.4165    8.9165 C   0  0  0  0  0  0  0  0  0  0  0  0
    4.0960    7.5632    8.6848 C   0  0  0  0  0  0  0  0  0  0  0  0
    4.6455    6.9131    7.3990 C   0  0  0  0  0  0  0  0  0  0  0  0
    4.5152    5.4589    7.3934 N   0  0  0  0  0  0  0  0  0  0  0  0
  1  2  1  0  0  0  0
  2  3  1  0  0  0  0
  3  4  1  0  0  0  0
  4  5  1  0  0  0  0
  5  6  1  0  0  0  0
  6  7  1  0  0  0  0
  7  8  1  0  0  0  0
  8  9  1  0  0  0  0
  9 10  1  0  0  0  0
 10 11  1  0  0  0  0
 11 12  1  0  0  0  0
 12 13  1  0  0  0  0
 13 14  1  0  0  0  0
M  END
>  <CHROM.1>
179.19597832,-175.69589252,88.64229982,-89.75642903,70.37934958,177.56824324
-172.54705923,157.49715679,-159.07614800,-177.91864554,-64.83810643,1.39432706
8.55355884,11.55423788,-2.32815336,-0.73279298,-2.62172169

>  <Name>
ligand

>  <RI>
0

>  <Rbt.Current_Directory>
/home/itssahil/PROJECTS/Mol_Feturizer/New_Systems/rnas/4E8Q

>  <Rbt.Executable>
rbdock ($Id: //depot/dev/client3/rdock/2013.1/src/exe/rbdock.cxx#4 $)

>  <Rbt.Library>
libRbt.so (2013.1, Build901 2013/11/27)

>  <Rbt.Parameter_File>
/export/apps/rDock/src/rDock_2013.1_src/data/scripts/dock_solv.prm

>  <Rbt.Receptor>
prm/blind_docking_20.prm

>  <SCORE>
-9.72175

>  <SCORE.INTER>
2.1162

>  <SCORE.INTER.CONST>
1

>  <SCORE.INTER.POLAR>
0

>  <SCORE.INTER.ROT>
11

>  <SCORE.INTER.SOLV>
15.9367

>  <SCORE.INTER.VDW>
-14.8348

>  <SCORE.INTER.norm>
0.151157

>  <SCORE.INTRA>
-11.8426

>  <SCORE.INTRA.DIHEDRAL>
-23.2686

>  <SCORE.INTRA.DIHEDRAL.0>
25.9209

>  <SCORE.INTRA.POLAR>
0

>  <SCORE.INTRA.POLAR.0>
0

>  <SCORE.INTRA.REPUL>
0

>  <SCORE.INTRA.REPUL.0>
0

>  <SCORE.INTRA.SOLV>
-1.17574

>  <SCORE.INTRA.SOLV.lig_0>
-47.4815

>  <SCORE.INTRA.VDW>
0.379601

>  <SCORE.INTRA.VDW.0>
-1.57492

>  <SCORE.INTRA.norm>
-0.845898

>  <SCORE.RESTR>
0.00462858

>  <SCORE.RESTR.CAVITY>
0.00462858

>  <SCORE.RESTR.norm>
0.000330613

>  <SCORE.SYSTEM>
0

>  <SCORE.SYSTEM.CONST>
0

>  <SCORE.SYSTEM.DIHEDRAL>
0

>  <SCORE.SYSTEM.SOLV>
0

>  <SCORE.SYSTEM.norm>
0

>  <SCORE.heavy>
14

>  <SCORE.norm>
-0.694411

>  <RMSD>
54.155

$$$$
ligand
 OpenBabel11021811493D
libRbt.so/2013.1/901 2013/11/27
 14 13  0  0  0  0  0  0  0  0999 V2000
    5.9683    5.9673    7.2873 N   0  0  0  0  0  0  0  0  0  0  0  0
    4.8249    6.7249    7.7813 C   0  0  0  0  0  0  0  0  0  0  0  0
    3.8189    7.0074    6.6452 C   0  0  0  0  0  0  0  0  0  0  0  0
    2.6145    7.8778    7.0556 C   0  0  0  0  0  0  0  0  0  0  0  0
    1.7230    7.3736    8.1110 N   0  0  0  0  0  0  0  0  0  0  0  0
    0.5727    8.1607    8.5691 C   0  0  0  0  0  0  0  0  0  0  0  0
   -0.5161    7.3615    9.2911 C   0  0  0  0  0  0  0  0  0  0  0  0
   -0.0151    6.7116   10.5921 C   0  0  0  0  0  0  0  0  0  0  0  0
    0.4581    7.7203   11.6509 C   0  0  0  0  0  0  0  0  0  0  0  0
   -0.5648    8.6717   12.0910 N   0  0  0  0  0  0  0  0  0  0  0  0
   -0.2719    9.5793   13.2139 C   0  0  0  0  0  0  0  0  0  0  0  0
   -1.1999   10.8053   13.3840 C   0  0  0  0  0  0  0  0  0  0  0  0
   -0.8834   11.7267   14.5793 C   0  0  0  0  0  0  0  0  0  0  0  0
   -0.9748   11.0442   15.8667 N   0  0  0  0  0  0  0  0  0  0  0  0
  1  2  1  0  0  0  0
  2  3  1  0  0  0  0
  3  4  1  0  0  0  0
  4  5  1  0  0  0  0
  5  6  1  0  0  0  0
  6  7  1  0  0  0  0
  7  8  1  0  0  0  0
  8  9  1  0  0  0  0
  9 10  1  0  0  0  0
 10 11  1  0  0  0  0
 11 12  1  0  0  0  0
 12 13  1  0  0  0  0
 13 14  1  0  0  0  0
M  END
>  <CHROM.1>
-176.53111738,-60.72736556,178.82219199,160.06087778,62.71488458,62.12834146
59.81769807,172.84143427,163.41758725,179.12308428,-60.61004979,1.11086043
8.33805481,10.43686731,-1.01729653,0.05900765,1.03766241

>  <Name>
ligand

>  <RI>
0

>  <Rbt.Current_Directory>
/home/itssahil/PROJECTS/Mol_Feturizer/New_Systems/rnas/4E8Q

>  <Rbt.Executable>
rbdock ($Id: //depot/dev/client3/rdock/2013.1/src/exe/rbdock.cxx#4 $)

>  <Rbt.Library>
libRbt.so (2013.1, Build901 2013/11/27)

>  <Rbt.Parameter_File>
/export/apps/rDock/src/rDock_2013.1_src/data/scripts/dock_solv.prm

>  <Rbt.Receptor>
prm/blind_docking_20.prm

>  <SCORE>
-10.0563

>  <SCORE.INTER>
1.82711

>  <SCORE.INTER.CONST>
1

>  <SCORE.INTER.POLAR>
0

>  <SCORE.INTER.ROT>
11

>  <SCORE.INTER.SOLV>
5.93676

>  <SCORE.INTER.VDW>
-11.6942

>  <SCORE.INTER.norm>
0.130508

>  <SCORE.INTRA>
-11.8834

>  <SCORE.INTRA.DIHEDRAL>
-25.2688

>  <SCORE.INTRA.DIHEDRAL.0>
25.9209

>  <SCORE.INTRA.POLAR>
0

>  <SCORE.INTRA.POLAR.0>
0

>  <SCORE.INTRA.REPUL>
0

>  <SCORE.INTRA.REPUL.0>
0

>  <SCORE.INTRA.SOLV>
0.11087

>  <SCORE.INTRA.SOLV.lig_0>
-47.4815

>  <SCORE.INTRA.VDW>
0.695514

>  <SCORE.INTRA.VDW.0>
-1.57492

>  <SCORE.INTRA.norm>
-0.848818

>  <SCORE.RESTR>
0

>  <SCORE.RESTR.CAVITY>
0

>  <SCORE.RESTR.norm>
0

>  <SCORE.SYSTEM>
0

>  <SCORE.SYSTEM.CONST>
0

>  <SCORE.SYSTEM.DIHEDRAL>
0

>  <SCORE.SYSTEM.SOLV>
0

>  <SCORE.SYSTEM.norm>
0

>  <SCORE.heavy>
14

>  <SCORE.norm>
-0.71831

>  <RMSD>
54.184

$$$$
ligand
 OpenBabel11021811493D
libRbt.so/2013.1/901 2013/11/27
 14 13  0  0  0  0  0  0  0  0999 V2000
    7.0765   21.8875   24.1709 N   0  0  0  0  0  0  0  0  0  0  0  0
    6.9369   20.4390   24.0850 C   0  0  0  0  0  0  0  0  0  0  0  0
    7.7426   19.7408   25.2012 C   0  0  0  0  0  0  0  0  0  0  0  0
    7.6660   18.2012   25.1817 C   0  0  0  0  0  0  0  0  0  0  0  0
    8.3812   17.4586   26.2304 N   0  0  0  0  0  0  0  0  0  0  0  0
    9.8474   17.4482   26.2836 C   0  0  0  0  0  0  0  0  0  0  0  0
   10.4732   16.1170   26.7099 C   0  0  0  0  0  0  0  0  0  0  0  0
   10.1005   14.9556   25.7727 C   0  0  0  0  0  0  0  0  0  0  0  0
   10.8366   13.6426   26.0839 C   0  0  0  0  0  0  0  0  0  0  0  0
   10.5121   12.5310   25.1869 N   0  0  0  0  0  0  0  0  0  0  0  0
    9.3080   11.7224   25.4452 C   0  0  0  0  0  0  0  0  0  0  0  0
    9.2953   10.8795   26.7424 C   0  0  0  0  0  0  0  0  0  0  0  0
    8.0311   10.0286   26.9783 C   0  0  0  0  0  0  0  0  0  0  0  0
    6.8122   10.8278   27.0633 N   0  0  0  0  0  0  0  0  0  0  0  0
  1  2  1  0  0  0  0
  2  3  1  0  0  0  0
  3  4  1  0  0  0  0
  4  5  1  0  0  0  0
  5  6  1  0  0  0  0
  6  7  1  0  0  0  0
  7  8  1  0  0  0  0
  8  9  1  0  0  0  0
  9 10  1  0  0  0  0
 10 11  1  0  0  0  0
 11 12  1  0  0  0  0
 12 13  1  0  0  0  0
 13 14  1  0  0  0  0
M  END
>  <CHROM.1>
-179.42146631,-178.64446347,-67.78322427,-142.70794948,59.50720382,173.58894696
-178.98012969,-83.31895960,-65.67406056,-179.21950757,-60.09254530,8.78735798
15.41988144,25.79544390,1.71516230,-0.04984090,-0.17214208

>  <Name>
ligand

>  <RI>
0

>  <Rbt.Current_Directory>
/home/itssahil/PROJECTS/Mol_Feturizer/New_Systems/rnas/4E8Q

>  <Rbt.Executable>
rbdock ($Id: //depot/dev/client3/rdock/2013.1/src/exe/rbdock.cxx#4 $)

>  <Rbt.Library>
libRbt.so (2013.1, Build901 2013/11/27)

>  <Rbt.Parameter_File>
/export/apps/rDock/src/rDock_2013.1_src/data/scripts/dock_solv.prm

>  <Rbt.Receptor>
prm/blind_docking_100.prm

>  <SCORE>
-15.3641

>  <SCORE.INTER>
-3.41135

>  <SCORE.INTER.CONST>
1

>  <SCORE.INTER.POLAR>
0

>  <SCORE.INTER.ROT>
11

>  <SCORE.INTER.SOLV>
8.31379

>  <SCORE.INTER.VDW>
-15.9788

>  <SCORE.INTER.norm>
-0.243668

>  <SCORE.INTRA>
-11.9527

>  <SCORE.INTRA.DIHEDRAL>
-24.4414

>  <SCORE.INTRA.DIHEDRAL.0>
25.9209

>  <SCORE.INTRA.POLAR>
0

>  <SCORE.INTRA.POLAR.0>
0

>  <SCORE.INTRA.REPUL>
0

>  <SCORE.INTRA.REPUL.0>
0

>  <SCORE.INTRA.SOLV>
-1.06206

>  <SCORE.INTRA.SOLV.lig_0>
-47.4815

>  <SCORE.INTRA.VDW>
0.798978

>  <SCORE.INTRA.VDW.0>
-1.57492

>  <SCORE.INTRA.norm>
-0.853767

>  <SCORE.RESTR>
0

>  <SCORE.RESTR.CAVITY>
0

>  <SCORE.RESTR.norm>
0

>  <SCORE.SYSTEM>
0

>  <SCORE.SYSTEM.CONST>
0

>  <SCORE.SYSTEM.DIHEDRAL>
0

>  <SCORE.SYSTEM.SOLV>
0

>  <SCORE.SYSTEM.norm>
0

>  <SCORE.heavy>
14

>  <SCORE.norm>
-1.09743

>  <RMSD>
54.199

$$$$
ligand
 OpenBabel11021811493D
libRbt.so/2013.1/901 2013/11/27
 14 13  0  0  0  0  0  0  0  0999 V2000
    6.4895   10.6937   25.7718 N   0  0  0  0  0  0  0  0  0  0  0  0
    7.5704   10.1828   24.9375 C   0  0  0  0  0  0  0  0  0  0  0  0
    8.5006   11.3263   24.4799 C   0  0  0  0  0  0  0  0  0  0  0  0
    9.2993   11.9977   25.6148 C   0  0  0  0  0  0  0  0  0  0  0  0
   10.2007   13.1061   25.2658 N   0  0  0  0  0  0  0  0  0  0  0  0
   10.8172   13.9358   26.3069 C   0  0  0  0  0  0  0  0  0  0  0  0
    9.8699   14.9192   27.0006 C   0  0  0  0  0  0  0  0  0  0  0  0
    9.3571   16.0200   26.0566 C   0  0  0  0  0  0  0  0  0  0  0  0
    8.4479   17.0537   26.7401 C   0  0  0  0  0  0  0  0  0  0  0  0
    7.8764   18.0574   25.8394 N   0  0  0  0  0  0  0  0  0  0  0  0
    8.7721   19.0004   25.1473 C   0  0  0  0  0  0  0  0  0  0  0  0
    8.1027   20.1154   24.3093 C   0  0  0  0  0  0  0  0  0  0  0  0
    7.1381   19.6382   23.2048 C   0  0  0  0  0  0  0  0  0  0  0  0
    5.9292   19.0129   23.7330 N   0  0  0  0  0  0  0  0  0  0  0  0
  1  2  1  0  0  0  0
  2  3  1  0  0  0  0
  3  4  1  0  0  0  0
  4  5  1  0  0  0  0
  5  6  1  0  0  0  0
  6  7  1  0  0  0  0
  7  8  1  0  0  0  0
  8  9  1  0  0  0  0
  9 10  1  0  0  0  0
 10 11  1  0  0  0  0
 11 12  1  0  0  0  0
 12 13  1  0  0  0  0
 13 14  1  0  0  0  0
M  END
>  <CHROM.1>
66.51288032,-179.43375750,169.64583330,-73.40789362,-66.29827169,-177.70715599
-176.04018449,-64.31663105,-174.71063563,-56.83647375,67.51358899,8.45541746
15.36143865,25.31489003,1.44598414,0.55837638,3.09438455

>  <Name>
ligand

>  <RI>
0

>  <Rbt.Current_Directory>
/home/itssahil/PROJECTS/Mol_Feturizer/New_Systems/rnas/4E8Q

>  <Rbt.Executable>
rbdock ($Id: //depot/dev/client3/rdock/2013.1/src/exe/rbdock.cxx#4 $)

>  <Rbt.Library>
libRbt.so (2013.1, Build901 2013/11/27)

>  <Rbt.Parameter_File>
/export/apps/rDock/src/rDock_2013.1_src/data/scripts/dock_solv.prm

>  <Rbt.Receptor>
prm/blind_docking_40.prm

>  <SCORE>
-13.1995

>  <SCORE.INTER>
-2.06266

>  <SCORE.INTER.CONST>
1

>  <SCORE.INTER.POLAR>
0

>  <SCORE.INTER.ROT>
11

>  <SCORE.INTER.SOLV>
10.6204

>  <SCORE.INTER.VDW>
-15.8486

>  <SCORE.INTER.norm>
-0.147333

>  <SCORE.INTRA>
-11.1512

>  <SCORE.INTRA.DIHEDRAL>
-25.0162

>  <SCORE.INTRA.DIHEDRAL.0>
25.9209

>  <SCORE.INTRA.POLAR>
0

>  <SCORE.INTRA.POLAR.0>
0

>  <SCORE.INTRA.REPUL>
0

>  <SCORE.INTRA.REPUL.0>
0

>  <SCORE.INTRA.SOLV>
1.43353

>  <SCORE.INTRA.SOLV.lig_0>
-47.4815

>  <SCORE.INTRA.VDW>
0.640112

>  <SCORE.INTRA.VDW.0>
-1.57492

>  <SCORE.INTRA.norm>
-0.796517

>  <SCORE.RESTR>
0.0144196

>  <SCORE.RESTR.CAVITY>
0.0144196

>  <SCORE.RESTR.norm>
0.00102997

>  <SCORE.SYSTEM>
0

>  <SCORE.SYSTEM.CONST>
0

>  <SCORE.SYSTEM.DIHEDRAL>
0

>  <SCORE.SYSTEM.SOLV>
0

>  <SCORE.SYSTEM.norm>
0

>  <SCORE.heavy>
14

>  <SCORE.norm>
-0.94282

>  <RMSD>
54.200

$$$$
ligand
 OpenBabel11021811493D
libRbt.so/2013.1/901 2013/11/27
 14 13  0  0  0  0  0  0  0  0999 V2000
    6.9175   21.7934   24.0093 N   0  0  0  0  0  0  0  0  0  0  0  0
    7.9850   20.8025   24.0715 C   0  0  0  0  0  0  0  0  0  0  0  0
    7.7578   19.8208   25.2408 C   0  0  0  0  0  0  0  0  0  0  0  0
    8.8501   18.7442   25.3971 C   0  0  0  0  0  0  0  0  0  0  0  0
    8.6407   17.6845   26.3951 N   0  0  0  0  0  0  0  0  0  0  0  0
    8.8409   16.2722   26.0520 C   0  0  0  0  0  0  0  0  0  0  0  0
   10.2316   15.7162   26.3716 C   0  0  0  0  0  0  0  0  0  0  0  0
   10.4432   14.2917   25.8313 C   0  0  0  0  0  0  0  0  0  0  0  0
    9.5541   13.2321   26.5017 C   0  0  0  0  0  0  0  0  0  0  0  0
    9.6659   11.8881   25.9302 N   0  0  0  0  0  0  0  0  0  0  0  0
    9.5749   10.7159   26.8180 C   0  0  0  0  0  0  0  0  0  0  0  0
    8.1569   10.2720   27.2488 C   0  0  0  0  0  0  0  0  0  0  0  0
    7.2276    9.7978   26.1132 C   0  0  0  0  0  0  0  0  0  0  0  0
    6.8800   10.8628   25.1770 N   0  0  0  0  0  0  0  0  0  0  0  0
  1  2  1  0  0  0  0
  2  3  1  0  0  0  0
  3  4  1  0  0  0  0
  4  5  1  0  0  0  0
  5  6  1  0  0  0  0
  6  7  1  0  0  0  0
  7  8  1  0  0  0  0
  8  9  1  0  0  0  0
  9 10  1  0  0  0  0
 10 11  1  0  0  0  0
 11 12  1  0  0  0  0
 12 13  1  0  0  0  0
 13 14  1  0  0  0  0
M  END
>  <CHROM.1>
-179.24841282,-173.69344358,131.66381000,94.07133217,-172.70708787,-66.11145072
175.49144420,144.18690519,79.82976948,63.42883185,-65.75742918,8.62354027
15.13513676,25.79714028,1.63010016,-0.37228953,-0.14288160

>  <Name>
ligand

>  <RI>
0

>  <Rbt.Current_Directory>
/home/itssahil/PROJECTS/Mol_Feturizer/New_Systems/rnas/4E8Q

>  <Rbt.Executable>
rbdock ($Id: //depot/dev/client3/rdock/2013.1/src/exe/rbdock.cxx#4 $)

>  <Rbt.Library>
libRbt.so (2013.1, Build901 2013/11/27)

>  <Rbt.Parameter_File>
/export/apps/rDock/src/rDock_2013.1_src/data/scripts/dock_solv.prm

>  <Rbt.Receptor>
prm/blind_docking_100.prm

>  <SCORE>
-12.2561

>  <SCORE.INTER>
-2.24201

>  <SCORE.INTER.CONST>
1

>  <SCORE.INTER.POLAR>
0

>  <SCORE.INTER.ROT>
11

>  <SCORE.INTER.SOLV>
11.2167

>  <SCORE.INTER.VDW>
-16.1669

>  <SCORE.INTER.norm>
-0.160143

>  <SCORE.INTRA>
-10.0141

>  <SCORE.INTRA.DIHEDRAL>
-22.2765

>  <SCORE.INTRA.DIHEDRAL.0>
25.9209

>  <SCORE.INTRA.POLAR>
0

>  <SCORE.INTRA.POLAR.0>
0

>  <SCORE.INTRA.REPUL>
0

>  <SCORE.INTRA.REPUL.0>
0

>  <SCORE.INTRA.SOLV>
0.972398

>  <SCORE.INTRA.SOLV.lig_0>
-47.4815

>  <SCORE.INTRA.VDW>
0.637959

>  <SCORE.INTRA.VDW.0>
-1.57492

>  <SCORE.INTRA.norm>
-0.715292

>  <SCORE.RESTR>
0

>  <SCORE.RESTR.CAVITY>
0

>  <SCORE.RESTR.norm>
0

>  <SCORE.SYSTEM>
0

>  <SCORE.SYSTEM.CONST>
0

>  <SCORE.SYSTEM.DIHEDRAL>
0

>  <SCORE.SYSTEM.SOLV>
0

>  <SCORE.SYSTEM.norm>
0

>  <SCORE.heavy>
14

>  <SCORE.norm>
-0.875435

>  <RMSD>
54.300

$$$$
ligand
 OpenBabel11021811493D
libRbt.so/2013.1/901 2013/11/27
 14 13  0  0  0  0  0  0  0  0999 V2000
    2.7269   11.9160   14.0013 N   0  0  0  0  0  0  0  0  0  0  0  0
    1.7159   12.0457   12.9591 C   0  0  0  0  0  0  0  0  0  0  0  0
    0.2956   11.9273   13.5517 C   0  0  0  0  0  0  0  0  0  0  0  0
   -0.0030   10.5806   14.2400 C   0  0  0  0  0  0  0  0  0  0  0  0
    0.0643    9.3570   13.4269 N   0  0  0  0  0  0  0  0  0  0  0  0
   -1.0548    8.9590   12.5656 C   0  0  0  0  0  0  0  0  0  0  0  0
   -1.0574    7.4874   12.1414 C   0  0  0  0  0  0  0  0  0  0  0  0
    0.0883    7.1433   11.1745 C   0  0  0  0  0  0  0  0  0  0  0  0
   -0.0351    7.8150    9.7975 C   0  0  0  0  0  0  0  0  0  0  0  0
    0.9694    7.3937    8.8183 N   0  0  0  0  0  0  0  0  0  0  0  0
    1.0713    8.1094    7.5346 C   0  0  0  0  0  0  0  0  0  0  0  0
    1.4614    7.2709    6.2943 C   0  0  0  0  0  0  0  0  0  0  0  0
    2.8364    6.5758    6.3588 C   0  0  0  0  0  0  0  0  0  0  0  0
    3.9501    7.5175    6.4255 N   0  0  0  0  0  0  0  0  0  0  0  0
  1  2  1  0  0  0  0
  2  3  1  0  0  0  0
  3  4  1  0  0  0  0
  4  5  1  0  0  0  0
  5  6  1  0  0  0  0
  6  7  1  0  0  0  0
  7  8  1  0  0  0  0
  8  9  1  0  0  0  0
  9 10  1  0  0  0  0
 10 11  1  0  0  0  0
 11 12  1  0  0  0  0
 12 13  1  0  0  0  0
 13 14  1  0  0  0  0
M  END
>  <CHROM.1>
-61.03530430,-61.15728505,-80.85291807,-161.01212896,-68.70695509,-67.01899477
-174.03715540,-171.16919253,-145.80710502,-60.85620333,-63.90311234,0.93025033
8.86412671,10.66354019,-1.82172242,-0.65289153,-2.22350176

>  <Name>
ligand

>  <RI>
0

>  <Rbt.Current_Directory>
/home/itssahil/PROJECTS/Mol_Feturizer/New_Systems/rnas/4E8Q

>  <Rbt.Executable>
rbdock ($Id: //depot/dev/client3/rdock/2013.1/src/exe/rbdock.cxx#4 $)

>  <Rbt.Library>
libRbt.so (2013.1, Build901 2013/11/27)

>  <Rbt.Parameter_File>
/export/apps/rDock/src/rDock_2013.1_src/data/scripts/dock_solv.prm

>  <Rbt.Receptor>
prm/blind_docking_20.prm

>  <SCORE>
-7.30663

>  <SCORE.INTER>
3.21206

>  <SCORE.INTER.CONST>
1

>  <SCORE.INTER.POLAR>
0

>  <SCORE.INTER.ROT>
11

>  <SCORE.INTER.SOLV>
14.3227

>  <SCORE.INTER.VDW>
-13.5662

>  <SCORE.INTER.norm>
0.229433

>  <SCORE.INTRA>
-10.5187

>  <SCORE.INTRA.DIHEDRAL>
-23.8419

>  <SCORE.INTRA.DIHEDRAL.0>
25.9209

>  <SCORE.INTRA.POLAR>
0

>  <SCORE.INTRA.POLAR.0>
0

>  <SCORE.INTRA.REPUL>
0

>  <SCORE.INTRA.REPUL.0>
0

>  <SCORE.INTRA.SOLV>
1.66919

>  <SCORE.INTRA.SOLV.lig_0>
-47.4815

>  <SCORE.INTRA.VDW>
0.567651

>  <SCORE.INTRA.VDW.0>
-1.57492

>  <SCORE.INTRA.norm>
-0.751335

>  <SCORE.RESTR>
0

>  <SCORE.RESTR.CAVITY>
0

>  <SCORE.RESTR.norm>
0

>  <SCORE.SYSTEM>
0

>  <SCORE.SYSTEM.CONST>
0

>  <SCORE.SYSTEM.DIHEDRAL>
0

>  <SCORE.SYSTEM.SOLV>
0

>  <SCORE.SYSTEM.norm>
0

>  <SCORE.heavy>
14

>  <SCORE.norm>
-0.521902

>  <RMSD>
54.375

$$$$
ligand
 OpenBabel11021811493D
libRbt.so/2013.1/901 2013/11/27
 14 13  0  0  0  0  0  0  0  0999 V2000
   -2.9797    7.9134   17.1280 N   0  0  0  0  0  0  0  0  0  0  0  0
   -2.4352    7.3451   15.9009 C   0  0  0  0  0  0  0  0  0  0  0  0
   -0.9565    7.7476   15.7164 C   0  0  0  0  0  0  0  0  0  0  0  0
   -0.2840    7.1632   14.4583 C   0  0  0  0  0  0  0  0  0  0  0  0
   -0.8254    7.5414   13.1443 N   0  0  0  0  0  0  0  0  0  0  0  0
   -0.3323    8.7281   12.4363 C   0  0  0  0  0  0  0  0  0  0  0  0
    0.6733    8.4461   11.3162 C   0  0  0  0  0  0  0  0  0  0  0  0
    0.1204    7.4909   10.2449 C   0  0  0  0  0  0  0  0  0  0  0  0
    0.7577    7.6734    8.8581 C   0  0  0  0  0  0  0  0  0  0  0  0
    2.2022    7.4353    8.8117 N   0  0  0  0  0  0  0  0  0  0  0  0
    2.9304    7.6562    7.5502 C   0  0  0  0  0  0  0  0  0  0  0  0
    4.4392    7.3138    7.5433 C   0  0  0  0  0  0  0  0  0  0  0  0
    4.7884    5.8155    7.6482 C   0  0  0  0  0  0  0  0  0  0  0  0
    6.2118    5.5465    7.4668 N   0  0  0  0  0  0  0  0  0  0  0  0
  1  2  1  0  0  0  0
  2  3  1  0  0  0  0
  3  4  1  0  0  0  0
  4  5  1  0  0  0  0
  5  6  1  0  0  0  0
  6  7  1  0  0  0  0
  7  8  1  0  0  0  0
  8  9  1  0  0  0  0
  9 10  1  0  0  0  0
 10 11  1  0  0  0  0
 11 12  1  0  0  0  0
 12 13  1  0  0  0  0
 13 14  1  0  0  0  0
M  END
>  <CHROM.1>
178.61105712,62.11677882,89.31067588,100.81411139,57.23202166,153.34173265
61.11414717,-176.53861242,-176.75074686,68.88318163,172.71488070,1.02210912
7.41558762,11.30155088,-2.33364671,0.50239968,-1.27408675

>  <Name>
ligand

>  <RI>
0

>  <Rbt.Current_Directory>
/home/itssahil/PROJECTS/Mol_Feturizer/New_Systems/rnas/4E8Q

>  <Rbt.Executable>
rbdock ($Id: //depot/dev/client3/rdock/2013.1/src/exe/rbdock.cxx#4 $)

>  <Rbt.Library>
libRbt.so (2013.1, Build901 2013/11/27)

>  <Rbt.Parameter_File>
/export/apps/rDock/src/rDock_2013.1_src/data/scripts/dock_solv.prm

>  <Rbt.Receptor>
prm/blind_docking_20.prm

>  <SCORE>
-10.5213

>  <SCORE.INTER>
0.297399

>  <SCORE.INTER.CONST>
1

>  <SCORE.INTER.POLAR>
0

>  <SCORE.INTER.ROT>
11

>  <SCORE.INTER.SOLV>
8.02722

>  <SCORE.INTER.VDW>
-13.4108

>  <SCORE.INTER.norm>
0.0212428

>  <SCORE.INTRA>
-10.8202

>  <SCORE.INTRA.DIHEDRAL>
-21.3255

>  <SCORE.INTRA.DIHEDRAL.0>
25.9209

>  <SCORE.INTRA.POLAR>
0

>  <SCORE.INTRA.POLAR.0>
0

>  <SCORE.INTRA.REPUL>
0

>  <SCORE.INTRA.REPUL.0>
0

>  <SCORE.INTRA.SOLV>
-0.874112

>  <SCORE.INTRA.SOLV.lig_0>
-47.4815

>  <SCORE.INTRA.VDW>
0.279539

>  <SCORE.INTRA.VDW.0>
-1.57492

>  <SCORE.INTRA.norm>
-0.772874

>  <SCORE.RESTR>
0.00155684

>  <SCORE.RESTR.CAVITY>
0.00155684

>  <SCORE.RESTR.norm>
0.000111203

>  <SCORE.SYSTEM>
0

>  <SCORE.SYSTEM.CONST>
0

>  <SCORE.SYSTEM.DIHEDRAL>
0

>  <SCORE.SYSTEM.SOLV>
0

>  <SCORE.SYSTEM.norm>
0

>  <SCORE.heavy>
14

>  <SCORE.norm>
-0.75152

>  <RMSD>
54.381

$$$$
ligand
 OpenBabel11021811493D
libRbt.so/2013.1/901 2013/11/27
 14 13  0  0  0  0  0  0  0  0999 V2000
    6.3958   11.1956   25.3422 N   0  0  0  0  0  0  0  0  0  0  0  0
    7.5534   10.3222   25.1926 C   0  0  0  0  0  0  0  0  0  0  0  0
    8.4254   10.3406   26.4660 C   0  0  0  0  0  0  0  0  0  0  0  0
    9.0591   11.7079   26.7910 C   0  0  0  0  0  0  0  0  0  0  0  0
   10.0033   12.2820   25.8206 N   0  0  0  0  0  0  0  0  0  0  0  0
   10.7064   13.5386   26.1021 C   0  0  0  0  0  0  0  0  0  0  0  0
    9.8274   14.7926   26.0891 C   0  0  0  0  0  0  0  0  0  0  0  0
   10.5796   16.0530   26.5488 C   0  0  0  0  0  0  0  0  0  0  0  0
    9.7073   17.3178   26.5946 C   0  0  0  0  0  0  0  0  0  0  0  0
    8.5333   17.2210   27.4651 N   0  0  0  0  0  0  0  0  0  0  0  0
    7.4061   18.1479   27.2633 C   0  0  0  0  0  0  0  0  0  0  0  0
    6.4897   17.8815   26.0456 C   0  0  0  0  0  0  0  0  0  0  0  0
    7.1041   18.1833   24.6638 C   0  0  0  0  0  0  0  0  0  0  0  0
    7.3449   19.6064   24.4440 N   0  0  0  0  0  0  0  0  0  0  0  0
  1  2  1  0  0  0  0
  2  3  1  0  0  0  0
  3  4  1  0  0  0  0
  4  5  1  0  0  0  0
  5  6  1  0  0  0  0
  6  7  1  0  0  0  0
  7  8  1  0  0  0  0
  8  9  1  0  0  0  0
  9 10  1  0  0  0  0
 10 11  1  0  0  0  0
 11 12  1  0  0  0  0
 12 13  1  0  0  0  0
 13 14  1  0  0  0  0
M  END
>  <CHROM.1>
-63.77340961,-62.25903384,-176.19178080,-70.25698383,173.33085291,-177.88724977
58.15534970,-159.75745696,74.81308792,-71.38850226,-67.46254950,8.50987917
14.89924031,26.05931961,1.47050847,0.32736371,-3.11566795

>  <Name>
ligand

>  <RI>
0

>  <Rbt.Current_Directory>
/home/itssahil/PROJECTS/Mol_Feturizer/New_Systems/rnas/4E8Q

>  <Rbt.Executable>
rbdock ($Id: //depot/dev/client3/rdock/2013.1/src/exe/rbdock.cxx#4 $)

>  <Rbt.Library>
libRbt.so (2013.1, Build901 2013/11/27)

>  <Rbt.Parameter_File>
/export/apps/rDock/src/rDock_2013.1_src/data/scripts/dock_solv.prm

>  <Rbt.Receptor>
prm/blind_docking_60.prm

>  <SCORE>
-12.8208

>  <SCORE.INTER>
-1.88574

>  <SCORE.INTER.CONST>
1

>  <SCORE.INTER.POLAR>
0

>  <SCORE.INTER.ROT>
11

>  <SCORE.INTER.SOLV>
10.121

>  <SCORE.INTER.VDW>
-15.5642

>  <SCORE.INTER.norm>
-0.134696

>  <SCORE.INTRA>
-10.935

>  <SCORE.INTRA.DIHEDRAL>
-24.3909

>  <SCORE.INTRA.DIHEDRAL.0>
25.9209

>  <SCORE.INTRA.POLAR>
0

>  <SCORE.INTRA.POLAR.0>
0

>  <SCORE.INTRA.REPUL>
0

>  <SCORE.INTRA.REPUL.0>
0

>  <SCORE.INTRA.SOLV>
1.69707

>  <SCORE.INTRA.SOLV.lig_0>
-47.4815

>  <SCORE.INTRA.VDW>
0.411873

>  <SCORE.INTRA.VDW.0>
-1.57492

>  <SCORE.INTRA.norm>
-0.781073

>  <SCORE.RESTR>
0

>  <SCORE.RESTR.CAVITY>
0

>  <SCORE.RESTR.norm>
0

>  <SCORE.SYSTEM>
0

>  <SCORE.SYSTEM.CONST>
0

>  <SCORE.SYSTEM.DIHEDRAL>
0

>  <SCORE.SYSTEM.SOLV>
0

>  <SCORE.SYSTEM.norm>
0

>  <SCORE.heavy>
14

>  <SCORE.norm>
-0.915769

>  <RMSD>
54.427

$$$$
ligand
 OpenBabel11021811493D
libRbt.so/2013.1/901 2013/11/27
 14 13  0  0  0  0  0  0  0  0999 V2000
    2.4373   12.3783   13.8089 N   0  0  0  0  0  0  0  0  0  0  0  0
    1.2571   11.5585   14.0543 C   0  0  0  0  0  0  0  0  0  0  0  0
   -0.0066   12.2224   13.4671 C   0  0  0  0  0  0  0  0  0  0  0  0
   -1.2574   11.3213   13.4516 C   0  0  0  0  0  0  0  0  0  0  0  0
   -1.2463   10.1355   12.5818 N   0  0  0  0  0  0  0  0  0  0  0  0
   -0.4527    8.9510   12.9281 C   0  0  0  0  0  0  0  0  0  0  0  0
    0.2065    8.2406   11.7423 C   0  0  0  0  0  0  0  0  0  0  0  0
   -0.8091    7.7820   10.6821 C   0  0  0  0  0  0  0  0  0  0  0  0
   -0.1710    7.0996    9.4615 C   0  0  0  0  0  0  0  0  0  0  0  0
    0.7471    7.9466    8.6966 N   0  0  0  0  0  0  0  0  0  0  0  0
    1.1338    7.5451    7.3329 C   0  0  0  0  0  0  0  0  0  0  0  0
    2.4892    8.0723    6.8053 C   0  0  0  0  0  0  0  0  0  0  0  0
    3.7428    7.5546    7.5392 C   0  0  0  0  0  0  0  0  0  0  0  0
    3.9592    6.1219    7.3598 N   0  0  0  0  0  0  0  0  0  0  0  0
  1  2  1  0  0  0  0
  2  3  1  0  0  0  0
  3  4  1  0  0  0  0
  4  5  1  0  0  0  0
  5  6  1  0  0  0  0
  6  7  1  0  0  0  0
  7  8  1  0  0  0  0
  8  9  1  0  0  0  0
  9 10  1  0  0  0  0
 10 11  1  0  0  0  0
 11 12  1  0  0  0  0
 12 13  1  0  0  0  0
 13 14  1  0  0  0  0
M  END
>  <CHROM.1>
169.56119516,-66.15176157,73.70294015,-142.60248267,-57.88017895,178.41016461
-61.51630444,-163.72629670,-154.65469890,65.50011826,66.28804191,0.85903763
9.06638072,10.70799744,-1.89977701,-0.37126706,-2.29254649

>  <Name>
ligand

>  <RI>
0

>  <Rbt.Current_Directory>
/home/itssahil/PROJECTS/Mol_Feturizer/New_Systems/rnas/4E8Q

>  <Rbt.Executable>
rbdock ($Id: //depot/dev/client3/rdock/2013.1/src/exe/rbdock.cxx#4 $)

>  <Rbt.Library>
libRbt.so (2013.1, Build901 2013/11/27)

>  <Rbt.Parameter_File>
/export/apps/rDock/src/rDock_2013.1_src/data/scripts/dock_solv.prm

>  <Rbt.Receptor>
prm/blind_docking_20.prm

>  <SCORE>
-8.69971

>  <SCORE.INTER>
2.57628

>  <SCORE.INTER.CONST>
1

>  <SCORE.INTER.POLAR>
0

>  <SCORE.INTER.ROT>
11

>  <SCORE.INTER.SOLV>
13.9032

>  <SCORE.INTER.VDW>
-13.8502

>  <SCORE.INTER.norm>
0.18402

>  <SCORE.INTRA>
-11.276

>  <SCORE.INTRA.DIHEDRAL>
-23.444

>  <SCORE.INTRA.DIHEDRAL.0>
25.9209

>  <SCORE.INTRA.POLAR>
0

>  <SCORE.INTRA.POLAR.0>
0

>  <SCORE.INTRA.REPUL>
0

>  <SCORE.INTRA.REPUL.0>
0

>  <SCORE.INTRA.SOLV>
0.413372

>  <SCORE.INTRA.SOLV.lig_0>
-47.4815

>  <SCORE.INTRA.VDW>
0.239297

>  <SCORE.INTRA.VDW.0>
-1.57492

>  <SCORE.INTRA.norm>
-0.805428

>  <SCORE.RESTR>
0

>  <SCORE.RESTR.CAVITY>
0

>  <SCORE.RESTR.norm>
0

>  <SCORE.SYSTEM>
0

>  <SCORE.SYSTEM.CONST>
0

>  <SCORE.SYSTEM.DIHEDRAL>
0

>  <SCORE.SYSTEM.SOLV>
0

>  <SCORE.SYSTEM.norm>
0

>  <SCORE.heavy>
14

>  <SCORE.norm>
-0.621408

>  <RMSD>
54.501

$$$$
ligand
 OpenBabel11021811493D
libRbt.so/2013.1/901 2013/11/27
 14 13  0  0  0  0  0  0  0  0999 V2000
    4.1593    5.9367    7.5638 N   0  0  0  0  0  0  0  0  0  0  0  0
    4.1109    7.3884    7.6883 C   0  0  0  0  0  0  0  0  0  0  0  0
    2.9896    7.9796    6.8077 C   0  0  0  0  0  0  0  0  0  0  0  0
    1.5610    7.7157    7.3238 C   0  0  0  0  0  0  0  0  0  0  0  0
    1.1880    8.2588    8.6386 N   0  0  0  0  0  0  0  0  0  0  0  0
   -0.2109    8.2760    9.0805 C   0  0  0  0  0  0  0  0  0  0  0  0
   -0.7471    6.9365    9.5940 C   0  0  0  0  0  0  0  0  0  0  0  0
   -0.0718    6.4850   10.9002 C   0  0  0  0  0  0  0  0  0  0  0  0
   -0.6220    7.1764   12.1579 C   0  0  0  0  0  0  0  0  0  0  0  0
   -0.3270    8.6083   12.2483 N   0  0  0  0  0  0  0  0  0  0  0  0
   -0.1618    9.2293   13.5741 C   0  0  0  0  0  0  0  0  0  0  0  0
   -0.1519   10.7755   13.6268 C   0  0  0  0  0  0  0  0  0  0  0  0
    0.0628   11.3987   15.0209 C   0  0  0  0  0  0  0  0  0  0  0  0
   -0.9388   10.9769   15.9957 N   0  0  0  0  0  0  0  0  0  0  0  0
  1  2  1  0  0  0  0
  2  3  1  0  0  0  0
  3  4  1  0  0  0  0
  4  5  1  0  0  0  0
  5  6  1  0  0  0  0
  6  7  1  0  0  0  0
  7  8  1  0  0  0  0
  8  9  1  0  0  0  0
  9 10  1  0  0  0  0
 10 11  1  0  0  0  0
 11 12  1  0  0  0  0
 12 13  1  0  0  0  0
 13 14  1  0  0  0  0
M  END
>  <CHROM.1>
72.18657580,61.66431841,168.06247322,78.60892017,66.63578211,79.67551635
-67.65129460,-149.30124005,-167.39777428,-178.31818900,-57.84703655,0.77420388
8.36724741,10.72988269,-1.10554411,0.52760648,0.90055945

>  <Name>
ligand

>  <RI>
0

>  <Rbt.Current_Directory>
/home/itssahil/PROJECTS/Mol_Feturizer/New_Systems/rnas/4E8Q

>  <Rbt.Executable>
rbdock ($Id: //depot/dev/client3/rdock/2013.1/src/exe/rbdock.cxx#4 $)

>  <Rbt.Library>
libRbt.so (2013.1, Build901 2013/11/27)

>  <Rbt.Parameter_File>
/export/apps/rDock/src/rDock_2013.1_src/data/scripts/dock_solv.prm

>  <Rbt.Receptor>
prm/blind_docking_20.prm

>  <SCORE>
-7.75007

>  <SCORE.INTER>
2.30092

>  <SCORE.INTER.CONST>
1

>  <SCORE.INTER.POLAR>
0

>  <SCORE.INTER.ROT>
11

>  <SCORE.INTER.SOLV>
7.34428

>  <SCORE.INTER.VDW>
-11.8475

>  <SCORE.INTER.norm>
0.164352

>  <SCORE.INTRA>
-10.051

>  <SCORE.INTRA.DIHEDRAL>
-22.3462

>  <SCORE.INTRA.DIHEDRAL.0>
25.9209

>  <SCORE.INTRA.POLAR>
0

>  <SCORE.INTRA.POLAR.0>
0

>  <SCORE.INTRA.REPUL>
0

>  <SCORE.INTRA.REPUL.0>
0

>  <SCORE.INTRA.SOLV>
1.53525

>  <SCORE.INTRA.SOLV.lig_0>
-47.4815

>  <SCORE.INTRA.VDW>
0.354472

>  <SCORE.INTRA.VDW.0>
-1.57492

>  <SCORE.INTRA.norm>
-0.717928

>  <SCORE.RESTR>
0

>  <SCORE.RESTR.CAVITY>
0

>  <SCORE.RESTR.norm>
0

>  <SCORE.SYSTEM>
0

>  <SCORE.SYSTEM.CONST>
0

>  <SCORE.SYSTEM.DIHEDRAL>
0

>  <SCORE.SYSTEM.SOLV>
0

>  <SCORE.SYSTEM.norm>
0

>  <SCORE.heavy>
14

>  <SCORE.norm>
-0.553576

>  <RMSD>
54.529

$$$$
ligand
 OpenBabel11021811493D
libRbt.so/2013.1/901 2013/11/27
 14 13  0  0  0  0  0  0  0  0999 V2000
    2.9801   15.8885   19.7222 N   0  0  0  0  0  0  0  0  0  0  0  0
    3.8332   16.5650   20.6916 C   0  0  0  0  0  0  0  0  0  0  0  0
    4.9440   17.3682   19.9820 C   0  0  0  0  0  0  0  0  0  0  0  0
    5.9506   18.0488   20.9308 C   0  0  0  0  0  0  0  0  0  0  0  0
    5.4224   18.9155   21.9951 N   0  0  0  0  0  0  0  0  0  0  0  0
    6.2575   19.9541   22.6087 C   0  0  0  0  0  0  0  0  0  0  0  0
    7.4833   19.4385   23.3681 C   0  0  0  0  0  0  0  0  0  0  0  0
    8.3123   20.5693   24.0005 C   0  0  0  0  0  0  0  0  0  0  0  0
    9.6452   20.1013   24.6064 C   0  0  0  0  0  0  0  0  0  0  0  0
    9.5212   19.0596   25.6286 N   0  0  0  0  0  0  0  0  0  0  0  0
   10.7198   18.6270   26.3680 C   0  0  0  0  0  0  0  0  0  0  0  0
   10.6216   17.2901   27.1404 C   0  0  0  0  0  0  0  0  0  0  0  0
   10.2855   16.0471   26.2918 C   0  0  0  0  0  0  0  0  0  0  0  0
   10.1625   14.8288   27.0868 N   0  0  0  0  0  0  0  0  0  0  0  0
  1  2  1  0  0  0  0
  2  3  1  0  0  0  0
  3  4  1  0  0  0  0
  4  5  1  0  0  0  0
  5  6  1  0  0  0  0
  6  7  1  0  0  0  0
  7  8  1  0  0  0  0
  8  9  1  0  0  0  0
  9 10  1  0  0  0  0
 10 11  1  0  0  0  0
 11 12  1  0  0  0  0
 12 13  1  0  0  0  0
 13 14  1  0  0  0  0
M  END
>  <CHROM.1>
-176.39863734,-53.16123855,-157.57369521,-63.52406973,-179.44394208,-172.23243301
-57.08754262,-174.22200326,-163.83520983,58.95642685,-178.01602656,7.58160285
18.05048916,23.60148216,3.03071038,-0.77685354,-0.19707417

>  <Name>
ligand

>  <RI>
0

>  <Rbt.Current_Directory>
/home/itssahil/PROJECTS/Mol_Feturizer/New_Systems/rnas/4E8Q

>  <Rbt.Executable>
rbdock ($Id: //depot/dev/client3/rdock/2013.1/src/exe/rbdock.cxx#4 $)

>  <Rbt.Library>
libRbt.so (2013.1, Build901 2013/11/27)

>  <Rbt.Parameter_File>
/export/apps/rDock/src/rDock_2013.1_src/data/scripts/dock_solv.prm

>  <Rbt.Receptor>
prm/blind_docking_80.prm

>  <SCORE>
-14.4663

>  <SCORE.INTER>
-2.05932

>  <SCORE.INTER.CONST>
1

>  <SCORE.INTER.POLAR>
0

>  <SCORE.INTER.ROT>
11

>  <SCORE.INTER.SOLV>
14.5807

>  <SCORE.INTER.VDW>
-17.1665

>  <SCORE.INTER.norm>
-0.147094

>  <SCORE.INTRA>
-12.407

>  <SCORE.INTRA.DIHEDRAL>
-24.787

>  <SCORE.INTRA.DIHEDRAL.0>
25.9209

>  <SCORE.INTRA.POLAR>
0

>  <SCORE.INTRA.POLAR.0>
0

>  <SCORE.INTRA.REPUL>
0

>  <SCORE.INTRA.REPUL.0>
0

>  <SCORE.INTRA.SOLV>
-1.12784

>  <SCORE.INTRA.SOLV.lig_0>
-47.4815

>  <SCORE.INTRA.VDW>
0.550417

>  <SCORE.INTRA.VDW.0>
-1.57492

>  <SCORE.INTRA.norm>
-0.886216

>  <SCORE.RESTR>
0

>  <SCORE.RESTR.CAVITY>
0

>  <SCORE.RESTR.norm>
0

>  <SCORE.SYSTEM>
0

>  <SCORE.SYSTEM.CONST>
0

>  <SCORE.SYSTEM.DIHEDRAL>
0

>  <SCORE.SYSTEM.SOLV>
0

>  <SCORE.SYSTEM.norm>
0

>  <SCORE.heavy>
14

>  <SCORE.norm>
-1.03331

>  <RMSD>
54.575

$$$$
ligand
 OpenBabel11021811493D
libRbt.so/2013.1/901 2013/11/27
 14 13  0  0  0  0  0  0  0  0999 V2000
    1.4228    6.8358    6.2925 N   0  0  0  0  0  0  0  0  0  0  0  0
    2.1787    8.0629    6.5114 C   0  0  0  0  0  0  0  0  0  0  0  0
    3.5735    7.7538    7.0957 C   0  0  0  0  0  0  0  0  0  0  0  0
    3.5554    7.1228    8.5022 C   0  0  0  0  0  0  0  0  0  0  0  0
    2.9335    7.8850    9.5954 N   0  0  0  0  0  0  0  0  0  0  0  0
    1.5229    7.6882    9.9476 C   0  0  0  0  0  0  0  0  0  0  0  0
    0.9996    8.5937   11.0664 C   0  0  0  0  0  0  0  0  0  0  0  0
   -0.4547    8.2795   11.4568 C   0  0  0  0  0  0  0  0  0  0  0  0
   -0.6109    7.0107   12.3101 C   0  0  0  0  0  0  0  0  0  0  0  0
   -0.0970    7.1247   13.6770 N   0  0  0  0  0  0  0  0  0  0  0  0
   -1.0062    7.5439   14.7578 C   0  0  0  0  0  0  0  0  0  0  0  0
   -0.5700    8.7613   15.6071 C   0  0  0  0  0  0  0  0  0  0  0  0
   -0.4946   10.1086   14.8607 C   0  0  0  0  0  0  0  0  0  0  0  0
   -1.8047   10.6156   14.4631 N   0  0  0  0  0  0  0  0  0  0  0  0
  1  2  1  0  0  0  0
  2  3  1  0  0  0  0
  3  4  1  0  0  0  0
  4  5  1  0  0  0  0
  5  6  1  0  0  0  0
  6  7  1  0  0  0  0
  7  8  1  0  0  0  0
  8  9  1  0  0  0  0
  9 10  1  0  0  0  0
 10 11  1  0  0  0  0
 11 12  1  0  0  0  0
 12 13  1  0  0  0  0
 13 14  1  0  0  0  0
M  END
>  <CHROM.1>
-64.74775379,-60.01167104,93.21692458,-177.51078419,-176.16744665,75.91594675
70.26642522,92.17621815,-125.42713841,65.42781887,68.78843506,0.79636751
8.09903957,11.15317732,-0.04755293,-1.12222214,2.89954041

>  <Name>
ligand

>  <RI>
0

>  <Rbt.Current_Directory>
/home/itssahil/PROJECTS/Mol_Feturizer/New_Systems/rnas/4E8Q

>  <Rbt.Executable>
rbdock ($Id: //depot/dev/client3/rdock/2013.1/src/exe/rbdock.cxx#4 $)

>  <Rbt.Library>
libRbt.so (2013.1, Build901 2013/11/27)

>  <Rbt.Parameter_File>
/export/apps/rDock/src/rDock_2013.1_src/data/scripts/dock_solv.prm

>  <Rbt.Receptor>
prm/blind_docking_20.prm

>  <SCORE>
-7.1447

>  <SCORE.INTER>
2.27732

>  <SCORE.INTER.CONST>
1

>  <SCORE.INTER.POLAR>
0

>  <SCORE.INTER.ROT>
11

>  <SCORE.INTER.SOLV>
9.47448

>  <SCORE.INTER.VDW>
-12.5733

>  <SCORE.INTER.norm>
0.162666

>  <SCORE.INTRA>
-9.42201

>  <SCORE.INTRA.DIHEDRAL>
-21.4413

>  <SCORE.INTRA.DIHEDRAL.0>
25.9209

>  <SCORE.INTRA.POLAR>
0

>  <SCORE.INTRA.POLAR.0>
0

>  <SCORE.INTRA.REPUL>
0

>  <SCORE.INTRA.REPUL.0>
0

>  <SCORE.INTRA.SOLV>
2.79478

>  <SCORE.INTRA.SOLV.lig_0>
-47.4815

>  <SCORE.INTRA.VDW>
-0.0987447

>  <SCORE.INTRA.VDW.0>
-1.57492

>  <SCORE.INTRA.norm>
-0.673001

>  <SCORE.RESTR>
0

>  <SCORE.RESTR.CAVITY>
0

>  <SCORE.RESTR.norm>
0

>  <SCORE.SYSTEM>
0

>  <SCORE.SYSTEM.CONST>
0

>  <SCORE.SYSTEM.DIHEDRAL>
0

>  <SCORE.SYSTEM.SOLV>
0

>  <SCORE.SYSTEM.norm>
0

>  <SCORE.heavy>
14

>  <SCORE.norm>
-0.510335

>  <RMSD>
54.578

$$$$
ligand
 OpenBabel11021811493D
libRbt.so/2013.1/901 2013/11/27
 14 13  0  0  0  0  0  0  0  0999 V2000
    5.8845   21.8289   22.9231 N   0  0  0  0  0  0  0  0  0  0  0  0
    6.3376   22.2933   24.2285 C   0  0  0  0  0  0  0  0  0  0  0  0
    7.0183   21.1518   25.0135 C   0  0  0  0  0  0  0  0  0  0  0  0
    8.2675   20.5593   24.3315 C   0  0  0  0  0  0  0  0  0  0  0  0
    9.0010   19.4953   25.0334 N   0  0  0  0  0  0  0  0  0  0  0  0
    8.3813   18.1898   25.2865 C   0  0  0  0  0  0  0  0  0  0  0  0
    8.4336   17.7164   26.7421 C   0  0  0  0  0  0  0  0  0  0  0  0
    9.8708   17.5280   27.2567 C   0  0  0  0  0  0  0  0  0  0  0  0
   10.6386   16.3932   26.5603 C   0  0  0  0  0  0  0  0  0  0  0  0
   10.0105   15.0741   26.6652 N   0  0  0  0  0  0  0  0  0  0  0  0
   10.6945   13.9009   26.0939 C   0  0  0  0  0  0  0  0  0  0  0  0
    9.8023   12.7176   25.6499 C   0  0  0  0  0  0  0  0  0  0  0  0
    8.9341   12.0799   26.7534 C   0  0  0  0  0  0  0  0  0  0  0  0
    8.0512   11.0312   26.2511 N   0  0  0  0  0  0  0  0  0  0  0  0
  1  2  1  0  0  0  0
  2  3  1  0  0  0  0
  3  4  1  0  0  0  0
  4  5  1  0  0  0  0
  5  6  1  0  0  0  0
  6  7  1  0  0  0  0
  7  8  1  0  0  0  0
  8  9  1  0  0  0  0
  9 10  1  0  0  0  0
 10 11  1  0  0  0  0
 11 12  1  0  0  0  0
 12 13  1  0  0  0  0
 13 14  1  0  0  0  0
M  END
>  <CHROM.1>
60.71190382,178.10633198,64.99991609,-127.78816783,-61.93729704,-66.00074158
-58.32251852,-176.88685193,-153.18652190,-59.55710351,176.09514021,8.66629488
17.14010121,25.62795134,1.88891094,-0.54544637,-0.07625582

>  <Name>
ligand

>  <RI>
0

>  <Rbt.Current_Directory>
/home/itssahil/PROJECTS/Mol_Feturizer/New_Systems/rnas/4E8Q

>  <Rbt.Executable>
rbdock ($Id: //depot/dev/client3/rdock/2013.1/src/exe/rbdock.cxx#4 $)

>  <Rbt.Library>
libRbt.so (2013.1, Build901 2013/11/27)

>  <Rbt.Parameter_File>
/export/apps/rDock/src/rDock_2013.1_src/data/scripts/dock_solv.prm

>  <Rbt.Receptor>
prm/blind_docking_80.prm

>  <SCORE>
-13.1532

>  <SCORE.INTER>
-1.9504

>  <SCORE.INTER.CONST>
1

>  <SCORE.INTER.POLAR>
0

>  <SCORE.INTER.ROT>
11

>  <SCORE.INTER.SOLV>
10.6453

>  <SCORE.INTER.VDW>
-15.782

>  <SCORE.INTER.norm>
-0.139314

>  <SCORE.INTRA>
-11.2028

>  <SCORE.INTRA.DIHEDRAL>
-23.993

>  <SCORE.INTRA.DIHEDRAL.0>
25.9209

>  <SCORE.INTRA.POLAR>
0

>  <SCORE.INTRA.POLAR.0>
0

>  <SCORE.INTRA.REPUL>
0

>  <SCORE.INTRA.REPUL.0>
0

>  <SCORE.INTRA.SOLV>
0.111257

>  <SCORE.INTRA.SOLV.lig_0>
-47.4815

>  <SCORE.INTRA.VDW>
0.738111

>  <SCORE.INTRA.VDW.0>
-1.57492

>  <SCORE.INTRA.norm>
-0.800198

>  <SCORE.RESTR>
0

>  <SCORE.RESTR.CAVITY>
0

>  <SCORE.RESTR.norm>
0

>  <SCORE.SYSTEM>
0

>  <SCORE.SYSTEM.CONST>
0

>  <SCORE.SYSTEM.DIHEDRAL>
0

>  <SCORE.SYSTEM.SOLV>
0

>  <SCORE.SYSTEM.norm>
0

>  <SCORE.heavy>
14

>  <SCORE.norm>
-0.939512

>  <RMSD>
54.600

$$$$
ligand
 OpenBabel11021811493D
libRbt.so/2013.1/901 2013/11/27
 14 13  0  0  0  0  0  0  0  0999 V2000
    5.4677    6.4247    6.4910 N   0  0  0  0  0  0  0  0  0  0  0  0
    4.3974    7.1866    7.1227 C   0  0  0  0  0  0  0  0  0  0  0  0
    4.1886    6.7356    8.5841 C   0  0  0  0  0  0  0  0  0  0  0  0
    3.2093    7.6098    9.3924 C   0  0  0  0  0  0  0  0  0  0  0  0
    1.8038    7.6552    8.9618 N   0  0  0  0  0  0  0  0  0  0  0  0
    0.7269    7.9207    9.9221 C   0  0  0  0  0  0  0  0  0  0  0  0
    0.0342    6.6753   10.4830 C   0  0  0  0  0  0  0  0  0  0  0  0
   -0.8182    6.9764   11.7274 C   0  0  0  0  0  0  0  0  0  0  0  0
   -0.0053    7.4670   12.9362 C   0  0  0  0  0  0  0  0  0  0  0  0
   -0.7531    7.5260   14.1942 N   0  0  0  0  0  0  0  0  0  0  0  0
   -1.5615    8.7194   14.4987 C   0  0  0  0  0  0  0  0  0  0  0  0
   -2.3444    8.7132   15.8330 C   0  0  0  0  0  0  0  0  0  0  0  0
   -1.4996    8.5065   17.1065 C   0  0  0  0  0  0  0  0  0  0  0  0
   -0.5006    9.5524   17.3054 N   0  0  0  0  0  0  0  0  0  0  0  0
  1  2  1  0  0  0  0
  2  3  1  0  0  0  0
  3  4  1  0  0  0  0
  4  5  1  0  0  0  0
  5  6  1  0  0  0  0
  6  7  1  0  0  0  0
  7  8  1  0  0  0  0
  8  9  1  0  0  0  0
  9 10  1  0  0  0  0
 10 11  1  0  0  0  0
 11 12  1  0  0  0  0
 12 13  1  0  0  0  0
 13 14  1  0  0  0  0
M  END
>  <CHROM.1>
172.17324321,63.86162453,152.30708596,-95.99561467,165.27441769,-64.10242548
-169.39022292,-84.62246548,179.14414966,57.12228488,60.96555423,0.88153675
7.69058346,11.75417217,-0.98764293,0.16451758,1.26536646

>  <Name>
ligand

>  <RI>
0

>  <Rbt.Current_Directory>
/home/itssahil/PROJECTS/Mol_Feturizer/New_Systems/rnas/4E8Q

>  <Rbt.Executable>
rbdock ($Id: //depot/dev/client3/rdock/2013.1/src/exe/rbdock.cxx#4 $)

>  <Rbt.Library>
libRbt.so (2013.1, Build901 2013/11/27)

>  <Rbt.Parameter_File>
/export/apps/rDock/src/rDock_2013.1_src/data/scripts/dock_solv.prm

>  <Rbt.Receptor>
prm/blind_docking_20.prm

>  <SCORE>
-7.68977

>  <SCORE.INTER>
2.81078

>  <SCORE.INTER.CONST>
1

>  <SCORE.INTER.POLAR>
0

>  <SCORE.INTER.ROT>
11

>  <SCORE.INTER.SOLV>
7.80654

>  <SCORE.INTER.VDW>
-11.6617

>  <SCORE.INTER.norm>
0.20077

>  <SCORE.INTRA>
-10.5347

>  <SCORE.INTRA.DIHEDRAL>
-22.5886

>  <SCORE.INTRA.DIHEDRAL.0>
25.9209

>  <SCORE.INTRA.POLAR>
0

>  <SCORE.INTRA.POLAR.0>
0

>  <SCORE.INTRA.REPUL>
0

>  <SCORE.INTRA.REPUL.0>
0

>  <SCORE.INTRA.SOLV>
0.0428783

>  <SCORE.INTRA.SOLV.lig_0>
-47.4815

>  <SCORE.INTRA.VDW>
0.73812

>  <SCORE.INTRA.VDW.0>
-1.57492

>  <SCORE.INTRA.norm>
-0.752481

>  <SCORE.RESTR>
0.0341728

>  <SCORE.RESTR.CAVITY>
0.0341728

>  <SCORE.RESTR.norm>
0.00244092

>  <SCORE.SYSTEM>
0

>  <SCORE.SYSTEM.CONST>
0

>  <SCORE.SYSTEM.DIHEDRAL>
0

>  <SCORE.SYSTEM.SOLV>
0

>  <SCORE.SYSTEM.norm>
0

>  <SCORE.heavy>
14

>  <SCORE.norm>
-0.549269

>  <RMSD>
54.641

$$$$
ligand
 OpenBabel11021811493D
libRbt.so/2013.1/901 2013/11/27
 14 13  0  0  0  0  0  0  0  0999 V2000
   18.7427    5.1566   35.1579 N   0  0  0  0  0  0  0  0  0  0  0  0
   17.5863    4.9124   34.3044 C   0  0  0  0  0  0  0  0  0  0  0  0
   16.3365    5.6354   34.8501 C   0  0  0  0  0  0  0  0  0  0  0  0
   16.4647    7.1697   34.9276 C   0  0  0  0  0  0  0  0  0  0  0  0
   15.3151    7.9365   35.4310 N   0  0  0  0  0  0  0  0  0  0  0  0
   15.3854    9.3943   35.5802 C   0  0  0  0  0  0  0  0  0  0  0  0
   15.4632   10.1794   34.2675 C   0  0  0  0  0  0  0  0  0  0  0  0
   15.4788   11.7022   34.4833 C   0  0  0  0  0  0  0  0  0  0  0  0
   14.1116   12.2920   34.8645 C   0  0  0  0  0  0  0  0  0  0  0  0
   13.5986   11.8580   36.1660 N   0  0  0  0  0  0  0  0  0  0  0  0
   12.3326   12.4204   36.6674 C   0  0  0  0  0  0  0  0  0  0  0  0
   11.8900   11.9933   38.0870 C   0  0  0  0  0  0  0  0  0  0  0  0
   10.5343   12.5518   38.5645 C   0  0  0  0  0  0  0  0  0  0  0  0
   10.5138   14.0093   38.6467 N   0  0  0  0  0  0  0  0  0  0  0  0
  1  2  1  0  0  0  0
  2  3  1  0  0  0  0
  3  4  1  0  0  0  0
  4  5  1  0  0  0  0
  5  6  1  0  0  0  0
  6  7  1  0  0  0  0
  7  8  1  0  0  0  0
  8  9  1  0  0  0  0
  9 10  1  0  0  0  0
 10 11  1  0  0  0  0
 11 12  1  0  0  0  0
 12 13  1  0  0  0  0
 13 14  1  0  0  0  0
M  END
>  <CHROM.1>
61.07222279,179.71476947,177.62795704,68.47105922,177.74038192,-74.98169283
65.68506699,176.52915045,-176.12568884,-177.64359627,-61.87994942,14.55382826
9.80082465,35.85680388,0.58389709,-0.76422310,2.72617716

>  <Name>
ligand

>  <RI>
0

>  <Rbt.Current_Directory>
/home/itssahil/PROJECTS/Mol_Feturizer/New_Systems/rnas/4E8Q

>  <Rbt.Executable>
rbdock ($Id: //depot/dev/client3/rdock/2013.1/src/exe/rbdock.cxx#4 $)

>  <Rbt.Library>
libRbt.so (2013.1, Build901 2013/11/27)

>  <Rbt.Parameter_File>
/export/apps/rDock/src/rDock_2013.1_src/data/scripts/dock_solv.prm

>  <Rbt.Receptor>
prm/blind_docking_100.prm

>  <SCORE>
-12.9176

>  <SCORE.INTER>
-1.41381

>  <SCORE.INTER.CONST>
1

>  <SCORE.INTER.POLAR>
0

>  <SCORE.INTER.ROT>
11

>  <SCORE.INTER.SOLV>
13.7731

>  <SCORE.INTER.VDW>
-16.4669

>  <SCORE.INTER.norm>
-0.100987

>  <SCORE.INTRA>
-11.5038

>  <SCORE.INTRA.DIHEDRAL>
-24.7622

>  <SCORE.INTRA.DIHEDRAL.0>
25.9209

>  <SCORE.INTRA.POLAR>
0

>  <SCORE.INTRA.POLAR.0>
0

>  <SCORE.INTRA.REPUL>
0

>  <SCORE.INTRA.REPUL.0>
0

>  <SCORE.INTRA.SOLV>
0.206038

>  <SCORE.INTRA.SOLV.lig_0>
-47.4815

>  <SCORE.INTRA.VDW>
0.77432

>  <SCORE.INTRA.VDW.0>
-1.57492

>  <SCORE.INTRA.norm>
-0.821697

>  <SCORE.RESTR>
0

>  <SCORE.RESTR.CAVITY>
0

>  <SCORE.RESTR.norm>
0

>  <SCORE.SYSTEM>
0

>  <SCORE.SYSTEM.CONST>
0

>  <SCORE.SYSTEM.DIHEDRAL>
0

>  <SCORE.SYSTEM.SOLV>
0

>  <SCORE.SYSTEM.norm>
0

>  <SCORE.heavy>
14

>  <SCORE.norm>
-0.922684

>  <RMSD>
54.646

$$$$
ligand
 OpenBabel11021811493D
libRbt.so/2013.1/901 2013/11/27
 14 13  0  0  0  0  0  0  0  0999 V2000
   18.0192    5.3679   33.9060 N   0  0  0  0  0  0  0  0  0  0  0  0
   16.7726    5.1620   34.6331 C   0  0  0  0  0  0  0  0  0  0  0  0
   15.6066    5.9075   33.9495 C   0  0  0  0  0  0  0  0  0  0  0  0
   15.7220    7.4446   33.9789 C   0  0  0  0  0  0  0  0  0  0  0  0
   15.6881    8.1170   35.2864 N   0  0  0  0  0  0  0  0  0  0  0  0
   15.8010    9.5762   35.3894 C   0  0  0  0  0  0  0  0  0  0  0  0
   14.6285   10.3627   34.7961 C   0  0  0  0  0  0  0  0  0  0  0  0
   14.7422   11.8772   35.0394 C   0  0  0  0  0  0  0  0  0  0  0  0
   13.5691   12.6901   34.4688 C   0  0  0  0  0  0  0  0  0  0  0  0
   12.2678   12.3943   35.0727 N   0  0  0  0  0  0  0  0  0  0  0  0
   11.9124   13.0129   36.3617 C   0  0  0  0  0  0  0  0  0  0  0  0
   12.3636   12.2714   37.6424 C   0  0  0  0  0  0  0  0  0  0  0  0
   11.9548   12.9266   38.9772 C   0  0  0  0  0  0  0  0  0  0  0  0
   12.3338   12.1333   40.1427 N   0  0  0  0  0  0  0  0  0  0  0  0
  1  2  1  0  0  0  0
  2  3  1  0  0  0  0
  3  4  1  0  0  0  0
  4  5  1  0  0  0  0
  5  6  1  0  0  0  0
  6  7  1  0  0  0  0
  7  8  1  0  0  0  0
  8  9  1  0  0  0  0
  9 10  1  0  0  0  0
 10 11  1  0  0  0  0
 11 12  1  0  0  0  0
 12 13  1  0  0  0  0
 13 14  1  0  0  0  0
M  END
>  <CHROM.1>
-66.10511035,-63.98211598,179.62330037,66.37818193,175.05458908,-179.29780843
63.62149027,81.01541631,-86.83241069,-178.86167530,176.19999113,14.38432090
9.94614930,35.68871464,0.01431845,-1.03856863,2.05261794

>  <Name>
ligand

>  <RI>
0

>  <Rbt.Current_Directory>
/home/itssahil/PROJECTS/Mol_Feturizer/New_Systems/rnas/4E8Q

>  <Rbt.Executable>
rbdock ($Id: //depot/dev/client3/rdock/2013.1/src/exe/rbdock.cxx#4 $)

>  <Rbt.Library>
libRbt.so (2013.1, Build901 2013/11/27)

>  <Rbt.Parameter_File>
/export/apps/rDock/src/rDock_2013.1_src/data/scripts/dock_solv.prm

>  <Rbt.Receptor>
prm/blind_docking_100.prm

>  <SCORE>
-16.5748

>  <SCORE.INTER>
-4.60056

>  <SCORE.INTER.CONST>
1

>  <SCORE.INTER.POLAR>
0

>  <SCORE.INTER.ROT>
11

>  <SCORE.INTER.SOLV>
9.67775

>  <SCORE.INTER.VDW>
-17.2263

>  <SCORE.INTER.norm>
-0.328611

>  <SCORE.INTRA>
-11.9743

>  <SCORE.INTRA.DIHEDRAL>
-24.6562

>  <SCORE.INTRA.DIHEDRAL.0>
25.9209

>  <SCORE.INTRA.POLAR>
0

>  <SCORE.INTRA.POLAR.0>
0

>  <SCORE.INTRA.REPUL>
0

>  <SCORE.INTRA.REPUL.0>
0

>  <SCORE.INTRA.SOLV>
-0.284764

>  <SCORE.INTRA.SOLV.lig_0>
-47.4815

>  <SCORE.INTRA.VDW>
0.496176

>  <SCORE.INTRA.VDW.0>
-1.57492

>  <SCORE.INTRA.norm>
-0.855306

>  <SCORE.RESTR>
0

>  <SCORE.RESTR.CAVITY>
0

>  <SCORE.RESTR.norm>
0

>  <SCORE.SYSTEM>
0

>  <SCORE.SYSTEM.CONST>
0

>  <SCORE.SYSTEM.DIHEDRAL>
0

>  <SCORE.SYSTEM.SOLV>
0

>  <SCORE.SYSTEM.norm>
0

>  <SCORE.heavy>
14

>  <SCORE.norm>
-1.18392

>  <RMSD>
54.676

$$$$
ligand
 OpenBabel11021811493D
libRbt.so/2013.1/901 2013/11/27
 14 13  0  0  0  0  0  0  0  0999 V2000
   -2.3548   10.9856   14.2676 N   0  0  0  0  0  0  0  0  0  0  0  0
   -1.1809   11.2480   13.4440 C   0  0  0  0  0  0  0  0  0  0  0  0
    0.0091   10.3695   13.8851 C   0  0  0  0  0  0  0  0  0  0  0  0
   -0.2098    8.8541   13.7051 C   0  0  0  0  0  0  0  0  0  0  0  0
   -0.4836    8.3498   12.3510 N   0  0  0  0  0  0  0  0  0  0  0  0
   -0.8350    6.9434   12.1246 C   0  0  0  0  0  0  0  0  0  0  0  0
   -1.4387    6.6370   10.7509 C   0  0  0  0  0  0  0  0  0  0  0  0
   -0.4346    6.8300    9.6017 C   0  0  0  0  0  0  0  0  0  0  0  0
    0.1533    8.2478    9.5189 C   0  0  0  0  0  0  0  0  0  0  0  0
    0.9084    8.5272    8.2953 N   0  0  0  0  0  0  0  0  0  0  0  0
    1.9780    7.6033    7.8798 C   0  0  0  0  0  0  0  0  0  0  0  0
    3.1876    7.4581    8.8333 C   0  0  0  0  0  0  0  0  0  0  0  0
    4.3249    6.5405    8.3407 C   0  0  0  0  0  0  0  0  0  0  0  0
    4.9370    7.0052    7.0994 N   0  0  0  0  0  0  0  0  0  0  0  0
  1  2  1  0  0  0  0
  2  3  1  0  0  0  0
  3  4  1  0  0  0  0
  4  5  1  0  0  0  0
  5  6  1  0  0  0  0
  6  7  1  0  0  0  0
  7  8  1  0  0  0  0
  8  9  1  0  0  0  0
  9 10  1  0  0  0  0
 10 11  1  0  0  0  0
 11 12  1  0  0  0  0
 12 13  1  0  0  0  0
 13 14  1  0  0  0  0
M  END
>  <CHROM.1>
63.87221058,59.43322336,-173.77345362,164.89333941,67.01358908,-58.18086314
-168.96349185,-51.70716677,-63.09845123,-177.00724326,61.39430343,0.61142840
8.25693150,10.72133446,-2.26402980,-0.40902230,-2.35170448

>  <Name>
ligand

>  <RI>
0

>  <Rbt.Current_Directory>
/home/itssahil/PROJECTS/Mol_Feturizer/New_Systems/rnas/4E8Q

>  <Rbt.Executable>
rbdock ($Id: //depot/dev/client3/rdock/2013.1/src/exe/rbdock.cxx#4 $)

>  <Rbt.Library>
libRbt.so (2013.1, Build901 2013/11/27)

>  <Rbt.Parameter_File>
/export/apps/rDock/src/rDock_2013.1_src/data/scripts/dock_solv.prm

>  <Rbt.Receptor>
prm/blind_docking_20.prm

>  <SCORE>
-7.85662

>  <SCORE.INTER>
2.12536

>  <SCORE.INTER.CONST>
1

>  <SCORE.INTER.POLAR>
0

>  <SCORE.INTER.ROT>
11

>  <SCORE.INTER.SOLV>
9.42601

>  <SCORE.INTER.VDW>
-12.6584

>  <SCORE.INTER.norm>
0.151811

>  <SCORE.INTRA>
-9.98197

>  <SCORE.INTRA.DIHEDRAL>
-24.9027

>  <SCORE.INTRA.DIHEDRAL.0>
25.9209

>  <SCORE.INTRA.POLAR>
0

>  <SCORE.INTRA.POLAR.0>
0

>  <SCORE.INTRA.REPUL>
0

>  <SCORE.INTRA.REPUL.0>
0

>  <SCORE.INTRA.SOLV>
1.21675

>  <SCORE.INTRA.SOLV.lig_0>
-47.4815

>  <SCORE.INTRA.VDW>
1.86099

>  <SCORE.INTRA.VDW.0>
-1.57492

>  <SCORE.INTRA.norm>
-0.712998

>  <SCORE.RESTR>
0

>  <SCORE.RESTR.CAVITY>
0

>  <SCORE.RESTR.norm>
0

>  <SCORE.SYSTEM>
0

>  <SCORE.SYSTEM.CONST>
0

>  <SCORE.SYSTEM.DIHEDRAL>
0

>  <SCORE.SYSTEM.SOLV>
0

>  <SCORE.SYSTEM.norm>
0

>  <SCORE.heavy>
14

>  <SCORE.norm>
-0.561187

>  <RMSD>
54.710

$$$$
ligand
 OpenBabel11021811493D
libRbt.so/2013.1/901 2013/11/27
 14 13  0  0  0  0  0  0  0  0999 V2000
    6.5923   10.1194   26.3924 N   0  0  0  0  0  0  0  0  0  0  0  0
    7.5497   10.3054   25.3090 C   0  0  0  0  0  0  0  0  0  0  0  0
    8.3598   11.6044   25.5068 C   0  0  0  0  0  0  0  0  0  0  0  0
    9.4175   11.8738   24.4181 C   0  0  0  0  0  0  0  0  0  0  0  0
   10.1659   13.1384   24.4771 N   0  0  0  0  0  0  0  0  0  0  0  0
   11.0266   13.4550   25.6224 C   0  0  0  0  0  0  0  0  0  0  0  0
   10.3027   14.0448   26.8363 C   0  0  0  0  0  0  0  0  0  0  0  0
    9.6304   15.3944   26.5322 C   0  0  0  0  0  0  0  0  0  0  0  0
    8.7177   15.9042   27.6590 C   0  0  0  0  0  0  0  0  0  0  0  0
    8.1908   17.2558   27.4563 N   0  0  0  0  0  0  0  0  0  0  0  0
    7.0302   17.7044   28.2451 C   0  0  0  0  0  0  0  0  0  0  0  0
    7.2155   17.7869   29.7788 C   0  0  0  0  0  0  0  0  0  0  0  0
    8.2340   18.8321   30.2771 C   0  0  0  0  0  0  0  0  0  0  0  0
    8.3328   18.8849   31.7328 N   0  0  0  0  0  0  0  0  0  0  0  0
  1  2  1  0  0  0  0
  2  3  1  0  0  0  0
  3  4  1  0  0  0  0
  4  5  1  0  0  0  0
  5  6  1  0  0  0  0
  6  7  1  0  0  0  0
  7  8  1  0  0  0  0
  8  9  1  0  0  0  0
  9 10  1  0  0  0  0
 10 11  1  0  0  0  0
 11 12  1  0  0  0  0
 12 13  1  0  0  0  0
 13 14  1  0  0  0  0
M  END
>  <CHROM.1>
179.02558771,175.63905235,62.08381220,-82.86032825,-62.44688135,171.00957587
173.28477421,162.78708125,62.99181991,65.08756310,178.35676606,8.62624662
14.73592710,27.16009274,1.46581744,-0.55255259,-2.59796095

>  <Name>
ligand

>  <RI>
0

>  <Rbt.Current_Directory>
/home/itssahil/PROJECTS/Mol_Feturizer/New_Systems/rnas/4E8Q

>  <Rbt.Executable>
rbdock ($Id: //depot/dev/client3/rdock/2013.1/src/exe/rbdock.cxx#4 $)

>  <Rbt.Library>
libRbt.so (2013.1, Build901 2013/11/27)

>  <Rbt.Parameter_File>
/export/apps/rDock/src/rDock_2013.1_src/data/scripts/dock_solv.prm

>  <Rbt.Receptor>
prm/blind_docking_100.prm

>  <SCORE>
-12.0753

>  <SCORE.INTER>
0.278573

>  <SCORE.INTER.CONST>
1

>  <SCORE.INTER.POLAR>
0

>  <SCORE.INTER.ROT>
11

>  <SCORE.INTER.SOLV>
15.2099

>  <SCORE.INTER.VDW>
-15.8176

>  <SCORE.INTER.norm>
0.0198981

>  <SCORE.INTRA>
-12.3539

>  <SCORE.INTRA.DIHEDRAL>
-24.5944

>  <SCORE.INTRA.DIHEDRAL.0>
25.9209

>  <SCORE.INTRA.POLAR>
0

>  <SCORE.INTRA.POLAR.0>
0

>  <SCORE.INTRA.REPUL>
0

>  <SCORE.INTRA.REPUL.0>
0

>  <SCORE.INTRA.SOLV>
-1.45204

>  <SCORE.INTRA.SOLV.lig_0>
-47.4815

>  <SCORE.INTRA.VDW>
0.669298

>  <SCORE.INTRA.VDW.0>
-1.57492

>  <SCORE.INTRA.norm>
-0.882423

>  <SCORE.RESTR>
0

>  <SCORE.RESTR.CAVITY>
0

>  <SCORE.RESTR.norm>
0

>  <SCORE.SYSTEM>
0

>  <SCORE.SYSTEM.CONST>
0

>  <SCORE.SYSTEM.DIHEDRAL>
0

>  <SCORE.SYSTEM.SOLV>
0

>  <SCORE.SYSTEM.norm>
0

>  <SCORE.heavy>
14

>  <SCORE.norm>
-0.862524

>  <RMSD>
54.766

$$$$
ligand
 OpenBabel11021811493D
libRbt.so/2013.1/901 2013/11/27
 14 13  0  0  0  0  0  0  0  0999 V2000
   -1.7008   11.5661   12.6782 N   0  0  0  0  0  0  0  0  0  0  0  0
   -0.7271   11.9647   13.6873 C   0  0  0  0  0  0  0  0  0  0  0  0
    0.4405   10.9573   13.7542 C   0  0  0  0  0  0  0  0  0  0  0  0
    0.0270    9.5182   14.1210 C   0  0  0  0  0  0  0  0  0  0  0  0
   -0.7490    8.7483   13.1372 N   0  0  0  0  0  0  0  0  0  0  0  0
   -1.1802    7.3751   13.4215 C   0  0  0  0  0  0  0  0  0  0  0  0
   -1.5675    6.5475   12.1925 C   0  0  0  0  0  0  0  0  0  0  0  0
   -0.3651    6.2199   11.2909 C   0  0  0  0  0  0  0  0  0  0  0  0
    0.1810    7.4298   10.5161 C   0  0  0  0  0  0  0  0  0  0  0  0
    1.3111    7.1324    9.6330 N   0  0  0  0  0  0  0  0  0  0  0  0
    1.5104    7.9409    8.4176 C   0  0  0  0  0  0  0  0  0  0  0  0
    2.5722    7.4404    7.4098 C   0  0  0  0  0  0  0  0  0  0  0  0
    3.9937    7.2432    7.9742 C   0  0  0  0  0  0  0  0  0  0  0  0
    4.9479    6.7811    6.9705 N   0  0  0  0  0  0  0  0  0  0  0  0
  1  2  1  0  0  0  0
  2  3  1  0  0  0  0
  3  4  1  0  0  0  0
  4  5  1  0  0  0  0
  5  6  1  0  0  0  0
  6  7  1  0  0  0  0
  7  8  1  0  0  0  0
  8  9  1  0  0  0  0
  9 10  1  0  0  0  0
 10 11  1  0  0  0  0
 11 12  1  0  0  0  0
 12 13  1  0  0  0  0
 13 14  1  0  0  0  0
M  END
>  <CHROM.1>
-60.48724087,69.35127147,-179.77745920,-161.17404761,68.29373571,-71.45334762
-178.92851945,150.76667528,-170.28001895,-56.36738856,-179.51577064,0.62087623
8.34740057,11.08618123,-2.43447615,-0.78033402,-2.73689356

>  <Name>
ligand

>  <RI>
0

>  <Rbt.Current_Directory>
/home/itssahil/PROJECTS/Mol_Feturizer/New_Systems/rnas/4E8Q

>  <Rbt.Executable>
rbdock ($Id: //depot/dev/client3/rdock/2013.1/src/exe/rbdock.cxx#4 $)

>  <Rbt.Library>
libRbt.so (2013.1, Build901 2013/11/27)

>  <Rbt.Parameter_File>
/export/apps/rDock/src/rDock_2013.1_src/data/scripts/dock_solv.prm

>  <Rbt.Receptor>
prm/blind_docking_20.prm

>  <SCORE>
-8.63806

>  <SCORE.INTER>
2.09849

>  <SCORE.INTER.CONST>
1

>  <SCORE.INTER.POLAR>
0

>  <SCORE.INTER.ROT>
11

>  <SCORE.INTER.SOLV>
11.4596

>  <SCORE.INTER.VDW>
-13.3542

>  <SCORE.INTER.norm>
0.149892

>  <SCORE.INTRA>
-10.7365

>  <SCORE.INTRA.DIHEDRAL>
-23.8299

>  <SCORE.INTRA.DIHEDRAL.0>
25.9209

>  <SCORE.INTRA.POLAR>
0

>  <SCORE.INTRA.POLAR.0>
0

>  <SCORE.INTRA.REPUL>
0

>  <SCORE.INTRA.REPUL.0>
0

>  <SCORE.INTRA.SOLV>
1.74168

>  <SCORE.INTRA.SOLV.lig_0>
-47.4815

>  <SCORE.INTRA.VDW>
0.307588

>  <SCORE.INTRA.VDW.0>
-1.57492

>  <SCORE.INTRA.norm>
-0.766896

>  <SCORE.RESTR>
0

>  <SCORE.RESTR.CAVITY>
0

>  <SCORE.RESTR.norm>
0

>  <SCORE.SYSTEM>
0

>  <SCORE.SYSTEM.CONST>
0

>  <SCORE.SYSTEM.DIHEDRAL>
0

>  <SCORE.SYSTEM.SOLV>
0

>  <SCORE.SYSTEM.norm>
0

>  <SCORE.heavy>
14

>  <SCORE.norm>
-0.617004

>  <RMSD>
54.792

$$$$
ligand
 OpenBabel11021811493D
libRbt.so/2013.1/901 2013/11/27
 14 13  0  0  0  0  0  0  0  0999 V2000
    9.1683   16.5402   26.6867 N   0  0  0  0  0  0  0  0  0  0  0  0
    9.7810   17.8291   26.9844 C   0  0  0  0  0  0  0  0  0  0  0  0
    9.7425   18.7555   25.7503 C   0  0  0  0  0  0  0  0  0  0  0  0
    8.3262   19.0835   25.2373 C   0  0  0  0  0  0  0  0  0  0  0  0
    7.5021   17.9788   24.7242 N   0  0  0  0  0  0  0  0  0  0  0  0
    6.2690   18.2407   23.9735 C   0  0  0  0  0  0  0  0  0  0  0  0
    6.4000   18.1366   22.4512 C   0  0  0  0  0  0  0  0  0  0  0  0
    5.0741   18.4039   21.7188 C   0  0  0  0  0  0  0  0  0  0  0  0
    5.1620   18.2453   20.1925 C   0  0  0  0  0  0  0  0  0  0  0  0
    5.4274   16.8801   19.7327 N   0  0  0  0  0  0  0  0  0  0  0  0
    4.2987   15.9579   19.5184 C   0  0  0  0  0  0  0  0  0  0  0  0
    4.6473   14.4744   19.2513 C   0  0  0  0  0  0  0  0  0  0  0  0
    3.4463   13.5210   19.0885 C   0  0  0  0  0  0  0  0  0  0  0  0
    2.5687   13.5032   20.2550 N   0  0  0  0  0  0  0  0  0  0  0  0
  1  2  1  0  0  0  0
  2  3  1  0  0  0  0
  3  4  1  0  0  0  0
  4  5  1  0  0  0  0
  5  6  1  0  0  0  0
  6  7  1  0  0  0  0
  7  8  1  0  0  0  0
  8  9  1  0  0  0  0
  9 10  1  0  0  0  0
 10 11  1  0  0  0  0
 11 12  1  0  0  0  0
 12 13  1  0  0  0  0
 13 14  1  0  0  0  0
M  END
>  <CHROM.1>
60.77687031,-63.79077584,-167.34646062,99.72798185,179.30013997,-177.45249282
65.95332281,87.11756842,-170.61810585,177.56979546,-58.54729989,6.27245004
16.96816812,22.54022791,-0.13119025,0.95034904,2.84168140

>  <Name>
ligand

>  <RI>
0

>  <Rbt.Current_Directory>
/home/itssahil/PROJECTS/Mol_Feturizer/New_Systems/rnas/4E8Q

>  <Rbt.Executable>
rbdock ($Id: //depot/dev/client3/rdock/2013.1/src/exe/rbdock.cxx#4 $)

>  <Rbt.Library>
libRbt.so (2013.1, Build901 2013/11/27)

>  <Rbt.Parameter_File>
/export/apps/rDock/src/rDock_2013.1_src/data/scripts/dock_solv.prm

>  <Rbt.Receptor>
prm/blind_docking_40.prm

>  <SCORE>
-12.3295

>  <SCORE.INTER>
-1.46794

>  <SCORE.INTER.CONST>
1

>  <SCORE.INTER.POLAR>
0

>  <SCORE.INTER.ROT>
11

>  <SCORE.INTER.SOLV>
11.1178

>  <SCORE.INTER.VDW>
-15.6179

>  <SCORE.INTER.norm>
-0.104853

>  <SCORE.INTRA>
-10.8615

>  <SCORE.INTRA.DIHEDRAL>
-24.0719

>  <SCORE.INTRA.DIHEDRAL.0>
25.9209

>  <SCORE.INTRA.POLAR>
0

>  <SCORE.INTRA.POLAR.0>
0

>  <SCORE.INTRA.REPUL>
0

>  <SCORE.INTRA.REPUL.0>
0

>  <SCORE.INTRA.SOLV>
1.64789

>  <SCORE.INTRA.SOLV.lig_0>
-47.4815

>  <SCORE.INTRA.VDW>
0.350437

>  <SCORE.INTRA.VDW.0>
-1.57492

>  <SCORE.INTRA.norm>
-0.775825

>  <SCORE.RESTR>
0

>  <SCORE.RESTR.CAVITY>
0

>  <SCORE.RESTR.norm>
0

>  <SCORE.SYSTEM>
0

>  <SCORE.SYSTEM.CONST>
0

>  <SCORE.SYSTEM.DIHEDRAL>
0

>  <SCORE.SYSTEM.SOLV>
0

>  <SCORE.SYSTEM.norm>
0

>  <SCORE.heavy>
14

>  <SCORE.norm>
-0.880678

>  <RMSD>
54.906

$$$$
ligand
 OpenBabel11021811493D
libRbt.so/2013.1/901 2013/11/27
 14 13  0  0  0  0  0  0  0  0999 V2000
   20.6159    7.4908   35.9545 N   0  0  0  0  0  0  0  0  0  0  0  0
   19.2693    7.9519   36.2696 C   0  0  0  0  0  0  0  0  0  0  0  0
   18.2876    7.6049   35.1301 C   0  0  0  0  0  0  0  0  0  0  0  0
   16.8436    8.0960   35.3546 C   0  0  0  0  0  0  0  0  0  0  0  0
   16.6244    9.5372   35.5487 N   0  0  0  0  0  0  0  0  0  0  0  0
   15.7802   10.3047   34.6262 C   0  0  0  0  0  0  0  0  0  0  0  0
   14.9330   11.4007   35.2792 C   0  0  0  0  0  0  0  0  0  0  0  0
   13.9187   12.0286   34.3081 C   0  0  0  0  0  0  0  0  0  0  0  0
   12.9980   13.0738   34.9581 C   0  0  0  0  0  0  0  0  0  0  0  0
   12.1262   12.5510   36.0126 N   0  0  0  0  0  0  0  0  0  0  0  0
   11.1194   13.4368   36.6227 C   0  0  0  0  0  0  0  0  0  0  0  0
   10.4535   12.9445   37.9295 C   0  0  0  0  0  0  0  0  0  0  0  0
   11.4048   12.7053   39.1194 C   0  0  0  0  0  0  0  0  0  0  0  0
   10.7124   12.2534   40.3226 N   0  0  0  0  0  0  0  0  0  0  0  0
  1  2  1  0  0  0  0
  2  3  1  0  0  0  0
  3  4  1  0  0  0  0
  4  5  1  0  0  0  0
  5  6  1  0  0  0  0
  6  7  1  0  0  0  0
  7  8  1  0  0  0  0
  8  9  1  0  0  0  0
  9 10  1  0  0  0  0
 10 11  1  0  0  0  0
 11 12  1  0  0  0  0
 12 13  1  0  0  0  0
 13 14  1  0  0  0  0
M  END
>  <CHROM.1>
-178.09094522,58.48213917,119.41406100,143.19865185,-171.42772855,176.58028188
-62.96838932,-174.66997233,-166.58574945,60.72927790,179.51705854,14.64892818
10.81296863,36.24513366,-0.06363507,-0.61408878,1.88918446

>  <Name>
ligand

>  <RI>
0

>  <Rbt.Current_Directory>
/home/itssahil/PROJECTS/Mol_Feturizer/New_Systems/rnas/4E8Q

>  <Rbt.Executable>
rbdock ($Id: //depot/dev/client3/rdock/2013.1/src/exe/rbdock.cxx#4 $)

>  <Rbt.Library>
libRbt.so (2013.1, Build901 2013/11/27)

>  <Rbt.Parameter_File>
/export/apps/rDock/src/rDock_2013.1_src/data/scripts/dock_solv.prm

>  <Rbt.Receptor>
prm/blind_docking_80.prm

>  <SCORE>
-15.9118

>  <SCORE.INTER>
-3.84462

>  <SCORE.INTER.CONST>
1

>  <SCORE.INTER.POLAR>
0

>  <SCORE.INTER.ROT>
11

>  <SCORE.INTER.SOLV>
15.8026

>  <SCORE.INTER.VDW>
-18.7639

>  <SCORE.INTER.norm>
-0.274616

>  <SCORE.INTRA>
-12.0671

>  <SCORE.INTRA.DIHEDRAL>
-23.3658

>  <SCORE.INTRA.DIHEDRAL.0>
25.9209

>  <SCORE.INTRA.POLAR>
0

>  <SCORE.INTRA.POLAR.0>
0

>  <SCORE.INTRA.REPUL>
0

>  <SCORE.INTRA.REPUL.0>
0

>  <SCORE.INTRA.SOLV>
-1.16117

>  <SCORE.INTRA.SOLV.lig_0>
-47.4815

>  <SCORE.INTRA.VDW>
0.19636

>  <SCORE.INTRA.VDW.0>
-1.57492

>  <SCORE.INTRA.norm>
-0.861938

>  <SCORE.RESTR>
0

>  <SCORE.RESTR.CAVITY>
0

>  <SCORE.RESTR.norm>
0

>  <SCORE.SYSTEM>
0

>  <SCORE.SYSTEM.CONST>
0

>  <SCORE.SYSTEM.DIHEDRAL>
0

>  <SCORE.SYSTEM.SOLV>
0

>  <SCORE.SYSTEM.norm>
0

>  <SCORE.heavy>
14

>  <SCORE.norm>
-1.13655

>  <RMSD>
54.945

$$$$
ligand
 OpenBabel11021811493D
libRbt.so/2013.1/901 2013/11/27
 14 13  0  0  0  0  0  0  0  0999 V2000
   13.8776   22.6506   23.1834 N   0  0  0  0  0  0  0  0  0  0  0  0
   12.4858   23.0745   23.0926 C   0  0  0  0  0  0  0  0  0  0  0  0
   12.3350   24.2660   22.1230 C   0  0  0  0  0  0  0  0  0  0  0  0
   10.9317   24.9040   22.1027 C   0  0  0  0  0  0  0  0  0  0  0  0
   10.4104   25.4712   23.3554 N   0  0  0  0  0  0  0  0  0  0  0  0
    9.0760   26.0784   23.4129 C   0  0  0  0  0  0  0  0  0  0  0  0
    7.9111   25.1117   23.1809 C   0  0  0  0  0  0  0  0  0  0  0  0
    7.8743   23.9653   24.2058 C   0  0  0  0  0  0  0  0  0  0  0  0
    6.6923   23.0005   24.0197 C   0  0  0  0  0  0  0  0  0  0  0  0
    6.6992   21.8431   24.9174 N   0  0  0  0  0  0  0  0  0  0  0  0
    6.2237   20.5404   24.4199 C   0  0  0  0  0  0  0  0  0  0  0  0
    7.1450   19.7905   23.4288 C   0  0  0  0  0  0  0  0  0  0  0  0
    6.5499   18.5204   22.7880 C   0  0  0  0  0  0  0  0  0  0  0  0
    5.3603   18.7890   21.9855 N   0  0  0  0  0  0  0  0  0  0  0  0
  1  2  1  0  0  0  0
  2  3  1  0  0  0  0
  3  4  1  0  0  0  0
  4  5  1  0  0  0  0
  5  6  1  0  0  0  0
  6  7  1  0  0  0  0
  7  8  1  0  0  0  0
  8  9  1  0  0  0  0
  9 10  1  0  0  0  0
 10 11  1  0  0  0  0
 11 12  1  0  0  0  0
 12 13  1  0  0  0  0
 13 14  1  0  0  0  0
M  END
>  <CHROM.1>
-172.29360282,60.16478762,-179.21069761,65.49682015,59.37209050,178.43276839
175.33344913,-143.82429977,72.88210193,-172.60368150,61.70242422,8.82648665
22.71489253,23.30111795,-0.68200000,-0.19301650,-3.01063982

>  <Name>
ligand

>  <RI>
0

>  <Rbt.Current_Directory>
/home/itssahil/PROJECTS/Mol_Feturizer/New_Systems/rnas/4E8Q

>  <Rbt.Executable>
rbdock ($Id: //depot/dev/client3/rdock/2013.1/src/exe/rbdock.cxx#4 $)

>  <Rbt.Library>
libRbt.so (2013.1, Build901 2013/11/27)

>  <Rbt.Parameter_File>
/export/apps/rDock/src/rDock_2013.1_src/data/scripts/dock_solv.prm

>  <Rbt.Receptor>
prm/blind_docking_40.prm

>  <SCORE>
-10.8151

>  <SCORE.INTER>
1.23295

>  <SCORE.INTER.CONST>
1

>  <SCORE.INTER.POLAR>
0

>  <SCORE.INTER.ROT>
11

>  <SCORE.INTER.SOLV>
11.6325

>  <SCORE.INTER.VDW>
-13.9889

>  <SCORE.INTER.norm>
0.0880679

>  <SCORE.INTRA>
-12.0481

>  <SCORE.INTRA.DIHEDRAL>
-24.4428

>  <SCORE.INTRA.DIHEDRAL.0>
25.9209

>  <SCORE.INTRA.POLAR>
0

>  <SCORE.INTRA.POLAR.0>
0

>  <SCORE.INTRA.REPUL>
0

>  <SCORE.INTRA.REPUL.0>
0

>  <SCORE.INTRA.SOLV>
-0.777817

>  <SCORE.INTRA.SOLV.lig_0>
-47.4815

>  <SCORE.INTRA.VDW>
0.562214

>  <SCORE.INTRA.VDW.0>
-1.57492

>  <SCORE.INTRA.norm>
-0.860578

>  <SCORE.RESTR>
0

>  <SCORE.RESTR.CAVITY>
0

>  <SCORE.RESTR.norm>
0

>  <SCORE.SYSTEM>
0

>  <SCORE.SYSTEM.CONST>
0

>  <SCORE.SYSTEM.DIHEDRAL>
0

>  <SCORE.SYSTEM.SOLV>
0

>  <SCORE.SYSTEM.norm>
0

>  <SCORE.heavy>
14

>  <SCORE.norm>
-0.77251

>  <RMSD>
55.071

$$$$
ligand
 OpenBabel11021811493D
libRbt.so/2013.1/901 2013/11/27
 14 13  0  0  0  0  0  0  0  0999 V2000
    6.0997   21.6884   23.1577 N   0  0  0  0  0  0  0  0  0  0  0  0
    7.1223   20.6585   23.2946 C   0  0  0  0  0  0  0  0  0  0  0  0
    7.7269   20.6679   24.7148 C   0  0  0  0  0  0  0  0  0  0  0  0
    8.7685   19.5619   24.9768 C   0  0  0  0  0  0  0  0  0  0  0  0
    8.3295   18.1613   24.8861 N   0  0  0  0  0  0  0  0  0  0  0  0
    8.6786   17.1903   25.9292 C   0  0  0  0  0  0  0  0  0  0  0  0
    7.7852   17.2224   27.1727 C   0  0  0  0  0  0  0  0  0  0  0  0
    8.1270   16.1127   28.1815 C   0  0  0  0  0  0  0  0  0  0  0  0
    7.8474   14.6925   27.6644 C   0  0  0  0  0  0  0  0  0  0  0  0
    8.1679   13.6218   28.6112 N   0  0  0  0  0  0  0  0  0  0  0  0
    7.8145   12.2314   28.2759 C   0  0  0  0  0  0  0  0  0  0  0  0
    8.7810   11.4698   27.3382 C   0  0  0  0  0  0  0  0  0  0  0  0
    8.3437   10.0471   26.9347 C   0  0  0  0  0  0  0  0  0  0  0  0
    7.1297   10.0310   26.1237 N   0  0  0  0  0  0  0  0  0  0  0  0
  1  2  1  0  0  0  0
  2  3  1  0  0  0  0
  3  4  1  0  0  0  0
  4  5  1  0  0  0  0
  5  6  1  0  0  0  0
  6  7  1  0  0  0  0
  7  8  1  0  0  0  0
  8  9  1  0  0  0  0
  9 10  1  0  0  0  0
 10 11  1  0  0  0  0
 11 12  1  0  0  0  0
 12 13  1  0  0  0  0
 13 14  1  0  0  0  0
M  END
>  <CHROM.1>
176.97770056,-62.06179069,-132.79278092,81.49880428,175.46584368,-65.92916300
179.95132895,173.87455595,81.33144435,-176.40332828,65.16888718,7.90888541
15.95409975,26.23317818,1.78823338,-1.27798652,-0.13565579

>  <Name>
ligand

>  <RI>
0

>  <Rbt.Current_Directory>
/home/itssahil/PROJECTS/Mol_Feturizer/New_Systems/rnas/4E8Q

>  <Rbt.Executable>
rbdock ($Id: //depot/dev/client3/rdock/2013.1/src/exe/rbdock.cxx#4 $)

>  <Rbt.Library>
libRbt.so (2013.1, Build901 2013/11/27)

>  <Rbt.Parameter_File>
/export/apps/rDock/src/rDock_2013.1_src/data/scripts/dock_solv.prm

>  <Rbt.Receptor>
prm/blind_docking_40.prm

>  <SCORE>
-10.0485

>  <SCORE.INTER>
1.50359

>  <SCORE.INTER.CONST>
1

>  <SCORE.INTER.POLAR>
0

>  <SCORE.INTER.ROT>
11

>  <SCORE.INTER.SOLV>
10.1033

>  <SCORE.INTER.VDW>
-13.2987

>  <SCORE.INTER.norm>
0.107399

>  <SCORE.INTRA>
-11.552

>  <SCORE.INTRA.DIHEDRAL>
-23.7178

>  <SCORE.INTRA.DIHEDRAL.0>
25.9209

>  <SCORE.INTRA.POLAR>
0

>  <SCORE.INTRA.POLAR.0>
0

>  <SCORE.INTRA.REPUL>
0

>  <SCORE.INTRA.REPUL.0>
0

>  <SCORE.INTRA.SOLV>
-1.01622

>  <SCORE.INTRA.SOLV.lig_0>
-47.4815

>  <SCORE.INTRA.VDW>
0.814997

>  <SCORE.INTRA.VDW.0>
-1.57492

>  <SCORE.INTRA.norm>
-0.825146

>  <SCORE.RESTR>
0

>  <SCORE.RESTR.CAVITY>
0

>  <SCORE.RESTR.norm>
0

>  <SCORE.SYSTEM>
0

>  <SCORE.SYSTEM.CONST>
0

>  <SCORE.SYSTEM.DIHEDRAL>
0

>  <SCORE.SYSTEM.SOLV>
0

>  <SCORE.SYSTEM.norm>
0

>  <SCORE.heavy>
14

>  <SCORE.norm>
-0.717747

>  <RMSD>
55.232

$$$$
ligand
 OpenBabel11021811493D
libRbt.so/2013.1/901 2013/11/27
 14 13  0  0  0  0  0  0  0  0999 V2000
    8.8177   12.8329   39.7587 N   0  0  0  0  0  0  0  0  0  0  0  0
    9.6492   12.2664   38.7038 C   0  0  0  0  0  0  0  0  0  0  0  0
   11.1416   12.5688   38.9566 C   0  0  0  0  0  0  0  0  0  0  0  0
   12.1036   11.9768   37.9075 C   0  0  0  0  0  0  0  0  0  0  0  0
   12.0120   12.4723   36.5259 N   0  0  0  0  0  0  0  0  0  0  0  0
   13.2092   12.6002   35.6874 C   0  0  0  0  0  0  0  0  0  0  0  0
   13.7281   11.2887   35.0905 C   0  0  0  0  0  0  0  0  0  0  0  0
   15.1847   11.3889   34.6064 C   0  0  0  0  0  0  0  0  0  0  0  0
   15.6927   10.1259   33.8927 C   0  0  0  0  0  0  0  0  0  0  0  0
   15.6785    8.9118   34.7120 N   0  0  0  0  0  0  0  0  0  0  0  0
   16.1696    7.6471   34.1376 C   0  0  0  0  0  0  0  0  0  0  0  0
   16.1360    6.4017   35.0548 C   0  0  0  0  0  0  0  0  0  0  0  0
   16.7094    5.1051   34.4481 C   0  0  0  0  0  0  0  0  0  0  0  0
   18.1304    5.2038   34.1278 N   0  0  0  0  0  0  0  0  0  0  0  0
  1  2  1  0  0  0  0
  2  3  1  0  0  0  0
  3  4  1  0  0  0  0
  4  5  1  0  0  0  0
  5  6  1  0  0  0  0
  6  7  1  0  0  0  0
  7  8  1  0  0  0  0
  8  9  1  0  0  0  0
  9 10  1  0  0  0  0
 10 11  1  0  0  0  0
 11 12  1  0  0  0  0
 12 13  1  0  0  0  0
 13 14  1  0  0  0  0
M  END
>  <CHROM.1>
178.54406310,64.56827055,145.35009079,77.92184266,-161.97300562,-174.98389699
-60.50023626,-178.78812938,179.68496895,-177.57495919,62.99834178,13.88314312
10.05654783,35.97201266,2.68783388,0.76053976,-0.35647806

>  <Name>
ligand

>  <RI>
0

>  <Rbt.Current_Directory>
/home/itssahil/PROJECTS/Mol_Feturizer/New_Systems/rnas/4E8Q

>  <Rbt.Executable>
rbdock ($Id: //depot/dev/client3/rdock/2013.1/src/exe/rbdock.cxx#4 $)

>  <Rbt.Library>
libRbt.so (2013.1, Build901 2013/11/27)

>  <Rbt.Parameter_File>
/export/apps/rDock/src/rDock_2013.1_src/data/scripts/dock_solv.prm

>  <Rbt.Receptor>
prm/blind_docking_100.prm

>  <SCORE>
-13.9455

>  <SCORE.INTER>
-2.19078

>  <SCORE.INTER.CONST>
1

>  <SCORE.INTER.POLAR>
0

>  <SCORE.INTER.ROT>
11

>  <SCORE.INTER.SOLV>
9.80812

>  <SCORE.INTER.VDW>
-15.6632

>  <SCORE.INTER.norm>
-0.156484

>  <SCORE.INTRA>
-11.7547

>  <SCORE.INTRA.DIHEDRAL>
-23.5401

>  <SCORE.INTRA.DIHEDRAL.0>
25.9209

>  <SCORE.INTRA.POLAR>
0

>  <SCORE.INTRA.POLAR.0>
0

>  <SCORE.INTRA.REPUL>
0

>  <SCORE.INTRA.REPUL.0>
0

>  <SCORE.INTRA.SOLV>
-0.808752

>  <SCORE.INTRA.SOLV.lig_0>
-47.4815

>  <SCORE.INTRA.VDW>
0.419706

>  <SCORE.INTRA.VDW.0>
-1.57492

>  <SCORE.INTRA.norm>
-0.839624

>  <SCORE.RESTR>
0

>  <SCORE.RESTR.CAVITY>
0

>  <SCORE.RESTR.norm>
0

>  <SCORE.SYSTEM>
0

>  <SCORE.SYSTEM.CONST>
0

>  <SCORE.SYSTEM.DIHEDRAL>
0

>  <SCORE.SYSTEM.SOLV>
0

>  <SCORE.SYSTEM.norm>
0

>  <SCORE.heavy>
14

>  <SCORE.norm>
-0.996108

>  <RMSD>
55.267

$$$$
ligand
 OpenBabel11021811493D
libRbt.so/2013.1/901 2013/11/27
 14 13  0  0  0  0  0  0  0  0999 V2000
   19.0002    7.1098   35.4751 N   0  0  0  0  0  0  0  0  0  0  0  0
   17.9149    8.0725   35.6182 C   0  0  0  0  0  0  0  0  0  0  0  0
   16.5966    7.5047   35.0506 C   0  0  0  0  0  0  0  0  0  0  0  0
   15.4220    8.5030   35.0336 C   0  0  0  0  0  0  0  0  0  0  0  0
   15.5233    9.6772   34.1538 N   0  0  0  0  0  0  0  0  0  0  0  0
   15.9373   10.9827   34.6798 C   0  0  0  0  0  0  0  0  0  0  0  0
   14.8448   11.7630   35.4168 C   0  0  0  0  0  0  0  0  0  0  0  0
   13.6831   12.1759   34.4971 C   0  0  0  0  0  0  0  0  0  0  0  0
   12.5715   12.9613   35.2112 C   0  0  0  0  0  0  0  0  0  0  0  0
   11.8636   12.2120   36.2518 N   0  0  0  0  0  0  0  0  0  0  0  0
   12.3035   12.3302   37.6529 C   0  0  0  0  0  0  0  0  0  0  0  0
   11.4971   11.5384   38.7093 C   0  0  0  0  0  0  0  0  0  0  0  0
   10.0252   11.9627   38.8874 C   0  0  0  0  0  0  0  0  0  0  0  0
    9.8778   13.3566   39.2958 N   0  0  0  0  0  0  0  0  0  0  0  0
  1  2  1  0  0  0  0
  2  3  1  0  0  0  0
  3  4  1  0  0  0  0
  4  5  1  0  0  0  0
  5  6  1  0  0  0  0
  6  7  1  0  0  0  0
  7  8  1  0  0  0  0
  8  9  1  0  0  0  0
  9 10  1  0  0  0  0
 10 11  1  0  0  0  0
 11 12  1  0  0  0  0
 12 13  1  0  0  0  0
 13 14  1  0  0  0  0
M  END
>  <CHROM.1>
-174.37130184,65.78756473,-98.71095268,-78.91348824,-64.96001620,-179.99047792
-63.78783178,94.47910432,178.72432152,-64.12664408,-59.89444042,14.07579353
10.72505380,36.13803388,0.04744740,-0.69211208,2.24970772

>  <Name>
ligand

>  <RI>
0

>  <Rbt.Current_Directory>
/home/itssahil/PROJECTS/Mol_Feturizer/New_Systems/rnas/4E8Q

>  <Rbt.Executable>
rbdock ($Id: //depot/dev/client3/rdock/2013.1/src/exe/rbdock.cxx#4 $)

>  <Rbt.Library>
libRbt.so (2013.1, Build901 2013/11/27)

>  <Rbt.Parameter_File>
/export/apps/rDock/src/rDock_2013.1_src/data/scripts/dock_solv.prm

>  <Rbt.Receptor>
prm/blind_docking_60.prm

>  <SCORE>
-15.1211

>  <SCORE.INTER>
-3.73792

>  <SCORE.INTER.CONST>
1

>  <SCORE.INTER.POLAR>
0

>  <SCORE.INTER.ROT>
11

>  <SCORE.INTER.SOLV>
12.7865

>  <SCORE.INTER.VDW>
-17.6874

>  <SCORE.INTER.norm>
-0.266994

>  <SCORE.INTRA>
-11.3832

>  <SCORE.INTRA.DIHEDRAL>
-23.5893

>  <SCORE.INTRA.DIHEDRAL.0>
25.9209

>  <SCORE.INTRA.POLAR>
0

>  <SCORE.INTRA.POLAR.0>
0

>  <SCORE.INTRA.REPUL>
0

>  <SCORE.INTRA.REPUL.0>
0

>  <SCORE.INTRA.SOLV>
0.41887

>  <SCORE.INTRA.SOLV.lig_0>
-47.4815

>  <SCORE.INTRA.VDW>
0.202011

>  <SCORE.INTRA.VDW.0>
-1.57492

>  <SCORE.INTRA.norm>
-0.813086

>  <SCORE.RESTR>
0

>  <SCORE.RESTR.CAVITY>
0

>  <SCORE.RESTR.norm>
0

>  <SCORE.SYSTEM>
0

>  <SCORE.SYSTEM.CONST>
0

>  <SCORE.SYSTEM.DIHEDRAL>
0

>  <SCORE.SYSTEM.SOLV>
0

>  <SCORE.SYSTEM.norm>
0

>  <SCORE.heavy>
14

>  <SCORE.norm>
-1.08008

>  <RMSD>
55.276

$$$$
ligand
 OpenBabel11021811493D
libRbt.so/2013.1/901 2013/11/27
 14 13  0  0  0  0  0  0  0  0999 V2000
    6.9617   16.9230   26.7271 N   0  0  0  0  0  0  0  0  0  0  0  0
    6.4127   17.4440   25.4812 C   0  0  0  0  0  0  0  0  0  0  0  0
    7.4841   18.2253   24.6912 C   0  0  0  0  0  0  0  0  0  0  0  0
    6.9711   18.8912   23.3989 C   0  0  0  0  0  0  0  0  0  0  0  0
    6.3992   18.0279   22.3547 N   0  0  0  0  0  0  0  0  0  0  0  0
    5.9988   18.5775   21.0546 C   0  0  0  0  0  0  0  0  0  0  0  0
    5.4680   17.5505   20.0501 C   0  0  0  0  0  0  0  0  0  0  0  0
    4.1663   16.8771   20.5171 C   0  0  0  0  0  0  0  0  0  0  0  0
    3.5503   15.9246   19.4799 C   0  0  0  0  0  0  0  0  0  0  0  0
    4.4389   14.8502   19.0310 N   0  0  0  0  0  0  0  0  0  0  0  0
    4.4547   13.5723   19.7639 C   0  0  0  0  0  0  0  0  0  0  0  0
    3.1515   12.7387   19.7463 C   0  0  0  0  0  0  0  0  0  0  0  0
    2.6696   12.2750   18.3567 C   0  0  0  0  0  0  0  0  0  0  0  0
    1.4155   11.5292   18.4065 N   0  0  0  0  0  0  0  0  0  0  0  0
  1  2  1  0  0  0  0
  2  3  1  0  0  0  0
  3  4  1  0  0  0  0
  4  5  1  0  0  0  0
  5  6  1  0  0  0  0
  6  7  1  0  0  0  0
  7  8  1  0  0  0  0
  8  9  1  0  0  0  0
  9 10  1  0  0  0  0
 10 11  1  0  0  0  0
 11 12  1  0  0  0  0
 12 13  1  0  0  0  0
 13 14  1  0  0  0  0
M  END
>  <CHROM.1>
-176.29921312,-60.07957460,-174.66265907,177.83918806,63.93737744,175.37064516
56.76781424,89.46276825,64.52399986,61.09717101,-178.25043738,4.96738203
15.95786592,21.36126987,0.19390217,1.07398599,2.18674609

>  <Name>
ligand

>  <RI>
0

>  <Rbt.Current_Directory>
/home/itssahil/PROJECTS/Mol_Feturizer/New_Systems/rnas/4E8Q

>  <Rbt.Executable>
rbdock ($Id: //depot/dev/client3/rdock/2013.1/src/exe/rbdock.cxx#4 $)

>  <Rbt.Library>
libRbt.so (2013.1, Build901 2013/11/27)

>  <Rbt.Parameter_File>
/export/apps/rDock/src/rDock_2013.1_src/data/scripts/dock_solv.prm

>  <Rbt.Receptor>
prm/blind_docking_40.prm

>  <SCORE>
-14.1991

>  <SCORE.INTER>
-1.7312

>  <SCORE.INTER.CONST>
1

>  <SCORE.INTER.POLAR>
0

>  <SCORE.INTER.ROT>
11

>  <SCORE.INTER.SOLV>
10.0652

>  <SCORE.INTER.VDW>
-15.4425

>  <SCORE.INTER.norm>
-0.123657

>  <SCORE.INTRA>
-12.4679

>  <SCORE.INTRA.DIHEDRAL>
-25.0388

>  <SCORE.INTRA.DIHEDRAL.0>
25.9209

>  <SCORE.INTRA.POLAR>
0

>  <SCORE.INTRA.POLAR.0>
0

>  <SCORE.INTRA.REPUL>
0

>  <SCORE.INTRA.REPUL.0>
0

>  <SCORE.INTRA.SOLV>
-0.815703

>  <SCORE.INTRA.SOLV.lig_0>
-47.4815

>  <SCORE.INTRA.VDW>
0.459299

>  <SCORE.INTRA.VDW.0>
-1.57492

>  <SCORE.INTRA.norm>
-0.890567

>  <SCORE.RESTR>
0

>  <SCORE.RESTR.CAVITY>
0

>  <SCORE.RESTR.norm>
0

>  <SCORE.SYSTEM>
0

>  <SCORE.SYSTEM.CONST>
0

>  <SCORE.SYSTEM.DIHEDRAL>
0

>  <SCORE.SYSTEM.SOLV>
0

>  <SCORE.SYSTEM.norm>
0

>  <SCORE.heavy>
14

>  <SCORE.norm>
-1.01422

>  <RMSD>
55.323

$$$$
ligand
 OpenBabel11021811493D
libRbt.so/2013.1/901 2013/11/27
 14 13  0  0  0  0  0  0  0  0999 V2000
   -2.2118   10.9993   15.0482 N   0  0  0  0  0  0  0  0  0  0  0  0
   -1.1239   11.9688   15.0899 C   0  0  0  0  0  0  0  0  0  0  0  0
   -0.3566   11.9935   13.7508 C   0  0  0  0  0  0  0  0  0  0  0  0
    0.3402   10.6678   13.3851 C   0  0  0  0  0  0  0  0  0  0  0  0
   -0.5001    9.4810   13.1660 N   0  0  0  0  0  0  0  0  0  0  0  0
   -0.0615    8.1521   13.6067 C   0  0  0  0  0  0  0  0  0  0  0  0
   -1.0922    7.0339   13.4255 C   0  0  0  0  0  0  0  0  0  0  0  0
   -1.4931    6.8248   11.9553 C   0  0  0  0  0  0  0  0  0  0  0  0
   -0.3665    6.2582   11.0764 C   0  0  0  0  0  0  0  0  0  0  0  0
    0.7815    7.1509   10.9011 N   0  0  0  0  0  0  0  0  0  0  0  0
    0.7591    8.1528    9.8213 C   0  0  0  0  0  0  0  0  0  0  0  0
    1.4317    7.7576    8.4852 C   0  0  0  0  0  0  0  0  0  0  0  0
    2.9075    7.3204    8.5796 C   0  0  0  0  0  0  0  0  0  0  0  0
    3.4573    6.8847    7.2993 N   0  0  0  0  0  0  0  0  0  0  0  0
  1  2  1  0  0  0  0
  2  3  1  0  0  0  0
  3  4  1  0  0  0  0
  4  5  1  0  0  0  0
  5  6  1  0  0  0  0
  6  7  1  0  0  0  0
  7  8  1  0  0  0  0
  8  9  1  0  0  0  0
  9 10  1  0  0  0  0
 10 11  1  0  0  0  0
 11 12  1  0  0  0  0
 12 13  1  0  0  0  0
 13 14  1  0  0  0  0
M  END
>  <CHROM.1>
-62.65969646,63.00135887,-142.53305389,174.72523294,60.84628344,68.14129803
-65.64727150,-86.54273405,-94.90528684,-55.95176650,176.52535453,0.17645780
8.61754891,11.82797719,2.25734862,0.84864599,0.44481612

>  <Name>
ligand

>  <RI>
0

>  <Rbt.Current_Directory>
/home/itssahil/PROJECTS/Mol_Feturizer/New_Systems/rnas/4E8Q

>  <Rbt.Executable>
rbdock ($Id: //depot/dev/client3/rdock/2013.1/src/exe/rbdock.cxx#4 $)

>  <Rbt.Library>
libRbt.so (2013.1, Build901 2013/11/27)

>  <Rbt.Parameter_File>
/export/apps/rDock/src/rDock_2013.1_src/data/scripts/dock_solv.prm

>  <Rbt.Receptor>
prm/blind_docking_20.prm

>  <SCORE>
-7.45727

>  <SCORE.INTER>
2.11988

>  <SCORE.INTER.CONST>
1

>  <SCORE.INTER.POLAR>
0

>  <SCORE.INTER.ROT>
11

>  <SCORE.INTER.SOLV>
8.5733

>  <SCORE.INTER.VDW>
-12.3778

>  <SCORE.INTER.norm>
0.15142

>  <SCORE.INTRA>
-9.57715

>  <SCORE.INTRA.DIHEDRAL>
-23.2607

>  <SCORE.INTRA.DIHEDRAL.0>
25.9209

>  <SCORE.INTRA.POLAR>
0

>  <SCORE.INTRA.POLAR.0>
0

>  <SCORE.INTRA.REPUL>
0

>  <SCORE.INTRA.REPUL.0>
0

>  <SCORE.INTRA.SOLV>
3.73543

>  <SCORE.INTRA.SOLV.lig_0>
-47.4815

>  <SCORE.INTRA.VDW>
0.185504

>  <SCORE.INTRA.VDW.0>
-1.57492

>  <SCORE.INTRA.norm>
-0.684082

>  <SCORE.RESTR>
0

>  <SCORE.RESTR.CAVITY>
0

>  <SCORE.RESTR.norm>
0

>  <SCORE.SYSTEM>
0

>  <SCORE.SYSTEM.CONST>
0

>  <SCORE.SYSTEM.DIHEDRAL>
0

>  <SCORE.SYSTEM.SOLV>
0

>  <SCORE.SYSTEM.norm>
0

>  <SCORE.heavy>
14

>  <SCORE.norm>
-0.532662

>  <RMSD>
55.403

$$$$
ligand
 OpenBabel11021811493D
libRbt.so/2013.1/901 2013/11/27
 14 13  0  0  0  0  0  0  0  0999 V2000
   -0.1497    7.2131    8.1571 N   0  0  0  0  0  0  0  0  0  0  0  0
    0.5098    8.2661    8.9195 C   0  0  0  0  0  0  0  0  0  0  0  0
    0.8320    7.7897   10.3519 C   0  0  0  0  0  0  0  0  0  0  0  0
   -0.3924    7.3239   11.1646 C   0  0  0  0  0  0  0  0  0  0  0  0
   -0.1864    6.9399   12.5691 N   0  0  0  0  0  0  0  0  0  0  0  0
   -0.5557    7.8455   13.6627 C   0  0  0  0  0  0  0  0  0  0  0  0
   -0.5082    7.2273   15.0631 C   0  0  0  0  0  0  0  0  0  0  0  0
   -1.0213    8.1822   16.1543 C   0  0  0  0  0  0  0  0  0  0  0  0
   -0.0704    9.3511   16.4574 C   0  0  0  0  0  0  0  0  0  0  0  0
    0.2657   10.1833   15.2998 N   0  0  0  0  0  0  0  0  0  0  0  0
    0.9325   11.4798   15.5116 C   0  0  0  0  0  0  0  0  0  0  0  0
    2.0964   11.8332   14.5555 C   0  0  0  0  0  0  0  0  0  0  0  0
    1.7262   11.9565   13.0636 C   0  0  0  0  0  0  0  0  0  0  0  0
    2.8907   12.1133   12.1971 N   0  0  0  0  0  0  0  0  0  0  0  0
  1  2  1  0  0  0  0
  2  3  1  0  0  0  0
  3  4  1  0  0  0  0
  4  5  1  0  0  0  0
  5  6  1  0  0  0  0
  6  7  1  0  0  0  0
  7  8  1  0  0  0  0
  8  9  1  0  0  0  0
  9 10  1  0  0  0  0
 10 11  1  0  0  0  0
 11 12  1  0  0  0  0
 12 13  1  0  0  0  0
 13 14  1  0  0  0  0
M  END
>  <CHROM.1>
-57.95828596,-175.94885649,102.49495974,170.06731997,-174.98669021,-71.68401591
56.84109205,167.39337298,137.04757208,62.18855834,-172.30300546,0.45484605
9.12178970,13.08093834,-1.72705086,1.01822801,1.23929598

>  <Name>
ligand

>  <RI>
0

>  <Rbt.Current_Directory>
/home/itssahil/PROJECTS/Mol_Feturizer/New_Systems/rnas/4E8Q

>  <Rbt.Executable>
rbdock ($Id: //depot/dev/client3/rdock/2013.1/src/exe/rbdock.cxx#4 $)

>  <Rbt.Library>
libRbt.so (2013.1, Build901 2013/11/27)

>  <Rbt.Parameter_File>
/export/apps/rDock/src/rDock_2013.1_src/data/scripts/dock_solv.prm

>  <Rbt.Receptor>
prm/blind_docking_20.prm

>  <SCORE>
-10.6055

>  <SCORE.INTER>
0.266844

>  <SCORE.INTER.CONST>
1

>  <SCORE.INTER.POLAR>
0

>  <SCORE.INTER.ROT>
11

>  <SCORE.INTER.SOLV>
17.2748

>  <SCORE.INTER.VDW>
-16.5137

>  <SCORE.INTER.norm>
0.0190603

>  <SCORE.INTRA>
-10.8724

>  <SCORE.INTRA.DIHEDRAL>
-22.7699

>  <SCORE.INTRA.DIHEDRAL.0>
25.9209

>  <SCORE.INTRA.POLAR>
0

>  <SCORE.INTRA.POLAR.0>
0

>  <SCORE.INTRA.REPUL>
0

>  <SCORE.INTRA.REPUL.0>
0

>  <SCORE.INTRA.SOLV>
-0.0482452

>  <SCORE.INTRA.SOLV.lig_0>
-47.4815

>  <SCORE.INTRA.VDW>
0.536702

>  <SCORE.INTRA.VDW.0>
-1.57492

>  <SCORE.INTRA.norm>
-0.776599

>  <SCORE.RESTR>
0

>  <SCORE.RESTR.CAVITY>
0

>  <SCORE.RESTR.norm>
0

>  <SCORE.SYSTEM>
0

>  <SCORE.SYSTEM.CONST>
0

>  <SCORE.SYSTEM.DIHEDRAL>
0

>  <SCORE.SYSTEM.SOLV>
0

>  <SCORE.SYSTEM.norm>
0

>  <SCORE.heavy>
14

>  <SCORE.norm>
-0.757539

>  <RMSD>
55.444

$$$$
ligand
 OpenBabel11021811493D
libRbt.so/2013.1/901 2013/11/27
 14 13  0  0  0  0  0  0  0  0999 V2000
   10.3584   12.4718   25.2732 N   0  0  0  0  0  0  0  0  0  0  0  0
   10.2275   13.9181   25.1462 C   0  0  0  0  0  0  0  0  0  0  0  0
   10.5536   14.6201   26.4816 C   0  0  0  0  0  0  0  0  0  0  0  0
   10.3566   16.1490   26.4684 C   0  0  0  0  0  0  0  0  0  0  0  0
    8.9955   16.6705   26.2725 N   0  0  0  0  0  0  0  0  0  0  0  0
    8.6944   18.0925   26.4725 C   0  0  0  0  0  0  0  0  0  0  0  0
    8.7591   18.9549   25.2085 C   0  0  0  0  0  0  0  0  0  0  0  0
    7.6327   18.6361   24.2107 C   0  0  0  0  0  0  0  0  0  0  0  0
    6.2535   19.1627   24.6384 C   0  0  0  0  0  0  0  0  0  0  0  0
    6.1537   20.6216   24.7217 N   0  0  0  0  0  0  0  0  0  0  0  0
    4.8495   21.2408   25.0153 C   0  0  0  0  0  0  0  0  0  0  0  0
    3.8415   21.3386   23.8458 C   0  0  0  0  0  0  0  0  0  0  0  0
    3.3466   19.9958   23.2715 C   0  0  0  0  0  0  0  0  0  0  0  0
    2.5928   19.2037   24.2389 N   0  0  0  0  0  0  0  0  0  0  0  0
  1  2  1  0  0  0  0
  2  3  1  0  0  0  0
  3  4  1  0  0  0  0
  4  5  1  0  0  0  0
  5  6  1  0  0  0  0
  6  7  1  0  0  0  0
  7  8  1  0  0  0  0
  8  9  1  0  0  0  0
  9 10  1  0  0  0  0
 10 11  1  0  0  0  0
 11 12  1  0  0  0  0
 12 13  1  0  0  0  0
 13 14  1  0  0  0  0
M  END
>  <CHROM.1>
-176.36523891,64.45568860,169.58988548,93.82188142,68.66380991,74.02599954
64.06977084,175.06762577,-78.30472840,63.88505138,63.52712557,7.32978754
17.93429591,25.09036471,0.69746311,0.40840659,-2.98111193

>  <Name>
ligand

>  <RI>
0

>  <Rbt.Current_Directory>
/home/itssahil/PROJECTS/Mol_Feturizer/New_Systems/rnas/4E8Q

>  <Rbt.Executable>
rbdock ($Id: //depot/dev/client3/rdock/2013.1/src/exe/rbdock.cxx#4 $)

>  <Rbt.Library>
libRbt.so (2013.1, Build901 2013/11/27)

>  <Rbt.Parameter_File>
/export/apps/rDock/src/rDock_2013.1_src/data/scripts/dock_solv.prm

>  <Rbt.Receptor>
prm/blind_docking_40.prm

>  <SCORE>
-11.6606

>  <SCORE.INTER>
-1.08277

>  <SCORE.INTER.CONST>
1

>  <SCORE.INTER.POLAR>
0

>  <SCORE.INTER.ROT>
11

>  <SCORE.INTER.SOLV>
10.8819

>  <SCORE.INTER.VDW>
-15.2825

>  <SCORE.INTER.norm>
-0.0773408

>  <SCORE.INTRA>
-10.5778

>  <SCORE.INTRA.DIHEDRAL>
-23.4809

>  <SCORE.INTRA.DIHEDRAL.0>
25.9209

>  <SCORE.INTRA.POLAR>
0

>  <SCORE.INTRA.POLAR.0>
0

>  <SCORE.INTRA.REPUL>
0

>  <SCORE.INTRA.REPUL.0>
0

>  <SCORE.INTRA.SOLV>
1.4454

>  <SCORE.INTRA.SOLV.lig_0>
-47.4815

>  <SCORE.INTRA.VDW>
0.439939

>  <SCORE.INTRA.VDW.0>
-1.57492

>  <SCORE.INTRA.norm>
-0.755557

>  <SCORE.RESTR>
0

>  <SCORE.RESTR.CAVITY>
0

>  <SCORE.RESTR.norm>
0

>  <SCORE.SYSTEM>
0

>  <SCORE.SYSTEM.CONST>
0

>  <SCORE.SYSTEM.DIHEDRAL>
0

>  <SCORE.SYSTEM.SOLV>
0

>  <SCORE.SYSTEM.norm>
0

>  <SCORE.heavy>
14

>  <SCORE.norm>
-0.832898

>  <RMSD>
55.555

$$$$
ligand
 OpenBabel11021811493D
libRbt.so/2013.1/901 2013/11/27
 14 13  0  0  0  0  0  0  0  0999 V2000
   -1.2831    6.9374    6.3122 N   0  0  0  0  0  0  0  0  0  0  0  0
   -1.2059    7.1511    7.7521 C   0  0  0  0  0  0  0  0  0  0  0  0
   -2.0886    6.1352    8.5079 C   0  0  0  0  0  0  0  0  0  0  0  0
   -2.0798    6.2924   10.0415 C   0  0  0  0  0  0  0  0  0  0  0  0
   -0.7958    6.1530   10.7448 N   0  0  0  0  0  0  0  0  0  0  0  0
    0.1386    7.2798   10.8438 C   0  0  0  0  0  0  0  0  0  0  0  0
    0.4342    7.7562   12.2690 C   0  0  0  0  0  0  0  0  0  0  0  0
   -0.8390    8.1144   13.0542 C   0  0  0  0  0  0  0  0  0  0  0  0
   -0.5712    8.6018   14.4872 C   0  0  0  0  0  0  0  0  0  0  0  0
    0.2980    9.7769   14.5821 N   0  0  0  0  0  0  0  0  0  0  0  0
   -0.1250   11.0409   13.9545 C   0  0  0  0  0  0  0  0  0  0  0  0
    0.9683   12.1126   13.7320 C   0  0  0  0  0  0  0  0  0  0  0  0
    2.0700   11.7475   12.7166 C   0  0  0  0  0  0  0  0  0  0  0  0
    3.0516   12.8122   12.5310 N   0  0  0  0  0  0  0  0  0  0  0  0
  1  2  1  0  0  0  0
  2  3  1  0  0  0  0
  3  4  1  0  0  0  0
  4  5  1  0  0  0  0
  5  6  1  0  0  0  0
  6  7  1  0  0  0  0
  7  8  1  0  0  0  0
  8  9  1  0  0  0  0
  9 10  1  0  0  0  0
 10 11  1  0  0  0  0
 11 12  1  0  0  0  0
 12 13  1  0  0  0  0
 13 14  1  0  0  0  0
M  END
>  <CHROM.1>
-179.50059556,-60.16102261,82.87804088,118.08366974,-55.02030997,-179.75211181
57.92630294,61.30413680,-163.17336403,66.11733818,178.67941092,-0.14502346
8.70786905,11.53797978,-2.28522460,1.00099731,1.45548347

>  <Name>
ligand

>  <RI>
0

>  <Rbt.Current_Directory>
/home/itssahil/PROJECTS/Mol_Feturizer/New_Systems/rnas/4E8Q

>  <Rbt.Executable>
rbdock ($Id: //depot/dev/client3/rdock/2013.1/src/exe/rbdock.cxx#4 $)

>  <Rbt.Library>
libRbt.so (2013.1, Build901 2013/11/27)

>  <Rbt.Parameter_File>
/export/apps/rDock/src/rDock_2013.1_src/data/scripts/dock_solv.prm

>  <Rbt.Receptor>
prm/blind_docking_20.prm

>  <SCORE>
-8.73417

>  <SCORE.INTER>
3.13565

>  <SCORE.INTER.CONST>
1

>  <SCORE.INTER.POLAR>
0

>  <SCORE.INTER.ROT>
11

>  <SCORE.INTER.SOLV>
15.2013

>  <SCORE.INTER.VDW>
-13.91

>  <SCORE.INTER.norm>
0.223975

>  <SCORE.INTRA>
-11.8698

>  <SCORE.INTRA.DIHEDRAL>
-23.8651

>  <SCORE.INTRA.DIHEDRAL.0>
25.9209

>  <SCORE.INTRA.POLAR>
0

>  <SCORE.INTRA.POLAR.0>
0

>  <SCORE.INTRA.REPUL>
0

>  <SCORE.INTRA.REPUL.0>
0

>  <SCORE.INTRA.SOLV>
-0.752108

>  <SCORE.INTRA.SOLV.lig_0>
-47.4815

>  <SCORE.INTRA.VDW>
0.438787

>  <SCORE.INTRA.VDW.0>
-1.57492

>  <SCORE.INTRA.norm>
-0.847845

>  <SCORE.RESTR>
0

>  <SCORE.RESTR.CAVITY>
0

>  <SCORE.RESTR.norm>
0

>  <SCORE.SYSTEM>
0

>  <SCORE.SYSTEM.CONST>
0

>  <SCORE.SYSTEM.DIHEDRAL>
0

>  <SCORE.SYSTEM.SOLV>
0

>  <SCORE.SYSTEM.norm>
0

>  <SCORE.heavy>
14

>  <SCORE.norm>
-0.62387

>  <RMSD>
55.566

$$$$
ligand
 OpenBabel11021811493D
libRbt.so/2013.1/901 2013/11/27
 14 13  0  0  0  0  0  0  0  0999 V2000
    4.0406    7.4996    6.4392 N   0  0  0  0  0  0  0  0  0  0  0  0
    2.9831    7.3515    7.4317 C   0  0  0  0  0  0  0  0  0  0  0  0
    1.5937    7.5524    6.7902 C   0  0  0  0  0  0  0  0  0  0  0  0
    0.4093    7.4167    7.7677 C   0  0  0  0  0  0  0  0  0  0  0  0
    0.4024    8.2640    8.9697 N   0  0  0  0  0  0  0  0  0  0  0  0
   -0.5027    7.9811   10.0892 C   0  0  0  0  0  0  0  0  0  0  0  0
   -0.1592    6.7300   10.9030 C   0  0  0  0  0  0  0  0  0  0  0  0
   -0.8999    6.6725   12.2497 C   0  0  0  0  0  0  0  0  0  0  0  0
   -0.4680    7.7606   13.2458 C   0  0  0  0  0  0  0  0  0  0  0  0
   -1.3341    7.8955   14.4193 N   0  0  0  0  0  0  0  0  0  0  0  0
   -0.7337    7.8905   15.7646 C   0  0  0  0  0  0  0  0  0  0  0  0
   -1.5991    8.4473   16.9199 C   0  0  0  0  0  0  0  0  0  0  0  0
   -2.9811    7.7878   17.1020 C   0  0  0  0  0  0  0  0  0  0  0  0
   -2.8970    6.3840   17.4944 N   0  0  0  0  0  0  0  0  0  0  0  0
  1  2  1  0  0  0  0
  2  3  1  0  0  0  0
  3  4  1  0  0  0  0
  4  5  1  0  0  0  0
  5  6  1  0  0  0  0
  6  7  1  0  0  0  0
  7  8  1  0  0  0  0
  8  9  1  0  0  0  0
  9 10  1  0  0  0  0
 10 11  1  0  0  0  0
 11 12  1  0  0  0  0
 12 13  1  0  0  0  0
 13 14  1  0  0  0  0
M  END
>  <CHROM.1>
-179.88570902,55.28221368,-165.53297868,70.71166821,165.45247598,-67.07887365
168.35694372,129.05799564,162.26442364,55.63325838,65.15886868,-0.15335202
7.54525548,11.82759286,-1.13723220,0.17556185,1.48699032

>  <Name>
ligand

>  <RI>
0

>  <Rbt.Current_Directory>
/home/itssahil/PROJECTS/Mol_Feturizer/New_Systems/rnas/4E8Q

>  <Rbt.Executable>
rbdock ($Id: //depot/dev/client3/rdock/2013.1/src/exe/rbdock.cxx#4 $)

>  <Rbt.Library>
libRbt.so (2013.1, Build901 2013/11/27)

>  <Rbt.Parameter_File>
/export/apps/rDock/src/rDock_2013.1_src/data/scripts/dock_solv.prm

>  <Rbt.Receptor>
prm/blind_docking_20.prm

>  <SCORE>
-6.65982

>  <SCORE.INTER>
3.84602

>  <SCORE.INTER.CONST>
1

>  <SCORE.INTER.POLAR>
0

>  <SCORE.INTER.ROT>
11

>  <SCORE.INTER.SOLV>
11.11

>  <SCORE.INTER.VDW>
-12.0727

>  <SCORE.INTER.norm>
0.274716

>  <SCORE.INTRA>
-10.5058

>  <SCORE.INTRA.DIHEDRAL>
-22.5671

>  <SCORE.INTRA.DIHEDRAL.0>
25.9209

>  <SCORE.INTRA.POLAR>
0

>  <SCORE.INTRA.POLAR.0>
0

>  <SCORE.INTRA.REPUL>
0

>  <SCORE.INTRA.REPUL.0>
0

>  <SCORE.INTRA.SOLV>
0.0316883

>  <SCORE.INTRA.SOLV.lig_0>
-47.4815

>  <SCORE.INTRA.VDW>
0.761858

>  <SCORE.INTRA.VDW.0>
-1.57492

>  <SCORE.INTRA.norm>
-0.750417

>  <SCORE.RESTR>
0

>  <SCORE.RESTR.CAVITY>
0

>  <SCORE.RESTR.norm>
0

>  <SCORE.SYSTEM>
0

>  <SCORE.SYSTEM.CONST>
0

>  <SCORE.SYSTEM.DIHEDRAL>
0

>  <SCORE.SYSTEM.SOLV>
0

>  <SCORE.SYSTEM.norm>
0

>  <SCORE.heavy>
14

>  <SCORE.norm>
-0.475701

>  <RMSD>
55.600

$$$$
ligand
 OpenBabel11021811493D
libRbt.so/2013.1/901 2013/11/27
 14 13  0  0  0  0  0  0  0  0999 V2000
    8.8301   14.6354   26.9073 N   0  0  0  0  0  0  0  0  0  0  0  0
    9.8732   15.1308   26.0175 C   0  0  0  0  0  0  0  0  0  0  0  0
   10.5071   16.4221   26.5772 C   0  0  0  0  0  0  0  0  0  0  0  0
    9.5626   17.6403   26.6076 C   0  0  0  0  0  0  0  0  0  0  0  0
    8.9978   18.1109   25.3339 N   0  0  0  0  0  0  0  0  0  0  0  0
    7.9977   19.1839   25.3008 C   0  0  0  0  0  0  0  0  0  0  0  0
    7.2892   19.3711   23.9560 C   0  0  0  0  0  0  0  0  0  0  0  0
    6.5593   18.1019   23.4846 C   0  0  0  0  0  0  0  0  0  0  0  0
    5.7681   18.2860   22.1798 C   0  0  0  0  0  0  0  0  0  0  0  0
    4.6034   19.1675   22.2888 N   0  0  0  0  0  0  0  0  0  0  0  0
    3.6591   19.2595   21.1617 C   0  0  0  0  0  0  0  0  0  0  0  0
    2.9621   17.9497   20.7234 C   0  0  0  0  0  0  0  0  0  0  0  0
    2.1863   17.2004   21.8255 C   0  0  0  0  0  0  0  0  0  0  0  0
    1.0688   17.9713   22.3625 N   0  0  0  0  0  0  0  0  0  0  0  0
  1  2  1  0  0  0  0
  2  3  1  0  0  0  0
  3  4  1  0  0  0  0
  4  5  1  0  0  0  0
  5  6  1  0  0  0  0
  6  7  1  0  0  0  0
  7  8  1  0  0  0  0
  8  9  1  0  0  0  0
  9 10  1  0  0  0  0
 10 11  1  0  0  0  0
 11 12  1  0  0  0  0
 12 13  1  0  0  0  0
 13 14  1  0  0  0  0
M  END
>  <CHROM.1>
-67.09066455,-60.05820236,174.32312136,-167.83664365,58.36132520,176.46884792
-67.94430268,-170.95484880,59.51483811,55.74197240,62.94042031,6.41912833
17.74517121,23.90891074,0.41389540,0.49889662,2.75520209

>  <Name>
ligand

>  <RI>
0

>  <Rbt.Current_Directory>
/home/itssahil/PROJECTS/Mol_Feturizer/New_Systems/rnas/4E8Q

>  <Rbt.Executable>
rbdock ($Id: //depot/dev/client3/rdock/2013.1/src/exe/rbdock.cxx#4 $)

>  <Rbt.Library>
libRbt.so (2013.1, Build901 2013/11/27)

>  <Rbt.Parameter_File>
/export/apps/rDock/src/rDock_2013.1_src/data/scripts/dock_solv.prm

>  <Rbt.Receptor>
prm/blind_docking_80.prm

>  <SCORE>
-10.8564

>  <SCORE.INTER>
0.368689

>  <SCORE.INTER.CONST>
1

>  <SCORE.INTER.POLAR>
0

>  <SCORE.INTER.ROT>
11

>  <SCORE.INTER.SOLV>
9.61307

>  <SCORE.INTER.VDW>
-13.8919

>  <SCORE.INTER.norm>
0.0263349

>  <SCORE.INTRA>
-11.2251

>  <SCORE.INTRA.DIHEDRAL>
-25.1241

>  <SCORE.INTRA.DIHEDRAL.0>
25.9209

>  <SCORE.INTRA.POLAR>
0

>  <SCORE.INTRA.POLAR.0>
0

>  <SCORE.INTRA.REPUL>
0

>  <SCORE.INTRA.REPUL.0>
0

>  <SCORE.INTRA.SOLV>
1.75723

>  <SCORE.INTRA.SOLV.lig_0>
-47.4815

>  <SCORE.INTRA.VDW>
0.4583

>  <SCORE.INTRA.VDW.0>
-1.57492

>  <SCORE.INTRA.norm>
-0.801794

>  <SCORE.RESTR>
0

>  <SCORE.RESTR.CAVITY>
0

>  <SCORE.RESTR.norm>
0

>  <SCORE.SYSTEM>
0

>  <SCORE.SYSTEM.CONST>
0

>  <SCORE.SYSTEM.DIHEDRAL>
0

>  <SCORE.SYSTEM.SOLV>
0

>  <SCORE.SYSTEM.norm>
0

>  <SCORE.heavy>
14

>  <SCORE.norm>
-0.775459

>  <RMSD>
55.625

$$$$
ligand
 OpenBabel11021811493D
libRbt.so/2013.1/901 2013/11/27
 14 13  0  0  0  0  0  0  0  0999 V2000
   -0.9038    7.5799    5.9900 N   0  0  0  0  0  0  0  0  0  0  0  0
   -0.0539    6.6787    6.7586 C   0  0  0  0  0  0  0  0  0  0  0  0
    1.0301    7.4649    7.5263 C   0  0  0  0  0  0  0  0  0  0  0  0
    0.4917    8.3650    8.6562 C   0  0  0  0  0  0  0  0  0  0  0  0
   -0.3629    7.7509    9.6835 N   0  0  0  0  0  0  0  0  0  0  0  0
    0.1491    6.6897   10.5577 C   0  0  0  0  0  0  0  0  0  0  0  0
   -0.8918    6.0478   11.4796 C   0  0  0  0  0  0  0  0  0  0  0  0
   -1.2320    6.9245   12.6967 C   0  0  0  0  0  0  0  0  0  0  0  0
   -1.7583    8.3217   12.3311 C   0  0  0  0  0  0  0  0  0  0  0  0
   -0.7222    9.3455   12.1768 N   0  0  0  0  0  0  0  0  0  0  0  0
    0.1413    9.6778   13.3233 C   0  0  0  0  0  0  0  0  0  0  0  0
    0.6027   11.1491   13.4493 C   0  0  0  0  0  0  0  0  0  0  0  0
   -0.5068   12.1777   13.7477 C   0  0  0  0  0  0  0  0  0  0  0  0
   -1.1407   11.9736   15.0470 N   0  0  0  0  0  0  0  0  0  0  0  0
  1  2  1  0  0  0  0
  2  3  1  0  0  0  0
  3  4  1  0  0  0  0
  4  5  1  0  0  0  0
  5  6  1  0  0  0  0
  6  7  1  0  0  0  0
  7  8  1  0  0  0  0
  8  9  1  0  0  0  0
  9 10  1  0  0  0  0
 10 11  1  0  0  0  0
 11 12  1  0  0  0  0
 12 13  1  0  0  0  0
 13 14  1  0  0  0  0
M  END
>  <CHROM.1>
67.36821966,54.14954707,62.39018669,-174.01993305,-77.36129225,57.82258121
-89.24086154,-60.83727952,-146.11302741,66.67193416,64.21265009,-0.36821823
8.58166098,10.95894479,-1.33702095,1.28040459,0.81023456

>  <Name>
ligand

>  <RI>
0

>  <Rbt.Current_Directory>
/home/itssahil/PROJECTS/Mol_Feturizer/New_Systems/rnas/4E8Q

>  <Rbt.Executable>
rbdock ($Id: //depot/dev/client3/rdock/2013.1/src/exe/rbdock.cxx#4 $)

>  <Rbt.Library>
libRbt.so (2013.1, Build901 2013/11/27)

>  <Rbt.Parameter_File>
/export/apps/rDock/src/rDock_2013.1_src/data/scripts/dock_solv.prm

>  <Rbt.Receptor>
prm/blind_docking_20.prm

>  <SCORE>
-4.37574

>  <SCORE.INTER>
3.22738

>  <SCORE.INTER.CONST>
1

>  <SCORE.INTER.POLAR>
0

>  <SCORE.INTER.ROT>
11

>  <SCORE.INTER.SOLV>
6.16563

>  <SCORE.INTER.VDW>
-10.837

>  <SCORE.INTER.norm>
0.230527

>  <SCORE.INTRA>
-7.70526

>  <SCORE.INTRA.DIHEDRAL>
-20.8661

>  <SCORE.INTRA.DIHEDRAL.0>
25.9209

>  <SCORE.INTRA.POLAR>
0

>  <SCORE.INTRA.POLAR.0>
0

>  <SCORE.INTRA.REPUL>
0

>  <SCORE.INTRA.REPUL.0>
0

>  <SCORE.INTRA.SOLV>
3.73001

>  <SCORE.INTRA.SOLV.lig_0>
-47.4815

>  <SCORE.INTRA.VDW>
0.862795

>  <SCORE.INTRA.VDW.0>
-1.57492

>  <SCORE.INTRA.norm>
-0.550376

>  <SCORE.RESTR>
0.102141

>  <SCORE.RESTR.CAVITY>
0.102141

>  <SCORE.RESTR.norm>
0.00729582

>  <SCORE.SYSTEM>
0

>  <SCORE.SYSTEM.CONST>
0

>  <SCORE.SYSTEM.DIHEDRAL>
0

>  <SCORE.SYSTEM.SOLV>
0

>  <SCORE.SYSTEM.norm>
0

>  <SCORE.heavy>
14

>  <SCORE.norm>
-0.312553

>  <RMSD>
55.665

$$$$
ligand
 OpenBabel11021811493D
libRbt.so/2013.1/901 2013/11/27
 14 13  0  0  0  0  0  0  0  0999 V2000
    7.6577   24.7637   22.7470 N   0  0  0  0  0  0  0  0  0  0  0  0
    6.9541   24.0742   23.8216 C   0  0  0  0  0  0  0  0  0  0  0  0
    7.1749   22.5490   23.7347 C   0  0  0  0  0  0  0  0  0  0  0  0
    6.4005   21.7271   24.7842 C   0  0  0  0  0  0  0  0  0  0  0  0
    6.5638   20.2656   24.7778 N   0  0  0  0  0  0  0  0  0  0  0  0
    7.6889   19.6273   25.4702 C   0  0  0  0  0  0  0  0  0  0  0  0
    7.8370   18.1235   25.2213 C   0  0  0  0  0  0  0  0  0  0  0  0
    9.0206   17.5062   25.9854 C   0  0  0  0  0  0  0  0  0  0  0  0
    8.8313   17.4775   27.5105 C   0  0  0  0  0  0  0  0  0  0  0  0
    7.7055   16.6625   27.9727 N   0  0  0  0  0  0  0  0  0  0  0  0
    7.9692   15.4536   28.7723 C   0  0  0  0  0  0  0  0  0  0  0  0
    8.2530   14.1471   27.9937 C   0  0  0  0  0  0  0  0  0  0  0  0
    9.5296   14.1447   27.1286 C   0  0  0  0  0  0  0  0  0  0  0  0
    9.7082   12.9057   26.3772 N   0  0  0  0  0  0  0  0  0  0  0  0
  1  2  1  0  0  0  0
  2  3  1  0  0  0  0
  3  4  1  0  0  0  0
  4  5  1  0  0  0  0
  5  6  1  0  0  0  0
  6  7  1  0  0  0  0
  7  8  1  0  0  0  0
  8  9  1  0  0  0  0
  9 10  1  0  0  0  0
 10 11  1  0  0  0  0
 11 12  1  0  0  0  0
 12 13  1  0  0  0  0
 13 14  1  0  0  0  0
M  END
>  <CHROM.1>
-176.60911841,-179.50666120,84.31687294,-172.08916571,-179.27737599,68.25682390
62.68235325,114.37344192,-86.16627144,63.97937156,-177.53769780,7.94960779
18.53050462,25.87852680,-1.89702211,-0.96220369,2.46023105

>  <Name>
ligand

>  <RI>
0

>  <Rbt.Current_Directory>
/home/itssahil/PROJECTS/Mol_Feturizer/New_Systems/rnas/4E8Q

>  <Rbt.Executable>
rbdock ($Id: //depot/dev/client3/rdock/2013.1/src/exe/rbdock.cxx#4 $)

>  <Rbt.Library>
libRbt.so (2013.1, Build901 2013/11/27)

>  <Rbt.Parameter_File>
/export/apps/rDock/src/rDock_2013.1_src/data/scripts/dock_solv.prm

>  <Rbt.Receptor>
prm/blind_docking_40.prm

>  <SCORE>
-10.9997

>  <SCORE.INTER>
0.775358

>  <SCORE.INTER.CONST>
1

>  <SCORE.INTER.POLAR>
0

>  <SCORE.INTER.ROT>
11

>  <SCORE.INTER.SOLV>
7.201

>  <SCORE.INTER.VDW>
-12.8168

>  <SCORE.INTER.norm>
0.0553827

>  <SCORE.INTRA>
-11.775

>  <SCORE.INTRA.DIHEDRAL>
-23.354

>  <SCORE.INTRA.DIHEDRAL.0>
25.9209

>  <SCORE.INTRA.POLAR>
0

>  <SCORE.INTRA.POLAR.0>
0

>  <SCORE.INTRA.REPUL>
0

>  <SCORE.INTRA.REPUL.0>
0

>  <SCORE.INTRA.SOLV>
-1.14853

>  <SCORE.INTRA.SOLV.lig_0>
-47.4815

>  <SCORE.INTRA.VDW>
0.476214

>  <SCORE.INTRA.VDW.0>
-1.57492

>  <SCORE.INTRA.norm>
-0.841074

>  <SCORE.RESTR>
0

>  <SCORE.RESTR.CAVITY>
0

>  <SCORE.RESTR.norm>
0

>  <SCORE.SYSTEM>
0

>  <SCORE.SYSTEM.CONST>
0

>  <SCORE.SYSTEM.DIHEDRAL>
0

>  <SCORE.SYSTEM.SOLV>
0

>  <SCORE.SYSTEM.norm>
0

>  <SCORE.heavy>
14

>  <SCORE.norm>
-0.785691

>  <RMSD>
55.682

$$$$
ligand
 OpenBabel11021811493D
libRbt.so/2013.1/901 2013/11/27
 14 13  0  0  0  0  0  0  0  0999 V2000
    1.1453   11.5881   13.7337 N   0  0  0  0  0  0  0  0  0  0  0  0
   -0.1528   12.2512   13.7104 C   0  0  0  0  0  0  0  0  0  0  0  0
   -1.2781   11.2476   13.3800 C   0  0  0  0  0  0  0  0  0  0  0  0
   -1.4762   10.1362   14.4298 C   0  0  0  0  0  0  0  0  0  0  0  0
   -0.3637    9.2052   14.6715 N   0  0  0  0  0  0  0  0  0  0  0  0
   -0.5548    7.7545   14.5643 C   0  0  0  0  0  0  0  0  0  0  0  0
   -0.8661    7.2420   13.1551 C   0  0  0  0  0  0  0  0  0  0  0  0
    0.2476    7.5634   12.1440 C   0  0  0  0  0  0  0  0  0  0  0  0
   -0.0203    7.0252   10.7294 C   0  0  0  0  0  0  0  0  0  0  0  0
    1.0241    7.3319    9.7493 N   0  0  0  0  0  0  0  0  0  0  0  0
    0.6921    8.1554    8.5737 C   0  0  0  0  0  0  0  0  0  0  0  0
    0.0744    7.4241    7.3583 C   0  0  0  0  0  0  0  0  0  0  0  0
   -1.2773    6.7260    7.6103 C   0  0  0  0  0  0  0  0  0  0  0  0
   -1.8115    6.0690    6.4210 N   0  0  0  0  0  0  0  0  0  0  0  0
  1  2  1  0  0  0  0
  2  3  1  0  0  0  0
  3  4  1  0  0  0  0
  4  5  1  0  0  0  0
  5  6  1  0  0  0  0
  6  7  1  0  0  0  0
  7  8  1  0  0  0  0
  8  9  1  0  0  0  0
  9 10  1  0  0  0  0
 10 11  1  0  0  0  0
 11 12  1  0  0  0  0
 12 13  1  0  0  0  0
 13 14  1  0  0  0  0
M  END
>  <CHROM.1>
63.94272872,-62.41397464,-125.31932234,66.28748730,59.98018539,178.34412626
179.48158902,-118.10045187,-84.09714112,61.49226442,179.34833739,-0.32994340
8.55140696,11.44517304,-1.46444363,-1.37677855,-1.97030475

>  <Name>
ligand

>  <RI>
0

>  <Rbt.Current_Directory>
/home/itssahil/PROJECTS/Mol_Feturizer/New_Systems/rnas/4E8Q

>  <Rbt.Executable>
rbdock ($Id: //depot/dev/client3/rdock/2013.1/src/exe/rbdock.cxx#4 $)

>  <Rbt.Library>
libRbt.so (2013.1, Build901 2013/11/27)

>  <Rbt.Parameter_File>
/export/apps/rDock/src/rDock_2013.1_src/data/scripts/dock_solv.prm

>  <Rbt.Receptor>
prm/blind_docking_20.prm

>  <SCORE>
-8.54515

>  <SCORE.INTER>
1.99256

>  <SCORE.INTER.CONST>
1

>  <SCORE.INTER.POLAR>
0

>  <SCORE.INTER.ROT>
11

>  <SCORE.INTER.SOLV>
10.0244

>  <SCORE.INTER.VDW>
-12.9464

>  <SCORE.INTER.norm>
0.142326

>  <SCORE.INTRA>
-10.5377

>  <SCORE.INTRA.DIHEDRAL>
-22.9941

>  <SCORE.INTRA.DIHEDRAL.0>
25.9209

>  <SCORE.INTRA.POLAR>
0

>  <SCORE.INTRA.POLAR.0>
0

>  <SCORE.INTRA.REPUL>
0

>  <SCORE.INTRA.REPUL.0>
0

>  <SCORE.INTRA.SOLV>
1.4367

>  <SCORE.INTRA.SOLV.lig_0>
-47.4815

>  <SCORE.INTRA.VDW>
0.240999

>  <SCORE.INTRA.VDW.0>
-1.57492

>  <SCORE.INTRA.norm>
-0.752693

>  <SCORE.RESTR>
0

>  <SCORE.RESTR.CAVITY>
0

>  <SCORE.RESTR.norm>
0

>  <SCORE.SYSTEM>
0

>  <SCORE.SYSTEM.CONST>
0

>  <SCORE.SYSTEM.DIHEDRAL>
0

>  <SCORE.SYSTEM.SOLV>
0

>  <SCORE.SYSTEM.norm>
0

>  <SCORE.heavy>
14

>  <SCORE.norm>
-0.610368

>  <RMSD>
55.721

$$$$
ligand
 OpenBabel11021811493D
libRbt.so/2013.1/901 2013/11/27
 14 13  0  0  0  0  0  0  0  0999 V2000
   13.1932   19.5636   30.4801 N   0  0  0  0  0  0  0  0  0  0  0  0
   12.8804   19.3040   29.0801 C   0  0  0  0  0  0  0  0  0  0  0  0
   11.4364   18.7808   28.9262 C   0  0  0  0  0  0  0  0  0  0  0  0
   11.0745   18.3024   27.5060 C   0  0  0  0  0  0  0  0  0  0  0  0
    9.6700   17.9699   27.2239 N   0  0  0  0  0  0  0  0  0  0  0  0
    9.1940   17.8052   25.8459 C   0  0  0  0  0  0  0  0  0  0  0  0
    8.6777   19.0836   25.1790 C   0  0  0  0  0  0  0  0  0  0  0  0
    7.3537   19.5794   25.7849 C   0  0  0  0  0  0  0  0  0  0  0  0
    6.9405   20.9835   25.3156 C   0  0  0  0  0  0  0  0  0  0  0  0
    6.7770   21.1217   23.8666 N   0  0  0  0  0  0  0  0  0  0  0  0
    5.6821   20.4033   23.1915 C   0  0  0  0  0  0  0  0  0  0  0  0
    4.2644   21.0097   23.3172 C   0  0  0  0  0  0  0  0  0  0  0  0
    3.5568   20.7887   24.6695 C   0  0  0  0  0  0  0  0  0  0  0  0
    3.2176   19.3901   24.9150 N   0  0  0  0  0  0  0  0  0  0  0  0
  1  2  1  0  0  0  0
  2  3  1  0  0  0  0
  3  4  1  0  0  0  0
  4  5  1  0  0  0  0
  5  6  1  0  0  0  0
  6  7  1  0  0  0  0
  7  8  1  0  0  0  0
  8  9  1  0  0  0  0
  9 10  1  0  0  0  0
 10 11  1  0  0  0  0
 11 12  1  0  0  0  0
 12 13  1  0  0  0  0
 13 14  1  0  0  0  0
M  END
>  <CHROM.1>
-172.32033162,-171.42566031,165.98656822,-89.84653413,-69.55756226,169.64994953
58.58424409,66.88789468,77.88737126,-76.44810020,-67.32170695,8.13700897
19.57759528,26.09273445,-0.06045095,-0.59743963,0.21422397

>  <Name>
ligand

>  <RI>
0

>  <Rbt.Current_Directory>
/home/itssahil/PROJECTS/Mol_Feturizer/New_Systems/rnas/4E8Q

>  <Rbt.Executable>
rbdock ($Id: //depot/dev/client3/rdock/2013.1/src/exe/rbdock.cxx#4 $)

>  <Rbt.Library>
libRbt.so (2013.1, Build901 2013/11/27)

>  <Rbt.Parameter_File>
/export/apps/rDock/src/rDock_2013.1_src/data/scripts/dock_solv.prm

>  <Rbt.Receptor>
prm/blind_docking_40.prm

>  <SCORE>
-13.668

>  <SCORE.INTER>
-3.16497

>  <SCORE.INTER.CONST>
1

>  <SCORE.INTER.POLAR>
0

>  <SCORE.INTER.ROT>
11

>  <SCORE.INTER.SOLV>
13.934

>  <SCORE.INTER.VDW>
-17.688

>  <SCORE.INTER.norm>
-0.22607

>  <SCORE.INTRA>
-10.503

>  <SCORE.INTRA.DIHEDRAL>
-22.448

>  <SCORE.INTRA.DIHEDRAL.0>
25.9209

>  <SCORE.INTRA.POLAR>
0

>  <SCORE.INTRA.POLAR.0>
0

>  <SCORE.INTRA.REPUL>
0

>  <SCORE.INTRA.REPUL.0>
0

>  <SCORE.INTRA.SOLV>
0.589762

>  <SCORE.INTRA.SOLV.lig_0>
-47.4815

>  <SCORE.INTRA.VDW>
0.426074

>  <SCORE.INTRA.VDW.0>
-1.57492

>  <SCORE.INTRA.norm>
-0.750216

>  <SCORE.RESTR>
0

>  <SCORE.RESTR.CAVITY>
0

>  <SCORE.RESTR.norm>
0

>  <SCORE.SYSTEM>
0

>  <SCORE.SYSTEM.CONST>
0

>  <SCORE.SYSTEM.DIHEDRAL>
0

>  <SCORE.SYSTEM.SOLV>
0

>  <SCORE.SYSTEM.norm>
0

>  <SCORE.heavy>
14

>  <SCORE.norm>
-0.976286

>  <RMSD>
55.792

$$$$
ligand
 OpenBabel11021811493D
libRbt.so/2013.1/901 2013/11/27
 14 13  0  0  0  0  0  0  0  0999 V2000
   -0.7823    7.5552    6.7856 N   0  0  0  0  0  0  0  0  0  0  0  0
    0.2130    8.3090    7.5381 C   0  0  0  0  0  0  0  0  0  0  0  0
    0.6736    7.5225    8.7838 C   0  0  0  0  0  0  0  0  0  0  0  0
   -0.4370    7.2484    9.8173 C   0  0  0  0  0  0  0  0  0  0  0  0
   -0.1307    6.3519   10.9421 N   0  0  0  0  0  0  0  0  0  0  0  0
   -0.8990    6.4151   12.1904 C   0  0  0  0  0  0  0  0  0  0  0  0
   -0.4367    7.4838   13.1851 C   0  0  0  0  0  0  0  0  0  0  0  0
   -1.0863    7.3297   14.5708 C   0  0  0  0  0  0  0  0  0  0  0  0
   -0.8300    8.5154   15.5148 C   0  0  0  0  0  0  0  0  0  0  0  0
   -1.3062    9.8082   15.0177 N   0  0  0  0  0  0  0  0  0  0  0  0
   -0.7826   11.0491   15.6149 C   0  0  0  0  0  0  0  0  0  0  0  0
   -0.3121   12.1524   14.6377 C   0  0  0  0  0  0  0  0  0  0  0  0
    0.9083   11.7996   13.7636 C   0  0  0  0  0  0  0  0  0  0  0  0
    0.7061   10.5991   12.9578 N   0  0  0  0  0  0  0  0  0  0  0  0
  1  2  1  0  0  0  0
  2  3  1  0  0  0  0
  3  4  1  0  0  0  0
  4  5  1  0  0  0  0
  5  6  1  0  0  0  0
  6  7  1  0  0  0  0
  7  8  1  0  0  0  0
  8  9  1  0  0  0  0
  9 10  1  0  0  0  0
 10 11  1  0  0  0  0
 11 12  1  0  0  0  0
 12 13  1  0  0  0  0
 13 14  1  0  0  0  0
M  END
>  <CHROM.1>
-62.93384024,171.84272562,157.26861310,-83.73699282,-168.82079400,-170.21085026
59.09007475,-161.97907122,132.30116362,-65.07153820,57.06631524,-0.32153179
8.72430422,12.23745645,-1.41296837,1.28726724,0.98364623

>  <Name>
ligand

>  <RI>
0

>  <Rbt.Current_Directory>
/home/itssahil/PROJECTS/Mol_Feturizer/New_Systems/rnas/4E8Q

>  <Rbt.Executable>
rbdock ($Id: //depot/dev/client3/rdock/2013.1/src/exe/rbdock.cxx#4 $)

>  <Rbt.Library>
libRbt.so (2013.1, Build901 2013/11/27)

>  <Rbt.Parameter_File>
/export/apps/rDock/src/rDock_2013.1_src/data/scripts/dock_solv.prm

>  <Rbt.Receptor>
prm/blind_docking_20.prm

>  <SCORE>
-7.03834

>  <SCORE.INTER>
2.48047

>  <SCORE.INTER.CONST>
1

>  <SCORE.INTER.POLAR>
0

>  <SCORE.INTER.ROT>
11

>  <SCORE.INTER.SOLV>
8.24233

>  <SCORE.INTER.VDW>
-12.0271

>  <SCORE.INTER.norm>
0.177176

>  <SCORE.INTRA>
-9.52056

>  <SCORE.INTRA.DIHEDRAL>
-22.5439

>  <SCORE.INTRA.DIHEDRAL.0>
25.9209

>  <SCORE.INTRA.POLAR>
0

>  <SCORE.INTRA.POLAR.0>
0

>  <SCORE.INTRA.REPUL>
0

>  <SCORE.INTRA.REPUL.0>
0

>  <SCORE.INTRA.SOLV>
3.58151

>  <SCORE.INTRA.SOLV.lig_0>
-47.4815

>  <SCORE.INTRA.VDW>
-0.0393867

>  <SCORE.INTRA.VDW.0>
-1.57492

>  <SCORE.INTRA.norm>
-0.68004

>  <SCORE.RESTR>
0.00175655

>  <SCORE.RESTR.CAVITY>
0.00175655

>  <SCORE.RESTR.norm>
0.000125468

>  <SCORE.SYSTEM>
0

>  <SCORE.SYSTEM.CONST>
0

>  <SCORE.SYSTEM.DIHEDRAL>
0

>  <SCORE.SYSTEM.SOLV>
0

>  <SCORE.SYSTEM.norm>
0

>  <SCORE.heavy>
14

>  <SCORE.norm>
-0.502739

>  <RMSD>
55.931

$$$$
ligand
 OpenBabel11021811493D
libRbt.so/2013.1/901 2013/11/27
 14 13  0  0  0  0  0  0  0  0999 V2000
    0.5866   17.5836   23.8247 N   0  0  0  0  0  0  0  0  0  0  0  0
    1.2425   18.7513   23.2490 C   0  0  0  0  0  0  0  0  0  0  0  0
    2.6884   18.8849   23.7727 C   0  0  0  0  0  0  0  0  0  0  0  0
    3.5056   20.0178   23.1205 C   0  0  0  0  0  0  0  0  0  0  0  0
    4.9131   20.1737   23.5173 N   0  0  0  0  0  0  0  0  0  0  0  0
    5.9052   19.1382   23.2077 C   0  0  0  0  0  0  0  0  0  0  0  0
    7.3648   19.5538   23.4134 C   0  0  0  0  0  0  0  0  0  0  0  0
    7.6791   19.9261   24.8723 C   0  0  0  0  0  0  0  0  0  0  0  0
    7.6826   18.7275   25.8346 C   0  0  0  0  0  0  0  0  0  0  0  0
    8.7618   17.7634   25.6084 N   0  0  0  0  0  0  0  0  0  0  0  0
    9.4308   17.1434   26.7653 C   0  0  0  0  0  0  0  0  0  0  0  0
   10.4050   15.9786   26.4695 C   0  0  0  0  0  0  0  0  0  0  0  0
    9.7875   14.7448   25.7806 C   0  0  0  0  0  0  0  0  0  0  0  0
   10.7445   13.6594   25.5876 N   0  0  0  0  0  0  0  0  0  0  0  0
  1  2  1  0  0  0  0
  2  3  1  0  0  0  0
  3  4  1  0  0  0  0
  4  5  1  0  0  0  0
  5  6  1  0  0  0  0
  6  7  1  0  0  0  0
  7  8  1  0  0  0  0
  8  9  1  0  0  0  0
  9 10  1  0  0  0  0
 10 11  1  0  0  0  0
 11 12  1  0  0  0  0
 12 13  1  0  0  0  0
 13 14  1  0  0  0  0
M  END
>  <CHROM.1>
174.65570210,-177.19876083,65.47294280,167.78271847,61.56218577,70.39704611
66.96360051,141.06795949,170.80654595,-60.67454658,-177.27072212,6.47848509
18.00361459,24.64455245,2.69230342,-0.23428247,-0.22157136

>  <Name>
ligand

>  <RI>
0

>  <Rbt.Current_Directory>
/home/itssahil/PROJECTS/Mol_Feturizer/New_Systems/rnas/4E8Q

>  <Rbt.Executable>
rbdock ($Id: //depot/dev/client3/rdock/2013.1/src/exe/rbdock.cxx#4 $)

>  <Rbt.Library>
libRbt.so (2013.1, Build901 2013/11/27)

>  <Rbt.Parameter_File>
/export/apps/rDock/src/rDock_2013.1_src/data/scripts/dock_solv.prm

>  <Rbt.Receptor>
prm/blind_docking_100.prm

>  <SCORE>
-12.2617

>  <SCORE.INTER>
-0.531034

>  <SCORE.INTER.CONST>
1

>  <SCORE.INTER.POLAR>
0

>  <SCORE.INTER.ROT>
11

>  <SCORE.INTER.SOLV>
11.4828

>  <SCORE.INTER.VDW>
-15.115

>  <SCORE.INTER.norm>
-0.037931

>  <SCORE.INTRA>
-11.7306

>  <SCORE.INTRA.DIHEDRAL>
-24.0393

>  <SCORE.INTRA.DIHEDRAL.0>
25.9209

>  <SCORE.INTRA.POLAR>
0

>  <SCORE.INTRA.POLAR.0>
0

>  <SCORE.INTRA.REPUL>
0

>  <SCORE.INTRA.REPUL.0>
0

>  <SCORE.INTRA.SOLV>
-0.707044

>  <SCORE.INTRA.SOLV.lig_0>
-47.4815

>  <SCORE.INTRA.VDW>
0.642515

>  <SCORE.INTRA.VDW.0>
-1.57492

>  <SCORE.INTRA.norm>
-0.837903

>  <SCORE.RESTR>
0

>  <SCORE.RESTR.CAVITY>
0

>  <SCORE.RESTR.norm>
0

>  <SCORE.SYSTEM>
0

>  <SCORE.SYSTEM.CONST>
0

>  <SCORE.SYSTEM.DIHEDRAL>
0

>  <SCORE.SYSTEM.SOLV>
0

>  <SCORE.SYSTEM.norm>
0

>  <SCORE.heavy>
14

>  <SCORE.norm>
-0.875834

>  <RMSD>
56.026

$$$$
ligand
 OpenBabel11021811493D
libRbt.so/2013.1/901 2013/11/27
 14 13  0  0  0  0  0  0  0  0999 V2000
   -2.5183    5.1294    7.3952 N   0  0  0  0  0  0  0  0  0  0  0  0
   -1.9210    5.6540    6.1732 C   0  0  0  0  0  0  0  0  0  0  0  0
   -0.4204    5.9521    6.3776 C   0  0  0  0  0  0  0  0  0  0  0  0
   -0.1196    7.0548    7.4121 C   0  0  0  0  0  0  0  0  0  0  0  0
   -0.3111    6.7399    8.8358 N   0  0  0  0  0  0  0  0  0  0  0  0
   -1.5484    7.1096    9.5322 C   0  0  0  0  0  0  0  0  0  0  0  0
   -2.0835    6.0587   10.5093 C   0  0  0  0  0  0  0  0  0  0  0  0
   -1.1324    5.8041   11.6911 C   0  0  0  0  0  0  0  0  0  0  0  0
   -1.0027    6.9947   12.6546 C   0  0  0  0  0  0  0  0  0  0  0  0
   -0.2854    8.1492   12.1086 N   0  0  0  0  0  0  0  0  0  0  0  0
   -0.0116    9.3066   12.9781 C   0  0  0  0  0  0  0  0  0  0  0  0
   -1.1764   10.2975   13.2125 C   0  0  0  0  0  0  0  0  0  0  0  0
   -0.8638   11.4965   14.1306 C   0  0  0  0  0  0  0  0  0  0  0  0
   -0.5009   11.0979   15.4874 N   0  0  0  0  0  0  0  0  0  0  0  0
  1  2  1  0  0  0  0
  2  3  1  0  0  0  0
  3  4  1  0  0  0  0
  4  5  1  0  0  0  0
  5  6  1  0  0  0  0
  6  7  1  0  0  0  0
  7  8  1  0  0  0  0
  8  9  1  0  0  0  0
  9 10  1  0  0  0  0
 10 11  1  0  0  0  0
 11 12  1  0  0  0  0
 12 13  1  0  0  0  0
 13 14  1  0  0  0  0
M  END
>  <CHROM.1>
-63.88767515,72.87874271,-96.94274868,139.64461229,64.21042072,67.80082512
-70.02106376,-175.34838695,-79.45182077,179.77585220,-61.78620037,-0.99258165
7.63172535,10.60687561,1.80466829,-1.21140475,-1.92524263

>  <Name>
ligand

>  <RI>
0

>  <Rbt.Current_Directory>
/home/itssahil/PROJECTS/Mol_Feturizer/New_Systems/rnas/4E8Q

>  <Rbt.Executable>
rbdock ($Id: //depot/dev/client3/rdock/2013.1/src/exe/rbdock.cxx#4 $)

>  <Rbt.Library>
libRbt.so (2013.1, Build901 2013/11/27)

>  <Rbt.Parameter_File>
/export/apps/rDock/src/rDock_2013.1_src/data/scripts/dock_solv.prm

>  <Rbt.Receptor>
prm/blind_docking_20.prm

>  <SCORE>
-7.01852

>  <SCORE.INTER>
1.56364

>  <SCORE.INTER.CONST>
1

>  <SCORE.INTER.POLAR>
0

>  <SCORE.INTER.ROT>
11

>  <SCORE.INTER.SOLV>
6.74747

>  <SCORE.INTER.VDW>
-12.1401

>  <SCORE.INTER.norm>
0.111689

>  <SCORE.INTRA>
-8.58216

>  <SCORE.INTRA.DIHEDRAL>
-22.5319

>  <SCORE.INTRA.DIHEDRAL.0>
25.9209

>  <SCORE.INTRA.POLAR>
0

>  <SCORE.INTRA.POLAR.0>
0

>  <SCORE.INTRA.REPUL>
0

>  <SCORE.INTRA.REPUL.0>
0

>  <SCORE.INTRA.SOLV>
4.91905

>  <SCORE.INTRA.SOLV.lig_0>
-47.4815

>  <SCORE.INTRA.VDW>
0.224256

>  <SCORE.INTRA.VDW.0>
-1.57492

>  <SCORE.INTRA.norm>
-0.613011

>  <SCORE.RESTR>
0

>  <SCORE.RESTR.CAVITY>
0

>  <SCORE.RESTR.norm>
0

>  <SCORE.SYSTEM>
0

>  <SCORE.SYSTEM.CONST>
0

>  <SCORE.SYSTEM.DIHEDRAL>
0

>  <SCORE.SYSTEM.SOLV>
0

>  <SCORE.SYSTEM.norm>
0

>  <SCORE.heavy>
14

>  <SCORE.norm>
-0.501323

>  <RMSD>
56.061

$$$$
ligand
 OpenBabel11021811493D
libRbt.so/2013.1/901 2013/11/27
 14 13  0  0  0  0  0  0  0  0999 V2000
   16.3794    8.2200   33.9048 N   0  0  0  0  0  0  0  0  0  0  0  0
   15.6438    8.4347   35.1450 C   0  0  0  0  0  0  0  0  0  0  0  0
   16.1386    9.7068   35.8657 C   0  0  0  0  0  0  0  0  0  0  0  0
   15.8638   11.0217   35.1092 C   0  0  0  0  0  0  0  0  0  0  0  0
   14.4641   11.4010   34.8651 N   0  0  0  0  0  0  0  0  0  0  0  0
   14.0640   12.8107   34.7938 C   0  0  0  0  0  0  0  0  0  0  0  0
   12.5645   13.0519   34.5965 C   0  0  0  0  0  0  0  0  0  0  0  0
   11.7164   12.5217   35.7650 C   0  0  0  0  0  0  0  0  0  0  0  0
   11.9739   13.2406   37.0989 C   0  0  0  0  0  0  0  0  0  0  0  0
   11.3050   12.6422   38.2564 N   0  0  0  0  0  0  0  0  0  0  0  0
   11.7997   11.3633   38.7951 C   0  0  0  0  0  0  0  0  0  0  0  0
   13.2333   11.3560   39.3767 C   0  0  0  0  0  0  0  0  0  0  0  0
   13.4923   12.3379   40.5372 C   0  0  0  0  0  0  0  0  0  0  0  0
   12.6771   12.0577   41.7155 N   0  0  0  0  0  0  0  0  0  0  0  0
  1  2  1  0  0  0  0
  2  3  1  0  0  0  0
  3  4  1  0  0  0  0
  4  5  1  0  0  0  0
  5  6  1  0  0  0  0
  6  7  1  0  0  0  0
  7  8  1  0  0  0  0
  8  9  1  0  0  0  0
  9 10  1  0  0  0  0
 10 11  1  0  0  0  0
 11 12  1  0  0  0  0
 12 13  1  0  0  0  0
 13 14  1  0  0  0  0
M  END
>  <CHROM.1>
65.62086202,62.81425196,149.18842804,-177.39123015,62.72141344,64.74558118
-172.61068088,72.54555170,63.55378602,58.58481756,62.41747708,13.66540822
11.44058218,36.84450679,-0.76507867,-0.78488222,1.73660803

>  <Name>
ligand

>  <RI>
0

>  <Rbt.Current_Directory>
/home/itssahil/PROJECTS/Mol_Feturizer/New_Systems/rnas/4E8Q

>  <Rbt.Executable>
rbdock ($Id: //depot/dev/client3/rdock/2013.1/src/exe/rbdock.cxx#4 $)

>  <Rbt.Library>
libRbt.so (2013.1, Build901 2013/11/27)

>  <Rbt.Parameter_File>
/export/apps/rDock/src/rDock_2013.1_src/data/scripts/dock_solv.prm

>  <Rbt.Receptor>
prm/blind_docking_100.prm

>  <SCORE>
-14.215

>  <SCORE.INTER>
-3.47921

>  <SCORE.INTER.CONST>
1

>  <SCORE.INTER.POLAR>
0

>  <SCORE.INTER.ROT>
11

>  <SCORE.INTER.SOLV>
10.5142

>  <SCORE.INTER.VDW>
-16.7575

>  <SCORE.INTER.norm>
-0.248515

>  <SCORE.INTRA>
-10.7358

>  <SCORE.INTRA.DIHEDRAL>
-24.6504

>  <SCORE.INTRA.DIHEDRAL.0>
25.9209

>  <SCORE.INTRA.POLAR>
0

>  <SCORE.INTRA.POLAR.0>
0

>  <SCORE.INTRA.REPUL>
0

>  <SCORE.INTRA.REPUL.0>
0

>  <SCORE.INTRA.SOLV>
1.71836

>  <SCORE.INTRA.SOLV.lig_0>
-47.4815

>  <SCORE.INTRA.VDW>
0.730235

>  <SCORE.INTRA.VDW.0>
-1.57492

>  <SCORE.INTRA.norm>
-0.766842

>  <SCORE.RESTR>
0

>  <SCORE.RESTR.CAVITY>
0

>  <SCORE.RESTR.norm>
0

>  <SCORE.SYSTEM>
0

>  <SCORE.SYSTEM.CONST>
0

>  <SCORE.SYSTEM.DIHEDRAL>
0

>  <SCORE.SYSTEM.SOLV>
0

>  <SCORE.SYSTEM.norm>
0

>  <SCORE.heavy>
14

>  <SCORE.norm>
-1.01536

>  <RMSD>
56.097

$$$$
ligand
 OpenBabel11021811493D
libRbt.so/2013.1/901 2013/11/27
 14 13  0  0  0  0  0  0  0  0999 V2000
    9.2626   15.7581   26.6796 N   0  0  0  0  0  0  0  0  0  0  0  0
   10.7004   15.9955   26.6377 C   0  0  0  0  0  0  0  0  0  0  0  0
   11.0434   17.3972   27.1856 C   0  0  0  0  0  0  0  0  0  0  0  0
   10.5539   18.5670   26.3090 C   0  0  0  0  0  0  0  0  0  0  0  0
    9.1143   18.6647   26.0248 N   0  0  0  0  0  0  0  0  0  0  0  0
    8.6308   19.1591   24.7308 C   0  0  0  0  0  0  0  0  0  0  0  0
    7.1298   19.4568   24.6681 C   0  0  0  0  0  0  0  0  0  0  0  0
    6.6426   19.7688   23.2429 C   0  0  0  0  0  0  0  0  0  0  0  0
    5.1803   20.2371   23.1725 C   0  0  0  0  0  0  0  0  0  0  0  0
    4.2004   19.2597   23.6519 N   0  0  0  0  0  0  0  0  0  0  0  0
    2.8583   19.7184   24.0506 C   0  0  0  0  0  0  0  0  0  0  0  0
    1.6515   18.9602   23.4486 C   0  0  0  0  0  0  0  0  0  0  0  0
    1.5253   17.4754   23.8454 C   0  0  0  0  0  0  0  0  0  0  0  0
    0.3930   16.8084   23.2095 N   0  0  0  0  0  0  0  0  0  0  0  0
  1  2  1  0  0  0  0
  2  3  1  0  0  0  0
  3  4  1  0  0  0  0
  4  5  1  0  0  0  0
  5  6  1  0  0  0  0
  6  7  1  0  0  0  0
  7  8  1  0  0  0  0
  8  9  1  0  0  0  0
  9 10  1  0  0  0  0
 10 11  1  0  0  0  0
 11 12  1  0  0  0  0
 12 13  1  0  0  0  0
 13 14  1  0  0  0  0
M  END
>  <CHROM.1>
-67.72888013,58.24018448,-144.98123175,-168.90968355,-171.45986171,-172.98233654
-61.48509477,160.01755973,130.00389183,63.92854620,-178.09089449,6.34929819
18.37362595,24.77545155,0.24557711,0.27044681,2.71370710

>  <Name>
ligand

>  <RI>
0

>  <Rbt.Current_Directory>
/home/itssahil/PROJECTS/Mol_Feturizer/New_Systems/rnas/4E8Q

>  <Rbt.Executable>
rbdock ($Id: //depot/dev/client3/rdock/2013.1/src/exe/rbdock.cxx#4 $)

>  <Rbt.Library>
libRbt.so (2013.1, Build901 2013/11/27)

>  <Rbt.Parameter_File>
/export/apps/rDock/src/rDock_2013.1_src/data/scripts/dock_solv.prm

>  <Rbt.Receptor>
prm/blind_docking_40.prm

>  <SCORE>
-11.1583

>  <SCORE.INTER>
-0.526513

>  <SCORE.INTER.CONST>
1

>  <SCORE.INTER.POLAR>
0

>  <SCORE.INTER.ROT>
11

>  <SCORE.INTER.SOLV>
8.33993

>  <SCORE.INTER.VDW>
-14.0643

>  <SCORE.INTER.norm>
-0.0376081

>  <SCORE.INTRA>
-10.6318

>  <SCORE.INTRA.DIHEDRAL>
-22.8571

>  <SCORE.INTRA.DIHEDRAL.0>
25.9209

>  <SCORE.INTRA.POLAR>
0

>  <SCORE.INTRA.POLAR.0>
0

>  <SCORE.INTRA.REPUL>
0

>  <SCORE.INTRA.REPUL.0>
0

>  <SCORE.INTRA.SOLV>
1.42449

>  <SCORE.INTRA.SOLV.lig_0>
-47.4815

>  <SCORE.INTRA.VDW>
0.084496

>  <SCORE.INTRA.VDW.0>
-1.57492

>  <SCORE.INTRA.norm>
-0.759413

>  <SCORE.RESTR>
0

>  <SCORE.RESTR.CAVITY>
0

>  <SCORE.RESTR.norm>
0

>  <SCORE.SYSTEM>
0

>  <SCORE.SYSTEM.CONST>
0

>  <SCORE.SYSTEM.DIHEDRAL>
0

>  <SCORE.SYSTEM.SOLV>
0

>  <SCORE.SYSTEM.norm>
0

>  <SCORE.heavy>
14

>  <SCORE.norm>
-0.797021

>  <RMSD>
56.286

$$$$
ligand
 OpenBabel11021811493D
libRbt.so/2013.1/901 2013/11/27
 14 13  0  0  0  0  0  0  0  0999 V2000
    0.4204   17.4279   23.5040 N   0  0  0  0  0  0  0  0  0  0  0  0
    1.1931   18.6617   23.5815 C   0  0  0  0  0  0  0  0  0  0  0  0
    2.0946   18.8259   22.3393 C   0  0  0  0  0  0  0  0  0  0  0  0
    3.0970   19.9942   22.4231 C   0  0  0  0  0  0  0  0  0  0  0  0
    4.1466   19.9341   23.4515 N   0  0  0  0  0  0  0  0  0  0  0  0
    5.2460   20.9054   23.4676 C   0  0  0  0  0  0  0  0  0  0  0  0
    6.3004   20.6761   24.5544 C   0  0  0  0  0  0  0  0  0  0  0  0
    7.0128   19.3198   24.4175 C   0  0  0  0  0  0  0  0  0  0  0  0
    8.0592   19.0520   25.5111 C   0  0  0  0  0  0  0  0  0  0  0  0
    8.7014   17.7378   25.4357 N   0  0  0  0  0  0  0  0  0  0  0  0
    9.6089   17.3143   26.5163 C   0  0  0  0  0  0  0  0  0  0  0  0
   10.3279   15.9564   26.3352 C   0  0  0  0  0  0  0  0  0  0  0  0
    9.4111   14.7302   26.1510 C   0  0  0  0  0  0  0  0  0  0  0  0
   10.1518   13.4852   25.9699 N   0  0  0  0  0  0  0  0  0  0  0  0
  1  2  1  0  0  0  0
  2  3  1  0  0  0  0
  3  4  1  0  0  0  0
  4  5  1  0  0  0  0
  5  6  1  0  0  0  0
  6  7  1  0  0  0  0
  7  8  1  0  0  0  0
  8  9  1  0  0  0  0
  9 10  1  0  0  0  0
 10 11  1  0  0  0  0
 11 12  1  0  0  0  0
 12 13  1  0  0  0  0
 13 14  1  0  0  0  0
M  END
>  <CHROM.1>
-171.63108764,64.40057355,171.08278395,-177.09848714,61.17088768,-178.95139300
177.14209820,-173.24745967,-176.11462674,-58.24812294,179.32364556,6.12662992
18.14476129,24.54699621,2.68354611,-0.31208151,-0.16857353

>  <Name>
ligand

>  <RI>
0

>  <Rbt.Current_Directory>
/home/itssahil/PROJECTS/Mol_Feturizer/New_Systems/rnas/4E8Q

>  <Rbt.Executable>
rbdock ($Id: //depot/dev/client3/rdock/2013.1/src/exe/rbdock.cxx#4 $)

>  <Rbt.Library>
libRbt.so (2013.1, Build901 2013/11/27)

>  <Rbt.Parameter_File>
/export/apps/rDock/src/rDock_2013.1_src/data/scripts/dock_solv.prm

>  <Rbt.Receptor>
prm/blind_docking_60.prm

>  <SCORE>
-12.976

>  <SCORE.INTER>
0.0645579

>  <SCORE.INTER.CONST>
1

>  <SCORE.INTER.POLAR>
0

>  <SCORE.INTER.ROT>
11

>  <SCORE.INTER.SOLV>
9.92157

>  <SCORE.INTER.VDW>
-14.1975

>  <SCORE.INTER.norm>
0.00461128

>  <SCORE.INTRA>
-13.0406

>  <SCORE.INTRA.DIHEDRAL>
-25.4126

>  <SCORE.INTRA.DIHEDRAL.0>
25.9209

>  <SCORE.INTRA.POLAR>
0

>  <SCORE.INTRA.POLAR.0>
0

>  <SCORE.INTRA.REPUL>
0

>  <SCORE.INTRA.REPUL.0>
0

>  <SCORE.INTRA.SOLV>
-1.16548

>  <SCORE.INTRA.SOLV.lig_0>
-47.4815

>  <SCORE.INTRA.VDW>
0.248467

>  <SCORE.INTRA.VDW.0>
-1.57492

>  <SCORE.INTRA.norm>
-0.93147

>  <SCORE.RESTR>
0

>  <SCORE.RESTR.CAVITY>
0

>  <SCORE.RESTR.norm>
0

>  <SCORE.SYSTEM>
0

>  <SCORE.SYSTEM.CONST>
0

>  <SCORE.SYSTEM.DIHEDRAL>
0

>  <SCORE.SYSTEM.SOLV>
0

>  <SCORE.SYSTEM.norm>
0

>  <SCORE.heavy>
14

>  <SCORE.norm>
-0.926858

>  <RMSD>
56.306

$$$$
ligand
 OpenBabel11021811493D
libRbt.so/2013.1/901 2013/11/27
 14 13  0  0  0  0  0  0  0  0999 V2000
   11.0345   14.6067   40.3596 N   0  0  0  0  0  0  0  0  0  0  0  0
   10.1844   15.6487   39.7968 C   0  0  0  0  0  0  0  0  0  0  0  0
   10.7436   16.1466   38.4470 C   0  0  0  0  0  0  0  0  0  0  0  0
   10.8300   15.0668   37.3501 C   0  0  0  0  0  0  0  0  0  0  0  0
   11.7974   13.9736   37.5287 N   0  0  0  0  0  0  0  0  0  0  0  0
   11.6235   12.6899   36.8400 C   0  0  0  0  0  0  0  0  0  0  0  0
   11.8298   12.7325   35.3231 C   0  0  0  0  0  0  0  0  0  0  0  0
   13.2512   13.1662   34.9264 C   0  0  0  0  0  0  0  0  0  0  0  0
   14.3458   12.1704   35.3423 C   0  0  0  0  0  0  0  0  0  0  0  0
   14.2850   10.8743   34.6626 N   0  0  0  0  0  0  0  0  0  0  0  0
   15.1247    9.7648   35.1468 C   0  0  0  0  0  0  0  0  0  0  0  0
   15.4001    8.6103   34.1544 C   0  0  0  0  0  0  0  0  0  0  0  0
   16.2637    7.4523   34.6942 C   0  0  0  0  0  0  0  0  0  0  0  0
   16.5295    6.4231   33.6933 N   0  0  0  0  0  0  0  0  0  0  0  0
  1  2  1  0  0  0  0
  2  3  1  0  0  0  0
  3  4  1  0  0  0  0
  4  5  1  0  0  0  0
  5  6  1  0  0  0  0
  6  7  1  0  0  0  0
  7  8  1  0  0  0  0
  8  9  1  0  0  0  0
  9 10  1  0  0  0  0
 10 11  1  0  0  0  0
 11 12  1  0  0  0  0
 12 13  1  0  0  0  0
 13 14  1  0  0  0  0
M  END
>  <CHROM.1>
61.33810906,-67.73209354,157.31195773,69.53802920,61.37294020,65.64969487
65.99536778,-169.18655898,-159.64489807,-179.10752676,-177.72537844,13.08867856
12.09497056,36.30455126,-2.94566423,1.01498536,-1.23688057

>  <Name>
ligand

>  <RI>
0

>  <Rbt.Current_Directory>
/home/itssahil/PROJECTS/Mol_Feturizer/New_Systems/rnas/4E8Q

>  <Rbt.Executable>
rbdock ($Id: //depot/dev/client3/rdock/2013.1/src/exe/rbdock.cxx#4 $)

>  <Rbt.Library>
libRbt.so (2013.1, Build901 2013/11/27)

>  <Rbt.Parameter_File>
/export/apps/rDock/src/rDock_2013.1_src/data/scripts/dock_solv.prm

>  <Rbt.Receptor>
prm/blind_docking_60.prm

>  <SCORE>
-14.1201

>  <SCORE.INTER>
-3.48174

>  <SCORE.INTER.CONST>
1

>  <SCORE.INTER.POLAR>
0

>  <SCORE.INTER.ROT>
11

>  <SCORE.INTER.SOLV>
11.3102

>  <SCORE.INTER.VDW>
-17.0245

>  <SCORE.INTER.norm>
-0.248696

>  <SCORE.INTRA>
-10.6383

>  <SCORE.INTRA.DIHEDRAL>
-24.5411

>  <SCORE.INTRA.DIHEDRAL.0>
25.9209

>  <SCORE.INTRA.POLAR>
0

>  <SCORE.INTRA.POLAR.0>
0

>  <SCORE.INTRA.REPUL>
0

>  <SCORE.INTRA.REPUL.0>
0

>  <SCORE.INTRA.SOLV>
1.87703

>  <SCORE.INTRA.SOLV.lig_0>
-47.4815

>  <SCORE.INTRA.VDW>
0.693699

>  <SCORE.INTRA.VDW.0>
-1.57492

>  <SCORE.INTRA.norm>
-0.759879

>  <SCORE.RESTR>
0

>  <SCORE.RESTR.CAVITY>
0

>  <SCORE.RESTR.norm>
0

>  <SCORE.SYSTEM>
0

>  <SCORE.SYSTEM.CONST>
0

>  <SCORE.SYSTEM.DIHEDRAL>
0

>  <SCORE.SYSTEM.SOLV>
0

>  <SCORE.SYSTEM.norm>
0

>  <SCORE.heavy>
14

>  <SCORE.norm>
-1.00858

>  <RMSD>
56.362

$$$$
ligand
 OpenBabel11021811493D
libRbt.so/2013.1/901 2013/11/27
 14 13  0  0  0  0  0  0  0  0999 V2000
    1.8535   14.3094   20.1452 N   0  0  0  0  0  0  0  0  0  0  0  0
    3.0093   15.1901   20.0276 C   0  0  0  0  0  0  0  0  0  0  0  0
    2.6341   16.4967   19.2965 C   0  0  0  0  0  0  0  0  0  0  0  0
    1.6592   17.4077   20.0688 C   0  0  0  0  0  0  0  0  0  0  0  0
    2.0696   17.8959   21.3939 N   0  0  0  0  0  0  0  0  0  0  0  0
    3.3557   18.5757   21.5844 C   0  0  0  0  0  0  0  0  0  0  0  0
    3.2975   20.1050   21.5285 C   0  0  0  0  0  0  0  0  0  0  0  0
    4.6907   20.7563   21.5550 C   0  0  0  0  0  0  0  0  0  0  0  0
    5.4611   20.5274   22.8653 C   0  0  0  0  0  0  0  0  0  0  0  0
    6.8351   21.0347   22.8647 N   0  0  0  0  0  0  0  0  0  0  0  0
    7.7151   20.7381   24.0084 C   0  0  0  0  0  0  0  0  0  0  0  0
    7.9728   19.2459   24.3253 C   0  0  0  0  0  0  0  0  0  0  0  0
    8.8497   18.9635   25.5619 C   0  0  0  0  0  0  0  0  0  0  0  0
    8.9778   17.5397   25.8584 N   0  0  0  0  0  0  0  0  0  0  0  0
  1  2  1  0  0  0  0
  2  3  1  0  0  0  0
  3  4  1  0  0  0  0
  4  5  1  0  0  0  0
  5  6  1  0  0  0  0
  6  7  1  0  0  0  0
  7  8  1  0  0  0  0
  8  9  1  0  0  0  0
  9 10  1  0  0  0  0
 10 11  1  0  0  0  0
 11 12  1  0  0  0  0
 12 13  1  0  0  0  0
 13 14  1  0  0  0  0
M  END
>  <CHROM.1>
66.88167082,59.26226551,52.66764471,95.11868359,-172.71254655,-64.99403689
174.70069194,-173.17009977,59.03483067,-177.57195231,176.03075080,4.88435455
18.48505418,22.22014209,-2.74245671,-0.65657598,-0.01570225

>  <Name>
ligand

>  <RI>
0

>  <Rbt.Current_Directory>
/home/itssahil/PROJECTS/Mol_Feturizer/New_Systems/rnas/4E8Q

>  <Rbt.Executable>
rbdock ($Id: //depot/dev/client3/rdock/2013.1/src/exe/rbdock.cxx#4 $)

>  <Rbt.Library>
libRbt.so (2013.1, Build901 2013/11/27)

>  <Rbt.Parameter_File>
/export/apps/rDock/src/rDock_2013.1_src/data/scripts/dock_solv.prm

>  <Rbt.Receptor>
prm/blind_docking_40.prm

>  <SCORE>
-8.02832

>  <SCORE.INTER>
3.03998

>  <SCORE.INTER.CONST>
1

>  <SCORE.INTER.POLAR>
0

>  <SCORE.INTER.ROT>
11

>  <SCORE.INTER.SOLV>
10.3943

>  <SCORE.INTER.VDW>
-12.3714

>  <SCORE.INTER.norm>
0.217141

>  <SCORE.INTRA>
-11.0683

>  <SCORE.INTRA.DIHEDRAL>
-24.4106

>  <SCORE.INTRA.DIHEDRAL.0>
25.9209

>  <SCORE.INTRA.POLAR>
0

>  <SCORE.INTRA.POLAR.0>
0

>  <SCORE.INTRA.REPUL>
0

>  <SCORE.INTRA.REPUL.0>
0

>  <SCORE.INTRA.SOLV>
-0.382168

>  <SCORE.INTRA.SOLV.lig_0>
-47.4815

>  <SCORE.INTRA.VDW>
1.32807

>  <SCORE.INTRA.VDW.0>
-1.57492

>  <SCORE.INTRA.norm>
-0.790592

>  <SCORE.RESTR>
0

>  <SCORE.RESTR.CAVITY>
0

>  <SCORE.RESTR.norm>
0

>  <SCORE.SYSTEM>
0

>  <SCORE.SYSTEM.CONST>
0

>  <SCORE.SYSTEM.DIHEDRAL>
0

>  <SCORE.SYSTEM.SOLV>
0

>  <SCORE.SYSTEM.norm>
0

>  <SCORE.heavy>
14

>  <SCORE.norm>
-0.573451

>  <RMSD>
56.395

$$$$
ligand
 OpenBabel11021811493D
libRbt.so/2013.1/901 2013/11/27
 14 13  0  0  0  0  0  0  0  0999 V2000
   -2.9282    6.7192   17.0864 N   0  0  0  0  0  0  0  0  0  0  0  0
   -2.2794    8.0243   17.1163 C   0  0  0  0  0  0  0  0  0  0  0  0
   -1.9066    8.4869   15.6917 C   0  0  0  0  0  0  0  0  0  0  0  0
   -1.2639    9.8863   15.6184 C   0  0  0  0  0  0  0  0  0  0  0  0
   -1.0366   10.4755   14.2903 N   0  0  0  0  0  0  0  0  0  0  0  0
   -0.0447    9.9074   13.3705 C   0  0  0  0  0  0  0  0  0  0  0  0
   -0.5301    8.7085   12.5504 C   0  0  0  0  0  0  0  0  0  0  0  0
    0.5967    8.0438   11.7415 C   0  0  0  0  0  0  0  0  0  0  0  0
    0.1364    6.8399   10.9041 C   0  0  0  0  0  0  0  0  0  0  0  0
   -0.6569    7.1835    9.7218 N   0  0  0  0  0  0  0  0  0  0  0  0
    0.0263    7.4291    8.4399 C   0  0  0  0  0  0  0  0  0  0  0  0
   -0.8478    7.4008    7.1637 C   0  0  0  0  0  0  0  0  0  0  0  0
   -1.5387    6.0577    6.8524 C   0  0  0  0  0  0  0  0  0  0  0  0
   -2.6438    5.7601    7.7588 N   0  0  0  0  0  0  0  0  0  0  0  0
  1  2  1  0  0  0  0
  2  3  1  0  0  0  0
  3  4  1  0  0  0  0
  4  5  1  0  0  0  0
  5  6  1  0  0  0  0
  6  7  1  0  0  0  0
  7  8  1  0  0  0  0
  8  9  1  0  0  0  0
  9 10  1  0  0  0  0
 10 11  1  0  0  0  0
 11 12  1  0  0  0  0
 12 13  1  0  0  0  0
 13 14  1  0  0  0  0
M  END
>  <CHROM.1>
177.68904353,-172.29668676,-68.03781320,82.75213999,-172.63062460,-179.78205911
72.95846982,89.96859071,163.63117837,-62.18995624,72.34928840,-1.06520311
7.92323074,12.02179391,1.70282147,0.86964152,1.23223507

>  <Name>
ligand

>  <RI>
0

>  <Rbt.Current_Directory>
/home/itssahil/PROJECTS/Mol_Feturizer/New_Systems/rnas/4E8Q

>  <Rbt.Executable>
rbdock ($Id: //depot/dev/client3/rdock/2013.1/src/exe/rbdock.cxx#4 $)

>  <Rbt.Library>
libRbt.so (2013.1, Build901 2013/11/27)

>  <Rbt.Parameter_File>
/export/apps/rDock/src/rDock_2013.1_src/data/scripts/dock_solv.prm

>  <Rbt.Receptor>
prm/blind_docking_20.prm

>  <SCORE>
-5.5527

>  <SCORE.INTER>
5.35497

>  <SCORE.INTER.CONST>
1

>  <SCORE.INTER.POLAR>
0

>  <SCORE.INTER.ROT>
11

>  <SCORE.INTER.SOLV>
8.05013

>  <SCORE.INTER.VDW>
-10.0467

>  <SCORE.INTER.norm>
0.382498

>  <SCORE.INTRA>
-10.9077

>  <SCORE.INTRA.DIHEDRAL>
-23.0532

>  <SCORE.INTRA.DIHEDRAL.0>
25.9209

>  <SCORE.INTRA.POLAR>
0

>  <SCORE.INTRA.POLAR.0>
0

>  <SCORE.INTRA.REPUL>
0

>  <SCORE.INTRA.REPUL.0>
0

>  <SCORE.INTRA.SOLV>
0.58178

>  <SCORE.INTRA.SOLV.lig_0>
-47.4815

>  <SCORE.INTRA.VDW>
0.328058

>  <SCORE.INTRA.VDW.0>
-1.57492

>  <SCORE.INTRA.norm>
-0.779119

>  <SCORE.RESTR>
0

>  <SCORE.RESTR.CAVITY>
0

>  <SCORE.RESTR.norm>
0

>  <SCORE.SYSTEM>
0

>  <SCORE.SYSTEM.CONST>
0

>  <SCORE.SYSTEM.DIHEDRAL>
0

>  <SCORE.SYSTEM.SOLV>
0

>  <SCORE.SYSTEM.norm>
0

>  <SCORE.heavy>
14

>  <SCORE.norm>
-0.396621

>  <RMSD>
56.485

$$$$
ligand
 OpenBabel11021811493D
libRbt.so/2013.1/901 2013/11/27
 14 13  0  0  0  0  0  0  0  0999 V2000
   17.6303    7.7863   35.9466 N   0  0  0  0  0  0  0  0  0  0  0  0
   17.3173    9.1823   36.2265 C   0  0  0  0  0  0  0  0  0  0  0  0
   16.2549    9.7166   35.2424 C   0  0  0  0  0  0  0  0  0  0  0  0
   16.1147   11.2517   35.2197 C   0  0  0  0  0  0  0  0  0  0  0  0
   15.1900   11.8486   34.2444 N   0  0  0  0  0  0  0  0  0  0  0  0
   13.7407   11.8395   34.4726 C   0  0  0  0  0  0  0  0  0  0  0  0
   13.2184   12.9571   35.3802 C   0  0  0  0  0  0  0  0  0  0  0  0
   11.7843   12.7026   35.8747 C   0  0  0  0  0  0  0  0  0  0  0  0
   11.2887   13.7296   36.9054 C   0  0  0  0  0  0  0  0  0  0  0  0
   10.1435   13.2903   37.7060 N   0  0  0  0  0  0  0  0  0  0  0  0
   10.3738   12.7264   39.0475 C   0  0  0  0  0  0  0  0  0  0  0  0
   11.1851   11.4113   39.1245 C   0  0  0  0  0  0  0  0  0  0  0  0
   11.4441   10.8641   40.5428 C   0  0  0  0  0  0  0  0  0  0  0  0
   10.2159   10.5577   41.2702 N   0  0  0  0  0  0  0  0  0  0  0  0
  1  2  1  0  0  0  0
  2  3  1  0  0  0  0
  3  4  1  0  0  0  0
  4  5  1  0  0  0  0
  5  6  1  0  0  0  0
  6  7  1  0  0  0  0
  7  8  1  0  0  0  0
  8  9  1  0  0  0  0
  9 10  1  0  0  0  0
 10 11  1  0  0  0  0
 11 12  1  0  0  0  0
 12 13  1  0  0  0  0
 13 14  1  0  0  0  0
M  END
>  <CHROM.1>
-165.34118398,175.91576095,77.66944783,82.50124282,-165.33974604,173.80569862
-160.92052401,97.21485166,-63.25699153,178.39222706,60.46094520,13.27867535
11.41907527,36.94296051,-0.25336873,-0.60393335,2.19141514

>  <Name>
ligand

>  <RI>
0

>  <Rbt.Current_Directory>
/home/itssahil/PROJECTS/Mol_Feturizer/New_Systems/rnas/4E8Q

>  <Rbt.Executable>
rbdock ($Id: //depot/dev/client3/rdock/2013.1/src/exe/rbdock.cxx#4 $)

>  <Rbt.Library>
libRbt.so (2013.1, Build901 2013/11/27)

>  <Rbt.Parameter_File>
/export/apps/rDock/src/rDock_2013.1_src/data/scripts/dock_solv.prm

>  <Rbt.Receptor>
prm/blind_docking_60.prm

>  <SCORE>
-13.0766

>  <SCORE.INTER>
-2.31746

>  <SCORE.INTER.CONST>
1

>  <SCORE.INTER.POLAR>
0

>  <SCORE.INTER.ROT>
11

>  <SCORE.INTER.SOLV>
16.0141

>  <SCORE.INTER.VDW>
-17.8163

>  <SCORE.INTER.norm>
-0.165533

>  <SCORE.INTRA>
-10.7592

>  <SCORE.INTRA.DIHEDRAL>
-21.4342

>  <SCORE.INTRA.DIHEDRAL.0>
25.9209

>  <SCORE.INTRA.POLAR>
0

>  <SCORE.INTRA.POLAR.0>
0

>  <SCORE.INTRA.REPUL>
0

>  <SCORE.INTRA.REPUL.0>
0

>  <SCORE.INTRA.SOLV>
-1.4137

>  <SCORE.INTRA.SOLV.lig_0>
-47.4815

>  <SCORE.INTRA.VDW>
0.664813

>  <SCORE.INTRA.VDW.0>
-1.57492

>  <SCORE.INTRA.norm>
-0.768512

>  <SCORE.RESTR>
0

>  <SCORE.RESTR.CAVITY>
0

>  <SCORE.RESTR.norm>
0

>  <SCORE.SYSTEM>
0

>  <SCORE.SYSTEM.CONST>
0

>  <SCORE.SYSTEM.DIHEDRAL>
0

>  <SCORE.SYSTEM.SOLV>
0

>  <SCORE.SYSTEM.norm>
0

>  <SCORE.heavy>
14

>  <SCORE.norm>
-0.934044

>  <RMSD>
56.505

$$$$
ligand
 OpenBabel11021811493D
libRbt.so/2013.1/901 2013/11/27
 14 13  0  0  0  0  0  0  0  0999 V2000
    1.9968   12.5524   19.7241 N   0  0  0  0  0  0  0  0  0  0  0  0
    3.3533   12.6530   19.1996 C   0  0  0  0  0  0  0  0  0  0  0  0
    4.1414   13.7671   19.9208 C   0  0  0  0  0  0  0  0  0  0  0  0
    3.5127   15.1707   19.8143 C   0  0  0  0  0  0  0  0  0  0  0  0
    4.2177   16.2954   20.4474 N   0  0  0  0  0  0  0  0  0  0  0  0
    5.0334   17.2203   19.6526 C   0  0  0  0  0  0  0  0  0  0  0  0
    6.3851   17.5903   20.2701 C   0  0  0  0  0  0  0  0  0  0  0  0
    6.2496   18.5133   21.4930 C   0  0  0  0  0  0  0  0  0  0  0  0
    5.5650   17.8524   22.7001 C   0  0  0  0  0  0  0  0  0  0  0  0
    5.5235   18.6785   23.9089 N   0  0  0  0  0  0  0  0  0  0  0  0
    4.5093   18.3990   24.9403 C   0  0  0  0  0  0  0  0  0  0  0  0
    3.2714   19.3262   24.9747 C   0  0  0  0  0  0  0  0  0  0  0  0
    2.3472   19.2587   23.7421 C   0  0  0  0  0  0  0  0  0  0  0  0
    1.6850   17.9659   23.5946 N   0  0  0  0  0  0  0  0  0  0  0  0
  1  2  1  0  0  0  0
  2  3  1  0  0  0  0
  3  4  1  0  0  0  0
  4  5  1  0  0  0  0
  5  6  1  0  0  0  0
  6  7  1  0  0  0  0
  7  8  1  0  0  0  0
  8  9  1  0  0  0  0
  9 10  1  0  0  0  0
 10 11  1  0  0  0  0
 11 12  1  0  0  0  0
 12 13  1  0  0  0  0
 13 14  1  0  0  0  0
M  END
>  <CHROM.1>
-58.76048139,-178.59001530,100.81311865,-136.47754472,-71.40926776,66.37891776
175.29623790,157.78722008,-101.66622368,65.26185606,65.72750073,4.12827764
16.80326615,21.74153995,1.67948841,-0.50568125,-2.37503090

>  <Name>
ligand

>  <RI>
0

>  <Rbt.Current_Directory>
/home/itssahil/PROJECTS/Mol_Feturizer/New_Systems/rnas/4E8Q

>  <Rbt.Executable>
rbdock ($Id: //depot/dev/client3/rdock/2013.1/src/exe/rbdock.cxx#4 $)

>  <Rbt.Library>
libRbt.so (2013.1, Build901 2013/11/27)

>  <Rbt.Parameter_File>
/export/apps/rDock/src/rDock_2013.1_src/data/scripts/dock_solv.prm

>  <Rbt.Receptor>
prm/blind_docking_40.prm

>  <SCORE>
-10.3646

>  <SCORE.INTER>
-0.617031

>  <SCORE.INTER.CONST>
1

>  <SCORE.INTER.POLAR>
0

>  <SCORE.INTER.ROT>
11

>  <SCORE.INTER.SOLV>
7.31438

>  <SCORE.INTER.VDW>
-13.7828

>  <SCORE.INTER.norm>
-0.0440736

>  <SCORE.INTRA>
-9.74755

>  <SCORE.INTRA.DIHEDRAL>
-21.7316

>  <SCORE.INTRA.DIHEDRAL.0>
25.9209

>  <SCORE.INTRA.POLAR>
0

>  <SCORE.INTRA.POLAR.0>
0

>  <SCORE.INTRA.REPUL>
0

>  <SCORE.INTRA.REPUL.0>
0

>  <SCORE.INTRA.SOLV>
1.52274

>  <SCORE.INTRA.SOLV.lig_0>
-47.4815

>  <SCORE.INTRA.VDW>
0.356899

>  <SCORE.INTRA.VDW.0>
-1.57492

>  <SCORE.INTRA.norm>
-0.696254

>  <SCORE.RESTR>
0

>  <SCORE.RESTR.CAVITY>
0

>  <SCORE.RESTR.norm>
0

>  <SCORE.SYSTEM>
0

>  <SCORE.SYSTEM.CONST>
0

>  <SCORE.SYSTEM.DIHEDRAL>
0

>  <SCORE.SYSTEM.SOLV>
0

>  <SCORE.SYSTEM.norm>
0

>  <SCORE.heavy>
14

>  <SCORE.norm>
-0.740328

>  <RMSD>
56.506

$$$$
ligand
 OpenBabel11021811493D
libRbt.so/2013.1/901 2013/11/27
 14 13  0  0  0  0  0  0  0  0999 V2000
    1.6488   19.4302   22.7426 N   0  0  0  0  0  0  0  0  0  0  0  0
    2.9803   19.3105   22.1613 C   0  0  0  0  0  0  0  0  0  0  0  0
    2.9953   18.2601   21.0304 C   0  0  0  0  0  0  0  0  0  0  0  0
    4.4019   17.8711   20.5337 C   0  0  0  0  0  0  0  0  0  0  0  0
    4.5100   16.8116   19.5195 N   0  0  0  0  0  0  0  0  0  0  0  0
    3.8129   15.5314   19.6860 C   0  0  0  0  0  0  0  0  0  0  0  0
    4.6304   14.2921   19.3101 C   0  0  0  0  0  0  0  0  0  0  0  0
    3.8434   12.9824   19.4868 C   0  0  0  0  0  0  0  0  0  0  0  0
    2.6784   12.8168   18.4979 C   0  0  0  0  0  0  0  0  0  0  0  0
    1.8431   11.6358   18.7276 N   0  0  0  0  0  0  0  0  0  0  0  0
    2.1067   10.4047   17.9624 C   0  0  0  0  0  0  0  0  0  0  0  0
    1.1398    9.2185   18.1892 C   0  0  0  0  0  0  0  0  0  0  0  0
   -0.2972    9.4135   17.6647 C   0  0  0  0  0  0  0  0  0  0  0  0
   -0.9972   10.5184   18.3134 N   0  0  0  0  0  0  0  0  0  0  0  0
  1  2  1  0  0  0  0
  2  3  1  0  0  0  0
  3  4  1  0  0  0  0
  4  5  1  0  0  0  0
  5  6  1  0  0  0  0
  6  7  1  0  0  0  0
  7  8  1  0  0  0  0
  8  9  1  0  0  0  0
  9 10  1  0  0  0  0
 10 11  1  0  0  0  0
 11 12  1  0  0  0  0
 12 13  1  0  0  0  0
 13 14  1  0  0  0  0
M  END
>  <CHROM.1>
-169.09736228,176.03981044,-49.31985770,-137.56435835,-179.23395512,67.90989184
-174.71723557,-96.05533347,-176.52963157,68.59736576,-62.23780005,2.52149865
14.17819736,19.55886246,1.29255423,0.23093330,0.43874463

>  <Name>
ligand

>  <RI>
0

>  <Rbt.Current_Directory>
/home/itssahil/PROJECTS/Mol_Feturizer/New_Systems/rnas/4E8Q

>  <Rbt.Executable>
rbdock ($Id: //depot/dev/client3/rdock/2013.1/src/exe/rbdock.cxx#4 $)

>  <Rbt.Library>
libRbt.so (2013.1, Build901 2013/11/27)

>  <Rbt.Parameter_File>
/export/apps/rDock/src/rDock_2013.1_src/data/scripts/dock_solv.prm

>  <Rbt.Receptor>
prm/blind_docking_40.prm

>  <SCORE>
-10.5742

>  <SCORE.INTER>
-0.423577

>  <SCORE.INTER.CONST>
1

>  <SCORE.INTER.POLAR>
0

>  <SCORE.INTER.ROT>
11

>  <SCORE.INTER.SOLV>
11.3377

>  <SCORE.INTER.VDW>
-14.995

>  <SCORE.INTER.norm>
-0.0302555

>  <SCORE.INTRA>
-10.1506

>  <SCORE.INTRA.DIHEDRAL>
-22.9124

>  <SCORE.INTRA.DIHEDRAL.0>
25.9209

>  <SCORE.INTRA.POLAR>
0

>  <SCORE.INTRA.POLAR.0>
0

>  <SCORE.INTRA.REPUL>
0

>  <SCORE.INTRA.REPUL.0>
0

>  <SCORE.INTRA.SOLV>
0.592567

>  <SCORE.INTRA.SOLV.lig_0>
-47.4815

>  <SCORE.INTRA.VDW>
1.00933

>  <SCORE.INTRA.VDW.0>
-1.57492

>  <SCORE.INTRA.norm>
-0.725043

>  <SCORE.RESTR>
0

>  <SCORE.RESTR.CAVITY>
0

>  <SCORE.RESTR.norm>
0

>  <SCORE.SYSTEM>
0

>  <SCORE.SYSTEM.CONST>
0

>  <SCORE.SYSTEM.DIHEDRAL>
0

>  <SCORE.SYSTEM.SOLV>
0

>  <SCORE.SYSTEM.norm>
0

>  <SCORE.heavy>
14

>  <SCORE.norm>
-0.755299

>  <RMSD>
56.511

$$$$
ligand
 OpenBabel11021811493D
libRbt.so/2013.1/901 2013/11/27
 14 13  0  0  0  0  0  0  0  0999 V2000
    6.0382   18.9508   34.6024 N   0  0  0  0  0  0  0  0  0  0  0  0
    7.1631   18.7527   33.6966 C   0  0  0  0  0  0  0  0  0  0  0  0
    6.7882   19.1593   32.2556 C   0  0  0  0  0  0  0  0  0  0  0  0
    7.9180   18.9778   31.2224 C   0  0  0  0  0  0  0  0  0  0  0  0
    9.1883   19.6815   31.4542 N   0  0  0  0  0  0  0  0  0  0  0  0
   10.4131   19.2821   30.7521 C   0  0  0  0  0  0  0  0  0  0  0  0
   11.6806   20.0275   31.1803 C   0  0  0  0  0  0  0  0  0  0  0  0
   12.9469   19.4987   30.4855 C   0  0  0  0  0  0  0  0  0  0  0  0
   13.0199   19.8297   28.9863 C   0  0  0  0  0  0  0  0  0  0  0  0
   11.8901   19.3375   28.1947 N   0  0  0  0  0  0  0  0  0  0  0  0
   11.8720   17.9302   27.7591 C   0  0  0  0  0  0  0  0  0  0  0  0
   10.6846   17.4870   26.8717 C   0  0  0  0  0  0  0  0  0  0  0  0
    9.2838   17.6421   27.4976 C   0  0  0  0  0  0  0  0  0  0  0  0
    8.2065   17.2635   26.5879 N   0  0  0  0  0  0  0  0  0  0  0  0
  1  2  1  0  0  0  0
  2  3  1  0  0  0  0
  3  4  1  0  0  0  0
  4  5  1  0  0  0  0
  5  6  1  0  0  0  0
  6  7  1  0  0  0  0
  7  8  1  0  0  0  0
  8  9  1  0  0  0  0
  9 10  1  0  0  0  0
 10 11  1  0  0  0  0
 11 12  1  0  0  0  0
 12 13  1  0  0  0  0
 13 14  1  0  0  0  0
M  END
>  <CHROM.1>
-179.74440734,-57.81636492,162.70224608,-175.10041196,175.86283090,70.16202446
-57.58839491,-81.06936816,-177.28458006,-59.93782576,177.39567882,9.79276100
18.84433606,30.11040885,2.30163669,0.29386099,1.21197217

>  <Name>
ligand

>  <RI>
0

>  <Rbt.Current_Directory>
/home/itssahil/PROJECTS/Mol_Feturizer/New_Systems/rnas/4E8Q

>  <Rbt.Executable>
rbdock ($Id: //depot/dev/client3/rdock/2013.1/src/exe/rbdock.cxx#4 $)

>  <Rbt.Library>
libRbt.so (2013.1, Build901 2013/11/27)

>  <Rbt.Parameter_File>
/export/apps/rDock/src/rDock_2013.1_src/data/scripts/dock_solv.prm

>  <Rbt.Receptor>
prm/blind_docking_80.prm

>  <SCORE>
-21.9494

>  <SCORE.INTER>
-9.6193

>  <SCORE.INTER.CONST>
1

>  <SCORE.INTER.POLAR>
0

>  <SCORE.INTER.ROT>
11

>  <SCORE.INTER.SOLV>
14.6778

>  <SCORE.INTER.VDW>
-22.2388

>  <SCORE.INTER.norm>
-0.687093

>  <SCORE.INTRA>
-12.3301

>  <SCORE.INTRA.DIHEDRAL>
-24.7825

>  <SCORE.INTRA.DIHEDRAL.0>
25.9209

>  <SCORE.INTRA.POLAR>
0

>  <SCORE.INTRA.POLAR.0>
0

>  <SCORE.INTRA.REPUL>
0

>  <SCORE.INTRA.REPUL.0>
0

>  <SCORE.INTRA.SOLV>
-0.31836

>  <SCORE.INTRA.SOLV.lig_0>
-47.4815

>  <SCORE.INTRA.VDW>
0.220312

>  <SCORE.INTRA.VDW.0>
-1.57492

>  <SCORE.INTRA.norm>
-0.880724

>  <SCORE.RESTR>
0

>  <SCORE.RESTR.CAVITY>
0

>  <SCORE.RESTR.norm>
0

>  <SCORE.SYSTEM>
0

>  <SCORE.SYSTEM.CONST>
0

>  <SCORE.SYSTEM.DIHEDRAL>
0

>  <SCORE.SYSTEM.SOLV>
0

>  <SCORE.SYSTEM.norm>
0

>  <SCORE.heavy>
14

>  <SCORE.norm>
-1.56782

>  <RMSD>
56.520

$$$$
ligand
 OpenBabel11021811493D
libRbt.so/2013.1/901 2013/11/27
 14 13  0  0  0  0  0  0  0  0999 V2000
   10.1727   10.3331   41.5786 N   0  0  0  0  0  0  0  0  0  0  0  0
   10.4998   11.3774   40.6154 C   0  0  0  0  0  0  0  0  0  0  0  0
    9.3420   11.5876   39.6165 C   0  0  0  0  0  0  0  0  0  0  0  0
    9.5811   12.7055   38.5821 C   0  0  0  0  0  0  0  0  0  0  0  0
   10.7459   12.5883   37.6921 N   0  0  0  0  0  0  0  0  0  0  0  0
   10.8391   13.3797   36.4602 C   0  0  0  0  0  0  0  0  0  0  0  0
   11.7447   12.7898   35.3752 C   0  0  0  0  0  0  0  0  0  0  0  0
   13.2118   12.6720   35.8220 C   0  0  0  0  0  0  0  0  0  0  0  0
   14.1673   12.2116   34.7095 C   0  0  0  0  0  0  0  0  0  0  0  0
   13.9262   10.8529   34.2183 N   0  0  0  0  0  0  0  0  0  0  0  0
   14.5586    9.7135   34.9057 C   0  0  0  0  0  0  0  0  0  0  0  0
   15.2961    8.6824   34.0190 C   0  0  0  0  0  0  0  0  0  0  0  0
   15.9205    7.4833   34.7608 C   0  0  0  0  0  0  0  0  0  0  0  0
   16.5721    6.5331   33.8641 N   0  0  0  0  0  0  0  0  0  0  0  0
  1  2  1  0  0  0  0
  2  3  1  0  0  0  0
  3  4  1  0  0  0  0
  4  5  1  0  0  0  0
  5  6  1  0  0  0  0
  6  7  1  0  0  0  0
  7  8  1  0  0  0  0
  8  9  1  0  0  0  0
  9 10  1  0  0  0  0
 10 11  1  0  0  0  0
 11 12  1  0  0  0  0
 12 13  1  0  0  0  0
 13 14  1  0  0  0  0
M  END
>  <CHROM.1>
178.26326642,59.28603984,162.65885310,-156.04280341,-62.19417643,-174.37506241
-64.84294145,-86.79427147,-131.01504662,-178.62911850,178.60209759,12.61260353
10.92249738,36.58700407,-3.02987794,0.84453708,-0.73201668

>  <Name>
ligand

>  <RI>
0

>  <Rbt.Current_Directory>
/home/itssahil/PROJECTS/Mol_Feturizer/New_Systems/rnas/4E8Q

>  <Rbt.Executable>
rbdock ($Id: //depot/dev/client3/rdock/2013.1/src/exe/rbdock.cxx#4 $)

>  <Rbt.Library>
libRbt.so (2013.1, Build901 2013/11/27)

>  <Rbt.Parameter_File>
/export/apps/rDock/src/rDock_2013.1_src/data/scripts/dock_solv.prm

>  <Rbt.Receptor>
prm/blind_docking_60.prm

>  <SCORE>
-14.6184

>  <SCORE.INTER>
-2.6599

>  <SCORE.INTER.CONST>
1

>  <SCORE.INTER.POLAR>
0

>  <SCORE.INTER.ROT>
11

>  <SCORE.INTER.SOLV>
12.3374

>  <SCORE.INTER.VDW>
-16.8191

>  <SCORE.INTER.norm>
-0.189993

>  <SCORE.INTRA>
-11.9585

>  <SCORE.INTRA.DIHEDRAL>
-23.408

>  <SCORE.INTRA.DIHEDRAL.0>
25.9209

>  <SCORE.INTRA.POLAR>
0

>  <SCORE.INTRA.POLAR.0>
0

>  <SCORE.INTRA.REPUL>
0

>  <SCORE.INTRA.REPUL.0>
0

>  <SCORE.INTRA.SOLV>
-1.14884

>  <SCORE.INTRA.SOLV.lig_0>
-47.4815

>  <SCORE.INTRA.VDW>
0.31994

>  <SCORE.INTRA.VDW.0>
-1.57492

>  <SCORE.INTRA.norm>
-0.854179

>  <SCORE.RESTR>
0

>  <SCORE.RESTR.CAVITY>
0

>  <SCORE.RESTR.norm>
0

>  <SCORE.SYSTEM>
0

>  <SCORE.SYSTEM.CONST>
0

>  <SCORE.SYSTEM.DIHEDRAL>
0

>  <SCORE.SYSTEM.SOLV>
0

>  <SCORE.SYSTEM.norm>
0

>  <SCORE.heavy>
14

>  <SCORE.norm>
-1.04417

>  <RMSD>
56.664

$$$$
ligand
 OpenBabel11021811493D
libRbt.so/2013.1/901 2013/11/27
 14 13  0  0  0  0  0  0  0  0999 V2000
   15.5030    7.8471   34.2513 N   0  0  0  0  0  0  0  0  0  0  0  0
   15.2744    9.0270   35.0765 C   0  0  0  0  0  0  0  0  0  0  0  0
   15.5706   10.3186   34.2849 C   0  0  0  0  0  0  0  0  0  0  0  0
   15.4505   11.6174   35.1068 C   0  0  0  0  0  0  0  0  0  0  0  0
   14.1380   11.9584   35.6758 N   0  0  0  0  0  0  0  0  0  0  0  0
   13.1628   12.7430   34.9104 C   0  0  0  0  0  0  0  0  0  0  0  0
   11.7438   12.7572   35.4864 C   0  0  0  0  0  0  0  0  0  0  0  0
   11.6634   13.4504   36.8571 C   0  0  0  0  0  0  0  0  0  0  0  0
   12.3568   12.6757   37.9892 C   0  0  0  0  0  0  0  0  0  0  0  0
   12.2900   13.3202   39.3029 N   0  0  0  0  0  0  0  0  0  0  0  0
   13.2298   12.9061   40.3592 C   0  0  0  0  0  0  0  0  0  0  0  0
   12.8348   13.2385   41.8176 C   0  0  0  0  0  0  0  0  0  0  0  0
   13.8416   12.8041   42.9019 C   0  0  0  0  0  0  0  0  0  0  0  0
   13.3739   13.0762   44.2578 N   0  0  0  0  0  0  0  0  0  0  0  0
  1  2  1  0  0  0  0
  2  3  1  0  0  0  0
  3  4  1  0  0  0  0
  4  5  1  0  0  0  0
  5  6  1  0  0  0  0
  6  7  1  0  0  0  0
  7  8  1  0  0  0  0
  8  9  1  0  0  0  0
  9 10  1  0  0  0  0
 10 11  1  0  0  0  0
 11 12  1  0  0  0  0
 12 13  1  0  0  0  0
 13 14  1  0  0  0  0
M  END
>  <CHROM.1>
-175.96361747,-62.36674424,-88.59267657,166.92196599,64.92235556,-68.93066236
-179.96178541,-161.89508426,-159.87463431,-179.52022770,-176.61815361,13.60228856
11.98159598,37.73388111,-1.26615343,-0.82251071,1.43785773

>  <Name>
ligand

>  <RI>
0

>  <Rbt.Current_Directory>
/home/itssahil/PROJECTS/Mol_Feturizer/New_Systems/rnas/4E8Q

>  <Rbt.Executable>
rbdock ($Id: //depot/dev/client3/rdock/2013.1/src/exe/rbdock.cxx#4 $)

>  <Rbt.Library>
libRbt.so (2013.1, Build901 2013/11/27)

>  <Rbt.Parameter_File>
/export/apps/rDock/src/rDock_2013.1_src/data/scripts/dock_solv.prm

>  <Rbt.Receptor>
prm/blind_docking_80.prm

>  <SCORE>
-15.2428

>  <SCORE.INTER>
-3.34146

>  <SCORE.INTER.CONST>
1

>  <SCORE.INTER.POLAR>
0

>  <SCORE.INTER.ROT>
11

>  <SCORE.INTER.SOLV>
12.9018

>  <SCORE.INTER.VDW>
-17.4616

>  <SCORE.INTER.norm>
-0.238676

>  <SCORE.INTRA>
-11.9014

>  <SCORE.INTRA.DIHEDRAL>
-24.1301

>  <SCORE.INTRA.DIHEDRAL.0>
25.9209

>  <SCORE.INTRA.POLAR>
0

>  <SCORE.INTRA.POLAR.0>
0

>  <SCORE.INTRA.REPUL>
0

>  <SCORE.INTRA.REPUL.0>
0

>  <SCORE.INTRA.SOLV>
-0.811704

>  <SCORE.INTRA.SOLV.lig_0>
-47.4815

>  <SCORE.INTRA.VDW>
0.56955

>  <SCORE.INTRA.VDW.0>
-1.57492

>  <SCORE.INTRA.norm>
-0.850098

>  <SCORE.RESTR>
0

>  <SCORE.RESTR.CAVITY>
0

>  <SCORE.RESTR.norm>
0

>  <SCORE.SYSTEM>
0

>  <SCORE.SYSTEM.CONST>
0

>  <SCORE.SYSTEM.DIHEDRAL>
0

>  <SCORE.SYSTEM.SOLV>
0

>  <SCORE.SYSTEM.norm>
0

>  <SCORE.heavy>
14

>  <SCORE.norm>
-1.08877

>  <RMSD>
56.810

$$$$
ligand
 OpenBabel11021811493D
libRbt.so/2013.1/901 2013/11/27
 14 13  0  0  0  0  0  0  0  0999 V2000
    8.1513   17.7462   27.0262 N   0  0  0  0  0  0  0  0  0  0  0  0
    8.8678   18.2182   25.8476 C   0  0  0  0  0  0  0  0  0  0  0  0
    7.9030   18.8951   24.8509 C   0  0  0  0  0  0  0  0  0  0  0  0
    6.8049   17.9695   24.2905 C   0  0  0  0  0  0  0  0  0  0  0  0
    5.9183   18.5008   23.2443 N   0  0  0  0  0  0  0  0  0  0  0  0
    6.3705   18.6088   21.8528 C   0  0  0  0  0  0  0  0  0  0  0  0
    5.3300   18.2194   20.7988 C   0  0  0  0  0  0  0  0  0  0  0  0
    4.1185   19.1669   20.7780 C   0  0  0  0  0  0  0  0  0  0  0  0
    3.2287   19.0687   22.0275 C   0  0  0  0  0  0  0  0  0  0  0  0
    2.6095   17.7580   22.2370 N   0  0  0  0  0  0  0  0  0  0  0  0
    1.2623   17.5013   21.6987 C   0  0  0  0  0  0  0  0  0  0  0  0
    1.1636   17.1541   20.1943 C   0  0  0  0  0  0  0  0  0  0  0  0
   -0.2502   16.8288   19.6714 C   0  0  0  0  0  0  0  0  0  0  0  0
   -0.8354   15.6495   20.3024 N   0  0  0  0  0  0  0  0  0  0  0  0
  1  2  1  0  0  0  0
  2  3  1  0  0  0  0
  3  4  1  0  0  0  0
  4  5  1  0  0  0  0
  5  6  1  0  0  0  0
  6  7  1  0  0  0  0
  7  8  1  0  0  0  0
  8  9  1  0  0  0  0
  9 10  1  0  0  0  0
 10 11  1  0  0  0  0
 11 12  1  0  0  0  0
 12 13  1  0  0  0  0
 13 14  1  0  0  0  0
M  END
>  <CHROM.1>
-61.96120921,-174.61593357,77.63977455,139.33044232,65.26107789,-68.61874042
-61.99652835,-92.78787055,80.12959446,177.37985429,-62.39078058,4.33177434
17.94915089,22.48687418,0.44879866,0.40786091,1.98798653

>  <Name>
ligand

>  <RI>
0

>  <Rbt.Current_Directory>
/home/itssahil/PROJECTS/Mol_Feturizer/New_Systems/rnas/4E8Q

>  <Rbt.Executable>
rbdock ($Id: //depot/dev/client3/rdock/2013.1/src/exe/rbdock.cxx#4 $)

>  <Rbt.Library>
libRbt.so (2013.1, Build901 2013/11/27)

>  <Rbt.Parameter_File>
/export/apps/rDock/src/rDock_2013.1_src/data/scripts/dock_solv.prm

>  <Rbt.Receptor>
prm/blind_docking_40.prm

>  <SCORE>
-9.88234

>  <SCORE.INTER>
0.377702

>  <SCORE.INTER.CONST>
1

>  <SCORE.INTER.POLAR>
0

>  <SCORE.INTER.ROT>
11

>  <SCORE.INTER.SOLV>
7.40943

>  <SCORE.INTER.VDW>
-13.1513

>  <SCORE.INTER.norm>
0.0269787

>  <SCORE.INTRA>
-10.26

>  <SCORE.INTRA.DIHEDRAL>
-23.1774

>  <SCORE.INTRA.DIHEDRAL.0>
25.9209

>  <SCORE.INTRA.POLAR>
0

>  <SCORE.INTRA.POLAR.0>
0

>  <SCORE.INTRA.REPUL>
0

>  <SCORE.INTRA.REPUL.0>
0

>  <SCORE.INTRA.SOLV>
1.24774

>  <SCORE.INTRA.SOLV.lig_0>
-47.4815

>  <SCORE.INTRA.VDW>
0.704763

>  <SCORE.INTRA.VDW.0>
-1.57492

>  <SCORE.INTRA.norm>
-0.73286

>  <SCORE.RESTR>
0

>  <SCORE.RESTR.CAVITY>
0

>  <SCORE.RESTR.norm>
0

>  <SCORE.SYSTEM>
0

>  <SCORE.SYSTEM.CONST>
0

>  <SCORE.SYSTEM.DIHEDRAL>
0

>  <SCORE.SYSTEM.SOLV>
0

>  <SCORE.SYSTEM.norm>
0

>  <SCORE.heavy>
14

>  <SCORE.norm>
-0.705882

>  <RMSD>
56.844

$$$$
ligand
 OpenBabel11021811493D
libRbt.so/2013.1/901 2013/11/27
 14 13  0  0  0  0  0  0  0  0999 V2000
    0.4140   17.4032   24.1773 N   0  0  0  0  0  0  0  0  0  0  0  0
    1.1225   17.5300   22.9096 C   0  0  0  0  0  0  0  0  0  0  0  0
    1.6380   18.9710   22.7084 C   0  0  0  0  0  0  0  0  0  0  0  0
    2.6668   19.4375   23.7574 C   0  0  0  0  0  0  0  0  0  0  0  0
    3.2755   20.7655   23.5881 N   0  0  0  0  0  0  0  0  0  0  0  0
    4.4337   21.1744   24.3905 C   0  0  0  0  0  0  0  0  0  0  0  0
    5.6627   20.2689   24.2671 C   0  0  0  0  0  0  0  0  0  0  0  0
    6.8557   20.7657   25.1012 C   0  0  0  0  0  0  0  0  0  0  0  0
    8.0173   19.7627   25.1869 C   0  0  0  0  0  0  0  0  0  0  0  0
    7.6886   18.5003   25.8532 N   0  0  0  0  0  0  0  0  0  0  0  0
    8.5606   17.3298   25.6534 C   0  0  0  0  0  0  0  0  0  0  0  0
    9.6528   17.0798   26.7203 C   0  0  0  0  0  0  0  0  0  0  0  0
   10.5018   15.8071   26.5270 C   0  0  0  0  0  0  0  0  0  0  0  0
    9.7070   14.5826   26.5400 N   0  0  0  0  0  0  0  0  0  0  0  0
  1  2  1  0  0  0  0
  2  3  1  0  0  0  0
  3  4  1  0  0  0  0
  4  5  1  0  0  0  0
  5  6  1  0  0  0  0
  6  7  1  0  0  0  0
  7  8  1  0  0  0  0
  8  9  1  0  0  0  0
  9 10  1  0  0  0  0
 10 11  1  0  0  0  0
 11 12  1  0  0  0  0
 12 13  1  0  0  0  0
 13 14  1  0  0  0  0
M  END
>  <CHROM.1>
62.68360748,176.02005069,-168.43575230,57.98078519,178.53776248,170.28937388
-63.12616363,162.05112382,95.36221324,176.87033736,-60.08010198,5.72855714
18.52733180,24.81279928,2.81494542,-0.31873025,-0.13010742

>  <Name>
ligand

>  <RI>
0

>  <Rbt.Current_Directory>
/home/itssahil/PROJECTS/Mol_Feturizer/New_Systems/rnas/4E8Q

>  <Rbt.Executable>
rbdock ($Id: //depot/dev/client3/rdock/2013.1/src/exe/rbdock.cxx#4 $)

>  <Rbt.Library>
libRbt.so (2013.1, Build901 2013/11/27)

>  <Rbt.Parameter_File>
/export/apps/rDock/src/rDock_2013.1_src/data/scripts/dock_solv.prm

>  <Rbt.Receptor>
prm/blind_docking_40.prm

>  <SCORE>
-11.4541

>  <SCORE.INTER>
0.0295661

>  <SCORE.INTER.CONST>
1

>  <SCORE.INTER.POLAR>
0

>  <SCORE.INTER.ROT>
11

>  <SCORE.INTER.SOLV>
11.2226

>  <SCORE.INTER.VDW>
-14.6545

>  <SCORE.INTER.norm>
0.00211187

>  <SCORE.INTRA>
-11.4837

>  <SCORE.INTRA.DIHEDRAL>
-24.2426

>  <SCORE.INTRA.DIHEDRAL.0>
25.9209

>  <SCORE.INTRA.POLAR>
0

>  <SCORE.INTRA.POLAR.0>
0

>  <SCORE.INTRA.REPUL>
0

>  <SCORE.INTRA.REPUL.0>
0

>  <SCORE.INTRA.SOLV>
-0.370986

>  <SCORE.INTRA.SOLV.lig_0>
-47.4815

>  <SCORE.INTRA.VDW>
0.82311

>  <SCORE.INTRA.VDW.0>
-1.57492

>  <SCORE.INTRA.norm>
-0.820264

>  <SCORE.RESTR>
0

>  <SCORE.RESTR.CAVITY>
0

>  <SCORE.RESTR.norm>
0

>  <SCORE.SYSTEM>
0

>  <SCORE.SYSTEM.CONST>
0

>  <SCORE.SYSTEM.DIHEDRAL>
0

>  <SCORE.SYSTEM.SOLV>
0

>  <SCORE.SYSTEM.norm>
0

>  <SCORE.heavy>
14

>  <SCORE.norm>
-0.818152

>  <RMSD>
56.861

$$$$
ligand
 OpenBabel11021811493D
libRbt.so/2013.1/901 2013/11/27
 14 13  0  0  0  0  0  0  0  0999 V2000
    0.8028   17.3060   23.6107 N   0  0  0  0  0  0  0  0  0  0  0  0
    0.8439   18.6864   23.1439 C   0  0  0  0  0  0  0  0  0  0  0  0
    2.2840   19.2403   23.1888 C   0  0  0  0  0  0  0  0  0  0  0  0
    2.9042   19.3032   24.5988 C   0  0  0  0  0  0  0  0  0  0  0  0
    4.2590   19.8590   24.7355 N   0  0  0  0  0  0  0  0  0  0  0  0
    4.5008   21.3008   24.6125 C   0  0  0  0  0  0  0  0  0  0  0  0
    5.9226   21.7534   24.9576 C   0  0  0  0  0  0  0  0  0  0  0  0
    6.9688   21.2570   23.9453 C   0  0  0  0  0  0  0  0  0  0  0  0
    7.2452   19.7470   24.0242 C   0  0  0  0  0  0  0  0  0  0  0  0
    7.8478   19.2994   25.2819 N   0  0  0  0  0  0  0  0  0  0  0  0
    8.4302   17.9486   25.3634 C   0  0  0  0  0  0  0  0  0  0  0  0
    9.3982   17.6730   26.5383 C   0  0  0  0  0  0  0  0  0  0  0  0
   10.6687   18.5459   26.5808 C   0  0  0  0  0  0  0  0  0  0  0  0
   11.5569   18.2084   27.6892 N   0  0  0  0  0  0  0  0  0  0  0  0
  1  2  1  0  0  0  0
  2  3  1  0  0  0  0
  3  4  1  0  0  0  0
  4  5  1  0  0  0  0
  5  6  1  0  0  0  0
  6  7  1  0  0  0  0
  7  8  1  0  0  0  0
  8  9  1  0  0  0  0
  9 10  1  0  0  0  0
 10 11  1  0  0  0  0
 11 12  1  0  0  0  0
 12 13  1  0  0  0  0
 13 14  1  0  0  0  0
M  END
>  <CHROM.1>
-62.54519060,-178.09592825,73.62878905,172.36591661,67.85840682,-71.37193909
-64.58534105,-166.43128183,162.71685139,-61.01242459,-178.28360178,5.97373799
19.29514585,24.87631847,3.01892542,-0.31335694,-0.21603187

>  <Name>
ligand

>  <RI>
0

>  <Rbt.Current_Directory>
/home/itssahil/PROJECTS/Mol_Feturizer/New_Systems/rnas/4E8Q

>  <Rbt.Executable>
rbdock ($Id: //depot/dev/client3/rdock/2013.1/src/exe/rbdock.cxx#4 $)

>  <Rbt.Library>
libRbt.so (2013.1, Build901 2013/11/27)

>  <Rbt.Parameter_File>
/export/apps/rDock/src/rDock_2013.1_src/data/scripts/dock_solv.prm

>  <Rbt.Receptor>
prm/blind_docking_40.prm

>  <SCORE>
-12.6484

>  <SCORE.INTER>
-1.25993

>  <SCORE.INTER.CONST>
1

>  <SCORE.INTER.POLAR>
0

>  <SCORE.INTER.ROT>
11

>  <SCORE.INTER.SOLV>
12.6058

>  <SCORE.INTER.VDW>
-15.9752

>  <SCORE.INTER.norm>
-0.089995

>  <SCORE.INTRA>
-11.3885

>  <SCORE.INTRA.DIHEDRAL>
-24.4634

>  <SCORE.INTRA.DIHEDRAL.0>
25.9209

>  <SCORE.INTRA.POLAR>
0

>  <SCORE.INTRA.POLAR.0>
0

>  <SCORE.INTRA.REPUL>
0

>  <SCORE.INTRA.REPUL.0>
0

>  <SCORE.INTRA.SOLV>
0.72117

>  <SCORE.INTRA.SOLV.lig_0>
-47.4815

>  <SCORE.INTRA.VDW>
0.482625

>  <SCORE.INTRA.VDW.0>
-1.57492

>  <SCORE.INTRA.norm>
-0.813462

>  <SCORE.RESTR>
0

>  <SCORE.RESTR.CAVITY>
0

>  <SCORE.RESTR.norm>
0

>  <SCORE.SYSTEM>
0

>  <SCORE.SYSTEM.CONST>
0

>  <SCORE.SYSTEM.DIHEDRAL>
0

>  <SCORE.SYSTEM.SOLV>
0

>  <SCORE.SYSTEM.norm>
0

>  <SCORE.heavy>
14

>  <SCORE.norm>
-0.903457

>  <RMSD>
56.911

$$$$
ligand
 OpenBabel11021811493D
libRbt.so/2013.1/901 2013/11/27
 14 13  0  0  0  0  0  0  0  0999 V2000
    5.7642   21.7415   25.2479 N   0  0  0  0  0  0  0  0  0  0  0  0
    5.0634   20.7551   24.4348 C   0  0  0  0  0  0  0  0  0  0  0  0
    3.5961   20.6077   24.8906 C   0  0  0  0  0  0  0  0  0  0  0  0
    2.7764   19.5740   24.0928 C   0  0  0  0  0  0  0  0  0  0  0  0
    2.4974   19.8551   22.6765 N   0  0  0  0  0  0  0  0  0  0  0  0
    3.5439   19.7166   21.6576 C   0  0  0  0  0  0  0  0  0  0  0  0
    3.8143   18.2823   21.1940 C   0  0  0  0  0  0  0  0  0  0  0  0
    2.7561   17.7658   20.2044 C   0  0  0  0  0  0  0  0  0  0  0  0
    2.8234   16.2508   19.9540 C   0  0  0  0  0  0  0  0  0  0  0  0
    4.1357   15.7577   19.5298 N   0  0  0  0  0  0  0  0  0  0  0  0
    4.2653   14.3715   19.0478 C   0  0  0  0  0  0  0  0  0  0  0  0
    4.2698   13.2552   20.1190 C   0  0  0  0  0  0  0  0  0  0  0  0
    2.9434   13.0468   20.8775 C   0  0  0  0  0  0  0  0  0  0  0  0
    1.8463   12.6340   20.0071 N   0  0  0  0  0  0  0  0  0  0  0  0
  1  2  1  0  0  0  0
  2  3  1  0  0  0  0
  3  4  1  0  0  0  0
  4  5  1  0  0  0  0
  5  6  1  0  0  0  0
  6  7  1  0  0  0  0
  7  8  1  0  0  0  0
  8  9  1  0  0  0  0
  9 10  1  0  0  0  0
 10 11  1  0  0  0  0
 11 12  1  0  0  0  0
 12 13  1  0  0  0  0
 13 14  1  0  0  0  0
M  END
>  <CHROM.1>
-179.52734191,-66.59676052,74.70618195,79.61764759,77.76656970,-167.61235164
-54.11741032,-169.92962149,-76.83670259,67.54849510,62.58930756,3.57826800
17.40096447,21.70949085,-1.16512691,1.27041524,-2.96617863

>  <Name>
ligand

>  <RI>
0

>  <Rbt.Current_Directory>
/home/itssahil/PROJECTS/Mol_Feturizer/New_Systems/rnas/4E8Q

>  <Rbt.Executable>
rbdock ($Id: //depot/dev/client3/rdock/2013.1/src/exe/rbdock.cxx#4 $)

>  <Rbt.Library>
libRbt.so (2013.1, Build901 2013/11/27)

>  <Rbt.Parameter_File>
/export/apps/rDock/src/rDock_2013.1_src/data/scripts/dock_solv.prm

>  <Rbt.Receptor>
prm/blind_docking_40.prm

>  <SCORE>
-10.891

>  <SCORE.INTER>
-0.440388

>  <SCORE.INTER.CONST>
1

>  <SCORE.INTER.POLAR>
0

>  <SCORE.INTER.ROT>
11

>  <SCORE.INTER.SOLV>
11.4592

>  <SCORE.INTER.VDW>
-15.0467

>  <SCORE.INTER.norm>
-0.0314563

>  <SCORE.INTRA>
-10.4506

>  <SCORE.INTRA.DIHEDRAL>
-22.8982

>  <SCORE.INTRA.DIHEDRAL.0>
25.9209

>  <SCORE.INTRA.POLAR>
0

>  <SCORE.INTRA.POLAR.0>
0

>  <SCORE.INTRA.REPUL>
0

>  <SCORE.INTRA.REPUL.0>
0

>  <SCORE.INTRA.SOLV>
1.03406

>  <SCORE.INTRA.SOLV.lig_0>
-47.4815

>  <SCORE.INTRA.VDW>
0.481496

>  <SCORE.INTRA.VDW.0>
-1.57492

>  <SCORE.INTRA.norm>
-0.746471

>  <SCORE.RESTR>
0

>  <SCORE.RESTR.CAVITY>
0

>  <SCORE.RESTR.norm>
0

>  <SCORE.SYSTEM>
0

>  <SCORE.SYSTEM.CONST>
0

>  <SCORE.SYSTEM.DIHEDRAL>
0

>  <SCORE.SYSTEM.SOLV>
0

>  <SCORE.SYSTEM.norm>
0

>  <SCORE.heavy>
14

>  <SCORE.norm>
-0.777927

>  <RMSD>
57.120

$$$$
ligand
 OpenBabel11021811493D
libRbt.so/2013.1/901 2013/11/27
 14 13  0  0  0  0  0  0  0  0999 V2000
    7.9714   23.6255   23.7387 N   0  0  0  0  0  0  0  0  0  0  0  0
    7.1380   22.5815   23.1549 C   0  0  0  0  0  0  0  0  0  0  0  0
    5.8093   22.4409   23.9278 C   0  0  0  0  0  0  0  0  0  0  0  0
    4.8526   21.3680   23.3706 C   0  0  0  0  0  0  0  0  0  0  0  0
    3.5543   21.1845   24.0364 N   0  0  0  0  0  0  0  0  0  0  0  0
    3.4724   20.6453   25.3984 C   0  0  0  0  0  0  0  0  0  0  0  0
    3.3933   19.1186   25.4898 C   0  0  0  0  0  0  0  0  0  0  0  0
    4.6661   18.4237   24.9772 C   0  0  0  0  0  0  0  0  0  0  0  0
    4.5701   16.8899   24.9474 C   0  0  0  0  0  0  0  0  0  0  0  0
    3.5348   16.3581   24.0581 N   0  0  0  0  0  0  0  0  0  0  0  0
    3.6358   14.9674   23.5824 C   0  0  0  0  0  0  0  0  0  0  0  0
    3.0481   14.6610   22.1844 C   0  0  0  0  0  0  0  0  0  0  0  0
    3.2180   13.2111   21.6875 C   0  0  0  0  0  0  0  0  0  0  0  0
    2.7025   13.0059   20.3371 N   0  0  0  0  0  0  0  0  0  0  0  0
  1  2  1  0  0  0  0
  2  3  1  0  0  0  0
  3  4  1  0  0  0  0
  4  5  1  0  0  0  0
  5  6  1  0  0  0  0
  6  7  1  0  0  0  0
  7  8  1  0  0  0  0
  8  9  1  0  0  0  0
  9 10  1  0  0  0  0
 10 11  1  0  0  0  0
 11 12  1  0  0  0  0
 12 13  1  0  0  0  0
 13 14  1  0  0  0  0
M  END
>  <CHROM.1>
179.32191503,-179.03799900,-67.60298470,-88.39037642,64.88634846,-175.16645163
62.12813772,158.95287276,-149.13267820,177.62431395,-177.10005602,4.39758662
18.46293357,23.63528659,-1.02882034,-0.89985654,-2.48290364

>  <Name>
ligand

>  <RI>
0

>  <Rbt.Current_Directory>
/home/itssahil/PROJECTS/Mol_Feturizer/New_Systems/rnas/4E8Q

>  <Rbt.Executable>
rbdock ($Id: //depot/dev/client3/rdock/2013.1/src/exe/rbdock.cxx#4 $)

>  <Rbt.Library>
libRbt.so (2013.1, Build901 2013/11/27)

>  <Rbt.Parameter_File>
/export/apps/rDock/src/rDock_2013.1_src/data/scripts/dock_solv.prm

>  <Rbt.Receptor>
prm/blind_docking_80.prm

>  <SCORE>
-8.9258

>  <SCORE.INTER>
3.34541

>  <SCORE.INTER.CONST>
1

>  <SCORE.INTER.POLAR>
0

>  <SCORE.INTER.ROT>
11

>  <SCORE.INTER.SOLV>
9.68872

>  <SCORE.INTER.VDW>
-11.9326

>  <SCORE.INTER.norm>
0.238958

>  <SCORE.INTRA>
-12.2712

>  <SCORE.INTRA.DIHEDRAL>
-24.1056

>  <SCORE.INTRA.DIHEDRAL.0>
25.9209

>  <SCORE.INTRA.POLAR>
0

>  <SCORE.INTRA.POLAR.0>
0

>  <SCORE.INTRA.REPUL>
0

>  <SCORE.INTRA.REPUL.0>
0

>  <SCORE.INTRA.SOLV>
-1.39158

>  <SCORE.INTRA.SOLV.lig_0>
-47.4815

>  <SCORE.INTRA.VDW>
0.477365

>  <SCORE.INTRA.VDW.0>
-1.57492

>  <SCORE.INTRA.norm>
-0.876515

>  <SCORE.RESTR>
0

>  <SCORE.RESTR.CAVITY>
0

>  <SCORE.RESTR.norm>
0

>  <SCORE.SYSTEM>
0

>  <SCORE.SYSTEM.CONST>
0

>  <SCORE.SYSTEM.DIHEDRAL>
0

>  <SCORE.SYSTEM.SOLV>
0

>  <SCORE.SYSTEM.norm>
0

>  <SCORE.heavy>
14

>  <SCORE.norm>
-0.637557

>  <RMSD>
57.561

$$$$
ligand
 OpenBabel11021811493D
libRbt.so/2013.1/901 2013/11/27
 14 13  0  0  0  0  0  0  0  0999 V2000
    3.7816   13.4336   21.0711 N   0  0  0  0  0  0  0  0  0  0  0  0
    4.0478   13.6200   19.6500 C   0  0  0  0  0  0  0  0  0  0  0  0
    3.0229   12.8484   18.7917 C   0  0  0  0  0  0  0  0  0  0  0  0
    1.5605   13.2997   18.9773 C   0  0  0  0  0  0  0  0  0  0  0  0
    1.2031   14.6705   18.5823 N   0  0  0  0  0  0  0  0  0  0  0  0
   -0.0170   15.3094   19.0880 C   0  0  0  0  0  0  0  0  0  0  0  0
    0.1941   16.6613   19.7760 C   0  0  0  0  0  0  0  0  0  0  0  0
    1.1312   16.5716   20.9924 C   0  0  0  0  0  0  0  0  0  0  0  0
    1.3993   17.9229   21.6739 C   0  0  0  0  0  0  0  0  0  0  0  0
    2.3651   17.8733   22.7740 N   0  0  0  0  0  0  0  0  0  0  0  0
    2.9592   19.1266   23.2707 C   0  0  0  0  0  0  0  0  0  0  0  0
    2.9909   19.3270   24.8044 C   0  0  0  0  0  0  0  0  0  0  0  0
    3.5613   20.6735   25.2942 C   0  0  0  0  0  0  0  0  0  0  0  0
    4.9307   20.9104   24.8471 N   0  0  0  0  0  0  0  0  0  0  0  0
  1  2  1  0  0  0  0
  2  3  1  0  0  0  0
  3  4  1  0  0  0  0
  4  5  1  0  0  0  0
  5  6  1  0  0  0  0
  6  7  1  0  0  0  0
  7  8  1  0  0  0  0
  8  9  1  0  0  0  0
  9 10  1  0  0  0  0
 10 11  1  0  0  0  0
 11 12  1  0  0  0  0
 12 13  1  0  0  0  0
 13 14  1  0  0  0  0
M  END
>  <CHROM.1>
61.76088735,63.99960504,-161.07005323,125.43120548,-59.45022264,178.01953751
-175.78478575,164.45093799,133.17467157,-177.41395274,-58.41568974,2.36619627
16.58911570,21.39933140,-1.78131299,-0.47222170,0.62095860

>  <Name>
ligand

>  <RI>
0

>  <Rbt.Current_Directory>
/home/itssahil/PROJECTS/Mol_Feturizer/New_Systems/rnas/4E8Q

>  <Rbt.Executable>
rbdock ($Id: //depot/dev/client3/rdock/2013.1/src/exe/rbdock.cxx#4 $)

>  <Rbt.Library>
libRbt.so (2013.1, Build901 2013/11/27)

>  <Rbt.Parameter_File>
/export/apps/rDock/src/rDock_2013.1_src/data/scripts/dock_solv.prm

>  <Rbt.Receptor>
prm/blind_docking_40.prm

>  <SCORE>
-9.46797

>  <SCORE.INTER>
1.50074

>  <SCORE.INTER.CONST>
1

>  <SCORE.INTER.POLAR>
0

>  <SCORE.INTER.ROT>
11

>  <SCORE.INTER.SOLV>
10.5241

>  <SCORE.INTER.VDW>
-13.4409

>  <SCORE.INTER.norm>
0.107196

>  <SCORE.INTRA>
-10.9687

>  <SCORE.INTRA.DIHEDRAL>
-23.0314

>  <SCORE.INTRA.DIHEDRAL.0>
25.9209

>  <SCORE.INTRA.POLAR>
0

>  <SCORE.INTRA.POLAR.0>
0

>  <SCORE.INTRA.REPUL>
0

>  <SCORE.INTRA.REPUL.0>
0

>  <SCORE.INTRA.SOLV>
0.98727

>  <SCORE.INTRA.SOLV.lig_0>
-47.4815

>  <SCORE.INTRA.VDW>
0.0533565

>  <SCORE.INTRA.VDW.0>
-1.57492

>  <SCORE.INTRA.norm>
-0.783479

>  <SCORE.RESTR>
0

>  <SCORE.RESTR.CAVITY>
0

>  <SCORE.RESTR.norm>
0

>  <SCORE.SYSTEM>
0

>  <SCORE.SYSTEM.CONST>
0

>  <SCORE.SYSTEM.DIHEDRAL>
0

>  <SCORE.SYSTEM.SOLV>
0

>  <SCORE.SYSTEM.norm>
0

>  <SCORE.heavy>
14

>  <SCORE.norm>
-0.676283

>  <RMSD>
57.845

$$$$
ligand
 OpenBabel11021811493D
libRbt.so/2013.1/901 2013/11/27
 14 13  0  0  0  0  0  0  0  0999 V2000
    6.9509   19.8451   23.8100 N   0  0  0  0  0  0  0  0  0  0  0  0
    7.0571   18.5637   24.4969 C   0  0  0  0  0  0  0  0  0  0  0  0
    7.6586   18.7428   25.9071 C   0  0  0  0  0  0  0  0  0  0  0  0
    7.8131   17.4360   26.7102 C   0  0  0  0  0  0  0  0  0  0  0  0
    8.4131   17.5135   28.0507 N   0  0  0  0  0  0  0  0  0  0  0  0
    7.6065   17.8799   29.2202 C   0  0  0  0  0  0  0  0  0  0  0  0
    8.3162   18.7665   30.2476 C   0  0  0  0  0  0  0  0  0  0  0  0
    7.4797   18.9939   31.5183 C   0  0  0  0  0  0  0  0  0  0  0  0
    8.1427   19.9292   32.5421 C   0  0  0  0  0  0  0  0  0  0  0  0
    7.5684   19.8695   33.8882 N   0  0  0  0  0  0  0  0  0  0  0  0
    7.8141   18.6831   34.7263 C   0  0  0  0  0  0  0  0  0  0  0  0
    7.5541   18.8319   36.2441 C   0  0  0  0  0  0  0  0  0  0  0  0
    7.8228   17.5762   37.0979 C   0  0  0  0  0  0  0  0  0  0  0  0
    9.1941   17.0889   36.9815 N   0  0  0  0  0  0  0  0  0  0  0  0
  1  2  1  0  0  0  0
  2  3  1  0  0  0  0
  3  4  1  0  0  0  0
  4  5  1  0  0  0  0
  5  6  1  0  0  0  0
  6  7  1  0  0  0  0
  7  8  1  0  0  0  0
  8  9  1  0  0  0  0
  9 10  1  0  0  0  0
 10 11  1  0  0  0  0
 11 12  1  0  0  0  0
 12 13  1  0  0  0  0
 13 14  1  0  0  0  0
M  END
>  <CHROM.1>
-179.84073417,178.35505301,82.83222385,-142.09797858,-173.84081663,-177.54312027
-163.66626292,72.03320682,162.61536270,-179.84313722,58.02878070,7.81358405
18.55143487,30.81727924,1.75932272,1.23615177,-1.71796553

>  <Name>
ligand

>  <RI>
0

>  <Rbt.Current_Directory>
/home/itssahil/PROJECTS/Mol_Feturizer/New_Systems/rnas/4E8Q

>  <Rbt.Executable>
rbdock ($Id: //depot/dev/client3/rdock/2013.1/src/exe/rbdock.cxx#4 $)

>  <Rbt.Library>
libRbt.so (2013.1, Build901 2013/11/27)

>  <Rbt.Parameter_File>
/export/apps/rDock/src/rDock_2013.1_src/data/scripts/dock_solv.prm

>  <Rbt.Receptor>
prm/blind_docking_80.prm

>  <SCORE>
-12.9854

>  <SCORE.INTER>
-1.30514

>  <SCORE.INTER.CONST>
1

>  <SCORE.INTER.POLAR>
0

>  <SCORE.INTER.ROT>
11

>  <SCORE.INTER.SOLV>
15.9993

>  <SCORE.INTER.VDW>
-17.1365

>  <SCORE.INTER.norm>
-0.0932244

>  <SCORE.INTRA>
-11.6803

>  <SCORE.INTRA.DIHEDRAL>
-23.2105

>  <SCORE.INTRA.DIHEDRAL.0>
25.9209

>  <SCORE.INTRA.POLAR>
0

>  <SCORE.INTRA.POLAR.0>
0

>  <SCORE.INTRA.REPUL>
0

>  <SCORE.INTRA.REPUL.0>
0

>  <SCORE.INTRA.SOLV>
-1.4131

>  <SCORE.INTRA.SOLV.lig_0>
-47.4815

>  <SCORE.INTRA.VDW>
0.631514

>  <SCORE.INTRA.VDW.0>
-1.57492

>  <SCORE.INTRA.norm>
-0.834307

>  <SCORE.RESTR>
0

>  <SCORE.RESTR.CAVITY>
0

>  <SCORE.RESTR.norm>
0

>  <SCORE.SYSTEM>
0

>  <SCORE.SYSTEM.CONST>
0

>  <SCORE.SYSTEM.DIHEDRAL>
0

>  <SCORE.SYSTEM.SOLV>
0

>  <SCORE.SYSTEM.norm>
0

>  <SCORE.heavy>
14

>  <SCORE.norm>
-0.927532

>  <RMSD>
58.268

$$$$
ligand
 OpenBabel11021811493D
libRbt.so/2013.1/901 2013/11/27
 14 13  0  0  0  0  0  0  0  0999 V2000
    5.9818   19.7194   33.6024 N   0  0  0  0  0  0  0  0  0  0  0  0
    6.6748   18.4869   33.2475 C   0  0  0  0  0  0  0  0  0  0  0  0
    7.0948   17.7075   34.5118 C   0  0  0  0  0  0  0  0  0  0  0  0
    8.0735   18.4604   35.4349 C   0  0  0  0  0  0  0  0  0  0  0  0
    8.5180   17.7910   36.6666 N   0  0  0  0  0  0  0  0  0  0  0  0
    9.6920   16.9111   36.6677 C   0  0  0  0  0  0  0  0  0  0  0  0
   10.0075   16.2495   38.0124 C   0  0  0  0  0  0  0  0  0  0  0  0
   11.2453   15.3383   37.9529 C   0  0  0  0  0  0  0  0  0  0  0  0
   11.0804   14.1224   37.0271 C   0  0  0  0  0  0  0  0  0  0  0  0
   12.2216   13.2043   37.0128 N   0  0  0  0  0  0  0  0  0  0  0  0
   12.6223   12.5699   35.7449 C   0  0  0  0  0  0  0  0  0  0  0  0
   13.8754   11.6633   35.7808 C   0  0  0  0  0  0  0  0  0  0  0  0
   14.2724   11.0127   34.4402 C   0  0  0  0  0  0  0  0  0  0  0  0
   15.4211   10.1192   34.5567 N   0  0  0  0  0  0  0  0  0  0  0  0
  1  2  1  0  0  0  0
  2  3  1  0  0  0  0
  3  4  1  0  0  0  0
  4  5  1  0  0  0  0
  5  6  1  0  0  0  0
  6  7  1  0  0  0  0
  7  8  1  0  0  0  0
  8  9  1  0  0  0  0
  9 10  1  0  0  0  0
 10 11  1  0  0  0  0
 11 12  1  0  0  0  0
 12 13  1  0  0  0  0
 13 14  1  0  0  0  0
M  END
>  <CHROM.1>
-61.47495954,179.64314780,87.93020967,-178.12337345,179.91694926,-64.21851401
-176.86743921,-142.10375965,177.17361750,-179.97836903,-177.14766900,10.48431776
15.23971633,35.76145617,3.03131431,-0.80431683,1.31568138

>  <Name>
ligand

>  <RI>
0

>  <Rbt.Current_Directory>
/home/itssahil/PROJECTS/Mol_Feturizer/New_Systems/rnas/4E8Q

>  <Rbt.Executable>
rbdock ($Id: //depot/dev/client3/rdock/2013.1/src/exe/rbdock.cxx#4 $)

>  <Rbt.Library>
libRbt.so (2013.1, Build901 2013/11/27)

>  <Rbt.Parameter_File>
/export/apps/rDock/src/rDock_2013.1_src/data/scripts/dock_solv.prm

>  <Rbt.Receptor>
prm/blind_docking_100.prm

>  <SCORE>
-16.3074

>  <SCORE.INTER>
-4.37326

>  <SCORE.INTER.CONST>
1

>  <SCORE.INTER.POLAR>
0

>  <SCORE.INTER.ROT>
11

>  <SCORE.INTER.SOLV>
15.2259

>  <SCORE.INTER.VDW>
-18.9241

>  <SCORE.INTER.norm>
-0.312376

>  <SCORE.INTRA>
-11.9342

>  <SCORE.INTRA.DIHEDRAL>
-24.3844

>  <SCORE.INTRA.DIHEDRAL.0>
25.9209

>  <SCORE.INTRA.POLAR>
0

>  <SCORE.INTRA.POLAR.0>
0

>  <SCORE.INTRA.REPUL>
0

>  <SCORE.INTRA.REPUL.0>
0

>  <SCORE.INTRA.SOLV>
-1.2632

>  <SCORE.INTRA.SOLV.lig_0>
-47.4815

>  <SCORE.INTRA.VDW>
0.889651

>  <SCORE.INTRA.VDW.0>
-1.57492

>  <SCORE.INTRA.norm>
-0.852441

>  <SCORE.RESTR>
0

>  <SCORE.RESTR.CAVITY>
0

>  <SCORE.RESTR.norm>
0

>  <SCORE.SYSTEM>
0

>  <SCORE.SYSTEM.CONST>
0

>  <SCORE.SYSTEM.DIHEDRAL>
0

>  <SCORE.SYSTEM.SOLV>
0

>  <SCORE.SYSTEM.norm>
0

>  <SCORE.heavy>
14

>  <SCORE.norm>
-1.16482

>  <RMSD>
58.436

$$$$
ligand
 OpenBabel11021811493D
libRbt.so/2013.1/901 2013/11/27
 14 13  0  0  0  0  0  0  0  0999 V2000
    0.3720   12.7475   16.8958 N   0  0  0  0  0  0  0  0  0  0  0  0
   -0.8592   13.5037   16.7023 C   0  0  0  0  0  0  0  0  0  0  0  0
   -0.8194   14.8314   17.4885 C   0  0  0  0  0  0  0  0  0  0  0  0
   -0.6476   14.6708   19.0121 C   0  0  0  0  0  0  0  0  0  0  0  0
   -0.7322   15.8766   19.8497 N   0  0  0  0  0  0  0  0  0  0  0  0
    0.2880   16.9277   19.7674 C   0  0  0  0  0  0  0  0  0  0  0  0
    1.7112   16.4812   20.1145 C   0  0  0  0  0  0  0  0  0  0  0  0
    2.7205   17.6418   20.1008 C   0  0  0  0  0  0  0  0  0  0  0  0
    2.4827   18.6878   21.2017 C   0  0  0  0  0  0  0  0  0  0  0  0
    2.4467   18.1474   22.5626 N   0  0  0  0  0  0  0  0  0  0  0  0
    1.9298   18.9849   23.6589 C   0  0  0  0  0  0  0  0  0  0  0  0
    2.9759   19.6759   24.5654 C   0  0  0  0  0  0  0  0  0  0  0  0
    3.9097   20.6840   23.8655 C   0  0  0  0  0  0  0  0  0  0  0  0
    4.9609   21.1926   24.7418 N   0  0  0  0  0  0  0  0  0  0  0  0
  1  2  1  0  0  0  0
  2  3  1  0  0  0  0
  3  4  1  0  0  0  0
  4  5  1  0  0  0  0
  5  6  1  0  0  0  0
  6  7  1  0  0  0  0
  7  8  1  0  0  0  0
  8  9  1  0  0  0  0
  9 10  1  0  0  0  0
 10 11  1  0  0  0  0
 11 12  1  0  0  0  0
 12 13  1  0  0  0  0
 13 14  1  0  0  0  0
M  END
>  <CHROM.1>
-59.73449797,-174.09868865,-66.99066406,-60.47669973,-176.23734786,66.41110390
55.32127152,-166.26856160,-100.45391684,62.09110270,-173.87931299,1.48123697
17.14672051,20.75181844,-2.03022686,0.31368192,0.96332558

>  <Name>
ligand

>  <RI>
0

>  <Rbt.Current_Directory>
/home/itssahil/PROJECTS/Mol_Feturizer/New_Systems/rnas/4E8Q

>  <Rbt.Executable>
rbdock ($Id: //depot/dev/client3/rdock/2013.1/src/exe/rbdock.cxx#4 $)

>  <Rbt.Library>
libRbt.so (2013.1, Build901 2013/11/27)

>  <Rbt.Parameter_File>
/export/apps/rDock/src/rDock_2013.1_src/data/scripts/dock_solv.prm

>  <Rbt.Receptor>
prm/blind_docking_40.prm

>  <SCORE>
-10.2232

>  <SCORE.INTER>
1.00306

>  <SCORE.INTER.CONST>
1

>  <SCORE.INTER.POLAR>
0

>  <SCORE.INTER.ROT>
11

>  <SCORE.INTER.SOLV>
8.7128

>  <SCORE.INTER.VDW>
-13.1689

>  <SCORE.INTER.norm>
0.0716474

>  <SCORE.INTRA>
-11.2263

>  <SCORE.INTRA.DIHEDRAL>
-24.2256

>  <SCORE.INTRA.DIHEDRAL.0>
25.9209

>  <SCORE.INTRA.POLAR>
0

>  <SCORE.INTRA.POLAR.0>
0

>  <SCORE.INTRA.REPUL>
0

>  <SCORE.INTRA.REPUL.0>
0

>  <SCORE.INTRA.SOLV>
-0.365034

>  <SCORE.INTRA.SOLV.lig_0>
-47.4815

>  <SCORE.INTRA.VDW>
1.06905

>  <SCORE.INTRA.VDW.0>
-1.57492

>  <SCORE.INTRA.norm>
-0.801875

>  <SCORE.RESTR>
0

>  <SCORE.RESTR.CAVITY>
0

>  <SCORE.RESTR.norm>
0

>  <SCORE.SYSTEM>
0

>  <SCORE.SYSTEM.CONST>
0

>  <SCORE.SYSTEM.DIHEDRAL>
0

>  <SCORE.SYSTEM.SOLV>
0

>  <SCORE.SYSTEM.norm>
0

>  <SCORE.heavy>
14

>  <SCORE.norm>
-0.730228

>  <RMSD>
58.463

$$$$
ligand
 OpenBabel11021811493D
libRbt.so/2013.1/901 2013/11/27
 14 13  0  0  0  0  0  0  0  0999 V2000
    1.0067   11.7170   17.4986 N   0  0  0  0  0  0  0  0  0  0  0  0
    0.4213   12.7754   18.3126 C   0  0  0  0  0  0  0  0  0  0  0  0
    0.1020   14.0177   17.4540 C   0  0  0  0  0  0  0  0  0  0  0  0
   -0.5522   15.1809   18.2257 C   0  0  0  0  0  0  0  0  0  0  0  0
    0.2205   15.8199   19.3016 N   0  0  0  0  0  0  0  0  0  0  0  0
   -0.4460   16.3708   20.4868 C   0  0  0  0  0  0  0  0  0  0  0  0
    0.4387   17.2400   21.3852 C   0  0  0  0  0  0  0  0  0  0  0  0
   -0.2897   17.7247   22.6503 C   0  0  0  0  0  0  0  0  0  0  0  0
    0.4824   18.7904   23.4446 C   0  0  0  0  0  0  0  0  0  0  0  0
    1.8157   18.3772   23.8883 N   0  0  0  0  0  0  0  0  0  0  0  0
    2.7113   19.3705   24.5062 C   0  0  0  0  0  0  0  0  0  0  0  0
    3.9533   18.8261   25.2509 C   0  0  0  0  0  0  0  0  0  0  0  0
    4.9759   18.0641   24.3839 C   0  0  0  0  0  0  0  0  0  0  0  0
    5.6201   18.9102   23.3837 N   0  0  0  0  0  0  0  0  0  0  0  0
  1  2  1  0  0  0  0
  2  3  1  0  0  0  0
  3  4  1  0  0  0  0
  4  5  1  0  0  0  0
  5  6  1  0  0  0  0
  6  7  1  0  0  0  0
  7  8  1  0  0  0  0
  8  9  1  0  0  0  0
  9 10  1  0  0  0  0
 10 11  1  0  0  0  0
 11 12  1  0  0  0  0
 12 13  1  0  0  0  0
 13 14  1  0  0  0  0
M  END
>  <CHROM.1>
178.66726235,63.14756551,-147.52680323,-168.55521550,-176.79809701,-169.92090298
-57.96477282,172.25238333,165.95808903,63.10850779,65.00889799,1.46113364
16.65625360,21.44105701,-1.97190341,-0.22664908,0.78570113

>  <Name>
ligand

>  <RI>
0

>  <Rbt.Current_Directory>
/home/itssahil/PROJECTS/Mol_Feturizer/New_Systems/rnas/4E8Q

>  <Rbt.Executable>
rbdock ($Id: //depot/dev/client3/rdock/2013.1/src/exe/rbdock.cxx#4 $)

>  <Rbt.Library>
libRbt.so (2013.1, Build901 2013/11/27)

>  <Rbt.Parameter_File>
/export/apps/rDock/src/rDock_2013.1_src/data/scripts/dock_solv.prm

>  <Rbt.Receptor>
prm/blind_docking_40.prm

>  <SCORE>
-11.4613

>  <SCORE.INTER>
0.50421

>  <SCORE.INTER.CONST>
1

>  <SCORE.INTER.POLAR>
0

>  <SCORE.INTER.ROT>
11

>  <SCORE.INTER.SOLV>
4.77296

>  <SCORE.INTER.VDW>
-12.1882

>  <SCORE.INTER.norm>
0.036015

>  <SCORE.INTRA>
-11.9655

>  <SCORE.INTRA.DIHEDRAL>
-24.2895

>  <SCORE.INTRA.DIHEDRAL.0>
25.9209

>  <SCORE.INTRA.POLAR>
0

>  <SCORE.INTRA.POLAR.0>
0

>  <SCORE.INTRA.REPUL>
0

>  <SCORE.INTRA.REPUL.0>
0

>  <SCORE.INTRA.SOLV>
-0.0106344

>  <SCORE.INTRA.SOLV.lig_0>
-47.4815

>  <SCORE.INTRA.VDW>
0.184542

>  <SCORE.INTRA.VDW.0>
-1.57492

>  <SCORE.INTRA.norm>
-0.854682

>  <SCORE.RESTR>
0

>  <SCORE.RESTR.CAVITY>
0

>  <SCORE.RESTR.norm>
0

>  <SCORE.SYSTEM>
0

>  <SCORE.SYSTEM.CONST>
0

>  <SCORE.SYSTEM.DIHEDRAL>
0

>  <SCORE.SYSTEM.SOLV>
0

>  <SCORE.SYSTEM.norm>
0

>  <SCORE.heavy>
14

>  <SCORE.norm>
-0.818667

>  <RMSD>
58.594

$$$$
ligand
 OpenBabel11021811493D
libRbt.so/2013.1/901 2013/11/27
 14 13  0  0  0  0  0  0  0  0999 V2000
    6.6096   17.6896   25.7163 N   0  0  0  0  0  0  0  0  0  0  0  0
    5.2287   18.0869   25.4705 C   0  0  0  0  0  0  0  0  0  0  0  0
    4.3987   16.8970   24.9435 C   0  0  0  0  0  0  0  0  0  0  0  0
    2.9014   17.2000   24.7364 C   0  0  0  0  0  0  0  0  0  0  0  0
    2.5318   18.2207   23.7442 N   0  0  0  0  0  0  0  0  0  0  0  0
    1.2086   18.8541   23.7677 C   0  0  0  0  0  0  0  0  0  0  0  0
    0.0531   17.9637   23.3016 C   0  0  0  0  0  0  0  0  0  0  0  0
    0.2101   17.4969   21.8445 C   0  0  0  0  0  0  0  0  0  0  0  0
   -1.0239   16.7699   21.2863 C   0  0  0  0  0  0  0  0  0  0  0  0
   -0.9363   16.4150   19.8679 N   0  0  0  0  0  0  0  0  0  0  0  0
   -0.2330   15.1818   19.4740 C   0  0  0  0  0  0  0  0  0  0  0  0
    1.1382   15.3496   18.7775 C   0  0  0  0  0  0  0  0  0  0  0  0
    2.2807   15.8854   19.6638 C   0  0  0  0  0  0  0  0  0  0  0  0
    2.7305   14.9195   20.6619 N   0  0  0  0  0  0  0  0  0  0  0  0
  1  2  1  0  0  0  0
  2  3  1  0  0  0  0
  3  4  1  0  0  0  0
  4  5  1  0  0  0  0
  5  6  1  0  0  0  0
  6  7  1  0  0  0  0
  7  8  1  0  0  0  0
  8  9  1  0  0  0  0
  9 10  1  0  0  0  0
 10 11  1  0  0  0  0
 11 12  1  0  0  0  0
 12 13  1  0  0  0  0
 13 14  1  0  0  0  0
M  END
>  <CHROM.1>
176.41689414,62.85534189,-161.26197508,-72.94867262,-61.13647045,-171.81460051
175.21920499,83.09118765,-108.05092854,68.97375124,70.46381876,1.93526367
16.92365331,22.37538512,-0.84168800,0.29382770,-2.15270119

>  <Name>
ligand

>  <RI>
0

>  <Rbt.Current_Directory>
/home/itssahil/PROJECTS/Mol_Feturizer/New_Systems/rnas/4E8Q

>  <Rbt.Executable>
rbdock ($Id: //depot/dev/client3/rdock/2013.1/src/exe/rbdock.cxx#4 $)

>  <Rbt.Library>
libRbt.so (2013.1, Build901 2013/11/27)

>  <Rbt.Parameter_File>
/export/apps/rDock/src/rDock_2013.1_src/data/scripts/dock_solv.prm

>  <Rbt.Receptor>
prm/blind_docking_40.prm

>  <SCORE>
-8.77538

>  <SCORE.INTER>
2.30329

>  <SCORE.INTER.CONST>
1

>  <SCORE.INTER.POLAR>
0

>  <SCORE.INTER.ROT>
11

>  <SCORE.INTER.SOLV>
6.40698

>  <SCORE.INTER.VDW>
-11.5335

>  <SCORE.INTER.norm>
0.164521

>  <SCORE.INTRA>
-11.0787

>  <SCORE.INTRA.DIHEDRAL>
-22.8979

>  <SCORE.INTRA.DIHEDRAL.0>
25.9209

>  <SCORE.INTRA.POLAR>
0

>  <SCORE.INTRA.POLAR.0>
0

>  <SCORE.INTRA.REPUL>
0

>  <SCORE.INTRA.REPUL.0>
0

>  <SCORE.INTRA.SOLV>
0.806568

>  <SCORE.INTRA.SOLV.lig_0>
-47.4815

>  <SCORE.INTRA.VDW>
-0.0330117

>  <SCORE.INTRA.VDW.0>
-1.57492

>  <SCORE.INTRA.norm>
-0.791333

>  <SCORE.RESTR>
0

>  <SCORE.RESTR.CAVITY>
0

>  <SCORE.RESTR.norm>
0

>  <SCORE.SYSTEM>
0

>  <SCORE.SYSTEM.CONST>
0

>  <SCORE.SYSTEM.DIHEDRAL>
0

>  <SCORE.SYSTEM.SOLV>
0

>  <SCORE.SYSTEM.norm>
0

>  <SCORE.heavy>
14

>  <SCORE.norm>
-0.626813

>  <RMSD>
58.605

$$$$
ligand
 OpenBabel11021811493D
libRbt.so/2013.1/901 2013/11/27
 14 13  0  0  0  0  0  0  0  0999 V2000
    6.4648   22.2768   25.3180 N   0  0  0  0  0  0  0  0  0  0  0  0
    5.8289   22.2910   24.0063 C   0  0  0  0  0  0  0  0  0  0  0  0
    5.2154   20.9135   23.6767 C   0  0  0  0  0  0  0  0  0  0  0  0
    4.4841   20.8438   22.3213 C   0  0  0  0  0  0  0  0  0  0  0  0
    3.8602   19.5691   21.9355 N   0  0  0  0  0  0  0  0  0  0  0  0
    2.4170   19.3558   22.0915 C   0  0  0  0  0  0  0  0  0  0  0  0
    1.9624   18.9956   23.5089 C   0  0  0  0  0  0  0  0  0  0  0  0
    0.4556   18.6984   23.5945 C   0  0  0  0  0  0  0  0  0  0  0  0
    0.0307   17.4153   22.8626 C   0  0  0  0  0  0  0  0  0  0  0  0
    0.0273   17.5162   21.4013 N   0  0  0  0  0  0  0  0  0  0  0  0
    1.0322   16.7706   20.6235 C   0  0  0  0  0  0  0  0  0  0  0  0
    0.5224   15.9831   19.3933 C   0  0  0  0  0  0  0  0  0  0  0  0
   -0.5098   14.8753   19.6854 C   0  0  0  0  0  0  0  0  0  0  0  0
   -0.8732   14.1057   18.4992 N   0  0  0  0  0  0  0  0  0  0  0  0
  1  2  1  0  0  0  0
  2  3  1  0  0  0  0
  3  4  1  0  0  0  0
  4  5  1  0  0  0  0
  5  6  1  0  0  0  0
  6  7  1  0  0  0  0
  7  8  1  0  0  0  0
  8  9  1  0  0  0  0
  9 10  1  0  0  0  0
 10 11  1  0  0  0  0
 11 12  1  0  0  0  0
 12 13  1  0  0  0  0
 13 14  1  0  0  0  0
M  END
>  <CHROM.1>
178.35875500,-179.47304151,100.43551257,-80.21442877,-176.42696283,67.70912928
-73.47259858,110.73026581,133.71713191,-60.91693466,-175.65391511,2.20835861
18.54366437,22.06566895,0.80665296,0.48533102,1.02020769

>  <Name>
ligand

>  <RI>
0

>  <Rbt.Current_Directory>
/home/itssahil/PROJECTS/Mol_Feturizer/New_Systems/rnas/4E8Q

>  <Rbt.Executable>
rbdock ($Id: //depot/dev/client3/rdock/2013.1/src/exe/rbdock.cxx#4 $)

>  <Rbt.Library>
libRbt.so (2013.1, Build901 2013/11/27)

>  <Rbt.Parameter_File>
/export/apps/rDock/src/rDock_2013.1_src/data/scripts/dock_solv.prm

>  <Rbt.Receptor>
prm/blind_docking_40.prm

>  <SCORE>
-8.57138

>  <SCORE.INTER>
1.99671

>  <SCORE.INTER.CONST>
1

>  <SCORE.INTER.POLAR>
0

>  <SCORE.INTER.ROT>
11

>  <SCORE.INTER.SOLV>
9.97715

>  <SCORE.INTER.VDW>
-12.9279

>  <SCORE.INTER.norm>
0.142622

>  <SCORE.INTRA>
-10.5681

>  <SCORE.INTRA.DIHEDRAL>
-21.4824

>  <SCORE.INTRA.DIHEDRAL.0>
25.9209

>  <SCORE.INTRA.POLAR>
0

>  <SCORE.INTRA.POLAR.0>
0

>  <SCORE.INTRA.REPUL>
0

>  <SCORE.INTRA.REPUL.0>
0

>  <SCORE.INTRA.SOLV>
-0.711313

>  <SCORE.INTRA.SOLV.lig_0>
-47.4815

>  <SCORE.INTRA.VDW>
0.528779

>  <SCORE.INTRA.VDW.0>
-1.57492

>  <SCORE.INTRA.norm>
-0.754864

>  <SCORE.RESTR>
0

>  <SCORE.RESTR.CAVITY>
0

>  <SCORE.RESTR.norm>
0

>  <SCORE.SYSTEM>
0

>  <SCORE.SYSTEM.CONST>
0

>  <SCORE.SYSTEM.DIHEDRAL>
0

>  <SCORE.SYSTEM.SOLV>
0

>  <SCORE.SYSTEM.norm>
0

>  <SCORE.heavy>
14

>  <SCORE.norm>
-0.612242

>  <RMSD>
58.717

$$$$
ligand
 OpenBabel11021811493D
libRbt.so/2013.1/901 2013/11/27
 14 13  0  0  0  0  0  0  0  0999 V2000
    6.5026   11.5560   43.9119 N   0  0  0  0  0  0  0  0  0  0  0  0
    7.5562   11.7754   42.9286 C   0  0  0  0  0  0  0  0  0  0  0  0
    8.2078   10.4395   42.5122 C   0  0  0  0  0  0  0  0  0  0  0  0
    9.4212   10.5823   41.5720 C   0  0  0  0  0  0  0  0  0  0  0  0
    9.1929   11.1230   40.2236 N   0  0  0  0  0  0  0  0  0  0  0  0
    9.0415   12.5656   40.0029 C   0  0  0  0  0  0  0  0  0  0  0  0
    9.3249   13.0381   38.5740 C   0  0  0  0  0  0  0  0  0  0  0  0
   10.7947   12.8467   38.1631 C   0  0  0  0  0  0  0  0  0  0  0  0
   11.0949   13.2563   36.7123 C   0  0  0  0  0  0  0  0  0  0  0  0
   12.4900   13.0802   36.3022 N   0  0  0  0  0  0  0  0  0  0  0  0
   12.8137   12.9755   34.8687 C   0  0  0  0  0  0  0  0  0  0  0  0
   14.1379   12.2657   34.4998 C   0  0  0  0  0  0  0  0  0  0  0  0
   14.2827   10.8133   34.9976 C   0  0  0  0  0  0  0  0  0  0  0  0
   15.6086   10.2543   34.7506 N   0  0  0  0  0  0  0  0  0  0  0  0
  1  2  1  0  0  0  0
  2  3  1  0  0  0  0
  3  4  1  0  0  0  0
  4  5  1  0  0  0  0
  5  6  1  0  0  0  0
  6  7  1  0  0  0  0
  7  8  1  0  0  0  0
  8  9  1  0  0  0  0
  9 10  1  0  0  0  0
 10 11  1  0  0  0  0
 11 12  1  0  0  0  0
 12 13  1  0  0  0  0
 13 14  1  0  0  0  0
M  END
>  <CHROM.1>
-174.62752938,-65.48466354,79.22846516,158.39798966,-65.54581388,177.49426344
-179.95833788,158.63349814,-156.97311503,58.13791628,-173.41650398,10.74774780
11.89815302,38.57273487,-2.55448598,0.70678052,-0.73748806

>  <Name>
ligand

>  <RI>
0

>  <Rbt.Current_Directory>
/home/itssahil/PROJECTS/Mol_Feturizer/New_Systems/rnas/4E8Q

>  <Rbt.Executable>
rbdock ($Id: //depot/dev/client3/rdock/2013.1/src/exe/rbdock.cxx#4 $)

>  <Rbt.Library>
libRbt.so (2013.1, Build901 2013/11/27)

>  <Rbt.Parameter_File>
/export/apps/rDock/src/rDock_2013.1_src/data/scripts/dock_solv.prm

>  <Rbt.Receptor>
prm/blind_docking_60.prm

>  <SCORE>
-14.7727

>  <SCORE.INTER>
-2.46097

>  <SCORE.INTER.CONST>
1

>  <SCORE.INTER.POLAR>
0

>  <SCORE.INTER.ROT>
11

>  <SCORE.INTER.SOLV>
8.80141

>  <SCORE.INTER.VDW>
-15.5078

>  <SCORE.INTER.norm>
-0.175784

>  <SCORE.INTRA>
-12.3117

>  <SCORE.INTRA.DIHEDRAL>
-24.0345

>  <SCORE.INTRA.DIHEDRAL.0>
25.9209

>  <SCORE.INTRA.POLAR>
0

>  <SCORE.INTRA.POLAR.0>
0

>  <SCORE.INTRA.REPUL>
0

>  <SCORE.INTRA.REPUL.0>
0

>  <SCORE.INTRA.SOLV>
-1.16357

>  <SCORE.INTRA.SOLV.lig_0>
-47.4815

>  <SCORE.INTRA.VDW>
0.287308

>  <SCORE.INTRA.VDW.0>
-1.57492

>  <SCORE.INTRA.norm>
-0.879411

>  <SCORE.RESTR>
0

>  <SCORE.RESTR.CAVITY>
0

>  <SCORE.RESTR.norm>
0

>  <SCORE.SYSTEM>
0

>  <SCORE.SYSTEM.CONST>
0

>  <SCORE.SYSTEM.DIHEDRAL>
0

>  <SCORE.SYSTEM.SOLV>
0

>  <SCORE.SYSTEM.norm>
0

>  <SCORE.heavy>
14

>  <SCORE.norm>
-1.05519

>  <RMSD>
59.499

$$$$
ligand
 OpenBabel11021811493D
libRbt.so/2013.1/901 2013/11/27
 14 13  0  0  0  0  0  0  0  0999 V2000
   17.1553    8.3358   55.7248 N   0  0  0  0  0  0  0  0  0  0  0  0
   17.1184    9.4854   56.6205 C   0  0  0  0  0  0  0  0  0  0  0  0
   17.5857   10.7647   55.8943 C   0  0  0  0  0  0  0  0  0  0  0  0
   16.6915   11.1970   54.7152 C   0  0  0  0  0  0  0  0  0  0  0  0
   17.0241   12.4469   54.0153 N   0  0  0  0  0  0  0  0  0  0  0  0
   16.2313   13.6638   54.2227 C   0  0  0  0  0  0  0  0  0  0  0  0
   16.6912   14.8842   53.4197 C   0  0  0  0  0  0  0  0  0  0  0  0
   15.8050   16.1197   53.6525 C   0  0  0  0  0  0  0  0  0  0  0  0
   15.8989   16.6953   55.0746 C   0  0  0  0  0  0  0  0  0  0  0  0
   17.2163   17.2238   55.4358 N   0  0  0  0  0  0  0  0  0  0  0  0
   17.3325   18.1659   56.5626 C   0  0  0  0  0  0  0  0  0  0  0  0
   18.3689   17.8223   57.6586 C   0  0  0  0  0  0  0  0  0  0  0  0
   19.8380   17.7505   57.1951 C   0  0  0  0  0  0  0  0  0  0  0  0
   20.7543   17.3531   58.2599 N   0  0  0  0  0  0  0  0  0  0  0  0
  1  2  1  0  0  0  0
  2  3  1  0  0  0  0
  3  4  1  0  0  0  0
  4  5  1  0  0  0  0
  5  6  1  0  0  0  0
  6  7  1  0  0  0  0
  7  8  1  0  0  0  0
  8  9  1  0  0  0  0
  9 10  1  0  0  0  0
 10 11  1  0  0  0  0
 11 12  1  0  0  0  0
 12 13  1  0  0  0  0
 13 14  1  0  0  0  0
M  END
>  <CHROM.1>
63.20669738,176.71280565,-104.95643374,-179.62513036,178.68649643,67.26357062
64.25348412,160.61909558,127.69733832,61.60233064,-176.92730008,17.40770024
14.42226509,55.60358472,-1.84022906,-0.84517484,-0.03295702

>  <Name>
ligand

>  <RI>
0

>  <Rbt.Current_Directory>
/home/itssahil/PROJECTS/Mol_Feturizer/New_Systems/rnas/4E8Q

>  <Rbt.Executable>
rbdock ($Id: //depot/dev/client3/rdock/2013.1/src/exe/rbdock.cxx#4 $)

>  <Rbt.Library>
libRbt.so (2013.1, Build901 2013/11/27)

>  <Rbt.Parameter_File>
/export/apps/rDock/src/rDock_2013.1_src/data/scripts/dock_solv.prm

>  <Rbt.Receptor>
prm/blind_docking_80.prm

>  <SCORE>
-11.8888

>  <SCORE.INTER>
-0.74106

>  <SCORE.INTER.CONST>
1

>  <SCORE.INTER.POLAR>
0

>  <SCORE.INTER.ROT>
11

>  <SCORE.INTER.SOLV>
7.58865

>  <SCORE.INTER.VDW>
-13.9569

>  <SCORE.INTER.norm>
-0.0529328

>  <SCORE.INTRA>
-11.1478

>  <SCORE.INTRA.DIHEDRAL>
-23.044

>  <SCORE.INTRA.DIHEDRAL.0>
25.9209

>  <SCORE.INTRA.POLAR>
0

>  <SCORE.INTRA.POLAR.0>
0

>  <SCORE.INTRA.REPUL>
0

>  <SCORE.INTRA.REPUL.0>
0

>  <SCORE.INTRA.SOLV>
-0.513127

>  <SCORE.INTRA.SOLV.lig_0>
-47.4815

>  <SCORE.INTRA.VDW>
0.630786

>  <SCORE.INTRA.VDW.0>
-1.57492

>  <SCORE.INTRA.norm>
-0.796269

>  <SCORE.RESTR>
0

>  <SCORE.RESTR.CAVITY>
0

>  <SCORE.RESTR.norm>
0

>  <SCORE.SYSTEM>
0

>  <SCORE.SYSTEM.CONST>
0

>  <SCORE.SYSTEM.DIHEDRAL>
0

>  <SCORE.SYSTEM.SOLV>
0

>  <SCORE.SYSTEM.norm>
0

>  <SCORE.heavy>
14

>  <SCORE.norm>
-0.849202

>  <RMSD>
68.685

$$$$
ligand
 OpenBabel11021811493D
libRbt.so/2013.1/901 2013/11/27
 14 13  0  0  0  0  0  0  0  0999 V2000
   19.4529   20.1392   57.5128 N   0  0  0  0  0  0  0  0  0  0  0  0
   19.1711   18.8787   56.8368 C   0  0  0  0  0  0  0  0  0  0  0  0
   18.0560   18.0997   57.5664 C   0  0  0  0  0  0  0  0  0  0  0  0
   17.7897   16.6869   57.0098 C   0  0  0  0  0  0  0  0  0  0  0  0
   17.4090   16.5601   55.5950 N   0  0  0  0  0  0  0  0  0  0  0  0
   16.1194   17.0651   55.1106 C   0  0  0  0  0  0  0  0  0  0  0  0
   15.5957   16.3951   53.8369 C   0  0  0  0  0  0  0  0  0  0  0  0
   15.2803   14.9027   54.0344 C   0  0  0  0  0  0  0  0  0  0  0  0
   16.5215   14.0307   54.2823 C   0  0  0  0  0  0  0  0  0  0  0  0
   16.2462   12.5988   54.4218 N   0  0  0  0  0  0  0  0  0  0  0  0
   17.2327   11.7358   55.0946 C   0  0  0  0  0  0  0  0  0  0  0  0
   16.7933   10.2873   55.4143 C   0  0  0  0  0  0  0  0  0  0  0  0
   17.7737    9.4617   56.2718 C   0  0  0  0  0  0  0  0  0  0  0  0
   17.2835    8.1186   56.5667 N   0  0  0  0  0  0  0  0  0  0  0  0
  1  2  1  0  0  0  0
  2  3  1  0  0  0  0
  3  4  1  0  0  0  0
  4  5  1  0  0  0  0
  5  6  1  0  0  0  0
  6  7  1  0  0  0  0
  7  8  1  0  0  0  0
  8  9  1  0  0  0  0
  9 10  1  0  0  0  0
 10 11  1  0  0  0  0
 11 12  1  0  0  0  0
 12 13  1  0  0  0  0
 13 14  1  0  0  0  0
M  END
>  <CHROM.1>
-173.95481289,-58.37808270,-67.66542839,-155.77561202,64.38708804,-67.72044593
-177.76931651,-159.51819603,170.45280051,-172.65094129,178.44290573,17.19446263
14.64014332,55.68230497,-1.37338353,0.82907627,3.11172242

>  <Name>
ligand

>  <RI>
0

>  <Rbt.Current_Directory>
/home/itssahil/PROJECTS/Mol_Feturizer/New_Systems/rnas/4E8Q

>  <Rbt.Executable>
rbdock ($Id: //depot/dev/client3/rdock/2013.1/src/exe/rbdock.cxx#4 $)

>  <Rbt.Library>
libRbt.so (2013.1, Build901 2013/11/27)

>  <Rbt.Parameter_File>
/export/apps/rDock/src/rDock_2013.1_src/data/scripts/dock_solv.prm

>  <Rbt.Receptor>
prm/blind_docking_100.prm

>  <SCORE>
-14.1304

>  <SCORE.INTER>
-2.23651

>  <SCORE.INTER.CONST>
1

>  <SCORE.INTER.POLAR>
0

>  <SCORE.INTER.ROT>
11

>  <SCORE.INTER.SOLV>
8.39202

>  <SCORE.INTER.VDW>
-15.2217

>  <SCORE.INTER.norm>
-0.159751

>  <SCORE.INTRA>
-11.8939

>  <SCORE.INTRA.DIHEDRAL>
-24.3693

>  <SCORE.INTRA.DIHEDRAL.0>
25.9209

>  <SCORE.INTRA.POLAR>
0

>  <SCORE.INTRA.POLAR.0>
0

>  <SCORE.INTRA.REPUL>
0

>  <SCORE.INTRA.REPUL.0>
0

>  <SCORE.INTRA.SOLV>
-0.775962

>  <SCORE.INTRA.SOLV.lig_0>
-47.4815

>  <SCORE.INTRA.VDW>
0.678726

>  <SCORE.INTRA.VDW.0>
-1.57492

>  <SCORE.INTRA.norm>
-0.849565

>  <SCORE.RESTR>
0

>  <SCORE.RESTR.CAVITY>
0

>  <SCORE.RESTR.norm>
0

>  <SCORE.SYSTEM>
0

>  <SCORE.SYSTEM.CONST>
0

>  <SCORE.SYSTEM.DIHEDRAL>
0

>  <SCORE.SYSTEM.SOLV>
0

>  <SCORE.SYSTEM.norm>
0

>  <SCORE.heavy>
14

>  <SCORE.norm>
-1.00932

>  <RMSD>
68.922

$$$$
ligand
 OpenBabel11021811493D
libRbt.so/2013.1/901 2013/11/27
 14 13  0  0  0  0  0  0  0  0999 V2000
    7.6377   14.9122   62.7697 N   0  0  0  0  0  0  0  0  0  0  0  0
    8.0891   15.0817   61.3939 C   0  0  0  0  0  0  0  0  0  0  0  0
    9.6152   15.3064   61.3388 C   0  0  0  0  0  0  0  0  0  0  0  0
   10.4597   14.0860   61.7562 C   0  0  0  0  0  0  0  0  0  0  0  0
   11.9143   14.2611   61.8840 N   0  0  0  0  0  0  0  0  0  0  0  0
   12.8261   13.1168   61.7757 C   0  0  0  0  0  0  0  0  0  0  0  0
   14.2296   13.3478   62.3433 C   0  0  0  0  0  0  0  0  0  0  0  0
   14.2343   13.5172   63.8721 C   0  0  0  0  0  0  0  0  0  0  0  0
   15.6364   13.7006   64.4747 C   0  0  0  0  0  0  0  0  0  0  0  0
   15.6785   13.7012   65.9389 N   0  0  0  0  0  0  0  0  0  0  0  0
   16.9827   13.7205   66.6239 C   0  0  0  0  0  0  0  0  0  0  0  0
   17.0228   13.1700   68.0692 C   0  0  0  0  0  0  0  0  0  0  0  0
   16.6293   11.6882   68.2347 C   0  0  0  0  0  0  0  0  0  0  0  0
   16.5597   11.2681   69.6312 N   0  0  0  0  0  0  0  0  0  0  0  0
  1  2  1  0  0  0  0
  2  3  1  0  0  0  0
  3  4  1  0  0  0  0
  4  5  1  0  0  0  0
  5  6  1  0  0  0  0
  6  7  1  0  0  0  0
  7  8  1  0  0  0  0
  8  9  1  0  0  0  0
  9 10  1  0  0  0  0
 10 11  1  0  0  0  0
 11 12  1  0  0  0  0
 12 13  1  0  0  0  0
 13 14  1  0  0  0  0
M  END
>  <CHROM.1>
67.38532036,-172.96948422,-156.85133012,-161.97371815,67.30486306,177.93750447
-172.95588720,173.31231678,-156.45798915,61.27493459,-174.30244678,13.39414412
13.63417685,64.29299865,2.42484771,0.13483079,-1.38359514

>  <Name>
ligand

>  <RI>
0

>  <Rbt.Current_Directory>
/home/itssahil/PROJECTS/Mol_Feturizer/New_Systems/rnas/4E8Q

>  <Rbt.Executable>
rbdock ($Id: //depot/dev/client3/rdock/2013.1/src/exe/rbdock.cxx#4 $)

>  <Rbt.Library>
libRbt.so (2013.1, Build901 2013/11/27)

>  <Rbt.Parameter_File>
/export/apps/rDock/src/rDock_2013.1_src/data/scripts/dock_solv.prm

>  <Rbt.Receptor>
prm/blind_docking_80.prm

>  <SCORE>
-14.877

>  <SCORE.INTER>
-2.77619

>  <SCORE.INTER.CONST>
1

>  <SCORE.INTER.POLAR>
0

>  <SCORE.INTER.ROT>
11

>  <SCORE.INTER.SOLV>
7.97223

>  <SCORE.INTER.VDW>
-15.4415

>  <SCORE.INTER.norm>
-0.198299

>  <SCORE.INTRA>
-12.1073

>  <SCORE.INTRA.DIHEDRAL>
-23.9266

>  <SCORE.INTRA.DIHEDRAL.0>
25.9209

>  <SCORE.INTRA.POLAR>
0

>  <SCORE.INTRA.POLAR.0>
0

>  <SCORE.INTRA.REPUL>
0

>  <SCORE.INTRA.REPUL.0>
0

>  <SCORE.INTRA.SOLV>
-0.842593

>  <SCORE.INTRA.SOLV.lig_0>
-47.4815

>  <SCORE.INTRA.VDW>
0.277315

>  <SCORE.INTRA.VDW.0>
-1.57492

>  <SCORE.INTRA.norm>
-0.864805

>  <SCORE.RESTR>
0.00646128

>  <SCORE.RESTR.CAVITY>
0.00646128

>  <SCORE.RESTR.norm>
0.00046152

>  <SCORE.SYSTEM>
0

>  <SCORE.SYSTEM.CONST>
0

>  <SCORE.SYSTEM.DIHEDRAL>
0

>  <SCORE.SYSTEM.SOLV>
0

>  <SCORE.SYSTEM.norm>
0

>  <SCORE.heavy>
14

>  <SCORE.norm>
-1.06264

>  <RMSD>
77.839

$$$$
ligand
 OpenBabel11021811493D
libRbt.so/2013.1/901 2013/11/27
 14 13  0  0  0  0  0  0  0  0999 V2000
   14.1161   12.6526   66.2756 N   0  0  0  0  0  0  0  0  0  0  0  0
   15.1655   13.6476   66.4596 C   0  0  0  0  0  0  0  0  0  0  0  0
   16.1214   13.6705   65.2479 C   0  0  0  0  0  0  0  0  0  0  0  0
   15.4789   14.1523   63.9319 C   0  0  0  0  0  0  0  0  0  0  0  0
   14.2924   13.4375   63.4380 N   0  0  0  0  0  0  0  0  0  0  0  0
   14.0064   13.3487   62.0017 C   0  0  0  0  0  0  0  0  0  0  0  0
   12.5553   13.0110   61.6472 C   0  0  0  0  0  0  0  0  0  0  0  0
   11.5671   14.1129   62.0660 C   0  0  0  0  0  0  0  0  0  0  0  0
   10.1311   13.8847   61.5676 C   0  0  0  0  0  0  0  0  0  0  0  0
    9.1701   14.9112   61.9777 N   0  0  0  0  0  0  0  0  0  0  0  0
    7.9037   15.0516   61.2381 C   0  0  0  0  0  0  0  0  0  0  0  0
    6.8239   15.9650   61.8653 C   0  0  0  0  0  0  0  0  0  0  0  0
    6.1474   15.4263   63.1421 C   0  0  0  0  0  0  0  0  0  0  0  0
    5.0885   16.2996   63.6395 N   0  0  0  0  0  0  0  0  0  0  0  0
  1  2  1  0  0  0  0
  2  3  1  0  0  0  0
  3  4  1  0  0  0  0
  4  5  1  0  0  0  0
  5  6  1  0  0  0  0
  6  7  1  0  0  0  0
  7  8  1  0  0  0  0
  8  9  1  0  0  0  0
  9 10  1  0  0  0  0
 10 11  1  0  0  0  0
 11 12  1  0  0  0  0
 12 13  1  0  0  0  0
 13 14  1  0  0  0  0
M  END
>  <CHROM.1>
66.16766980,-56.76565735,-150.08371239,-160.32351715,65.25700969,172.71595854
178.91656469,160.58564302,169.13631906,-70.42033543,-176.76770912,11.32653706
14.25508112,63.17817385,0.23012517,-0.27788645,1.45383243

>  <Name>
ligand

>  <RI>
0

>  <Rbt.Current_Directory>
/home/itssahil/PROJECTS/Mol_Feturizer/New_Systems/rnas/4E8Q

>  <Rbt.Executable>
rbdock ($Id: //depot/dev/client3/rdock/2013.1/src/exe/rbdock.cxx#4 $)

>  <Rbt.Library>
libRbt.so (2013.1, Build901 2013/11/27)

>  <Rbt.Parameter_File>
/export/apps/rDock/src/rDock_2013.1_src/data/scripts/dock_solv.prm

>  <Rbt.Receptor>
prm/blind_docking_80.prm

>  <SCORE>
-14.7538

>  <SCORE.INTER>
-3.58248

>  <SCORE.INTER.CONST>
1

>  <SCORE.INTER.POLAR>
0

>  <SCORE.INTER.ROT>
11

>  <SCORE.INTER.SOLV>
5.6756

>  <SCORE.INTER.VDW>
-15.2135

>  <SCORE.INTER.norm>
-0.255891

>  <SCORE.INTRA>
-11.1713

>  <SCORE.INTRA.DIHEDRAL>
-23.7031

>  <SCORE.INTRA.DIHEDRAL.0>
25.9209

>  <SCORE.INTRA.POLAR>
0

>  <SCORE.INTRA.POLAR.0>
0

>  <SCORE.INTRA.REPUL>
0

>  <SCORE.INTRA.REPUL.0>
0

>  <SCORE.INTRA.SOLV>
1.147

>  <SCORE.INTRA.SOLV.lig_0>
-47.4815

>  <SCORE.INTRA.VDW>
0.106762

>  <SCORE.INTRA.VDW.0>
-1.57492

>  <SCORE.INTRA.norm>
-0.797949

>  <SCORE.RESTR>
0

>  <SCORE.RESTR.CAVITY>
0

>  <SCORE.RESTR.norm>
0

>  <SCORE.SYSTEM>
0

>  <SCORE.SYSTEM.CONST>
0

>  <SCORE.SYSTEM.DIHEDRAL>
0

>  <SCORE.SYSTEM.SOLV>
0

>  <SCORE.SYSTEM.norm>
0

>  <SCORE.heavy>
14

>  <SCORE.norm>
-1.05384

>  <RMSD>
78.122

$$$$
ligand
 OpenBabel11021811493D
libRbt.so/2013.1/901 2013/11/27
 14 13  0  0  0  0  0  0  0  0999 V2000
    6.6281   16.2491   63.9907 N   0  0  0  0  0  0  0  0  0  0  0  0
    5.6787   15.8044   62.9777 C   0  0  0  0  0  0  0  0  0  0  0  0
    6.2290   16.0578   61.5580 C   0  0  0  0  0  0  0  0  0  0  0  0
    7.4885   15.2430   61.2025 C   0  0  0  0  0  0  0  0  0  0  0  0
    8.6977   15.4472   62.0141 N   0  0  0  0  0  0  0  0  0  0  0  0
    9.9538   14.7644   61.6847 C   0  0  0  0  0  0  0  0  0  0  0  0
   11.1039   15.0095   62.6659 C   0  0  0  0  0  0  0  0  0  0  0  0
   12.3418   14.1491   62.3607 C   0  0  0  0  0  0  0  0  0  0  0  0
   13.4668   14.2849   63.3992 C   0  0  0  0  0  0  0  0  0  0  0  0
   14.6969   13.5619   63.0678 N   0  0  0  0  0  0  0  0  0  0  0  0
   15.9368   13.8724   63.8005 C   0  0  0  0  0  0  0  0  0  0  0  0
   15.9392   13.5945   65.3224 C   0  0  0  0  0  0  0  0  0  0  0  0
   15.6767   12.1331   65.7388 C   0  0  0  0  0  0  0  0  0  0  0  0
   15.6734   11.9433   67.1864 N   0  0  0  0  0  0  0  0  0  0  0  0
  1  2  1  0  0  0  0
  2  3  1  0  0  0  0
  3  4  1  0  0  0  0
  4  5  1  0  0  0  0
  5  6  1  0  0  0  0
  6  7  1  0  0  0  0
  7  8  1  0  0  0  0
  8  9  1  0  0  0  0
  9 10  1  0  0  0  0
 10 11  1  0  0  0  0
 11 12  1  0  0  0  0
 12 13  1  0  0  0  0
 13 14  1  0  0  0  0
M  END
>  <CHROM.1>
64.97320121,-61.06881499,-176.41532108,-176.54813597,173.56499653,-175.02261175
-175.07416260,165.23538440,62.85956538,59.62524579,-179.17606513,11.39365169
14.43680948,63.35467054,2.77566736,0.23106412,-1.33844595

>  <Name>
ligand

>  <RI>
0

>  <Rbt.Current_Directory>
/home/itssahil/PROJECTS/Mol_Feturizer/New_Systems/rnas/4E8Q

>  <Rbt.Executable>
rbdock ($Id: //depot/dev/client3/rdock/2013.1/src/exe/rbdock.cxx#4 $)

>  <Rbt.Library>
libRbt.so (2013.1, Build901 2013/11/27)

>  <Rbt.Parameter_File>
/export/apps/rDock/src/rDock_2013.1_src/data/scripts/dock_solv.prm

>  <Rbt.Receptor>
prm/blind_docking_80.prm

>  <SCORE>
-12.8075

>  <SCORE.INTER>
-1.02061

>  <SCORE.INTER.CONST>
1

>  <SCORE.INTER.POLAR>
0

>  <SCORE.INTER.ROT>
11

>  <SCORE.INTER.SOLV>
5.64944

>  <SCORE.INTER.VDW>
-13.4969

>  <SCORE.INTER.norm>
-0.072901

>  <SCORE.INTRA>
-11.7869

>  <SCORE.INTRA.DIHEDRAL>
-25.2731

>  <SCORE.INTRA.DIHEDRAL.0>
25.9209

>  <SCORE.INTRA.POLAR>
0

>  <SCORE.INTRA.POLAR.0>
0

>  <SCORE.INTRA.REPUL>
0

>  <SCORE.INTRA.REPUL.0>
0

>  <SCORE.INTRA.SOLV>
0.888654

>  <SCORE.INTRA.SOLV.lig_0>
-47.4815

>  <SCORE.INTRA.VDW>
0.405308

>  <SCORE.INTRA.VDW.0>
-1.57492

>  <SCORE.INTRA.norm>
-0.841921

>  <SCORE.RESTR>
0

>  <SCORE.RESTR.CAVITY>
0

>  <SCORE.RESTR.norm>
0

>  <SCORE.SYSTEM>
0

>  <SCORE.SYSTEM.CONST>
0

>  <SCORE.SYSTEM.DIHEDRAL>
0

>  <SCORE.SYSTEM.SOLV>
0

>  <SCORE.SYSTEM.norm>
0

>  <SCORE.heavy>
14

>  <SCORE.norm>
-0.914822

>  <RMSD>
78.249

$$$$
ligand
 OpenBabel11021811493D
libRbt.so/2013.1/901 2013/11/27
 14 13  0  0  0  0  0  0  0  0999 V2000
   14.9096   13.6408   65.2895 N   0  0  0  0  0  0  0  0  0  0  0  0
   14.3114   14.1366   64.0559 C   0  0  0  0  0  0  0  0  0  0  0  0
   14.2018   13.0108   63.0057 C   0  0  0  0  0  0  0  0  0  0  0  0
   13.5798   13.4432   61.6630 C   0  0  0  0  0  0  0  0  0  0  0  0
   12.1714   13.8667   61.6564 N   0  0  0  0  0  0  0  0  0  0  0  0
   11.7492   15.0994   62.3307 C   0  0  0  0  0  0  0  0  0  0  0  0
   10.2414   15.2286   62.5653 C   0  0  0  0  0  0  0  0  0  0  0  0
    9.4461   15.3900   61.2586 C   0  0  0  0  0  0  0  0  0  0  0  0
    7.9459   15.0869   61.4003 C   0  0  0  0  0  0  0  0  0  0  0  0
    7.2655   15.8415   62.4553 N   0  0  0  0  0  0  0  0  0  0  0  0
    6.1112   15.2391   63.1446 C   0  0  0  0  0  0  0  0  0  0  0  0
    6.3127   13.8276   63.7453 C   0  0  0  0  0  0  0  0  0  0  0  0
    7.5520   13.6516   64.6459 C   0  0  0  0  0  0  0  0  0  0  0  0
    7.7653   12.2679   65.0601 N   0  0  0  0  0  0  0  0  0  0  0  0
  1  2  1  0  0  0  0
  2  3  1  0  0  0  0
  3  4  1  0  0  0  0
  4  5  1  0  0  0  0
  5  6  1  0  0  0  0
  6  7  1  0  0  0  0
  7  8  1  0  0  0  0
  8  9  1  0  0  0  0
  9 10  1  0  0  0  0
 10 11  1  0  0  0  0
 11 12  1  0  0  0  0
 12 13  1  0  0  0  0
 13 14  1  0  0  0  0
M  END
>  <CHROM.1>
-179.94926949,-65.28769021,67.34135986,-164.50168414,-67.59360683,161.97827993
54.05864362,-149.68907958,52.53244520,50.83388684,-173.67538721,10.25441430
14.26662418,63.01950972,0.07368981,-0.09253420,2.10785164

>  <Name>
ligand

>  <RI>
0

>  <Rbt.Current_Directory>
/home/itssahil/PROJECTS/Mol_Feturizer/New_Systems/rnas/4E8Q

>  <Rbt.Executable>
rbdock ($Id: //depot/dev/client3/rdock/2013.1/src/exe/rbdock.cxx#4 $)

>  <Rbt.Library>
libRbt.so (2013.1, Build901 2013/11/27)

>  <Rbt.Parameter_File>
/export/apps/rDock/src/rDock_2013.1_src/data/scripts/dock_solv.prm

>  <Rbt.Receptor>
prm/blind_docking_80.prm

>  <SCORE>
-11.3902

>  <SCORE.INTER>
-0.427253

>  <SCORE.INTER.CONST>
1

>  <SCORE.INTER.POLAR>
0

>  <SCORE.INTER.ROT>
11

>  <SCORE.INTER.SOLV>
9.72734

>  <SCORE.INTER.VDW>
-14.4606

>  <SCORE.INTER.norm>
-0.0305181

>  <SCORE.INTRA>
-10.9629

>  <SCORE.INTRA.DIHEDRAL>
-22.8563

>  <SCORE.INTRA.DIHEDRAL.0>
25.9209

>  <SCORE.INTRA.POLAR>
0

>  <SCORE.INTRA.POLAR.0>
0

>  <SCORE.INTRA.REPUL>
0

>  <SCORE.INTRA.REPUL.0>
0

>  <SCORE.INTRA.SOLV>
-0.485165

>  <SCORE.INTRA.SOLV.lig_0>
-47.4815

>  <SCORE.INTRA.VDW>
0.707771

>  <SCORE.INTRA.VDW.0>
-1.57492

>  <SCORE.INTRA.norm>
-0.783067

>  <SCORE.RESTR>
0

>  <SCORE.RESTR.CAVITY>
0

>  <SCORE.RESTR.norm>
0

>  <SCORE.SYSTEM>
0

>  <SCORE.SYSTEM.CONST>
0

>  <SCORE.SYSTEM.DIHEDRAL>
0

>  <SCORE.SYSTEM.SOLV>
0

>  <SCORE.SYSTEM.norm>
0

>  <SCORE.heavy>
14

>  <SCORE.norm>
-0.813585

>  <RMSD>
78.580

$$$$
ligand
 OpenBabel11021811493D
libRbt.so/2013.1/901 2013/11/27
 14 13  0  0  0  0  0  0  0  0999 V2000
    4.5265   17.9288   63.3257 N   0  0  0  0  0  0  0  0  0  0  0  0
    5.0391   16.5855   63.5666 C   0  0  0  0  0  0  0  0  0  0  0  0
    4.9830   15.7355   62.2795 C   0  0  0  0  0  0  0  0  0  0  0  0
    5.9062   16.2248   61.1459 C   0  0  0  0  0  0  0  0  0  0  0  0
    7.3562   16.2400   61.3912 N   0  0  0  0  0  0  0  0  0  0  0  0
    8.1486   15.0074   61.3173 C   0  0  0  0  0  0  0  0  0  0  0  0
    9.6435   15.1773   61.6034 C   0  0  0  0  0  0  0  0  0  0  0  0
   10.4306   13.8633   61.4634 C   0  0  0  0  0  0  0  0  0  0  0  0
   11.9038   13.9706   61.8887 C   0  0  0  0  0  0  0  0  0  0  0  0
   12.1144   14.1529   63.3267 N   0  0  0  0  0  0  0  0  0  0  0  0
   13.4604   14.4884   63.8228 C   0  0  0  0  0  0  0  0  0  0  0  0
   14.6155   13.5480   63.4045 C   0  0  0  0  0  0  0  0  0  0  0  0
   16.0078   13.9045   63.9635 C   0  0  0  0  0  0  0  0  0  0  0  0
   16.0920   13.7712   65.4149 N   0  0  0  0  0  0  0  0  0  0  0  0
  1  2  1  0  0  0  0
  2  3  1  0  0  0  0
  3  4  1  0  0  0  0
  4  5  1  0  0  0  0
  5  6  1  0  0  0  0
  6  7  1  0  0  0  0
  7  8  1  0  0  0  0
  8  9  1  0  0  0  0
  9 10  1  0  0  0  0
 10 11  1  0  0  0  0
 11 12  1  0  0  0  0
 12 13  1  0  0  0  0
 13 14  1  0  0  0  0
M  END
>  <CHROM.1>
65.50330773,61.96995418,78.63211994,-179.70152776,-177.98184179,-173.84580831
69.42999713,-170.01488524,-54.10492677,-178.67535159,65.71542426,10.01625090
15.04251879,62.70787356,3.09299017,0.31909497,-1.96700205

>  <Name>
ligand

>  <RI>
0

>  <Rbt.Current_Directory>
/home/itssahil/PROJECTS/Mol_Feturizer/New_Systems/rnas/4E8Q

>  <Rbt.Executable>
rbdock ($Id: //depot/dev/client3/rdock/2013.1/src/exe/rbdock.cxx#4 $)

>  <Rbt.Library>
libRbt.so (2013.1, Build901 2013/11/27)

>  <Rbt.Parameter_File>
/export/apps/rDock/src/rDock_2013.1_src/data/scripts/dock_solv.prm

>  <Rbt.Receptor>
prm/blind_docking_100.prm

>  <SCORE>
-14.494

>  <SCORE.INTER>
-3.08383

>  <SCORE.INTER.CONST>
1

>  <SCORE.INTER.POLAR>
0

>  <SCORE.INTER.ROT>
11

>  <SCORE.INTER.SOLV>
8.19745

>  <SCORE.INTER.VDW>
-15.7217

>  <SCORE.INTER.norm>
-0.220274

>  <SCORE.INTRA>
-11.4102

>  <SCORE.INTRA.DIHEDRAL>
-24.7884

>  <SCORE.INTRA.DIHEDRAL.0>
25.9209

>  <SCORE.INTRA.POLAR>
0

>  <SCORE.INTRA.POLAR.0>
0

>  <SCORE.INTRA.REPUL>
0

>  <SCORE.INTRA.REPUL.0>
0

>  <SCORE.INTRA.SOLV>
0.407072

>  <SCORE.INTRA.SOLV.lig_0>
-47.4815

>  <SCORE.INTRA.VDW>
0.780486

>  <SCORE.INTRA.VDW.0>
-1.57492

>  <SCORE.INTRA.norm>
-0.815014

>  <SCORE.RESTR>
0

>  <SCORE.RESTR.CAVITY>
0

>  <SCORE.RESTR.norm>
0

>  <SCORE.SYSTEM>
0

>  <SCORE.SYSTEM.CONST>
0

>  <SCORE.SYSTEM.DIHEDRAL>
0

>  <SCORE.SYSTEM.SOLV>
0

>  <SCORE.SYSTEM.norm>
0

>  <SCORE.heavy>
14

>  <SCORE.norm>
-1.03529

>  <RMSD>
78.581

$$$$
ligand
 OpenBabel11021811493D
libRbt.so/2013.1/901 2013/11/27
 14 13  0  0  0  0  0  0  0  0999 V2000
   16.1087   12.4152   66.1029 N   0  0  0  0  0  0  0  0  0  0  0  0
   16.2117   13.7859   65.6174 C   0  0  0  0  0  0  0  0  0  0  0  0
   15.8621   13.8663   64.1162 C   0  0  0  0  0  0  0  0  0  0  0  0
   14.4320   13.4105   63.7644 C   0  0  0  0  0  0  0  0  0  0  0  0
   14.0571   13.3397   62.3441 N   0  0  0  0  0  0  0  0  0  0  0  0
   12.7596   12.7936   61.9307 C   0  0  0  0  0  0  0  0  0  0  0  0
   11.6766   13.8376   61.6431 C   0  0  0  0  0  0  0  0  0  0  0  0
   11.4506   14.8023   62.8196 C   0  0  0  0  0  0  0  0  0  0  0  0
   10.4013   15.8903   62.5410 C   0  0  0  0  0  0  0  0  0  0  0  0
   10.1590   16.8078   63.6568 N   0  0  0  0  0  0  0  0  0  0  0  0
    9.5103   16.3028   64.8793 C   0  0  0  0  0  0  0  0  0  0  0  0
    9.0974   17.3528   65.9379 C   0  0  0  0  0  0  0  0  0  0  0  0
    7.9362   18.2865   65.5405 C   0  0  0  0  0  0  0  0  0  0  0  0
    8.2301   19.0930   64.3595 N   0  0  0  0  0  0  0  0  0  0  0  0
  1  2  1  0  0  0  0
  2  3  1  0  0  0  0
  3  4  1  0  0  0  0
  4  5  1  0  0  0  0
  5  6  1  0  0  0  0
  6  7  1  0  0  0  0
  7  8  1  0  0  0  0
  8  9  1  0  0  0  0
  9 10  1  0  0  0  0
 10 11  1  0  0  0  0
 11 12  1  0  0  0  0
 12 13  1  0  0  0  0
 13 14  1  0  0  0  0
M  END
>  <CHROM.1>
60.65180541,-174.56597856,174.10827617,98.14918117,-54.58765916,178.07500428
179.20763601,-67.92786100,-171.45848519,69.05133460,-60.90667538,11.99227456
15.14163254,63.94659793,-0.32227489,-0.53746817,1.10226469

>  <Name>
ligand

>  <RI>
0

>  <Rbt.Current_Directory>
/home/itssahil/PROJECTS/Mol_Feturizer/New_Systems/rnas/4E8Q

>  <Rbt.Executable>
rbdock ($Id: //depot/dev/client3/rdock/2013.1/src/exe/rbdock.cxx#4 $)

>  <Rbt.Library>
libRbt.so (2013.1, Build901 2013/11/27)

>  <Rbt.Parameter_File>
/export/apps/rDock/src/rDock_2013.1_src/data/scripts/dock_solv.prm

>  <Rbt.Receptor>
prm/blind_docking_100.prm

>  <SCORE>
-12.2984

>  <SCORE.INTER>
-1.51865

>  <SCORE.INTER.CONST>
1

>  <SCORE.INTER.POLAR>
0

>  <SCORE.INTER.ROT>
11

>  <SCORE.INTER.SOLV>
8.47963

>  <SCORE.INTER.VDW>
-14.7723

>  <SCORE.INTER.norm>
-0.108475

>  <SCORE.INTRA>
-10.7798

>  <SCORE.INTRA.DIHEDRAL>
-24.3864

>  <SCORE.INTRA.DIHEDRAL.0>
25.9209

>  <SCORE.INTRA.POLAR>
0

>  <SCORE.INTRA.POLAR.0>
0

>  <SCORE.INTRA.REPUL>
0

>  <SCORE.INTRA.REPUL.0>
0

>  <SCORE.INTRA.SOLV>
1.62321

>  <SCORE.INTRA.SOLV.lig_0>
-47.4815

>  <SCORE.INTRA.VDW>
0.60184

>  <SCORE.INTRA.VDW.0>
-1.57492

>  <SCORE.INTRA.norm>
-0.769983

>  <SCORE.RESTR>
0

>  <SCORE.RESTR.CAVITY>
0

>  <SCORE.RESTR.norm>
0

>  <SCORE.SYSTEM>
0

>  <SCORE.SYSTEM.CONST>
0

>  <SCORE.SYSTEM.DIHEDRAL>
0

>  <SCORE.SYSTEM.SOLV>
0

>  <SCORE.SYSTEM.norm>
0

>  <SCORE.heavy>
14

>  <SCORE.norm>
-0.878458

>  <RMSD>
78.602

$$$$
ligand
 OpenBabel11021811493D
libRbt.so/2013.1/901 2013/11/27
 14 13  0  0  0  0  0  0  0  0999 V2000
    4.8693   14.7021   63.3996 N   0  0  0  0  0  0  0  0  0  0  0  0
    6.2607   14.3928   63.7056 C   0  0  0  0  0  0  0  0  0  0  0  0
    7.2165   15.2838   62.8841 C   0  0  0  0  0  0  0  0  0  0  0  0
    8.7147   15.0122   63.1258 C   0  0  0  0  0  0  0  0  0  0  0  0
    9.6936   15.8701   62.4413 N   0  0  0  0  0  0  0  0  0  0  0  0
   11.1281   15.7590   62.7287 C   0  0  0  0  0  0  0  0  0  0  0  0
   11.5210   16.0160   64.1865 C   0  0  0  0  0  0  0  0  0  0  0  0
   13.0413   15.9606   64.4130 C   0  0  0  0  0  0  0  0  0  0  0  0
   13.6488   14.5610   64.2270 C   0  0  0  0  0  0  0  0  0  0  0  0
   15.1117   14.5323   64.1584 N   0  0  0  0  0  0  0  0  0  0  0  0
   15.8470   13.4667   64.8614 C   0  0  0  0  0  0  0  0  0  0  0  0
   16.1919   13.7175   66.3485 C   0  0  0  0  0  0  0  0  0  0  0  0
   17.0705   12.6455   67.0243 C   0  0  0  0  0  0  0  0  0  0  0  0
   17.4216   12.9795   68.4015 N   0  0  0  0  0  0  0  0  0  0  0  0
  1  2  1  0  0  0  0
  2  3  1  0  0  0  0
  3  4  1  0  0  0  0
  4  5  1  0  0  0  0
  5  6  1  0  0  0  0
  6  7  1  0  0  0  0
  7  8  1  0  0  0  0
  8  9  1  0  0  0  0
  9 10  1  0  0  0  0
 10 11  1  0  0  0  0
 11 12  1  0  0  0  0
 12 13  1  0  0  0  0
 13 14  1  0  0  0  0
M  END
>  <CHROM.1>
-179.09045753,-176.51951177,173.72362896,-59.54892899,-176.90789264,-67.39445123
167.73746470,138.52088608,-86.49307872,-174.67227831,176.71894218,11.98126883
14.63568178,64.42176659,2.77709546,-0.07748982,-0.91296930

>  <Name>
ligand

>  <RI>
0

>  <Rbt.Current_Directory>
/home/itssahil/PROJECTS/Mol_Feturizer/New_Systems/rnas/4E8Q

>  <Rbt.Executable>
rbdock ($Id: //depot/dev/client3/rdock/2013.1/src/exe/rbdock.cxx#4 $)

>  <Rbt.Library>
libRbt.so (2013.1, Build901 2013/11/27)

>  <Rbt.Parameter_File>
/export/apps/rDock/src/rDock_2013.1_src/data/scripts/dock_solv.prm

>  <Rbt.Receptor>
prm/blind_docking_80.prm

>  <SCORE>
-10.9162

>  <SCORE.INTER>
0.713339

>  <SCORE.INTER.CONST>
1

>  <SCORE.INTER.POLAR>
0

>  <SCORE.INTER.ROT>
11

>  <SCORE.INTER.SOLV>
8.57261

>  <SCORE.INTER.VDW>
-13.3153

>  <SCORE.INTER.norm>
0.0509528

>  <SCORE.INTRA>
-11.6295

>  <SCORE.INTRA.DIHEDRAL>
-23.4505

>  <SCORE.INTRA.DIHEDRAL.0>
25.9209

>  <SCORE.INTRA.POLAR>
0

>  <SCORE.INTRA.POLAR.0>
0

>  <SCORE.INTRA.REPUL>
0

>  <SCORE.INTRA.REPUL.0>
0

>  <SCORE.INTRA.SOLV>
-1.94108

>  <SCORE.INTRA.SOLV.lig_0>
-47.4815

>  <SCORE.INTRA.VDW>
1.06627

>  <SCORE.INTRA.VDW.0>
-1.57492

>  <SCORE.INTRA.norm>
-0.83068

>  <SCORE.RESTR>
0

>  <SCORE.RESTR.CAVITY>
0

>  <SCORE.RESTR.norm>
0

>  <SCORE.SYSTEM>
0

>  <SCORE.SYSTEM.CONST>
0

>  <SCORE.SYSTEM.DIHEDRAL>
0

>  <SCORE.SYSTEM.SOLV>
0

>  <SCORE.SYSTEM.norm>
0

>  <SCORE.heavy>
14

>  <SCORE.norm>
-0.779727

>  <RMSD>
78.841

$$$$
ligand
 OpenBabel11021811493D
libRbt.so/2013.1/901 2013/11/27
 14 13  0  0  0  0  0  0  0  0999 V2000
    1.5896   17.6695   64.8131 N   0  0  0  0  0  0  0  0  0  0  0  0
    1.8226   18.5460   63.6718 C   0  0  0  0  0  0  0  0  0  0  0  0
    3.2684   18.4000   63.1513 C   0  0  0  0  0  0  0  0  0  0  0  0
    3.6187   19.3167   61.9623 C   0  0  0  0  0  0  0  0  0  0  0  0
    4.9551   19.1919   61.3614 N   0  0  0  0  0  0  0  0  0  0  0  0
    5.2528   18.1306   60.3931 C   0  0  0  0  0  0  0  0  0  0  0  0
    5.2820   16.7126   60.9710 C   0  0  0  0  0  0  0  0  0  0  0  0
    6.3181   16.5482   62.0959 C   0  0  0  0  0  0  0  0  0  0  0  0
    6.2808   15.1731   62.7818 C   0  0  0  0  0  0  0  0  0  0  0  0
    7.2829   14.9858   63.8334 N   0  0  0  0  0  0  0  0  0  0  0  0
    7.6383   13.6204   64.2575 C   0  0  0  0  0  0  0  0  0  0  0  0
    8.7383   13.4864   65.3372 C   0  0  0  0  0  0  0  0  0  0  0  0
    9.1667   12.0463   65.6845 C   0  0  0  0  0  0  0  0  0  0  0  0
    9.7909   11.3498   64.5635 N   0  0  0  0  0  0  0  0  0  0  0  0
  1  2  1  0  0  0  0
  2  3  1  0  0  0  0
  3  4  1  0  0  0  0
  4  5  1  0  0  0  0
  5  6  1  0  0  0  0
  6  7  1  0  0  0  0
  7  8  1  0  0  0  0
  8  9  1  0  0  0  0
  9 10  1  0  0  0  0
 10 11  1  0  0  0  0
 11 12  1  0  0  0  0
 12 13  1  0  0  0  0
 13 14  1  0  0  0  0
M  END
>  <CHROM.1>
-178.59166655,-176.95019382,81.03064173,-69.07710916,-58.71722523,174.69002126
178.53837270,-160.58037065,177.93278313,-175.50460258,64.16600498,5.78603147
16.08421947,63.20536928,2.46057526,0.56705674,-0.96269523

>  <Name>
ligand

>  <RI>
0

>  <Rbt.Current_Directory>
/home/itssahil/PROJECTS/Mol_Feturizer/New_Systems/rnas/4E8Q

>  <Rbt.Executable>
rbdock ($Id: //depot/dev/client3/rdock/2013.1/src/exe/rbdock.cxx#4 $)

>  <Rbt.Library>
libRbt.so (2013.1, Build901 2013/11/27)

>  <Rbt.Parameter_File>
/export/apps/rDock/src/rDock_2013.1_src/data/scripts/dock_solv.prm

>  <Rbt.Receptor>
prm/blind_docking_80.prm

>  <SCORE>
-12.1947

>  <SCORE.INTER>
0.390582

>  <SCORE.INTER.CONST>
1

>  <SCORE.INTER.POLAR>
0

>  <SCORE.INTER.ROT>
11

>  <SCORE.INTER.SOLV>
7.44049

>  <SCORE.INTER.VDW>
-13.1531

>  <SCORE.INTER.norm>
0.0278987

>  <SCORE.INTRA>
-12.5853

>  <SCORE.INTRA.DIHEDRAL>
-24.9221

>  <SCORE.INTRA.DIHEDRAL.0>
25.9209

>  <SCORE.INTRA.POLAR>
0

>  <SCORE.INTRA.POLAR.0>
0

>  <SCORE.INTRA.REPUL>
0

>  <SCORE.INTRA.REPUL.0>
0

>  <SCORE.INTRA.SOLV>
-1.08755

>  <SCORE.INTRA.SOLV.lig_0>
-47.4815

>  <SCORE.INTRA.VDW>
0.419592

>  <SCORE.INTRA.VDW.0>
-1.57492

>  <SCORE.INTRA.norm>
-0.898947

>  <SCORE.RESTR>
0

>  <SCORE.RESTR.CAVITY>
0

>  <SCORE.RESTR.norm>
0

>  <SCORE.SYSTEM>
0

>  <SCORE.SYSTEM.CONST>
0

>  <SCORE.SYSTEM.DIHEDRAL>
0

>  <SCORE.SYSTEM.SOLV>
0

>  <SCORE.SYSTEM.norm>
0

>  <SCORE.heavy>
14

>  <SCORE.norm>
-0.871048

>  <RMSD>
81.565

$$$$
