@<TRIPOS>MOLECULE
4E8Q_rdock.pdb
 8412 9427 0 0 0
SMALL
GASTEIGER

@<TRIPOS>ATOM
      1  C5'       48.8550   17.9920   25.1330 C.3    -2  G-2         0.2141
      2  O5'       48.1030   17.3870   26.2050 O.3    -2  G-2        -0.2176
      3  C4'       48.1320   17.8490   23.8070 C.3    -2  G-2         0.1803
      4  O4'       48.0360   16.4450   23.4330 O.3    -2  G-2        -0.3306
      5  C3'       46.6940   18.3470   23.7520 C.3    -2  G-2         0.1877
      6  O3'       46.5810   19.7590   23.5900 O.3    -2  G-2        -0.2939
      7  C2'       46.1420   17.5790   22.5530 C.3    -2  G-2         0.2309
      8  O2'       46.3930   18.1730   21.2950 O.3    -2  G-2        -0.2156
      9  C1'       46.8250   16.2170   22.7210 C.3    -2  G-2         0.2408
     10  N1        42.6780   13.2720   22.7350 N.ar   -2  G-2        -0.1709
     11  C2        43.2080   14.0220   21.7140 C.ar   -2  G-2         0.2606
     12  N2        42.5440   13.9880   20.5480 N.pl3  -2  G-2        -0.0859
     13  N3        44.3100   14.7490   21.8260 N.ar   -2  G-2        -0.1918
     14  C4        44.8510   14.6610   23.0620 C.ar   -2  G-2         0.1723
     15  C5        44.4000   13.9410   24.1500 C.ar   -2  G-2         0.1748
     16  C6        43.2150   13.1680   24.0160 C.ar   -2  G-2         0.3023
     17  O6        42.6540   12.4630   24.8640 O.2    -2  G-2        -0.2633
     18  N7        45.2370   14.1220   25.2430 N.ar   -2  G-2        -0.2173
     19  C8        46.1640   14.9330   24.8090 C.ar   -2  G-2         0.1817
     20  N9        45.9990   15.2880   23.4910 N.ar   -2  G-2        -0.2693
     21  P         45.4400   20.5740   24.3780 P.3    -1  G-1         0.3662
     22  C5'       43.4360   20.6520   22.6410 C.3    -1  G-1         0.1828
     23  O5'       44.0680   20.0280   23.7780 O.3    -1  G-1        -0.2941
     24  C4'       42.3940   19.7270   22.0560 C.3    -1  G-1         0.1753
     25  O4'       43.0580   18.5500   21.5170 O.3    -1  G-1        -0.3483
     26  C3'       41.3480   19.2040   23.0390 C.3    -1  G-1         0.1839
     27  O3'       40.1760   20.0190   23.0730 O.3    -1  G-1        -0.3113
     28  C2'       41.0810   17.7890   22.5300 C.3    -1  G-1         0.2112
     29  O2'       40.1950   17.6690   21.4390 O.3    -1  G-1        -0.2177
     30  C1'       42.4700   17.3800   22.0540 C.3    -1  G-1         0.1776
     31  OP1       45.5640   22.0090   24.0130 O.3    -1  G-1        -0.1446
     32  P         39.8810   21.0380   24.2900 P.3     0  G0          0.2141
     33  C5'       37.3860   20.6940   25.1220 C.3     0  G0          0.1812
     34  O5'       38.3080   21.2820   24.1800 O.3     0  G0         -0.3114
     35  C4'       36.5870   19.5960   24.4560 C.3     0  G0          0.1773
     36  O4'       37.4350   18.4340   24.2400 O.3     0  G0         -0.3307
     37  C3'       35.4140   19.0370   25.2480 C.3     0  G0          0.1860
     38  O3'       34.2820   19.9190   25.2690 O.3     0  G0         -0.3112
     39  C2'       35.1990   17.6870   24.5610 C.3     0  G0          0.2309
     40  O2'       34.4460   17.7180   23.3630 O.3     0  G0         -0.2156
     41  C1'       36.6450   17.2530   24.2760 C.3     0  G0          0.2408
     42  N1        40.7340   15.6610   26.9130 N.ar    0  G0         -0.1709
     43  C2        40.6600   16.6290   25.9450 C.ar    0  G0          0.2606
     44  N2        41.8120   17.2460   25.6450 N.pl3   0  G0         -0.0859
     45  N3        39.5410   16.9640   25.3150 N.ar    0  G0         -0.1918
     46  C4        38.4830   16.2410   25.7450 C.ar    0  G0          0.1723
     47  C5        38.4530   15.2540   26.7080 C.ar    0  G0          0.1748
     48  C6        39.6610   14.9060   27.3730 C.ar    0  G0          0.3023
     49  O6        39.8400   14.0600   28.2550 O.2     0  G0         -0.2633
     50  N7        37.1680   14.7510   26.8580 N.ar    0  G0         -0.2173
     51  C8        36.4520   15.4240   26.0000 C.ar    0  G0          0.1817
     52  N9        37.1830   16.3490   25.2940 N.ar    0  G0         -0.2693
     53  OP1       40.5790   22.3020   23.9500 O.2     0  G0         -0.5172
     54  OP2       40.1600   20.3920   25.6010 O.co2   0  G0         -0.4373
     55  P         33.7590   20.7410   26.5740 P.3     1  G1          0.2141
     56  C5'       31.2930   21.6150   26.9750 C.3     1  G1          0.1811
     57  O5'       32.1780   20.6320   26.4080 O.3     1  G1         -0.3114
     58  C4'       30.0710   21.7880   26.0970 C.3     1  G1          0.1752
     59  O4'       29.8020   20.5450   25.3850 O.3     1  G1         -0.3483
     60  C3'       28.7800   22.1360   26.8350 C.3     1  G1          0.1839
     61  O3'       27.9430   23.0720   26.1240 O.3     1  G1         -0.3113
     62  C2'       28.1680   20.7620   27.0820 C.3     1  G1          0.2112
     63  O2'       26.7690   20.7940   27.1440 O.3     1  G1         -0.2177
     64  C1'       28.5620   20.0130   25.8090 C.3     1  G1          0.1776
     65  OP1       34.1560   22.1730   26.4490 O.2     1  G1         -0.5172
     66  OP2       34.0910   19.9940   27.8190 O.co2   1  G1         -0.4373
     67  P         27.5900   24.5750   26.6680 P.3     2  U2          0.2141
     68  C5'       27.6740   24.6830   29.3180 C.3     2  U2          0.1812
     69  O5'       27.1130   24.1270   28.1250 O.3     2  U2         -0.3114
     70  C4'       26.7090   25.6910   29.8800 C.3     2  U2          0.1773
     71  O4'       27.3590   26.4690   30.9330 O.3     2  U2         -0.3307
     72  C3'       26.1790   26.7150   28.8760 C.3     2  U2          0.1860
     73  O3'       24.8320   27.0130   29.2330 O.3     2  U2         -0.3112
     74  C2'       27.0380   27.9400   29.1950 C.3     2  U2          0.2309
     75  O2'       26.5520   29.1600   28.6690 O.3     2  U2         -0.2156
     76  C1'       27.0760   27.8380   30.7200 C.3     2  U2          0.2420
     77  N1        28.0610   28.6530   31.4490 N.ar    2  U2         -0.2534
     78  C2        27.5940   29.7660   32.1330 C.ar    2  U2          0.3546
     79  O2        26.4230   30.1100   32.1210 O.2     2  U2         -0.2443
     80  N3        28.5560   30.4690   32.8140 N.ar    2  U2         -0.1530
     81  C4        29.9030   30.1790   32.8980 C.ar    2  U2          0.2846
     82  O4        30.6420   30.9150   33.5540 O.2     2  U2         -0.2650
     83  C5        30.3040   29.0040   32.1810 C.ar    2  U2          0.0814
     84  C6        29.3910   28.2950   31.5050 C.ar    2  U2          0.0870
     85  OP1       26.3840   25.1430   26.0080 O.2     2  U2         -0.5172
     86  OP2       28.8470   25.3760   26.6460 O.co2   2  U2         -0.4373
     87  P         23.4640   26.3070   28.8130 P.3     3  G3          0.2141
     88  C5'       23.2140   28.5450   27.4740 C.3     3  G3          0.1812
     89  O5'       23.3400   27.1080   27.4490 O.3     3  G3         -0.3114
     90  C4'       22.4440   29.0160   26.2650 C.3     3  G3          0.1773
     91  O4'       23.0180   28.4090   25.0830 O.3     3  G3         -0.3307
     92  C3'       20.9890   28.6000   26.2180 C.3     3  G3          0.1860
     93  O3'       20.2180   29.5330   26.9550 O.3     3  G3         -0.3112
     94  C2'       20.7000   28.6300   24.7300 C.3     3  G3          0.2309
     95  O2'       20.6720   29.9220   24.1970 O.3     3  G3         -0.2156
     96  C1'       22.0010   28.0930   24.1650 C.3     3  G3          0.2408
     97  N1        19.4730   24.1700   22.2620 N.ar    3  G3         -0.1709
     98  C2        19.2500   25.5100   22.0970 C.ar    3  G3          0.2606
     99  N2        18.2110   25.8390   21.3380 N.pl3   3  G3         -0.0859
    100  N3        19.9960   26.4550   22.6370 N.ar    3  G3         -0.1918
    101  C4        20.9960   25.9390   23.3780 C.ar    3  G3          0.1723
    102  C5        21.3120   24.6180   23.5930 C.ar    3  G3          0.1748
    103  C6        20.5140   23.6230   23.0010 C.ar    3  G3          0.3023
    104  O6        20.6210   22.4090   23.0970 O.2     3  G3         -0.2633
    105  N7        22.4140   24.5050   24.4250 N.ar    3  G3         -0.2173
    106  C8        22.7550   25.7400   24.6760 C.ar    3  G3          0.1817
    107  N9        21.9370   26.6550   24.0670 N.ar    3  G3         -0.2693
    108  OP1       22.4410   26.8130   29.7680 O.3     3  G3         -0.4373
    109  OP2       23.5160   24.8600   28.5090 O.co2   3  G3         -0.5172
    110  P         19.1620   28.9260   27.9700 P.3     4  U4          0.2141
    111  C5'       17.5770   28.6360   25.9200 C.3     4  U4          0.1812
    112  O5'       18.3720   28.0330   26.9130 O.3     4  U4         -0.3114
    113  C4'       16.6840   27.6160   25.2740 C.3     4  U4          0.1773
    114  O4'       17.5070   26.6780   24.5650 O.3     4  U4         -0.3307
    115  C3'       15.8120   26.8090   26.2150 C.3     4  U4          0.1860
    116  O3'       14.5400   27.4420   26.1430 O.3     4  U4         -0.3112
    117  C2'       15.7450   25.4350   25.5560 C.3     4  U4          0.2309
    118  O2'       14.8210   25.3100   24.4990 O.3     4  U4         -0.2156
    119  C1'       17.0520   25.3670   24.7760 C.3     4  U4          0.2420
    120  N1        18.1340   24.5690   25.3790 N.ar    4  U4         -0.2534
    121  C2        18.1720   23.2260   25.0710 C.ar    4  U4          0.3546
    122  O2        17.3580   22.6990   24.3510 O.2     4  U4         -0.2443
    123  N3        19.2020   22.5260   25.6400 N.ar    4  U4         -0.1530
    124  C4        20.1840   23.0170   26.4640 C.ar    4  U4          0.2846
    125  O4        21.0490   22.2570   26.8970 O.2     4  U4         -0.2650
    126  C5        20.0690   24.4160   26.7560 C.ar    4  U4          0.0814
    127  C6        19.0770   25.1300   26.2060 C.ar    4  U4          0.0870
    128  OP1       18.4000   30.1240   28.3300 O.2     4  U4         -0.5172
    129  OP2       19.7710   28.1350   29.0860 O.co2   4  U4         -0.4373
    130  P         13.5130   27.4740   27.3540 P.3     5  G5          0.2141
    131  C5'       12.2980   25.2840   26.3780 C.3     5  G5          0.1812
    132  O5'       13.0070   25.9660   27.4470 O.3     5  G5         -0.3114
    133  C4'       12.1520   23.8240   26.7600 C.3     5  G5          0.1773
    134  O4'       13.4830   23.2340   26.8560 O.3     5  G5         -0.3307
    135  C3'       11.5200   23.5880   28.1240 C.3     5  G5          0.1860
    136  O3'       10.9310   22.3240   28.3200 O.3     5  G5         -0.3112
    137  C2'       12.7240   23.5830   29.0360 C.3     5  G5          0.2309
    138  O2'       12.4020   22.8580   30.1870 O.3     5  G5         -0.2156
    139  C1'       13.7360   22.8370   28.1780 C.3     5  G5          0.2408
    140  N1        18.4590   21.2130   29.1100 N.ar    5  G5         -0.1709
    141  C2        17.3840   20.5120   28.6350 C.ar    5  G5          0.2606
    142  N2        17.5750   19.2030   28.4260 N.pl3   5  G5         -0.0859
    143  N3        16.2000   21.0450   28.4060 N.ar    5  G5         -0.1918
    144  C4        16.1760   22.3630   28.6910 C.ar    5  G5          0.1723
    145  C5        17.2040   23.1610   29.1360 C.ar    5  G5          0.1748
    146  C6        18.4720   22.5770   29.3670 C.ar    5  G5          0.3023
    147  O6        19.5080   23.1200   29.7620 O.2     5  G5         -0.2633
    148  N7        16.7830   24.4740   29.2760 N.ar    5  G5         -0.2173
    149  C8        15.5280   24.4520   28.9160 C.ar    5  G5          0.1817
    150  N9        15.0980   23.2060   28.5430 N.ar    5  G5         -0.2693
    151  OP1       12.4240   28.3440   26.8520 O.2     5  G5         -0.5172
    152  OP2       14.1250   27.6990   28.6830 O.co2   5  G5         -0.4373
    153  P          9.4410   22.0310   27.8610 P.3     6  C6          0.2141
    154  C5'        8.5440   22.5170   30.2670 C.3     6  C6          0.1812
    155  O5'        8.8520   22.9840   28.9730 O.3     6  C6         -0.3114
    156  C4'        7.2060   23.0840   30.6230 C.3     6  C6          0.1773
    157  O4'        7.2350   24.5090   30.3470 O.3     6  C6         -0.3307
    158  C3'        6.0800   22.5780   29.7410 C.3     6  C6          0.1860
    159  O3'        5.5720   21.3390   30.2120 O.3     6  C6         -0.3112
    160  C2'        5.0450   23.6770   29.8980 C.3     6  C6          0.2309
    161  O2'        4.1520   23.4500   30.9810 O.3     6  C6         -0.2156
    162  C1'        5.9320   24.9320   30.0050 C.3     6  C6          0.2420
    163  N1         5.9760   25.6240   28.7180 N.ar    6  C6         -0.2535
    164  C2         4.8380   26.3030   28.3010 C.ar    6  C6          0.3532
    165  O2         3.8790   26.3880   29.0720 O.2     6  C6         -0.2443
    166  N3         4.7950   26.8230   27.0640 N.ar    6  C6         -0.1739
    167  C4         5.8560   26.7300   26.2680 C.ar    6  C6          0.1759
    168  N4         5.8030   27.3430   25.0910 N.pl3   6  C6         -0.1070
    169  C5         7.0340   26.0500   26.6650 C.ar    6  C6          0.0566
    170  C6         7.0370   25.4800   27.8740 C.ar    6  C6          0.0850
    171  OP1        9.0900   20.6020   28.0560 O.3     6  C6         -0.4373
    172  OP2        9.2200   22.6380   26.5200 O.co2   6  C6         -0.5172
    173  P          4.7920   20.3720   29.2000 P.3     7  C7          0.2141
    174  C5'        2.3960   21.0930   30.1910 C.3     7  C7          0.1812
    175  O5'        3.3670   21.0800   29.1220 O.3     7  C7         -0.3114
    176  C4'        1.0860   21.6400   29.6550 C.3     7  C7          0.1773
    177  O4'        1.2090   23.0600   29.3290 O.3     7  C7         -0.3307
    178  C3'        0.5830   21.0170   28.3630 C.3     7  C7          0.1860
    179  O3'       -0.1890   19.8800   28.6720 O.3     7  C7         -0.3112
    180  C2'       -0.3510   22.0970   27.8390 C.3     7  C7          0.2309
    181  O2'       -1.5170   22.1940   28.6460 O.3     7  C7         -0.2156
    182  C1'        0.4510   23.3510   28.1560 C.3     7  C7          0.2420
    183  N1         1.3660   23.7650   27.0790 N.ar    7  C7         -0.2535
    184  C2         0.8490   24.4270   25.9590 C.ar    7  C7          0.3532
    185  O2        -0.3700   24.6120   25.8800 O.2     7  C7         -0.2443
    186  N3         1.6900   24.8200   24.9770 N.ar    7  C7         -0.1739
    187  C4         3.0040   24.6190   25.1050 C.ar    7  C7          0.1759
    188  N4         3.7970   25.0620   24.1350 N.pl3   7  C7         -0.1070
    189  C5         3.5620   23.9800   26.2480 C.ar    7  C7          0.0566
    190  C6         2.7140   23.5670   27.2000 C.ar    7  C7          0.0850
    191  OP1        4.5280   19.0740   29.8630 O.3     7  C7         -0.4373
    192  OP2        5.3080   20.4060   27.7990 O.co2   7  C7         -0.5172
    193  P         -0.4630   18.8220   27.5290 P.3     8  C8          0.2141
    194  C5'       -2.8960   19.6680   26.9280 C.3     8  C8          0.1812
    195  O5'       -1.5520   19.3690   26.5050 O.3     8  C8         -0.3114
    196  C4'       -3.5920   20.4030   25.8090 C.3     8  C8          0.1773
    197  O4'       -3.0300   21.7330   25.6370 O.3     8  C8         -0.3307
    198  C3'       -3.4000   19.8030   24.4350 C.3     8  C8          0.1860
    199  O3'       -4.3700   18.8050   24.3450 O.3     8  C8         -0.3112
    200  C2'       -3.8210   20.9630   23.5620 C.3     8  C8          0.2309
    201  O2'       -5.2120   21.1130   23.6870 O.3     8  C8         -0.2156
    202  C1'       -3.1460   22.1240   24.2820 C.3     8  C8          0.2420
    203  N1        -1.8010   22.3380   23.7480 N.ar    8  C8         -0.2535
    204  C2        -1.6730   22.9820   22.5100 C.ar    8  C8          0.3532
    205  O2        -2.6970   23.3920   21.9380 O.2     8  C8         -0.2443
    206  N3        -0.4370   23.1580   21.9770 N.ar    8  C8         -0.1739
    207  C4         0.6390   22.7040   22.6270 C.ar    8  C8          0.1759
    208  N4         1.8280   22.8890   22.0620 N.pl3   8  C8         -0.1070
    209  C5         0.5380   22.0470   23.8910 C.ar    8  C8          0.0566
    210  C6        -0.6920   21.8730   24.4030 C.ar    8  C8          0.0850
    211  OP1       -1.0430   17.6660   28.2750 O.3     8  C8         -0.4373
    212  OP2        0.7340   18.6460   26.6700 O.co2   8  C8         -0.5172
    213  P         -4.1610   17.5510   23.4330 P.3     9  G9          0.2141
    214  C5'       -5.3150   18.4330   21.2330 C.3     9  G9          0.1812
    215  O5'       -4.0980   18.1240   21.9420 O.3     9  G9         -0.3114
    216  C4'       -5.0190   19.3320   20.0630 C.3     9  G9          0.1773
    217  O4'       -4.0780   20.3700   20.4470 O.3     9  G9         -0.3307
    218  C3'       -4.2800   18.7070   18.9010 C.3     9  G9          0.1860
    219  O3'       -5.0360   17.8500   18.0770 O.3     9  G9         -0.3112
    220  C2'       -3.8960   19.9510   18.1330 C.3     9  G9          0.2309
    221  O2'       -5.0820   20.4390   17.5390 O.3     9  G9         -0.2156
    222  C1'       -3.3920   20.8270   19.2810 C.3     9  G9          0.2408
    223  N1         1.1200   21.4630   17.0890 N.ar    9  G9         -0.1709
    224  C2        -0.1420   21.7660   16.6280 C.ar    9  G9          0.2606
    225  N2        -0.2090   22.2850   15.3960 N.pl3   9  G9         -0.0859
    226  N3        -1.2580   21.5340   17.3070 N.ar    9  G9         -0.1918
    227  C4        -1.0060   21.0060   18.5220 C.ar    9  G9          0.1723
    228  C5         0.2130   20.6950   19.0950 C.ar    9  G9          0.1748
    229  C6         1.4040   20.9160   18.3350 C.ar    9  G9          0.3023
    230  O6         2.5740   20.6600   18.6370 O.2     9  G9         -0.2633
    231  N7         0.0370   20.1430   20.3580 N.ar    9  G9         -0.2173
    232  C8        -1.2590   20.1500   20.5330 C.ar    9  G9          0.1817
    233  N9        -1.9480   20.6700   19.4600 N.ar    9  G9         -0.2693
    234  OP1       -5.4600   16.8640   23.7170 O.2     9  G9         -0.5172
    235  OP2       -2.8680   16.8830   23.7400 O.co2   9  G9         -0.4373
    236  P         -4.3360   16.4480   17.6780 P.3    10  G10         0.2141
    237  C5'       -4.2830   17.6710   15.3370 C.3    10  G10         0.1812
    238  O5'       -3.5660   16.9450   16.3670 O.3    10  G10        -0.3114
    239  C4'       -3.3470   18.1330   14.2510 C.3    10  G10         0.1773
    240  O4'       -2.3400   18.9990   14.8370 O.3    10  G10        -0.3307
    241  C3'       -2.5080   17.0450   13.6240 C.3    10  G10         0.1860
    242  O3'       -3.2420   16.3510   12.6400 O.3    10  G10        -0.3112
    243  C2'       -1.3580   17.8440   13.0280 C.3    10  G10         0.2309
    244  O2'       -1.8240   18.4820   11.8560 O.3    10  G10        -0.2156
    245  C1'       -1.1110   18.8690   14.1320 C.3    10  G10         0.2408
    246  N1         3.8480   19.2420   15.1580 N.ar   10  G10        -0.1709
    247  C2         3.1630   19.6050   14.0250 C.ar   10  G10         0.2606
    248  N2         3.8980   20.1250   13.0340 N.pl3  10  G10        -0.0859
    249  N3         1.8570   19.4480   13.8680 N.ar   10  G10        -0.1918
    250  C4         1.2780   18.9240   14.9700 C.ar   10  G10         0.1723
    251  C5         1.8670   18.5750   16.1700 C.ar   10  G10         0.1748
    252  C6         3.2640   18.7350   16.3150 C.ar   10  G10         0.3023
    253  O6         3.9700   18.4690   17.2920 O.2    10  G10        -0.2633
    254  N7         0.9320   18.0400   17.0450 N.ar   10  G10        -0.2173
    255  C8        -0.1960   18.0990   16.3830 C.ar   10  G10         0.1817
    256  N9        -0.0490   18.5900   15.1040 N.ar   10  G10        -0.2693
    257  OP1       -5.5000   15.5530   17.3710 O.2    10  G10        -0.5172
    258  OP2       -3.3730   16.0310   18.7460 O.co2  10  G10        -0.4373
    259  P         -2.9670   14.7740   12.5750 P.3    11  C11         0.2141
    260  C5'       -1.5320   15.3740   10.4350 C.3    11  C11         0.1812
    261  O5'       -1.6550   14.6620   11.6790 O.3    11  C11        -0.3114
    262  C4'       -0.0700   15.4960   10.0620 C.3    11  C11         0.1773
    263  O4'        0.5670   16.4510   10.9450 O.3    11  C11        -0.3307
    264  C3'        0.7740   14.2380   10.2080 C.3    11  C11         0.1860
    265  O3'        0.7320   13.4600    9.0300 O.3    11  C11        -0.3112
    266  C2'        2.1790   14.8000   10.3590 C.3    11  C11         0.2309
    267  O2'        2.8460   15.0380    9.1320 O.3    11  C11        -0.2156
    268  C1'        1.9170   16.0880   11.1410 C.3    11  C11         0.2420
    269  N1         2.1600   15.8970   12.5780 N.ar   11  C11        -0.2535
    270  C2         3.4060   16.2850   13.0830 C.ar   11  C11         0.3532
    271  O2         4.2240   16.8040   12.3100 O.2    11  C11        -0.2443
    272  N3         3.6830   16.0870   14.3950 N.ar   11  C11        -0.1739
    273  C4         2.7720   15.5170   15.1880 C.ar   11  C11         0.1759
    274  N4         3.0940   15.3180   16.4680 N.pl3  11  C11        -0.1070
    275  C5         1.4880   15.1130   14.6980 C.ar   11  C11         0.0566
    276  C6         1.2360   15.3030   13.3950 C.ar   11  C11         0.0850
    277  OP1       -4.1580   14.2100   11.8490 O.2    11  C11        -0.5172
    278  OP2       -2.5980   14.2620   13.9350 O.co2  11  C11        -0.4373
    279  P          0.8040   11.8690    9.2260 P.3    12  A12         0.2141
    280  C5'        3.1740   10.7800    8.6790 C.3    12  A12         0.1812
    281  O5'        2.3750   11.7050    9.4280 O.3    12  A12        -0.3114
    282  C4'        4.4870   11.4300    8.3220 C.3    12  A12         0.1773
    283  O4'        5.2140   11.8220    9.5280 O.3    12  A12        -0.3307
    284  C3'        5.4380   10.5520    7.5160 C.3    12  A12         0.1860
    285  O3'        6.0920   11.4410    6.6310 O.3    12  A12        -0.3112
    286  C2'        6.4370   10.0530    8.5600 C.3    12  A12         0.2309
    287  O2'        7.6880    9.7910    7.9390 O.3    12  A12        -0.2156
    288  C1'        6.5060   11.2420    9.5230 C.3    12  A12         0.2408
    289  N1        10.1950   11.0310   13.1250 N.ar   12  A12        -0.2040
    290  C2        10.1930   11.5020   11.8650 C.ar   12  A12         0.2016
    291  N3         9.1900   11.5360   10.9750 N.ar   12  A12        -0.2048
    292  C4         8.0690   11.0020   11.4990 C.ar   12  A12         0.1692
    293  C5         7.9200   10.4720   12.7710 C.ar   12  A12         0.1518
    294  C6         9.0500   10.4890   13.6110 C.ar   12  A12         0.1919
    295  N6         9.0480   10.0020   14.8520 N.pl3  12  A12        -0.1054
    296  N7         6.6340    9.9850   12.9510 N.ar   12  A12        -0.2193
    297  C8         6.0400   10.2350   11.8090 C.ar   12  A12         0.1816
    298  N9         6.8480   10.8520   10.8860 N.ar   12  A12        -0.2693
    299  OP1        0.4030   11.2870    7.9080 O.2    12  A12        -0.5172
    300  OP2        0.1420   11.4260   10.5120 O.co2  12  A12        -0.4373
    301  P          6.5740   11.0010    5.2130 P.3    13  U13         0.2141
    302  C5'        9.0780   10.4460    4.7610 C.3    13  U13         0.1812
    303  O5'        8.1140   11.3790    5.2380 O.3    13  U13        -0.3114
    304  C4'       10.3840   10.6730    5.4610 C.3    13  U13         0.1773
    305  O4'       10.8110   12.0350    5.2300 O.3    13  U13        -0.3307
    306  C3'       10.3470   10.5130    6.9660 C.3    13  U13         0.1860
    307  O3'       11.6890   10.2370    7.3580 O.3    13  U13        -0.3112
    308  C2'        9.9950   11.9190    7.4370 C.3    13  U13         0.2309
    309  O2'       10.4080   12.2360    8.7590 O.3    13  U13        -0.2156
    310  C1'       10.7970   12.7600    6.4500 C.3    13  U13         0.2420
    311  N1        10.2380   14.1030    6.2110 N.ar   13  U13        -0.2534
    312  C2        10.9990   15.1940    6.5860 C.ar   13  U13         0.3546
    313  O2        12.1000   15.0900    7.0930 O.2    13  U13        -0.2443
    314  N3        10.4120   16.4120    6.3580 N.ar   13  U13        -0.1530
    315  C4         9.1750   16.6490    5.8070 C.ar   13  U13         0.2846
    316  O4         8.7950   17.8080    5.6460 O.2    13  U13        -0.2650
    317  C5         8.4490   15.4720    5.4520 C.ar   13  U13         0.0814
    318  C6         8.9830   14.2700    5.6780 C.ar   13  U13         0.0870
    319  OP1        5.7460   11.8130    4.2600 O.2    13  U13        -0.5172
    320  OP2        6.5130    9.5270    5.1940 O.co2  13  U13        -0.4373
    321  P         12.3470    8.7710    7.3660 P.3    14  G14         0.2141
    322  C5'       13.3690    8.3640    9.6980 C.3    14  G14         0.1812
    323  O5'       12.2370    8.1370    8.8270 O.3    14  G14        -0.3114
    324  C4'       13.0840    7.8370   11.0690 C.3    14  G14         0.1773
    325  O4'       12.0670    8.6550   11.6920 O.3    14  G14        -0.3307
    326  C3'       12.4910    6.4390   11.1380 C.3    14  G14         0.1860
    327  O3'       13.5080    5.4520   11.0450 O.3    14  G14        -0.3112
    328  C2'       11.8610    6.4560   12.5280 C.3    14  G14         0.2309
    329  O2'       12.7400    6.2810   13.6260 O.3    14  G14        -0.2156
    330  C1'       11.2390    7.8460   12.5240 C.3    14  G14         0.2408
    331  N1         6.5320    6.0900   13.0470 N.ar   14  G14        -0.1709
    332  C2         7.6000    5.9770   13.8960 C.ar   14  G14         0.2606
    333  N2         7.3790    5.3040   15.0320 N.pl3  14  G14        -0.0859
    334  N3         8.7920    6.4950   13.6520 N.ar   14  G14        -0.1918
    335  C4         8.8240    7.1450   12.4680 C.ar   14  G14         0.1723
    336  C5         7.8140    7.3030   11.5460 C.ar   14  G14         0.1748
    337  C6         6.5510    6.7430   11.8190 C.ar   14  G14         0.3023
    338  O6         5.5260    6.8040   11.1430 O.2    14  G14        -0.2633
    339  N7         8.2470    8.0550   10.4640 N.ar   14  G14        -0.2173
    340  C8         9.5080    8.2790   10.7100 C.ar   14  G14         0.1817
    341  N9         9.9120    7.7830   11.9280 N.ar   14  G14        -0.2693
    342  OP1       13.8160    9.0370    7.2410 O.3    14  G14        -0.4373
    343  OP2       11.5970    8.0230    6.3210 O.co2  14  G14        -0.5172
    344  P         13.3210    4.1320   10.1860 P.3    15  G15         0.2141
    345  C5'       12.8110    2.9360   12.4590 C.3    15  G15         0.1812
    346  O5'       12.3980    3.2060   11.1060 O.3    15  G15        -0.3114
    347  C4'       11.7000    2.2580   13.2200 C.3    15  G15         0.1773
    348  O4'       10.6310    3.1980   13.5040 O.3    15  G15        -0.3307
    349  C3'       10.9660    1.1320   12.5190 C.3    15  G15         0.1860
    350  O3'       11.7190   -0.0770   12.5010 O.3    15  G15        -0.3112
    351  C2'        9.7230    1.0330   13.3940 C.3    15  G15         0.2309
    352  O2'        9.9770    0.5690   14.6990 O.3    15  G15        -0.2156
    353  C1'        9.3940    2.5070   13.5820 C.3    15  G15         0.2408
    354  N1         4.6890    2.3990   11.7680 N.ar   15  G15        -0.1709
    355  C2         5.2090    1.8280   12.9080 C.ar   15  G15         0.2606
    356  N2         4.3570    1.1400   13.6730 N.pl3  15  G15        -0.0859
    357  N3         6.4680    1.9440   13.2810 N.ar   15  G15        -0.1918
    358  C4         7.1840    2.6820   12.4090 C.ar   15  G15         0.1723
    359  C5         6.7670    3.2860   11.2390 C.ar   15  G15         0.1748
    360  C6         5.4130    3.1600   10.8510 C.ar   15  G15         0.3023
    361  O6         4.8540    3.6180    9.8470 O.2    15  G15        -0.2633
    362  N7         7.8200    3.9430   10.6210 N.ar   15  G15        -0.2173
    363  C8         8.8450    3.7070   11.3970 C.ar   15  G15         0.1817
    364  N9         8.5190    2.9750   12.5150 N.ar   15  G15        -0.2693
    365  OP1       14.7820    3.8400   10.2760 O.3    15  G15        -0.4373
    366  OP2       12.6400    4.2780    8.8590 O.co2  15  G15        -0.5172
    367  P         11.5690   -1.1720   11.3280 P.3    16  G16         0.2141
    368  C5'        9.1310   -1.9150   11.4370 C.3    16  G16         0.1812
    369  O5'       10.4430   -2.1360   11.8990 O.3    16  G16        -0.3114
    370  C4'        8.1620   -2.5520   12.3700 C.3    16  G16         0.1773
    371  O4'        7.2990   -1.5070   12.8930 O.3    16  G16        -0.3307
    372  C3'        7.2410   -3.5580   11.6950 C.3    16  G16         0.1860
    373  O3'        7.7810   -4.8570   11.9150 O.3    16  G16        -0.3112
    374  C2'        5.9040   -3.2820   12.3710 C.3    16  G16         0.2309
    375  O2'        5.8790   -3.7920   13.6850 O.3    16  G16        -0.2156
    376  C1'        5.9580   -1.7680   12.5270 C.3    16  G16         0.2408
    377  N1         2.3380   -0.5510    9.2140 N.ar   16  G16        -0.1709
    378  C2         2.2700   -1.3400   10.3380 C.ar   16  G16         0.2606
    379  N2         1.0630   -1.8440   10.6340 N.pl3  16  G16        -0.0859
    380  N3         3.2970   -1.5820   11.1320 N.ar   16  G16        -0.1918
    381  C4         4.4140   -0.9520   10.7120 C.ar   16  G16         0.1723
    382  C5         4.5890   -0.1500    9.6000 C.ar   16  G16         0.1748
    383  C6         3.4810    0.0980    8.7560 C.ar   16  G16         0.3023
    384  O6         3.4400    0.7600    7.7090 O.2    16  G16        -0.2633
    385  N7         5.9130    0.2460    9.4800 N.ar   16  G16        -0.2173
    386  C8         6.5020   -0.2870   10.5150 C.ar   16  G16         0.1817
    387  N9         5.6470   -1.0280   11.3030 N.ar   16  G16        -0.2693
    388  OP1       12.9470   -1.7590   11.3020 O.3    16  G16        -0.4373
    389  OP2       10.9200   -0.6740   10.0640 O.co2  16  G16        -0.5172
    390  P          8.2090   -5.8500   10.7060 P.3    17  U17         0.2141
    391  C5'        5.8230   -6.8020   11.2260 C.3    17  U17         0.1812
    392  O5'        6.7350   -6.2550   10.2650 O.3    17  U17        -0.3114
    393  C4'        4.4310   -6.7710   10.6640 C.3    17  U17         0.1773
    394  O4'        3.9190   -5.4140   10.6990 O.3    17  U17        -0.3307
    395  C3'        4.2990   -7.1500    9.1970 C.3    17  U17         0.1860
    396  O3'        4.4020   -8.5630    9.0210 O.3    17  U17        -0.3112
    397  C2'        2.9380   -6.5500    8.8780 C.3    17  U17         0.2309
    398  O2'        1.8540   -7.2370    9.4730 O.3    17  U17        -0.2156
    399  C1'        3.0560   -5.2020    9.5840 C.3    17  U17         0.2420
    400  N1         3.6410   -4.1780    8.7020 N.ar   17  U17        -0.2534
    401  C2         2.7990   -3.5360    7.8080 C.ar   17  U17         0.3546
    402  O2         1.6050   -3.7580    7.7440 O.2    17  U17        -0.2443
    403  N3         3.4130   -2.6170    6.9960 N.ar   17  U17        -0.1530
    404  C4         4.7490   -2.2770    6.9810 C.ar   17  U17         0.2846
    405  O4         5.1450   -1.4160    6.1950 O.2    17  U17        -0.2650
    406  C5         5.5550   -2.9790    7.9380 C.ar   17  U17         0.0814
    407  C6         4.9910   -3.8940    8.7340 C.ar   17  U17         0.0870
    408  OP1        8.8600   -6.9720   11.4350 O.3    17  U17        -0.4373
    409  OP2        8.9050   -5.2620    9.5220 O.co2  17  U17        -0.5172
    410  P          4.3410   -9.4080    7.6450 P.3    18  G18         0.2141
    411  C5'        1.8470   -9.4960    6.8150 C.3    18  G18         0.1812
    412  O5'        3.1300   -8.8220    6.7810 O.3    18  G18        -0.3114
    413  C4'        0.8420   -8.8030    5.9320 C.3    18  G18         0.1773
    414  O4'        0.8740   -7.3780    6.1840 O.3    18  G18        -0.3307
    415  C3'        1.0510   -8.9170    4.4260 C.3    18  G18         0.1860
    416  O3'        0.6290  -10.1760    3.9090 O.3    18  G18        -0.3112
    417  C2'        0.2630   -7.7100    3.9110 C.3    18  G18         0.2309
    418  O2'       -1.1580   -7.6930    3.8750 O.3    18  G18        -0.2156
    419  C1'        0.5810   -6.6750    4.9850 C.3    18  G18         0.2408
    420  N1         2.2710   -2.7980    2.1730 N.ar   18  G18        -0.1709
    421  C2         1.0440   -3.4080    2.1600 C.ar   18  G18         0.2606
    422  N2         0.1460   -2.9000    1.3110 N.pl3  18  G18        -0.0859
    423  N3         0.7150   -4.4230    2.9420 N.ar   18  G18        -0.1918
    424  C4         1.7390   -4.7980    3.7400 C.ar   18  G18         0.1723
    425  C5         3.0030   -4.2590    3.8250 C.ar   18  G18         0.1748
    426  C6         3.3380   -3.1650    2.9860 C.ar   18  G18         0.3023
    427  O6         4.4170   -2.5670    2.8940 O.2    18  G18        -0.2633
    428  N7         3.7650   -4.9340    4.7690 N.ar   18  G18        -0.2173
    429  C8         2.9650   -5.8520    5.2340 C.ar   18  G18         0.1817
    430  N9         1.7190   -5.8250    4.6560 N.ar   18  G18        -0.2693
    431  OP1        3.8320  -10.6910    8.2060 O.3    18  G18        -0.4373
    432  OP2        5.6170   -9.4190    6.8670 O.co2  18  G18        -0.5172
    433  P          1.4170  -10.8690    2.7030 P.3    19  C19         0.2141
    434  C5'       -0.3260  -10.1810    0.8770 C.3    19  C19         0.1812
    435  O5'        0.9810   -9.9820    1.4550 O.3    19  C19        -0.3114
    436  C4'       -0.6120   -9.1380   -0.1710 C.3    19  C19         0.1773
    437  O4'       -0.4410   -7.8040    0.3950 O.3    19  C19        -0.3307
    438  C3'        0.3350   -9.1320   -1.3590 C.3    19  C19         0.1860
    439  O3'        0.1930  -10.1910   -2.2980 O.3    19  C19        -0.3112
    440  C2'        0.1250   -7.7220   -1.8950 C.3    19  C19         0.2309
    441  O2'       -1.1290   -7.4850   -2.5010 O.3    19  C19        -0.2156
    442  C1'        0.1180   -6.9300   -0.5890 C.3    19  C19         0.2420
    443  N1         1.4670   -6.4710   -0.1590 N.ar   19  C19        -0.2535
    444  C2         2.0070   -5.3200   -0.7550 C.ar   19  C19         0.3532
    445  O2         1.3500   -4.7240   -1.6170 O.2    19  C19        -0.2443
    446  N3         3.2280   -4.8850   -0.3690 N.ar   19  C19        -0.1739
    447  C4         3.9130   -5.5570    0.5600 C.ar   19  C19         0.1759
    448  N4         5.1170   -5.0930    0.9020 N.pl3  19  C19        -0.1070
    449  C5         3.3910   -6.7340    1.1790 C.ar   19  C19         0.0566
    450  C6         2.1790   -7.1540    0.7900 C.ar   19  C19         0.0850
    451  OP1        0.7200  -12.1510    2.4150 O.2    19  C19        -0.5172
    452  OP2        2.8850  -10.8800    2.9810 O.co2  19  C19        -0.4373
    453  P          1.5810  -10.6320   -2.9950 P.3    20  A20         0.2141
    454  C5'        0.8830   -9.1310   -5.0600 C.3    20  A20         0.1812
    455  O5'        1.8550   -9.4770   -4.0550 O.3    20  A20        -0.3114
    456  C4'        1.3760   -7.9440   -5.8420 C.3    20  A20         0.1773
    457  O4'        1.5720   -6.8200   -4.9360 O.3    20  A20        -0.3307
    458  C3'        2.7510   -8.1190   -6.4800 C.3    20  A20         0.1860
    459  O3'        2.7570   -8.8770   -7.6790 O.3    20  A20        -0.3112
    460  C2'        3.1770   -6.6730   -6.6580 C.3    20  A20         0.2309
    461  O2'        2.4470   -6.0220   -7.6790 O.3    20  A20        -0.2156
    462  C1'        2.7400   -6.0980   -5.3150 C.3    20  A20         0.2408
    463  N1         7.0050   -4.0740   -3.2930 N.ar   20  A20        -0.2040
    464  C2         6.2470   -3.7250   -4.3420 C.ar   20  A20         0.2016
    465  N3         5.1440   -4.3050   -4.8150 N.ar   20  A20        -0.2048
    466  C4         4.8260   -5.3900   -4.0850 C.ar   20  A20         0.1692
    467  C5         5.5110   -5.8780   -2.9840 C.ar   20  A20         0.1518
    468  C6         6.6530   -5.1630   -2.5740 C.ar   20  A20         0.1919
    469  N6         7.4000   -5.5020   -1.5230 N.pl3  20  A20        -0.1054
    470  N7         4.8870   -7.0120   -2.4820 N.ar   20  A20        -0.2193
    471  C8         3.8480   -7.1730   -3.2670 C.ar   20  A20         0.1816
    472  N9         3.7530   -6.2310   -4.2630 N.ar   20  A20        -0.2693
    473  OP1        1.3900  -11.8980   -3.7430 O.2    20  A20        -0.5172
    474  OP2        2.6490  -10.5510   -1.9710 O.co2  20  A20        -0.4373
    475  P          4.0530   -9.7470   -7.9870 P.3    21  G21         0.2141
    476  C5'        4.8510   -7.9770   -9.7790 C.3    21  G21         0.1812
    477  O5'        5.0910   -8.6550   -8.5230 O.3    21  G21        -0.3114
    478  C4'        5.6530   -6.7070   -9.8710 C.3    21  G21         0.1773
    479  O4'        5.5920   -6.0140   -8.5970 O.3    21  G21        -0.3307
    480  C3'        7.1350   -6.9150  -10.1010 C.3    21  G21         0.1860
    481  O3'        7.4470   -7.3030  -11.4320 O.3    21  G21        -0.3112
    482  C2'        7.7490   -5.6350   -9.5190 C.3    21  G21         0.2309
    483  O2'        7.9180   -4.4430  -10.2720 O.3    21  G21        -0.2156
    484  C1'        6.8410   -5.3950   -8.3120 C.3    21  G21         0.2408
    485  N1        10.3450   -4.9180   -4.6620 N.ar   21  G21        -0.1709
    486  C2        10.1580   -4.1690   -5.7980 C.ar   21  G21         0.2606
    487  N2        11.0030   -3.1470   -5.9800 N.pl3  21  G21        -0.0859
    488  N3         9.2000   -4.3920   -6.6830 N.ar   21  G21        -0.1918
    489  C4         8.4370   -5.4550   -6.3440 C.ar   21  G21         0.1723
    490  C5         8.5600   -6.2890   -5.2500 C.ar   21  G21         0.1748
    491  C6         9.5920   -6.0320   -4.3050 C.ar   21  G21         0.3023
    492  O6         9.8630   -6.6520   -3.2700 O.2    21  G21        -0.2633
    493  N7         7.5890   -7.2840   -5.2770 N.ar   21  G21        -0.2173
    494  C8         6.9090   -7.0430   -6.3670 C.ar   21  G21         0.1817
    495  N9         7.3640   -5.9420   -7.0570 N.ar   21  G21        -0.2693
    496  OP1        3.7040  -10.6420   -9.1190 O.2    21  G21        -0.5172
    497  OP2        4.4790  -10.3360   -6.6910 O.co2  21  G21        -0.4373
    498  P          8.4740   -8.5480  -11.4880 P.3    22  U22         0.2141
    499  C5'       10.3060   -6.7520  -12.1090 C.3    22  U22         0.1812
    500  O5'        9.8370   -7.7690  -11.1910 O.3    22  U22        -0.3114
    501  C4'       11.4180   -5.9170  -11.5090 C.3    22  U22         0.1773
    502  O4'       10.9800   -5.3340  -10.2440 O.3    22  U22        -0.3307
    503  C3'       12.7230   -6.6280  -11.1580 C.3    22  U22         0.1860
    504  O3'       13.6480   -6.9400  -12.2090 O.3    22  U22        -0.3112
    505  C2'       13.3190   -5.6520  -10.1550 C.3    22  U22         0.2309
    506  O2'       13.8070   -4.4930  -10.8000 O.3    22  U22        -0.2156
    507  C1'       12.0790   -5.2850   -9.3360 C.3    22  U22         0.2420
    508  N1        11.8350   -6.2320   -8.2320 N.ar   22  U22        -0.2534
    509  C2        12.6150   -6.1180   -7.0900 C.ar   22  U22         0.3546
    510  O2        13.4670   -5.2560   -6.9480 O.2    22  U22        -0.2443
    511  N3        12.3510   -7.0510   -6.1200 N.ar   22  U22        -0.1530
    512  C4        11.4170   -8.0610   -6.1660 C.ar   22  U22         0.2846
    513  O4        11.3090   -8.8300   -5.2120 O.2    22  U22        -0.2650
    514  C5        10.6640   -8.1200   -7.3790 C.ar   22  U22         0.0814
    515  C6        10.9000   -7.2320   -8.3500 C.ar   22  U22         0.0870
    516  OP1        8.5240   -8.9830  -12.9020 O.2    22  U22        -0.5172
    517  OP2        8.2120   -9.5830  -10.4380 O.co2  22  U22        -0.4373
    518  P         14.3770   -8.3910  -12.0200 P.3    23  C23         0.2141
    519  C5'       16.5120   -7.1750  -11.0580 C.3    23  C23         0.1812
    520  O5'       15.3750   -8.0160  -10.8390 O.3    23  C23        -0.3114
    521  C4'       17.2050   -6.9150   -9.7450 C.3    23  C23         0.1773
    522  O4'       16.2320   -6.7290   -8.6790 O.3    23  C23        -0.3307
    523  C3'       18.0840   -8.0300   -9.2220 C.3    23  C23         0.1860
    524  O3'       19.2990   -7.9460   -9.9530 O.3    23  C23        -0.3112
    525  C2'       18.2120   -7.6290   -7.7540 C.3    23  C23         0.2309
    526  O2'       18.9240   -6.4410   -7.5330 O.3    23  C23        -0.2156
    527  C1'       16.8160   -7.1000   -7.4480 C.3    23  C23         0.2420
    528  N1        15.9680   -8.1020   -6.8140 N.ar   23  C23        -0.2535
    529  C2        16.2330   -8.4420   -5.4900 C.ar   23  C23         0.3532
    530  O2        17.1580   -7.8740   -4.9080 O.2    23  C23        -0.2443
    531  N3        15.4720   -9.3800   -4.8780 N.ar   23  C23        -0.1739
    532  C4        14.4900   -9.9810   -5.5490 C.ar   23  C23         0.1759
    533  N4        13.7680  -10.8920   -4.9070 N.pl3  23  C23        -0.1070
    534  C5        14.2050   -9.6680   -6.9110 C.ar   23  C23         0.0566
    535  C6        14.9580   -8.7250   -7.4980 C.ar   23  C23         0.0850
    536  OP1       15.2180   -8.7590  -13.2000 O.2    23  C23        -0.5172
    537  OP2       13.4890   -9.4380  -11.3900 O.co2  23  C23        -0.4373
    538  P         20.2470   -9.2300  -10.1410 P.3    24  U24         0.2141
    539  C5'       21.5950   -8.2510   -8.1630 C.3    24  U24         0.1812
    540  O5'       20.6360   -9.1710   -8.6040 O.3    24  U24        -0.3114
    541  C4'       22.1970   -8.7380   -6.8810 C.3    24  U24         0.1773
    542  O4'       21.2400   -8.6860   -5.8080 O.3    24  U24        -0.3307
    543  C3'       22.6480  -10.1760   -6.8550 C.3    24  U24         0.1860
    544  O3'       23.8640  -10.1030   -7.5510 O.3    24  U24        -0.3112
    545  C2'       22.7810  -10.4160   -5.3650 C.3    24  U24         0.2309
    546  O2'       24.0060   -9.8510   -4.9820 O.3    24  U24        -0.2156
    547  C1'       21.5800   -9.6440   -4.8420 C.3    24  U24         0.2420
    548  N1        20.4100  -10.4900   -4.7430 N.ar   24  U24        -0.2534
    549  C2        20.1240  -11.0130   -3.5100 C.ar   24  U24         0.3546
    550  O2        20.8430  -10.8360   -2.5390 O.2    24  U24        -0.2443
    551  N3        18.9710  -11.7520   -3.4530 N.ar   24  U24        -0.1530
    552  C4        18.0990  -12.0110   -4.4840 C.ar   24  U24         0.2846
    553  O4        17.1040  -12.6980   -4.2750 O.2    24  U24        -0.2650
    554  C5        18.4530  -11.4050   -5.7280 C.ar   24  U24         0.0814
    555  C6        19.5630  -10.6720   -5.8090 C.ar   24  U24         0.0870
    556  OP1       21.5910   -9.0720  -10.7710 O.2    24  U24        -0.5172
    557  OP2       19.4080  -10.4140  -10.5080 O.co2  24  U24        -0.4373
    558  P         24.7990  -11.3270   -7.6710 P.3    25  A25         0.2141
    559  C5'       27.1870  -10.3900   -7.3580 C.3    25  A25         0.1812
    560  O5'       25.9580  -10.7700   -6.7460 O.3    25  A25        -0.3114
    561  C4'       28.2140  -10.1720   -6.2890 C.3    25  A25         0.1773
    562  O4'       27.5700  -10.1910   -4.9780 O.3    25  A25        -0.3307
    563  C3'       29.2740  -11.2530   -6.2280 C.3    25  A25         0.1860
    564  O3'       30.4800  -10.6910   -5.7250 O.3    25  A25        -0.3112
    565  C2'       28.6840  -12.1890   -5.2000 C.3    25  A25         0.2309
    566  O2'       29.7510  -12.9180   -4.6620 O.3    25  A25        -0.2156
    567  C1'       28.1510  -11.1930   -4.1880 C.3    25  A25         0.2408
    568  N1        26.2000  -12.2150    0.4570 N.ar   25  A25        -0.2040
    569  C2        27.3160  -11.5820    0.0830 C.ar   25  A25         0.2016
    570  N3        27.7850  -11.3530   -1.1430 N.ar   25  A25        -0.2048
    571  C4        26.9410  -11.8370   -2.0660 C.ar   25  A25         0.1692
    572  C5        25.7390  -12.4800   -1.8350 C.ar   25  A25         0.1518
    573  C6        25.3800  -12.6970   -0.5080 C.ar   25  A25         0.1919
    574  N6        24.2550  -13.3210   -0.1510 N.pl3  25  A25        -0.1054
    575  N7        25.1230  -12.8210   -3.0310 N.ar   25  A25        -0.2193
    576  C8        25.9660  -12.4060   -3.9450 C.ar   25  A25         0.1816
    577  N9        27.0840  -11.7920   -3.4290 N.ar   25  A25        -0.2693
    578  OP1       25.3960  -11.3850   -9.0530 O.2    25  A25        -0.5172
    579  OP2       24.2230  -12.5180   -6.9910 O.co2  25  A25        -0.4373
    580  P         31.8770  -11.1880   -6.3380 P.3    26  U26         0.2141
    581  C5'       31.8780   -8.4880   -6.8340 C.3    26  U26         0.1812
    582  O5'       32.2830   -9.8760   -7.1630 O.3    26  U26        -0.3114
    583  C4'       32.1890   -7.5870   -8.0240 C.3    26  U26         0.1773
    584  O4'       33.6220   -7.5500   -8.1940 O.3    26  U26        -0.3307
    585  C3'       31.6440   -8.1550   -9.3200 C.3    26  U26         0.1860
    586  O3'       30.3560   -7.6490   -9.6640 O.3    26  U26        -0.3112
    587  C2'       32.7140   -7.8690  -10.3740 C.3    26  U26         0.2309
    588  O2'       32.5020   -6.6740  -11.0660 O.3    26  U26        -0.2156
    589  C1'       33.9830   -7.7480   -9.5520 C.3    26  U26         0.2420
    590  N1        34.7970   -8.9590   -9.6580 N.ar   26  U26        -0.2534
    591  C2        35.4250   -9.2300  -10.8620 C.ar   26  U26         0.3546
    592  O2        35.3790   -8.4730  -11.8170 O.2    26  U26        -0.2443
    593  N3        36.1420  -10.4050  -10.8910 N.ar   26  U26        -0.1530
    594  C4        36.2750  -11.3260   -9.8690 C.ar   26  U26         0.2846
    595  O4        36.9380  -12.3520  -10.0470 O.2    26  U26        -0.2650
    596  C5        35.5910  -10.9730   -8.6640 C.ar   26  U26         0.0814
    597  C6        34.8920   -9.8290   -8.6030 C.ar   26  U26         0.0870
    598  OP1       31.8910  -12.2400   -7.4150 O.2    26  U26        -0.5172
    599  OP2       32.6030  -11.3870   -5.0560 O.co2  26  U26        -0.4373
    600  P         29.4950   -8.5470  -10.6950 P.3    27  A27         0.2141
    601  C5'       29.9870   -7.5400  -13.1420 C.3    27  A27         0.1812
    602  O5'       30.0410   -8.6520  -12.2000 O.3    27  A27        -0.3114
    603  C4'       30.9250   -7.7650  -14.3150 C.3    27  A27         0.1773
    604  O4'       32.2030   -8.2160  -13.8030 O.3    27  A27        -0.3307
    605  C3'       30.5240   -8.9500  -15.1900 C.3    27  A27         0.1860
    606  O3'       29.3830   -8.7720  -16.0080 O.3    27  A27        -0.3112
    607  C2'       31.8350   -9.4160  -15.8420 C.3    27  A27         0.2309
    608  O2'       32.3260   -8.8260  -17.0180 O.3    27  A27        -0.2156
    609  C1'       32.8590   -9.0220  -14.7890 C.3    27  A27         0.2408
    610  N1        35.8750  -13.1300  -15.3820 N.ar   27  A27        -0.2040
    611  C2        35.5090  -12.1500  -16.2200 C.ar   27  A27         0.2016
    612  N3        34.7170  -11.1000  -15.9960 N.ar   27  A27        -0.2048
    613  C4        34.2590  -11.1170  -14.7370 C.ar   27  A27         0.1692
    614  C5        34.5040  -12.0780  -13.7800 C.ar   27  A27         0.1518
    615  C6        35.3820  -13.1140  -14.1240 C.ar   27  A27         0.1919
    616  N6        35.7460  -14.0850  -13.2780 N.pl3  27  A27        -0.1054
    617  N7        33.8270  -11.7860  -12.6070 N.ar   27  A27        -0.2193
    618  C8        33.2050  -10.6630  -12.8730 C.ar   27  A27         0.1816
    619  N9        33.4210  -10.2040  -14.1480 N.ar   27  A27        -0.2693
    620  OP1       28.2650   -7.7780  -10.4150 O.2    27  A27        -0.5172
    621  OP2       29.6690   -9.9190  -10.1610 O.co2  27  A27        -0.4373
    622  P         28.5150  -10.1100  -16.1290 P.3    28  G28         0.2141
    623  C5'       29.2460  -12.1190  -17.5700 C.3    28  G28         0.1812
    624  O5'       29.5100  -11.3000  -16.4270 O.3    28  G28        -0.3114
    625  C4'       30.4970  -12.8750  -17.7800 C.3    28  G28         0.1773
    626  O4'       31.3580  -12.4230  -16.7070 O.3    28  G28        -0.3307
    627  C3'       30.3520  -14.3490  -17.5120 C.3    28  G28         0.1860
    628  O3'       29.8760  -15.0080  -18.6610 O.3    28  G28        -0.3112
    629  C2'       31.7450  -14.7230  -17.0460 C.3    28  G28         0.2309
    630  O2'       32.6390  -14.9610  -18.1020 O.3    28  G28        -0.2156
    631  C1'       32.0620  -13.5210  -16.1630 C.3    28  G28         0.2408
    632  N1        32.3840  -16.5400  -12.1340 N.ar   28  G28        -0.1709
    633  C2        33.0300  -16.6150  -13.3520 C.ar   28  G28         0.2606
    634  N2        33.9010  -17.6280  -13.5170 N.pl3  28  G28        -0.0859
    635  N3        32.8260  -15.7680  -14.3440 N.ar   28  G28        -0.1918
    636  C4        31.9850  -14.7760  -13.9920 C.ar   28  G28         0.1723
    637  C5        31.3240  -14.5850  -12.7970 C.ar   28  G28         0.1748
    638  C6        31.4860  -15.5390  -11.7660 C.ar   28  G28         0.3023
    639  O6        30.9570  -15.5580  -10.6390 O.2    28  G28        -0.2633
    640  N7        30.4960  -13.4720  -12.8660 N.ar   28  G28        -0.2173
    641  C8        30.6990  -12.9920  -14.0670 C.ar   28  G28         0.1817
    642  N9        31.6020  -13.7320  -14.7950 N.ar   28  G28        -0.2693
    643  OP1       27.7740   -9.8930  -17.3840 O.2    28  G28        -0.5172
    644  OP2       27.7810  -10.4530  -14.8740 O.co2  28  G28        -0.4373
    645  P         28.4220  -15.6500  -18.4970 P.3    29  G29         0.2141
    646  C5'       29.2790  -18.1030  -18.5950 C.3    29  G29         0.1812
    647  O5'       28.9070  -16.9850  -17.7750 O.3    29  G29        -0.3114
    648  C4'       30.4670  -18.7910  -17.9970 C.3    29  G29         0.1773
    649  O4'       30.9220  -17.9800  -16.8860 O.3    29  G29        -0.3307
    650  C3'       30.1820  -20.1370  -17.3410 C.3    29  G29         0.1860
    651  O3'       29.7610  -21.2390  -18.1550 O.3    29  G29        -0.3112
    652  C2'       31.3490  -20.2620  -16.3570 C.3    29  G29         0.2309
    653  O2'       32.5750  -20.8270  -16.8010 O.3    29  G29        -0.2156
    654  C1'       31.4280  -18.8180  -15.8440 C.3    29  G29         0.2408
    655  N1        30.3930  -20.3410  -11.0940 N.ar   29  G29        -0.1709
    656  C2        31.2820  -20.8600  -12.0080 C.ar   29  G29         0.2606
    657  N2        31.9950  -21.9340  -11.6060 N.pl3  29  G29        -0.0859
    658  N3        31.4760  -20.3580  -13.2250 N.ar   29  G29        -0.1918
    659  C4        30.6800  -19.2960  -13.4700 C.ar   29  G29         0.1723
    660  C5        29.7470  -18.7120  -12.6410 C.ar   29  G29         0.1748
    661  C6        29.5570  -19.2520  -11.3300 C.ar   29  G29         0.3023
    662  O6        28.7870  -18.8620  -10.4390 O.2    29  G29        -0.2633
    663  N7        29.1420  -17.6250  -13.2660 N.ar   29  G29        -0.2173
    664  C8        29.6830  -17.5930  -14.4550 C.ar   29  G29         0.1817
    665  N9        30.6220  -18.5830  -14.6450 N.ar   29  G29        -0.2693
    666  OP1       28.1500  -16.0100  -19.9190 O.2    29  G29        -0.5172
    667  OP2       27.4860  -14.7320  -17.7310 O.co2  29  G29        -0.4373
    668  P         28.1680  -21.5840  -18.0070 P.3    30  G30         0.2141
    669  C5'       29.0930  -23.9320  -17.1520 C.3    30  G30         0.1812
    670  O5'       28.2370  -22.7770  -16.9460 O.3    30  G30        -0.3114
    671  C4'       29.6880  -24.3440  -15.8320 C.3    30  G30         0.1773
    672  O4'       29.6380  -23.2000  -14.9370 O.3    30  G30        -0.3307
    673  C3'       28.8630  -25.3390  -15.0590 C.3    30  G30         0.1860
    674  O3'       28.9320  -26.6420  -15.5700 O.3    30  G30        -0.3112
    675  C2'       29.3430  -25.1440  -13.6200 C.3    30  G30         0.2309
    676  O2'       30.5000  -25.7960  -13.1890 O.3    30  G30        -0.2156
    677  C1'       29.6580  -23.6500  -13.5940 C.3    30  G30         0.2408
    678  N1        27.3480  -22.7890   -9.1480 N.ar   30  G30        -0.1709
    679  C2        28.2930  -23.7260   -9.4560 C.ar   30  G30         0.2606
    680  N2        28.6840  -24.5140   -8.4420 N.pl3  30  G30        -0.0859
    681  N3        28.8410  -23.8590  -10.6560 N.ar   30  G30        -0.1918
    682  C4        28.3350  -22.9750  -11.5370 C.ar   30  G30         0.1723
    683  C5        27.3820  -22.0060  -11.3270 C.ar   30  G30         0.1748
    684  C6        26.8570  -21.8370  -10.0260 C.ar   30  G30         0.3023
    685  O6        26.0370  -21.0010   -9.6290 O.2    30  G30        -0.2633
    686  N7        27.1670  -21.2680  -12.4810 N.ar   30  G30        -0.2173
    687  C8        27.9460  -21.8260  -13.3710 C.ar   30  G30         0.1817
    688  N9        28.6960  -22.8510  -12.8590 N.ar   30  G30        -0.2693
    689  OP1       27.9570  -22.1110  -19.3770 O.2    30  G30        -0.5172
    690  OP2       27.1930  -20.5400  -17.4670 O.co2  30  G30        -0.4373
    691  P         27.4740  -27.3560  -15.7220 P.3    31  U31         0.2141
    692  C5'       28.3300  -28.7910  -13.6670 C.3    31  U31         0.1812
    693  O5'       27.3160  -27.9540  -14.2550 O.3    31  U31        -0.3114
    694  C4'       27.9250  -29.0280  -12.2340 C.3    31  U31         0.1773
    695  O4'       28.0290  -27.7700  -11.5140 O.3    31  U31        -0.3307
    696  C3'       26.4570  -29.3660  -12.0550 C.3    31  U31         0.1860
    697  O3'       26.2160  -30.7280  -12.3820 O.3    31  U31        -0.3112
    698  C2'       26.2330  -28.9940  -10.5960 C.3    31  U31         0.2309
    699  O2'       26.7380  -29.9470   -9.6850 O.3    31  U31        -0.2156
    700  C1'       27.0530  -27.7090  -10.4860 C.3    31  U31         0.2420
    701  N1        26.2510  -26.4950  -10.6910 N.ar   31  U31        -0.2534
    702  C2        25.5870  -25.9520   -9.6070 C.ar   31  U31         0.3546
    703  O2        25.6610  -26.4190   -8.4850 O.2    31  U31        -0.2443
    704  N3        24.8440  -24.8320   -9.8870 N.ar   31  U31        -0.1530
    705  C4        24.6770  -24.2290  -11.1140 C.ar   31  U31         0.2846
    706  O4        23.9750  -23.2330  -11.2040 O.2    31  U31        -0.2650
    707  C5        25.3840  -24.8510  -12.1860 C.ar   31  U31         0.0814
    708  C6        26.1300  -25.9380  -11.9460 C.ar   31  U31         0.0870
    709  OP1       27.8090  -28.5330  -16.5740 O.2    31  U31        -0.5172
    710  OP2       26.4010  -26.3440  -16.1240 O.co2  31  U31        -0.4373
    711  P         25.0520  -31.2260  -13.3730 P.3    32  G32         0.2141
    712  C5'       23.5620  -31.6560  -11.2450 C.3    32  G32         0.1812
    713  O5'       23.7380  -30.9730  -12.5100 O.3    32  G32        -0.3114
    714  C4'       22.6140  -30.8690  -10.3670 C.3    32  G32         0.1773
    715  O4'       23.1800  -29.5710   -9.9980 O.3    32  G32        -0.3307
    716  C3'       21.2730  -30.5050  -10.9800 C.3    32  G32         0.1860
    717  O3'       20.4370  -31.6660  -10.9690 O.3    32  G32        -0.3112
    718  C2'       20.8300  -29.3960  -10.0380 C.3    32  G32         0.2309
    719  O2'       20.3980  -30.0160   -8.8480 O.3    32  G32        -0.2156
    720  C1'       22.1440  -28.6260   -9.8400 C.3    32  G32         0.2408
    721  N1        20.8850  -23.9860  -11.5070 N.ar   32  G32        -0.1709
    722  C2        20.6480  -24.5470  -10.2830 C.ar   32  G32         0.2606
    723  N2        19.9550  -23.7900   -9.4200 N.pl3  32  G32        -0.0859
    724  N3        21.0560  -25.7570   -9.9360 N.ar   32  G32        -0.1918
    725  C4        21.7400  -26.3630  -10.9310 C.ar   32  G32         0.1723
    726  C5        22.0590  -25.8680  -12.1730 C.ar   32  G32         0.1748
    727  C6        21.6000  -24.5840  -12.5340 C.ar   32  G32         0.3023
    728  O6        21.7570  -23.9850  -13.5990 O.2    32  G32        -0.2633
    729  N7        22.7760  -26.8020  -12.9050 N.ar   32  G32        -0.2173
    730  C8        22.8870  -27.8280  -12.1080 C.ar   32  G32         0.1817
    731  N9        22.2810  -27.6310  -10.8940 N.ar   32  G32        -0.2693
    732  OP1       25.4200  -32.6580  -13.2200 O.3    32  G32        -0.4373
    733  OP2       24.8670  -30.5930  -14.7380 O.co2  32  G32        -0.5172
    734  P         19.4860  -32.1430  -12.1870 P.3    33  A33         0.2141
    735  C5'       17.5820  -30.6180  -13.2200 C.3    33  A33         0.1812
    736  O5'       18.1400  -31.2890  -12.0810 O.3    33  A33        -0.3114
    737  C4'       16.2960  -29.9800  -12.7880 C.3    33  A33         0.1773
    738  O4'       15.7800  -30.7710  -11.6930 O.3    33  A33        -0.3307
    739  C3'       16.4850  -28.6080  -12.1690 C.3    33  A33         0.1860
    740  O3'       16.4400  -27.6190  -13.1660 O.3    33  A33        -0.3112
    741  C2'       15.3640  -28.4930  -11.1420 C.3    33  A33         0.2309
    742  O2'       14.2910  -27.7720  -11.6840 O.3    33  A33        -0.2156
    743  C1'       15.0620  -29.9540  -10.7900 C.3    33  A33         0.2408
    744  N1        14.5970  -29.1180   -5.7270 N.ar   33  A33        -0.2040
    745  C2        13.8910  -28.6720   -6.7760 C.ar   33  A33         0.2016
    746  N3        14.0600  -28.9240   -8.0780 N.ar   33  A33        -0.2048
    747  C4        15.0740  -29.7820   -8.2650 C.ar   33  A33         0.1692
    748  C5        15.8710  -30.3490   -7.2890 C.ar   33  A33         0.1518
    749  C6        15.6170  -29.9760   -5.9580 C.ar   33  A33         0.1919
    750  N6        16.2970  -30.4560   -4.9150 N.pl3  33  A33        -0.1054
    751  N7        16.8350  -31.1660   -7.8570 N.ar   33  A33        -0.2193
    752  C8        16.5970  -31.0820   -9.1430 C.ar   33  A33         0.1816
    753  N9        15.5280  -30.2840   -9.4560 N.ar   33  A33        -0.2693
    754  OP1       19.1020  -33.5410  -11.8280 O.3    33  A33        -0.4373
    755  OP2       20.0570  -31.8380  -13.5110 O.co2  33  A33        -0.5172
    756  P         17.7970  -26.6720  -13.1870 P.3    34  G34         0.2141
    757  C5'       16.1650  -24.9960  -12.0100 C.3    34  G34         0.1812
    758  O5'       17.4130  -25.6750  -12.0020 O.3    34  G34        -0.3114
    759  C4'       15.8460  -24.5440  -10.6090 C.3    34  G34         0.1773
    760  O4'       15.7880  -25.7050   -9.7570 O.3    34  G34        -0.3307
    761  C3'       16.8870  -23.6770   -9.9090 C.3    34  G34         0.1860
    762  O3'       16.7860  -22.2710  -10.1580 O.3    34  G34        -0.3112
    763  C2'       16.5090  -23.8640   -8.4470 C.3    34  G34         0.2309
    764  O2'       15.3620  -23.0680   -8.1720 O.3    34  G34        -0.2156
    765  C1'       16.1440  -25.3450   -8.4330 C.3    34  G34         0.2408
    766  N1        18.0810  -27.9690   -4.5490 N.ar   34  G34        -0.1709
    767  C2        17.1110  -27.0120   -4.5450 C.ar   34  G34         0.2606
    768  N2        16.5760  -26.7460   -3.3630 N.pl3  34  G34        -0.0859
    769  N3        16.6950  -26.3700   -5.6190 N.ar   34  G34        -0.1918
    770  C4        17.3380  -26.7810   -6.7250 C.ar   34  G34         0.1723
    771  C5        18.3440  -27.7150   -6.8340 C.ar   34  G34         0.1748
    772  C6        18.7740  -28.3930   -5.6690 C.ar   34  G34         0.3023
    773  O6        19.6350  -29.2620   -5.5570 O.2    34  G34        -0.2633
    774  N7        18.7730  -27.8250   -8.1470 N.ar   34  G34        -0.2173
    775  C8        18.0210  -26.9820   -8.8020 C.ar   34  G34         0.1817
    776  N9        17.1660  -26.2810   -7.9920 N.ar   34  G34        -0.2693
    777  OP1       17.6150  -26.0180  -14.5050 O.2    34  G34        -0.5172
    778  OP2       19.1250  -27.3320  -12.9000 O.co2  34  G34        -0.4373
    779  P         18.0990  -21.4780  -10.5470 P.3    35  A35         0.2141
    780  C5'       18.3630  -20.6970   -8.0540 C.3    35  A35         0.1812
    781  O5'       18.9510  -21.3390   -9.2110 O.3    35  A35        -0.3114
    782  C4'       19.4660  -20.2060   -7.1550 C.3    35  A35         0.1773
    783  O4'       20.2320  -21.3410   -6.6670 O.3    35  A35        -0.3307
    784  C3'       20.4720  -19.3000   -7.8720 C.3    35  A35         0.1860
    785  O3'       20.6540  -18.0400   -7.2300 O.3    35  A35        -0.3112
    786  C2'       21.7610  -20.1170   -7.8790 C.3    35  A35         0.2309
    787  O2'       22.8870  -19.2600   -7.8800 O.3    35  A35        -0.2156
    788  C1'       21.5850  -20.9820   -6.6300 C.3    35  A35         0.2408
    789  N1        23.8670  -24.7070   -3.8620 N.ar   35  A35        -0.2040
    790  C2        23.0500  -23.7080   -3.5040 C.ar   35  A35         0.2016
    791  N3        22.4760  -22.7770   -4.2660 N.ar   35  A35        -0.2048
    792  C4        22.8080  -22.9500   -5.5590 C.ar   35  A35         0.1692
    793  C5        23.6380  -23.9270   -6.0750 C.ar   35  A35         0.1518
    794  C6        24.1770  -24.8480   -5.1710 C.ar   35  A35         0.1919
    795  N6        24.9670  -25.8560   -5.5400 N.pl3  35  A35        -0.1054
    796  N7        23.7770  -23.7820   -7.4460 N.ar   35  A35        -0.2193
    797  C8        23.0190  -22.7520   -7.7300 C.ar   35  A35         0.1816
    798  N9        22.4060  -22.1960   -6.6360 N.ar   35  A35        -0.2693
    799  OP1       17.3940  -20.1950  -10.8470 O.3    35  A35        -0.4373
    800  OP2       19.0120  -22.1520  -11.5010 O.co2  35  A35        -0.5172
    801  P         20.0530  -16.7110   -7.9190 P.3    36  G36         0.2141
    802  C5'       21.5540  -14.8560   -6.8240 C.3    36  G36         0.1812
    803  O5'       20.3210  -15.6230   -6.7890 O.3    36  G36        -0.3114
    804  C4'       22.0060  -14.6280   -5.4230 C.3    36  G36         0.1773
    805  O4'       20.9290  -14.0610   -4.6110 O.3    36  G36        -0.3307
    806  C3'       22.4180  -15.8960   -4.7210 C.3    36  G36         0.1860
    807  O3'       23.7900  -15.8870   -4.9040 O.3    36  G36        -0.3112
    808  C2'       22.1830  -15.5410   -3.2670 C.3    36  G36         0.2309
    809  O2'       23.1570  -14.7180   -2.6840 O.3    36  G36        -0.2156
    810  C1'       20.9190  -14.7010   -3.3540 C.3    36  G36         0.2408
    811  N1        18.0690  -17.5750   -0.3080 N.ar   36  G36        -0.1709
    812  C2        19.3420  -17.1080   -0.1250 C.ar   36  G36         0.2606
    813  N2        19.9070  -17.3810    1.0500 N.pl3  36  G36        -0.0859
    814  N3        19.9850  -16.3600   -0.9960 N.ar   36  G36        -0.1918
    815  C4        19.2890  -16.2050   -2.1370 C.ar   36  G36         0.1723
    816  C5        18.0350  -16.6730   -2.4450 C.ar   36  G36         0.1748
    817  C6        17.3260  -17.4210   -1.4700 C.ar   36  G36         0.3023
    818  O6        16.2000  -17.9240   -1.5510 O.2    36  G36        -0.2633
    819  N7        17.6500  -16.2510   -3.7070 N.ar   36  G36        -0.2173
    820  C8        18.6770  -15.5810   -4.1510 C.ar   36  G36         0.1817
    821  N9        19.6870  -15.4780   -3.2310 N.ar   36  G36        -0.2693
    822  OP1       18.5960  -16.6500   -8.1360 O.3    36  G36        -0.4373
    823  OP2       21.0440  -16.5490   -9.0390 O.co2  36  G36        -0.5172
    824  P         24.6570  -17.2080   -4.8090 P.3    37  U37         0.2141
    825  C5'       24.9920  -17.1920   -2.1950 C.3    37  U37         0.1812
    826  O5'       24.5320  -17.8590   -3.3720 O.3    37  U37        -0.3114
    827  C4'       24.6260  -18.0390   -1.0080 C.3    37  U37         0.1773
    828  O4'       23.1680  -18.1720   -0.8910 O.3    37  U37        -0.3307
    829  C3'       25.1550  -19.4500   -1.1130 C.3    37  U37         0.1860
    830  O3'       25.7470  -19.6400    0.1370 O.3    37  U37        -0.3112
    831  C2'       23.9030  -20.2610   -1.4370 C.3    37  U37         0.2309
    832  O2'       23.9330  -21.4700   -0.7770 O.3    37  U37        -0.2156
    833  C1'       22.8290  -19.5210   -0.6630 C.3    37  U37         0.2420
    834  N1        21.4800  -19.7310   -1.2030 N.ar   37  U37        -0.2534
    835  C2        20.4630  -20.1850   -0.3790 C.ar   37  U37         0.3546
    836  O2        20.6260  -20.4630    0.7960 O.2    37  U37        -0.2443
    837  N3        19.2400  -20.2960   -0.9850 N.ar   37  U37        -0.1530
    838  C4        18.9250  -19.9950   -2.2930 C.ar   37  U37         0.2846
    839  O4        17.7720  -20.1690   -2.7000 O.2    37  U37        -0.2650
    840  C5        20.0240  -19.5360   -3.0720 C.ar   37  U37         0.0814
    841  C6        21.2310  -19.4100   -2.5110 C.ar   37  U37         0.0870
    842  OP1       26.0610  -16.7000   -4.9970 O.3    37  U37        -0.4373
    843  OP2       23.9610  -18.1210   -5.7570 O.co2  37  U37        -0.5172
    844  P         27.2470  -20.1280    0.0600 P.3    38  C38         0.2141
    845  C5'       27.5080  -22.7890   -0.1950 C.3    38  C38         0.1812
    846  O5'       27.1710  -21.4970   -0.7750 O.3    38  C38        -0.3114
    847  C4'       27.9850  -23.7550   -1.2540 C.3    38  C38         0.1773
    848  O4'       26.9130  -24.0540   -2.1880 O.3    38  C38        -0.3307
    849  C3'       29.1070  -23.2530   -2.1380 C.3    38  C38         0.1860
    850  O3'       30.3340  -23.5910   -1.5070 O.3    38  C38        -0.3112
    851  C2'       28.9560  -24.1350   -3.3750 C.3    38  C38         0.2309
    852  O2'       29.4460  -25.4510   -3.2340 O.3    38  C38        -0.2156
    853  C1'       27.4420  -24.2390   -3.4900 C.3    38  C38         0.2420
    854  N1        26.8810  -23.2120   -4.3770 N.ar   38  C38        -0.2535
    855  C2        27.1930  -23.2400   -5.7460 C.ar   38  C38         0.3532
    856  O2        27.9190  -24.1500   -6.1830 O.2    38  C38        -0.2443
    857  N3        26.7190  -22.2640   -6.5510 N.ar   38  C38        -0.1739
    858  C4        25.9220  -21.3190   -6.0470 C.ar   38  C38         0.1759
    859  N4        25.3990  -20.4270   -6.8900 N.pl3  38  C38        -0.1070
    860  C5        25.5980  -21.2630   -4.6600 C.ar   38  C38         0.0566
    861  C6        26.1190  -22.2030   -3.8650 C.ar   38  C38         0.0850
    862  OP1       27.6560  -20.4160    1.4710 O.3    38  C38        -0.4373
    863  OP2       28.1270  -19.3260   -0.7940 O.co2  38  C38        -0.5172
    864  P         31.6720  -22.7890   -1.8520 P.3    39  C39         0.2141
    865  C5'       32.7680  -24.6070   -3.3920 C.3    39  C39         0.1812
    866  O5'       32.1350  -23.3330   -3.2710 O.3    39  C39        -0.3114
    867  C4'       32.9840  -24.8510   -4.8510 C.3    39  C39         0.1773
    868  O4'       31.7470  -24.5990   -5.5590 O.3    39  C39        -0.3307
    869  C3'       33.9000  -23.8340   -5.4760 C.3    39  C39         0.1860
    870  O3'       35.2240  -24.1990   -5.1170 O.3    39  C39        -0.3112
    871  C2'       33.5230  -23.9290   -6.9490 C.3    39  C39         0.2309
    872  O2'       33.8980  -25.1540   -7.5220 O.3    39  C39        -0.2156
    873  C1'       32.0340  -24.1980   -6.8770 C.3    39  C39         0.2420
    874  N1        31.2300  -23.0240   -7.1530 N.ar   39  C39        -0.2535
    875  C2        31.0930  -22.5770   -8.4800 C.ar   39  C39         0.3532
    876  O2        31.6950  -23.1790   -9.3790 O.2    39  C39        -0.2443
    877  N3        30.3440  -21.4780   -8.7360 N.ar   39  C39        -0.1739
    878  C4        29.7010  -20.8690   -7.7330 C.ar   39  C39         0.1759
    879  N4        28.8950  -19.8500   -8.0360 N.pl3  39  C39        -0.1070
    880  C5        29.8080  -21.3170   -6.3790 C.ar   39  C39         0.0566
    881  C6        30.6000  -22.3660   -6.1330 C.ar   39  C39         0.0850
    882  OP1       32.6750  -23.1840   -0.8530 O.3    39  C39        -0.4373
    883  OP2       31.2050  -21.3620   -2.0180 O.co2  39  C39        -0.5172
    884  P         36.3110  -23.0240   -5.1630 P.3    40  C40         0.2141
    885  C5'       35.9020  -22.3530   -7.6100 C.3    40  C40         0.1812
    886  O5'       36.6970  -23.0940   -6.7060 O.3    40  C40        -0.3114
    887  C4'       36.4310  -22.5410   -8.9880 C.3    40  C40         0.1773
    888  O4'       35.2620  -22.4610   -9.8190 O.3    40  C40        -0.3307
    889  C3'       37.3520  -21.4120   -9.4240 C.3    40  C40         0.1860
    890  O3'       38.7350  -21.7120   -9.5760 O.3    40  C40        -0.3112
    891  C2'       36.7500  -20.8890  -10.7280 C.3    40  C40         0.2309
    892  O2'       37.3880  -21.4040  -11.8770 O.3    40  C40        -0.2156
    893  C1'       35.2910  -21.3000  -10.5990 C.3    40  C40         0.2420
    894  N1        34.3920  -20.3140   -9.9920 N.ar   40  C40        -0.2535
    895  C2        33.8630  -19.3030  -10.8130 C.ar   40  C40         0.3532
    896  O2        34.2360  -19.2360  -11.9980 O.2    40  C40        -0.2443
    897  N3        32.9700  -18.4260  -10.2990 N.ar   40  C40        -0.1739
    898  C4        32.6200  -18.5160   -9.0180 C.ar   40  C40         0.1759
    899  N4        31.7540  -17.6150   -8.5490 N.pl3  40  C40        -0.1070
    900  C5        33.1170  -19.5510   -8.1670 C.ar   40  C40         0.0566
    901  C6        33.9930  -20.4230   -8.6920 C.ar   40  C40         0.0850
    902  OP1       37.4840  -23.3950   -4.3420 O.3    40  C40        -0.4373
    903  OP2       35.5520  -21.7810   -4.9040 O.co2  40  C40        -0.5172
    904  P         39.6590  -20.5080   -8.9950 P.3    41  G41         0.2141
    905  C5'       39.6850  -19.1170  -11.2370 C.3    41  G41         0.1812
    906  O5'       39.2400  -19.2340   -9.8680 O.3    41  G41        -0.3114
    907  C4'       38.9370  -17.9890  -11.9000 C.3    41  G41         0.1773
    908  O4'       37.5340  -18.1240  -11.5770 O.3    41  G41        -0.3307
    909  C3'       39.2600  -16.5930  -11.3940 C.3    41  G41         0.1860
    910  O3'       40.4610  -16.0590  -11.9620 O.3    41  G41        -0.3112
    911  C2'       38.0020  -15.8060  -11.7540 C.3    41  G41         0.2309
    912  O2'       37.9090  -15.4630  -13.1130 O.3    41  G41        -0.2156
    913  C1'       36.9150  -16.8410  -11.5160 C.3    41  G41         0.2408
    914  N1        33.6760  -14.3300   -8.5170 N.ar   41  G41        -0.1709
    915  C2        33.9530  -14.1250   -9.8470 C.ar   41  G41         0.2606
    916  N2        33.2820  -13.1170  -10.4400 N.pl3  41  G41        -0.0859
    917  N3        34.8160  -14.8630  -10.5450 N.ar   41  G41        -0.1918
    918  C4        35.3830  -15.8140   -9.7850 C.ar   41  G41         0.1723
    919  C5        35.1450  -16.1140   -8.4610 C.ar   41  G41         0.1748
    920  C6        34.2450  -15.3280   -7.7320 C.ar   41  G41         0.3023
    921  O6        33.9280  -15.4350   -6.5480 O.2    41  G41        -0.2633
    922  N7        35.9140  -17.1890   -8.0520 N.ar   41  G41        -0.2173
    923  C8        36.6150  -17.5030   -9.1080 C.ar   41  G41         0.1817
    924  N9        36.3390  -16.7040  -10.1930 N.ar   41  G41        -0.2693
    925  OP1       41.0760  -20.8740   -9.2660 O.2    41  G41        -0.5172
    926  OP2       39.1780  -20.4030   -7.5760 O.co2  41  G41        -0.4373
    927  P         41.5690  -15.4050  -10.9770 P.3    42  A42         0.2141
    928  C5'       42.1070  -13.2080  -12.2370 C.3    42  A42         0.1812
    929  O5'       41.2360  -13.9010  -11.3620 O.3    42  A42        -0.3114
    930  C4'       41.6440  -13.3540  -13.6630 C.3    42  A42         0.1773
    931  O4'       40.1940  -13.3690  -13.6940 O.3    42  A42        -0.3307
    932  C3'       41.9950  -12.1570  -14.5470 C.3    42  A42         0.1860
    933  O3'       43.3710  -12.2090  -14.9310 O.3    42  A42        -0.3112
    934  C2'       40.9750  -12.2840  -15.6670 C.3    42  A42         0.2309
    935  O2'       41.3190  -13.4050  -16.4550 O.3    42  A42        -0.2156
    936  C1'       39.7430  -12.7310  -14.8830 C.3    42  A42         0.2408
    937  N1        37.3100   -8.5310  -16.5280 N.ar   42  A42        -0.2040
    938  C2        38.1340   -9.3960  -17.1420 C.ar   42  A42         0.2016
    939  N3        38.7550  -10.4670  -16.6430 N.ar   42  A42        -0.2048
    940  C4        38.4350  -10.6350  -15.3490 C.ar   42  A42         0.1692
    941  C5        37.5910   -9.8390  -14.5880 C.ar   42  A42         0.1518
    942  C6        37.0200   -8.7320  -15.2190 C.ar   42  A42         0.1919
    943  N6        36.2080   -7.8750  -14.5960 N.pl3  42  A42        -0.1054
    944  N7        37.4800  -10.3290  -13.2960 N.ar   42  A42        -0.2193
    945  C8        38.2480  -11.3970  -13.3010 C.ar   42  A42         0.1816
    946  N9        38.8620  -11.6340  -14.5110 N.ar   42  A42        -0.2693
    947  OP1       42.8930  -15.8070  -11.4740 O.2    42  A42        -0.5172
    948  OP2       41.2780  -15.5750   -9.5250 O.co2  42  A42        -0.4373
    949  P         44.4300  -11.2140  -14.2460 P.3    43  A43         0.2141
    950  C5'       43.4380   -9.1780  -15.5400 C.3    43  A43         0.1812
    951  O5'       43.6470   -9.8170  -14.2620 O.3    43  A43        -0.3114
    952  C4'       42.3980   -8.0840  -15.4660 C.3    43  A43         0.1773
    953  O4'       41.1520   -8.6350  -14.9910 O.3    43  A43        -0.3307
    954  C3'       42.6760   -6.9730  -14.4750 C.3    43  A43         0.1860
    955  O3'       43.5490   -6.0230  -15.0580 O.3    43  A43        -0.3112
    956  C2'       41.2870   -6.3930  -14.2660 C.3    43  A43         0.2309
    957  O2'       40.8500   -5.5530  -15.3070 O.3    43  A43        -0.2156
    958  C1'       40.4420   -7.6640  -14.2340 C.3    43  A43         0.2408
    959  N1        37.8350   -7.2810   -9.7740 N.ar   43  A43        -0.2040
    960  C2        37.8130   -6.5320  -10.8950 C.ar   43  A43         0.2016
    961  N3        38.5150   -6.6790  -12.0240 N.ar   43  A43        -0.2048
    962  C4        39.3260   -7.7490  -11.9350 C.ar   43  A43         0.1692
    963  C5        39.4890   -8.5830  -10.8360 C.ar   43  A43         0.1518
    964  C6        38.6960   -8.3300   -9.7140 C.ar   43  A43         0.1919
    965  N6        38.7410   -9.0770   -8.5990 N.pl3  43  A43        -0.1054
    966  N7        40.4440   -9.5510  -11.0910 N.ar   43  A43        -0.2193
    967  C8        40.8420   -9.2870  -12.3140 C.ar   43  A43         0.1816
    968  N9        40.2090   -8.2060  -12.8840 N.ar   43  A43        -0.2693
    969  OP1       45.4480  -11.1940  -15.3200 O.2    43  A43        -0.5172
    970  OP2       44.8220  -11.7580  -12.9110 O.co2  43  A43        -0.4373
    971  P         44.5670   -5.1740  -14.1670 P.3    44  C44         0.2141
    972  C5'       43.1180   -3.0160  -14.0660 C.3    44  C44         0.1812
    973  O5'       43.6850   -4.1230  -13.3640 O.3    44  C44        -0.3114
    974  C4'       42.0700   -2.4070  -13.1890 C.3    44  C44         0.1773
    975  O4'       41.2240   -3.5040  -12.7610 O.3    44  C44        -0.3307
    976  C3'       42.5810   -1.8520  -11.8690 C.3    44  C44         0.1860
    977  O3'       43.1270   -0.5300  -11.8480 O.3    44  C44        -0.3112
    978  C2'       41.3480   -1.9260  -10.9860 C.3    44  C44         0.2309
    979  O2'       40.5530   -0.7760  -11.1150 O.3    44  C44        -0.2156
    980  C1'       40.6630   -3.2030  -11.4920 C.3    44  C44         0.2420
    981  N1        40.8630   -4.3600  -10.6000 N.ar   44  C44        -0.2535
    982  C2        40.2010   -4.3880   -9.3640 C.ar   44  C44         0.3532
    983  O2        39.4490   -3.4500   -9.0670 O.2    44  C44        -0.2443
    984  N3        40.4180   -5.4220   -8.5170 N.ar   44  C44        -0.1739
    985  C4        41.2310   -6.4200   -8.8790 C.ar   44  C44         0.1759
    986  N4        41.4110   -7.4200   -8.0200 N.pl3  44  C44        -0.1070
    987  C5        41.8930   -6.4350  -10.1450 C.ar   44  C44         0.0566
    988  C6        41.7020   -5.3810  -10.9560 C.ar   44  C44         0.0850
    989  OP1       45.2710   -4.4050  -15.2190 O.2    44  C44        -0.5172
    990  OP2       45.3050   -6.0570  -13.2390 O.co2  44  C44        -0.4373
    991  P         44.6340   -0.2520  -11.1930 P.3    45  U45         0.2141
    992  C5'       43.2730    1.1140   -9.5450 C.3    45  U45         0.1812
    993  O5'       44.3160    0.1540   -9.6840 O.3    45  U45        -0.3114
    994  C4'       42.6190    0.9920   -8.2060 C.3    45  U45         0.1773
    995  O4'       41.7030   -0.1300   -8.1980 O.3    45  U45        -0.3307
    996  C3'       43.5460    0.6800   -7.0510 C.3    45  U45         0.1860
    997  O3'       44.1110    1.9030   -6.6240 O.3    45  U45        -0.3112
    998  C2'       42.5610    0.1880   -6.0070 C.3    45  U45         0.2309
    999  O2'       41.8670    1.1830   -5.3090 O.3    45  U45        -0.2156
   1000  C1'       41.5730   -0.5970   -6.8670 C.3    45  U45         0.2420
   1001  N1        42.0100   -1.9860   -6.8110 N.ar   45  U45        -0.2534
   1002  C2        41.8450   -2.6290   -5.6030 C.ar   45  U45         0.3546
   1003  O2        41.2920   -2.1000   -4.6400 O.2    45  U45        -0.2443
   1004  N3        42.3630   -3.9010   -5.5570 N.ar   45  U45        -0.1530
   1005  C4        43.0310   -4.5630   -6.5650 C.ar   45  U45         0.2846
   1006  O4        43.4460   -5.6940   -6.3670 O.2    45  U45        -0.2650
   1007  C5        43.1750   -3.8220   -7.7760 C.ar   45  U45         0.0814
   1008  C6        42.7110   -2.5720   -7.8390 C.ar   45  U45         0.0870
   1009  OP1       44.9620    0.9990  -11.9170 O.2    45  U45        -0.5172
   1010  OP2       45.6090   -1.4040  -11.2510 O.co2  45  U45        -0.4373
   1011  P         45.6200    1.9720   -6.1000 P.3    46  G46         0.2141
   1012  C5'       45.2350    2.1850   -3.5480 C.3    46  G46         0.1812
   1013  O5'       45.3840    1.3350   -4.6550 O.3    46  G46        -0.3114
   1014  C4'       44.6550    1.3970   -2.4240 C.3    46  G46         0.1773
   1015  O4'       43.7850    0.3590   -2.9480 O.3    46  G46        -0.3307
   1016  C3'       45.6550    0.6190   -1.6020 C.3    46  G46         0.1860
   1017  O3'       46.1670    1.3560   -0.5270 O.3    46  G46        -0.3112
   1018  C2'       44.7570   -0.4010   -0.9320 C.3    46  G46         0.2309
   1019  O2'       44.1560    0.2040    0.1870 O.3    46  G46        -0.2156
   1020  C1'       43.8330   -0.7820   -2.0920 C.3    46  G46         0.2408
   1021  N1        45.1610   -5.6590   -1.8170 N.ar   46  G46        -0.1709
   1022  C2        44.5370   -4.8650   -0.8910 C.ar   46  G46         0.2606
   1023  N2        44.2510   -5.4290    0.2840 N.pl3  46  G46        -0.0859
   1024  N3        44.2410   -3.6010   -1.0880 N.ar   46  G46        -0.1918
   1025  C4        44.5590   -3.1950   -2.3300 C.ar   46  G46         0.1723
   1026  C5        45.1340   -3.9180   -3.3490 C.ar   46  G46         0.1748
   1027  C6        45.4730   -5.2760   -3.1140 C.ar   46  G46         0.3023
   1028  O6        45.9840   -6.0950   -3.8980 O.2    46  G46        -0.2633
   1029  N7        45.3300   -3.1210   -4.4690 N.ar   46  G46        -0.2173
   1030  C8        44.8780   -1.9490   -4.1140 C.ar   46  G46         0.1817
   1031  N9        44.3830   -1.9290   -2.8310 N.ar   46  G46        -0.2693
   1032  OP1       45.8350    3.4370   -6.0650 O.3    46  G46        -0.4373
   1033  OP2       46.5060    1.1070   -6.9350 O.co2  46  G46        -0.5172
   1034  P         47.7300    1.4860   -0.5030 P.3    47  U47         0.2141
   1035  C5'       47.2260    0.5320    1.8180 C.3    47  U47         0.1812
   1036  O5'       48.1720    0.6390    0.7680 O.3    47  U47        -0.3114
   1037  C4'       47.2770   -0.8330    2.4130 C.3    47  U47         0.1773
   1038  O4'       46.6760   -1.7780    1.4820 O.3    47  U47        -0.3307
   1039  C3'       48.6710   -1.3890    2.6000 C.3    47  U47         0.1860
   1040  O3'       49.3050   -0.7920    3.7270 O.3    47  U47        -0.3112
   1041  C2'       48.3810   -2.8930    2.7010 C.3    47  U47         0.2309
   1042  O2'       47.9030   -3.1600    3.9900 O.3    47  U47        -0.2156
   1043  C1'       47.2100   -3.0690    1.7190 C.3    47  U47         0.2420
   1044  N1        47.6390   -3.6130    0.4260 N.ar   47  U47        -0.2534
   1045  C2        48.1120   -4.9210    0.3690 C.ar   47  U47         0.3546
   1046  O2        48.1890   -5.6430    1.3450 O.2    47  U47        -0.2443
   1047  N3        48.5300   -5.3320   -0.8690 N.ar   47  U47        -0.1530
   1048  C4        48.5310   -4.6000   -2.0330 C.ar   47  U47         0.2846
   1049  O4        48.9630   -5.1100   -3.0740 O.2    47  U47        -0.2650
   1050  C5        48.0090   -3.2680   -1.8960 C.ar   47  U47         0.0814
   1051  C6        47.5800   -2.8370   -0.7020 C.ar   47  U47         0.0870
   1052  OP1       48.0060    2.8060    0.1000 O.3    47  U47        -0.4373
   1053  OP2       48.2610    1.1610   -1.8400 O.co2  47  U47        -0.5172
   1054  P         50.9360   -0.7120    3.6950 P.3    48  G48         0.2141
   1055  C5'       51.6070   -3.2450    4.2130 C.3    48  G48         0.1812
   1056  O5'       51.5580   -2.1250    3.2790 O.3    48  G48        -0.3114
   1057  C4'       52.1170   -4.4230    3.4740 C.3    48  G48         0.1773
   1058  O4'       51.2580   -4.6860    2.3320 O.3    48  G48        -0.3307
   1059  C3'       53.4350   -4.1690    2.8030 C.3    48  G48         0.1860
   1060  O3'       54.3920   -4.0220    3.8350 O.3    48  G48        -0.3112
   1061  C2'       53.4650   -5.3190    1.8060 C.3    48  G48         0.2309
   1062  O2'       53.5890   -6.4820    2.5640 O.3    48  G48        -0.2156
   1063  C1'       52.0110   -5.3540    1.3230 C.3    48  G48         0.2408
   1064  N1        51.9470   -5.4270   -3.7880 N.ar   48  G48        -0.1709
   1065  C2        52.0760   -6.4730   -2.9270 C.ar   48  G48         0.2606
   1066  N2        52.2210   -7.6650   -3.5020 N.pl3  48  G48        -0.0859
   1067  N3        52.0560   -6.3570   -1.6090 N.ar   48  G48        -0.1918
   1068  C4        51.8890   -5.0780   -1.2230 C.ar   48  G48         0.1723
   1069  C5        51.8120   -3.9530   -2.0120 C.ar   48  G48         0.1748
   1070  C6        51.8440   -4.0960   -3.4130 C.ar   48  G48         0.3023
   1071  O6        51.7990   -3.2210   -4.2740 O.2    48  G48        -0.2633
   1072  N7        51.6890   -2.8200   -1.2400 N.ar   48  G48        -0.2173
   1073  C8        51.7320   -3.2550   -0.0120 C.ar   48  G48         0.1817
   1074  N9        51.8560   -4.6130    0.0740 N.ar   48  G48        -0.2693
   1075  OP1       51.6380   -0.4590    5.0320 O.3    48  G48        -0.4373
   1076  OP2       51.3500   -0.0340    2.4580 O.co2  48  G48        -0.5172
   1077  P         55.9060   -3.7950    3.3880 P.3    49  A49         0.2141
   1078  C5'       57.6820   -5.7350    3.7820 C.3    49  A49         0.1812
   1079  O5'       56.6060   -5.1620    3.0080 O.3    49  A49        -0.3114
   1080  C4'       57.2850   -7.1390    4.1830 C.3    49  A49         0.1773
   1081  O4'       56.0770   -7.6040    3.4870 O.3    49  A49        -0.3307
   1082  C3'       58.2780   -8.2540    3.9370 C.3    49  A49         0.1860
   1083  O3'       59.1210   -8.2040    5.0670 O.3    49  A49        -0.3112
   1084  C2'       57.3820   -9.4570    4.1440 C.3    49  A49         0.2309
   1085  O2'       57.2190   -9.4090    5.5330 O.3    49  A49        -0.2156
   1086  C1'       56.0600   -9.0020    3.5020 C.3    49  A49         0.2408
   1087  N1        56.2760  -13.0920    0.4730 N.ar   49  A49        -0.2040
   1088  C2        56.3250  -12.9430    1.7970 C.ar   49  A49         0.2016
   1089  N3        56.2800  -11.8370    2.5200 N.ar   49  A49        -0.2048
   1090  C4        56.1630  -10.7590    1.7280 C.ar   49  A49         0.1692
   1091  C5        56.0700  -10.7510    0.3520 C.ar   49  A49         0.1518
   1092  C6        56.1600  -11.9970   -0.2990 C.ar   49  A49         0.1919
   1093  N6        56.0570  -12.1660   -1.6200 N.pl3  49  A49        -0.1054
   1094  N7        55.8540   -9.4610   -0.1150 N.ar   49  A49        -0.2193
   1095  C8        55.8140   -8.7360    0.9750 C.ar   49  A49         0.1816
   1096  N9        55.9730   -9.4600    2.1260 N.ar   49  A49        -0.2693
   1097  OP1       56.7830   -3.3620    4.4820 O.3    49  A49        -0.4373
   1098  OP2       56.1510   -3.4270    1.9790 O.co2  49  A49        -0.5172
   1099  P         60.7110   -8.4330    4.8800 P.3    50  A50         0.2141
   1100  C5'       62.3520   -9.9390    6.3090 C.3    50  A50         0.1812
   1101  O5'       61.0160   -9.7200    5.7740 O.3    50  A50        -0.3114
   1102  C4'       62.3670  -10.7490    7.5890 C.3    50  A50         0.1773
   1103  O4'       61.1080  -11.4180    7.7830 O.3    50  A50        -0.3307
   1104  C3'       63.3690  -11.8910    7.5850 C.3    50  A50         0.1860
   1105  O3'       64.5450  -11.6050    8.3480 O.3    50  A50        -0.3112
   1106  C2'       62.5710  -13.1090    8.0910 C.3    50  A50         0.2309
   1107  O2'       63.1480  -13.9340    9.1030 O.3    50  A50        -0.2156
   1108  C1'       61.3250  -12.4680    8.6670 C.3    50  A50         0.2408
   1109  N1        57.9180  -15.1850   11.3940 N.ar   50  A50        -0.2040
   1110  C2        58.9380  -14.3920   11.7670 C.ar   50  A50         0.2016
   1111  N3        59.7800  -13.6920   11.0070 N.ar   50  A50        -0.2048
   1112  C4        59.4900  -13.8620    9.7030 C.ar   50  A50         0.1692
   1113  C5        58.4710  -14.6400    9.1710 C.ar   50  A50         0.1518
   1114  C6        57.6370  -15.3010   10.0740 C.ar   50  A50         0.1919
   1115  N6        56.5900  -16.0380    9.6950 N.pl3  50  A50        -0.1054
   1116  N7        58.4970  -14.6100    7.7850 N.ar   50  A50        -0.2193
   1117  C8        59.5170  -13.8310    7.5100 C.ar   50  A50         0.1816
   1118  N9        60.1640  -13.3450    8.6250 N.ar   50  A50        -0.2693
   1119  OP1       61.5150   -7.3190    5.5100 O.3    50  A50        -0.4373
   1120  OP2       60.9350   -8.7500    3.4590 O.co2  50  A50        -0.5172
   1121  P         65.2840  -10.2070    8.6140 P.3    51  G51         0.2141
   1122  C5'       64.3460  -10.2400   11.0500 C.3    51  G51         0.1812
   1123  O5'       64.4230   -9.5650    9.7820 O.3    51  G51        -0.3114
   1124  C4'       65.0850   -9.4800   12.1190 C.3    51  G51         0.1773
   1125  O4'       66.5190   -9.7230   12.0820 O.3    51  G51        -0.3307
   1126  C3'       64.9920   -7.9760   12.0530 C.3    51  G51         0.1860
   1127  O3'       63.7740   -7.6380   12.6460 O.3    51  G51        -0.3112
   1128  C2'       66.1020   -7.5610   12.9980 C.3    51  G51         0.2309
   1129  O2'       65.5410   -7.5440   14.2900 O.3    51  G51        -0.2156
   1130  C1'       67.1920   -8.5910   12.6520 C.3    51  G51         0.2408
   1131  N1        70.3120   -4.7900   11.3210 N.ar   51  G51        -0.1709
   1132  C2        69.6410   -4.9870   12.5010 C.ar   51  G51         0.2606
   1133  N2        69.8050   -4.0430   13.4370 N.pl3  51  G51        -0.0859
   1134  N3        68.8530   -6.0260   12.7400 N.ar   51  G51        -0.1918
   1135  C4        68.8030   -6.8740   11.6920 C.ar   51  G51         0.1723
   1136  C5        69.4300   -6.7660   10.4700 C.ar   51  G51         0.1748
   1137  C6        70.2630   -5.6420   10.2230 C.ar   51  G51         0.3023
   1138  O6        70.9060   -5.3690    9.2050 O.2    51  G51        -0.2633
   1139  N7        69.1130   -7.8450    9.6570 N.ar   51  G51        -0.2173
   1140  C8        68.2990   -8.5650   10.3790 C.ar   51  G51         0.1817
   1141  N9        68.0940   -8.0510   11.6360 N.ar   51  G51        -0.2693
   1142  OP1       65.1520   -9.4790    7.3370 O.2    51  G51        -0.5172
   1143  OP2       66.6290  -10.4740    9.2100 O.co2  51  G51        -0.4373
   1144  P         63.1100   -6.3780   11.9980 P.3    52  G52         0.2141
   1145  C5'       63.4970   -4.6750   13.9480 C.3    52  G52         0.1812
   1146  O5'       64.0140   -5.3400   12.7970 O.3    52  G52        -0.3114
   1147  C4'       64.3950   -3.5250   14.2990 C.3    52  G52         0.1773
   1148  O4'       65.7660   -3.9260   14.0750 O.3    52  G52        -0.3307
   1149  C3'       64.2350   -2.2860   13.4480 C.3    52  G52         0.1860
   1150  O3'       63.2200   -1.4980   14.0060 O.3    52  G52        -0.3112
   1151  C2'       65.5950   -1.6270   13.5930 C.3    52  G52         0.2309
   1152  O2'       65.9560   -1.0670   14.8350 O.3    52  G52        -0.2156
   1153  C1'       66.5090   -2.8390   13.5560 C.3    52  G52         0.2408
   1154  N1        69.1010   -1.2010    9.5350 N.ar   52  G52        -0.1709
   1155  C2        68.8040   -0.5540   10.7110 C.ar   52  G52         0.2606
   1156  N2        69.3110    0.6830   10.8570 N.pl3  52  G52        -0.0859
   1157  N3        68.1010   -1.0930   11.6920 N.ar   52  G52        -0.1918
   1158  C4        67.7090   -2.3490   11.4000 C.ar   52  G52         0.1723
   1159  C5        67.9340   -3.0770   10.2520 C.ar   52  G52         0.1748
   1160  C6        68.7060   -2.4930    9.2130 C.ar   52  G52         0.3023
   1161  O6        69.0150   -2.9760    8.1170 O.2    52  G52        -0.2633
   1162  N7        67.3500   -4.3320   10.3420 N.ar   52  G52        -0.2173
   1163  C8        66.7740   -4.3350   11.5130 C.ar   52  G52         0.1817
   1164  N9        66.9670   -3.1670   12.2120 N.ar   52  G52        -0.2693
   1165  OP1       61.7160   -6.2400   12.4650 O.3    52  G52        -0.4373
   1166  OP2       63.3850   -6.3250   10.5340 O.co2  52  G52        -0.5172
   1167  P         62.0230   -1.2480   12.9910 P.3    53  C53         0.2141
   1168  C5'       62.5720    1.2740   13.2990 C.3    53  C53         0.1812
   1169  O5'       62.5550    0.1280   12.4090 O.3    53  C53        -0.3114
   1170  C4'       63.6060    2.2470   12.8380 C.3    53  C53         0.1773
   1171  O4'       64.8140    1.5080   12.5410 O.3    53  C53        -0.3307
   1172  C3'       63.2870    2.9110   11.5190 C.3    53  C53         0.1860
   1173  O3'       62.4430    4.0120   11.7540 O.3    53  C53        -0.3112
   1174  C2'       64.6640    3.3400   11.0540 C.3    53  C53         0.2309
   1175  O2'       65.0530    4.5130   11.7280 O.3    53  C53        -0.2156
   1176  C1'       65.5180    2.1510   11.5000 C.3    53  C53         0.2420
   1177  N1        65.7490    1.1790   10.4240 N.ar   53  C53        -0.2535
   1178  C2        66.4860    1.5950    9.3190 C.ar   53  C53         0.3532
   1179  O2        66.9330    2.7520    9.3040 O.2    53  C53        -0.2443
   1180  N3        66.7070    0.7290    8.3000 N.ar   53  C53        -0.1739
   1181  C4        66.2280   -0.5140    8.3670 C.ar   53  C53         0.1759
   1182  N4        66.4780   -1.3350    7.3450 N.pl3  53  C53        -0.1070
   1183  C5        65.4760   -0.9700    9.4900 C.ar   53  C53         0.0566
   1184  C6        65.2490   -0.0930   10.4800 C.ar   53  C53         0.0850
   1185  OP1       60.7570   -0.8790   13.6680 O.3    53  C53        -0.4373
   1186  OP2       62.0190   -2.3180   11.9720 O.co2  53  C53        -0.5172
   1187  P         61.2190    4.1310   10.7290 P.3    54  A54         0.2141
   1188  C5'       62.2920    6.1960    9.4190 C.3    54  A54         0.1812
   1189  O5'       61.9230    4.8020    9.4620 O.3    54  A54        -0.3114
   1190  C4'       63.2790    6.4080    8.3020 C.3    54  A54         0.1773
   1191  O4'       64.2280    5.3110    8.3000 O.3    54  A54        -0.3307
   1192  C3'       62.7030    6.3210    6.8980 C.3    54  A54         0.1860
   1193  O3'       61.8370    7.3860    6.5570 O.3    54  A54        -0.3112
   1194  C2'       63.9450    6.0370    6.0550 C.3    54  A54         0.2309
   1195  O2'       64.8680    7.0710    5.7750 O.3    54  A54        -0.2156
   1196  C1'       64.7390    5.1270    6.9870 C.3    54  A54         0.2408
   1197  N1        66.2600    1.5740    3.6170 N.ar   54  A54        -0.2040
   1198  C2        66.4730    2.8950    3.7010 C.ar   54  A54         0.2016
   1199  N3        66.0530    3.7620    4.6250 N.ar   54  A54        -0.2048
   1200  C4        65.2880    3.1440    5.5420 C.ar   54  A54         0.1692
   1201  C5        64.9650    1.7980    5.5810 C.ar   54  A54         0.1518
   1202  C6        65.4950    0.9830    4.5600 C.ar   54  A54         0.1919
   1203  N6        65.2910   -0.3280    4.4800 N.pl3  54  A54        -0.1054
   1204  N7        64.1560    1.5200    6.6740 N.ar   54  A54        -0.2193
   1205  C8        63.9990    2.6860    7.2550 C.ar   54  A54         0.1816
   1206  N9        64.6650    3.7110    6.6270 N.ar   54  A54        -0.2693
   1207  OP1       60.1890    5.0480   11.2980 O.3    54  A54        -0.4373
   1208  OP2       60.8380    2.7470   10.3260 O.co2  54  A54        -0.5172
   1209  P         60.4250    6.8640    5.9680 P.3    55  G55         0.2141
   1210  C5'       61.2180    7.5210    3.5580 C.3    55  G55         0.1812
   1211  O5'       61.0460    6.5260    4.5480 O.3    55  G55        -0.3114
   1212  C4'       62.1550    6.9750    2.5370 C.3    55  G55         0.1773
   1213  O4'       62.8390    5.8230    3.0730 O.3    55  G55        -0.3307
   1214  C3'       61.5480    6.3500    1.3120 C.3    55  G55         0.1860
   1215  O3'       60.8990    7.2860    0.5000 O.3    55  G55        -0.3112
   1216  C2'       62.7630    5.6530    0.7290 C.3    55  G55         0.2309
   1217  O2'       63.6620    6.5500    0.1300 O.3    55  G55        -0.2156
   1218  C1'       63.4410    5.1240    2.0010 C.3    55  G55         0.2408
   1219  N1        64.3040    0.5260    0.1010 N.ar   55  G55        -0.1709
   1220  C2        64.8100    1.7400   -0.2840 C.ar   55  G55         0.2606
   1221  N2        65.6510    1.7200   -1.3180 N.pl3  55  G55        -0.0859
   1222  N3        64.5440    2.8800    0.3280 N.ar   55  G55        -0.1918
   1223  C4        63.6790    2.7080    1.3520 C.ar   55  G55         0.1723
   1224  C5        63.1060    1.5390    1.8090 C.ar   55  G55         0.1748
   1225  C6        63.4250    0.3230    1.1550 C.ar   55  G55         0.3023
   1226  O6        63.0210   -0.8140    1.4030 O.2    55  G55        -0.2633
   1227  N7        62.2660    1.7910    2.8880 N.ar   55  G55        -0.2173
   1228  C8        62.3320    3.0860    3.0550 C.ar   55  G55         0.1817
   1229  N9        63.1840    3.7000    2.1670 N.ar   55  G55        -0.2693
   1230  OP1       59.3340    7.8800    5.8470 O.2    55  G55        -0.5172
   1231  OP2       60.0720    5.4910    6.4150 O.co2  55  G55        -0.4373
   1232  P         59.3870    6.7900    0.1600 P.3    56  A56         0.2141
   1233  C5'       60.1040    6.1190   -2.2200 C.3    56  A56         0.1812
   1234  O5'       59.9430    5.7090   -0.8830 O.3    56  A56        -0.3114
   1235  C4'       60.8110    5.0850   -3.0340 C.3    56  A56         0.1773
   1236  O4'       61.7450    4.2880   -2.2670 O.3    56  A56        -0.3307
   1237  C3'       59.9440    4.0600   -3.7460 C.3    56  A56         0.1860
   1238  O3'       59.4190    4.6590   -4.9050 O.3    56  A56        -0.3112
   1239  C2'       60.9820    3.0140   -4.1400 C.3    56  A56         0.2309
   1240  O2'       61.6820    3.2790   -5.3380 O.3    56  A56        -0.2156
   1241  C1'       61.9300    3.0390   -2.9290 C.3    56  A56         0.2408
   1242  N1        61.8640   -2.0370   -2.1590 N.ar   56  A56        -0.2040
   1243  C2        62.4110   -1.2810   -3.1250 C.ar   56  A56         0.2016
   1244  N3        62.4020    0.0420   -3.2610 N.ar   56  A56        -0.2048
   1245  C4        61.7210    0.6170   -2.2460 C.ar   56  A56         0.1692
   1246  C5        61.1330   -0.0260   -1.1720 C.ar   56  A56         0.1518
   1247  C6        61.1940   -1.4250   -1.1550 C.ar   56  A56         0.1919
   1248  N6        60.6810   -2.1710   -0.1770 N.pl3  56  A56        -0.1054
   1249  N7        60.5950    0.8940   -0.2870 N.ar   56  A56        -0.2193
   1250  C8        60.8090    2.0480   -0.8650 C.ar   56  A56         0.1816
   1251  N9        61.5260    1.9590   -2.0270 N.ar   56  A56        -0.2693
   1252  OP1       58.6850    7.6880   -0.7940 O.2    56  A56        -0.5172
   1253  OP2       58.6210    6.2940    1.3400 O.co2  56  A56        -0.4373
   1254  P         58.0080    4.2040   -5.3050 P.3    57  A57         0.2141
   1255  C5'       57.6130    1.6610   -6.0760 C.3    57  A57         0.1812
   1256  O5'       58.3840    2.9060   -6.1540 O.3    57  A57        -0.3114
   1257  C4'       58.4860    0.5320   -6.5820 C.3    57  A57         0.1773
   1258  O4'       59.3880    0.0740   -5.5360 O.3    57  A57        -0.3307
   1259  C3'       57.7900   -0.7030   -7.1180 C.3    57  A57         0.1860
   1260  O3'       57.7500   -0.5550   -8.5300 O.3    57  A57        -0.3112
   1261  C2'       58.7640   -1.8320   -6.7900 C.3    57  A57         0.2309
   1262  O2'       59.7940   -1.9110   -7.7360 O.3    57  A57        -0.2156
   1263  C1'       59.4780   -1.3290   -5.5380 C.3    57  A57         0.2408
   1264  N1        58.5160   -5.4130   -2.5250 N.ar   57  A57        -0.2040
   1265  C2        59.0010   -5.3130   -3.7710 C.ar   57  A57         0.2016
   1266  N3        59.2120   -4.2340   -4.5050 N.ar   57  A57        -0.2048
   1267  C4        58.9040   -3.1260   -3.8130 C.ar   57  A57         0.1692
   1268  C5        58.4210   -3.0660   -2.5200 C.ar   57  A57         0.1518
   1269  C6        58.2510   -4.2860   -1.8440 C.ar   57  A57         0.1919
   1270  N6        57.8220   -4.3920   -0.5880 N.pl3  57  A57        -0.1054
   1271  N7        58.2180   -1.7520   -2.1360 N.ar   57  A57        -0.2193
   1272  C8        58.6030   -1.0580   -3.1760 C.ar   57  A57         0.1816
   1273  N9        58.9910   -1.8240   -4.2410 N.ar   57  A57        -0.2693
   1274  OP1       57.5240    5.1030   -6.3490 O.2    57  A57        -0.5172
   1275  OP2       57.1310    3.8710   -4.1440 O.co2  57  A57        -0.4373
   1276  P         56.3030   -0.2420   -9.1350 P.3    58  G58         0.2141
   1277  C5'       55.9680   -2.8110   -8.9740 C.3    58  G58         0.1812
   1278  O5'       55.4160   -1.5050   -8.7660 O.3    58  G58        -0.3114
   1279  C4'       55.4190   -3.7670   -7.9540 C.3    58  G58         0.1773
   1280  O4'       55.6110   -3.2050   -6.6270 O.3    58  G58        -0.3307
   1281  C3'       53.9350   -4.0400   -8.0460 C.3    58  G58         0.1860
   1282  O3'       53.7580   -5.3120   -7.3670 O.3    58  G58        -0.3112
   1283  C2'       53.4120   -2.9710   -7.1260 C.3    58  G58         0.2309
   1284  O2'       52.0620   -3.1100   -6.7640 O.3    58  G58        -0.2156
   1285  C1'       54.3680   -3.1590   -5.9570 C.3    58  G58         0.2408
   1286  N1        54.9520   -1.5590   -1.1390 N.ar   58  G58        -0.1709
   1287  C2        54.9440   -2.8400   -1.6120 C.ar   58  G58         0.2606
   1288  N2        55.0910   -3.7920   -0.6810 N.pl3  58  G58        -0.0859
   1289  N3        54.7510   -3.1600   -2.8870 N.ar   58  G58        -0.1918
   1290  C4        54.6280   -2.0630   -3.6640 C.ar   58  G58         0.1723
   1291  C5        54.6230   -0.7390   -3.2810 C.ar   58  G58         0.1748
   1292  C6        54.7880   -0.4210   -1.9100 C.ar   58  G58         0.3023
   1293  O6        54.8280    0.6840   -1.3750 O.2    58  G58        -0.2633
   1294  N7        54.4110    0.0860   -4.3720 N.ar   58  G58        -0.2173
   1295  C8        54.3820   -0.7230   -5.3910 C.ar   58  G58         0.1817
   1296  N9        54.4260   -2.0450   -5.0280 N.ar   58  G58        -0.2693
   1297  OP1       56.4940   -0.1770  -10.5990 O.2    58  G58        -0.5172
   1298  OP2       55.4340    0.6570   -8.3980 O.co2  58  G58        -0.4373
   1299  P         52.3660   -6.1620   -7.4710 P.3    59  U59         0.2141
   1300  C5'       53.6080   -8.2070   -8.4380 C.3    59  U59         0.1812
   1301  O5'       53.2080   -7.4960   -7.2720 O.3    59  U59        -0.3114
   1302  C4'       54.4170   -9.3530   -7.9780 C.3    59  U59         0.1773
   1303  O4'       55.6300   -8.8880   -7.3370 O.3    59  U59        -0.3307
   1304  C3'       53.7420  -10.1580   -6.9110 C.3    59  U59         0.1860
   1305  O3'       53.1070  -11.1250   -7.6910 O.3    59  U59        -0.3112
   1306  C2'       54.9390  -10.8160   -6.2440 C.3    59  U59         0.2309
   1307  O2'       55.4540  -11.7620   -7.1410 O.3    59  U59        -0.2156
   1308  C1'       55.8940   -9.6430   -6.1730 C.3    59  U59         0.2420
   1309  N1        55.6500   -8.7700   -5.0210 N.ar   59  U59        -0.2534
   1310  C2        55.9150   -9.2690   -3.7600 C.ar   59  U59         0.3546
   1311  O2        56.3480  -10.3810   -3.5720 O.2    59  U59        -0.2443
   1312  N3        55.7350   -8.3800   -2.7350 N.ar   59  U59        -0.1530
   1313  C4        55.3010   -7.0790   -2.8280 C.ar   59  U59         0.2846
   1314  O4        55.1040   -6.4370   -1.8000 O.2    59  U59        -0.2650
   1315  C5        55.0260   -6.6380   -4.1650 C.ar   59  U59         0.0814
   1316  C6        55.2210   -7.4720   -5.1930 C.ar   59  U59         0.0870
   1317  OP1       51.9100   -6.1560   -8.9160 O.2    59  U59        -0.5172
   1318  OP2       51.3440   -6.0140   -6.4080 O.co2  59  U59        -0.4373
   1319  P         51.7570  -11.7680   -7.3000 P.3    60  A60         0.2141
   1320  C5'       53.0070  -13.6980   -6.0950 C.3    60  A60         0.1812
   1321  O5'       52.2210  -12.5370   -5.9880 O.3    60  A60        -0.3114
   1322  C4'       52.9140  -14.4730   -4.8000 C.3    60  A60         0.1773
   1323  O4'       53.8300  -13.8960   -3.8180 O.3    60  A60        -0.3307
   1324  C3'       51.5550  -14.3660   -4.1650 C.3    60  A60         0.1860
   1325  O3'       50.8580  -15.4480   -4.6320 O.3    60  A60        -0.3112
   1326  C2'       51.8520  -14.5460   -2.6980 C.3    60  A60         0.2309
   1327  O2'       51.8990  -15.8900   -2.5830 O.3    60  A60        -0.2156
   1328  C1'       53.2410  -13.9030   -2.5410 C.3    60  A60         0.2408
   1329  N1        53.0590  -10.6960    1.4890 N.ar   60  A60        -0.2040
   1330  C2        53.4270  -11.9800    1.3910 C.ar   60  A60         0.2016
   1331  N3        53.4910  -12.7540    0.3150 N.ar   60  A60        -0.2048
   1332  C4        53.0690  -12.0860   -0.7730 C.ar   60  A60         0.1692
   1333  C5        52.5990  -10.7870   -0.8120 C.ar   60  A60         0.1518
   1334  C6        52.6330  -10.0630    0.3740 C.ar   60  A60         0.1919
   1335  N6        52.2380   -8.7990    0.4640 N.pl3  60  A60        -0.1054
   1336  N7        52.2030  -10.4460   -2.0910 N.ar   60  A60        -0.2193
   1337  C8        52.4650  -11.5200   -2.7960 C.ar   60  A60         0.1816
   1338  N9        53.0690  -12.5200   -2.0770 N.ar   60  A60        -0.2693
   1339  OP1       51.7720  -12.4940   -8.5810 O.2    60  A60        -0.5172
   1340  OP2       50.5960  -10.8450   -7.0300 O.co2  60  A60        -0.4373
   1341  P         49.2840  -15.7000   -4.4470 P.3    61  A61         0.2141
   1342  C5'       49.0720  -16.1980   -1.9280 C.3    61  A61         0.1812
   1343  O5'       48.7770  -15.3570   -2.9790 O.3    61  A61        -0.3114
   1344  C4'       48.5840  -15.5740   -0.6600 C.3    61  A61         0.1773
   1345  O4'       49.5640  -14.5730   -0.2550 O.3    61  A61        -0.3307
   1346  C3'       47.2600  -14.8420   -0.7300 C.3    61  A61         0.1860
   1347  O3'       46.2170  -15.6990   -0.3840 O.3    61  A61        -0.3112
   1348  C2'       47.4470  -13.8070    0.3720 C.3    61  A61         0.2309
   1349  O2'       47.5410  -14.2640    1.6900 O.3    61  A61        -0.2156
   1350  C1'       48.8960  -13.3980    0.1530 C.3    61  A61         0.2408
   1351  N1        48.6890   -8.4010   -0.7900 N.ar   61  A61        -0.2040
   1352  C2        48.6990   -9.1040    0.3410 C.ar   61  A61         0.2016
   1353  N3        48.8000  -10.4090    0.5140 N.ar   61  A61        -0.2048
   1354  C4        48.8390  -11.0400   -0.6730 C.ar   61  A61         0.1692
   1355  C5        48.8210  -10.4520   -1.9220 C.ar   61  A61         0.1518
   1356  C6        48.7560   -9.0550   -1.9610 C.ar   61  A61         0.1919
   1357  N6        48.7640   -8.3430   -3.0850 N.pl3  61  A61        -0.1054
   1358  N7        48.8960  -11.4140   -2.9170 N.ar   61  A61        -0.2193
   1359  C8        49.0060  -12.5390   -2.2560 C.ar   61  A61         0.1816
   1360  N9        48.9820  -12.3860   -0.8960 N.ar   61  A61        -0.2693
   1361  OP1       49.2780  -17.1650   -4.6650 O.3    61  A61        -0.4373
   1362  OP2       48.3570  -14.8690   -5.3220 O.co2  61  A61        -0.5172
   1363  P         44.6770  -15.4280   -0.7270 P.3    62  C62         0.2141
   1364  C5'       44.4310  -14.3360    1.6420 C.3    62  C62         0.1812
   1365  O5'       44.0900  -14.3200    0.2530 O.3    62  C62        -0.3114
   1366  C4'       44.0280  -13.0320    2.2650 C.3    62  C62         0.1773
   1367  O4'       45.1600  -12.1350    2.1030 O.3    62  C62        -0.3307
   1368  C3'       42.8400  -12.2670    1.6640 C.3    62  C62         0.1860
   1369  O3'       41.6150  -12.5540    2.2900 O.3    62  C62        -0.3112
   1370  C2'       43.1710  -10.8370    2.0590 C.3    62  C62         0.2309
   1371  O2'       42.9910  -10.6860    3.4490 O.3    62  C62        -0.2156
   1372  C1'       44.6880  -10.8260    1.8730 C.3    62  C62         0.2420
   1373  N1        44.9660  -10.4720    0.4950 N.ar   62  C62        -0.2535
   1374  C2        45.0100   -9.1180    0.2060 C.ar   62  C62         0.3532
   1375  O2        44.8980   -8.3170    1.1360 O.2    62  C62        -0.2443
   1376  N3        45.1820   -8.7120   -1.0710 N.ar   62  C62        -0.1739
   1377  C4        45.3090   -9.6120   -2.0370 C.ar   62  C62         0.1759
   1378  N4        45.4780   -9.1630   -3.2710 N.pl3  62  C62        -0.1070
   1379  C5        45.2540  -11.0150   -1.7760 C.ar   62  C62         0.0566
   1380  C6        45.0720  -11.3980   -0.5060 C.ar   62  C62         0.0850
   1381  OP1       43.9310  -16.6130   -0.1960 O.3    62  C62        -0.4373
   1382  OP2       44.3350  -14.9000   -2.0820 O.co2  62  C62        -0.5172
   1383  P         40.1660  -12.3420    1.5840 P.3    63  A63         0.2141
   1384  C5'       39.9370  -10.1280    3.0530 C.3    63  A63         0.1812
   1385  O5'       39.5920  -10.8840    1.8710 O.3    63  A63        -0.3114
   1386  C4'       39.6910   -8.6660    2.7630 C.3    63  A63         0.1773
   1387  O4'       40.9050   -8.0570    2.2140 O.3    63  A63        -0.3307
   1388  C3'       38.6250   -8.4330    1.6940 C.3    63  A63         0.1860
   1389  O3'       37.3040   -8.4990    2.2160 O.3    63  A63        -0.3112
   1390  C2'       39.0170   -7.0680    1.1290 C.3    63  A63         0.2309
   1391  O2'       38.4540   -5.9860    1.8500 O.3    63  A63        -0.2156
   1392  C1'       40.5510   -7.1200    1.2060 C.3    63  A63         0.2408
   1393  N1        41.8040   -5.5440   -3.5180 N.ar   63  A63        -0.2040
   1394  C2        41.2880   -4.9110   -2.4600 C.ar   63  A63         0.2016
   1395  N3        40.9920   -5.3890   -1.2490 N.ar   63  A63        -0.2048
   1396  C4        41.3100   -6.6910   -1.1610 C.ar   63  A63         0.1692
   1397  C5        41.8420   -7.4810   -2.1600 C.ar   63  A63         0.1518
   1398  C6        42.1130   -6.8530   -3.3970 C.ar   63  A63         0.1919
   1399  N6        42.6530   -7.4750   -4.4460 N.pl3  63  A63        -0.1054
   1400  N7        42.0410   -8.7770   -1.7040 N.ar   63  A63        -0.2193
   1401  C8        41.6030   -8.7490   -0.4690 C.ar   63  A63         0.1816
   1402  N9        41.1490   -7.5170   -0.0730 N.ar   63  A63        -0.2693
   1403  OP1       39.4650  -13.3250    2.4260 O.3    63  A63        -0.4373
   1404  OP2       39.9750  -12.4180    0.1420 O.co2  63  A63        -0.5172
   1405  P         36.0040   -8.2590    1.2520 P.3    64  G64         0.2141
   1406  C5'       35.8550   -5.5900    1.3610 C.3    64  G64         0.1812
   1407  O5'       35.9490   -6.8130    0.6010 O.3    64  G64        -0.3114
   1408  C4'       35.8260   -4.4890    0.3400 C.3    64  G64         0.1773
   1409  O4'       37.1440   -4.4980   -0.2890 O.3    64  G64        -0.3307
   1410  C3'       34.9020   -4.8540   -0.8060 C.3    64  G64         0.1860
   1411  O3'       33.4950   -4.8880   -0.5010 O.3    64  G64        -0.3112
   1412  C2'       35.5430   -4.1180   -2.0030 C.3    64  G64         0.2309
   1413  O2'       35.2770   -2.7480   -2.1210 O.3    64  G64        -0.2156
   1414  C1'       37.0400   -4.1870   -1.6710 C.3    64  G64         0.2408
   1415  N1        39.1660   -5.4580   -6.1180 N.ar   64  G64        -0.1709
   1416  C2        38.6270   -4.2640   -5.7290 C.ar   64  G64         0.2606
   1417  N2        38.6360   -3.2920   -6.6500 N.pl3  64  G64        -0.0859
   1418  N3        38.1130   -4.0380   -4.5270 N.ar   64  G64        -0.1918
   1419  C4        38.1900   -5.1250   -3.7330 C.ar   64  G64         0.1723
   1420  C5        38.6870   -6.3740   -4.0350 C.ar   64  G64         0.1748
   1421  C6        39.2530   -6.5930   -5.3180 C.ar   64  G64         0.3023
   1422  O6        39.7750   -7.6220   -5.7660 O.2    64  G64        -0.2633
   1423  N7        38.6030   -7.2160   -2.9360 N.ar   64  G64        -0.2173
   1424  C8        38.0410   -6.4840   -2.0090 C.ar   64  G64         0.1817
   1425  N9        37.7480   -5.2120   -2.4310 N.ar   64  G64        -0.2693
   1426  OP1       34.9980   -8.3250    2.3070 O.3    64  G64        -0.4373
   1427  OP2       35.8210   -9.0560    0.0060 O.co2  64  G64        -0.5172
   1428  P         32.4800   -4.7260   -1.8310 P.3    65  U65         0.2141
   1429  C5'       32.1710   -3.5220   -4.1180 C.3    65  U65         0.1812
   1430  O5'       33.0980   -4.0390   -3.1360 O.3    65  U65        -0.3114
   1431  C4'       32.9210   -3.0650   -5.3420 C.3    65  U65         0.1773
   1432  O4'       34.2080   -3.6920   -5.2070 O.3    65  U65        -0.3307
   1433  C3'       32.3530   -3.6710   -6.6080 C.3    65  U65         0.1860
   1434  O3'       31.1540   -3.1530   -7.2060 O.3    65  U65        -0.3112
   1435  C2'       33.5760   -3.9890   -7.4780 C.3    65  U65         0.2309
   1436  O2'       33.9390   -3.0950   -8.4900 O.3    65  U65        -0.2156
   1437  C1'       34.7200   -3.9910   -6.4760 C.3    65  U65         0.2420
   1438  N1        35.3470   -5.3090   -6.4160 N.ar   65  U65        -0.2534
   1439  C2        36.0660   -5.7140   -7.5320 C.ar   65  U65         0.3546
   1440  O2        36.1670   -5.0310   -8.5420 O.2    65  U65        -0.2443
   1441  N3        36.5940   -6.9790   -7.4460 N.ar   65  U65        -0.1530
   1442  C4        36.5090   -7.8460   -6.3790 C.ar   65  U65         0.2846
   1443  O4        37.0860   -8.9330   -6.4400 O.2    65  U65        -0.2650
   1444  C5        35.7960   -7.3330   -5.2440 C.ar   65  U65         0.0814
   1445  C6        35.2300   -6.1250   -5.3100 C.ar   65  U65         0.0870
   1446  OP1       31.4380   -3.7250   -1.5170 O.3    65  U65        -0.4373
   1447  OP2       31.9860   -6.0950   -2.2070 O.co2  65  U65        -0.5172
   1448  P         29.7040   -3.9970   -7.1280 P.3    66  U66         0.2141
   1449  C5'       29.3290   -5.3070   -4.7030 C.3    66  U66         0.1812
   1450  O5'       29.6360   -4.1320   -5.5060 O.3    66  U66        -0.3114
   1451  C4'       28.0370   -6.0170   -5.1480 C.3    66  U66         0.1773
   1452  O4'       27.9900   -7.2800   -4.4440 O.3    66  U66        -0.3307
   1453  C3'       26.7060   -5.3420   -4.8250 C.3    66  U66         0.1860
   1454  O3'       26.1410   -4.6720   -5.9320 O.3    66  U66        -0.3112
   1455  C2'       25.7560   -6.4900   -4.4900 C.3    66  U66         0.2309
   1456  O2'       25.2850   -7.0790   -5.6660 O.3    66  U66        -0.2156
   1457  C1'       26.6990   -7.5600   -3.9490 C.3    66  U66         0.2420
   1458  N1        26.7850   -7.6740   -2.4800 N.ar   66  U66        -0.2534
   1459  C2        25.7010   -8.2110   -1.7870 C.ar   66  U66         0.3546
   1460  O2        24.6970   -8.6260   -2.3380 O.2    66  U66        -0.2443
   1461  N3        25.8520   -8.2540   -0.4230 N.ar   66  U66        -0.1530
   1462  C4        26.9660   -7.8780    0.3020 C.ar   66  U66         0.2846
   1463  O4        26.9580   -7.9990    1.5250 O.2    66  U66        -0.2650
   1464  C5        28.0400   -7.3430   -0.4820 C.ar   66  U66         0.0814
   1465  C6        27.9230   -7.2780   -1.8130 C.ar   66  U66         0.0870
   1466  OP1       29.9920   -5.1950   -7.9560 O.2    66  U66        -0.5172
   1467  OP2       28.5710   -3.1090   -7.6130 O.co2  66  U66        -0.4373
   1468  P         25.3570   -3.3010   -5.7780 P.3    67  A67         0.2141
   1469  C5'       23.2390   -4.5480   -6.5970 C.3    67  A67         0.1812
   1470  O5'       23.8060   -3.6210   -5.6830 O.3    67  A67        -0.3114
   1471  C4'       21.9200   -5.0140   -6.0810 C.3    67  A67         0.1773
   1472  O4'       22.1880   -6.0660   -5.1330 O.3    67  A67        -0.3307
   1473  C3'       21.1780   -3.9740   -5.2600 C.3    67  A67         0.1860
   1474  O3'       20.3920   -3.2640   -6.1770 O.3    67  A67        -0.3112
   1475  C2'       20.3040   -4.8310   -4.3580 C.3    67  A67         0.2309
   1476  O2'       19.1590   -5.2160   -5.0660 O.3    67  A67        -0.2156
   1477  C1'       21.2120   -6.0350   -4.1050 C.3    67  A67         0.2408
   1478  N1        21.3540   -7.4720    0.8190 N.ar   67  A67        -0.2040
   1479  C2        20.5650   -7.8240   -0.1970 C.ar   67  A67         0.2016
   1480  N3        20.5960   -7.4310   -1.4630 N.ar   67  A67        -0.2048
   1481  C4        21.5860   -6.5530   -1.6600 C.ar   67  A67         0.1692
   1482  C5        22.4720   -6.0800   -0.7150 C.ar   67  A67         0.1518
   1483  C6        22.3460   -6.5910    0.5890 C.ar   67  A67         0.1919
   1484  N6        23.1510   -6.2550    1.6070 N.pl3  67  A67        -0.1054
   1485  N7        23.3570   -5.1750   -1.2840 N.ar   67  A67        -0.2193
   1486  C8        22.9780   -5.1110   -2.5360 C.ar   67  A67         0.1816
   1487  N9        21.9070   -5.9120   -2.8290 N.ar   67  A67        -0.2693
   1488  OP1       25.5460   -2.7040   -7.1390 O.2    67  A67        -0.5172
   1489  OP2       25.7620   -2.5290   -4.5310 O.co2  67  A67        -0.4373
   1490  P         20.2620   -1.7070   -6.0010 P.3    68  G68         0.2141
   1491  C5'       20.3440   -0.4500   -3.6760 C.3    68  G68         0.1812
   1492  O5'       19.7270   -1.4110   -4.5400 O.3    68  G68        -0.3114
   1493  C4'       20.4340   -1.0290   -2.2730 C.3    68  G68         0.1773
   1494  O4'       21.6030   -1.8930   -2.1750 O.3    68  G68        -0.3307
   1495  C3'       20.6740   -0.0340   -1.1630 C.3    68  G68         0.1860
   1496  O3'       19.5350    0.8050   -0.9170 O.3    68  G68        -0.3112
   1497  C2'       21.2330   -0.9250   -0.0540 C.3    68  G68         0.2309
   1498  O2'       20.3410   -1.8610    0.5170 O.3    68  G68        -0.2156
   1499  C1'       22.0700   -1.9150   -0.8480 C.3    68  G68         0.2408
   1500  N1        26.1320   -1.5780    2.1170 N.ar   68  G68        -0.1709
   1501  C2        24.8110   -1.7030    2.4450 C.ar   68  G68         0.2606
   1502  N2        24.5310   -1.7460    3.7510 N.pl3  68  G68        -0.0859
   1503  N3        23.8360   -1.8020    1.5630 N.ar   68  G68        -0.1918
   1504  C4        24.2910   -1.7040    0.3030 C.ar   68  G68         0.1723
   1505  C5        25.5830   -1.5260   -0.1330 C.ar   68  G68         0.1748
   1506  C6        26.6210   -1.4650    0.8260 C.ar   68  G68         0.3023
   1507  O6        27.8290   -1.3250    0.6440 O.2    68  G68        -0.2633
   1508  N7        25.6400   -1.5210   -1.5220 N.ar   68  G68        -0.2173
   1509  C8        24.3900   -1.6280   -1.8950 C.ar   68  G68         0.1817
   1510  N9        23.5170   -1.7050   -0.8320 N.ar   68  G68        -0.2693
   1511  OP1       19.1080   -1.3640   -6.8780 O.2    68  G68        -0.5172
   1512  OP2       21.6290   -1.1420   -6.2020 O.co2  68  G68        -0.4373
   1513  P         19.8730    2.3800   -0.4890 P.3    69  C69         0.2141
   1514  C5'       19.3660    1.8620    2.0330 C.3    69  C69         0.1812
   1515  O5'       20.3240    2.3370    1.0430 O.3    69  C69        -0.3114
   1516  C4'       20.0740    1.5640    3.3280 C.3    69  C69         0.1773
   1517  O4'       21.3160    0.8930    2.9800 O.3    69  C69        -0.3307
   1518  C3'       20.6010    2.7920    4.0460 C.3    69  C69         0.1860
   1519  O3'       19.7120    3.5810    4.8350 O.3    69  C69        -0.3112
   1520  C2'       21.7310    2.2290    4.8920 C.3    69  C69         0.2309
   1521  O2'       21.0600    1.5790    5.9390 O.3    69  C69        -0.2156
   1522  C1'       22.2750    1.1260    3.9960 C.3    69  C69         0.2420
   1523  N1        23.6040    1.3520    3.3970 N.ar   69  C69        -0.2535
   1524  C2        24.6790    1.3640    4.2730 C.ar   69  C69         0.3532
   1525  O2        24.4510    1.2610    5.4850 O.2    69  C69        -0.2443
   1526  N3        25.9370    1.4970    3.7870 N.ar   69  C69        -0.1739
   1527  C4        26.1310    1.6240    2.4700 C.ar   69  C69         0.1759
   1528  N4        27.3920    1.7570    2.0370 N.pl3  69  C69        -0.1070
   1529  C5        25.0480    1.5850    1.5410 C.ar   69  C69         0.0566
   1530  C6        23.8090    1.4780    2.0480 C.ar   69  C69         0.0850
   1531  OP1       18.5100    3.0240   -0.5310 O.3    69  C69        -0.4373
   1532  OP2       21.0410    2.8660   -1.3150 O.co2  69  C69        -0.5172
   1533  P         19.8860    5.2150    4.5510 P.3    70  C70         0.2141
   1534  C5'       22.0460    6.1770    5.6560 C.3    70  C70         0.1812
   1535  O5'       20.7110    5.7100    5.8190 O.3    70  C70        -0.3114
   1536  C4'       22.8320    5.7230    6.8440 C.3    70  C70         0.1773
   1537  O4'       23.5650    4.5410    6.4540 O.3    70  C70        -0.3307
   1538  C3'       23.8970    6.7080    7.3010 C.3    70  C70         0.1860
   1539  O3'       23.3650    7.5790    8.2830 O.3    70  C70        -0.3112
   1540  C2'       24.9760    5.7930    7.8600 C.3    70  C70         0.2309
   1541  O2'       24.5410    5.1670    9.0510 O.3    70  C70        -0.2156
   1542  C1'       24.9210    4.6650    6.8490 C.3    70  C70         0.2420
   1543  N1        25.7420    4.8060    5.6530 N.ar   70  C70        -0.2535
   1544  C2        27.1230    4.7140    5.7830 C.ar   70  C70         0.3532
   1545  O2        27.6040    4.6430    6.9170 O.2    70  C70        -0.2443
   1546  N3        27.9020    4.7690    4.6760 N.ar   70  C70        -0.1739
   1547  C4        27.3300    4.8610    3.4690 C.ar   70  C70         0.1759
   1548  N4        28.1180    4.8510    2.3970 N.pl3  70  C70        -0.1070
   1549  C5        25.9180    4.9210    3.3080 C.ar   70  C70         0.0566
   1550  C6        25.1690    4.8720    4.4170 C.ar   70  C70         0.0850
   1551  OP1       18.5220    5.8150    4.6050 O.3    70  C70        -0.4373
   1552  OP2       20.7360    5.3380    3.3140 O.co2  70  C70        -0.5172
   1553  P         23.5380    9.1530    8.0350 P.3    71  U71         0.2141
   1554  C5'       25.7690    9.1110    9.3820 C.3    71  U71         0.1812
   1555  O5'       25.0670    9.5380    8.2120 O.3    71  U71        -0.3114
   1556  C4'       27.1950    8.9150    8.9770 C.3    71  U71         0.1773
   1557  O4'       27.2570    8.2550    7.6980 O.3    71  U71        -0.3307
   1558  C3'       27.9220   10.1850    8.6260 C.3    71  U71         0.1860
   1559  O3'       28.1950   10.8050    9.8770 O.3    71  U71        -0.3112
   1560  C2'       29.1040    9.6720    7.7810 C.3    71  U71         0.2309
   1561  O2'       30.2410    9.2960    8.5160 O.3    71  U71        -0.2156
   1562  C1'       28.5760    8.3530    7.2220 C.3    71  U71         0.2420
   1563  N1        28.5110    8.3090    5.7650 N.ar   71  U71        -0.2534
   1564  C2        29.6900    8.2680    5.0360 C.ar   71  U71         0.3546
   1565  O2        30.7940    8.2980    5.5550 O.2    71  U71        -0.2443
   1566  N3        29.5250    8.2170    3.6710 N.ar   71  U71        -0.1530
   1567  C4        28.3330    8.2010    2.9760 C.ar   71  U71         0.2846
   1568  O4        28.3480    8.1830    1.7380 O.2    71  U71        -0.2650
   1569  C5        27.1620    8.2080    3.8050 C.ar   71  U71         0.0814
   1570  C6        27.2890    8.2770    5.1370 C.ar   71  U71         0.0870
   1571  OP1       22.7650    9.5430    9.2800 O.3    71  U71        -0.4373
   1572  OP2       23.1800    9.5680    6.6380 O.co2  71  U71        -0.5172
   1573  P         28.4750   12.3710    9.9380 P.3    72  A72         0.2141
   1574  C5'       30.6630   11.9080   11.3270 C.3    72  A72         0.1812
   1575  O5'       30.0580   12.3500   10.1020 O.3    72  A72        -0.3114
   1576  C4'       32.1620   12.0260   11.2040 C.3    72  A72         0.1773
   1577  O4'       32.5720   11.3680    9.9860 O.3    72  A72        -0.3307
   1578  C3'       32.6940   13.4270   10.9700 C.3    72  A72         0.1860
   1579  O3'       32.7190   14.1590   12.1830 O.3    72  A72        -0.3112
   1580  C2'       34.0720   13.1510   10.3790 C.3    72  A72         0.2309
   1581  O2'       35.0560   12.7640   11.3150 O.3    72  A72        -0.2156
   1582  C1'       33.7950   11.9210    9.5320 C.3    72  A72         0.2408
   1583  N1        36.2200   13.1500    5.1580 N.ar   72  A72        -0.2040
   1584  C2        36.6540   13.0230    6.4230 C.ar   72  A72         0.2016
   1585  N3        35.9630   12.7350    7.5300 N.ar   72  A72        -0.2048
   1586  C4        34.6740   12.4990    7.2310 C.ar   72  A72         0.1692
   1587  C5        34.0830   12.5690    5.9810 C.ar   72  A72         0.1518
   1588  C6        34.9120   12.9190    4.9000 C.ar   72  A72         0.1919
   1589  N6        34.4820   12.9910    3.6360 N.pl3  72  A72        -0.1054
   1590  N7        32.7290   12.2640    6.0570 N.ar   72  A72        -0.2193
   1591  C8        32.5340   12.0280    7.3340 C.ar   72  A72         0.1816
   1592  N9        33.6650   12.1750    8.1040 N.ar   72  A72        -0.2693
   1593  OP1       27.8600   12.7850   11.2300 O.3    72  A72        -0.4373
   1594  OP2       28.0210   12.9260    8.6000 O.co2  72  A72        -0.5172
   1595  P         32.5480   15.7230   11.9510 P.3    73  A73         0.2141
   1596  C5'       35.0930   16.3960   11.6910 C.3    73  A73         0.1812
   1597  O5'       33.7880   16.2330   11.0780 O.3    73  A73        -0.3114
   1598  C4'       36.1070   16.6770   10.6230 C.3    73  A73         0.1773
   1599  O4'       35.9110   15.7100    9.5640 O.3    73  A73        -0.3307
   1600  C3'       35.9320   18.0030    9.8960 C.3    73  A73         0.1860
   1601  O3'       36.4940   19.0950   10.6210 O.3    73  A73        -0.3112
   1602  C2'       36.6440   17.7340    8.5770 C.3    73  A73         0.2309
   1603  O2'       38.0430   17.8320    8.7750 O.3    73  A73        -0.2156
   1604  C1'       36.2380   16.2850    8.3080 C.3    73  A73         0.2408
   1605  N1        34.3890   16.3950    3.4900 N.ar   73  A73        -0.2040
   1606  C2        35.6140   16.6260    3.9830 C.ar   73  A73         0.2016
   1607  N3        36.0360   16.5930    5.2490 N.ar   73  A73        -0.2048
   1608  C4        35.0350   16.2450    6.0720 C.ar   73  A73         0.1692
   1609  C5        33.7220   15.9870    5.7170 C.ar   73  A73         0.1518
   1610  C6        33.3970   16.0740    4.3540 C.ar   73  A73         0.1919
   1611  N6        32.1650   15.8570    3.8710 N.pl3  73  A73        -0.1054
   1612  N7        32.9610   15.6880    6.8340 N.ar   73  A73        -0.2193
   1613  C8        33.8180   15.7640    7.8260 C.ar   73  A73         0.1816
   1614  N9        35.0840   16.1280    7.4380 N.ar   73  A73        -0.2693
   1615  OP1       32.6620   16.3970   13.2820 O.3    73  A73        -0.4373
   1616  OP2       31.3200   15.8160   11.1250 O.co2  73  A73        -0.5172
   1617  P         35.5200   20.3490   10.9850 P.3    74  C74         0.2141
   1618  C5'       36.1820   21.3580    8.6770 C.3    74  C74         0.1812
   1619  O5'       35.1490   20.8350    9.5100 O.3    74  C74        -0.3114
   1620  C4'       35.7530   21.2830    7.2390 C.3    74  C74         0.1773
   1621  O4'       35.4070   19.9170    6.8990 O.3    74  C74        -0.3307
   1622  C3'       34.4970   22.0450    6.8720 C.3    74  C74         0.1860
   1623  O3'       34.7920   23.3940    6.5850 O.3    74  C74        -0.3112
   1624  C2'       34.1390   21.3860    5.5540 C.3    74  C74         0.2309
   1625  O2'       34.9280   21.7870    4.4660 O.3    74  C74        -0.2156
   1626  C1'       34.4080   19.9200    5.8880 C.3    74  C74         0.2420
   1627  N1        33.1690   19.3450    6.4330 N.ar   74  C74        -0.2535
   1628  C2        32.0880   19.1660    5.5500 C.ar   74  C74         0.3532
   1629  O2        32.2540   19.4040    4.3380 O.2    74  C74        -0.2443
   1630  N3        30.9100   18.7040    6.0330 N.ar   74  C74        -0.1739
   1631  C4        30.7900   18.4240    7.3340 C.ar   74  C74         0.1759
   1632  N4        29.6200   17.9790    7.7610 N.pl3  74  C74        -0.1070
   1633  C5        31.8610   18.6360    8.2630 C.ar   74  C74         0.0566
   1634  C6        33.0120   19.1250    7.7760 C.ar   74  C74         0.0850
   1635  OP1       36.4090   21.3060   11.7250 O.3    74  C74        -0.4373
   1636  OP2       34.2750   19.8510   11.6550 O.co2  74  C74        -0.5172
   1637  P         33.9010   24.6610    7.0380 P.3    75  G75         0.2141
   1638  C5'       33.4000   24.9820    4.4580 C.3    75  G75         0.1812
   1639  O5'       32.8990   24.7140    5.7930 O.3    75  G75        -0.3114
   1640  C4'       32.3010   24.7680    3.4450 C.3    75  G75         0.1773
   1641  O4'       31.8940   23.3700    3.4930 O.3    75  G75        -0.3307
   1642  C3'       30.9900   25.5110    3.6820 C.3    75  G75         0.1860
   1643  O3'       30.9530   26.9070    3.3380 O.3    75  G75        -0.3112
   1644  C2'       30.0230   24.6680    2.8640 C.3    75  G75         0.2309
   1645  O2'       30.2560   24.8540    1.4870 O.3    75  G75        -0.2156
   1646  C1'       30.5030   23.2540    3.1940 C.3    75  G75         0.2408
   1647  N1        26.2220   21.1850    5.0920 N.ar   75  G75        -0.1709
   1648  C2        26.4470   21.7160    3.8510 C.ar   75  G75         0.2606
   1649  N2        25.4040   21.6910    3.0110 N.pl3  75  G75        -0.0859
   1650  N3        27.6200   22.1990    3.4460 N.ar   75  G75        -0.1918
   1651  C4        28.5420   22.1790    4.4330 C.ar   75  G75         0.1723
   1652  C5        28.4020   21.7210    5.7270 C.ar   75  G75         0.1748
   1653  C6        27.1480   21.1530    6.1250 C.ar   75  G75         0.3023
   1654  O6        26.8300   20.6620    7.2160 O.2    75  G75        -0.2633
   1655  N7        29.5900   21.8750    6.4360 N.ar   75  G75        -0.2173
   1656  C8        30.4190   22.3960    5.5720 C.ar   75  G75         0.1817
   1657  N9        29.8420   22.6380    4.3460 N.ar   75  G75        -0.2693
   1658  OP1       34.9330   25.7120    6.8310 O.2    75  G75        -0.5172
   1659  OP2       33.2990   24.4940    8.4100 O.co2  75  G75        -0.4373
   1660  P         30.1540   27.9200    4.3500 P.3    76  C76         0.2141
   1661  C5'       28.3690   27.4910    2.5110 C.3    76  C76         0.1812
   1662  O5'       28.6940   27.4910    3.9050 O.3    76  C76        -0.3114
   1663  C4'       26.9370   27.0710    2.3470 C.3    76  C76         0.1773
   1664  O4'       26.8130   25.6440    2.6190 O.3    76  C76        -0.3307
   1665  C3'       25.9480   27.7090    3.3090 C.3    76  C76         0.1860
   1666  O3'       25.5570   28.9740    2.8170 O.3    76  C76        -0.3112
   1667  C2'       24.7940   26.7390    3.1750 C.3    76  C76         0.2309
   1668  O2'       24.0880   27.1220    2.0120 O.3    76  C76        -0.2156
   1669  C1'       25.5360   25.3840    3.1650 C.3    76  C76         0.2420
   1670  N1        25.7060   24.8860    4.5440 N.ar   76  C76        -0.2535
   1671  C2        24.6030   24.2900    5.1520 C.ar   76  C76         0.3532
   1672  O2        23.5870   24.0960    4.4770 O.2    76  C76        -0.2443
   1673  N3        24.6770   23.9270    6.4510 N.ar   76  C76        -0.1739
   1674  C4        25.7980   24.1480    7.1410 C.ar   76  C76         0.1759
   1675  N4        25.8390   23.7390    8.4080 N.pl3  76  C76        -0.1070
   1676  C5        26.9250   24.7960    6.5600 C.ar   76  C76         0.0566
   1677  C6        26.8340   25.1550    5.2720 C.ar   76  C76         0.0850
   1678  OP1       30.3190   29.3030    3.8710 O.2    76  C76        -0.5172
   1679  OP2       30.2540   27.6690    5.8170 O.co2  76  C76        -0.4373
   1680  P         24.8650   30.1840    3.6180 P.3    77  A77         0.2141
   1681  C5'       22.5570   28.9060    3.8200 C.3    77  A77         0.1812
   1682  O5'       23.5850   29.7190    4.4510 O.3    77  A77        -0.3114
   1683  C4'       21.6680   28.2830    4.8560 C.3    77  A77         0.1773
   1684  O4'       22.3230   27.0820    5.3360 O.3    77  A77        -0.3307
   1685  C3'       21.4410   29.1210    6.1120 C.3    77  A77         0.1860
   1686  O3'       20.2970   29.9400    5.9170 O.3    77  A77        -0.3112
   1687  C2'       21.1600   28.0530    7.1660 C.3    77  A77         0.2309
   1688  O2'       19.7850   27.7080    7.0990 O.3    77  A77        -0.2156
   1689  C1'       22.1150   26.9340    6.7310 C.3    77  A77         0.2408
   1690  N1        24.7650   25.6860   10.9270 N.ar   77  A77        -0.2040
   1691  C2        23.5400   25.3650   10.5080 C.ar   77  A77         0.2016
   1692  N3        22.9180   25.7060    9.3890 N.ar   77  A77        -0.2048
   1693  C4        23.7070   26.4830    8.6310 C.ar   77  A77         0.1692
   1694  C5        24.9990   26.8780    8.9150 C.ar   77  A77         0.1518
   1695  C6        25.5410   26.4440   10.1290 C.ar   77  A77         0.1919
   1696  N6        26.7740   26.7390   10.5370 N.pl3  77  A77        -0.1054
   1697  N7        25.5150   27.6480    7.8850 N.ar   77  A77        -0.2193
   1698  C8        24.5360   27.7060    7.0150 C.ar   77  A77         0.1816
   1699  N9        23.4090   27.0260    7.4050 N.ar   77  A77        -0.2693
   1700  OP1       24.2850   30.9330    2.4830 O.2    77  A77        -0.5172
   1701  OP2       25.7900   30.8230    4.5770 O.co2  77  A77        -0.4373
   1702  P         19.9590   31.1650    6.9040 P.3    78  A78         0.2141
   1703  C5'       17.4960   30.3150    6.5090 C.3    78  A78         0.1812
   1704  O5'       18.4520   30.9340    7.4070 O.3    78  A78        -0.3114
   1705  C4'       16.2160   29.9090    7.1980 C.3    78  A78         0.1773
   1706  O4'       16.2680   28.4800    7.4700 O.3    78  A78        -0.3307
   1707  C3'       15.9070   30.5620    8.5380 C.3    78  A78         0.1860
   1708  O3'       15.1240   31.7340    8.3860 O.3    78  A78        -0.3112
   1709  C2'       15.1020   29.4780    9.2480 C.3    78  A78         0.2309
   1710  O2'       13.7330   29.4230    8.9030 O.3    78  A78        -0.2156
   1711  C1'       15.8440   28.2200    8.8010 C.3    78  A78         0.2408
   1712  N1        17.6260   26.0030   13.0770 N.ar   78  A78        -0.2040
   1713  C2        16.4390   25.9450   12.4630 C.ar   78  A78         0.2016
   1714  N3        16.0430   26.5370   11.3370 N.ar   78  A78        -0.2048
   1715  C4        17.0440   27.2610   10.8070 C.ar   78  A78         0.1692
   1716  C5        18.3270   27.3930   11.3080 C.ar   78  A78         0.1518
   1717  C6        18.6200   26.7120   12.4940 C.ar   78  A78         0.1919
   1718  N6        19.8150   26.7460   13.0810 N.pl3  78  A78        -0.1054
   1719  N7        19.0970   28.1970   10.4840 N.ar   78  A78        -0.2193
   1720  C8        18.2730   28.5420    9.5270 C.ar   78  A78         0.1816
   1721  N9        17.0190   27.9930    9.6470 N.ar   78  A78        -0.2693
   1722  OP1       20.0830   32.1930    5.8460 O.2    78  A78        -0.5172
   1723  OP2       20.7790   31.2790    8.1190 O.co2  78  A78        -0.4373
   1724  P         15.3060   32.9920    9.3730 P.3    79  G79         0.2141
   1725  C5'       14.1840   31.9090   11.4380 C.3    79  G79         0.1812
   1726  O5'       15.2780   32.6320   10.9240 O.3    79  G79        -0.3114
   1727  C4'       14.6250   31.0550   12.5900 C.3    79  G79         0.1773
   1728  O4'       15.6500   30.1170   12.1570 O.3    79  G79        -0.3307
   1729  C3'       15.2890   31.7810   13.7380 C.3    79  G79         0.1860
   1730  O3'       14.3940   32.3620   14.6620 O.3    79  G79        -0.3112
   1731  C2'       15.9920   30.6320   14.4520 C.3    79  G79         0.2309
   1732  O2'       15.2460   29.9650   15.4480 O.3    79  G79        -0.2156
   1733  C1'       16.4830   29.7910   13.2680 C.3    79  G79         0.2408
   1734  N1        21.2400   30.0800   14.9800 N.ar   79  G79        -0.1709
   1735  C2        20.1330   29.5460   15.5810 C.ar   79  G79         0.2606
   1736  N2        20.3050   29.0500   16.8230 N.pl3  79  G79        -0.0859
   1737  N3        18.9370   29.5210   15.0260 N.ar   79  G79        -0.1918
   1738  C4        18.9380   30.0780   13.8000 C.ar   79  G79         0.1723
   1739  C5        19.9850   30.6460   13.1190 C.ar   79  G79         0.1748
   1740  C6        21.2590   30.6740   13.7280 C.ar   79  G79         0.3023
   1741  O6        22.3200   31.1200   13.2740 O.2    79  G79        -0.2633
   1742  N7        19.5740   31.1020   11.8760 N.ar   79  G79        -0.2173
   1743  C8        18.3010   30.8250   11.8350 C.ar   79  G79         0.1817
   1744  N9        17.8560   30.1800   12.9590 N.ar   79  G79        -0.2693
   1745  OP1       14.1070   33.8440    9.2580 O.3    79  G79        -0.4373
   1746  OP2       16.6370   33.5070    8.8960 O.co2  79  G79        -0.5172
   1747  P         14.7710   33.7140   15.4580 P.3    80  G80         0.2141
   1748  C5'       15.2270   32.5600   17.7420 C.3    80  G80         0.1812
   1749  O5'       15.7650   33.2600   16.6230 O.3    80  G80        -0.3114
   1750  C4'       16.3430   32.0400   18.6010 C.3    80  G80         0.1773
   1751  O4'       17.3300   31.4300   17.7330 O.3    80  G80        -0.3307
   1752  C3'       17.1390   33.1100   19.3190 C.3    80  G80         0.1860
   1753  O3'       16.5860   33.6170   20.5240 O.3    80  G80        -0.3112
   1754  C2'       18.4620   32.4050   19.5680 C.3    80  G80         0.2309
   1755  O2'       18.2950   31.5450   20.6570 O.3    80  G80        -0.2156
   1756  C1'       18.6300   31.6070   18.2770 C.3    80  G80         0.2408
   1757  N1        23.0700   33.7960   16.9720 N.ar   80  G80        -0.1709
   1758  C2        22.7180   33.2170   18.1620 C.ar   80  G80         0.2606
   1759  N2        23.6450   33.2530   19.1260 N.pl3  80  G80        -0.0859
   1760  N3        21.5350   32.6700   18.4000 N.ar   80  G80        -0.1918
   1761  C4        20.7230   32.7320   17.3260 C.ar   80  G80         0.1723
   1762  C5        20.9790   33.2800   16.0920 C.ar   80  G80         0.1748
   1763  C6        22.2450   33.8890   15.8570 C.ar   80  G80         0.3023
   1764  O6        22.6760   34.3920   14.8070 O.2    80  G80        -0.2633
   1765  N7        19.8970   33.1030   15.2410 N.ar   80  G80        -0.2173
   1766  C8        18.9880   32.5430   15.9870 C.ar   80  G80         0.1817
   1767  N9        19.4250   32.2740   17.2560 N.ar   80  G80        -0.2693
   1768  OP1       13.5110   33.9670   16.2180 O.3    80  G80        -0.4373
   1769  OP2       15.2990   34.7710   14.4840 O.co2  80  G80        -0.5172
   1770  P         16.7710   35.2190   20.4820 P.3    81  G81         0.2141
   1771  C5'       18.6020   34.5450   22.2850 C.3    81  G81         0.1812
   1772  O5'       17.9500   35.5590   21.5040 O.3    81  G81        -0.3114
   1773  C4'       20.0370   34.9470   22.5530 C.3    81  G81         0.1773
   1774  O4'       20.9190   34.5610   21.4590 O.3    81  G81        -0.3307
   1775  C3'       20.3010   36.4340   22.6240 C.3    81  G81         0.1860
   1776  O3'       19.7330   36.9480   23.8210 O.3    81  G81        -0.3112
   1777  C2'       21.8280   36.4600   22.5270 C.3    81  G81         0.2309
   1778  O2'       22.4910   35.7830   23.5710 O.3    81  G81        -0.2156
   1779  C1'       22.0820   35.3850   21.4850 C.3    81  G81         0.2408
   1780  N1        25.4220   37.3480   18.1910 N.ar   81  G81        -0.1709
   1781  C2        25.5960   37.0450   19.5160 C.ar   81  G81         0.2606
   1782  N2        26.8190   37.2860   20.0090 N.pl3  81  G81        -0.0859
   1783  N3        24.6430   36.5490   20.2960 N.ar   81  G81        -0.1918
   1784  C4        23.4820   36.3920   19.6300 C.ar   81  G81         0.1723
   1785  C5        23.2070   36.6710   18.3070 C.ar   81  G81         0.1748
   1786  C6        24.2390   37.1960   17.4850 C.ar   81  G81         0.3023
   1787  O6        24.1980   37.4860   16.2790 O.2    81  G81        -0.2633
   1788  N7        21.9040   36.3170   17.9910 N.ar   81  G81        -0.2173
   1789  C8        21.4130   35.8600   19.1130 C.ar   81  G81         0.1817
   1790  N9        22.3130   35.8900   20.1470 N.ar   81  G81        -0.2693
   1791  OP1       15.5390   35.8000   21.0910 O.3    81  G81        -0.4373
   1792  OP2       17.1820   35.6820   19.0990 O.co2  81  G81        -0.5172
   1793  P         20.1900   38.4000   24.3080 P.3    82  U82         0.2141
   1794  C5'       22.5850   38.9040   25.3870 C.3    82  U82         0.1812
   1795  O5'       21.7790   38.2390   24.4110 O.3    82  U82        -0.3114
   1796  C4'       23.9130   39.3230   24.7890 C.3    82  U82         0.1773
   1797  O4'       23.9910   38.9440   23.3930 O.3    82  U82        -0.3307
   1798  C3'       24.1910   40.8230   24.8470 C.3    82  U82         0.1860
   1799  O3'       25.3930   41.1490   25.5500 O.3    82  U82        -0.3112
   1800  C2'       24.1910   41.2560   23.3810 C.3    82  U82         0.2309
   1801  O2'       25.0630   42.3370   23.1130 O.3    82  U82        -0.2156
   1802  C1'       24.6040   39.9740   22.6660 C.3    82  U82         0.2420
   1803  N1        24.0870   39.9280   21.2920 N.ar   82  U82        -0.2534
   1804  C2        24.9090   40.3620   20.2590 C.ar   82  U82         0.3546
   1805  O2        26.0440   40.7700   20.4350 O.2    82  U82        -0.2443
   1806  N3        24.3460   40.3010   19.0090 N.ar   82  U82        -0.1530
   1807  C4        23.0740   39.8930   18.6900 C.ar   82  U82         0.2846
   1808  O4        22.7290   39.8880   17.5180 O.2    82  U82        -0.2650
   1809  C5        22.2800   39.4690   19.8060 C.ar   82  U82         0.0814
   1810  C6        22.8020   39.4970   21.0390 C.ar   82  U82         0.0870
   1811  OP1       19.5750   38.6380   25.6400 O.3    82  U82        -0.4373
   1812  OP2       19.8120   39.2460   23.1350 O.co2  82  U82        -0.5172
   1813  P         25.5230   41.3160   27.1570 P.3    83  G83         0.2141
   1814  C5'       23.5290   43.1170   27.0540 C.3    83  G83         0.1812
   1815  O5'       24.3730   42.2170   27.8130 O.3    83  G83        -0.3114
   1816  C4'       23.9150   44.5700   27.2820 C.3    83  G83         0.1773
   1817  O4'       23.8330   44.9020   28.6970 O.3    83  G83        -0.3307
   1818  C3'       25.3150   44.9670   26.8170 C.3    83  G83         0.1860
   1819  O3'       25.3430   46.1000   25.9370 O.3    83  G83        -0.3112
   1820  C2'       26.1130   45.0540   28.1200 C.3    83  G83         0.2309
   1821  O2'       27.1940   45.9590   28.0530 O.3    83  G83        -0.2156
   1822  C1'       25.0440   45.4950   29.1220 C.3    83  G83         0.2408
   1823  N1        28.3790   43.6470   32.5130 N.ar   83  G83        -0.1709
   1824  C2        28.5630   43.9200   31.1800 C.ar   83  G83         0.2606
   1825  N2        29.7860   43.6650   30.6890 N.pl3  83  G83        -0.0859
   1826  N3        27.6180   44.4050   30.3870 N.ar   83  G83        -0.1918
   1827  C4        26.4540   44.5980   31.0470 C.ar   83  G83         0.1723
   1828  C5        26.1690   44.3600   32.3760 C.ar   83  G83         0.1748
   1829  C6        27.1920   43.8410   33.2150 C.ar   83  G83         0.3023
   1830  O6        27.1360   43.5640   34.4190 O.2    83  G83        -0.2633
   1831  N7        24.8520   44.6950   32.6660 N.ar   83  G83        -0.2173
   1832  C8        24.3690   45.1220   31.5310 C.ar   83  G83         0.1817
   1833  N9        25.2850   45.0890   30.5070 N.ar   83  G83        -0.2693
   1834  OP1       26.8410   42.0010   27.3150 O.2    83  G83        -0.5172
   1835  OP2       25.3140   39.9740   27.7620 O.co2  83  G83        -0.4373
   1836  P         24.8710   47.6190   26.2090 P.3    84  U84         0.2141
   1837  C5'       27.1220   48.3310   25.1550 C.3    84  U84         0.1812
   1838  O5'       25.7010   48.2570   25.0090 O.3    84  U84        -0.3114
   1839  C4'       27.8120   48.3580   23.8250 C.3    84  U84         0.1773
   1840  O4'       27.8660   47.0350   23.2550 O.3    84  U84        -0.3307
   1841  C3'       27.1250   49.1270   22.7170 C.3    84  U84         0.1860
   1842  O3'       27.1730   50.5310   22.8740 O.3    84  U84        -0.3112
   1843  C2'       27.8640   48.6220   21.4840 C.3    84  U84         0.2309
   1844  O2'       29.0650   49.2930   21.1900 O.3    84  U84        -0.2156
   1845  C1'       28.1190   47.1600   21.8600 C.3    84  U84         0.2420
   1846  N1        27.2340   46.2470   21.1210 N.ar   84  U84        -0.2534
   1847  C2        27.5010   46.0790   19.7680 C.ar   84  U84         0.3546
   1848  O2        28.4130   46.6540   19.1960 O.2    84  U84        -0.2443
   1849  N3        26.6460   45.2280   19.1120 N.ar   84  U84        -0.1530
   1850  C4        25.5710   44.5450   19.6470 C.ar   84  U84         0.2846
   1851  O4        24.9100   43.8020   18.9220 O.2    84  U84        -0.2650
   1852  C5        25.3470   44.7800   21.0490 C.ar   84  U84         0.0814
   1853  C6        26.1630   45.6060   21.7210 C.ar   84  U84         0.0870
   1854  OP1       25.4750   48.1010   27.4740 O.3    84  U84        -0.4373
   1855  OP2       23.4080   47.7790   26.0160 O.co2  84  U84        -0.5172
   1856  P         25.7890   51.2700   22.5550 P.3    85  C85         0.2141
   1857  C5'       27.1010   52.1880   20.4990 C.3    85  C85         0.1812
   1858  O5'       26.0880   51.3240   20.9890 O.3    85  C85        -0.3114
   1859  C4'       27.2880   51.9650   19.0290 C.3    85  C85         0.1773
   1860  O4'       27.4260   50.5500   18.7460 O.3    85  C85        -0.3307
   1861  C3'       26.1370   52.3550   18.1430 C.3    85  C85         0.1860
   1862  O3'       26.1930   53.7350   17.9440 O.3    85  C85        -0.3112
   1863  C2'       26.4970   51.6050   16.8720 C.3    85  C85         0.2309
   1864  O2'       27.6930   51.9740   16.2440 O.3    85  C85        -0.2156
   1865  C1'       26.9020   50.2630   17.4560 C.3    85  C85         0.2420
   1866  N1        25.7740   49.3350   17.6290 N.ar   85  C85        -0.2535
   1867  C2        25.2550   48.6710   16.5100 C.ar   85  C85         0.3532
   1868  O2        25.7170   48.9340   15.3920 O.2    85  C85        -0.2443
   1869  N3        24.2420   47.7900   16.6760 N.ar   85  C85        -0.1739
   1870  C4        23.7400   47.5750   17.8970 C.ar   85  C85         0.1759
   1871  N4        22.7440   46.7040   18.0210 N.pl3  85  C85        -0.1070
   1872  C5        24.2410   48.2490   19.0500 C.ar   85  C85         0.0566
   1873  C6        25.2440   49.1170   18.8710 C.ar   85  C85         0.0850
   1874  OP1       25.7920   52.5710   23.2930 O.3    85  C85        -0.4373
   1875  OP2       24.6530   50.3300   22.7740 O.co2  85  C85        -0.5172
   1876  P         24.8410   54.5540   18.0290 P.3    86  C86         0.2141
   1877  C5'       24.3350   55.2260   15.5800 C.3    86  C86         0.1812
   1878  O5'       24.4610   54.1730   16.5220 O.3    86  C86        -0.3114
   1879  C4'       24.1450   54.6810   14.2010 C.3    86  C86         0.1773
   1880  O4'       24.4270   53.2620   14.2160 O.3    86  C86        -0.3307
   1881  C3'       22.7300   54.7620   13.6620 C.3    86  C86         0.1860
   1882  O3'       22.3660   56.0660   13.2170 O.3    86  C86        -0.3112
   1883  C2'       22.7300   53.6450   12.6140 C.3    86  C86         0.2309
   1884  O2'       23.3690   53.8550   11.3880 O.3    86  C86        -0.2156
   1885  C1'       23.5530   52.5780   13.3200 C.3    86  C86         0.2420
   1886  N1        22.7320   51.6380   14.1020 N.ar   86  C86        -0.2535
   1887  C2        21.8490   50.7970   13.4270 C.ar   86  C86         0.3532
   1888  O2        21.7560   50.8990   12.1990 O.2    86  C86        -0.2443
   1889  N3        21.1380   49.8840   14.1240 N.ar   86  C86        -0.1739
   1890  C4        21.2290   49.8500   15.4540 C.ar   86  C86         0.1759
   1891  N4        20.4520   48.9990   16.1130 N.pl3  86  C86        -0.1070
   1892  C5        22.0980   50.7210   16.1740 C.ar   86  C86         0.0566
   1893  C6        22.8300   51.5860   15.4640 C.ar   86  C86         0.0850
   1894  OP1       25.2070   56.0160   18.0580 O.2    86  C86        -0.5172
   1895  OP2       24.0000   54.0160   19.1390 O.co2  86  C86        -0.4373
   1896  P         21.0870   56.7120   13.9980 P.3    87  G87         0.2141
   1897  C5'       20.2720   56.3080   11.5240 C.3    87  G87         0.1812
   1898  O5'       20.1560   55.9700   12.9230 O.3    87  G87        -0.3114
   1899  C4'       19.3380   55.4680   10.6810 C.3    87  G87         0.1773
   1900  O4'       19.6370   54.0370   10.8170 O.3    87  G87        -0.3307
   1901  C3'       17.8390   55.5120   10.9350 C.3    87  G87         0.1860
   1902  O3'       17.1890   56.6100   10.3200 O.3    87  G87        -0.3112
   1903  C2'       17.4150   54.2880   10.1350 C.3    87  G87         0.2309
   1904  O2'       17.6430   54.5200    8.7430 O.3    87  G87        -0.2156
   1905  C1'       18.4560   53.2670   10.6000 C.3    87  G87         0.2408
   1906  N1        15.5050   49.8330   12.8990 N.ar   87  G87        -0.1709
   1907  C2        15.5320   50.2090   11.5830 C.ar   87  G87         0.2606
   1908  N2        14.6960   49.5500   10.7660 N.pl3  87  G87        -0.0859
   1909  N3        16.3770   51.0940   11.0850 N.ar   87  G87        -0.1918
   1910  C4        17.1670   51.6210   12.0400 C.ar   87  G87         0.1723
   1911  C5        17.1590   51.3690   13.3990 C.ar   87  G87         0.1748
   1912  C6        16.2690   50.4020   13.9100 C.ar   87  G87         0.3023
   1913  O6        16.1090   50.0420   15.0910 O.2    87  G87        -0.2633
   1914  N7        18.0590   52.1930   14.0590 N.ar   87  G87        -0.2173
   1915  C8        18.6040   52.9050   13.1050 C.ar   87  G87         0.1817
   1916  N9        18.1030   52.6140   11.8580 N.ar   87  G87        -0.2693
   1917  OP1       21.1910   58.1780   13.6910 O.2    87  G87        -0.5172
   1918  OP2       20.8030   56.3870   15.4210 O.co2  87  G87        -0.4373
   1919  P         16.2710   57.5570   11.2580 P.3    88  U88         0.2141
   1920  C5'       14.5300   56.0360    9.8950 C.3    88  U88         0.1812
   1921  O5'       14.8690   56.8290   11.0500 O.3    88  U88        -0.3114
   1922  C4'       13.3700   55.1330   10.2640 C.3    88  U88         0.1773
   1923  O4'       13.9270   53.9090   10.7900 O.3    88  U88        -0.3307
   1924  C3'       12.4760   55.6140   11.4040 C.3    88  U88         0.1860
   1925  O3'       11.5310   56.5900   10.9860 O.3    88  U88        -0.3112
   1926  C2'       11.8590   54.3000   11.8820 C.3    88  U88         0.2309
   1927  O2'       10.8320   53.8100   11.0490 O.3    88  U88        -0.2156
   1928  C1'       13.0160   53.3080   11.6790 C.3    88  U88         0.2420
   1929  N1        13.6880   53.0680   12.9590 N.ar   88  U88        -0.2534
   1930  C2        13.1030   52.1640   13.8170 C.ar   88  U88         0.3546
   1931  O2        12.1700   51.4550   13.4900 O.2    88  U88        -0.2443
   1932  N3        13.6900   52.0780   15.0560 N.ar   88  U88        -0.1530
   1933  C4        14.7640   52.8060   15.5240 C.ar   88  U88         0.2846
   1934  O4        15.1860   52.6090   16.6690 O.2    88  U88        -0.2650
   1935  C5        15.2970   53.7360   14.5830 C.ar   88  U88         0.0814
   1936  C6        14.7330   53.8550   13.3730 C.ar   88  U88         0.0870
   1937  OP1       16.2570   58.8530   10.5180 O.2    88  U88        -0.5172
   1938  OP2       16.4280   57.5730   12.7630 O.co2  88  U88        -0.4373
   1939  P         10.8990   57.6230   12.0550 P.3    89  G89         0.2141
   1940  C5'        8.9630   55.8980   12.3330 C.3    89  G89         0.1812
   1941  O5'        9.7040   56.9720   12.8750 O.3    89  G89        -0.3114
   1942  C4'        8.0950   55.2860   13.3920 C.3    89  G89         0.1773
   1943  O4'        8.6760   54.0090   13.7510 O.3    89  G89        -0.3307
   1944  C3'        8.0340   55.9960   14.7090 C.3    89  G89         0.1860
   1945  O3'        7.2100   57.1360   14.6060 O.3    89  G89        -0.3112
   1946  C2'        7.5300   54.8720   15.5920 C.3    89  G89         0.2309
   1947  O2'        6.2180   54.6070   15.2090 O.3    89  G89        -0.2156
   1948  C1'        8.3910   53.7120   15.1070 C.3    89  G89         0.2408
   1949  N1        10.8620   51.7680   19.0790 N.ar   89  G89        -0.1709
   1950  C2         9.6030   51.4900   18.6200 C.ar   89  G89         0.2606
   1951  N2         8.9000   50.5870   19.3260 N.pl3  89  G89        -0.0859
   1952  N3         9.0660   52.0590   17.5560 N.ar   89  G89        -0.1918
   1953  C4         9.9110   52.9200   16.9680 C.ar   89  G89         0.1723
   1954  C5        11.1870   53.2670   17.3480 C.ar   89  G89         0.1748
   1955  C6        11.7400   52.6730   18.5030 C.ar   89  G89         0.3023
   1956  O6        12.8610   52.8360   18.9930 O.2    89  G89        -0.2633
   1957  N7        11.7410   54.1680   16.4510 N.ar   89  G89        -0.2173
   1958  C8        10.7900   54.3820   15.5850 C.ar   89  G89         0.1817
   1959  N9         9.6550   53.6500   15.8370 N.ar   89  G89        -0.2693
   1960  OP1       10.4870   58.7900   11.2270 O.2    89  G89        -0.5172
   1961  OP2       11.6600   57.9350   13.2670 O.co2  89  G89        -0.4373
   1962  P          6.7370   57.8910   15.9850 P.3    90  G90         0.2141
   1963  C5'        5.5230   57.4590   18.2140 C.3    90  G90         0.1812
   1964  O5'        6.2690   56.9190   17.1530 O.3    90  G90        -0.3114
   1965  C4'        5.4460   56.5240   19.3800 C.3    90  G90         0.1773
   1966  O4'        6.2310   55.3250   19.1600 O.3    90  G90        -0.3307
   1967  C3'        6.0040   57.0650   20.6580 C.3    90  G90         0.1860
   1968  O3'        5.0080   57.9420   21.1380 O.3    90  G90        -0.3112
   1969  C2'        6.2680   55.7820   21.4520 C.3    90  G90         0.2309
   1970  O2'        5.2130   55.0930   22.0870 O.3    90  G90        -0.2156
   1971  C1'        6.8330   54.8880   20.3690 C.3    90  G90         0.2408
   1972  N1        11.3820   53.8710   22.3720 N.ar   90  G90        -0.1709
   1973  C2        10.1510   53.4010   22.7380 C.ar   90  G90         0.2606
   1974  N2        10.1200   52.5690   23.7940 N.pl3  90  G90        -0.0859
   1975  N3         9.0230   53.7450   22.1370 N.ar   90  G90        -0.1918
   1976  C4         9.2350   54.5910   21.1140 C.ar   90  G90         0.1723
   1977  C5        10.4300   55.0840   20.6450 C.ar   90  G90         0.1748
   1978  C6        11.6200   54.7540   21.3320 C.ar   90  G90         0.3023
   1979  O6        12.7740   55.0830   21.0630 O.2    90  G90        -0.2633
   1980  N7        10.2330   55.8580   19.5090 N.ar   90  G90        -0.2173
   1981  C8         8.9410   55.8500   19.3340 C.ar   90  G90         0.1817
   1982  N9         8.2760   55.0930   20.2680 N.ar   90  G90        -0.2693
   1983  OP1        5.5740   58.8010   15.6800 O.2    90  G90        -0.5172
   1984  OP2        8.0170   58.4930   16.3130 O.co2  90  G90        -0.4373
   1985  P          5.3960   59.5010   20.9510 P.3    91  C91         0.2141
   1986  C5'        7.2410   60.3480   22.6610 C.3    91  C91         0.1812
   1987  O5'        6.0190   59.6270   22.4220 O.3    91  C91        -0.3114
   1988  C4'        7.5200   60.3410   24.1240 C.3    91  C91         0.1773
   1989  O4'        6.2530   60.5020   24.7840 O.3    91  C91        -0.3307
   1990  C3'        8.0500   59.0320   24.6650 C.3    91  C91         0.1860
   1991  O3'        9.4490   59.0970   24.5910 O.3    91  C91        -0.3112
   1992  C2'        7.5980   59.0730   26.1210 C.3    91  C91         0.2309
   1993  O2'        8.2380   59.9300   27.0380 O.3    91  C91        -0.2156
   1994  C1'        6.2710   59.8170   26.0210 C.3    91  C91         0.2420
   1995  N1         5.1300   58.9070   26.0840 N.ar   91  C91        -0.2535
   1996  C2         4.6100   58.6340   27.3340 C.ar   91  C91         0.3532
   1997  O2         5.1190   59.1870   28.3200 O.2    91  C91        -0.2443
   1998  N3         3.5790   57.7640   27.4500 N.ar   91  C91        -0.1739
   1999  C4         3.0700   57.1910   26.3600 C.ar   91  C91         0.1759
   2000  N4         2.0380   56.3650   26.5150 N.pl3  91  C91        -0.1070
   2001  C5         3.5970   57.4420   25.0660 C.ar   91  C91         0.0566
   2002  C6         4.6380   58.2740   24.9780 C.ar   91  C91         0.0850
   2003  OP1        4.1200   60.2440   21.0380 O.3    91  C91        -0.4373
   2004  OP2        6.2800   59.7680   19.7860 O.co2  91  C91        -0.5172
   2005  P         10.2970   58.0310   23.7510 P.3    92  G92         0.2141
   2006  C5'       10.6670   56.8920   26.0970 C.3    92  G92         0.1812
   2007  O5'        9.9700   56.9140   24.8530 O.3    92  G92        -0.3114
   2008  C4'       10.0040   56.0090   27.1230 C.3    92  G92         0.1773
   2009  O4'        8.5460   56.1670   27.2010 O.3    92  G92        -0.3307
   2010  C3'       10.2230   54.5290   26.9070 C.3    92  G92         0.1860
   2011  O3'       11.3940   54.1430   27.5900 O.3    92  G92        -0.3112
   2012  C2'        9.0970   53.9090   27.7260 C.3    92  G92         0.2309
   2013  O2'        9.3880   54.1030   29.0810 O.3    92  G92        -0.2156
   2014  C1'        7.9450   54.8850   27.4910 C.3    92  G92         0.2408
   2015  N1         3.2340   53.3740   26.1880 N.ar   92  G92        -0.1709
   2016  C2         3.8130   53.3670   27.4200 C.ar   92  G92         0.2606
   2017  N2         3.0120   52.9780   28.4400 N.pl3  92  G92        -0.0859
   2018  N3         5.0650   53.7490   27.6500 N.ar   92  G92        -0.1918
   2019  C4         5.6920   54.1320   26.5210 C.ar   92  G92         0.1723
   2020  C5         5.1940   54.1720   25.2430 C.ar   92  G92         0.1748
   2021  C6         3.8420   53.8140   25.0270 C.ar   92  G92         0.3023
   2022  O6         3.2230   53.7770   23.9670 O.2    92  G92        -0.2633
   2023  N7         6.1650   54.6090   24.3450 N.ar   92  G92        -0.2173
   2024  C8         7.2200   54.8160   25.0820 C.ar   92  G92         0.1817
   2025  N9         6.9980   54.5720   26.4170 N.ar   92  G92        -0.2693
   2026  OP1       11.7510   58.3490   23.6830 O.3    92  G92        -0.4373
   2027  OP2        9.6880   57.8210   22.4300 O.co2  92  G92        -0.5172
   2028  P         12.3910   53.1720   26.7900 P.3    93  A93         0.2141
   2029  C5'       11.7560   51.8340   28.8640 C.3    93  A93         0.1812
   2030  O5'       11.8940   51.8220   27.4660 O.3    93  A93        -0.3114
   2031  C4'       10.9480   50.6600   29.2870 C.3    93  A93         0.1773
   2032  O4'        9.5530   51.0170   29.1800 O.3    93  A93        -0.3307
   2033  C3'       11.1070   49.4360   28.3920 C.3    93  A93         0.1860
   2034  O3'       12.1210   48.6430   28.9570 O.3    93  A93        -0.3112
   2035  C2'        9.7870   48.7200   28.6000 C.3    93  A93         0.2309
   2036  O2'        9.7440   48.1330   29.8760 O.3    93  A93        -0.2156
   2037  C1'        8.8170   49.9040   28.7090 C.3    93  A93         0.2408
   2038  N1         4.3040   50.2960   26.2600 N.ar   93  A93        -0.2040
   2039  C2         4.6220   49.9490   27.5180 C.ar   93  A93         0.2016
   2040  N3         5.8190   49.8850   28.0970 N.ar   93  A93        -0.2048
   2041  C4         6.7910   50.1990   27.2160 C.ar   93  A93         0.1692
   2042  C5         6.6220   50.5640   25.8970 C.ar   93  A93         0.1518
   2043  C6         5.2940   50.5990   25.4030 C.ar   93  A93         0.1919
   2044  N6         4.9650   50.9100   24.1450 N.pl3  93  A93        -0.1054
   2045  N7         7.8530   50.8160   25.3040 N.ar   93  A93        -0.2193
   2046  C8         8.7180   50.6180   26.2670 C.ar   93  A93         0.1816
   2047  N9         8.1480   50.2530   27.4490 N.ar   93  A93        -0.2693
   2048  OP1       13.6650   53.6270   27.3450 O.3    93  A93        -0.4373
   2049  OP2       12.3300   53.0310   25.3060 O.co2  93  A93        -0.5172
   2050  P         13.0620   47.7160   28.1300 P.3    94  C94         0.2141
   2051  C5'       12.4080   46.2980   26.0090 C.3    94  C94         0.1812
   2052  O5'       12.2470   46.5420   27.4310 O.3    94  C94        -0.3114
   2053  C4'       11.0900   46.4750   25.2810 C.3    94  C94         0.1773
   2054  O4'       10.6510   47.8670   25.3620 O.3    94  C94        -0.3307
   2055  C3'       11.1280   46.1800   23.7910 C.3    94  C94         0.1860
   2056  O3'       11.0630   44.7820   23.6590 O.3    94  C94        -0.3112
   2057  C2'        9.9550   47.0110   23.2790 C.3    94  C94         0.2309
   2058  O2'        8.6330   46.6380   23.6220 O.3    94  C94        -0.2156
   2059  C1'       10.1060   48.2730   24.1230 C.3    94  C94         0.2420
   2060  N1        11.0150   49.2220   23.4910 N.ar   94  C94        -0.2535
   2061  C2        10.7130   49.6490   22.1950 C.ar   94  C94         0.3532
   2062  O2         9.6750   49.2400   21.6610 O.2    94  C94        -0.2443
   2063  N3        11.5520   50.5010   21.5620 N.ar   94  C94        -0.1739
   2064  C4        12.6590   50.9150   22.1710 C.ar   94  C94         0.1759
   2065  N4        13.4550   51.7390   21.5080 N.pl3  94  C94        -0.1070
   2066  C5        12.9930   50.5000   23.4940 C.ar   94  C94         0.0566
   2067  C6        12.1530   49.6540   24.1100 C.ar   94  C94         0.0850
   2068  OP1       13.6630   47.0700   29.2940 O.3    94  C94        -0.4373
   2069  OP2       13.8920   48.3550   27.0470 O.co2  94  C94        -0.5172
   2070  P         11.8360   44.0150   22.4740 P.3    95  A95         0.2141
   2071  C5'        9.6300   44.7650   21.2280 C.3    95  A95         0.1812
   2072  O5'       11.0260   44.3860   21.1450 O.3    95  A95        -0.3114
   2073  C4'        9.0870   45.0590   19.8560 C.3    95  A95         0.1773
   2074  O4'        9.0060   46.4840   19.7410 O.3    95  A95        -0.3307
   2075  C3'        9.9580   44.6220   18.6930 C.3    95  A95         0.1860
   2076  O3'        9.6010   43.3280   18.3000 O.3    95  A95        -0.3112
   2077  C2'        9.5960   45.6580   17.6360 C.3    95  A95         0.2309
   2078  O2'        8.3350   45.5540   17.0210 O.3    95  A95        -0.2156
   2079  C1'        9.4620   46.9080   18.4900 C.3    95  A95         0.2408
   2080  N1        12.8120   50.2330   16.4370 N.ar   95  A95        -0.2040
   2081  C2        11.6640   49.7230   15.9870 C.ar   95  A95         0.2016
   2082  N3        10.8120   48.9060   16.5930 N.ar   95  A95        -0.2048
   2083  C4        11.2640   48.5700   17.8080 C.ar   95  A95         0.1692
   2084  C5        12.4230   49.0110   18.4080 C.ar   95  A95         0.1518
   2085  C6        13.2060   49.9200   17.6890 C.ar   95  A95         0.1919
   2086  N6        14.3670   50.4070   18.1320 N.pl3  95  A95        -0.1054
   2087  N7        12.6310   48.3580   19.6120 N.ar   95  A95        -0.2193
   2088  C8        11.5760   47.5930   19.7430 C.ar   95  A95         0.1816
   2089  N9        10.7200   47.6490   18.6720 N.ar   95  A95        -0.2693
   2090  OP1       11.5120   42.5850   22.8070 O.3    95  A95        -0.4373
   2091  OP2       13.2480   44.4090   22.1970 O.co2  95  A95        -0.5172
   2092  P         10.4650   42.4870   17.2390 P.3    96  U96         0.2141
   2093  C5'        9.8660   43.2720   14.8360 C.3    96  U96         0.1812
   2094  O5'       10.6720   43.3880   15.9540 O.3    96  U96        -0.3114
   2095  C4'       10.4020   44.2730   13.8750 C.3    96  U96         0.1773
   2096  O4'       10.5900   45.5750   14.5140 O.3    96  U96        -0.3307
   2097  C3'       11.7880   43.9930   13.4020 C.3    96  U96         0.1860
   2098  O3'       11.5040   42.9360   12.5370 O.3    96  U96        -0.3112
   2099  C2'       12.1180   45.3370   12.7740 C.3    96  U96         0.2309
   2100  O2'       11.1280   45.6710   11.8450 O.3    96  U96        -0.2156
   2101  C1'       11.6250   46.2810   13.8480 C.3    96  U96         0.2420
   2102  N1        12.6480   46.6000   14.8460 N.ar   96  U96        -0.2534
   2103  C2        13.5790   47.5850   14.5700 C.ar   96  U96         0.3546
   2104  O2        13.6520   48.1450   13.4900 O.2    96  U96        -0.2443
   2105  N3        14.4820   47.8140   15.5750 N.ar   96  U96        -0.1530
   2106  C4        14.5370   47.1850   16.8080 C.ar   96  U96         0.2846
   2107  O4        15.3880   47.5280   17.6310 O.2    96  U96        -0.2650
   2108  C5        13.4820   46.2480   17.0470 C.ar   96  U96         0.0814
   2109  C6        12.5950   45.9960   16.0820 C.ar   96  U96         0.0870
   2110  OP1        9.6440   41.2730   16.8790 O.2    96  U96        -0.5172
   2111  OP2       11.8720   42.1980   17.6500 O.co2  96  U96        -0.4373
   2112  P         12.7800   42.1070   12.0420 P.3    97  G97         0.2141
   2113  C5'       13.8490   42.8810    9.8390 C.3    97  G97         0.1812
   2114  O5'       13.7090   43.1000   11.2210 O.3    97  G97        -0.3114
   2115  C4'       14.6780   43.9940    9.2950 C.3    97  G97         0.1773
   2116  O4'       14.4850   45.1520   10.1360 O.3    97  G97        -0.3307
   2117  C3'       16.1620   43.8280    9.4410 C.3    97  G97         0.1860
   2118  O3'       16.6280   42.9830    8.4410 O.3    97  G97        -0.3112
   2119  C2'       16.6180   45.2490    9.2040 C.3    97  G97         0.2309
   2120  O2'       16.2200   45.7940    7.9740 O.3    97  G97        -0.2156
   2121  C1'       15.6480   45.9680   10.1010 C.3    97  G97         0.2408
   2122  N1        18.7800   48.4170   13.2270 N.ar   97  G97        -0.1709
   2123  C2        18.6560   48.5340   11.8700 C.ar   97  G97         0.2606
   2124  N2        19.4500   49.4490   11.2750 N.pl3  97  G97        -0.0859
   2125  N3        17.8080   47.8200   11.1430 N.ar   97  G97        -0.1918
   2126  C4        17.0630   46.9980   11.9130 C.ar   97  G97         0.1723
   2127  C5        17.1150   46.8190   13.2690 C.ar   97  G97         0.1748
   2128  C6        18.0140   47.5950   14.0280 C.ar   97  G97         0.3023
   2129  O6        18.2120   47.5650   15.2520 O.2    97  G97        -0.2633
   2130  N7        16.2460   45.8100   13.6660 N.ar   97  G97        -0.2173
   2131  C8        15.6650   45.4340   12.5640 C.ar   97  G97         0.1817
   2132  N9        16.1380   46.0910   11.4620 N.ar   97  G97        -0.2693
   2133  OP1       12.3700   41.0010   11.1330 O.2    97  G97        -0.5172
   2134  OP2       13.3590   41.7850   13.3270 O.co2  97  G97        -0.4373
   2135  P         17.8160   42.0830    8.9690 P.3    98  G98         0.2141
   2136  C5'       19.5300   43.5670    7.5910 C.3    98  G98         0.1812
   2137  O5'       19.0220   43.1310    8.8810 O.3    98  G98        -0.3114
   2138  C4'       20.4730   44.7000    7.8790 C.3    98  G98         0.1773
   2139  O4'       19.9430   45.5230    8.9590 O.3    98  G98        -0.3307
   2140  C3'       21.7950   44.3320    8.5030 C.3    98  G98         0.1860
   2141  O3'       22.6060   43.7960    7.4710 O.3    98  G98        -0.3112
   2142  C2'       22.2590   45.7130    8.9600 C.3    98  G98         0.2309
   2143  O2'       22.5560   46.5140    7.8270 O.3    98  G98        -0.2156
   2144  C1'       20.9840   46.2610    9.5770 C.3    98  G98         0.2408
   2145  N1        22.7800   47.3670   14.2080 N.ar   98  G98        -0.1709
   2146  C2        23.1680   47.8610   12.9850 C.ar   98  G98         0.2606
   2147  N2        24.1350   48.7910   13.0100 N.pl3  98  G98        -0.0859
   2148  N3        22.6260   47.4980   11.8250 N.ar   98  G98        -0.1918
   2149  C4        21.6520   46.5780   11.9980 C.ar   98  G98         0.1723
   2150  C5        21.2260   45.9850   13.1720 C.ar   98  G98         0.1748
   2151  C6        21.8130   46.3900   14.3990 C.ar   98  G98         0.3023
   2152  O6        21.5580   45.9920   15.5370 O.2    98  G98        -0.2633
   2153  N7        20.2170   45.0650   12.9210 N.ar   98  G98        -0.2173
   2154  C8        20.0750   45.0880   11.6200 C.ar   98  G98         0.1817
   2155  N9        20.9000   45.9980   11.0020 N.ar   98  G98        -0.2693
   2156  OP1       17.6500   41.1500    7.7830 O.2    98  G98        -0.5172
   2157  OP2       17.6310   41.6560   10.3950 O.co2  98  G98        -0.4373
   2158  P         23.7170   42.7590    7.8640 P.3    99  A99         0.2141
   2159  C5'       25.7050   44.5420    7.9820 C.3    99  A99         0.1812
   2160  O5'       24.7490   43.6820    8.6410 O.3    99  A99        -0.3114
   2161  C4'       26.4050   45.3740    9.0530 C.3    99  A99         0.1773
   2162  O4'       25.4750   45.6740   10.1370 O.3    99  A99        -0.3307
   2163  C3'       27.4970   44.6550    9.8330 C.3    99  A99         0.1860
   2164  O3'       28.6510   44.2290    9.1000 O.3    99  A99        -0.3112
   2165  C2'       27.6330   45.5260   11.0860 C.3    99  A99         0.2309
   2166  O2'       28.3800   46.7160   11.0230 O.3    99  A99        -0.2156
   2167  C1'       26.1940   45.9890   11.3130 C.3    99  A99         0.2408
   2168  N1        26.1090   45.5670   16.4220 N.ar   99  A99        -0.2040
   2169  C2        26.8550   46.3050   15.5830 C.ar   99  A99         0.2016
   2170  N3        26.8290   46.3590   14.2450 N.ar   99  A99        -0.2048
   2171  C4        25.8910   45.5260   13.7620 C.ar   99  A99         0.1692
   2172  C5        25.0870   44.6640   14.4950 C.ar   99  A99         0.1518
   2173  C6        25.2210   44.6960   15.8920 C.ar   99  A99         0.1919
   2174  N6        24.4950   43.9440   16.7180 N.pl3  99  A99        -0.1054
   2175  N7        24.2460   43.9480   13.6580 N.ar   99  A99        -0.2193
   2176  C8        24.5890   44.3480   12.4510 C.ar   99  A99         0.1816
   2177  N9        25.5590   45.3230   12.4450 N.ar   99  A99        -0.2693
   2178  OP1       24.1470   42.2760    6.5200 O.2    99  A99        -0.5172
   2179  OP2       23.1480   41.8180    8.8700 O.co2  99  A99        -0.4373
   2180  P         29.1740   42.6790    9.2430 P.3   100  A100        0.2141
   2181  C5'       30.4660   43.8650   11.1660 C.3   100  A100        0.1812
   2182  O5'       29.6130   42.7690   10.7800 O.3   100  A100       -0.3114
   2183  C4'       30.9220   43.7320   12.5860 C.3   100  A100        0.1773
   2184  O4'       29.8780   44.2730   13.4450 O.3   100  A100       -0.3307
   2185  C3'       31.1690   42.3220   13.1180 C.3   100  A100        0.1860
   2186  O3'       32.4250   41.7340   12.7540 O.3   100  A100       -0.3112
   2187  C2'       30.9290   42.5350   14.6170 C.3   100  A100        0.2309
   2188  O2'       31.8900   43.2450   15.3750 O.3   100  A100       -0.2156
   2189  C1'       29.6960   43.4410   14.5860 C.3   100  A100        0.2408
   2190  N1        25.7900   41.1930   17.0600 N.ar  100  A100       -0.2040
   2191  C2        26.8450   41.8960   17.4900 C.ar  100  A100        0.2016
   2192  N3        27.8290   42.4580   16.7820 N.ar  100  A100       -0.2048
   2193  C4        27.6510   42.2440   15.4680 C.ar  100  A100        0.1692
   2194  C5        26.6300   41.5240   14.8780 C.ar  100  A100        0.1518
   2195  C6        25.6530   40.9900   15.7290 C.ar  100  A100        0.1919
   2196  N6        24.6340   40.2510   15.2980 N.pl3 100  A100       -0.1054
   2197  N7        26.7980   41.4690   13.5030 N.ar  100  A100       -0.2193
   2198  C8        27.8820   42.1730   13.2890 C.ar  100  A100        0.1816
   2199  N9        28.4450   42.6830   14.4370 N.ar  100  A100       -0.2693
   2200  OP1       30.2770   42.6550    8.2640 O.2   100  A100       -0.5172
   2201  OP2       28.1910   41.5880    9.1570 O.co2 100  A100       -0.4373
   2202  P         32.7890   40.1940   12.2510 P.3   101  U101        0.2141
   2203  C5'       33.1050   39.8710   14.8370 C.3   101  U101        0.1812
   2204  O5'       32.4670   39.4420   13.6260 O.3   101  U101       -0.3114
   2205  C4'       32.4220   39.2750   16.0320 C.3   101  U101        0.1773
   2206  O4'       31.1240   39.9180   16.2020 O.3   101  U101       -0.3307
   2207  C3'       32.0780   37.7920   15.9840 C.3   101  U101        0.1860
   2208  O3'       33.0950   36.8560   16.3700 O.3   101  U101       -0.3112
   2209  C2'       31.0280   37.7330   17.0800 C.3   101  U101        0.2309
   2210  O2'       31.7280   37.8110   18.3070 O.3   101  U101       -0.2156
   2211  C1'       30.2010   38.9940   16.7730 C.3   101  U101        0.2420
   2212  N1        29.0820   38.7540   15.8290 N.ar  101  U101       -0.2534
   2213  C2        27.9030   38.2140   16.3310 C.ar  101  U101        0.3546
   2214  O2        27.7230   37.9950   17.5230 O.2   101  U101       -0.2443
   2215  N3        26.9410   37.9470   15.3840 N.ar  101  U101       -0.1530
   2216  C4        27.0200   38.1750   14.0270 C.ar  101  U101        0.2846
   2217  O4        26.0620   37.8970   13.3070 O.2   101  U101       -0.2650
   2218  C5        28.2660   38.7230   13.5890 C.ar  101  U101        0.0814
   2219  C6        29.2340   38.9760   14.4800 C.ar  101  U101        0.0870
   2220  OP1       34.2590   40.3900   12.1050 O.3   101  U101       -0.4373
   2221  OP2       32.0940   39.5140   11.1010 O.co2 101  U101       -0.5172
   2222  P         33.0620   35.2950   15.9150 P.3   102  C102        0.2141
   2223  C5'       32.2830   34.4580   18.3150 C.3   102  C102        0.1812
   2224  O5'       32.0080   34.6060   16.9020 O.3   102  C102       -0.3114
   2225  C4'       31.0590   33.9940   19.1020 C.3   102  C102        0.1773
   2226  O4'       30.0190   35.0040   19.0300 O.3   102  C102       -0.3307
   2227  C3'       30.3090   32.7170   18.7020 C.3   102  C102        0.1860
   2228  O3'       30.7630   31.4420   19.1670 O.3   102  C102       -0.3112
   2229  C2'       29.0020   32.9190   19.4530 C.3   102  C102        0.2309
   2230  O2'       29.1180   32.8150   20.8510 O.3   102  C102       -0.2156
   2231  C1'       28.7380   34.3920   19.1770 C.3   102  C102        0.2420
   2232  N1        27.9860   34.5390   17.9160 N.ar  102  C102       -0.2535
   2233  C2        26.5960   34.3330   17.9330 C.ar  102  C102        0.3532
   2234  O2        26.0410   34.0910   19.0100 O.2   102  C102       -0.2443
   2235  N3        25.9010   34.4060   16.7760 N.ar  102  C102       -0.1739
   2236  C4        26.5370   34.6870   15.6390 C.ar  102  C102        0.1759
   2237  N4        25.8150   34.7650   14.5300 N.pl3 102  C102       -0.1070
   2238  C5        27.9500   34.8930   15.5900 C.ar  102  C102        0.0566
   2239  C6        28.6300   34.8050   16.7390 C.ar  102  C102        0.0850
   2240  OP1       34.3950   34.7840   16.2690 O.3   102  C102       -0.4373
   2241  OP2       32.6140   35.1500   14.5090 O.co2 102  C102       -0.5172
   2242  P         31.0140   30.1620   18.2190 P.3   103  U103        0.2141
   2243  C5'       28.8760   29.4980   19.5440 C.3   103  U103        0.1812
   2244  O5'       29.6910   29.2950   18.3740 O.3   103  U103       -0.3114
   2245  C4'       27.3970   29.3590   19.2280 C.3   103  U103        0.1773
   2246  O4'       26.8710   30.5610   18.6100 O.3   103  U103       -0.3307
   2247  C3'       26.9860   28.3000   18.2200 C.3   103  U103        0.1860
   2248  O3'       26.9770   27.0470   18.8720 O.3   103  U103       -0.3112
   2249  C2'       25.5480   28.7110   17.9390 C.3   103  U103        0.2309
   2250  O2'       24.7030   28.3700   19.0100 O.3   103  U103       -0.2156
   2251  C1'       25.6560   30.2410   17.9520 C.3   103  U103        0.2420
   2252  N1        25.7070   30.7580   16.5780 N.ar  103  U103       -0.2534
   2253  C2        24.5270   30.7470   15.8520 C.ar  103  U103        0.3546
   2254  O2        23.4650   30.3990   16.3230 O.2   103  U103       -0.2443
   2255  N3        24.6350   31.1980   14.5680 N.ar  103  U103       -0.1530
   2256  C4        25.7730   31.6070   13.9270 C.ar  103  U103        0.2846
   2257  O4        25.7040   31.9650   12.7560 O.2   103  U103       -0.2650
   2258  C5        26.9600   31.5790   14.7340 C.ar  103  U103        0.0814
   2259  C6        26.8870   31.1660   16.0030 C.ar  103  U103        0.0870
   2260  OP1       32.0870   29.4940   18.9840 O.3   103  U103       -0.4373
   2261  OP2       31.1990   30.4680   16.7750 O.co2 103  U103       -0.5172
   2262  P         26.9630   25.6780   18.0970 P.3   104  G104        0.2141
   2263  C5'       24.3690   25.5360   17.9370 C.3   104  G104        0.1812
   2264  O5'       25.6350   25.3800   17.2730 O.3   104  G104       -0.3114
   2265  C4'       23.2670   25.4520   16.9230 C.3   104  G104        0.1773
   2266  O4'       23.0540   26.7570   16.3470 O.3   104  G104       -0.3307
   2267  C3'       23.6000   24.5730   15.7440 C.3   104  G104        0.1860
   2268  O3'       23.0880   23.3190   16.1570 O.3   104  G104       -0.3112
   2269  C2'       22.7220   25.1500   14.6440 C.3   104  G104        0.2309
   2270  O2'       21.4760   24.5510   14.8300 O.3   104  G104       -0.2156
   2271  C1'       22.7140   26.6300   14.9890 C.3   104  G104        0.2408
   2272  N1        23.8320   29.4020   10.8990 N.ar  104  G104       -0.1709
   2273  C2        22.6270   28.8700   11.2770 C.ar  104  G104        0.2606
   2274  N2        21.6000   29.0680   10.4370 N.pl3 104  G104       -0.0859
   2275  N3        22.4520   28.1470   12.3680 N.ar  104  G104       -0.1918
   2276  C4        23.5980   27.9950   13.0580 C.ar  104  G104        0.1723
   2277  C5        24.8400   28.5160   12.7820 C.ar  104  G104        0.1748
   2278  C6        25.0150   29.2820   11.6150 C.ar  104  G104        0.3023
   2279  O6        26.0420   29.8110   11.1970 O.2   104  G104       -0.2633
   2280  N7        25.7370   28.2090   13.7920 N.ar  104  G104       -0.2173
   2281  C8        25.0300   27.5350   14.6560 C.ar  104  G104        0.1817
   2282  N9        23.7350   27.3410   14.2540 N.ar  104  G104       -0.2693
   2283  OP1       27.0340   24.9590   19.3880 O.3   104  G104       -0.4373
   2284  OP2       28.0720   25.6090   17.1500 O.co2 104  G104       -0.5172
   2285  P         23.6640   21.9370   15.6180 P.3   105  A105        0.2141
   2286  C5'       25.2410   22.0720   17.7720 C.3   105  A105        0.1812
   2287  O5'       24.2680   21.3660   16.9790 O.3   105  A105       -0.3114
   2288  C4'       25.3230   21.3950   19.1230 C.3   105  A105        0.1773
   2289  O4'       24.5970   22.1630   20.1240 O.3   105  A105       -0.3307
   2290  C3'       24.7290   19.9800   19.1770 C.3   105  A105        0.1860
   2291  O3'       25.7870   19.0580   19.3390 O.3   105  A105       -0.3112
   2292  C2'       23.9750   19.9550   20.4990 C.3   105  A105        0.2309
   2293  O2'       24.8400   19.7270   21.5840 O.3   105  A105       -0.2156
   2294  C1'       23.5150   21.3980   20.6010 C.3   105  A105        0.2408
   2295  N1        20.1100   24.9080   19.0490 N.ar  105  A105       -0.2040
   2296  C2        21.1650   24.9800   19.8780 C.ar  105  A105        0.2016
   2297  N3        22.0170   24.0260   20.2380 N.ar  105  A105       -0.2048
   2298  C4        21.7000   22.8610   19.6400 C.ar  105  A105        0.1692
   2299  C5        20.6640   22.6390   18.7490 C.ar  105  A105        0.1518
   2300  C6        19.8340   23.7320   18.4500 C.ar  105  A105        0.1919
   2301  N6        18.7820   23.6620   17.6330 N.pl3 105  A105       -0.1054
   2302  N7        20.6440   21.3130   18.3400 N.ar  105  A105       -0.2193
   2303  C8        21.6700   20.7810   18.9560 C.ar  105  A105        0.1816
   2304  N9        22.3550   21.6600   19.7570 N.ar  105  A105       -0.2693
   2305  OP1       24.7830   22.1320   14.6760 O.2   105  A105       -0.5172
   2306  OP2       22.4750   21.1520   15.1790 O.co2 105  A105       -0.4373
   2307  P         25.7690   17.6170   18.7170 P.3   106  A106        0.2141
   2308  C5'       24.0830   15.6760   19.1850 C.3   106  A106        0.1812
   2309  O5'       24.8080   16.8210   19.7150 O.3   106  A106       -0.3114
   2310  C4'       23.3550   14.9460   20.2830 C.3   106  A106        0.1773
   2311  O4'       24.2170   14.7730   21.4200 O.3   106  A106       -0.3307
   2312  C3'       22.2140   15.7070   20.9080 C.3   106  A106        0.1860
   2313  O3'       21.1500   15.5780   19.9900 O.3   106  A106       -0.3112
   2314  C2'       22.0100   14.9690   22.2230 C.3   106  A106        0.2309
   2315  O2'       21.3910   13.7280   21.9740 O.3   106  A106       -0.2156
   2316  C1'       23.4350   14.6100   22.5880 C.3   106  A106        0.2408
   2317  N1        26.8650   14.4900   26.3330 N.ar  106  A106       -0.2040
   2318  C2        26.2900   13.5280   25.6060 C.ar  106  A106        0.2016
   2319  N3        25.3790   13.6300   24.6500 N.ar  106  A106       -0.2048
   2320  C4        25.0400   14.9160   24.4580 C.ar  106  A106        0.1692
   2321  C5        25.5250   16.0120   25.1450 C.ar  106  A106        0.1518
   2322  C6        26.4870   15.7690   26.1290 C.ar  106  A106        0.1919
   2323  N6        27.0410   16.7270   26.8750 N.pl3 106  A106       -0.1054
   2324  N7        24.9170   17.1760   24.7030 N.ar  106  A106       -0.2193
   2325  C8        24.1150   16.7650   23.7500 C.ar  106  A106        0.1816
   2326  N9        24.0800   15.4040   23.6090 N.ar  106  A106       -0.2693
   2327  OP1       27.1990   17.3080   19.0000 O.3   106  A106       -0.4373
   2328  OP2       25.2220   17.4950   17.2970 O.co2 106  A106       -0.5172
   2329  P         20.2070   16.8790   19.8420 P.3   107  G107        0.2141
   2330  C5'       18.1490   15.3220   19.6120 C.3   107  G107        0.1812
   2331  O5'       18.9110   16.1690   20.4440 O.3   107  G107       -0.3114
   2332  C4'       16.9670   14.8560   20.3900 C.3   107  G107        0.1773
   2333  O4'       17.4090   14.4750   21.7160 O.3   107  G107       -0.3307
   2334  C3'       15.8820   15.9030   20.5890 C.3   107  G107        0.1860
   2335  O3'       14.9310   15.7880   19.5310 O.3   107  G107       -0.3112
   2336  C2'       15.2840   15.5040   21.9340 C.3   107  G107        0.2309
   2337  O2'       14.2410   14.5380   21.8280 O.3   107  G107       -0.2156
   2338  C1'       16.5190   14.9910   22.6880 C.3   107  G107        0.2408
   2339  N1        17.0400   19.8990   23.9060 N.ar  107  G107       -0.1709
   2340  C2        16.0350   19.2880   23.2010 C.ar  107  G107        0.2606
   2341  N2        15.0530   20.0780   22.7700 N.pl3 107  G107       -0.0859
   2342  N3        15.9910   17.9950   22.9500 N.ar  107  G107       -0.1918
   2343  C4        17.0450   17.3460   23.4820 C.ar  107  G107        0.1723
   2344  C5        18.0930   17.8630   24.2150 C.ar  107  G107        0.1748
   2345  C6        18.1400   19.2550   24.4540 C.ar  107  G107        0.3023
   2346  O6        19.0060   19.9080   25.0520 O.2   107  G107       -0.2633
   2347  N7        18.9830   16.8620   24.5720 N.ar  107  G107       -0.2173
   2348  C8        18.4800   15.7810   24.0430 C.ar  107  G107        0.1817
   2349  N9        17.2750   15.9950   23.4230 N.ar  107  G107       -0.2693
   2350  OP1       20.1610   17.1410   18.3550 O.2   107  G107       -0.5172
   2351  OP2       20.7180   17.9510   20.7930 O.co2 107  G107       -0.4373
   2352  P         14.8300   17.0110   18.5130 P.3   108  G108        0.2141
   2353  C5'       14.1980   15.9350   16.2330 C.3   108  G108        0.1812
   2354  O5'       13.7480   16.5280   17.4490 O.3   108  G108       -0.3114
   2355  C4'       13.7100   16.7340   15.0600 C.3   108  G108        0.1773
   2356  O4'       12.3010   16.4740   14.8510 O.3   108  G108       -0.3307
   2357  C3'       13.7960   18.2410   15.2170 C.3   108  G108        0.1860
   2358  O3'       13.7160   18.7100   13.8830 O.3   108  G108       -0.3112
   2359  C2'       12.4960   18.5400   15.9280 C.3   108  G108        0.2309
   2360  O2'       12.0450   19.8720   15.7630 O.3   108  G108       -0.2156
   2361  C1'       11.5610   17.6310   15.1470 C.3   108  G108        0.2408
   2362  N1         6.6140   16.6550   14.8410 N.ar  108  G108       -0.1709
   2363  C2         7.4660   17.1560   13.8850 C.ar  108  G108        0.2606
   2364  N2         6.9290   17.3990   12.6750 N.pl3 108  G108       -0.0859
   2365  N3         8.7490   17.4060   14.0970 N.ar  108  G108       -0.1918
   2366  C4         9.1190   17.0860   15.3550 C.ar  108  G108        0.1723
   2367  C5         8.3560   16.5500   16.3670 C.ar  108  G108        0.1748
   2368  C6         6.9800   16.3110   16.1350 C.ar  108  G108        0.3023
   2369  O6         6.1290   15.8770   16.9210 O.2   108  G108       -0.2633
   2370  N7         9.1250   16.3440   17.5040 N.ar  108  G108       -0.2173
   2371  C8        10.3230   16.7350   17.1630 C.ar  108  G108        0.1817
   2372  N9        10.3860   17.2040   15.8760 N.ar  108  G108       -0.2693
   2373  OP1       16.0540   17.3310   17.7460 O.2   108  G108       -0.5172
   2374  OP2       14.3220   18.0320   19.4650 O.co2 108  G108       -0.4373
   2375  P         14.5450   20.0620   13.5850 P.3   109  A109        0.2141
   2376  C5'       12.8720   20.6100   11.5860 C.3   109  A109        0.1812
   2377  O5'       14.2320   20.3650   12.0420 O.3   109  A109       -0.3114
   2378  C4'       12.8810   21.6700   10.5210 C.3   109  A109        0.1773
   2379  O4'       13.7840   22.7090   10.9490 O.3   109  A109       -0.3307
   2380  C3'       13.4770   21.2330    9.2000 C.3   109  A109        0.1860
   2381  O3'       12.4390   20.6990    8.3880 O.3   109  A109       -0.3112
   2382  C2'       14.0120   22.5300    8.6070 C.3   109  A109        0.2309
   2383  O2'       12.9810   23.1210    7.8810 O.3   109  A109       -0.2156
   2384  C1'       14.3030   23.3850    9.8320 C.3   109  A109        0.2408
   2385  N1        18.7980   25.3290    8.2030 N.ar  109  A109       -0.2040
   2386  C2        17.5630   25.4010    7.6910 C.ar  109  A109        0.2016
   2387  N3        16.4260   24.8950    8.1610 N.ar  109  A109       -0.2048
   2388  C4        16.6480   24.2190    9.3000 C.ar  109  A109        0.1692
   2389  C5        17.8640   24.0460    9.9380 C.ar  109  A109        0.1518
   2390  C6        18.9810   24.6430    9.3520 C.ar  109  A109        0.1919
   2391  N6        20.2080   24.5710    9.8700 N.pl3 109  A109       -0.1054
   2392  N7        17.7150   23.2800   11.0820 N.ar  109  A109       -0.2193
   2393  C8        16.4290   23.0300   11.1250 C.ar  109  A109        0.1816
   2394  N9        15.7250   23.5590   10.0730 N.ar  109  A109       -0.2693
   2395  OP1       16.0300   20.0090   13.6080 O.2   109  A109       -0.5172
   2396  OP2       13.8600   21.0190   14.4960 O.co2 109  A109       -0.4373
   2397  P         12.8790   19.3650    7.5940 P.3   110  A110        0.2141
   2398  C5'       12.0330   17.8810    9.6430 C.3   110  A110        0.1812
   2399  O5'       13.0700   18.3190    8.7810 O.3   110  A110       -0.3114
   2400  C4'       12.7050   17.1210   10.7590 C.3   110  A110        0.1773
   2401  O4'       11.7350   16.7390   11.7660 O.3   110  A110       -0.3307
   2402  C3'       13.4060   15.8340   10.3370 C.3   110  A110        0.1860
   2403  O3'       14.5450   15.6450   11.1570 O.3   110  A110       -0.3112
   2404  C2'       12.3870   14.7510   10.6670 C.3   110  A110        0.2309
   2405  O2'       13.1780   13.6420   11.0460 O.3   110  A110       -0.2156
   2406  C1'       11.7210   15.3330   11.9060 C.3   110  A110        0.2408
   2407  N1         7.0420   14.6760    9.8880 N.ar  110  A110       -0.2040
   2408  C2         8.1970   15.0940    9.3540 C.ar  110  A110        0.2016
   2409  N3         9.3850   15.2400    9.9320 N.ar  110  A110       -0.2048
   2410  C4         9.3170   14.9230   11.2350 C.ar  110  A110        0.1692
   2411  C5         8.1980   14.5050   11.9310 C.ar  110  A110        0.1518
   2412  C6         7.0120   14.3750   11.2060 C.ar  110  A110        0.1919
   2413  N6         5.8620   13.9640   11.7460 N.pl3 110  A110       -0.1054
   2414  N7         8.5050   14.2680   13.2620 N.ar  110  A110       -0.2193
   2415  C8         9.7830   14.5480   13.3410 C.ar  110  A110        0.1816
   2416  N9        10.3440   14.9170   12.1420 N.ar  110  A110       -0.2693
   2417  OP1       14.2760   19.5990    7.1000 O.3   110  A110       -0.4373
   2418  OP2       11.8440   18.7670    6.7040 O.co2 110  A110       -0.5172
   2419  P         15.9860   15.2750   10.5730 P.3   111  G111        0.2141
   2420  C5'       16.8130   17.7200   10.0340 C.3   111  G111        0.1812
   2421  O5'       16.3110   16.4610    9.5680 O.3   111  G111       -0.3114
   2422  C4'       16.6370   18.7070    8.9190 C.3   111  G111        0.1773
   2423  O4'       16.9700   20.0340    9.3790 O.3   111  G111       -0.3307
   2424  C3'       17.5380   18.4330    7.7390 C.3   111  G111        0.1860
   2425  O3'       16.7330   17.7090    6.8310 O.3   111  G111       -0.3112
   2426  C2'       17.7930   19.8150    7.1700 C.3   111  G111        0.2309
   2427  O2'       16.7030   20.1700    6.3500 O.3   111  G111       -0.2156
   2428  C1'       17.7880   20.6730    8.4280 C.3   111  G111        0.2408
   2429  N1        22.3980   22.5990    7.6960 N.ar  111  G111       -0.1709
   2430  C2        21.3080   22.5900    6.8650 C.ar  111  G111        0.2606
   2431  N2        21.4710   23.1810    5.6730 N.pl3 111  G111       -0.0859
   2432  N3        20.1470   22.0320    7.1700 N.ar  111  G111       -0.1918
   2433  C4        20.1590   21.4840    8.3980 C.ar  111  G111        0.1723
   2434  C5        21.1990   21.4130    9.3000 C.ar  111  G111        0.1748
   2435  C6        22.4440   22.0180    8.9590 C.ar  111  G111        0.3023
   2436  O6        23.4760   22.0980    9.6360 O.2   111  G111       -0.2633
   2437  N7        20.8060   20.7430   10.4510 N.ar  111  G111       -0.2173
   2438  C8        19.5560   20.4380   10.2350 C.ar  111  G111        0.1817
   2439  N9        19.1090   20.8440    9.0010 N.ar  111  G111       -0.2693
   2440  OP1       15.7780   13.9900    9.7910 O.2   111  G111       -0.5172
   2441  OP2       17.0860   15.4130   11.6010 O.co2 111  G111       -0.4373
   2442  P         17.5310   16.6170    5.9760 P.3   112  C112        0.2141
   2443  C5'       17.5140   18.2510    3.8870 C.3   112  C112        0.1812
   2444  O5'       18.2050   17.2840    4.6920 O.3   112  C112       -0.3114
   2445  C4'       18.4990   19.0200    3.0320 C.3   112  C112        0.1773
   2446  O4'       19.1820   20.0130    3.8320 O.3   112  C112       -0.3307
   2447  C3'       19.6260   18.1910    2.4450 C.3   112  C112        0.1860
   2448  O3'       19.1480   17.4880    1.2970 O.3   112  C112       -0.3112
   2449  C2'       20.7050   19.2410    2.1800 C.3   112  C112        0.2309
   2450  O2'       20.5760   20.1590    1.1200 O.3   112  C112       -0.2156
   2451  C1'       20.4830   20.2040    3.3300 C.3   112  C112        0.2420
   2452  N1        21.4360   19.9620    4.3990 N.ar  112  C112       -0.2535
   2453  C2        22.6910   20.5660    4.2970 C.ar  112  C112        0.3532
   2454  O2        22.9520   21.2280    3.2900 O.2   112  C112       -0.2443
   2455  N3        23.5950   20.3850    5.2790 N.ar  112  C112       -0.1739
   2456  C4        23.2920   19.6180    6.3260 C.ar  112  C112        0.1759
   2457  N4        24.2190   19.4690    7.2700 N.pl3 112  C112       -0.1070
   2458  C5        22.0080   19.0080    6.4710 C.ar  112  C112        0.0566
   2459  C6        21.1270   19.1830    5.4800 C.ar  112  C112        0.0850
   2460  OP1       16.4040   15.6530    5.6230 O.2   112  C112       -0.5172
   2461  OP2       18.7130   16.1910    6.8090 O.co2 112  C112       -0.4373
   2462  P         20.0740   16.2780    0.8010 P.3   113  G113        0.2141
   2463  C5'       22.3650   16.6670   -0.5150 C.3   113  G113        0.1812
   2464  O5'       21.0930   17.1680   -0.0600 O.3   113  G113       -0.3114
   2465  C4'       23.4670   17.7120   -0.4490 C.3   113  G113        0.1773
   2466  O4'       23.5230   18.4280    0.8230 O.3   113  G113       -0.3307
   2467  C3'       24.8230   17.0470   -0.4840 C.3   113  G113        0.1860
   2468  O3'       24.9810   16.4160   -1.7380 O.3   113  G113       -0.3112
   2469  C2'       25.7660   18.1300    0.0570 C.3   113  G113        0.2309
   2470  O2'       26.3770   19.1250   -0.7190 O.3   113  G113       -0.2156
   2471  C1'       24.8840   18.8120    1.0950 C.3   113  G113        0.2408
   2472  N1        28.5580   18.4530    4.6320 N.ar  113  G113       -0.1709
   2473  C2        28.6340   18.9850    3.3740 C.ar  113  G113        0.2606
   2474  N2        29.8360   19.4840    3.0360 N.pl3 113  G113       -0.0859
   2475  N3        27.6100   19.0220    2.5160 N.ar  113  G113       -0.1918
   2476  C4        26.4980   18.4630    3.0430 C.ar  113  G113        0.1723
   2477  C5        26.3380   17.8770    4.2820 C.ar  113  G113        0.1748
   2478  C6        27.4370   17.8370    5.1710 C.ar  113  G113        0.3023
   2479  O6        27.5030   17.3150    6.2830 O.2   113  G113       -0.2633
   2480  N7        25.0440   17.3980    4.4370 N.ar  113  G113       -0.2173
   2481  C8        24.4460   17.7020    3.3190 C.ar  113  G113        0.1817
   2482  N9        25.2630   18.3640    2.4330 N.ar  113  G113       -0.2693
   2483  OP1       19.1480   15.4270   -0.0160 O.2   113  G113       -0.5172
   2484  OP2       20.8630   15.6640    1.9400 O.co2 113  G113       -0.4373
   2485  P         25.8000   15.0480   -1.7760 P.3   114  G114        0.2141
   2486  C5'       28.2220   15.9700   -1.5620 C.3   114  G114        0.1812
   2487  O5'       27.1210   15.3090   -0.9080 O.3   114  G114       -0.3114
   2488  C4'       29.4120   16.0540   -0.6560 C.3   114  G114        0.1773
   2489  O4'       29.0220   16.7100    0.5770 O.3   114  G114       -0.3307
   2490  C3'       30.0110   14.7290   -0.2350 C.3   114  G114        0.1860
   2491  O3'       30.9490   14.3480   -1.2260 O.3   114  G114       -0.3112
   2492  C2'       30.6530   15.0750    1.1050 C.3   114  G114        0.2309
   2493  O2'       31.9320   15.6710    0.9690 O.3   114  G114       -0.2156
   2494  C1'       29.6300   16.0590    1.6880 C.3   114  G114        0.2408
   2495  N1        28.0020   14.2180    6.1700 N.ar  114  G114       -0.1709
   2496  C2        29.2260   14.7530    5.8580 C.ar  114  G114        0.2606
   2497  N2        30.1230   14.7930    6.8590 N.pl3 114  G114       -0.0859
   2498  N3        29.5460   15.2240    4.6510 N.ar  114  G114       -0.1918
   2499  C4        28.5290   15.0940    3.7750 C.ar  114  G114        0.1723
   2500  C5        27.2590   14.6150    4.0030 C.ar  114  G114        0.1748
   2501  C6        26.9270   14.1290    5.2900 C.ar  114  G114        0.3023
   2502  O6        25.8640   13.6330    5.6630 O.2   114  G114       -0.2633
   2503  N7        26.4880   14.6890    2.8500 N.ar  114  G114       -0.2173
   2504  C8        27.2950   15.1820    1.9540 C.ar  114  G114        0.1817
   2505  N9        28.5530   15.4370    2.4440 N.ar  114  G114       -0.2693
   2506  OP1       26.2390   15.0400   -3.1990 O.2   114  G114       -0.5172
   2507  OP2       24.9840   13.9070   -1.2680 O.co2 114  G114       -0.4373
   2508  P         30.8460   12.8860   -1.9230 P.3   115  A115        0.2141
   2509  C5'       32.8850   12.7610   -0.2080 C.3   115  A115        0.1812
   2510  O5'       31.8610   12.0980   -0.9680 O.3   115  A115       -0.3114
   2511  C4'       33.2320   11.9790    1.0400 C.3   115  A115        0.1773
   2512  O4'       32.3400   12.3060    2.1430 O.3   115  A115       -0.3307
   2513  C3'       33.2580   10.4530    0.9040 C.3   115  A115        0.1860
   2514  O3'       34.4170    9.9720    1.5650 O.3   115  A115       -0.3112
   2515  C2'       32.0200    9.9530    1.6550 C.3   115  A115        0.2309
   2516  O2'       32.1470    8.7910    2.4640 O.3   115  A115       -0.2156
   2517  C1'       31.5760   11.1670    2.4890 C.3   115  A115        0.2408
   2518  N1        26.8240   11.5200    4.3330 N.ar  115  A115       -0.2040
   2519  C2        28.0310   11.4130    4.9330 C.ar  115  A115        0.2016
   2520  N3        29.2440   11.3430    4.3820 N.ar  115  A115       -0.2048
   2521  C4        29.1470   11.4030    3.0450 C.ar  115  A115        0.1692
   2522  C5        27.9850   11.4890    2.2890 C.ar  115  A115        0.1518
   2523  C6        26.7750   11.5590    2.9840 C.ar  115  A115        0.1919
   2524  N6        25.5910   11.6980    2.3880 N.pl3 115  A115       -0.1054
   2525  N7        28.2790   11.5220    0.9360 N.ar  115  A115       -0.2193
   2526  C8        29.5890   11.4410    0.9000 C.ar  115  A115        0.1816
   2527  N9        30.1780   11.4020    2.1460 N.ar  115  A115       -0.2693
   2528  OP1       31.3350   13.0160   -3.3050 O.2   115  A115       -0.5172
   2529  OP2       29.4960   12.2780   -1.7460 O.co2 115  A115       -0.4373
   2530  P         35.1920    8.7510    0.9410 P.3   116  C116        0.2141
   2531  C5'       37.6740    9.1880    1.7450 C.3   116  C116        0.1812
   2532  O5'       36.3360    8.7920    2.0530 O.3   116  C116       -0.3114
   2533  C4'       38.4400    9.3650    3.0290 C.3   116  C116        0.1773
   2534  O4'       37.7530   10.3390    3.8690 O.3   116  C116       -0.3307
   2535  C3'       38.5320    8.1290    3.9010 C.3   116  C116        0.1860
   2536  O3'       39.4810    7.1810    3.4390 O.3   116  C116       -0.3112
   2537  C2'       38.7230    8.7200    5.3030 C.3   116  C116        0.2309
   2538  O2'       40.0090    8.9800    5.8400 O.3   116  C116       -0.2156
   2539  C1'       37.8040    9.9390    5.2340 C.3   116  C116        0.2420
   2540  N1        36.4320    9.6100    5.6570 N.ar  116  C116       -0.2535
   2541  C2        36.1770    9.4640    7.0240 C.ar  116  C116        0.3532
   2542  O2        37.1060    9.6350    7.8260 O.2   116  C116       -0.2443
   2543  N3        34.9240    9.1590    7.4340 N.ar  116  C116       -0.1739
   2544  C4        33.9550    8.9740    6.5320 C.ar  116  C116        0.1759
   2545  N4        32.7460    8.6590    6.9800 N.pl3 116  C116       -0.1070
   2546  C5        34.1890    9.1010    5.1300 C.ar  116  C116        0.0566
   2547  C6        35.4320    9.4100    4.7400 C.ar  116  C116        0.0850
   2548  OP1       35.6390    9.0980   -0.4270 O.2   116  C116       -0.5172
   2549  OP2       34.2530    7.6270    1.1100 O.co2 116  C116       -0.4373
   2550  P         39.0010    5.7740    2.7960 P.3   117  G117        0.2141
   2551  C5'       38.5620    4.9160    5.2350 C.3   117  G117        0.1812
   2552  O5'       38.0320    5.1480    3.9050 O.3   117  G117       -0.3114
   2553  C4'       37.4740    5.0330    6.2680 C.3   117  G117        0.1773
   2554  O4'       36.5280    6.0790    5.8740 O.3   117  G117       -0.3307
   2555  C3'       36.5710    3.8240    6.4050 C.3   117  G117        0.1860
   2556  O3'       37.1270    2.6880    7.0650 O.3   117  G117       -0.3112
   2557  C2'       35.3740    4.4430    7.1220 C.3   117  G117        0.2309
   2558  O2'       35.7060    4.7320    8.4590 O.3   117  G117       -0.2156
   2559  C1'       35.2410    5.7650    6.3710 C.3   117  G117        0.2408
   2560  N1        30.4350    5.0620    4.9130 N.ar  117  G117       -0.1709
   2561  C2        30.9630    5.1250    6.1720 C.ar  117  G117        0.2606
   2562  N2        30.0960    5.0160    7.1730 N.pl3 117  G117       -0.0859
   2563  N3        32.2510    5.2920    6.4320 N.ar  117  G117       -0.1918
   2564  C4        32.9700    5.4800    5.3070 C.ar  117  G117        0.1723
   2565  C5        32.5360    5.4690    4.0010 C.ar  117  G117        0.1748
   2566  C6        31.1550    5.2450    3.7420 C.ar  117  G117        0.3023
   2567  O6        30.5670    5.2450    2.6580 O.2   117  G117       -0.2633
   2568  N7        33.6020    5.6490    3.1250 N.ar  117  G117       -0.2173
   2569  C8        34.6490    5.7610    3.9030 C.ar  117  G117        0.1817
   2570  N9        34.3330    5.6780    5.2400 N.ar  117  G117       -0.2693
   2571  OP1       40.3020    5.0620    2.9550 O.3   117  G117       -0.4373
   2572  OP2       38.3380    5.8110    1.4450 O.co2 117  G117       -0.5172
   2573  P         36.6230    1.2420    6.4930 P.3   118  G118        0.2141
   2574  C5'       35.2990    0.9690    8.7160 C.3   118  G118        0.1812
   2575  O5'       35.2650    0.9310    7.2740 O.3   118  G118       -0.3114
   2576  C4'       33.8950    1.0630    9.2750 C.3   118  G118        0.1773
   2577  O4'       33.1820    2.1870    8.6790 O.3   118  G118       -0.3307
   2578  C3'       33.0290   -0.1330    8.9580 C.3   118  G118        0.1860
   2579  O3'       33.4480   -1.1900    9.8420 O.3   118  G118       -0.3112
   2580  C2'       31.6270    0.4490    9.0770 C.3   118  G118        0.2309
   2581  O2'       31.4130    0.4510   10.4710 O.3   118  G118       -0.2156
   2582  C1'       31.8190    1.8610    8.4960 C.3   118  G118        0.2408
   2583  N1        28.3310    1.6760    4.7960 N.ar  118  G118       -0.1709
   2584  C2        28.1570    1.6460    6.1570 C.ar  118  G118        0.2606
   2585  N2        26.8960    1.5100    6.5820 N.pl3 118  G118       -0.0859
   2586  N3        29.1460    1.7410    7.0390 N.ar  118  G118       -0.1918
   2587  C4        30.3460    1.8520    6.4320 C.ar  118  G118        0.1723
   2588  C5        30.6270    1.9050    5.0790 C.ar  118  G118        0.1748
   2589  C6        29.5530    1.8310    4.1510 C.ar  118  G118        0.3023
   2590  O6        29.5960    1.8800    2.8990 O.2   118  G118       -0.2633
   2591  N7        31.9900    2.0720    4.8660 N.ar  118  G118       -0.2173
   2592  C8        32.5130    2.0770    6.0690 C.ar  118  G118        0.1817
   2593  N9        31.5690    1.9450    7.0650 N.ar  118  G118       -0.2693
   2594  OP1       37.6750    0.3880    7.1110 O.3   118  G118       -0.4373
   2595  OP2       36.3880    1.1770    4.9980 O.co2 118  G118       -0.5172
   2596  P         33.2820   -2.5890    9.0910 P.3   119  C119        0.2141
   2597  C5'       30.7920   -2.9910    9.7440 C.3   119  C119        0.1812
   2598  O5'       31.7300   -2.6430    8.6880 O.3   119  C119       -0.3114
   2599  C4'       29.3810   -2.8300    9.2640 C.3   119  C119        0.1773
   2600  O4'       29.2810   -1.6540    8.4220 O.3   119  C119       -0.3307
   2601  C3'       28.9280   -3.8910    8.3030 C.3   119  C119        0.1860
   2602  O3'       28.6520   -5.0480    9.0680 O.3   119  C119       -0.3112
   2603  C2'       27.6880   -3.2320    7.7280 C.3   119  C119        0.2309
   2604  O2'       26.6420   -3.3830    8.6580 O.3   119  C119       -0.2156
   2605  C1'       28.1590   -1.7820    7.5650 C.3   119  C119        0.2420
   2606  N1        28.5940   -1.6050    6.1690 N.ar  119  C119       -0.2535
   2607  C2        27.6030   -1.5710    5.1830 C.ar  119  C119        0.3532
   2608  O2        26.4250   -1.6290    5.5290 O.2   119  C119       -0.2443
   2609  N3        27.9560   -1.4880    3.8830 N.ar  119  C119       -0.1739
   2610  C4        29.2460   -1.4860    3.5520 C.ar  119  C119        0.1759
   2611  N4        29.5490   -1.4490    2.2600 N.pl3 119  C119       -0.1070
   2612  C5        30.2800   -1.4360    4.5380 C.ar  119  C119        0.0566
   2613  C6        29.9140   -1.5680    5.8190 C.ar  119  C119        0.0850
   2614  OP1       33.3780   -3.7090   10.0580 O.3   119  C119       -0.4373
   2615  OP2       33.9300   -2.5900    7.7610 O.co2 119  C119       -0.5172
   2616  P         28.7140   -6.4750    8.3160 P.3   120  A120        0.2141
   2617  C5'       26.1760   -6.4820    7.8380 C.3   120  A120        0.1812
   2618  O5'       27.4870   -6.4380    7.3150 O.3   120  A120       -0.3114
   2619  C4'       25.2500   -6.4010    6.6470 C.3   120  A120        0.1773
   2620  O4'       25.5670   -5.2080    5.9020 O.3   120  A120       -0.3307
   2621  C3'       25.4560   -7.5080    5.6260 C.3   120  A120        0.1860
   2622  O3'       24.6650   -8.5880    6.1270 O.3   120  A120       -0.3112
   2623  C2'       24.9470   -6.8770    4.3370 C.3   120  A120        0.2309
   2624  O2'       23.5520   -6.7260    4.3590 O.3   120  A120       -0.2156
   2625  C1'       25.3110   -5.4140    4.5310 C.3   120  A120        0.2408
   2626  N1        27.4190   -4.3250    0.0030 N.ar  120  A120       -0.2040
   2627  C2        26.1500   -4.5530    0.3660 C.ar  120  A120        0.2016
   2628  N3        25.6590   -4.8180    1.5690 N.ar  120  A120       -0.2048
   2629  C4        26.6450   -4.8620    2.4780 C.ar  120  A120        0.1692
   2630  C5        27.9940   -4.6710    2.2510 C.ar  120  A120        0.1518
   2631  C6        28.3840   -4.4010    0.9490 C.ar  120  A120        0.1919
   2632  N6        29.6540   -4.1550    0.6050 N.pl3 120  A120       -0.1054
   2633  N7        28.7110   -4.7520    3.4330 N.ar  120  A120       -0.2193
   2634  C8        27.8010   -5.0540    4.3300 C.ar  120  A120        0.1816
   2635  N9        26.5260   -5.1080    3.8210 N.ar  120  A120       -0.2693
   2636  OP1       28.4800   -7.4710    9.3750 O.3   120  A120       -0.4373
   2637  OP2       29.8830   -6.6320    7.4300 O.co2 120  A120       -0.5172
   2638  P         25.4950   -9.9020    6.4540 P.3   121  A121        0.2141
   2639  C5'       23.1210  -10.8380    7.1160 C.3   121  A121        0.1812
   2640  O5'       24.3670  -11.0320    6.4720 O.3   121  A121       -0.3114
   2641  C4'       22.1800  -11.9790    6.7650 C.3   121  A121        0.1773
   2642  O4'       21.5220  -11.6960    5.4930 O.3   121  A121       -0.3307
   2643  C3'       22.8470  -13.3440    6.5730 C.3   121  A121        0.1860
   2644  O3'       22.0300  -14.4370    6.9860 O.3   121  A121       -0.3112
   2645  C2'       23.0210  -13.3850    5.0710 C.3   121  A121        0.2309
   2646  O2'       23.1880  -14.6700    4.5690 O.3   121  A121       -0.2156
   2647  C1'       21.6960  -12.8040    4.6290 C.3   121  A121        0.2408
   2648  N1        24.0130   -9.7730    1.1810 N.ar  121  A121       -0.2040
   2649  C2        24.2070   -9.9450    2.4930 C.ar  121  A121        0.2016
   2650  N3        23.5510  -10.7220    3.3450 N.ar  121  A121       -0.2048
   2651  C4        22.6080  -11.4260    2.7050 C.ar  121  A121        0.1692
   2652  C5        22.3130  -11.3810    1.3590 C.ar  121  A121        0.1518
   2653  C6        23.0640  -10.5090    0.5710 C.ar  121  A121        0.1919
   2654  N6        22.8910  -10.3660   -0.7450 N.pl3 121  A121       -0.1054
   2655  N7        21.2670  -12.2360    1.0580 N.ar  121  A121       -0.2193
   2656  C8        20.9660  -12.7820    2.2090 C.ar  121  A121        0.1816
   2657  N9        21.7400  -12.3420    3.2480 N.ar  121  A121       -0.2693
   2658  OP1       26.3070   -9.7440    7.7360 O.3   121  A121       -0.4373
   2659  OP2       26.2660  -10.2010    5.2110 O.co2 121  A121       -0.5172
   2660  P         21.9760  -14.8190    8.5550 P.3   122  A122        0.2141
   2661  C5'       19.3100  -14.9160    8.3500 C.3   122  A122        0.1812
   2662  O5'       20.5450  -15.4240    8.9060 O.3   122  A122       -0.3114
   2663  C4'       18.1710  -15.8900    8.6210 C.3   122  A122        0.1773
   2664  O4'       18.0970  -16.9060    7.5750 O.3   122  A122       -0.3307
   2665  C3'       18.3290  -16.6820    9.9210 C.3   122  A122        0.1860
   2666  O3'       17.7030  -15.9410   10.9440 O.3   122  A122       -0.3112
   2667  C2'       17.5970  -17.9810    9.6290 C.3   122  A122        0.2309
   2668  O2'       16.2050  -17.8350    9.5080 O.3   122  A122       -0.2156
   2669  C1'       17.9170  -18.1850    8.1630 C.3   122  A122        0.2408
   2670  N1        19.3780  -23.0260    7.9980 N.ar  122  A122       -0.2040
   2671  C2        18.2250  -22.4190    8.3110 C.ar  122  A122        0.2016
   2672  N3        17.9340  -21.1240    8.3380 N.ar  122  A122       -0.2048
   2673  C4        19.0110  -20.3920    8.0130 C.ar  122  A122        0.1692
   2674  C5        20.2650  -20.8640    7.6600 C.ar  122  A122        0.1518
   2675  C6        20.4350  -22.2670    7.6420 C.ar  122  A122        0.1919
   2676  N6        21.5800  -22.8840    7.3340 N.pl3 122  A122       -0.1054
   2677  N7        21.1150  -19.8110    7.3510 N.ar  122  A122       -0.2193
   2678  C8        20.3660  -18.7440    7.5260 C.ar  122  A122        0.1816
   2679  N9        19.0830  -19.0260    7.9260 N.ar  122  A122       -0.2693
   2680  OP1       21.9820  -13.5460    9.3520 O.3   122  A122       -0.4373
   2681  OP2       23.0700  -15.8280    8.7750 O.co2 122  A122       -0.5172
   2682  P         18.2150  -16.1140   12.4250 P.3   123  C123        0.2141
   2683  C5'       18.0880  -18.4060   13.6840 C.3   123  C123        0.1812
   2684  O5'       17.6860  -17.6010   12.5850 O.3   123  C123       -0.3114
   2685  C4'       18.2030  -19.8210   13.2120 C.3   123  C123        0.1773
   2686  O4'       18.5670  -19.8470   11.8070 O.3   123  C123       -0.3307
   2687  C3'       19.3230  -20.5890   13.8620 C.3   123  C123        0.1860
   2688  O3'       18.7770  -20.9590   15.0990 O.3   123  C123       -0.3112
   2689  C2'       19.5050  -21.7200   12.8780 C.3   123  C123        0.2309
   2690  O2'       18.3350  -22.4820   12.9670 O.3   123  C123       -0.2156
   2691  C1'       19.4070  -20.9630   11.5580 C.3   123  C123        0.2420
   2692  N1        20.7160  -20.4750   11.0830 N.ar  123  C123       -0.2535
   2693  C2        21.6770  -21.4210   10.7210 C.ar  123  C123        0.3532
   2694  O2        21.3900  -22.6190   10.7990 O.2   123  C123       -0.2443
   2695  N3        22.8970  -21.0090   10.3220 N.ar  123  C123       -0.1739
   2696  C4        23.1700  -19.7070   10.2570 C.ar  123  C123        0.1759
   2697  N4        24.3700  -19.3470    9.8120 N.pl3 123  C123       -0.1070
   2698  C5        22.2130  -18.7150   10.6250 C.ar  123  C123        0.0566
   2699  C6        21.0090  -19.1410   11.0350 C.ar  123  C123        0.0850
   2700  OP1       17.3760  -15.2480   13.3190 O.3   123  C123       -0.4373
   2701  OP2       19.6720  -16.1300   12.5460 O.co2 123  C123       -0.5172
   2702  P         19.7110  -20.7100   16.3370 P.3   124  C124        0.2141
   2703  C5'       19.9600  -23.3010   16.2210 C.3   124  C124        0.1812
   2704  O5'       20.5990  -22.0230   16.2120 O.3   124  C124       -0.3114
   2705  C4'       20.9780  -24.3410   15.8750 C.3   124  C124        0.1773
   2706  O4'       21.4740  -24.1190   14.5320 O.3   124  C124       -0.3307
   2707  C3'       22.2460  -24.2980   16.7060 C.3   124  C124        0.1860
   2708  O3'       22.0170  -24.9250   17.9580 O.3   124  C124       -0.3112
   2709  C2'       23.2190  -25.0800   15.8360 C.3   124  C124        0.2309
   2710  O2'       23.0010  -26.4510   16.0950 O.3   124  C124       -0.2156
   2711  C1'       22.7900  -24.6450   14.4290 C.3   124  C124        0.2420
   2712  N1        23.6390  -23.5870   13.8850 N.ar  124  C124       -0.2535
   2713  C2        24.9320  -23.9040   13.4580 C.ar  124  C124        0.3532
   2714  O2        25.3150  -25.0770   13.5410 O.2   124  C124       -0.2443
   2715  N3        25.7240  -22.9220   12.9600 N.ar  124  C124       -0.1739
   2716  C4        25.2640  -21.6700   12.8880 C.ar  124  C124        0.1759
   2717  N4        26.0620  -20.7430   12.3820 N.pl3 124  C124       -0.1070
   2718  C5        23.9550  -21.3200   13.3200 C.ar  124  C124        0.0566
   2719  C6        23.1860  -22.2980   13.8160 C.ar  124  C124        0.0850
   2720  OP1       18.7090  -20.7580   17.4270 O.3   124  C124       -0.4373
   2721  OP2       20.6230  -19.5470   16.1970 O.co2 124  C124       -0.5172
   2722  P         22.6320  -24.2270   19.2540 P.3   125  U125        0.2141
   2723  C5'       24.6620  -25.8710   19.5620 C.3   125  U125        0.1812
   2724  O5'       24.1690  -24.6270   19.0320 O.3   125  U125       -0.3114
   2725  C4'       25.9120  -26.3570   18.8750 C.3   125  U125        0.1773
   2726  O4'       25.9410  -25.9560   17.4820 O.3   125  U125       -0.3307
   2727  C3'       27.2260  -25.8250   19.4020 C.3   125  U125        0.1860
   2728  O3'       27.5910  -26.3570   20.6580 O.3   125  U125       -0.3112
   2729  C2'       28.1750  -26.1630   18.2560 C.3   125  U125        0.2309
   2730  O2'       28.6280  -27.4930   18.1530 O.3   125  U125       -0.2156
   2731  C1'       27.2900  -25.8620   17.0470 C.3   125  U125        0.2420
   2732  N1        27.4990  -24.5040   16.5390 N.ar  125  U125       -0.2534
   2733  C2        28.7100  -24.2150   15.9290 C.ar  125  U125        0.3546
   2734  O2        29.6040  -25.0390   15.7980 O.2   125  U125       -0.2443
   2735  N3        28.8260  -22.9240   15.4720 N.ar  125  U125       -0.1530
   2736  C4        27.8750  -21.9210   15.5480 C.ar  125  U125        0.2846
   2737  O4        28.1280  -20.8160   15.0810 O.2   125  U125       -0.2650
   2738  C5        26.6580  -22.2950   16.2000 C.ar  125  U125        0.0814
   2739  C6        26.5170  -23.5410   16.6670 C.ar  125  U125        0.0870
   2740  OP1       22.0050  -24.8970   20.4330 O.3   125  U125       -0.4373
   2741  OP2       22.4140  -22.7690   19.1040 O.co2 125  U125       -0.5172
   2742  P         27.9510  -25.2340   21.7670 P.3   126  U126        0.2141
   2743  C5'       30.4060  -26.1810   21.4700 C.3   126  U126        0.1812
   2744  O5'       29.5200  -25.0430   21.5210 O.3   126  U126       -0.3114
   2745  C4'       31.6590  -25.8430   20.6990 C.3   126  U126        0.1773
   2746  O4'       31.2890  -25.3810   19.3680 O.3   126  U126       -0.3307
   2747  C3'       32.4960  -24.6980   21.2520 C.3   126  U126        0.1860
   2748  O3'       33.2830  -24.9490   22.4250 O.3   126  U126       -0.3112
   2749  C2'       33.2790  -24.2450   20.0160 C.3   126  U126        0.2309
   2750  O2'       34.4150  -25.0070   19.6780 O.3   126  U126       -0.2156
   2751  C1'       32.2290  -24.4050   18.9140 C.3   126  U126        0.2420
   2752  N1        31.4980  -23.1640   18.6100 N.ar  126  U126       -0.2534
   2753  C2        32.1680  -22.1290   17.9740 C.ar  126  U126        0.3546
   2754  O2        33.3490  -22.1950   17.6570 O.2   126  U126       -0.2443
   2755  N3        31.4020  -21.0150   17.7250 N.ar  126  U126       -0.1530
   2756  C4        30.0770  -20.8250   18.0570 C.ar  126  U126        0.2846
   2757  O4        29.5280  -19.7580   17.7870 O.2   126  U126       -0.2650
   2758  C5        29.4620  -21.9380   18.7090 C.ar  126  U126        0.0814
   2759  C6        30.1730  -23.0420   18.9530 C.ar  126  U126        0.0870
   2760  OP1       27.6860  -25.9330   23.0580 O.3   126  U126       -0.4373
   2761  OP2       27.2800  -23.9270   21.5040 O.co2 126  U126       -0.5172
   2762  P         33.2180  -23.6620   23.4150 P.3   127  C127        0.2141
   2763  C5'       35.6570  -23.3060   22.5130 C.3   127  C127        0.1812
   2764  O5'       34.3170  -22.8080   22.6490 O.3   127  C127       -0.3114
   2765  C4'       36.4880  -22.2910   21.7660 C.3   127  C127        0.1773
   2766  O4'       35.8460  -21.9280   20.5110 O.3   127  C127       -0.3307
   2767  C3'       36.6850  -20.9370   22.4170 C.3   127  C127        0.1860
   2768  O3'       37.6830  -20.9350   23.4020 O.3   127  C127       -0.3112
   2769  C2'       37.2060  -20.1440   21.2360 C.3   127  C127        0.2309
   2770  O2'       38.5470  -20.3920   20.8400 O.3   127  C127       -0.2156
   2771  C1'       36.2610  -20.6280   20.1420 C.3   127  C127        0.2420
   2772  N1        35.0730  -19.7870   20.0570 N.ar  127  C127       -0.2535
   2773  C2        35.1550  -18.5610   19.3960 C.ar  127  C127        0.3532
   2774  O2        36.2400  -18.2150   18.8940 O.2   127  C127       -0.2443
   2775  N3        34.0470  -17.7980   19.2860 N.ar  127  C127       -0.1739
   2776  C4        32.9030  -18.2070   19.8250 C.ar  127  C127        0.1759
   2777  N4        31.8410  -17.4240   19.6910 N.pl3 127  C127       -0.1070
   2778  C5        32.7970  -19.4390   20.5210 C.ar  127  C127        0.0566
   2779  C6        33.8980  -20.1900   20.6180 C.ar  127  C127        0.0850
   2780  OP1       33.8120  -23.9210   24.7460 O.3   127  C127       -0.4373
   2781  OP2       31.9230  -22.9460   23.3110 O.co2 127  C127       -0.5172
   2782  P         37.6380  -19.8210   24.5290 P.3   128  G128        0.2141
   2783  C5'       37.9440  -17.1840   24.4210 C.3   128  G128        0.1812
   2784  O5'       37.5910  -18.4240   23.7570 O.3   128  G128       -0.3114
   2785  C4'       38.4330  -16.1450   23.4400 C.3   128  G128        0.1773
   2786  O4'       37.6750  -16.2170   22.2030 O.3   128  G128       -0.3307
   2787  C3'       38.1850  -14.7270   23.8880 C.3   128  G128        0.1860
   2788  O3'       39.2000  -14.4220   24.8110 O.3   128  G128       -0.3112
   2789  C2'       38.2890  -13.9820   22.5750 C.3   128  G128        0.2309
   2790  O2'       39.5520  -13.9120   21.9620 O.3   128  G128       -0.2156
   2791  C1'       37.5460  -14.9220   21.6400 C.3   128  G128        0.2408
   2792  N1        34.2660  -11.2860   20.3430 N.ar  128  G128       -0.1709
   2793  C2        35.6330  -11.2990   20.2530 C.ar  128  G128        0.2606
   2794  N2        36.1960  -10.1940   19.7400 N.pl3 128  G128       -0.0859
   2795  N3        36.3880  -12.3270   20.6100 N.ar  128  G128       -0.1918
   2796  C4        35.6510  -13.3500   21.0900 C.ar  128  G128        0.1723
   2797  C5        34.2840  -13.4330   21.2260 C.ar  128  G128        0.1748
   2798  C6        33.4890  -12.3150   20.8520 C.ar  128  G128        0.3023
   2799  O6        32.2670  -12.1750   20.9320 O.2   128  G128       -0.2633
   2800  N7        33.9170  -14.6600   21.7570 N.ar  128  G128       -0.2173
   2801  C8        35.0480  -15.2880   21.9330 C.ar  128  G128        0.1817
   2802  N9        36.1380  -14.5480   21.5580 N.ar  128  G128       -0.2693
   2803  OP1       38.9700  -20.0200   25.2180 O.2   128  G128       -0.5172
   2804  OP2       36.3750  -19.8200   25.3290 O.co2 128  G128       -0.4373
   2805  P         38.8050  -13.9420   26.2950 P.3   129  G129        0.2141
   2806  C5'       39.3980  -11.5150   25.5240 C.3   129  G129        0.1812
   2807  O5'       38.4130  -12.4290   26.0000 O.3   129  G129       -0.3114
   2808  C4'       38.7330  -10.4000   24.7620 C.3   129  G129        0.1773
   2809  O4'       37.8440  -10.9460   23.7620 O.3   129  G129       -0.3307
   2810  C3'       37.8080   -9.4980   25.5430 C.3   129  G129        0.1860
   2811  O3'       38.5490   -8.5290   26.2410 O.3   129  G129       -0.3112
   2812  C2'       37.0590   -8.8360   24.4150 C.3   129  G129        0.2309
   2813  O2'       37.9750   -7.9740   23.7680 O.3   129  G129       -0.2156
   2814  C1'       36.8100  -10.0280   23.4980 C.3   129  G129        0.2408
   2815  N1        31.7390   -9.8690   23.2500 N.ar  129  G129       -0.1709
   2816  C2        32.6430   -8.9250   22.8560 C.ar  129  G129        0.2606
   2817  N2        32.1250   -7.8220   22.3200 N.pl3 129  G129       -0.0859
   2818  N3        33.9580   -9.0780   22.9400 N.ar  129  G129       -0.1918
   2819  C4        34.2870  -10.2580   23.5160 C.ar  129  G129        0.1723
   2820  C5        33.4490  -11.2470   23.9830 C.ar  129  G129        0.1748
   2821  C6        32.0570  -11.0830   23.8420 C.ar  129  G129        0.3023
   2822  O6        31.1590  -11.8390   24.1940 O.2   129  G129       -0.2633
   2823  N7        34.1770  -12.2920   24.5280 N.ar  129  G129       -0.2173
   2824  C8        35.4230  -11.9380   24.3680 C.ar  129  G129        0.1817
   2825  N9        35.5600  -10.7090   23.7750 N.ar  129  G129       -0.2693
   2826  OP1       40.0640  -14.0440   27.0830 O.3   129  G129       -0.4373
   2827  OP2       37.5730  -14.6010   26.7970 O.co2 129  G129       -0.5172
   2828  P         38.1420   -8.3240   27.7570 P.3   130  U130        0.2141
   2829  C5'       37.0900   -6.0150   27.0570 C.3   130  U130        0.1812
   2830  O5'       36.9150   -7.2990   27.7040 O.3   130  U130       -0.3114
   2831  C4'       35.7470   -5.4380   26.6800 C.3   130  U130        0.1773
   2832  O4'       35.1280   -6.2440   25.6520 O.3   130  U130       -0.3307
   2833  C3'       34.6770   -5.3970   27.7620 C.3   130  U130        0.1860
   2834  O3'       34.8110   -4.2440   28.5680 O.3   130  U130       -0.3112
   2835  C2'       33.4200   -5.2500   26.9280 C.3   130  U130        0.2309
   2836  O2'       33.3670   -3.9730   26.3410 O.3   130  U130       -0.2156
   2837  C1'       33.7250   -6.2100   25.7960 C.3   130  U130        0.2420
   2838  N1        33.2770   -7.5400   26.1860 N.ar  130  U130       -0.2534
   2839  C2        31.9160   -7.7430   26.1910 C.ar  130  U130        0.3546
   2840  O2        31.1240   -6.8910   25.8440 O.2   130  U130       -0.2443
   2841  N3        31.5200   -8.9900   26.5960 N.ar  130  U130       -0.1530
   2842  C4        32.3230  -10.0300   26.9880 C.ar  130  U130        0.2846
   2843  O4        31.8070  -11.0850   27.3240 O.2   130  U130       -0.2650
   2844  C5        33.7240   -9.7390   26.9820 C.ar  130  U130        0.0814
   2845  C6        34.1440   -8.5260   26.6070 C.ar  130  U130        0.0870
   2846  OP1       39.3630   -7.6340   28.2750 O.2   130  U130       -0.5172
   2847  OP2       37.6910   -9.6050   28.3680 O.co2 130  U130       -0.4373
   2848  P         34.4820   -4.3400   30.0880 P.3   131  C131        0.2141
   2849  C5'       32.3130   -3.0100   29.4220 C.3   131  C131        0.1812
   2850  O5'       32.9020   -4.1750   30.0110 O.3   131  C131       -0.3114
   2851  C4'       30.8220   -3.2020   29.3730 C.3   131  C131        0.1773
   2852  O4'       30.5340   -4.2990   28.4790 O.3   131  C131       -0.3307
   2853  C3'       30.1440   -3.5820   30.6880 C.3   131  C131        0.1860
   2854  O3'       29.8190   -2.4040   31.4280 O.3   131  C131       -0.3112
   2855  C2'       28.9100   -4.3390   30.2040 C.3   131  C131        0.2309
   2856  O2'       27.8340   -3.6410   29.6060 O.3   131  C131       -0.2156
   2857  C1'       29.4800   -5.0760   29.0070 C.3   131  C131        0.2420
   2858  N1        30.0020   -6.3810   29.3780 N.ar  131  C131       -0.2535
   2859  C2        29.0990   -7.4410   29.4210 C.ar  131  C131        0.3532
   2860  O2        27.9130   -7.2200   29.1460 O.2   131  C131       -0.2443
   2861  N3        29.5420   -8.6780   29.7490 N.ar  131  C131       -0.1739
   2862  C4        30.8330   -8.8670   30.0410 C.ar  131  C131        0.1759
   2863  N4        31.2210  -10.1000   30.3800 N.pl3 131  C131       -0.1070
   2864  C5        31.7800   -7.7970   30.0050 C.ar  131  C131        0.0566
   2865  C6        31.3220   -6.5790   29.6840 C.ar  131  C131        0.0850
   2866  OP1       35.2650   -3.1660   30.5660 O.2   131  C131       -0.5172
   2867  OP2       34.7010   -5.6700   30.7400 O.co2 131  C131       -0.4373
   2868  P         29.7460   -2.4270   33.0230 P.3   132  U132        0.2141
   2869  C5'       27.1440   -2.5750   32.9190 C.3   132  U132        0.1812
   2870  O5'       28.3750   -3.1950   33.3100 O.3   132  U132       -0.3114
   2871  C4'       26.0230   -3.5660   32.9520 C.3   132  U132        0.1773
   2872  O4'       26.4190   -4.7320   32.2050 O.3   132  U132       -0.3307
   2873  C3'       25.7160   -4.1530   34.3200 C.3   132  U132        0.1860
   2874  O3'       24.9580   -3.3160   35.1690 O.3   132  U132       -0.3112
   2875  C2'       24.9900   -5.4480   33.9700 C.3   132  U132        0.2309
   2876  O2'       23.6020   -5.4080   33.7250 O.3   132  U132       -0.2156
   2877  C1'       25.7060   -5.8650   32.6900 C.3   132  U132        0.2420
   2878  N1        26.6700   -6.9320   32.9530 N.ar  132  U132       -0.2534
   2879  C2        26.1780   -8.1690   33.3330 C.ar  132  U132        0.3546
   2880  O2        24.9850   -8.4030   33.4470 O.2   132  U132       -0.2443
   2881  N3        27.1370   -9.1280   33.5540 N.ar  132  U132       -0.1530
   2882  C4        28.5030   -8.9760   33.4650 C.ar  132  U132        0.2846
   2883  O4        29.2360   -9.9340   33.7040 O.2   132  U132       -0.2650
   2884  C5        28.9320   -7.6630   33.0840 C.ar  132  U132        0.0814
   2885  C6        28.0220   -6.7040   32.8610 C.ar  132  U132        0.0870
   2886  OP1       29.6660   -1.0150   33.4570 O.2   132  U132       -0.5172
   2887  OP2       30.8660   -3.2530   33.5160 O.co2 132  U132       -0.4373
   2888  P         25.2670   -3.4060   36.7260 P.3   133  G133        0.2141
   2889  C5'       23.1490   -4.9400   36.8460 C.3   133  G133        0.1812
   2890  O5'       24.4980   -4.6880   37.2630 O.3   133  G133       -0.3114
   2891  C4'       22.6500   -6.1810   37.5280 C.3   133  G133        0.1773
   2892  O4'       23.0020   -7.3430   36.7280 O.3   133  G133       -0.3307
   2893  C3'       23.2880   -6.4480   38.8820 C.3   133  G133        0.1860
   2894  O3'       22.6680   -5.6860   39.9160 O.3   133  G133       -0.3112
   2895  C2'       23.1320   -7.9550   39.0000 C.3   133  G133        0.2309
   2896  O2'       21.7830   -8.3340   39.1240 O.3   133  G133       -0.2156
   2897  C1'       23.4470   -8.3920   37.5750 C.3   133  G133        0.2408
   2898  N1        27.0730  -11.9430   37.4750 N.ar  133  G133       -0.1709
   2899  C2        25.7430  -12.0520   37.8100 C.ar  133  G133        0.2606
   2900  N2        25.3160  -13.2780   38.1410 N.pl3 133  G133       -0.0859
   2901  N3        24.8910  -11.0380   37.8100 N.ar  133  G133       -0.1918
   2902  C4        25.4790   -9.8850   37.4280 C.ar  133  G133        0.1723
   2903  C5        26.7950   -9.6650   37.0720 C.ar  133  G133        0.1748
   2904  C6        27.7050  -10.7670   37.0880 C.ar  133  G133        0.3023
   2905  O6        28.9170  -10.7750   36.8270 O.2   133  G133       -0.2633
   2906  N7        27.0010   -8.3300   36.7480 N.ar  133  G133       -0.2173
   2907  C8        25.8320   -7.7720   36.9200 C.ar  133  G133        0.1817
   2908  N9        24.8610   -8.6630   37.3150 N.ar  133  G133       -0.2693
   2909  OP1       24.5210   -2.2610   37.2950 O.3   133  G133       -0.4373
   2910  OP2       26.7210   -3.5040   36.9880 O.co2 133  G133       -0.5172
   2911  P         23.5580   -5.1610   41.1410 P.3   134  A134        0.2141
   2912  C5'       24.4210   -2.7200   40.7810 C.3   134  A134        0.1812
   2913  O5'       23.3490   -3.5880   41.1620 O.3   134  A134       -0.3114
   2914  C4'       23.8800   -1.3550   40.4130 C.3   134  A134        0.1773
   2915  O4'       22.4850   -1.2660   40.8050 O.3   134  A134       -0.3307
   2916  C3'       24.5650   -0.1900   41.1150 C.3   134  A134        0.1860
   2917  O3'       25.7150    0.2540   40.3930 O.3   134  A134       -0.3112
   2918  C2'       23.4750    0.8650   41.1230 C.3   134  A134        0.2309
   2919  O2'       23.3690    1.4370   39.8440 O.3   134  A134       -0.2156
   2920  C1'       22.2090    0.0270   41.2880 C.3   134  A134        0.2408
   2921  N1        19.7040    2.5960   44.9440 N.ar  134  A134       -0.2040
   2922  C2        20.1120    2.9330   43.7150 C.ar  134  A134        0.2016
   2923  N3        20.7740    2.2080   42.8210 N.ar  134  A134       -0.2048
   2924  C4        21.0070    0.9710   43.2920 C.ar  134  A134        0.1692
   2925  C5        20.6380    0.4720   44.5270 C.ar  134  A134        0.1518
   2926  C6        19.9660    1.3510   45.3930 C.ar  134  A134        0.1919
   2927  N6        19.5630    1.0230   46.6160 N.pl3 134  A134       -0.1054
   2928  N7        21.0440   -0.8460   44.6650 N.ar  134  A134       -0.2193
   2929  C8        21.6460   -1.1100   43.5300 C.ar  134  A134        0.1816
   2930  N9        21.6660   -0.0520   42.6540 N.ar  134  A134       -0.2693
   2931  OP1       24.9860   -5.4530   40.8440 O.2   134  A134       -0.5172
   2932  OP2       22.9400   -5.6840   42.3870 O.co2 134  A134       -0.4373
   2933  P         26.9770    0.8400   41.2030 P.3   135  G135        0.2141
   2934  C5'       25.7360    3.1560   41.4060 C.3   135  G135        0.1812
   2935  O5'       26.4370    2.0840   42.0430 O.3   135  G135       -0.3114
   2936  C4'       25.1410    4.0350   42.4650 C.3   135  G135        0.1773
   2937  O4'       23.9200    3.4210   42.9510 O.3   135  G135       -0.3307
   2938  C3'       26.0220    4.2250   43.6980 C.3   135  G135        0.1860
   2939  O3'       26.8920    5.3420   43.5350 O.3   135  G135       -0.3112
   2940  C2'       25.0090    4.4610   44.8200 C.3   135  G135        0.2309
   2941  O2'       24.6500    5.8050   45.0310 O.3   135  G135       -0.2156
   2942  C1'       23.8010    3.6430   44.3500 C.3   135  G135        0.2408
   2943  N1        22.0920    1.1410   48.3970 N.ar  135  G135       -0.1709
   2944  C2        21.8660    2.4400   48.0120 C.ar  135  G135        0.2606
   2945  N2        21.0940    3.1800   48.8240 N.pl3 135  G135       -0.0859
   2946  N3        22.3610    2.9760   46.9150 N.ar  135  G135       -0.1918
   2947  C4        23.1220    2.1030   46.2240 C.ar  135  G135        0.1723
   2948  C5        23.4150    0.7900   46.5240 C.ar  135  G135        0.1748
   2949  C6        22.8680    0.2220   47.7010 C.ar  135  G135        0.3023
   2950  O6        22.9980   -0.9270   48.1360 O.2   135  G135       -0.2633
   2951  N7        24.2250    0.2300   45.5460 N.ar  135  G135       -0.2173
   2952  C8        24.4130    1.1980   44.6900 C.ar  135  G135        0.1817
   2953  N9        23.7600    2.3570   45.0360 N.ar  135  G135       -0.2693
   2954  OP1       28.0410    1.4300   40.3610 O.2   135  G135       -0.5172
   2955  OP2       27.3260   -0.1630   42.2270 O.co2 135  G135       -0.4373
   2956  P         28.3990    5.3290   44.0030 P.3   136  G136        0.2141
   2957  C5'       27.8810    6.1090   46.4570 C.3   136  G136        0.1812
   2958  O5'       28.1130    5.0360   45.5390 O.3   136  G136       -0.3114
   2959  C4'       27.8160    5.5510   47.8480 C.3   136  G136        0.1773
   2960  O4'       26.7600    4.5650   47.9000 O.3   136  G136       -0.3307
   2961  C3'       29.0410    4.7860   48.2890 C.3   136  G136        0.1860
   2962  O3'       29.9410    5.7620   48.7790 O.3   136  G136       -0.3112
   2963  C2'       28.4770    3.8940   49.3820 C.3   136  G136        0.2309
   2964  O2'       28.2590    4.6730   50.5310 O.3   136  G136       -0.2156
   2965  C1'       27.0840    3.5660   48.8450 C.3   136  G136        0.2408
   2966  N1        26.0880   -1.4040   49.2820 N.ar  136  G136       -0.1709
   2967  C2        26.0140   -0.4130   50.2350 C.ar  136  G136        0.2606
   2968  N2        25.6350   -0.7960   51.4640 N.pl3 136  G136       -0.0859
   2969  N3        26.2810    0.8640   49.9990 N.ar  136  G136       -0.1918
   2970  C4        26.6400    1.0760   48.7150 C.ar  136  G136        0.1723
   2971  C5        26.7470    0.1600   47.6900 C.ar  136  G136        0.1748
   2972  C6        26.4570   -1.2100   47.9550 C.ar  136  G136        0.3023
   2973  O6        26.4850   -2.1710   47.1750 O.2   136  G136       -0.2633
   2974  N7        27.1570    0.7800   46.5200 N.ar  136  G136       -0.2173
   2975  C8        27.2960    2.0340   46.8500 C.ar  136  G136        0.1817
   2976  N9        27.0150    2.2780   48.1700 N.ar  136  G136       -0.2693
   2977  OP1       29.0360    6.6640   43.9290 O.3   136  G136       -0.4373
   2978  OP2       29.0610    4.1630   43.3680 O.co2 136  G136       -0.5172
   2979  P         31.4950    5.6210   48.4520 P.3   137  A137        0.2141
   2980  C5'       32.9710    3.5480   49.1370 C.3   137  A137        0.1812
   2981  O5'       31.7340    4.2560   49.2380 O.3   137  A137       -0.3114
   2982  C4'       33.5140    3.2810   50.5060 C.3   137  A137        0.1773
   2983  O4'       34.9050    3.6450   50.5240 O.3   137  A137       -0.3307
   2984  C3'       32.9640    4.1420   51.6470 C.3   137  A137        0.1860
   2985  O3'       31.6780    3.9010   52.2620 O.3   137  A137       -0.3112
   2986  C2'       34.0820    4.0810   52.6960 C.3   137  A137        0.2309
   2987  O2'       33.8360    3.1750   53.7550 O.3   137  A137       -0.2156
   2988  C1'       35.3130    3.6770   51.8700 C.3   137  A137        0.2408
   2989  N1        37.6290    8.0670   50.3550 N.ar  137  A137       -0.2040
   2990  C2        36.5650    7.4110   49.8650 C.ar  137  A137        0.2016
   2991  N3        36.0110    6.2720   50.2830 N.ar  137  A137       -0.2048
   2992  C4        36.6690    5.7910   51.3550 C.ar  137  A137        0.1692
   2993  C5        37.7770    6.3520   51.9690 C.ar  137  A137        0.1518
   2994  C6        38.2690    7.5500   51.4310 C.ar  137  A137        0.1919
   2995  N6        39.3350    8.1930   51.9200 N.pl3 137  A137       -0.1054
   2996  N7        38.2030    5.5660   53.0280 N.ar  137  A137       -0.2193
   2997  C8        37.3530    4.5690   53.0410 C.ar  137  A137        0.1816
   2998  N9        36.4120    4.6280   52.0410 N.ar  137  A137       -0.2693
   2999  OP1       32.2710    6.7410   49.0500 O.3   137  A137       -0.4373
   3000  OP2       31.6270    5.3870   46.9890 O.co2 137  A137       -0.5172
   3001  P         30.7780    2.5570   52.4210 P.3   138  A138        0.2141
   3002  C5'       31.1310    0.2080   51.2920 C.3   138  A138        0.1812
   3003  O5'       31.4400    1.6080   51.3290 O.3   138  A138       -0.3114
   3004  C4'       30.5950   -0.1360   49.9360 C.3   138  A138        0.1773
   3005  O4'       31.2080    0.7610   48.9760 O.3   138  A138       -0.3307
   3006  C3'       30.8900   -1.5510   49.4420 C.3   138  A138        0.1860
   3007  O3'       29.7270   -2.3240   49.7090 O.3   138  A138       -0.3112
   3008  C2'       31.0120   -1.3550   47.9360 C.3   138  A138        0.2309
   3009  O2'       29.7450   -1.2540   47.3050 O.3   138  A138       -0.2156
   3010  C1'       31.6690    0.0250   47.8600 C.3   138  A138        0.2408
   3011  N1        35.8720    2.3570   46.0540 N.ar  138  A138       -0.2040
   3012  C2        34.5700    2.5250   45.7980 C.ar  138  A138        0.2016
   3013  N3        33.5220    1.8760   46.3020 N.ar  138  A138       -0.2048
   3014  C4        33.9220    0.9410   47.1810 C.ar  138  A138        0.1692
   3015  C5        35.2230    0.6480   47.5400 C.ar  138  A138        0.1518
   3016  C6        36.2380    1.4090   46.9410 C.ar  138  A138        0.1919
   3017  N6        37.5350    1.2350   47.1890 N.pl3 138  A138       -0.1054
   3018  N7        35.2540   -0.3840   48.4660 N.ar  138  A138       -0.2193
   3019  C8        33.9910   -0.6870   48.6420 C.ar  138  A138        0.1816
   3020  N9        33.1320    0.0620   47.8800 N.ar  138  A138       -0.2693
   3021  OP1       29.4700    2.9530   51.8810 O.2   138  A138       -0.5172
   3022  OP2       30.8210    1.9240   53.7790 O.co2 138  A138       -0.4373
   3023  P         29.5310   -3.4150   50.8650 P.3   139  C139        0.2141
   3024  C5'       29.5130   -2.5330   53.2910 C.3   139  C139        0.1812
   3025  O5'       28.7810   -2.6980   52.0680 O.3   139  C139       -0.3114
   3026  C4'       28.6900   -1.9320   54.4060 C.3   139  C139        0.1773
   3027  O4'       29.0780   -0.5570   54.6270 O.3   139  C139       -0.3307
   3028  C3'       27.1770   -1.8110   54.2800 C.3   139  C139        0.1860
   3029  O3'       26.5040   -3.0750   54.3670 O.3   139  C139       -0.3112
   3030  C2'       26.8640   -0.8510   55.4340 C.3   139  C139        0.2309
   3031  O2'       26.6930   -1.3970   56.7300 O.3   139  C139       -0.2156
   3032  C1'       28.1250    0.0230   55.4870 C.3   139  C139        0.2420
   3033  N1        27.8740    1.4040   55.0670 N.ar  139  C139       -0.2535
   3034  C2        27.7900    2.3880   56.0550 C.ar  139  C139        0.3532
   3035  O2        27.9840    2.0690   57.2330 O.2   139  C139       -0.2443
   3036  N3        27.5270    3.6640   55.6970 N.ar  139  C139       -0.1739
   3037  C4        27.3270    3.9670   54.4120 C.ar  139  C139        0.1759
   3038  N4        27.0640    5.2370   54.1060 N.pl3 139  C139       -0.1070
   3039  C5        27.3790    2.9780   53.3870 C.ar  139  C139        0.0566
   3040  C6        27.6540    1.7200   53.7560 C.ar  139  C139        0.0850
   3041  OP1       30.8360   -3.7610   51.4820 O.3   139  C139       -0.4373
   3042  OP2       28.6660   -4.4650   50.2540 O.co2 139  C139       -0.5172
   3043  P         24.9540   -3.4320   54.7170 P.3   140  A140        0.2141
   3044  C5'       23.6470   -2.5490   56.8740 C.3   140  A140        0.1812
   3045  O5'       24.5100   -2.3020   55.7470 O.3   140  A140       -0.3114
   3046  C4'       23.1610   -1.2270   57.4360 C.3   140  A140        0.1773
   3047  O4'       24.1180   -0.1790   57.1030 O.3   140  A140       -0.3307
   3048  C3'       21.8220   -0.7400   56.8830 C.3   140  A140        0.1860
   3049  O3'       20.7360   -1.2840   57.6290 O.3   140  A140       -0.3112
   3050  C2'       21.9460    0.7820   56.9670 C.3   140  A140        0.2309
   3051  O2'       21.6060    1.3780   58.2010 O.3   140  A140       -0.2156
   3052  C1'       23.4360    0.9980   56.6950 C.3   140  A140        0.2408
   3053  N1        22.6970    4.0660   52.6110 N.ar  140  A140       -0.2040
   3054  C2        22.2140    4.1030   53.8590 C.ar  140  A140        0.2016
   3055  N3        22.4410    3.2730   54.8780 N.ar  140  A140       -0.2048
   3056  C4        23.2930    2.2990   54.5150 C.ar  140  A140        0.1692
   3057  C5        23.8690    2.1250   53.2690 C.ar  140  A140        0.1518
   3058  C6        23.5440    3.0690   52.2770 C.ar  140  A140        0.1919
   3059  N6        24.0280    3.0320   51.0340 N.pl3 140  A140       -0.1054
   3060  N7        24.6840    1.0020   53.2570 N.ar  140  A140       -0.2193
   3061  C8        24.5920    0.5350   54.4790 C.ar  140  A140        0.1816
   3062  N9        23.7620    1.2660   55.2930 N.ar  140  A140       -0.2693
   3063  OP1       24.8460   -4.7020   55.4870 O.3   140  A140       -0.4373
   3064  OP2       24.2720   -3.3220   53.3990 O.co2 140  A140       -0.5172
   3065  P         19.5650   -2.1890   56.9770 P.3   141  C141        0.2141
   3066  C5'       18.1630   -0.0030   56.7440 C.3   141  C141        0.1812
   3067  O5'       18.7250   -1.1540   56.1060 O.3   141  C141       -0.3114
   3068  C4'       18.0560    1.1320   55.7650 C.3   141  C141        0.1773
   3069  O4'       19.3800    1.5190   55.3170 O.3   141  C141       -0.3307
   3070  C3'       17.3180    0.7980   54.4800 C.3   141  C141        0.1860
   3071  O3'       15.9080    0.8730   54.6260 O.3   141  C141       -0.3112
   3072  C2'       17.8590    1.8390   53.5110 C.3   141  C141        0.2309
   3073  O2'       17.1920    3.0780   53.5790 O.3   141  C141       -0.2156
   3074  C1'       19.3150    1.9520   53.9650 C.3   141  C141        0.2420
   3075  N1        20.2280    1.1200   53.1690 N.ar  141  C141       -0.2535
   3076  C2        20.3040    1.3100   51.7830 C.ar  141  C141        0.3532
   3077  O2        19.5980    2.1800   51.2520 O.2   141  C141       -0.2443
   3078  N3        21.1420    0.5400   51.0580 N.ar  141  C141       -0.1739
   3079  C4        21.8930   -0.3810   51.6630 C.ar  141  C141        0.1759
   3080  N4        22.7030   -1.1170   50.9070 N.pl3 141  C141       -0.1070
   3081  C5        21.8270   -0.6040   53.0690 C.ar  141  C141        0.0566
   3082  C6        20.9890    0.1620   53.7760 C.ar  141  C141        0.0850
   3083  OP1       18.6390   -2.5030   58.1100 O.3   141  C141       -0.4373
   3084  OP2       20.1000   -3.2770   56.0940 O.co2 141  C141       -0.5172
   3085  P         15.1570   -0.4580   54.1860 P.3   142  G142        0.2141
   3086  C5'       14.8710    0.7730   51.8570 C.3   142  G142        0.1812
   3087  O5'       15.2750   -0.3880   52.6000 O.3   142  G142       -0.3114
   3088  C4'       15.4480    0.6540   50.4770 C.3   142  G142        0.1773
   3089  O4'       16.8790    0.5050   50.6240 O.3   142  G142       -0.3307
   3090  C3'       14.9860   -0.6020   49.7480 C.3   142  G142        0.1860
   3091  O3'       13.7990   -0.4190   48.9680 O.3   142  G142       -0.3112
   3092  C2'       16.1960   -1.0260   48.9110 C.3   142  G142        0.2309
   3093  O2'       16.1210   -0.7220   47.5340 O.3   142  G142       -0.2156
   3094  C1'       17.3740   -0.3380   49.6110 C.3   142  G142        0.2408
   3095  N1        20.7010   -4.0570   48.7240 N.ar  142  G142       -0.1709
   3096  C2        20.0070   -3.2730   47.8340 C.ar  142  G142        0.2606
   3097  N2        20.2330   -3.5030   46.5310 N.pl3 142  G142       -0.0859
   3098  N3        19.1560   -2.3270   48.1930 N.ar  142  G142       -0.1918
   3099  C4        19.0630   -2.2100   49.5340 C.ar  142  G142        0.1723
   3100  C5        19.7190   -2.9310   50.5080 C.ar  142  G142        0.1748
   3101  C6        20.6280   -3.9510   50.1100 C.ar  142  G142        0.3023
   3102  O6        21.3130   -4.6970   50.8220 O.2   142  G142       -0.2633
   3103  N7        19.3440   -2.5010   51.7740 N.ar  142  G142       -0.2173
   3104  C8        18.4890   -1.5410   51.5500 C.ar  142  G142        0.1817
   3105  N9        18.2810   -1.3070   50.2130 N.ar  142  G142       -0.2693
   3106  OP1       13.7000   -0.3080   54.4620 O.2   142  G142       -0.5172
   3107  OP2       15.9350   -1.6120   54.7430 O.co2 142  G142       -0.4373
   3108  P         12.7450   -1.6440   48.9880 P.3   143  A143        0.2141
   3109  C5'       11.9510   -3.5840   47.3820 C.3   143  A143        0.1812
   3110  O5'       12.9570   -2.6250   47.7500 O.3   143  A143       -0.3114
   3111  C4'       12.4850   -4.5090   46.3190 C.3   143  A143        0.1773
   3112  O4'       12.0010   -4.0640   45.0190 O.3   143  A143       -0.3307
   3113  C3'       14.0080   -4.5380   46.2090 C.3   143  A143        0.1860
   3114  O3'       14.5470   -5.6140   46.9570 O.3   143  A143       -0.3112
   3115  C2'       14.2380   -4.7360   44.7130 C.3   143  A143        0.2309
   3116  O2'       14.2170   -6.0870   44.3010 O.3   143  A143       -0.2156
   3117  C1'       13.0930   -3.9170   44.1180 C.3   143  A143        0.2408
   3118  N1        15.2530   -0.4100   41.0370 N.ar  143  A143       -0.2040
   3119  C2        15.1150   -1.7410   40.9420 C.ar  143  A143        0.2016
   3120  N3        14.5470   -2.5940   41.7920 N.ar  143  A143       -0.2048
   3121  C4        14.0600   -1.9430   42.8610 C.ar  143  A143        0.1692
   3122  C5        14.1160   -0.5790   43.0980 C.ar  143  A143        0.1518
   3123  C6        14.7500    0.2150   42.1220 C.ar  143  A143        0.1919
   3124  N6        14.8980    1.5380   42.2180 N.pl3 143  A143       -0.1054
   3125  N7        13.5150   -0.2670   44.3090 N.ar  143  A143       -0.2193
   3126  C8        13.1050   -1.4280   44.7650 C.ar  143  A143        0.1816
   3127  N9        13.3960   -2.4850   43.9350 N.ar  143  A143       -0.2693
   3128  OP1       11.3780   -1.0710   48.9070 O.2   143  A143       -0.5172
   3129  OP2       13.1800   -2.4500   50.1520 O.co2 143  A143       -0.4373
   3130  P         15.9480   -5.5390   47.7260 P.3   144  A144        0.2141
   3131  C5'       16.9500   -6.4990   45.5020 C.3   144  A144        0.1812
   3132  O5'       16.9530   -5.4640   46.4960 O.3   144  A144       -0.3114
   3133  C4'       17.8490   -6.1280   44.3520 C.3   144  A144        0.1773
   3134  O4'       17.1980   -5.1360   43.5200 O.3   144  A144       -0.3307
   3135  C3'       19.2060   -5.5490   44.7350 C.3   144  A144        0.1860
   3136  O3'       20.1130   -6.6480   44.7950 O.3   144  A144       -0.3112
   3137  C2'       19.5180   -4.6090   43.5720 C.3   144  A144        0.2309
   3138  O2'       20.1840   -5.2230   42.4780 O.3   144  A144       -0.2156
   3139  C1'       18.1230   -4.1260   43.1630 C.3   144  A144        0.2408
   3140  N1        17.8290    1.0480   42.9640 N.ar  144  A144       -0.2040
   3141  C2        18.3660    0.1600   42.1190 C.ar  144  A144        0.2016
   3142  N3        18.4330   -1.1690   42.2210 N.ar  144  A144       -0.2048
   3143  C4        17.8220   -1.5890   43.3420 C.ar  144  A144        0.1692
   3144  C5        17.2160   -0.7960   44.2980 C.ar  144  A144        0.1518
   3145  C6        17.2370    0.5910   44.0870 C.ar  144  A144        0.1919
   3146  N6        16.6900    1.4680   44.9290 N.pl3 144  A144       -0.1054
   3147  N7        16.6930   -1.5720   45.3200 N.ar  144  A144       -0.2193
   3148  C8        17.0000   -2.7960   44.9730 C.ar  144  A144        0.1816
   3149  N9        17.6890   -2.8810   43.7920 N.ar  144  A144       -0.2693
   3150  OP1       16.1330   -6.8980   48.3210 O.2   144  A144       -0.5172
   3151  OP2       16.0320   -4.3080   48.5860 O.co2 144  A144       -0.4373
   3152  P         21.3880   -6.7900   45.7660 P.3   145  C145        0.2141
   3153  C5'       22.0360   -8.4870   43.8520 C.3   145  C145        0.1812
   3154  O5'       21.6690   -8.2570   45.2250 O.3   145  C145       -0.3114
   3155  C4'       22.3900   -9.9420   43.7050 C.3   145  C145        0.1773
   3156  O4'       22.8640  -10.2360   42.3680 O.3   145  C145       -0.3307
   3157  C3'       23.5200  -10.4360   44.5900 C.3   145  C145        0.1860
   3158  O3'       23.0220  -10.5840   45.9160 O.3   145  C145       -0.3112
   3159  C2'       23.9000  -11.7370   43.8930 C.3   145  C145        0.2309
   3160  O2'       23.0490  -12.8250   44.1870 O.3   145  C145       -0.2156
   3161  C1'       23.7370  -11.3520   42.4180 C.3   145  C145        0.2420
   3162  N1        25.0060  -10.9740   41.7780 N.ar  145  C145       -0.2535
   3163  C2        25.9090  -11.9810   41.4160 C.ar  145  C145        0.3532
   3164  O2        25.6140  -13.1650   41.6480 O.2   145  C145       -0.2443
   3165  N3        27.0840  -11.6380   40.8360 N.ar  145  C145       -0.1739
   3166  C4        27.3690  -10.3520   40.6150 C.ar  145  C145        0.1759
   3167  N4        28.5390  -10.0600   40.0490 N.pl3 145  C145       -0.1070
   3168  C5        26.4680   -9.3070   40.9750 C.ar  145  C145        0.0566
   3169  C6        25.3100   -9.6600   41.5500 C.ar  145  C145        0.0850
   3170  OP1       20.9680   -6.7380   47.1940 O.3   145  C145       -0.4373
   3171  OP2       22.5870   -6.0220   45.3390 O.co2 145  C145       -0.5172
   3172  P         23.9550  -10.7700   47.2110 P.3   146  U146        0.2141
   3173  C5'       24.6400  -13.1040   48.3010 C.3   146  U146        0.1812
   3174  O5'       24.0440  -12.3650   47.2150 O.3   146  U146       -0.3114
   3175  C4'       25.7940  -13.9680   47.8150 C.3   146  U146        0.1773
   3176  O4'       26.0020  -13.8680   46.3780 O.3   146  U146       -0.3307
   3177  C3'       27.1520  -13.6080   48.3840 C.3   146  U146        0.1860
   3178  O3'       27.2830  -14.2220   49.6490 O.3   146  U146       -0.3112
   3179  C2'       28.1070  -14.2910   47.4170 C.3   146  U146        0.2309
   3180  O2'       28.3490  -15.6180   47.8240 O.3   146  U146       -0.2156
   3181  C1'       27.3570  -14.1710   46.0840 C.3   146  U146        0.2420
   3182  N1        27.9070  -13.1220   45.2070 N.ar  146  U146       -0.2534
   3183  C2        29.1870  -13.3110   44.7120 C.ar  146  U146        0.3546
   3184  O2        29.8620  -14.2860   44.9800 O.2   146  U146       -0.2443
   3185  N3        29.6560  -12.2980   43.9150 N.ar  146  U146       -0.1530
   3186  C4        29.0020  -11.1370   43.5710 C.ar  146  U146        0.2846
   3187  O4        29.5620  -10.3260   42.8380 O.2   146  U146       -0.2650
   3188  C5        27.6870  -11.0060   44.1260 C.ar  146  U146        0.0814
   3189  C6        27.1980  -11.9770   44.9110 C.ar  146  U146        0.0870
   3190  OP1       23.1890  -10.2920   48.4110 O.3   146  U146       -0.4373
   3191  OP2       25.3190  -10.2340   46.9330 O.co2 146  U146       -0.5172
   3192  P         27.9870  -13.3740   50.7850 P.3   147  U147        0.2141
   3193  C5'       30.0160  -15.0380   50.7550 C.3   147  U147        0.1812
   3194  O5'       29.5210  -13.7080   50.5380 O.3   147  U147       -0.3114
   3195  C4'       31.5040  -15.0460   50.5550 C.3   147  U147        0.1773
   3196  O4'       31.7780  -15.0760   49.1290 O.3   147  U147       -0.3307
   3197  C3'       32.2020  -13.8020   51.0850 C.3   147  U147        0.1860
   3198  O3'       32.6150  -14.0130   52.4310 O.3   147  U147       -0.3112
   3199  C2'       33.4050  -13.6830   50.1640 C.3   147  U147        0.2309
   3200  O2'       34.4800  -14.4400   50.6810 O.3   147  U147       -0.2156
   3201  C1'       32.8400  -14.1890   48.8310 C.3   147  U147        0.2420
   3202  N1        32.3350  -13.1190   47.9520 N.ar  147  U147       -0.2534
   3203  C2        33.1630  -12.6800   46.9320 C.ar  147  U147        0.3546
   3204  O2        34.2690  -13.1510   46.7260 O.2   147  U147       -0.2443
   3205  N3        32.6430  -11.6650   46.1640 N.ar  147  U147       -0.1530
   3206  C4        31.4130  -11.0520   46.3050 C.ar  147  U147        0.2846
   3207  O4        31.0820  -10.1680   45.5170 O.2   147  U147       -0.2650
   3208  C5        30.6180  -11.5560   47.3840 C.ar  147  U147        0.0814
   3209  C6        31.0940  -12.5470   48.1530 C.ar  147  U147        0.0870
   3210  OP1       27.5660  -13.9790   52.0860 O.3   147  U147       -0.4373
   3211  OP2       27.7610  -11.9240   50.5010 O.co2 147  U147       -0.5172
   3212  P         33.0970  -12.8240   53.4070 P.3   148  C148        0.2141
   3213  C5'       35.6330  -12.4240   52.9810 C.3   148  C148        0.1812
   3214  O5'       34.2910  -12.2080   52.5510 O.3   148  C148       -0.3114
   3215  C4'       36.5830  -12.3540   51.8280 C.3   148  C148        0.1773
   3216  O4'       35.8690  -12.3830   50.5690 O.3   148  C148       -0.3307
   3217  C3'       37.3230  -11.0480   51.7260 C.3   148  C148        0.1860
   3218  O3'       38.3250  -10.9890   52.7070 O.3   148  C148       -0.3112
   3219  C2'       37.8530  -11.1200   50.3090 C.3   148  C148        0.2309
   3220  O2'       38.9340  -12.0160   50.3060 O.3   148  C148       -0.2156
   3221  C1'       36.6500  -11.7210   49.5760 C.3   148  C148        0.2420
   3222  N1        35.8070  -10.7160   48.8730 N.ar  148  C148       -0.2535
   3223  C2        36.2760  -10.1440   47.6800 C.ar  148  C148        0.3532
   3224  O2        37.3810  -10.4870   47.2420 O.2   148  C148       -0.2443
   3225  N3        35.5130   -9.2320   47.0390 N.ar  148  C148       -0.1739
   3226  C4        34.3330   -8.8720   47.5510 C.ar  148  C148        0.1759
   3227  N4        33.6200   -7.9630   46.8890 N.pl3 148  C148       -0.1070
   3228  C5        33.8330   -9.4300   48.7630 C.ar  148  C148        0.0566
   3229  C6        34.5950  -10.3400   49.3850 C.ar  148  C148        0.0850
   3230  OP1       33.6570  -13.4770   54.6220 O.3   148  C148       -0.4373
   3231  OP2       32.0620  -11.7750   53.5820 O.co2 148  C148       -0.5172
   3232  P         38.2650   -9.6040   53.4820 P.3   149  A149        0.2141
   3233  C5'       40.6080   -9.4290   52.2660 C.3   149  A149        0.1812
   3234  O5'       39.3800   -8.7930   52.6820 O.3   149  A149       -0.3114
   3235  C4'       41.2730   -8.6160   51.1830 C.3   149  A149        0.1773
   3236  O4'       40.5860   -8.8330   49.9190 O.3   149  A149       -0.3307
   3237  C3'       41.2430   -7.1030   51.3770 C.3   149  A149        0.1860
   3238  O3'       42.3200   -6.6510   52.1810 O.3   149  A149       -0.3112
   3239  C2'       41.3940   -6.6000   49.9500 C.3   149  A149        0.2309
   3240  O2'       42.7360   -6.5540   49.5070 O.3   149  A149       -0.2156
   3241  C1'       40.5580   -7.6240   49.1780 C.3   149  A149        0.2408
   3242  N1        37.3670   -4.1050   47.2200 N.ar  149  A149       -0.2040
   3243  C2        38.6960   -4.2550   47.1490 C.ar  149  A149        0.2016
   3244  N3        39.4690   -5.1970   47.6880 N.ar  149  A149       -0.2048
   3245  C4        38.7260   -6.0830   48.3760 C.ar  149  A149        0.1692
   3246  C5        37.3530   -6.0660   48.5350 C.ar  149  A149        0.1518
   3247  C6        36.6510   -5.0150   47.9170 C.ar  149  A149        0.1919
   3248  N6        35.3280   -4.8660   47.9920 N.pl3 149  A149       -0.1054
   3249  N7        36.9340   -7.1420   49.3040 N.ar  149  A149       -0.2193
   3250  C8        38.0450   -7.7780   49.5850 C.ar  149  A149        0.1816
   3251  N9        39.1670   -7.2000   49.0430 N.ar  149  A149       -0.2693
   3252  OP1       38.7270   -9.8210   54.8790 O.3   149  A149       -0.4373
   3253  OP2       36.9530   -8.9430   53.2480 O.co2 149  A149       -0.5172
   3254  P         42.0380   -5.6710   53.4040 P.3   150  U150        0.2141
   3255  C5'       43.4310   -4.2450   51.7000 C.3   150  U150        0.1812
   3256  O5'       42.7430   -4.3210   52.9540 O.3   150  U150       -0.3114
   3257  C4'       43.0160   -2.9950   50.9560 C.3   150  U150        0.1773
   3258  O4'       42.0010   -3.2830   49.9570 O.3   150  U150       -0.3307
   3259  C3'       42.3720   -1.8810   51.7680 C.3   150  U150        0.1860
   3260  O3'       43.2970   -1.1710   52.5770 O.3   150  U150       -0.3112
   3261  C2'       41.7630   -1.0220   50.6660 C.3   150  U150        0.2309
   3262  O2'       42.6470   -0.1580   49.9840 O.3   150  U150       -0.2156
   3263  C1'       41.2550   -2.0990   49.7060 C.3   150  U150        0.2420
   3264  N1        39.8370   -2.3810   49.9500 N.ar  150  U150       -0.2534
   3265  C2        38.9020   -1.5790   49.3180 C.ar  150  U150        0.3546
   3266  O2        39.2070   -0.6800   48.5480 O.2   150  U150       -0.2443
   3267  N3        37.5950   -1.8830   49.6080 N.ar  150  U150       -0.1530
   3268  C4        37.1350   -2.8720   50.4530 C.ar  150  U150        0.2846
   3269  O4        35.9250   -3.0270   50.6010 O.2   150  U150       -0.2650
   3270  C5        38.1630   -3.6470   51.0780 C.ar  150  U150        0.0814
   3271  C6        39.4460   -3.3780   50.8170 C.ar  150  U150        0.0870
   3272  OP1       42.8480   -6.1710   54.5410 O.3   150  U150       -0.4373
   3273  OP2       40.5830   -5.4060   53.5890 O.co2 150  U150       -0.5172
   3274  P         42.7690   -0.5470   53.9160 P.3   151  A151        0.2141
   3275  C5'       44.1760    1.4430   52.9300 C.3   151  A151        0.1812
   3276  O5'       43.0430    1.0080   53.6990 O.3   151  A151       -0.3114
   3277  C4'       44.3840    2.9320   53.0520 C.3   151  A151        0.1773
   3278  O4'       43.8220    3.5980   51.8940 O.3   151  A151       -0.3307
   3279  C3'       43.7710    3.6260   54.2740 C.3   151  A151        0.1860
   3280  O3'       44.7590    4.4310   54.9170 O.3   151  A151       -0.3112
   3281  C2'       42.6880    4.5190   53.6720 C.3   151  A151        0.2309
   3282  O2'       42.4780    5.7340   54.3550 O.3   151  A151       -0.2156
   3283  C1'       43.2890    4.8280   52.3090 C.3   151  A151        0.2408
   3284  N1        39.1060    3.5850   49.5800 N.ar  151  A151       -0.2040
   3285  C2        39.8230    2.9040   50.4880 C.ar  151  A151        0.2016
   3286  N3        40.9000    3.2880   51.1710 N.ar  151  A151       -0.2048
   3287  C4        41.2530    4.5410   50.8340 C.ar  151  A151        0.1692
   3288  C5        40.6240    5.3640   49.9150 C.ar  151  A151        0.1518
   3289  C6        39.4860    4.8460   49.2670 C.ar  151  A151        0.1919
   3290  N6        38.7600    5.5330   48.3790 N.pl3 151  A151       -0.1054
   3291  N7        41.2730    6.5880   49.8270 N.ar  151  A151       -0.2193
   3292  C8        42.2580    6.4840   50.6840 C.ar  151  A151        0.1816
   3293  N9        42.3110    5.2690   51.3230 N.ar  151  A151       -0.2693
   3294  OP1       43.6380   -1.1030   54.9890 O.3   151  A151       -0.4373
   3295  OP2       41.3080   -0.8020   53.9360 O.co2 151  A151       -0.5172
   3296  P         44.6370    4.9810   56.4320 P.3   152  U152        0.2141
   3297  C5'       47.2200    4.3030   56.5810 C.3   152  U152        0.1812
   3298  O5'       45.8950    4.3300   57.1690 O.3   152  U152       -0.3114
   3299  C4'       47.7330    2.8800   56.5020 C.3   152  U152        0.1773
   3300  O4'       47.8670    2.3270   57.8250 O.3   152  U152       -0.3307
   3301  C3'       46.8240    1.9100   55.7550 C.3   152  U152        0.1860
   3302  O3'       47.2430    1.7640   54.4090 O.3   152  U152       -0.3112
   3303  C2'       46.8940    0.5890   56.5380 C.3   152  U152        0.2309
   3304  O2'       47.4170   -0.5270   55.8390 O.3   152  U152       -0.2156
   3305  C1'       47.7780    0.9240   57.7430 C.3   152  U152        0.2420
   3306  N1        47.2240    0.4180   59.0090 N.ar  152  U152       -0.2534
   3307  C2        46.8500   -0.9140   59.0660 C.ar  152  U152        0.3546
   3308  O2        46.9610   -1.6780   58.1210 O.2   152  U152       -0.2443
   3309  N3        46.3390   -1.3160   60.2760 N.ar  152  U152       -0.1530
   3310  C4        46.1630   -0.5480   61.4080 C.ar  152  U152        0.2846
   3311  O4        45.6880   -1.0610   62.4200 O.2   152  U152       -0.2650
   3312  C5        46.5680    0.8190   61.2680 C.ar  152  U152        0.0814
   3313  C6        47.0720    1.2440   60.1020 C.ar  152  U152        0.0870
   3314  OP1       43.3940    4.4490   57.0600 O.3   152  U152       -0.4373
   3315  OP2       44.8290    6.4520   56.3390 O.co2 152  U152       -0.5172
   3316  P         48.7750    1.7770   53.9740 P.3   153  G153        0.2141
   3317  C5'       47.3140    0.9320   51.9700 C.3   153  G153        0.1812
   3318  O5'       48.4730    1.6580   52.4180 O.3   153  G153       -0.3114
   3319  C4'       47.0450    1.2210   50.5160 C.3   153  G153        0.1773
   3320  O4'       46.3750    2.5000   50.3800 O.3   153  G153       -0.3307
   3321  C3'       48.2720    1.2910   49.6250 C.3   153  G153        0.1860
   3322  O3'       47.9050    0.7160   48.3940 O.3   153  G153       -0.3112
   3323  C2'       48.5960    2.7820   49.5680 C.3   153  G153        0.2309
   3324  O2'       49.1700    3.2460   48.3660 O.3   153  G153       -0.2156
   3325  C1'       47.2150    3.4190   49.7050 C.3   153  G153        0.2408
   3326  N1        45.8710    8.3150   50.0150 N.ar  153  G153       -0.1709
   3327  C2        45.6470    7.4170   49.0020 C.ar  153  G153        0.2606
   3328  N2        44.9780    7.8840   47.9400 N.pl3 153  G153       -0.0859
   3329  N3        46.0480    6.1560   49.0290 N.ar  153  G153       -0.1918
   3330  C4        46.7090    5.8590   50.1710 C.ar  153  G153        0.1723
   3331  C5        46.9850    6.6820   51.2430 C.ar  153  G153        0.1748
   3332  C6        46.5440    8.0340   51.2010 C.ar  153  G153        0.3023
   3333  O6        46.6890    8.9210   52.0540 O.2   153  G153       -0.2633
   3334  N7        47.6850    5.9930   52.2260 N.ar  153  G153       -0.2173
   3335  C8        47.8180    4.7880   51.7430 C.ar  153  G153        0.1817
   3336  N9        47.2550    4.6400   50.4980 N.ar  153  G153       -0.2693
   3337  OP1       49.4390    0.5220   54.4330 O.3   153  G153       -0.4373
   3338  OP2       49.3710    3.1110   54.2720 O.co2 153  G153       -0.5172
   3339  P         48.9200   -0.3500   47.8550 P.3   154  A154        0.2141
   3340  C5'       47.5460   -2.2900   49.0360 C.3   154  A154        0.1812
   3341  O5'       48.1380   -1.7340   47.8520 O.3   154  A154       -0.3114
   3342  C4'       46.3640   -3.1380   48.6380 C.3   154  A154        0.1773
   3343  O4'       45.1610   -2.3250   48.7170 O.3   154  A154       -0.3307
   3344  C3'       46.3800   -3.6320   47.1940 C.3   154  A154        0.1860
   3345  O3'       47.1960   -4.7700   46.9800 O.3   154  A154       -0.3112
   3346  C2'       44.8970   -3.8140   46.8940 C.3   154  A154        0.2309
   3347  O2'       44.2990   -4.9760   47.4230 O.3   154  A154       -0.2156
   3348  C1'       44.3110   -2.6070   47.6140 C.3   154  A154        0.2408
   3349  N1        41.8290   -0.3200   43.7640 N.ar  154  A154       -0.2040
   3350  C2        41.6380   -1.4850   44.3950 C.ar  154  A154        0.2016
   3351  N3        42.3290   -2.0220   45.3970 N.ar  154  A154       -0.2048
   3352  C4        43.3450   -1.2180   45.7550 C.ar  154  A154        0.1692
   3353  C5        43.6760    0.0010   45.1940 C.ar  154  A154        0.1518
   3354  C6        42.8680    0.4570   44.1420 C.ar  154  A154        0.1919
   3355  N6        43.0690    1.6120   43.5050 N.pl3 154  A154       -0.1054
   3356  N7        44.7860    0.5450   45.8210 N.ar  154  A154       -0.2193
   3357  C8        45.1000   -0.3440   46.7300 C.ar  154  A154        0.1816
   3358  N9        44.2630   -1.4310   46.7520 N.ar  154  A154       -0.2693
   3359  OP1       50.0540   -0.4650   48.8070 O.3   154  A154       -0.4373
   3360  OP2       49.1670   -0.0130   46.4260 O.co2 154  A154       -0.5172
   3361  P         48.2690   -4.6450   45.7960 P.3   155  G155        0.2141
   3362  C5'       46.3980   -5.2730   43.9760 C.3   155  G155        0.1812
   3363  O5'       47.5830   -4.5500   44.3600 O.3   155  G155       -0.3114
   3364  C4'       45.6490   -4.4880   42.9160 C.3   155  G155        0.1773
   3365  O4'       45.0890   -3.2840   43.5150 O.3   155  G155       -0.3307
   3366  C3'       46.4660   -3.9490   41.7490 C.3   155  G155        0.1860
   3367  O3'       46.7810   -4.8880   40.7300 O.3   155  G155       -0.3112
   3368  C2'       45.5760   -2.8150   41.2500 C.3   155  G155        0.2309
   3369  O2'       44.4850   -3.1990   40.4360 O.3   155  G155       -0.2156
   3370  C1'       45.0990   -2.2210   42.5730 C.3   155  G155        0.2408
   3371  N1        46.6010    2.6020   42.1500 N.ar  155  G155       -0.1709
   3372  C2        45.5610    1.9550   41.5290 C.ar  155  G155        0.2606
   3373  N2        44.8400    2.6830   40.6720 N.pl3 155  G155       -0.0859
   3374  N3        45.2520    0.6860   41.7330 N.ar  155  G155       -0.1918
   3375  C4        46.0930    0.0980   42.6110 C.ar  155  G155        0.1723
   3376  C5        47.1720    0.6480   43.2690 C.ar  155  G155        0.1748
   3377  C6        47.4890    2.0120   43.0440 C.ar  155  G155        0.3023
   3378  O6        48.4110    2.6780   43.5310 O.2   155  G155       -0.2633
   3379  N7        47.7880   -0.2950   44.0820 N.ar  155  G155       -0.2173
   3380  C8        47.0870   -1.3800   43.9020 C.ar  155  G155        0.1817
   3381  N9        46.0360   -1.2070   43.0330 N.ar  155  G155       -0.2693
   3382  OP1       49.0080   -5.9180   45.9320 O.3   155  G155       -0.4373
   3383  OP2       48.9830   -3.3400   45.8490 O.co2 155  G155       -0.5172
   3384  P         48.0540   -4.5880   39.7950 P.3   156  G156        0.2141
   3385  C5'       46.6770   -3.4650   37.8670 C.3   156  G156        0.1812
   3386  O5'       47.5850   -3.3030   38.9740 O.3   156  G156       -0.3114
   3387  C4'       46.3120   -2.1240   37.2760 C.3   156  G156        0.1773
   3388  O4'       46.0130   -1.1880   38.3490 O.3   156  G156       -0.3307
   3389  C3'       47.4160   -1.4280   36.4960 C.3   156  G156        0.1860
   3390  O3'       47.5510   -1.8870   35.1590 O.3   156  G156       -0.3112
   3391  C2'       46.9560    0.0170   36.5380 C.3   156  G156        0.2309
   3392  O2'       45.9110    0.2050   35.6300 O.3   156  G156       -0.2156
   3393  C1'       46.4030    0.1170   37.9580 C.3   156  G156        0.2408
   3394  N1        49.2030    4.0780   39.4410 N.ar  156  G156       -0.1709
   3395  C2        48.2510    4.0030   38.4520 C.ar  156  G156        0.2606
   3396  N2        48.0200    5.1330   37.7620 N.pl3 156  G156       -0.0859
   3397  N3        47.5770    2.9030   38.1580 N.ar  156  G156       -0.1918
   3398  C4        47.9370    1.8650   38.9430 C.ar  156  G156        0.1723
   3399  C5        48.8720    1.8360   39.9560 C.ar  156  G156        0.1748
   3400  C6        49.5820    3.0250   40.2660 C.ar  156  G156        0.3023
   3401  O6        50.4580    3.1980   41.1190 O.2   156  G156       -0.2633
   3402  N7        48.9490    0.5670   40.5180 N.ar  156  G156       -0.2173
   3403  C8        48.0780   -0.1380   39.8480 C.ar  156  G156        0.1817
   3404  N9        47.4150    0.5930   38.8910 N.ar  156  G156       -0.2693
   3405  OP1       48.1920   -5.7190   38.8440 O.2   156  G156       -0.5172
   3406  OP2       49.1690   -4.2690   40.7180 O.co2 156  G156       -0.4373
   3407  P         48.9880   -1.9910   34.4310 P.3   157  C157        0.2141
   3408  C5'       50.0890    0.1120   33.3620 C.3   157  C157        0.1812
   3409  O5'       48.9170   -0.6620   33.5750 O.3   157  C157       -0.3114
   3410  C4'       49.7500    1.5580   33.5550 C.3   157  C157        0.1773
   3411  O4'       49.2190    1.7250   34.8900 O.3   157  C157       -0.3307
   3412  C3'       50.9480    2.4810   33.4720 C.3   157  C157        0.1860
   3413  O3'       51.0870    2.8680   32.1140 O.3   157  C157       -0.3112
   3414  C2'       50.5730    3.6080   34.4170 C.3   157  C157        0.2309
   3415  O2'       49.6780    4.5140   33.8220 O.3   157  C157       -0.2156
   3416  C1'       49.8130    2.8520   35.4990 C.3   157  C157        0.2420
   3417  N1        50.6470    2.3890   36.6100 N.ar  157  C157       -0.2535
   3418  C2        51.3350    3.3370   37.3730 C.ar  157  C157        0.3532
   3419  O2        51.2460    4.5360   37.0620 O.2   157  C157       -0.2443
   3420  N3        52.0790    2.9240   38.4280 N.ar  157  C157       -0.1739
   3421  C4        52.1510    1.6230   38.7250 C.ar  157  C157        0.1759
   3422  N4        52.9020    1.2600   39.7670 N.pl3 157  C157       -0.1070
   3423  C5        51.4520    0.6370   37.9680 C.ar  157  C157        0.0566
   3424  C6        50.7160    1.0610   36.9310 C.ar  157  C157        0.0850
   3425  OP1       48.9730   -3.0800   33.4310 O.2   157  C157       -0.5172
   3426  OP2       50.1240   -1.8710   35.3610 O.co2 157  C157       -0.4373
   3427  P         52.4620    2.3630   31.4670 P.3   158  U158        0.2141
   3428  C5'       53.1130    4.8940   31.9680 C.3   158  U158        0.1812
   3429  O5'       53.5180    3.5050   31.8360 O.3   158  U158       -0.3114
   3430  C4'       54.2240    5.7240   32.5630 C.3   158  U158        0.1773
   3431  O4'       54.0340    5.8680   34.0010 O.3   158  U158       -0.3307
   3432  C3'       55.6020    5.1130   32.4370 C.3   158  U158        0.1860
   3433  O3'       56.0930    5.3270   31.1300 O.3   158  U158       -0.3112
   3434  C2'       56.3540    5.8210   33.5570 C.3   158  U158        0.2309
   3435  O2'       56.8070    7.1250   33.2270 O.3   158  U158       -0.2156
   3436  C1'       55.2920    5.8240   34.6600 C.3   158  U158        0.2420
   3437  N1        55.3270    4.6210   35.5080 N.ar  158  U158       -0.2534
   3438  C2        56.2070    4.5910   36.5820 C.ar  158  U158        0.3546
   3439  O2        56.9450    5.5220   36.8670 O.2   158  U158       -0.2443
   3440  N3        56.1780    3.4290   37.3160 N.ar  158  U158       -0.1530
   3441  C4        55.3970    2.3140   37.0880 C.ar  158  U158        0.2846
   3442  O4        55.4890    1.3400   37.8410 O.2   158  U158       -0.2650
   3443  C5        54.5230    2.4230   35.9570 C.ar  158  U158        0.0814
   3444  C6        54.5150    3.5450   35.2280 C.ar  158  U158        0.0870
   3445  OP1       52.1130    2.3160   30.0210 O.2   158  U158       -0.5172
   3446  OP2       52.9410    1.1350   32.1650 O.co2 158  U158       -0.4373
   3447  P         57.2660    4.3640   30.6120 P.3   159  A159        0.2141
   3448  C5'       59.1980    6.1350   31.0340 C.3   159  A159        0.1812
   3449  O5'       58.5310    4.9170   31.4140 O.3   159  A159       -0.3114
   3450  C4'       60.4260    6.3400   31.8760 C.3   159  A159        0.1773
   3451  O4'       60.0560    6.3870   33.2740 O.3   159  A159       -0.3307
   3452  C3'       61.4450    5.2080   31.8900 C.3   159  A159        0.1860
   3453  O3'       62.2410    5.0090   30.7290 O.3   159  A159       -0.3112
   3454  C2'       62.2800    5.5610   33.1200 C.3   159  A159        0.2309
   3455  O2'       63.3740    6.4350   32.9150 O.3   159  A159       -0.2156
   3456  C1'       61.2210    6.1570   34.0540 C.3   159  A159        0.2408
   3457  N1        58.4240    2.1220   35.6840 N.ar  159  A159       -0.2040
   3458  C2        58.4120    2.8080   34.5320 C.ar  159  A159        0.2016
   3459  N3        59.1560    3.8500   34.1630 N.ar  159  A159       -0.2048
   3460  C4        60.0090    4.1940   35.1450 C.ar  159  A159        0.1692
   3461  C5        60.1380    3.5860   36.3820 C.ar  159  A159        0.1518
   3462  C6        59.2920    2.4960   36.6510 C.ar  159  A159        0.1919
   3463  N6        59.3130    1.8090   37.7970 N.pl3 159  A159       -0.1054
   3464  N7        61.1200    4.2120   37.1360 N.ar  159  A159       -0.2193
   3465  C8        61.5550    5.1690   36.3540 C.ar  159  A159        0.1816
   3466  N9        60.9100    5.2320   35.1430 N.ar  159  A159       -0.2693
   3467  OP1       57.3350    4.7310   29.1700 O.2   159  A159       -0.5172
   3468  OP2       57.1400    2.9270   31.0210 O.co2 159  A159       -0.4373
   3469  P         62.8620    3.5250   30.5920 P.3   160  G160        0.2141
   3470  C5'       63.7790    2.5340   32.8870 C.3   160  G160        0.1812
   3471  O5'       63.9560    3.4040   31.7500 O.3   160  G160       -0.3114
   3472  C4'       64.8340    2.8340   33.9220 C.3   160  G160        0.1773
   3473  O4'       64.2160    2.9890   35.2270 O.3   160  G160       -0.3307
   3474  C3'       65.8550    1.7360   34.1740 C.3   160  G160        0.1860
   3475  O3'       66.8520    1.5420   33.1790 O.3   160  G160       -0.3112
   3476  C2'       66.4230    2.1490   35.5300 C.3   160  G160        0.2309
   3477  O2'       67.4960    3.0750   35.5540 O.3   160  G160       -0.2156
   3478  C1'       65.1590    2.6390   36.2400 C.3   160  G160        0.2408
   3479  N1        61.3960   -0.7340   36.9240 N.ar  160  G160       -0.1709
   3480  C2        61.5420    0.2100   35.9380 C.ar  160  G160        0.2606
   3481  N2        60.5690    0.2570   35.0190 N.pl3 160  G160       -0.0859
   3482  N3        62.5620    1.0490   35.8630 N.ar  160  G160       -0.1918
   3483  C4        63.4520    0.8520   36.8600 C.ar  160  G160        0.1723
   3484  C5        63.4030   -0.0680   37.8870 C.ar  160  G160        0.1748
   3485  C6        62.2970   -0.9550   37.9600 C.ar  160  G160        0.3023
   3486  O6        62.0740   -1.8420   38.7920 O.2   160  G160       -0.2633
   3487  N7        64.5140    0.0530   38.7110 N.ar  160  G160       -0.2173
   3488  C8        65.2040    1.0280   38.1840 C.ar  160  G160        0.1817
   3489  N9        64.6090    1.5690   37.0690 N.ar  160  G160       -0.2693
   3490  OP1       63.5470    3.4490   29.2740 O.2   160  G160       -0.5172
   3491  OP2       61.7820    2.5530   30.8930 O.co2 160  G160       -0.4373
   3492  P         67.7190    0.1950   33.3010 P.3   161  G161        0.2141
   3493  C5'       69.6520    0.4410   35.1060 C.3   161  G161        0.1812
   3494  O5'       68.2600    0.2170   34.8000 O.3   161  G161       -0.3114
   3495  C4'       70.0340   -0.3260   36.3500 C.3   161  G161        0.1773
   3496  O4'       68.9740   -0.2020   37.3390 O.3   161  G161       -0.3307
   3497  C3'       70.2030   -1.8270   36.1660 C.3   161  G161        0.1860
   3498  O3'       71.4990   -2.1810   35.7120 O.3   161  G161       -0.3112
   3499  C2'       69.9420   -2.3540   37.5700 C.3   161  G161        0.2309
   3500  O2'       71.0690   -2.2570   38.4140 O.3   161  G161       -0.2156
   3501  C1'       68.8120   -1.4320   38.0280 C.3   161  G161        0.2408
   3502  N1        65.1400   -4.6040   39.5140 N.ar  161  G161       -0.1709
   3503  C2        66.3550   -4.3390   40.0980 C.ar  161  G161        0.2606
   3504  N2        66.6260   -5.0070   41.2280 N.pl3 161  G161       -0.0859
   3505  N3        67.2380   -3.4840   39.6100 N.ar  161  G161       -0.1918
   3506  C4        66.8020   -2.9020   38.4720 C.ar  161  G161        0.1723
   3507  C5        65.6090   -3.0970   37.8080 C.ar  161  G161        0.1748
   3508  C6        64.6710   -4.0200   38.3410 C.ar  161  G161        0.3023
   3509  O6        63.5620   -4.3360   37.8960 O.2   161  G161       -0.2633
   3510  N7        65.5430   -2.3050   36.6700 N.ar  161  G161       -0.2173
   3511  C8        66.6750   -1.6550   36.6630 C.ar  161  G161        0.1817
   3512  N9        67.4830   -1.9660   37.7310 N.ar  161  G161       -0.2693
   3513  OP1       68.8880    0.3200   32.3960 O.2   161  G161       -0.5172
   3514  OP2       66.8020   -0.9670   33.1700 O.co2 161  G161       -0.4373
   3515  P         71.6140   -3.5140   34.8410 P.3   162  U162        0.2141
   3516  C5'       71.3530   -5.9840   35.7460 C.3   162  U162        0.1812
   3517  O5'       70.8840   -4.6220   35.7240 O.3   162  U162       -0.3114
   3518  C4'       71.5620   -6.4470   37.1690 C.3   162  U162        0.1773
   3519  O4'       70.5960   -5.7800   38.0360 O.3   162  U162       -0.3307
   3520  C3'       71.3450   -7.9400   37.4110 C.3   162  U162        0.1860
   3521  O3'       72.4350   -8.8080   37.0820 O.3   162  U162       -0.3112
   3522  C2'       70.9090   -7.9640   38.8720 C.3   162  U162        0.2309
   3523  O2'       71.9750   -7.9360   39.8010 O.3   162  U162       -0.2156
   3524  C1'       70.0160   -6.7220   38.9230 C.3   162  U162        0.2420
   3525  N1        68.6350   -6.9970   38.4860 N.ar  162  U162       -0.2534
   3526  C2        67.7600   -7.4870   39.4380 C.ar  162  U162        0.3546
   3527  O2        68.0810   -7.6670   40.6010 O.2   162  U162       -0.2443
   3528  N3        66.4930   -7.7480   38.9770 N.ar  162  U162       -0.1530
   3529  C4        66.0180   -7.5830   37.6930 C.ar  162  U162        0.2846
   3530  O4        64.8450   -7.8630   37.4410 O.2   162  U162       -0.2650
   3531  C5        66.9850   -7.0830   36.7620 C.ar  162  U162        0.0814
   3532  C6        68.2290   -6.8150   37.1790 C.ar  162  U162        0.0870
   3533  OP1       73.0610   -3.8430   34.7530 O.3   162  U162       -0.4373
   3534  OP2       70.8220   -3.3270   33.5970 O.co2 162  U162       -0.5172
   3535  P         72.1770  -10.0140   36.0310 P.3   163  A163        0.2141
   3536  C5'       69.8960  -11.1670   36.7430 C.3   163  A163        0.1812
   3537  O5'       71.3360  -11.0890   36.8610 O.3   163  A163       -0.3114
   3538  C4'       69.3420  -12.3280   37.5390 C.3   163  A163        0.1773
   3539  O4'       68.2110  -11.8630   38.3390 O.3   163  A163       -0.3307
   3540  C3'       68.7920  -13.4840   36.7030 C.3   163  A163        0.1860
   3541  O3'       69.7740  -14.4580   36.3350 O.3   163  A163       -0.3112
   3542  C2'       67.6820  -14.0240   37.5970 C.3   163  A163        0.2309
   3543  O2'       68.2020  -14.8120   38.6480 O.3   163  A163       -0.2156
   3544  C1'       67.1000  -12.7270   38.1590 C.3   163  A163        0.2408
   3545  N1        62.3100  -12.7670   36.1910 N.ar  163  A163       -0.2040
   3546  C2        62.9480  -13.6110   37.0140 C.ar  163  A163        0.2016
   3547  N3        64.1920  -13.5470   37.4930 N.ar  163  A163       -0.2048
   3548  C4        64.8240  -12.4540   37.0290 C.ar  163  A163        0.1692
   3549  C5        64.3020  -11.4950   36.1740 C.ar  163  A163        0.1518
   3550  C6        62.9700  -11.6740   35.7480 C.ar  163  A163        0.1919
   3551  N6        62.3310  -10.8300   34.9370 N.pl3 163  A163       -0.1054
   3552  N7        65.2420  -10.5090   35.9100 N.ar  163  A163       -0.2193
   3553  C8        66.2940  -10.8830   36.5980 C.ar  163  A163        0.1816
   3554  N9        66.1160  -12.0550   37.2950 N.ar  163  A163       -0.2693
   3555  OP1       73.4890  -10.6130   35.6650 O.3   163  A163       -0.4373
   3556  OP2       71.2980   -9.4960   34.9500 O.co2 163  A163       -0.5172
   3557  P         70.0710  -14.8420   34.7820 P.3   164  U164        0.2141
   3558  C5'       68.8840  -17.0670   35.6130 C.3   164  U164        0.1812
   3559  O5'       69.7280  -16.3940   34.6540 O.3   164  U164       -0.3114
   3560  C4'       67.5720  -17.4940   34.9860 C.3   164  U164        0.1773
   3561  O4'       66.5160  -16.5730   35.3650 O.3   164  U164       -0.3307
   3562  C3'       67.4810  -17.4660   33.4670 C.3   164  U164        0.1860
   3563  O3'       68.2820  -18.4300   32.7820 O.3   164  U164       -0.3112
   3564  C2'       65.9620  -17.4790   33.2320 C.3   164  U164        0.2309
   3565  O2'       65.2490  -18.6900   33.0300 O.3   164  U164       -0.2156
   3566  C1'       65.4460  -16.6960   34.4450 C.3   164  U164        0.2420
   3567  N1        65.0270  -15.3610   34.0110 N.ar  164  U164       -0.2534
   3568  C2        63.7010  -15.2150   33.6590 C.ar  164  U164        0.3546
   3569  O2        62.8830  -16.1100   33.7900 O.2   164  U164       -0.2443
   3570  N3        63.3640  -13.9740   33.1730 N.ar  164  U164       -0.1530
   3571  C4        64.2040  -12.8940   32.9840 C.ar  164  U164        0.2846
   3572  O4        63.7460  -11.8380   32.5450 O.2   164  U164       -0.2650
   3573  C5        65.5690  -13.1320   33.3470 C.ar  164  U164        0.0814
   3574  C6        65.9290  -14.3350   33.8170 C.ar  164  U164        0.0870
   3575  OP1       71.5360  -14.7060   34.5440 O.3   164  U164       -0.4373
   3576  OP2       69.1220  -14.1310   33.8810 O.co2 164  U164       -0.5172
   3577  P         68.5310  -18.2770   31.2000 P.3   165  C165        0.2141
   3578  C5'       66.3560  -18.5140   29.6460 C.3   165  C165        0.1812
   3579  O5'       67.2190  -19.0310   30.6790 O.3   165  C165       -0.3114
   3580  C4'       65.0180  -19.2160   29.7060 C.3   165  C165        0.1773
   3581  O4'       64.2060  -18.5950   30.7430 O.3   165  C165       -0.3307
   3582  C3'       64.1950  -19.1490   28.4240 C.3   165  C165        0.1860
   3583  O3'       64.3090  -20.3180   27.6250 O.3   165  C165       -0.3112
   3584  C2'       62.7580  -18.9760   28.9200 C.3   165  C165        0.2309
   3585  O2'       62.0120  -20.1660   29.0940 O.3   165  C165       -0.2156
   3586  C1'       62.9610  -18.1690   30.2030 C.3   165  C165        0.2420
   3587  N1        63.0040  -16.7010   29.9870 N.ar  165  C165       -0.2535
   3588  C2        61.8320  -16.0160   29.6050 C.ar  165  C165        0.3532
   3589  O2        60.7710  -16.6540   29.4680 O.2   165  C165       -0.2443
   3590  N3        61.8920  -14.6800   29.3920 N.ar  165  C165       -0.1739
   3591  C4        63.0470  -14.0260   29.5550 C.ar  165  C165        0.1759
   3592  N4        63.0550  -12.7090   29.3410 N.pl3 165  C165       -0.1070
   3593  C5        64.2480  -14.6950   29.9390 C.ar  165  C165        0.0566
   3594  C6        64.1820  -16.0180   30.1400 C.ar  165  C165        0.0850
   3595  OP1       69.7550  -19.0840   30.9170 O.3   165  C165       -0.4373
   3596  OP2       68.5050  -16.8340   30.8250 O.co2 165  C165       -0.5172
   3597  P         64.4120  -20.0940   26.0490 P.3   166  A166        0.2141
   3598  C5'       61.7860  -19.9240   25.6340 C.3   166  A166        0.1812
   3599  O5'       63.0970  -19.2910   25.6150 O.3   166  A166       -0.3114
   3600  C4'       60.6960  -19.0830   24.9740 C.3   166  A166        0.1773
   3601  O4'       60.2550  -17.9990   25.8570 O.3   166  A166       -0.3307
   3602  C3'       61.0220  -18.3560   23.6700 C.3   166  A166        0.1860
   3603  O3'       61.1860  -19.0810   22.4530 O.3   166  A166       -0.3112
   3604  C2'       59.9220  -17.3070   23.6600 C.3   166  A166        0.2309
   3605  O2'       58.6470  -17.8960   23.5110 O.3   166  A166       -0.2156
   3606  C1'       60.0300  -16.8140   25.0960 C.3   166  A166        0.2408
   3607  N1        61.6730  -11.9190   25.1040 N.ar  166  A166       -0.2040
   3608  C2        60.4720  -12.4630   24.8660 C.ar  166  A166        0.2016
   3609  N3        60.1050  -13.7450   24.8960 N.ar  166  A166       -0.2048
   3610  C4        61.1570  -14.5350   25.1840 C.ar  166  A166        0.1692
   3611  C5        62.4530  -14.1230   25.4480 C.ar  166  A166        0.1518
   3612  C6        62.7060  -12.7380   25.4030 C.ar  166  A166        0.1919
   3613  N6        63.9050  -12.1970   25.6260 N.pl3 166  A166       -0.1054
   3614  N7        63.2730  -15.2150   25.7060 N.ar  166  A166       -0.2193
   3615  C8        62.4710  -16.2450   25.5920 C.ar  166  A166        0.1816
   3616  N9        61.1710  -15.9070   25.2910 N.ar  166  A166       -0.2693
   3617  OP1       64.3540  -21.4370   25.4120 O.2   166  A166       -0.5172
   3618  OP2       65.6310  -19.2470   25.8800 O.co2 166  A166       -0.4373
   3619  P         62.4530  -18.5320   21.6170 P.3   167  A167        0.2141
   3620  C5'       61.7320  -16.5000   20.1990 C.3   167  A167        0.1812
   3621  O5'       61.7620  -17.9160   20.3340 O.3   167  A167       -0.3114
   3622  C4'       60.3140  -16.0180   20.2250 C.3   167  A167        0.1773
   3623  O4'       60.0400  -15.3810   21.4980 O.3   167  A167       -0.3307
   3624  C3'       60.0430  -14.9830   19.1430 C.3   167  A167        0.1860
   3625  O3'       59.2240  -15.6210   18.1740 O.3   167  A167       -0.3112
   3626  C2'       59.3390  -13.8400   19.8770 C.3   167  A167        0.2309
   3627  O2'       57.9450  -13.9490   19.7070 O.3   167  A167       -0.2156
   3628  C1'       59.8590  -13.9950   21.3070 C.3   167  A167        0.2408
   3629  N1        62.3670   -9.5020   21.6840 N.ar  167  A167       -0.2040
   3630  C2        61.0830   -9.7980   21.4460 C.ar  167  A167        0.2016
   3631  N3        60.4870  -10.9880   21.3810 N.ar  167  A167       -0.2048
   3632  C4        61.3810  -11.9760   21.5500 C.ar  167  A167        0.1692
   3633  C5        62.7400  -11.8320   21.7780 C.ar  167  A167        0.1518
   3634  C6        63.2400  -10.5160   21.8510 C.ar  167  A167        0.1919
   3635  N6        64.5260  -10.2200   22.0310 N.pl3 167  A167       -0.1054
   3636  N7        63.3490  -13.0740   21.9070 N.ar  167  A167       -0.2193
   3637  C8        62.3650  -13.9260   21.7460 C.ar  167  A167        0.1816
   3638  N9        61.1460  -13.3310   21.5240 N.ar  167  A167       -0.2693
   3639  OP1       63.2430  -19.6520   21.0670 O.2   167  A167       -0.5172
   3640  OP2       63.1460  -17.4340   22.3640 O.co2 167  A167       -0.4373
   3641  P         59.6840  -15.4100   16.6600 P.3   168  U168        0.2141
   3642  C5'       58.5050  -13.0740   17.0460 C.3   168  U168        0.1812
   3643  O5'       59.6650  -13.8180   16.6190 O.3   168  U168       -0.3114
   3644  C4'       58.6690  -11.6470   16.6120 C.3   168  U168        0.1773
   3645  O4'       59.6040  -10.9710   17.4830 O.3   168  U168       -0.3307
   3646  C3'       59.2370  -11.5570   15.2130 C.3   168  U168        0.1860
   3647  O3'       58.4280  -10.8760   14.2780 O.3   168  U168       -0.3112
   3648  C2'       60.7260  -11.2860   15.4010 C.3   168  U168        0.2309
   3649  O2'       61.2310  -10.4230   14.4150 O.3   168  U168       -0.2156
   3650  C1'       60.7750  -10.6340   16.7740 C.3   168  U168        0.2420
   3651  N1        61.9090  -11.1770   17.5130 N.ar  168  U168       -0.2534
   3652  C2        62.7840  -10.2900   18.1120 C.ar  168  U168        0.3546
   3653  O2        62.6300   -9.0840   18.0820 O.2   168  U168       -0.2443
   3654  N3        63.8540  -10.8740   18.7400 N.ar  168  U168       -0.1530
   3655  C4        64.1200  -12.2160   18.8530 C.ar  168  U168        0.2846
   3656  O4        65.1030  -12.5830   19.4910 O.2   168  U168       -0.2650
   3657  C5        63.1650  -13.0700   18.2130 C.ar  168  U168        0.0814
   3658  C6        62.1290  -12.5340   17.5630 C.ar  168  U168        0.0870
   3659  OP1       58.6070  -15.8270   15.6770 O.2   168  U168       -0.5172
   3660  OP2       61.0950  -15.8690   16.5430 O.co2 168  U168       -0.4373
   3661  P         57.9940   -9.4260   14.1800 P.3   169  G169        0.2141
   3662  C5'       59.0320   -8.6160   11.9500 C.3   169  G169        0.1812
   3663  O5'       58.0450   -9.4230   12.5850 O.3   169  G169       -0.3114
   3664  C4'       58.8340   -8.5850   10.4730 C.3   169  G169        0.1773
   3665  O4'       59.0910   -9.9020    9.9580 O.3   169  G169       -0.3307
   3666  C3'       57.4530   -8.2470   10.0150 C.3   169  G169        0.1860
   3667  O3'       57.3890   -6.8520    9.9900 O.3   169  G169       -0.3112
   3668  C2'       57.4290   -8.8930    8.6490 C.3   169  G169        0.2309
   3669  O2'       58.0210   -8.0890    7.6530 O.3   169  G169       -0.2156
   3670  C1'       58.2200  -10.1980    8.9080 C.3   169  G169        0.2408
   3671  N1        54.6940  -13.4910    7.3900 N.ar  169  G169       -0.1709
   3672  C2        55.5040  -12.6770    6.6470 C.ar  169  G169        0.2606
   3673  N2        55.3640  -12.7480    5.3130 N.pl3 169  G169       -0.0859
   3674  N3        56.4090  -11.8780    7.1650 N.ar  169  G169       -0.1918
   3675  C4        56.4670  -11.9810    8.5050 C.ar  169  G169        0.1723
   3676  C5        55.7350  -12.7920    9.3370 C.ar  169  G169        0.1748
   3677  C6        54.7690  -13.6460    8.7710 C.ar  169  G169        0.3023
   3678  O6        54.0160  -14.4440    9.3440 O.2   169  G169       -0.2633
   3679  N7        56.1250  -12.6250   10.6600 N.ar  169  G169       -0.2173
   3680  C8        57.0470  -11.7020   10.6130 C.ar  169  G169        0.1817
   3681  N9        57.3330  -11.2970    9.3280 N.ar  169  G169       -0.2693
   3682  OP1       59.1210   -8.7400   14.8670 O.3   169  G169       -0.4373
   3683  OP2       56.5820   -9.2700   14.6340 O.co2 169  G169       -0.5172
   3684  P         56.0330   -6.2780   10.6580 P.3   170  G170        0.2141
   3685  C5'       55.1200   -5.8050    8.3170 C.3   170  G170        0.1812
   3686  O5'       54.8600   -6.3790    9.5910 O.3   170  G170       -0.3114
   3687  C4'       54.3610   -6.5470    7.2750 C.3   170  G170        0.1773
   3688  O4'       54.8550   -7.9150    7.2100 O.3   170  G170       -0.3307
   3689  C3'       52.8910   -6.7240    7.5950 C.3   170  G170        0.1860
   3690  O3'       52.1640   -5.6000    7.1120 O.3   170  G170       -0.3112
   3691  C2'       52.5420   -7.8830    6.6840 C.3   170  G170        0.2309
   3692  O2'       52.2730   -7.2990    5.4330 O.3   170  G170       -0.2156
   3693  C1'       53.8080   -8.7560    6.7630 C.3   170  G170        0.2408
   3694  N1        51.0480  -12.8370    7.6350 N.ar  170  G170       -0.1709
   3695  C2        51.3100  -12.1790    6.4610 C.ar  170  G170        0.2606
   3696  N2        50.7050  -12.6440    5.3680 N.pl3 170  G170       -0.0859
   3697  N3        52.1200  -11.1510    6.3600 N.ar  170  G170       -0.1918
   3698  C4        52.6360  -10.8030    7.5510 C.ar  170  G170        0.1723
   3699  C5        52.4550  -11.4000    8.7760 C.ar  170  G170        0.1748
   3700  C6        51.5940  -12.5140    8.8660 C.ar  170  G170        0.3023
   3701  O6        51.3020  -13.1790    9.8580 O.2   170  G170       -0.2633
   3702  N7        53.2140  -10.7650    9.7510 N.ar  170  G170       -0.2173
   3703  C8        53.8100   -9.7950    9.1100 C.ar  170  G170        0.1817
   3704  N9        53.4960   -9.7630    7.7720 N.ar  170  G170       -0.2693
   3705  OP1       56.1290   -4.7770   10.7980 O.2   170  G170       -0.5172
   3706  OP2       55.8810   -7.0720   11.8870 O.co2 170  G170       -0.4373
   3707  P         50.8230   -5.2020    7.8490 P.3   171  A171        0.2141
   3708  C5'       49.6610   -6.4070    5.8040 C.3   171  A171        0.1812
   3709  O5'       49.7070   -6.1560    7.2210 O.3   171  A171       -0.3114
   3710  C4'       48.6800   -7.4940    5.4950 C.3   171  A171        0.1773
   3711  O4'       49.2660   -8.6810    6.0380 O.3   171  A171       -0.3307
   3712  C3'       47.3800   -7.4190    6.2930 C.3   171  A171        0.1860
   3713  O3'       46.3220   -6.6290    5.7380 O.3   171  A171       -0.3112
   3714  C2'       46.9270   -8.8680    6.3090 C.3   171  A171        0.2309
   3715  O2'       46.5200   -8.8800    4.9760 O.3   171  A171       -0.2156
   3716  C1'       48.2570   -9.6170    6.3260 C.3   171  A171        0.2408
   3717  N1        47.1390  -13.2580    9.7710 N.ar  171  A171       -0.2040
   3718  C2        46.6600  -13.0170    8.5480 C.ar  171  A171        0.2016
   3719  N3        47.0060  -12.0770    7.6830 N.ar  171  A171       -0.2048
   3720  C4        47.9720  -11.2980    8.1970 C.ar  171  A171        0.1692
   3721  C5        48.5590  -11.4250    9.4400 C.ar  171  A171        0.1518
   3722  C6        48.1190  -12.4660   10.2450 C.ar  171  A171        0.1919
   3723  N6        48.6260  -12.7240   11.4500 N.pl3 171  A171       -0.1054
   3724  N7        49.5250  -10.4530    9.6300 N.ar  171  A171       -0.2193
   3725  C8        49.4700   -9.7410    8.5260 C.ar  171  A171        0.1816
   3726  N9        48.5510  -10.1940    7.6210 N.ar  171  A171       -0.2693
   3727  OP1       50.4530   -3.8860    7.3260 O.2   171  A171       -0.5172
   3728  OP2       50.9180   -5.4380    9.2860 O.co2 171  A171       -0.4373
   3729  P         45.4850   -5.8690    6.8700 P.3   172  U172        0.2141
   3730  C5'       43.5730   -7.6500    6.5080 C.3   172  U172        0.1812
   3731  O5'       44.3360   -6.8310    7.4280 O.3   172  U172       -0.3114
   3732  C4'       42.9280   -8.8060    7.2370 C.3   172  U172        0.1773
   3733  O4'       43.9710   -9.6980    7.6950 O.3   172  U172       -0.3307
   3734  C3'       42.2490   -8.4450    8.5320 C.3   172  U172        0.1860
   3735  O3'       40.9410   -8.0020    8.2810 O.3   172  U172       -0.3112
   3736  C2'       42.2420   -9.7620    9.2950 C.3   172  U172        0.2309
   3737  O2'       41.0170  -10.4550    9.2960 O.3   172  U172       -0.2156
   3738  C1'       43.4870  -10.4780    8.7630 C.3   172  U172        0.2420
   3739  N1        44.4930  -10.4570    9.8260 N.ar  172  U172       -0.2534
   3740  C2        44.4030  -11.4350   10.7900 C.ar  172  U172        0.3546
   3741  O2        43.6300  -12.3610   10.7130 O.2   172  U172       -0.2443
   3742  N3        45.2890  -11.3070   11.8270 N.ar  172  U172       -0.1530
   3743  C4        46.2400  -10.3190   11.9970 C.ar  172  U172        0.2846
   3744  O4        46.9660  -10.3490   12.9860 O.2   172  U172       -0.2650
   3745  C5        46.2810   -9.3430   10.9550 C.ar  172  U172        0.0814
   3746  C6        45.4050   -9.4240    9.9450 C.ar  172  U172        0.0870
   3747  OP1       44.9920   -4.8820    5.8800 O.2   172  U172       -0.5172
   3748  OP2       46.2100   -5.4070    8.0750 O.co2 172  U172       -0.4373
   3749  P         40.5210   -6.6200    8.9880 P.3   173  G173        0.2141
   3750  C5'       39.4560   -7.8380   11.0310 C.3   173  G173        0.1812
   3751  O5'       40.4680   -7.0330   10.5210 O.3   173  G173       -0.3114
   3752  C4'       39.7790   -8.0870   12.4790 C.3   173  G173        0.1773
   3753  O4'       41.0800   -8.7020   12.5830 O.3   173  G173       -0.3307
   3754  C3'       39.9520   -6.8620   13.3210 C.3   173  G173        0.1860
   3755  O3'       38.6000   -6.5780   13.6380 O.3   173  G173       -0.3112
   3756  C2'       40.7190   -7.4100   14.5140 C.3   173  G173        0.2309
   3757  O2'       39.9370   -8.1520   15.4230 O.3   173  G173       -0.2156
   3758  C1'       41.6150   -8.4640   13.8680 C.3   173  G173        0.2408
   3759  N1        46.3700   -8.5200   15.6900 N.ar  173  G173       -0.1709
   3760  C2        45.2480   -9.0930   16.2220 C.ar  173  G173        0.2606
   3761  N2        45.4040   -9.6890   17.4150 N.pl3 173  G173       -0.0859
   3762  N3        44.0450   -9.0100   15.6650 N.ar  173  G173       -0.1918
   3763  C4        44.0760   -8.3060   14.5140 C.ar  173  G173        0.1723
   3764  C5        45.1580   -7.7230   13.8930 C.ar  173  G173        0.1748
   3765  C6        46.4210   -7.8320   14.4790 C.ar  173  G173        0.3023
   3766  O6        47.5040   -7.4220   14.0390 O.2   173  G173       -0.2633
   3767  N7        44.7850   -7.1290   12.7000 N.ar  173  G173       -0.2173
   3768  C8        43.5060   -7.3660   12.6090 C.ar  173  G173        0.1817
   3769  N9        43.0070   -8.0520   13.6910 N.ar  173  G173       -0.2693
   3770  OP1       39.1970   -6.3650    8.3710 O.2   173  G173       -0.5172
   3771  OP2       41.5700   -5.5320    8.9180 O.co2 173  G173       -0.4373
   3772  P         38.1320   -5.0140   13.5280 P.3   174  A174        0.2141
   3773  C5'       37.0710   -4.6210   15.8940 C.3   174  A174        0.1812
   3774  O5'       38.2440   -4.7000   15.0870 O.3   174  A174       -0.3114
   3775  C4'       36.9920   -5.7160   16.9460 C.3   174  A174        0.1773
   3776  O4'       37.9800   -6.7780   16.8390 O.3   174  A174       -0.3307
   3777  C3'       37.1850   -5.2740   18.3840 C.3   174  A174        0.1860
   3778  O3'       36.0990   -4.3890   18.6800 O.3   174  A174       -0.3112
   3779  C2'       37.2190   -6.6260   19.0810 C.3   174  A174        0.2309
   3780  O2'       35.8990   -7.0990   19.1140 O.3   174  A174       -0.2156
   3781  C1'       38.0260   -7.4700   18.0830 C.3   174  A174        0.2408
   3782  N1        41.1870   -9.5240   21.5460 N.ar  174  A174       -0.2040
   3783  C2        39.9160   -9.7750   21.2320 C.ar  174  A174        0.2016
   3784  N3        39.1630   -9.2340   20.2860 N.ar  174  A174       -0.2048
   3785  C4        39.8550   -8.3130   19.5980 C.ar  174  A174        0.1692
   3786  C5        41.1720   -7.9530   19.7990 C.ar  174  A174        0.1518
   3787  C6        41.8640   -8.6220   20.8090 C.ar  174  A174        0.1919
   3788  N6        43.1390   -8.3890   21.1070 N.pl3 174  A174       -0.1054
   3789  N7        41.5440   -6.9400   18.9290 N.ar  174  A174       -0.2193
   3790  C8        40.4690   -6.7450   18.1960 C.ar  174  A174        0.1816
   3791  N9        39.4040   -7.5310   18.5580 N.ar  174  A174       -0.2693
   3792  OP1       36.7620   -5.0240   12.9020 O.2   174  A174       -0.5172
   3793  OP2       39.1890   -4.1700   12.9290 O.co2 174  A174       -0.4373
   3794  P         36.3970   -3.0750   19.5440 P.3   175  G175        0.2141
   3795  C5'       36.6820   -4.3350   21.8270 C.3   175  G175        0.1812
   3796  O5'       37.2650   -3.5650   20.7880 O.3   175  G175       -0.3114
   3797  C4'       37.7800   -4.9810   22.6390 C.3   175  G175        0.1773
   3798  O4'       38.7580   -5.6440   21.7810 O.3   175  G175       -0.3307
   3799  C3'       38.6380   -4.0550   23.4650 C.3   175  G175        0.1860
   3800  O3'       37.9010   -3.7160   24.6320 O.3   175  G175       -0.3112
   3801  C2'       39.8580   -4.9370   23.7330 C.3   175  G175        0.2309
   3802  O2'       39.5770   -5.9800   24.6420 O.3   175  G175       -0.2156
   3803  C1'       40.0550   -5.5610   22.3640 C.3   175  G175        0.2408
   3804  N1        44.7390   -3.9150   21.2270 N.ar  175  G175       -0.1709
   3805  C2        44.3300   -4.6950   22.2790 C.ar  175  G175        0.2606
   3806  N2        45.2910   -5.0870   23.1340 N.pl3 175  G175       -0.0859
   3807  N3        43.0710   -5.0620   22.4810 N.ar  175  G175       -0.1918
   3808  C4        42.2530   -4.5970   21.5190 C.ar  175  G175        0.1723
   3809  C5        42.5630   -3.7940   20.4440 C.ar  175  G175        0.1748
   3810  C6        43.9030   -3.4000   20.2450 C.ar  175  G175        0.3023
   3811  O6        44.3750   -2.7090   19.3330 O.2   175  G175       -0.2633
   3812  N7        41.4280   -3.4940   19.7100 N.ar  175  G175       -0.2173
   3813  C8        40.4580   -4.0800   20.3590 C.ar  175  G175        0.1817
   3814  N9        40.8900   -4.7670   21.4660 N.ar  175  G175       -0.2693
   3815  OP1       35.1430   -2.6270   20.1400 O.3   175  G175       -0.4373
   3816  OP2       37.2230   -2.0960   18.7530 O.co2 175  G175       -0.5172
   3817  P         38.5160   -2.5790   25.6130 P.3   176  U176        0.2141
   3818  C5'       40.1710   -3.7470   27.2290 C.3   176  U176        0.1812
   3819  O5'       39.9870   -2.9970   26.0490 O.3   176  U176       -0.3114
   3820  C4'       41.6440   -3.8550   27.4480 C.3   176  U176        0.1773
   3821  O4'       42.2260   -4.0540   26.1460 O.3   176  U176       -0.3307
   3822  C3'       42.3200   -2.5750   27.8760 C.3   176  U176        0.1860
   3823  O3'       42.1550   -2.3620   29.2520 O.3   176  U176       -0.3112
   3824  C2'       43.7560   -2.8320   27.4600 C.3   176  U176        0.2309
   3825  O2'       44.4290   -3.7970   28.2400 O.3   176  U176       -0.2156
   3826  C1'       43.5380   -3.5250   26.1270 C.3   176  U176        0.2420
   3827  N1        43.6610   -2.6660   24.9450 N.ar  176  U176       -0.2534
   3828  C2        44.9170   -2.1880   24.6600 C.ar  176  U176        0.3546
   3829  O2        45.8670   -2.3880   25.3850 O.2   176  U176       -0.2443
   3830  N3        45.0070   -1.4370   23.5170 N.ar  176  U176       -0.1530
   3831  C4        43.9870   -1.1270   22.6490 C.ar  176  U176        0.2846
   3832  O4        44.2300   -0.4720   21.6400 O.2   176  U176       -0.2650
   3833  C5        42.7040   -1.6350   23.0320 C.ar  176  U176        0.0814
   3834  C6        42.5880   -2.3670   24.1430 C.ar  176  U176        0.0870
   3835  OP1       37.6800   -2.6940   26.8400 O.3   176  U176       -0.4373
   3836  OP2       38.6010   -1.3370   24.8130 O.co2 176  U176       -0.5172
   3837  P         41.8160   -0.8740   29.7170 P.3   177  U177        0.2141
   3838  C5'       44.3100   -0.7670   30.4460 C.3   177  U177        0.1812
   3839  O5'       43.2900   -0.2880   29.5460 O.3   177  U177       -0.3114
   3840  C4'       45.6730   -0.3510   29.9710 C.3   177  U177        0.1773
   3841  O4'       45.8590   -0.7760   28.6010 O.3   177  U177       -0.3307
   3842  C3'       45.9140    1.1450   29.8830 C.3   177  U177        0.1860
   3843  O3'       46.2430    1.7250   31.1360 O.3   177  U177       -0.3112
   3844  C2'       47.1260    1.1750   28.9750 C.3   177  U177        0.2309
   3845  O2'       48.2690    0.6320   29.6020 O.3   177  U177       -0.2156
   3846  C1'       46.7260    0.1310   27.9490 C.3   177  U177        0.2420
   3847  N1        46.0500    0.7230   26.7910 N.ar  177  U177       -0.2534
   3848  C2        46.8740    1.3540   25.8880 C.ar  177  U177        0.3546
   3849  O2        48.0760    1.4350   26.0450 O.2   177  U177       -0.2443
   3850  N3        46.2450    1.8660   24.7840 N.ar  177  U177       -0.1530
   3851  C4        44.9050    1.8300   24.5020 C.ar  177  U177        0.2846
   3852  O4        44.4920    2.3660   23.4740 O.2   177  U177       -0.2650
   3853  C5        44.1060    1.1720   25.4930 C.ar  177  U177        0.0814
   3854  C6        44.6940    0.6580   26.5830 C.ar  177  U177        0.0870
   3855  OP1       41.4190   -1.1010   31.1430 O.3   177  U177       -0.4373
   3856  OP2       40.8930   -0.1790   28.7460 O.co2 177  U177       -0.5172
   3857  P         45.9180    3.2580   31.4480 P.3   178  U178        0.2141
   3858  C5'       48.4480    3.8680   30.7930 C.3   178  U178        0.1812
   3859  O5'       47.0110    4.0780   30.6200 O.3   178  U178       -0.3114
   3860  C4'       49.2460    4.7540   29.8500 C.3   178  U178        0.1773
   3861  O4'       49.1910    4.2360   28.4870 O.3   178  U178       -0.3307
   3862  C3'       48.7430    6.1830   29.7200 C.3   178  U178        0.1860
   3863  O3'       49.2440    6.9310   30.8160 O.3   178  U178       -0.3112
   3864  C2'       49.2960    6.5950   28.3610 C.3   178  U178        0.2309
   3865  O2'       50.6830    6.8480   28.4010 O.3   178  U178       -0.2156
   3866  C1'       49.1040    5.3100   27.5600 C.3   178  U178        0.2420
   3867  N1        47.8070    5.2390   26.8660 N.ar  178  U178       -0.2534
   3868  C2        47.7540    5.6820   25.5560 C.ar  178  U178        0.3546
   3869  O2        48.7270    6.1130   24.9650 O.2   178  U178       -0.2443
   3870  N3        46.5200    5.5860   24.9610 N.ar  178  U178       -0.1530
   3871  C4        45.3530    5.1090   25.5260 C.ar  178  U178        0.2846
   3872  O4        44.3160    5.0800   24.8550 O.2   178  U178       -0.2650
   3873  C5        45.4900    4.6650   26.8830 C.ar  178  U178        0.0814
   3874  C6        46.6820    4.7430   27.4910 C.ar  178  U178        0.0870
   3875  OP1       46.2600    3.2900   32.9000 O.3   178  U178       -0.4373
   3876  OP2       44.5560    3.6240   30.9570 O.co2 178  U178       -0.5172
   3877  P         48.6950    8.3810   31.1380 P.3   179  G179        0.2141
   3878  C5'       48.4920    7.7030   33.6670 C.3   179  G179        0.1812
   3879  O5'       49.1210    8.5020   32.6640 O.3   179  G179       -0.3114
   3880  C4'       49.4410    7.4970   34.8180 C.3   179  G179        0.1773
   3881  O4'       50.7730    7.2350   34.3030 O.3   179  G179       -0.3307
   3882  C3'       49.6810    8.6900   35.7220 C.3   179  G179        0.1860
   3883  O3'       48.6600    8.9380   36.6670 O.3   179  G179       -0.3112
   3884  C2'       50.9510    8.2530   36.4100 C.3   179  G179        0.2309
   3885  O2'       50.6390    7.1070   37.1680 O.3   179  G179       -0.2156
   3886  C1'       51.7390    7.7270   35.2180 C.3   179  G179        0.2408
   3887  N1        56.1210   10.2760   35.3540 N.ar  179  G179       -0.1709
   3888  C2        55.6110    9.3650   36.2470 C.ar  179  G179        0.2606
   3889  N2        56.3760    9.0850   37.3110 N.pl3 179  G179       -0.0859
   3890  N3        54.4410    8.7650   36.1020 N.ar  179  G179       -0.1918
   3891  C4        53.8070    9.1580   34.9740 C.ar  179  G179        0.1723
   3892  C5        54.2240   10.0660   34.0220 C.ar  179  G179        0.1748
   3893  C6        55.4860   10.6990   34.1890 C.ar  179  G179        0.3023
   3894  O6        56.0350   11.5290   33.4550 O.2   179  G179       -0.2633
   3895  N7        53.2760   10.1960   33.0150 N.ar  179  G179       -0.2173
   3896  C8        52.3190    9.3790   33.3640 C.ar  179  G179        0.1817
   3897  N9        52.5740    8.7220   34.5460 N.ar  179  G179       -0.2693
   3898  OP1       47.2170    8.5330   30.9630 O.3   179  G179       -0.4373
   3899  OP2       49.6240    9.2080   30.3370 O.co2 179  G179       -0.5172
   3900  P         47.9980   10.3830   36.5280 P.3   180  C180        0.2141
   3901  C5'       45.5770   10.4080   35.5140 C.3   180  C180        0.1812
   3902  O5'       46.9520   10.0760   35.3700 O.3   180  C180       -0.3114
   3903  C4'       44.7900    9.2430   36.0660 C.3   180  C180        0.1773
   3904  O4'       45.6310    8.2980   36.7580 O.3   180  C180       -0.3307
   3905  C3'       43.7960    9.6470   37.1370 C.3   180  C180        0.1860
   3906  O3'       42.6410   10.1490   36.4860 O.3   180  C180       -0.3112
   3907  C2'       43.5530    8.3580   37.9250 C.3   180  C180        0.2309
   3908  O2'       42.3930    7.6610   37.5320 O.3   180  C180       -0.2156
   3909  C1'       44.8110    7.5390   37.6300 C.3   180  C180        0.2420
   3910  N1        45.5680    7.1700   38.8410 N.ar  180  C180       -0.2535
   3911  C2        45.3340    5.9150   39.4070 C.ar  180  C180        0.3532
   3912  O2        44.5090    5.1640   38.8710 O.2   180  C180       -0.2443
   3913  N3        46.0210    5.5460   40.5120 N.ar  180  C180       -0.1739
   3914  C4        46.8980    6.3870   41.0630 C.ar  180  C180        0.1759
   3915  N4        47.5510    5.9810   42.1550 N.pl3 180  C180       -0.1070
   3916  C5        47.1440    7.6820   40.5170 C.ar  180  C180        0.0566
   3917  C6        46.4570    8.0320   39.4210 C.ar  180  C180        0.0850
   3918  OP1       49.0300   11.3060   35.9920 O.2   180  C180       -0.5172
   3919  OP2       47.2730   10.7370   37.7780 O.co2 180  C180       -0.4373
   3920  P         42.3810   11.7270   36.5050 P.3   181  A181        0.2141
   3921  C5'       41.3070   10.7030   38.7060 C.3   181  A181        0.1812
   3922  O5'       41.7070   11.8670   37.9450 O.3   181  A181       -0.3114
   3923  C4'       39.8340   10.4040   38.5230 C.3   181  A181        0.1773
   3924  O4'       39.0620   11.6100   38.7820 O.3   181  A181       -0.3307
   3925  C3'       39.3660    9.9480   37.1400 C.3   181  A181        0.1860
   3926  O3'       39.5940    8.5680   36.8430 O.3   181  A181       -0.3112
   3927  C2'       37.8870   10.3250   37.1770 C.3   181  A181        0.2309
   3928  O2'       37.0030    9.4640   37.8660 O.3   181  A181       -0.2156
   3929  C1'       37.9440   11.6600   37.9120 C.3   181  A181        0.2408
   3930  N1        35.5840   14.8140   34.6440 N.ar  181  A181       -0.2040
   3931  C2        35.1340   13.8410   35.4500 C.ar  181  A181        0.2016
   3932  N3        35.8140   13.0550   36.2820 N.ar  181  A181       -0.2048
   3933  C4        37.1260   13.3470   36.2440 C.ar  181  A181        0.1692
   3934  C5        37.7390   14.3170   35.4720 C.ar  181  A181        0.1518
   3935  C6        36.9100   15.0830   34.6320 C.ar  181  A181        0.1919
   3936  N6        37.3590   16.0510   33.8290 N.pl3 181  A181       -0.1054
   3937  N7        39.1090   14.3310   35.6960 N.ar  181  A181       -0.2193
   3938  C8        39.2890   13.3890   36.5890 C.ar  181  A181        0.1816
   3939  N9        38.1300   12.7610   36.9740 N.ar  181  A181       -0.2693
   3940  OP1       41.3700   12.0520   35.4510 O.2   181  A181       -0.5172
   3941  OP2       43.7030   12.4170   36.4870 O.co2 181  A181       -0.4373
   3942  P         39.8750    8.0170   35.3470 P.3   182  U182        0.2141
   3943  C5'       37.5190    6.9420   35.9330 C.3   182  U182        0.1812
   3944  O5'       38.6020    7.1250   34.9980 O.3   182  U182       -0.3114
   3945  C4'       36.2190    7.3990   35.3190 C.3   182  U182        0.1773
   3946  O4'       36.0860    8.8420   35.4490 O.3   182  U182       -0.3307
   3947  C3'       36.0790    7.1710   33.8240 C.3   182  U182        0.1860
   3948  O3'       35.8070    5.8100   33.4940 O.3   182  U182       -0.3112
   3949  C2'       34.9670    8.1520   33.4790 C.3   182  U182        0.2309
   3950  O2'       33.7120    7.6680   33.9150 O.3   182  U182       -0.2156
   3951  C1'       35.3500    9.3560   34.3450 C.3   182  U182        0.2420
   3952  N1        36.1560   10.3920   33.6670 N.ar  182  U182       -0.2534
   3953  C2        35.5260   11.2100   32.7400 C.ar  182  U182        0.3546
   3954  O2        34.3470   11.1010   32.4480 O.2   182  U182       -0.2443
   3955  N3        36.3350   12.1560   32.1620 N.ar  182  U182       -0.1530
   3956  C4        37.6750   12.3750   32.4070 C.ar  182  U182        0.2846
   3957  O4        38.2640   13.2740   31.8020 O.2   182  U182       -0.2650
   3958  C5        38.2530   11.4980   33.3820 C.ar  182  U182        0.0814
   3959  C6        37.4920   10.5610   33.9650 C.ar  182  U182        0.0870
   3960  OP1       41.0270    7.0810   35.4310 O.3   182  U182       -0.4373
   3961  OP2       39.9170    9.1430   34.3740 O.co2 182  U182       -0.5172
   3962  P         36.8190    4.9800   32.5460 P.3   183  A183        0.2141
   3963  C5'       35.1930    4.8700   30.4740 C.3   183  A183        0.1812
   3964  O5'       36.3720    5.4240   31.0820 O.3   183  A183       -0.3114
   3965  C4'       34.5530    5.8800   29.5580 C.3   183  A183        0.1773
   3966  O4'       34.5180    7.1850   30.1940 O.3   183  A183       -0.3307
   3967  C3'       35.2840    6.1600   28.2530 C.3   183  A183        0.1860
   3968  O3'       35.1670    5.0970   27.3090 O.3   183  A183       -0.3112
   3969  C2'       34.6530    7.4880   27.8500 C.3   183  A183        0.2309
   3970  O2'       33.3170    7.4350   27.3900 O.3   183  A183       -0.2156
   3971  C1'       34.5910    8.1960   29.2000 C.3   183  A183        0.2408
   3972  N1        37.0610   12.5660   28.1050 N.ar  183  A183       -0.2040
   3973  C2        35.8850   12.0710   27.6980 C.ar  183  A183        0.2016
   3974  N3        35.2950   10.9230   28.0250 N.ar  183  A183       -0.2048
   3975  C4        36.0600   10.2260   28.8840 C.ar  183  A183        0.1692
   3976  C5        37.2910   10.6020   29.3920 C.ar  183  A183        0.1518
   3977  C6        37.8040   11.8410   28.9700 C.ar  183  A183        0.1919
   3978  N6        38.9760   12.3340   29.3770 N.pl3 183  A183       -0.1054
   3979  N7        37.7840    9.6300   30.2510 N.ar  183  A183       -0.2193
   3980  C8        36.8570    8.7040   30.2440 C.ar  183  A183        0.1816
   3981  N9        35.7810    9.0030   29.4460 N.ar  183  A183       -0.2693
   3982  OP1       36.5540    3.5230   32.7030 O.2   183  A183       -0.5172
   3983  OP2       38.2040    5.4870   32.7250 O.co2 183  A183       -0.4373
   3984  P         36.3450    4.8360   26.2520 P.3   184  A184        0.2141
   3985  C5'       34.6910    5.8220   24.4200 C.3   184  A184        0.1812
   3986  O5'       36.0140    5.7850   25.0100 O.3   184  A184       -0.3114
   3987  C4'       34.4830    7.0820   23.6130 C.3   184  A184        0.1773
   3988  O4'       34.6190    8.2520   24.4650 O.3   184  A184       -0.3307
   3989  C3'       35.5160    7.3460   22.5330 C.3   184  A184        0.1860
   3990  O3'       35.4400    6.4390   21.4350 O.3   184  A184       -0.3112
   3991  C2'       35.3060    8.8350   22.2800 C.3   184  A184        0.2309
   3992  O2'       34.1490    9.1380   21.5280 O.3   184  A184       -0.2156
   3993  C1'       35.1320    9.3430   23.7100 C.3   184  A184        0.2408
   3994  N1        38.7210   13.0470   23.8720 N.ar  184  A184       -0.2040
   3995  C2        37.6240   12.8880   23.1180 C.ar  184  A184        0.2016
   3996  N3        36.7300   11.8960   23.1250 N.ar  184  A184       -0.2048
   3997  C4        37.0500   10.9730   24.0500 C.ar  184  A184        0.1692
   3998  C5        38.1450   10.9950   24.9000 C.ar  184  A184        0.1518
   3999  C6        39.0180   12.0990   24.7910 C.ar  184  A184        0.1919
   4000  N6        40.1130   12.2590   25.5410 N.pl3 184  A184       -0.1054
   4001  N7        38.1560    9.8700   25.7160 N.ar  184  A184       -0.2193
   4002  C8        37.0880    9.2030   25.3470 C.ar  184  A184        0.1816
   4003  N9        36.3730    9.8110   24.3420 N.ar  184  A184       -0.2693
   4004  OP1       36.2450    3.4120   25.8280 O.2   184  A184       -0.5172
   4005  OP2       37.5990    5.3400   26.8660 O.co2 184  A184       -0.4373
   4006  P         36.8650    5.8360   20.9480 P.3   185  C185        0.2141
   4007  C5'       36.6090    7.5310   18.8970 C.3   185  C185        0.1812
   4008  O5'       37.3970    7.0050   19.9970 O.3   185  C185       -0.3114
   4009  C4'       37.0990    8.9090   18.5130 C.3   185  C185        0.1773
   4010  O4'       37.0650    9.7890   19.6800 O.3   185  C185       -0.3307
   4011  C3'       38.5490    8.9700   18.0600 C.3   185  C185        0.1860
   4012  O3'       38.7550    8.4830   16.7330 O.3   185  C185       -0.3112
   4013  C2'       38.8890   10.4320   18.3330 C.3   185  C185        0.2309
   4014  O2'       38.3050   11.3250   17.4140 O.3   185  C185       -0.2156
   4015  C1'       38.2090   10.6370   19.6850 C.3   185  C185        0.2420
   4016  N1        39.0770   10.2640   20.8230 N.ar  185  C185       -0.2535
   4017  C2        40.1780   11.0780   21.1360 C.ar  185  C185        0.3532
   4018  O2        40.3790   12.1040   20.4650 O.2   185  C185       -0.2443
   4019  N3        40.9900   10.7260   22.1640 N.ar  185  C185       -0.1739
   4020  C4        40.7440    9.6090   22.8570 C.ar  185  C185        0.1759
   4021  N4        41.5680    9.3010   23.8640 N.pl3 185  C185       -0.1070
   4022  C5        39.6370    8.7600   22.5530 C.ar  185  C185        0.0566
   4023  C6        38.8390    9.1210   21.5370 C.ar  185  C185        0.0850
   4024  OP1       36.6600    4.6300   20.0890 O.2   185  C185       -0.5172
   4025  OP2       37.7110    5.7360   22.1800 O.co2 185  C185       -0.4373
   4026  P         39.9910    7.5040   16.3350 P.3   186  A186        0.2141
   4027  C5'       41.2050    9.5430   15.1940 C.3   186  A186        0.1812
   4028  O5'       41.2270    8.4920   16.1690 O.3   186  A186       -0.3114
   4029  C4'       42.3910   10.4310   15.4320 C.3   186  A186        0.1773
   4030  O4'       42.2140   11.1360   16.6910 O.3   186  A186       -0.3307
   4031  C3'       43.7070    9.6870   15.6260 C.3   186  A186        0.1860
   4032  O3'       44.2010    9.1960   14.3780 O.3   186  A186       -0.3112
   4033  C2'       44.5350   10.7230   16.3870 C.3   186  A186        0.2309
   4034  O2'       45.1810   11.7260   15.6260 O.3   186  A186       -0.2156
   4035  C1'       43.4760   11.3280   17.3150 C.3   186  A186        0.2408
   4036  N1        45.7540   10.8060   21.9040 N.ar  186  A186       -0.2040
   4037  C2        46.0320   11.5790   20.8470 C.ar  186  A186        0.2016
   4038  N3        45.3970   11.6710   19.6780 N.ar  186  A186       -0.2048
   4039  C4        44.3400   10.8400   19.6470 C.ar  186  A186        0.1692
   4040  C5        43.9280    9.9850   20.6540 C.ar  186  A186        0.1518
   4041  C6        44.6860    9.9800   21.8370 C.ar  186  A186        0.1919
   4042  N6        44.4020    9.2150   22.8920 N.pl3 186  A186       -0.1054
   4043  N7        42.7990    9.2780   20.2660 N.ar  186  A186       -0.2193
   4044  C8        42.5520    9.7190   19.0560 C.ar  186  A186        0.1816
   4045  N9        43.4430   10.6690   18.6200 N.ar  186  A186       -0.2693
   4046  OP1       39.6540    6.9960   14.9740 O.2   186  A186       -0.5172
   4047  OP2       40.3840    6.5450   17.4160 O.co2 186  A186       -0.4373
   4048  P         45.0280    7.8180   14.1500 P.3   187  A187        0.2141
   4049  C5'       47.1580    9.3150   14.6610 C.3   187  A187        0.1812
   4050  O5'       46.3180    8.1860   15.0240 O.3   187  A187       -0.3114
   4051  C4'       48.2840    9.5120   15.6540 C.3   187  A187        0.1773
   4052  O4'       47.7620   10.0410   16.9050 O.3   187  A187       -0.3307
   4053  C3'       49.0650    8.2640   16.0550 C.3   187  A187        0.1860
   4054  O3'       50.1330    8.0340   15.1540 O.3   187  A187       -0.3112
   4055  C2'       49.5710    8.6240   17.4480 C.3   187  A187        0.2309
   4056  O2'       50.6890    9.4830   17.5210 O.3   187  A187       -0.2156
   4057  C1'       48.3740    9.3800   18.0050 C.3   187  A187        0.2408
   4058  N1        47.1150    6.7990   22.2770 N.ar  187  A187       -0.2040
   4059  C2        48.1830    7.5450   21.9550 C.ar  187  A187        0.2016
   4060  N3        48.4530    8.1840   20.8160 N.ar  187  A187       -0.2048
   4061  C4        47.4590    8.0080   19.9270 C.ar  187  A187        0.1692
   4062  C5        46.2950    7.2800   20.1160 C.ar  187  A187        0.1518
   4063  C6        46.1320    6.6490   21.3620 C.ar  187  A187        0.1919
   4064  N6        45.0610    5.9280   21.6900 N.pl3 187  A187       -0.1054
   4065  N7        45.4960    7.3260   18.9820 N.ar  187  A187       -0.2193
   4066  C8        46.1830    8.0650   18.1430 C.ar  187  A187        0.1816
   4067  N9        47.3790    8.5160   18.6510 N.ar  187  A187       -0.2693
   4068  OP1       45.4650    7.8670   12.7350 O.2   187  A187       -0.5172
   4069  OP2       44.2540    6.6170   14.5880 O.co2 187  A187       -0.4373
   4070  P         50.6100    6.5380   14.8950 P.3   188  A188        0.2141
   4071  C5'       52.3700    6.4220   16.8430 C.3   188  A188        0.1812
   4072  O5'       51.0690    6.0590   16.3430 O.3   188  A188       -0.3114
   4073  C4'       52.6050    5.8220   18.2110 C.3   188  A188        0.1773
   4074  O4'       51.5280    6.1980   19.1100 O.3   188  A188       -0.3307
   4075  C3'       52.6220    4.2980   18.3140 C.3   188  A188        0.1860
   4076  O3'       53.8400    3.6870   17.9180 O.3   188  A188       -0.3112
   4077  C2'       52.3820    4.0850   19.8050 C.3   188  A188        0.2309
   4078  O2'       53.4850    4.3380   20.6550 O.3   188  A188       -0.2156
   4079  C1'       51.3810    5.1950   20.1040 C.3   188  A188        0.2408
   4080  N1        47.7510    2.9420   22.9160 N.ar  188  A188       -0.2040
   4081  C2        49.0460    3.1950   23.1430 C.ar  188  A188        0.2016
   4082  N3        49.9430    3.7750   22.3490 N.ar  188  A188       -0.2048
   4083  C4        49.3850    4.1150   21.1740 C.ar  188  A188        0.1692
   4084  C5        48.0720    3.9160   20.7900 C.ar  188  A188        0.1518
   4085  C6        47.2230    3.2970   21.7230 C.ar  188  A188        0.1919
   4086  N6        45.9320    3.0450   21.4970 N.pl3 188  A188       -0.1054
   4087  N7        47.8530    4.4110   19.5130 N.ar  188  A188       -0.2193
   4088  C8        49.0220    4.8880   19.1570 C.ar  188  A188        0.1816
   4089  N9        49.9920    4.7490   20.1190 N.ar  188  A188       -0.2693
   4090  OP1       51.8390    6.6760   14.0640 O.2   188  A188       -0.5172
   4091  OP2       49.4660    5.7150   14.4140 O.co2 188  A188       -0.4373
   4092  P         53.7400    2.1360   17.5330 P.3   189  A189        0.2141
   4093  C5'       54.8370    1.4910   19.8440 C.3   189  A189        0.1812
   4094  O5'       53.7290    1.3580   18.9250 O.3   189  A189       -0.3114
   4095  C4'       54.5270    0.7360   21.1020 C.3   189  A189        0.1773
   4096  O4'       53.3720    1.3300   21.7700 O.3   189  A189       -0.3307
   4097  C3'       54.0640   -0.6810   20.8360 C.3   189  A189        0.1860
   4098  O3'       55.1350   -1.5140   20.4410 O.3   189  A189       -0.3112
   4099  C2'       53.3220   -0.9910   22.1280 C.3   189  A189        0.2309
   4100  O2'       54.1290   -1.2710   23.2660 O.3   189  A189       -0.2156
   4101  C1'       52.5440    0.3080   22.3130 C.3   189  A189        0.2408
   4102  N1        47.4840   -0.5570   22.7740 N.ar  189  A189       -0.2040
   4103  C2        48.5130   -0.7470   23.6140 C.ar  189  A189        0.2016
   4104  N3        49.8090   -0.5030   23.4290 N.ar  189  A189       -0.2048
   4105  C4        50.0300   -0.0200   22.1910 C.ar  189  A189        0.1692
   4106  C5        49.0780    0.2250   21.2170 C.ar  189  A189        0.1518
   4107  C6        47.7440   -0.0810   21.5360 C.ar  189  A189        0.1919
   4108  N6        46.7290    0.0760   20.6900 N.pl3 189  A189       -0.1054
   4109  N7        49.6700    0.7290   20.0680 N.ar  189  A189       -0.2193
   4110  C8        50.9500    0.7700   20.3630 C.ar  189  A189        0.1816
   4111  N9        51.2390    0.3360   21.6340 N.ar  189  A189       -0.2693
   4112  OP1       54.9800    1.6720   16.8480 O.3   189  A189       -0.4373
   4113  OP2       52.4290    2.0330   16.8340 O.co2 189  A189       -0.5172
   4114  P         54.7480   -2.9720   19.9150 P.3   190  C190        0.2141
   4115  C5'       53.4560   -4.8560   21.1640 C.3   190  C190        0.1812
   4116  O5'       54.3000   -3.7120   21.2450 O.3   190  C190       -0.3114
   4117  C4'       52.5930   -4.9500   22.3890 C.3   190  C190        0.1773
   4118  O4'       51.8490   -3.7200   22.5840 O.3   190  C190       -0.3307
   4119  C3'       51.5360   -6.0190   22.2800 C.3   190  C190        0.1860
   4120  O3'       52.2150   -7.2180   22.6350 O.3   190  C190       -0.3112
   4121  C2'       50.4710   -5.5050   23.2340 C.3   190  C190        0.2309
   4122  O2'       50.8600   -5.6890   24.5710 O.3   190  C190       -0.2156
   4123  C1'       50.5150   -4.0110   22.9430 C.3   190  C190        0.2420
   4124  N1        49.6460   -3.6430   21.8200 N.ar  190  C190       -0.2535
   4125  C2        48.2660   -3.7930   21.9630 C.ar  190  C190        0.3532
   4126  O2        47.8220   -4.2140   23.0420 O.2   190  C190       -0.2443
   4127  N3        47.4500   -3.4610   20.9310 N.ar  190  C190       -0.1739
   4128  C4        47.9710   -2.9820   19.8000 C.ar  190  C190        0.1759
   4129  N4        47.1410   -2.7130   18.7920 N.pl3 190  C190       -0.1070
   4130  C5        49.3720   -2.8050   19.6340 C.ar  190  C190        0.0566
   4131  C6        50.1690   -3.1610   20.6540 C.ar  190  C190        0.0850
   4132  OP1       55.9780   -3.7620   19.6600 O.3   190  C190       -0.4373
   4133  OP2       53.6010   -3.0090   18.9510 O.co2 190  C190       -0.5172
   4134  P         52.0910   -8.3350   21.5130 P.3   191  A191        0.2141
   4135  C5'       49.8450   -8.9740   22.7730 C.3   191  A191        0.1812
   4136  O5'       50.5400   -8.7200   21.5280 O.3   191  A191       -0.3114
   4137  C4'       48.3650   -9.0840   22.5260 C.3   191  A191        0.1773
   4138  O4'       47.8190   -7.7700   22.2530 O.3   191  A191       -0.3307
   4139  C3'       47.9860   -9.9160   21.3130 C.3   191  A191        0.1860
   4140  O3'       47.9400  -11.2210   21.8510 O.3   191  A191       -0.3112
   4141  C2'       46.6060   -9.3630   20.9570 C.3   191  A191        0.2309
   4142  O2'       45.4940  -10.0550   21.5170 O.3   191  A191       -0.2156
   4143  C1'       46.7460   -7.8810   21.3390 C.3   191  A191        0.2408
   4144  N1        45.0640   -5.6050   17.0640 N.ar  191  A191       -0.2040
   4145  C2        44.4160   -6.1880   18.0860 C.ar  191  A191        0.2016
   4146  N3        44.9100   -6.7330   19.1890 N.ar  191  A191       -0.2048
   4147  C4        46.2510   -6.6560   19.1930 C.ar  191  A191        0.1692
   4148  C5        47.0520   -6.0810   18.2240 C.ar  191  A191        0.1518
   4149  C6        46.4110   -5.5070   17.1280 C.ar  191  A191        0.1919
   4150  N6        47.0580   -4.8890   16.1400 N.pl3 191  A191       -0.1054
   4151  N7        48.3880   -6.1770   18.5710 N.ar  191  A191       -0.2193
   4152  C8        48.3690   -6.8000   19.7270 C.ar  191  A191        0.1816
   4153  N9        47.1070   -7.1160   20.1610 N.ar  191  A191       -0.2693
   4154  OP1       52.9150   -9.5080   21.9640 O.3   191  A191       -0.4373
   4155  OP2       52.3070   -7.7080   20.1770 O.co2 191  A191       -0.5172
   4156  P         47.4750  -12.4200   20.9450 P.3   192  A192        0.2141
   4157  C5'       45.8770  -13.3450   22.8580 C.3   192  A192        0.1812
   4158  O5'       46.0430  -12.8450   21.5110 O.3   192  A192       -0.3114
   4159  C4'       44.4160  -13.6570   23.0860 C.3   192  A192        0.1773
   4160  O4'       43.5780  -12.5100   22.7120 O.3   192  A192       -0.3307
   4161  C3'       43.9240  -14.7840   22.1840 C.3   192  A192        0.1860
   4162  O3'       44.1600  -15.9970   22.8770 O.3   192  A192       -0.3112
   4163  C2'       42.4370  -14.4700   22.0030 C.3   192  A192        0.2309
   4164  O2'       41.6980  -14.8690   23.1400 O.3   192  A192       -0.2156
   4165  C1'       42.4430  -12.9470   21.9830 C.3   192  A192        0.2408
   4166  N1        39.6180  -11.5990   17.9100 N.ar  192  A192       -0.2040
   4167  C2        39.3450  -12.3470   18.9870 C.ar  192  A192        0.2016
   4168  N3        40.1230  -12.6440   20.0280 N.ar  192  A192       -0.2048
   4169  C4        41.3650  -12.1550   19.8470 C.ar  192  A192        0.1692
   4170  C5        41.8020  -11.3820   18.7830 C.ar  192  A192        0.1518
   4171  C6        40.8540  -11.0650   17.7940 C.ar  192  A192        0.1919
   4172  N6        41.1400  -10.3470   16.7030 N.pl3 192  A192       -0.1054
   4173  N7        43.1440  -11.0570   18.9280 N.ar  192  A192       -0.2193
   4174  C8        43.4740  -11.5940   20.0850 C.ar  192  A192        0.1816
   4175  N9        42.4540  -12.3010   20.6790 N.ar  192  A192       -0.2693
   4176  OP1       48.3710  -13.6210   21.1540 O.3   192  A192       -0.4373
   4177  OP2       47.3900  -11.7900   19.5970 O.co2 192  A192       -0.5172
   4178  P         44.8620  -17.1930   22.1330 P.3   193  A193        0.2141
   4179  C5'       42.4130  -18.1100   21.9310 C.3   193  A193        0.1812
   4180  O5'       43.6310  -17.7240   21.2660 O.3   193  A193       -0.3114
   4181  C4'       41.2890  -18.2470   20.9410 C.3   193  A193        0.1773
   4182  O4'       40.7620  -16.9290   20.6360 O.3   193  A193       -0.3307
   4183  C3'       41.7260  -18.8180   19.6060 C.3   193  A193        0.1860
   4184  O3'       41.6440  -20.2100   19.7420 O.3   193  A193       -0.3112
   4185  C2'       40.7130  -18.2180   18.6330 C.3   193  A193        0.2309
   4186  O2'       39.4730  -18.8630   18.3790 O.3   193  A193       -0.2156
   4187  C1'       40.4790  -16.8360   19.2450 C.3   193  A193        0.2408
   4188  N1        41.2010  -13.5280   15.3510 N.ar  193  A193       -0.2040
   4189  C2        40.1660  -14.3040   15.6820 C.ar  193  A193        0.2016
   4190  N3        40.0250  -15.1210   16.7270 N.ar  193  A193       -0.2048
   4191  C4        41.1370  -15.1270   17.4790 C.ar  193  A193        0.1692
   4192  C5        42.2760  -14.3810   17.2680 C.ar  193  A193        0.1518
   4193  C6        42.2950  -13.5490   16.1440 C.ar  193  A193        0.1919
   4194  N6        43.3230  -12.7600   15.8390 N.pl3 193  A193       -0.1054
   4195  N7        43.2140  -14.6230   18.2600 N.ar  193  A193       -0.2193
   4196  C8        42.6300  -15.5020   19.0380 C.ar  193  A193        0.1816
   4197  N9        41.3670  -15.8470   18.6280 N.ar  193  A193       -0.2693
   4198  OP1       45.3020  -17.9680   23.3530 O.3   193  A193       -0.4373
   4199  OP2       45.8740  -16.7790   21.1370 O.co2 193  A193       -0.5172
   4200  P         42.6810  -21.1500   18.9550 P.3   194  G194        0.2141
   4201  C5'       41.1630  -21.2350   16.8490 C.3   194  G194        0.1812
   4202  O5'       42.4260  -20.8720   17.4160 O.3   194  G194       -0.3114
   4203  C4'       41.0530  -20.6710   15.4630 C.3   194  G194        0.1773
   4204  O4'       40.9930  -19.2150   15.5180 O.3   194  G194       -0.3307
   4205  C3'       42.2330  -20.8700   14.5280 C.3   194  G194        0.1860
   4206  O3'       42.4040  -22.2150   14.0620 O.3   194  G194       -0.3112
   4207  C2'       41.8330  -19.9080   13.4290 C.3   194  G194        0.2309
   4208  O2'       40.7030  -20.5700   12.8890 O.3   194  G194       -0.2156
   4209  C1'       41.3670  -18.7000   14.2520 C.3   194  G194        0.2408
   4210  N1        43.5330  -14.5930   12.2440 N.ar  194  G194       -0.1709
   4211  C2        42.4780  -15.3450   11.7880 C.ar  194  G194        0.2606
   4212  N2        41.9420  -14.9710   10.6210 N.pl3 194  G194       -0.0859
   4213  N3        41.9880  -16.3960   12.4200 N.ar  194  G194       -0.1918
   4214  C4        42.6480  -16.6450   13.5690 C.ar  194  G194        0.1723
   4215  C5        43.7050  -15.9520   14.1220 C.ar  194  G194        0.1748
   4216  C6        44.2070  -14.8080   13.4370 C.ar  194  G194        0.3023
   4217  O6        45.1340  -14.0560   13.7620 O.2   194  G194       -0.2633
   4218  N7        44.1140  -16.5450   15.3090 N.ar  194  G194       -0.2173
   4219  C8        43.2980  -17.5570   15.4620 C.ar  194  G194        0.1817
   4220  N9        42.3900  -17.6770   14.4390 N.ar  194  G194       -0.2693
   4221  OP1       42.1550  -22.5310   19.1500 O.2   194  G194       -0.5172
   4222  OP2       44.1050  -20.8450   19.2930 O.co2 194  G194       -0.4373
   4223  P         43.6410  -22.7460   13.1250 P.3   195  U195        0.2141
   4224  C5'       44.4110  -21.2370   11.1480 C.3   195  U195        0.1812
   4225  O5'       43.3480  -21.8840   11.8150 O.3   195  U195       -0.3114
   4226  C4'       43.8540  -20.4940    9.9740 C.3   195  U195        0.1773
   4227  O4'       43.2960  -19.2330   10.4470 O.3   195  U195       -0.3307
   4228  C3'       44.9140  -20.1050    8.9650 C.3   195  U195        0.1860
   4229  O3'       44.9300  -21.0210    7.9010 O.3   195  U195       -0.3112
   4230  C2'       44.3800  -18.7990    8.4130 C.3   195  U195        0.2309
   4231  O2'       43.3810  -19.1430    7.4840 O.3   195  U195       -0.2156
   4232  C1'       43.8110  -18.1480    9.6750 C.3   195  U195        0.2420
   4233  N1        44.8390  -17.4450   10.4700 N.ar  195  U195       -0.2534
   4234  C2        45.3110  -16.2130   10.0340 C.ar  195  U195        0.3546
   4235  O2        44.9130  -15.6730    9.0220 O.2   195  U195       -0.2443
   4236  N3        46.2780  -15.6530   10.8260 N.ar  195  U195       -0.1530
   4237  C4        46.8190  -16.1860   11.9780 C.ar  195  U195        0.2846
   4238  O4        47.6960  -15.5700   12.5840 O.2   195  U195       -0.2650
   4239  C5        46.2440  -17.4320   12.3840 C.ar  195  U195        0.0814
   4240  C6        45.3190  -18.0150   11.6220 C.ar  195  U195        0.0870
   4241  OP1       43.2810  -24.1800   12.9360 O.2   195  U195       -0.5172
   4242  OP2       45.0480  -22.3460   13.4530 O.co2 195  U195       -0.4373
   4243  P         46.4060  -21.4490    7.4100 P.3   196  C196        0.2141
   4244  C5'       45.6340  -19.7680    5.5700 C.3   196  C196        0.1812
   4245  O5'       46.7590  -20.4200    6.2410 O.3   196  C196       -0.3114
   4246  C4'       46.1390  -18.6920    4.6460 C.3   196  C196        0.1773
   4247  O4'       46.0040  -17.3660    5.2590 O.3   196  C196       -0.3307
   4248  C3'       47.6230  -18.7840    4.3210 C.3   196  C196        0.1860
   4249  O3'       47.8710  -19.8010    3.3440 O.3   196  C196       -0.3112
   4250  C2'       47.8800  -17.3480    3.8910 C.3   196  C196        0.2309
   4251  O2'       47.0310  -17.1160    2.7780 O.3   196  C196       -0.2156
   4252  C1'       47.1480  -16.5960    4.9920 C.3   196  C196        0.2420
   4253  N1        47.8850  -16.4430    6.2500 N.ar  196  C196       -0.2535
   4254  C2        48.7970  -15.3850    6.3750 C.ar  196  C196        0.3532
   4255  O2        48.9630  -14.6310    5.4190 O.2   196  C196       -0.2443
   4256  N3        49.4390  -15.1930    7.5460 N.ar  196  C196       -0.1739
   4257  C4        49.1740  -15.9890    8.5820 C.ar  196  C196        0.1759
   4258  N4        49.8240  -15.7660    9.7200 N.pl3 196  C196       -0.1070
   4259  C5        48.2520  -17.0760    8.4850 C.ar  196  C196        0.0566
   4260  C6        47.6180  -17.2500    7.3180 C.ar  196  C196        0.0850
   4261  OP1       45.9380  -22.5690    6.5370 O.2   196  C196       -0.5172
   4262  OP2       47.4790  -21.6600    8.4380 O.co2 196  C196       -0.4373
   4263  P         49.3460  -20.3420    3.0880 P.3   197  C197        0.2141
   4264  C5'       49.8270  -18.6170    1.1860 C.3   197  C197        0.1812
   4265  O5'       50.3210  -19.3570    2.3070 O.3   197  C197       -0.3114
   4266  C4'       50.7780  -17.4850    1.0040 C.3   197  C197        0.1773
   4267  O4'       50.5950  -16.5210    2.0910 O.3   197  C197       -0.3307
   4268  C3'       52.2130  -17.8820    1.1720 C.3   197  C197        0.1860
   4269  O3'       52.6430  -18.4640   -0.0420 O.3   197  C197       -0.3112
   4270  C2'       52.8590  -16.5270    1.4420 C.3   197  C197        0.2309
   4271  O2'       52.9340  -15.8100    0.2160 O.3   197  C197       -0.2156
   4272  C1'       51.8230  -15.8800    2.3570 C.3   197  C197        0.2420
   4273  N1        52.0980  -16.0070    3.7830 N.ar  197  C197       -0.2535
   4274  C2        52.9590  -15.0660    4.3810 C.ar  197  C197        0.3532
   4275  O2        53.4830  -14.1980    3.6700 O.2   197  C197       -0.2443
   4276  N3        53.2430  -15.1670    5.7070 N.ar  197  C197       -0.1739
   4277  C4        52.6480  -16.1080    6.4440 C.ar  197  C197        0.1759
   4278  N4        52.8630  -16.0820    7.7580 N.pl3 197  C197       -0.1070
   4279  C5        51.6900  -17.0200    5.8800 C.ar  197  C197        0.0566
   4280  C6        51.4610  -16.9440    4.5520 C.ar  197  C197        0.0850
   4281  OP1       48.9310  -21.1230    1.9000 O.2   197  C197       -0.5172
   4282  OP2       50.2400  -20.8890    4.2010 O.co2 197  C197       -0.4373
   4283  P         54.2330  -18.9840   -0.0910 P.3   198  U198        0.2141
   4284  C5'       56.3070  -17.4160   -0.4950 C.3   198  U198        0.1812
   4285  O5'       55.4040  -18.0370    0.4260 O.3   198  U198       -0.3114
   4286  C4'       57.3640  -16.7460    0.3000 C.3   198  U198        0.1773
   4287  O4'       56.7720  -16.3710    1.5730 O.3   198  U198       -0.3307
   4288  C3'       58.4940  -17.6850    0.6410 C.3   198  U198        0.1860
   4289  O3'       59.6750  -17.0040    0.2900 O.3   198  U198       -0.3112
   4290  C2'       58.4200  -17.8250    2.1630 C.3   198  U198        0.2309
   4291  O2'       59.7160  -17.9560    2.7280 O.3   198  U198       -0.2156
   4292  C1'       57.7330  -16.5260    2.5690 C.3   198  U198        0.2420
   4293  N1        57.0860  -16.6260    3.8820 N.ar  198  U198       -0.2534
   4294  C2        57.7300  -16.0110    4.9350 C.ar  198  U198        0.3546
   4295  O2        58.7420  -15.3460    4.7930 O.2   198  U198       -0.2443
   4296  N3        57.1550  -16.2150    6.1680 N.ar  198  U198       -0.1530
   4297  C4        56.0140  -16.9450    6.4510 C.ar  198  U198        0.2846
   4298  O4        55.6300  -17.0520    7.6250 O.2   198  U198       -0.2650
   4299  C5        55.3870  -17.5260    5.2980 C.ar  198  U198        0.0814
   4300  C6        55.9550  -17.3790    4.0870 C.ar  198  U198        0.0870
   4301  OP1       54.2470  -19.2320   -1.5610 O.2   198  U198       -0.5172
   4302  OP2       54.4440  -20.0170    0.9860 O.co2 198  U198       -0.4373
   4303  P         60.0340  -16.7200   -1.2280 P.3   199  U199        0.2141
   4304  C5'       60.8760  -14.2040   -1.5240 C.3   199  U199        0.1812
   4305  O5'       59.8070  -15.1700   -1.5020 O.3   199  U199       -0.3114
   4306  C4'       60.6240  -13.3080   -2.7010 C.3   199  U199        0.1773
   4307  O4'       59.3180  -12.6560   -2.6120 O.3   199  U199       -0.3307
   4308  C3'       61.5750  -12.1530   -2.8050 C.3   199  U199        0.1860
   4309  O3'       62.6750  -12.7430   -3.4250 O.3   199  U199       -0.3112
   4310  C2'       60.8130  -11.2360   -3.7370 C.3   199  U199        0.2309
   4311  O2'       60.7330  -11.8020   -5.0120 O.3   199  U199       -0.2156
   4312  C1'       59.4020  -11.3540   -3.1780 C.3   199  U199        0.2420
   4313  N1        59.1890  -10.3440   -2.1350 N.ar  199  U199       -0.2534
   4314  C2        58.9210   -9.0490   -2.5470 C.ar  199  U199        0.3546
   4315  O2        58.7740   -8.7420   -3.7170 O.2   199  U199       -0.2443
   4316  N3        58.7680   -8.1420   -1.5290 N.ar  199  U199       -0.1530
   4317  C4        58.9180   -8.3680   -0.1810 C.ar  199  U199        0.2846
   4318  O4        58.7480   -7.4430    0.6100 O.2   199  U199       -0.2650
   4319  C5        59.2100   -9.7240    0.1640 C.ar  199  U199        0.0814
   4320  C6        59.3550  -10.6390   -0.8030 C.ar  199  U199        0.0870
   4321  OP1       58.9590  -17.3680   -2.0560 O.2   199  U199       -0.5172
   4322  OP2       61.5070  -17.0560   -1.3540 O.co2 199  U199       -0.4373
   4323  P         64.0780  -12.2280   -2.9470 P.3   200  U200        0.2141
   4324  C5'       63.9510  -10.5730   -4.9940 C.3   200  U200        0.1812
   4325  O5'       64.0490  -10.7630   -3.5740 O.3   200  U200       -0.3114
   4326  C4'       64.1150   -9.1180   -5.3400 C.3   200  U200        0.1773
   4327  O4'       62.8890   -8.3560   -5.1410 O.3   200  U200       -0.3307
   4328  C3'       65.0970   -8.3170   -4.5260 C.3   200  U200        0.1860
   4329  O3'       66.4160   -8.7180   -4.8510 O.3   200  U200       -0.3112
   4330  C2'       64.7350   -6.9220   -5.0140 C.3   200  U200        0.2309
   4331  O2'       65.0330   -6.8220   -6.3910 O.3   200  U200       -0.2156
   4332  C1'       63.2150   -6.9910   -4.9610 C.3   200  U200        0.2420
   4333  N1        62.7320   -6.5520   -3.6430 N.ar  200  U200       -0.2534
   4334  C2        62.2940   -5.2410   -3.5360 C.ar  200  U200        0.3546
   4335  O2        62.2730   -4.4720   -4.4820 O.2   200  U200       -0.2443
   4336  N3        61.8910   -4.8700   -2.2770 N.ar  200  U200       -0.1530
   4337  C4        61.9190   -5.6340   -1.1330 C.ar  200  U200        0.2846
   4338  O4        61.5470   -5.1440   -0.0690 O.2   200  U200       -0.2650
   4339  C5        62.3760   -6.9770   -1.3250 C.ar  200  U200        0.0814
   4340  C6        62.7810   -7.3740   -2.5380 C.ar  200  U200        0.0870
   4341  OP1       65.1280  -13.0800   -3.6140 O.2   200  U200       -0.5172
   4342  OP2       64.1420  -12.0370   -1.4850 O.co2 200  U200       -0.4373
   4343  P         67.6250   -7.9130   -4.1570 P.3   201  C201        0.2141
   4344  C5'       68.6650   -5.5750   -4.7340 C.3   201  C201        0.1812
   4345  O5'       67.5300   -6.4390   -4.7580 O.3   201  C201       -0.3114
   4346  C4'       68.2280   -4.1980   -5.0890 C.3   201  C201        0.1773
   4347  O4'       66.8050   -4.1210   -4.8690 O.3   201  C201       -0.3307
   4348  C3'       68.7940   -3.1470   -4.1620 C.3   201  C201        0.1860
   4349  O3'       70.1130   -2.7830   -4.5120 O.3   201  C201       -0.3112
   4350  C2'       67.7610   -2.0370   -4.2470 C.3   201  C201        0.2309
   4351  O2'       67.9790   -1.0780   -5.2590 O.3   201  C201       -0.2156
   4352  C1'       66.4690   -2.8360   -4.3840 C.3   201  C201        0.2420
   4353  N1        65.8680   -2.9930   -3.0750 N.ar  201  C201       -0.2535
   4354  C2        65.5310   -1.8350   -2.3590 C.ar  201  C201        0.3532
   4355  O2        65.7340   -0.7330   -2.8820 O.2   201  C201       -0.2443
   4356  N3        64.9650   -1.9500   -1.1300 N.ar  201  C201       -0.1739
   4357  C4        64.7740   -3.1610   -0.6010 C.ar  201  C201        0.1759
   4358  N4        64.2470   -3.2300    0.6150 N.pl3 201  C201       -0.1070
   4359  C5        65.1490   -4.3570   -1.2930 C.ar  201  C201        0.0566
   4360  C6        65.6990   -4.2260   -2.5130 C.ar  201  C201        0.0850
   4361  OP1       68.8670   -8.5910   -4.6620 O.2   201  C201       -0.5172
   4362  OP2       67.3920   -7.7180   -2.6930 O.co2 201  C201       -0.4373
   4363  P         71.2160   -3.2890   -3.4510 P.3   202  U202        0.2141
   4364  C5'       71.7000   -0.7200   -3.4530 C.3   202  U202        0.1812
   4365  O5'       71.3920   -1.8960   -2.6960 O.3   202  U202       -0.3114
   4366  C4'       71.0150    0.4850   -2.8850 C.3   202  U202        0.1773
   4367  O4'       69.6470    0.1590   -2.5750 O.3   202  U202       -0.3307
   4368  C3'       71.5130    0.9650   -1.5330 C.3   202  U202        0.1860
   4369  O3'       72.8230    1.5030   -1.4700 O.3   202  U202       -0.3112
   4370  C2'       70.3720    1.8700   -1.0960 C.3   202  U202        0.2309
   4371  O2'       70.2810    3.0640   -1.8270 O.3   202  U202       -0.2156
   4372  C1'       69.1740    1.0690   -1.5880 C.3   202  U202        0.2420
   4373  N1        68.5210    0.3080   -0.5220 N.ar  202  U202       -0.2534
   4374  C2        67.8940    1.0180    0.4800 C.ar  202  U202        0.3546
   4375  O2        67.8930    2.2320    0.5250 O.2   202  U202       -0.2443
   4376  N3        67.2410    0.2480    1.4090 N.ar  202  U202       -0.1530
   4377  C4        67.1540   -1.1260    1.4420 C.ar  202  U202        0.2846
   4378  O4        66.5460   -1.6720    2.3580 O.2   202  U202       -0.2650
   4379  C5        67.8260   -1.7880    0.3690 C.ar  202  U202        0.0814
   4380  C6        68.4650   -1.0640   -0.5580 C.ar  202  U202        0.0870
   4381  OP1       72.3460   -3.8100   -4.2780 O.2   202  U202       -0.5172
   4382  OP2       70.5940   -4.1720   -2.4330 O.co2 202  U202       -0.4373
   4383  P         73.7850    0.7380   -0.4340 P.3   203  G203        0.2141
   4384  C5'       73.6920    3.2970    0.1230 C.3   203  G203        0.1812
   4385  O5'       74.3000    2.0270    0.3490 O.3   203  G203       -0.3114
   4386  C4'       73.0860    3.8570    1.3880 C.3   203  G203        0.1773
   4387  O4'       71.6510    3.6000    1.4250 O.3   203  G203       -0.3307
   4388  C3'       73.5430    3.3620    2.7540 C.3   203  G203        0.1860
   4389  O3'       74.8640    3.7310    3.1520 O.3   203  G203       -0.3112
   4390  C2'       72.4330    3.9680    3.6100 C.3   203  G203        0.2309
   4391  O2'       72.3330    5.3760    3.5800 O.3   203  G203       -0.2156
   4392  C1'       71.2090    3.5920    2.7790 C.3   203  G203        0.2408
   4393  N1        68.3900    0.8730    5.9790 N.ar  203  G203       -0.1709
   4394  C2        68.7090    2.2120    6.0020 C.ar  203  G203        0.2606
   4395  N2        68.1700    2.9320    6.9870 N.pl3 203  G203       -0.0859
   4396  N3        69.4850    2.8030    5.1140 N.ar  203  G203       -0.1918
   4397  C4        69.9010    1.9450    4.1630 C.ar  203  G203        0.1723
   4398  C5        69.6570    0.5890    4.0540 C.ar  203  G203        0.1748
   4399  C6        68.8310   -0.0380    5.0220 C.ar  203  G203        0.3023
   4400  O6        68.4900   -1.2300    5.0930 O.2   203  G203       -0.2633
   4401  N7        70.2930    0.0620    2.9380 N.ar  203  G203       -0.2173
   4402  C8        70.9010    1.0860    2.4020 C.ar  203  G203        0.1817
   4403  N9        70.6930    2.2610    3.0910 N.ar  203  G203       -0.2693
   4404  OP1       74.7980   -0.0900   -1.1820 O.2   203  G203       -0.5172
   4405  OP2       73.1220    0.1410    0.7430 O.co2 203  G203       -0.4373
   4406  P         76.0100    2.9550    4.0510 P.3   204  C204        0.2141
   4407  C5'       75.4770    4.4880    6.1310 C.3   204  C204        0.1812
   4408  O5'       75.3350    3.2190    5.4740 O.3   204  C204       -0.3114
   4409  C4'       74.4980    4.6230    7.2660 C.3   204  C204        0.1773
   4410  O4'       73.1620    4.2760    6.8030 O.3   204  C204       -0.3307
   4411  C3'       74.6850    3.7160    8.4690 C.3   204  C204        0.1860
   4412  O3'       75.7040    4.0790    9.3950 O.3   204  C204       -0.3112
   4413  C2'       73.3090    3.8300    9.1080 C.3   204  C204        0.2309
   4414  O2'       73.0530    5.0740    9.7290 O.3   204  C204       -0.2156
   4415  C1'       72.4160    3.7110    7.8740 C.3   204  C204        0.2420
   4416  N1        72.0670    2.3070    7.5450 N.ar  204  C204       -0.2535
   4417  C2        71.1370    1.6540    8.3550 C.ar  204  C204        0.3532
   4418  O2        70.6170    2.2780    9.2910 O.2   204  C204       -0.2443
   4419  N3        70.8240    0.3630    8.0980 N.ar  204  C204       -0.1739
   4420  C4        71.4130   -0.2770    7.0880 C.ar  204  C204        0.1759
   4421  N4        71.0570   -1.5460    6.8620 N.pl3 204  C204       -0.1070
   4422  C5        72.3960    0.3520    6.2670 C.ar  204  C204        0.0566
   4423  C6        72.6910    1.6330    6.5310 C.ar  204  C204        0.0850
   4424  OP1       77.1670    3.8610    3.8710 O.2   204  C204       -0.5172
   4425  OP2       76.2920    1.4960    3.9320 O.co2 204  C204       -0.4373
   4426  P         76.7020    2.9520   10.0380 P.3   205  C205        0.2141
   4427  C5'       75.1840    3.1090   12.2060 C.3   205  C205        0.1812
   4428  O5'       75.8110    2.3080   11.1920 O.3   205  C205       -0.3114
   4429  C4'       74.2070    2.2600   12.9800 C.3   205  C205        0.1773
   4430  O4'       73.1420    1.8150   12.0920 O.3   205  C205       -0.3307
   4431  C3'       74.7340    0.9510   13.5540 C.3   205  C205        0.1860
   4432  O3'       75.5400    1.0860   14.7240 O.3   205  C205       -0.3112
   4433  C2'       73.4260    0.2130   13.8090 C.3   205  C205        0.2309
   4434  O2'       72.6600    0.7520   14.8710 O.3   205  C205       -0.2156
   4435  C1'       72.6490    0.5540   12.5350 C.3   205  C205        0.2420
   4436  N1        72.8140   -0.4520   11.4620 N.ar  205  C205       -0.2535
   4437  C2        71.9630   -1.5600   11.4570 C.ar  205  C205        0.3532
   4438  O2        71.0920   -1.6480   12.3330 O.2   205  C205       -0.2443
   4439  N3        72.1060   -2.5020   10.4950 N.ar  205  C205       -0.1739
   4440  C4        73.0680   -2.3760    9.5770 C.ar  205  C205        0.1759
   4441  N4        73.1820   -3.3300    8.6560 N.pl3 205  C205       -0.1070
   4442  C5        73.9540   -1.2610    9.5640 C.ar  205  C205        0.0566
   4443  C6        73.7980   -0.3350   10.5200 C.ar  205  C205        0.0850
   4444  OP1       77.7880    3.7580   10.6530 O.3   205  C205       -0.4373
   4445  OP2       77.0860    1.8040    9.1430 O.co2 205  C205       -0.5172
   4446  P         76.7590    0.1130   15.1630 P.3   206  A206        0.2141
   4447  C5'       76.2550   -2.4010   14.6380 C.3   206  A206        0.1812
   4448  O5'       75.9850   -1.2490   15.4490 O.3   206  A206       -0.3114
   4449  C4'       75.3190   -3.5170   15.0020 C.3   206  A206        0.1773
   4450  O4'       74.3130   -3.6660   13.9730 O.3   206  A206       -0.3307
   4451  C3'       75.9180   -4.9210   15.0260 C.3   206  A206        0.1860
   4452  O3'       76.9870   -5.2010   15.9550 O.3   206  A206       -0.3112
   4453  C2'       74.6480   -5.7700   15.0260 C.3   206  A206        0.2309
   4454  O2'       74.0350   -5.9730   16.2810 O.3   206  A206       -0.2156
   4455  C1'       73.7370   -4.9520   14.0970 C.3   206  A206        0.2408
   4456  N1        71.6810   -8.8140   11.4450 N.ar  206  A206       -0.2040
   4457  C2        71.5180   -8.3880   12.7070 C.ar  206  A206        0.2016
   4458  N3        72.0850   -7.3530   13.3280 N.ar  206  A206       -0.2048
   4459  C4        72.9300   -6.7060   12.5020 C.ar  206  A206        0.1692
   4460  C5        73.2110   -7.0260   11.1840 C.ar  206  A206        0.1518
   4461  C6        72.5410   -8.1450   10.6400 C.ar  206  A206        0.1919
   4462  N6        72.7040   -8.5710    9.3830 N.pl3 206  A206       -0.1054
   4463  N7        74.1320   -6.1320   10.6480 N.ar  206  A206       -0.2193
   4464  C8        74.3840   -5.3080   11.6370 C.ar  206  A206        0.1816
   4465  N9        73.6740   -5.5830   12.7820 N.ar  206  A206       -0.2693
   4466  OP1       77.2480    0.6950   16.4380 O.3   206  A206       -0.4373
   4467  OP2       77.7470   -0.2070   14.0870 O.co2 206  A206       -0.5172
   4468  P         76.9580   -5.8770   17.4250 P.3   207  A207        0.2141
   4469  C5'       75.8650   -8.3380   17.5660 C.3   207  A207        0.1812
   4470  O5'       76.9990   -7.4700   17.2680 O.3   207  A207       -0.3114
   4471  C4'       75.7880   -8.7070   19.0400 C.3   207  A207        0.1773
   4472  O4'       77.0500   -9.2770   19.5140 O.3   207  A207       -0.3307
   4473  C3'       75.4870   -7.5500   20.0020 C.3   207  A207        0.1860
   4474  O3'       74.4430   -7.8630   20.9210 O.3   207  A207       -0.3112
   4475  C2'       76.8420   -7.3200   20.6800 C.3   207  A207        0.2309
   4476  O2'       76.9560   -6.6120   21.9010 O.3   207  A207       -0.2156
   4477  C1'       77.3200   -8.7570   20.8050 C.3   207  A207        0.2408
   4478  N1        81.9060  -10.8940   19.6630 N.ar  207  A207       -0.2040
   4479  C2        80.7030  -11.0000   19.0790 C.ar  207  A207        0.2016
   4480  N3        79.5480  -10.4250   19.4150 N.ar  207  A207       -0.2048
   4481  C4        79.7030   -9.6470   20.5020 C.ar  207  A207        0.1692
   4482  C5        80.8750   -9.4370   21.2110 C.ar  207  A207        0.1518
   4483  C6        82.0280  -10.1050   20.7540 C.ar  207  A207        0.1919
   4484  N6        83.2270   -9.9990   21.3350 N.pl3 207  A207       -0.1054
   4485  N7        80.6560   -8.5720   22.2750 N.ar  207  A207       -0.2193
   4486  C8        79.3800   -8.2830   22.1890 C.ar  207  A207        0.1816
   4487  N9        78.7440   -8.8890   21.1310 N.ar  207  A207       -0.2693
   4488  OP1       75.6440   -5.4860   17.9910 O.2   207  A207       -0.5172
   4489  OP2       78.1940   -5.4540   18.1450 O.co2 207  A207       -0.4373
   4490  P         73.8830   -6.5900   21.7120 P.3   208  A208        0.2141
   4491  C5'       73.7390   -4.1290   20.7490 C.3   208  A208        0.1812
   4492  O5'       73.8050   -5.5430   20.5160 O.3   208  A208       -0.3114
   4493  C4'       73.1480   -3.4300   19.5490 C.3   208  A208        0.1773
   4494  O4'       73.3040   -4.2390   18.3490 O.3   208  A208       -0.3307
   4495  C3'       71.6590   -3.1540   19.6480 C.3   208  A208        0.1860
   4496  O3'       71.5250   -1.9050   20.2970 O.3   208  A208       -0.3112
   4497  C2'       71.2410   -3.1460   18.1880 C.3   208  A208        0.2309
   4498  O2'       71.6990   -2.0120   17.4920 O.3   208  A208       -0.2156
   4499  C1'       72.0810   -4.2900   17.6420 C.3   208  A208        0.2408
   4500  N1        68.1160   -7.4320   16.6220 N.ar  208  A208       -0.2040
   4501  C2        68.3710   -6.1670   16.2610 C.ar  208  A208        0.2016
   4502  N3        69.4210   -5.4020   16.5550 N.ar  208  A208       -0.2048
   4503  C4        70.2920   -6.0710   17.3320 C.ar  208  A208        0.1692
   4504  C5        70.1670   -7.3730   17.7840 C.ar  208  A208        0.1518
   4505  C6        69.0140   -8.0760   17.4000 C.ar  208  A208        0.1919
   4506  N6        68.7610   -9.3340   17.7640 N.pl3 208  A208       -0.1054
   4507  N7        71.2680   -7.7360   18.5470 N.ar  208  A208       -0.2193
   4508  C8        72.0170   -6.6600   18.5500 C.ar  208  A208        0.1816
   4509  N9        71.4830   -5.6110   17.8420 N.ar  208  A208       -0.2693
   4510  OP1       74.9030   -6.1050   22.6670 O.3   208  A208       -0.4373
   4511  OP2       72.4970   -6.8150   22.1890 O.co2 208  A208       -0.5172
   4512  P         70.9320   -2.0220   21.7600 P.3   209  G209        0.2141
   4513  C5'       68.7340   -0.8720   21.1070 C.3   209  G209        0.1812
   4514  O5'       69.3710   -2.0920   21.5010 O.3   209  G209       -0.3114
   4515  C4'       67.8690   -1.0940   19.8970 C.3   209  G209        0.1773
   4516  O4'       68.2910   -2.2870   19.1780 O.3   209  G209       -0.3307
   4517  C3'       66.4090   -1.3800   20.2080 C.3   209  G209        0.1860
   4518  O3'       65.7140   -0.2010   20.6170 O.3   209  G209       -0.3112
   4519  C2'       65.9460   -2.0040   18.9000 C.3   209  G209        0.2309
   4520  O2'       65.7630   -1.0150   17.9220 O.3   209  G209       -0.2156
   4521  C1'       67.1700   -2.8420   18.5090 C.3   209  G209        0.2408
   4522  N1        64.2030   -6.9240   18.1990 N.ar  209  G209       -0.1709
   4523  C2        63.9970   -5.6470   17.7360 C.ar  209  G209        0.2606
   4524  N2        62.8400   -5.4250   17.0870 N.pl3 209  G209       -0.0859
   4525  N3        64.8600   -4.6590   17.8880 N.ar  209  G209       -0.1918
   4526  C4        65.9680   -5.0520   18.5510 C.ar  209  G209        0.1723
   4527  C5        66.2690   -6.2950   19.0640 C.ar  209  G209        0.1748
   4528  C6        65.3300   -7.3560   18.8820 C.ar  209  G209        0.3023
   4529  O6        65.4000   -8.5300   19.2640 O.2   209  G209       -0.2633
   4530  N7        67.5120   -6.2810   19.6930 N.ar  209  G209       -0.2173
   4531  C8        67.9310   -5.0520   19.5510 C.ar  209  G209        0.1817
   4532  N9        67.0430   -4.2560   18.8640 N.ar  209  G209       -0.2693
   4533  OP1       70.9770   -0.7200   22.4780 O.3   209  G209       -0.4373
   4534  OP2       71.5170   -3.2650   22.3530 O.co2 209  G209       -0.5172
   4535  P         65.4560    0.1620   22.1840 P.3   210  U210        0.2141
   4536  C5'       63.0500    0.1090   21.1180 C.3   210  U210        0.1812
   4537  O5'       63.8980   -0.1610   22.2450 O.3   210  U210       -0.3114
   4538  C4'       62.2440   -1.1150   20.7710 C.3   210  U210        0.1773
   4539  O4'       63.0970   -2.2250   20.3950 O.3   210  U210       -0.3307
   4540  C3'       61.4580   -1.7640   21.8920 C.3   210  U210        0.1860
   4541  O3'       60.2760   -1.1110   22.3160 O.3   210  U210       -0.3112
   4542  C2'       61.0470   -3.0630   21.2290 C.3   210  U210        0.2309
   4543  O2'       59.9030   -2.8610   20.4210 O.3   210  U210       -0.2156
   4544  C1'       62.3020   -3.3980   20.4140 C.3   210  U210        0.2420
   4545  N1        63.0660   -4.5290   20.9670 N.ar  210  U210       -0.2534
   4546  C2        62.4730   -5.7750   20.8770 C.ar  210  U210        0.3546
   4547  O2        61.3800   -5.9520   20.3710 O.2   210  U210       -0.2443
   4548  N3        63.2070   -6.8040   21.3930 N.ar  210  U210       -0.1530
   4549  C4        64.4400   -6.7290   21.9750 C.ar  210  U210        0.2846
   4550  O4        64.9740   -7.7580   22.3850 O.2   210  U210       -0.2650
   4551  C5        64.9970   -5.4110   22.0220 C.ar  210  U210        0.0814
   4552  C6        64.3010   -4.3790   21.5360 C.ar  210  U210        0.0870
   4553  OP1       65.4470    1.6270   22.4930 O.2   210  U210       -0.5172
   4554  OP2       66.2440   -0.7850   23.0330 O.co2 210  U210       -0.4373
   4555  P         59.8270   -1.3030   23.8590 P.3   211  U211        0.2141
   4556  C5'       57.7840   -2.8540   23.4970 C.3   211  U211        0.1812
   4557  O5'       59.1340   -2.7320   23.9390 O.3   211  U211       -0.3114
   4558  C4'       57.4690   -4.2860   23.1870 C.3   211  U211        0.1773
   4559  O4'       58.6310   -4.9600   22.6530 O.3   211  U211       -0.3307
   4560  C3'       57.1360   -5.1570   24.3760 C.3   211  U211        0.1860
   4561  O3'       55.8340   -4.8860   24.8570 O.3   211  U211       -0.3112
   4562  C2'       57.2630   -6.5360   23.7590 C.3   211  U211        0.2309
   4563  O2'       56.1910   -6.8060   22.8880 O.3   211  U211       -0.2156
   4564  C1'       58.5030   -6.3510   22.8890 C.3   211  U211        0.2420
   4565  N1        59.7180   -6.8290   23.5590 N.ar  211  U211       -0.2534
   4566  C2        59.8080   -8.1880   23.8240 C.ar  211  U211        0.3546
   4567  O2        58.9390   -8.9890   23.5090 O.2   211  U211       -0.2443
   4568  N3        60.9650   -8.5740   24.4560 N.ar  211  U211       -0.1530
   4569  C4        62.0120   -7.7660   24.8510 C.ar  211  U211        0.2846
   4570  O4        62.9810   -8.2700   25.4200 O.2   211  U211       -0.2650
   4571  C5        61.8420   -6.3750   24.5450 C.ar  211  U211        0.0814
   4572  C6        60.7310   -5.9640   23.9220 C.ar  211  U211        0.0870
   4573  OP1       58.7220   -0.2870   24.0260 O.2   211  U211       -0.5172
   4574  OP2       61.0380   -1.3420   24.7640 O.co2 211  U211       -0.4373
   4575  P         55.6560   -4.7860   26.4520 P.3   212  G212        0.2141
   4576  C5'       54.2930   -7.0520   25.9610 C.3   212  G212        0.1812
   4577  O5'       55.2950   -6.3200   26.7380 O.3   212  G212       -0.3114
   4578  C4'       54.4580   -8.5560   26.1060 C.3   212  G212        0.1773
   4579  O4'       55.7070   -8.9870   25.4700 O.3   212  G212       -0.3307
   4580  C3'       54.6050   -9.1010   27.5230 C.3   212  G212        0.1860
   4581  O3'       53.5030   -9.0960   28.4400 O.3   212  G212       -0.3112
   4582  C2'       55.2510  -10.4510   27.2430 C.3   212  G212        0.2309
   4583  O2'       54.4070  -11.3540   26.5550 O.3   212  G212       -0.2156
   4584  C1'       56.3130  -10.0310   26.2380 C.3   212  G212        0.2408
   4585  N1        60.8040  -11.2170   28.3390 N.ar  212  G212       -0.1709
   4586  C2        59.8340  -12.0500   27.8280 C.ar  212  G212        0.2606
   4587  N2        60.1000  -13.3650   27.8780 N.pl3 212  G212       -0.0859
   4588  N3        58.6920  -11.6250   27.3020 N.ar  212  G212       -0.1918
   4589  C4        58.5920  -10.2750   27.3370 C.ar  212  G212        0.1723
   4590  C5        59.4980   -9.3560   27.8330 C.ar  212  G212        0.1748
   4591  C6        60.7190   -9.8280   28.3940 C.ar  212  G212        0.3023
   4592  O6        61.6460   -9.1720   28.8860 O.2   212  G212       -0.2633
   4593  N7        59.0170   -8.0620   27.6870 N.ar  212  G212       -0.2173
   4594  C8        57.8490   -8.2110   27.1200 C.ar  212  G212        0.1817
   4595  N9        57.5330   -9.5250   26.8680 N.ar  212  G212       -0.2693
   4596  OP1       54.4420   -3.9250   26.5530 O.2   212  G212       -0.5172
   4597  OP2       56.8970   -4.3760   27.1870 O.co2 212  G212       -0.4373
   4598  P         53.8890   -9.1280   30.0320 P.3   213  G213        0.2141
   4599  C5'       53.2050  -11.7150   29.8890 C.3   213  G213        0.1812
   4600  O5'       53.9630  -10.6500   30.5080 O.3   213  G213       -0.3114
   4601  C4'       53.6850  -13.0470   30.4150 C.3   213  G213        0.1773
   4602  O4'       54.9510  -13.3800   29.7720 O.3   213  G213       -0.3307
   4603  C3'       53.9840  -13.0670   31.9130 C.3   213  G213        0.1860
   4604  O3'       52.8450  -13.2300   32.7660 O.3   213  G213       -0.3112
   4605  C2'       55.0990  -14.1080   32.0220 C.3   213  G213        0.2309
   4606  O2'       54.7180  -15.4690   32.1070 O.3   213  G213       -0.2156
   4607  C1'       55.8870  -13.8330   30.7420 C.3   213  G213        0.2408
   4608  N1        60.6830  -12.8500   32.1050 N.ar  213  G213       -0.1709
   4609  C2        60.0120  -14.0480   32.0830 C.ar  213  G213        0.2606
   4610  N2        60.7120  -15.1240   32.4750 N.pl3 213  G213       -0.0859
   4611  N3        58.7510  -14.1830   31.7030 N.ar  213  G213       -0.1918
   4612  C4        58.2010  -13.0010   31.3550 C.ar  213  G213        0.1723
   4613  C5        58.7820  -11.7500   31.3470 C.ar  213  G213        0.1748
   4614  C6        60.1400  -11.6230   31.7390 C.ar  213  G213        0.3023
   4615  O6        60.8360  -10.6010   31.7860 O.2   213  G213       -0.2633
   4616  N7        57.8780  -10.7880   30.9190 N.ar  213  G213       -0.2173
   4617  C8        56.7860  -11.4590   30.6700 C.ar  213  G213        0.1817
   4618  N9        56.9140  -12.8070   30.9100 N.ar  213  G213       -0.2693
   4619  OP1       52.6760   -8.5210   30.6250 O.3   213  G213       -0.4373
   4620  OP2       55.2470   -8.6000   30.4180 O.co2 213  G213       -0.5172
   4621  P         52.6180  -12.2240   34.0210 P.3   214  U214        0.2141
   4622  C5'       52.6370  -14.6050   35.1660 C.3   214  U214        0.1812
   4623  O5'       52.8060  -13.1820   35.2800 O.3   214  U214       -0.3114
   4624  C4'       53.8350  -15.3210   35.7330 C.3   214  U214        0.1773
   4625  O4'       54.9680  -15.1670   34.8360 O.3   214  U214       -0.3307
   4626  C3'       54.3800  -14.7920   37.0500 C.3   214  U214        0.1860
   4627  O3'       53.5680  -15.0440   38.2010 O.3   214  U214       -0.3112
   4628  C2'       55.7810  -15.4010   37.0570 C.3   214  U214        0.2309
   4629  O2'       55.8360  -16.7480   37.4920 O.3   214  U214       -0.2156
   4630  C1'       56.1770  -15.2620   35.5810 C.3   214  U214        0.2420
   4631  N1        57.0000  -14.0700   35.3060 N.ar  214  U214       -0.2534
   4632  C2        58.3750  -14.1970   35.4180 C.ar  214  U214        0.3546
   4633  O2        58.9240  -15.2450   35.7120 O.2   214  U214       -0.2443
   4634  N3        59.0820  -13.0470   35.1660 N.ar  214  U214       -0.1530
   4635  C4        58.5740  -11.8100   34.8260 C.ar  214  U214        0.2846
   4636  O4        59.3460  -10.8700   34.6380 O.2   214  U214       -0.2650
   4637  C5        57.1450  -11.7580   34.7330 C.ar  214  U214        0.0814
   4638  C6        56.4240  -12.8600   34.9750 C.ar  214  U214        0.0870
   4639  OP1       51.2330  -11.6580   33.9420 O.2   214  U214       -0.5172
   4640  OP2       53.7740  -11.2970   34.1330 O.co2 214  U214       -0.4373
   4641  P         53.4830  -13.9240   39.3690 P.3   215  A215        0.2141
   4642  C5'       55.4080  -15.0210   40.8300 C.3   215  A215        0.1812
   4643  O5'       54.9700  -13.9500   39.9590 O.3   215  A215       -0.3114
   4644  C4'       56.9170  -15.0510   41.0090 C.3   215  A215        0.1773
   4645  O4'       57.6060  -14.8970   39.7350 O.3   215  A215       -0.3307
   4646  C3'       57.5590  -13.9770   41.8860 C.3   215  A215        0.1860
   4647  O3'       57.3610  -14.0950   43.2980 O.3   215  A215       -0.3112
   4648  C2'       59.0180  -14.0960   41.4560 C.3   215  A215        0.2309
   4649  O2'       59.7230  -15.2260   41.9300 O.3   215  A215       -0.2156
   4650  C1'       58.8540  -14.2420   39.9460 C.3   215  A215        0.2408
   4651  N1        61.5560  -10.0580   38.6780 N.ar  215  A215       -0.2040
   4652  C2        61.8880  -11.1860   39.3210 C.ar  215  A215        0.2016
   4653  N3        61.1310  -12.2420   39.6180 N.ar  215  A215       -0.2048
   4654  C4        59.8730  -12.0620   39.1770 C.ar  215  A215        0.1692
   4655  C5        59.3800  -10.9580   38.5020 C.ar  215  A215        0.1518
   4656  C6        60.2840   -9.9100   38.2470 C.ar  215  A215        0.1919
   4657  N6        59.9540   -8.7870   37.6060 N.pl3 215  A215       -0.1054
   4658  N7        58.0350  -11.1270   38.2000 N.ar  215  A215       -0.2193
   4659  C8        57.7490  -12.3080   38.6930 C.ar  215  A215        0.1816
   4660  N9        58.8180  -12.9370   39.2850 N.ar  215  A215       -0.2693
   4661  OP1       52.5600  -14.4380   40.4140 O.3   215  A215       -0.4373
   4662  OP2       53.1910  -12.6040   38.7380 O.co2 215  A215       -0.5172
   4663  P         57.1450  -12.8050   44.2610 P.3   216  C216        0.2141
   4664  C5'       58.7560  -10.7580   44.8020 C.3   216  C216        0.1812
   4665  O5'       58.2330  -11.7120   43.8460 O.3   216  C216       -0.3114
   4666  C4'       60.1840  -11.0960   45.1670 C.3   216  C216        0.1773
   4667  O4'       60.9350  -11.3780   43.9540 O.3   216  C216       -0.3307
   4668  C3'       60.9770   -9.9930   45.8550 C.3   216  C216        0.1860
   4669  O3'       60.8050   -9.9960   47.2650 O.3   216  C216       -0.3112
   4670  C2'       62.4130  -10.3650   45.5100 C.3   216  C216        0.2309
   4671  O2'       62.9650  -11.3810   46.3190 O.3   216  C216       -0.2156
   4672  C1'       62.2590  -10.8830   44.0810 C.3   216  C216        0.2420
   4673  N1        62.4760   -9.8430   43.0590 N.ar  216  C216       -0.2535
   4674  C2        63.7860   -9.4240   42.7920 C.ar  216  C216        0.3532
   4675  O2        64.7240   -9.9440   43.4200 O.2   216  C216       -0.2443
   4676  N3        63.9960   -8.4660   41.8590 N.ar  216  C216       -0.1739
   4677  C4        62.9600   -7.9340   41.2030 C.ar  216  C216        0.1759
   4678  N4        63.2140   -6.9940   40.2900 N.pl3 216  C216       -0.1070
   4679  C5        61.6170   -8.3400   41.4590 C.ar  216  C216        0.0566
   4680  C6        61.4230   -9.2870   42.3860 C.ar  216  C216        0.0850
   4681  OP1       57.4980  -13.2430   45.6380 O.3   216  C216       -0.4373
   4682  OP2       55.7850  -12.2590   43.9940 O.co2 216  C216       -0.5172
   4683  P         61.0050   -8.6590   48.1290 P.3   217  A217        0.2141
   4684  C5'       63.2140   -7.3780   48.8380 C.3   217  A217        0.1812
   4685  O5'       62.4690   -8.0980   47.8280 O.3   217  A217       -0.3114
   4686  C4'       63.9830   -6.2140   48.2440 C.3   217  A217        0.1773
   4687  O4'       64.3890   -6.5240   46.8800 O.3   217  A217       -0.3307
   4688  C3'       63.2350   -4.8860   48.1240 C.3   217  A217        0.1860
   4689  O3'       63.1780   -4.1040   49.3200 O.3   217  A217       -0.3112
   4690  C2'       64.0320   -4.1820   47.0300 C.3   217  A217        0.2309
   4691  O2'       65.2310   -3.5760   47.4770 O.3   217  A217       -0.2156
   4692  C1'       64.3300   -5.3470   46.0840 C.3   217  A217        0.2408
   4693  N1        62.6170   -3.8670   41.4580 N.ar  217  A217       -0.2040
   4694  C2        63.6770   -3.4940   42.1860 C.ar  217  A217        0.2016
   4695  N3        64.0670   -3.9190   43.3860 N.ar  217  A217       -0.2048
   4696  C4        63.2210   -4.8520   43.8570 C.ar  217  A217        0.1692
   4697  C5        62.0890   -5.3370   43.2270 C.ar  217  A217        0.1518
   4698  C6        61.7840   -4.8030   41.9630 C.ar  217  A217        0.1919
   4699  N6        60.7290   -5.1780   41.2360 N.pl3 217  A217       -0.1054
   4700  N7        61.4610   -6.2930   44.0130 N.ar  217  A217       -0.2193
   4701  C8        62.2140   -6.3650   45.0830 C.ar  217  A217        0.1816
   4702  N9        63.3000   -5.5240   45.0540 N.ar  217  A217       -0.2693
   4703  OP1       60.9590   -9.0630   49.5600 O.3   217  A217       -0.4373
   4704  OP2       60.0090   -7.6850   47.6130 O.co2 217  A217       -0.5172
   4705  P         61.7850   -3.6570   50.0180 P.3   218  G218        0.2141
   4706  C5'       61.0210   -1.3670   48.8780 C.3   218  G218        0.1812
   4707  O5'       61.7110   -2.0660   49.9380 O.3   218  G218       -0.3114
   4708  C4'       62.0070   -0.4830   48.1550 C.3   218  G218        0.1773
   4709  O4'       62.6550   -1.2530   47.1050 O.3   218  G218       -0.3307
   4710  C3'       61.4460    0.7400   47.4430 C.3   218  G218        0.1860
   4711  O3'       61.2620    1.8580   48.3040 O.3   218  G218       -0.3112
   4712  C2'       62.5210    1.0000   46.3910 C.3   218  G218        0.2309
   4713  O2'       63.6620    1.7070   46.8390 O.3   218  G218       -0.2156
   4714  C1'       62.8820   -0.4280   45.9760 C.3   218  G218        0.2408
   4715  N1        62.1060   -0.3280   40.9670 N.ar  218  G218       -0.1709
   4716  C2        63.0980    0.2650   41.7090 C.ar  218  G218        0.2606
   4717  N2        64.0020    0.9840   41.0270 N.pl3 218  G218       -0.0859
   4718  N3        63.1980    0.1620   43.0230 N.ar  218  G218       -0.1918
   4719  C4        62.2120   -0.5980   43.5460 C.ar  218  G218        0.1723
   4720  C5        61.1760   -1.2330   42.8940 C.ar  218  G218        0.1748
   4721  C6        61.0770   -1.1100   41.4850 C.ar  218  G218        0.3023
   4722  O6        60.2300   -1.5950   40.7260 O.2   218  G218       -0.2633
   4723  N7        60.3690   -1.9140   43.7950 N.ar  218  G218       -0.2173
   4724  C8        60.9190   -1.6860   44.9560 C.ar  218  G218        0.1817
   4725  N9        62.0470   -0.9040   44.8750 N.ar  218  G218       -0.2693
   4726  OP1       61.9710   -3.9760   51.4580 O.3   218  G218       -0.4373
   4727  OP2       60.6030   -4.2010   49.2930 O.co2 218  G218       -0.5172
   4728  P         60.1150    2.9710   48.0690 P.3   219  A219        0.2141
   4729  C5'       61.5590    4.8340   46.8340 C.3   219  A219        0.1812
   4730  O5'       60.5060    3.8430   46.7910 O.3   219  A219       -0.3114
   4731  C4'       61.6830    5.5430   45.5010 C.3   219  A219        0.1773
   4732  O4'       62.1200    4.6000   44.4850 O.3   219  A219       -0.3307
   4733  C3'       60.3980    6.1690   44.9660 C.3   219  A219        0.1860
   4734  O3'       60.3080    7.5220   45.3910 O.3   219  A219       -0.3112
   4735  C2'       60.5640    6.0850   43.4470 C.3   219  A219        0.2309
   4736  O2'       61.1490    7.2000   42.8030 O.3   219  A219       -0.2156
   4737  C1'       61.4140    4.8220   43.2750 C.3   219  A219        0.2408
   4738  N1        57.8740    2.6360   40.2170 N.ar  219  A219       -0.2040
   4739  C2        58.4210    3.8600   40.2210 C.ar  219  A219        0.2016
   4740  N3        59.3400    4.3700   41.0410 N.ar  219  A219       -0.2048
   4741  C4        59.7130    3.4610   41.9600 C.ar  219  A219        0.1692
   4742  C5        59.2400    2.1660   42.0840 C.ar  219  A219        0.1518
   4743  C6        58.2720    1.7470   41.1550 C.ar  219  A219        0.1919
   4744  N6        57.7310    0.5270   41.1540 N.pl3 219  A219       -0.1054
   4745  N7        59.8480    1.5210   43.1510 N.ar  219  A219       -0.2193
   4746  C8        60.6640    2.4230   43.6390 C.ar  219  A219        0.1816
   4747  N9        60.6330    3.6210   42.9690 N.ar  219  A219       -0.2693
   4748  OP1       60.2210    3.8600   49.2540 O.3   219  A219       -0.4373
   4749  OP2       58.8190    2.3040   47.7690 O.co2 219  A219       -0.5172
   4750  P         58.9860    8.0670   46.1030 P.3   220  G220        0.2141
   4751  C5'       58.8060    9.8450   44.1640 C.3   220  G220        0.1812
   4752  O5'       58.1690    8.8350   44.9680 O.3   220  G220       -0.3114
   4753  C4'       58.1260    9.9370   42.8190 C.3   220  G220        0.1773
   4754  O4'       58.3410    8.7060   42.0730 O.3   220  G220       -0.3307
   4755  C3'       56.6130   10.0800   42.8720 C.3   220  G220        0.1860
   4756  O3'       56.1780   11.4120   43.1000 O.3   220  G220       -0.3112
   4757  C2'       56.1810    9.5460   41.5110 C.3   220  G220        0.2309
   4758  O2'       56.1410   10.4880   40.4540 O.3   220  G220       -0.2156
   4759  C1'       57.1820    8.4060   41.3060 C.3   220  G220        0.2408
   4760  N1        53.9460    4.6710   40.1960 N.ar  220  G220       -0.1709
   4761  C2        54.2120    5.8330   39.5130 C.ar  220  G220        0.2606
   4762  N2        53.5160    6.0330   38.3840 N.pl3 220  G220       -0.0859
   4763  N3        55.0930    6.7360   39.9090 N.ar  220  G220       -0.1918
   4764  C4        55.6880    6.3870   41.0690 C.ar  220  G220        0.1723
   4765  C5        55.4940    5.2540   41.8310 C.ar  220  G220        0.1748
   4766  C6        54.5510    4.2850   41.3870 C.ar  220  G220        0.3023
   4767  O6        54.2290    3.2180   41.9220 O.2   220  G220       -0.2633
   4768  N7        56.3090    5.2710   42.9550 N.ar  220  G220       -0.2173
   4769  C8        56.9710    6.3930   42.8580 C.ar  220  G220        0.1817
   4770  N9        56.6470    7.1140   41.7330 N.ar  220  G220       -0.2693
   4771  OP1       59.3650    9.1080   47.0910 O.3   220  G220       -0.4373
   4772  OP2       58.2670    6.8480   46.5600 O.co2 220  G220       -0.5172
   4773  P         54.9900   11.5670   44.1530 P.3   221  U221        0.2141
   4774  C5'       52.5890   11.2700   43.1320 C.3   221  U221        0.1812
   4775  O5'       53.7910   12.0440   43.2210 O.3   221  U221       -0.3114
   4776  C4'       52.2160   11.0140   41.6890 C.3   221  U221        0.1773
   4777  O4'       52.9780    9.8880   41.1620 O.3   221  U221       -0.3307
   4778  C3'       50.7540   10.6500   41.5180 C.3   221  U221        0.1860
   4779  O3'       50.0610   11.8290   41.1520 O.3   221  U221       -0.3112
   4780  C2'       50.7660    9.6350   40.3900 C.3   221  U221        0.2309
   4781  O2'       50.6910   10.3530   39.1820 O.3   221  U221       -0.2156
   4782  C1'       52.0980    8.9210   40.6190 C.3   221  U221        0.2420
   4783  N1        52.0390    7.7590   41.5280 N.ar  221  U221       -0.2534
   4784  C2        51.2100    6.7030   41.1860 C.ar  221  U221        0.3546
   4785  O2        50.5200    6.6990   40.1820 O.2   221  U221       -0.2443
   4786  N3        51.2180    5.6510   42.0700 N.ar  221  U221       -0.1530
   4787  C4        51.9530    5.5380   43.2350 C.ar  221  U221        0.2846
   4788  O4        51.8450    4.5210   43.9300 O.2   221  U221       -0.2650
   4789  C5        52.7920    6.6640   43.5160 C.ar  221  U221        0.0814
   4790  C6        52.8150    7.7050   42.6680 C.ar  221  U221        0.0870
   4791  OP1       55.2570   12.7250   45.0390 O.3   221  U221       -0.4373
   4792  OP2       54.7710   10.2200   44.7600 O.co2 221  U221       -0.5172
   4793  P         49.2200   12.4670   42.3400 P.3   222  A222        0.2141
   4794  C5'       48.0440   10.9280   44.2120 C.3   222  A222        0.1812
   4795  O5'       49.1960   11.2630   43.3960 O.3   222  A222       -0.3114
   4796  C4'       46.7910   10.7240   43.3720 C.3   222  A222        0.1773
   4797  O4'       46.5900    9.3070   43.1020 O.3   222  A222       -0.3307
   4798  C3'       45.4770   11.2020   43.9940 C.3   222  A222        0.1860
   4799  O3'       44.6110   11.6900   42.9700 O.3   222  A222       -0.3112
   4800  C2'       44.9900    9.9530   44.7340 C.3   222  A222        0.2309
   4801  O2'       43.6140    9.8560   45.0650 O.3   222  A222       -0.2156
   4802  C1'       45.4410    8.8390   43.7870 C.3   222  A222        0.2408
   4803  N1        44.4890    3.8410   44.6090 N.ar  222  A222       -0.2040
   4804  C2        43.9030    4.7460   43.8160 C.ar  222  A222        0.2016
   4805  N3        44.1930    6.0350   43.6480 N.ar  222  A222       -0.2048
   4806  C4        45.2360    6.3900   44.4170 C.ar  222  A222        0.1692
   4807  C5        45.9400    5.5750   45.2850 C.ar  222  A222        0.1518
   4808  C6        45.5300    4.2320   45.3760 C.ar  222  A222        0.1919
   4809  N6        46.1040    3.3360   46.1840 N.pl3 222  A222       -0.1054
   4810  N7        46.9450    6.2900   45.9230 N.ar  222  A222       -0.2193
   4811  C8        46.8340    7.4980   45.4280 C.ar  222  A222        0.1816
   4812  N9        45.8200    7.6300   44.5110 N.ar  222  A222       -0.2693
   4813  OP1       47.8960   12.8380   41.7600 O.2   222  A222       -0.5172
   4814  OP2       50.0920   13.5250   42.9010 O.co2 222  A222       -0.4373
   4815  P         43.3560   12.6360   43.2740 P.3   223  A223        0.2141
   4816  C5'       41.3670   12.2060   44.9730 C.3   223  A223        0.1812
   4817  O5'       42.4450   11.6900   44.1760 O.3   223  A223       -0.3114
   4818  C4'       40.0280   11.9250   44.3190 C.3   223  A223        0.1773
   4819  O4'       39.6440   13.0560   43.4940 O.3   223  A223       -0.3307
   4820  C3'       39.9110   10.6900   43.4130 C.3   223  A223        0.1860
   4821  O3'       38.6050   10.1440   43.5080 O.3   223  A223       -0.3112
   4822  C2'       39.8130   11.2900   42.0220 C.3   223  A223        0.2309
   4823  O2'       39.0420   10.4350   41.2050 O.3   223  A223       -0.2156
   4824  C1'       39.0500   12.5750   42.3200 C.3   223  A223        0.2408
   4825  N1        36.5140   15.4860   38.9370 N.ar  223  A223       -0.2040
   4826  C2        36.1030   14.5670   39.8210 C.ar  223  A223        0.2016
   4827  N3        36.8200   13.8430   40.6790 N.ar  223  A223       -0.2048
   4828  C4        38.1280   14.1430   40.5760 C.ar  223  A223        0.1692
   4829  C5        38.7030   15.0620   39.7160 C.ar  223  A223        0.1518
   4830  C6        37.8360   15.7610   38.8570 C.ar  223  A223        0.1919
   4831  N6        38.2480   16.6760   37.9760 N.pl3 223  A223       -0.1054
   4832  N7        40.0800   15.1020   39.8890 N.ar  223  A223       -0.2193
   4833  C8        40.3040   14.2210   40.8330 C.ar  223  A223        0.1816
   4834  N9        39.1680   13.6010   41.2930 N.ar  223  A223       -0.2693
   4835  OP1       42.6770   12.8930   41.9760 O.2   223  A223       -0.5172
   4836  OP2       43.8170   13.7740   44.0960 O.co2 223  A223       -0.4373
   4837  P         38.3230    8.6820   44.0340 P.3   224  A224        0.2141
   4838  C5'       39.2810    6.8070   42.4830 C.3   224  A224        0.1812
   4839  O5'       38.2800    7.8060   42.7110 O.3   224  A224       -0.3114
   4840  C4'       38.7750    5.4440   42.8880 C.3   224  A224        0.1773
   4841  O4'       39.8220    4.7690   43.6400 O.3   224  A224       -0.3307
   4842  C3'       37.5320    5.3900   43.7910 C.3   224  A224        0.1860
   4843  O3'       36.6020    4.3860   43.3810 O.3   224  A224       -0.3112
   4844  C2'       38.1120    4.8920   45.1170 C.3   224  A224        0.2309
   4845  O2'       37.2250    4.1730   45.9420 O.3   224  A224       -0.2156
   4846  C1'       39.2020    3.9640   44.6040 C.3   224  A224        0.2408
   4847  N1        43.2450    5.1520   47.5700 N.ar  224  A224       -0.2040
   4848  C2        42.5170    5.8790   46.7090 C.ar  224  A224        0.2016
   4849  N3        41.4850    5.5070   45.9530 N.ar  224  A224       -0.2048
   4850  C4        41.2020    4.2080   46.1470 C.ar  224  A224        0.1692
   4851  C5        41.8600    3.3300   46.9940 C.ar  224  A224        0.1518
   4852  C6        42.9370    3.8450   47.7340 C.ar  224  A224        0.1919
   4853  N6        43.6660    3.1160   48.5810 N.pl3 224  A224       -0.1054
   4854  N7        41.2890    2.0670   46.9340 N.ar  224  A224       -0.2193
   4855  C8        40.3120    2.2070   46.0720 C.ar  224  A224        0.1816
   4856  N9        40.1910    3.4820   45.5700 N.ar  224  A224       -0.2693
   4857  OP1       36.9670    8.6860   44.6510 O.2   224  A224       -0.5172
   4858  OP2       39.5080    8.2500   44.8270 O.co2 224  A224       -0.4373
   4859  P         35.5170    4.3800   42.1900 P.3   225  U225        0.2141
   4860  C5'       36.2380    2.1950   40.9550 C.3   225  U225        0.1812
   4861  O5'       36.3410    3.6140   41.0780 O.3   225  U225       -0.3114
   4862  C4'       37.5440    1.5980   41.3700 C.3   225  U225        0.1773
   4863  O4'       37.6220    1.6470   42.8200 O.3   225  U225       -0.3307
   4864  C3'       37.7410    0.1300   41.0190 C.3   225  U225        0.1860
   4865  O3'       38.2390   -0.0540   39.7000 O.3   225  U225       -0.3112
   4866  C2'       38.7240   -0.2950   42.1000 C.3   225  U225        0.2309
   4867  O2'       39.9770    0.3100   41.8720 O.3   225  U225       -0.2156
   4868  C1'       38.1210    0.4090   43.3120 C.3   225  U225        0.2420
   4869  N1        37.0100   -0.3320   43.9330 N.ar  225  U225       -0.2534
   4870  C2        37.3260   -1.4140   44.7330 C.ar  225  U225        0.3546
   4871  O2        38.4740   -1.7740   44.9370 O.2   225  U225       -0.2443
   4872  N3        36.2460   -2.0610   45.2810 N.ar  225  U225       -0.1530
   4873  C4        34.9130   -1.7510   45.1170 C.ar  225  U225        0.2846
   4874  O4        34.0560   -2.4300   45.6850 O.2   225  U225       -0.2650
   4875  C5        34.6670   -0.6250   44.2690 C.ar  225  U225        0.0814
   4876  C6        35.6980    0.0320   43.7220 C.ar  225  U225        0.0870
   4877  OP1       35.2740    5.7560   41.6880 O.2   225  U225       -0.5172
   4878  OP2       34.3780    3.4390   42.4640 O.co2 225  U225       -0.4373
   4879  P         37.8940   -1.3540   38.8280 P.3   226  G226        0.2141
   4880  C5'       40.1590   -2.3650   39.7150 C.3   226  G226        0.1812
   4881  O5'       38.7240   -2.4270   39.6670 O.3   226  G226       -0.3114
   4882  C4'       40.7250   -3.5610   40.4320 C.3   226  G226        0.1773
   4883  O4'       40.4780   -3.4730   41.8600 O.3   226  G226       -0.3307
   4884  C3'       40.1140   -4.9000   40.0830 C.3   226  G226        0.1860
   4885  O3'       40.5680   -5.3710   38.8310 O.3   226  G226       -0.3112
   4886  C2'       40.6070   -5.7410   41.2450 C.3   226  G226        0.2309
   4887  O2'       41.9820   -6.0470   41.1410 O.3   226  G226       -0.2156
   4888  C1'       40.3420   -4.7820   42.3990 C.3   226  G226        0.2408
   4889  N1        37.3300   -7.4250   45.5090 N.ar  226  G226       -0.1709
   4890  C2        38.6820   -7.5390   45.2960 C.ar  226  G226        0.2606
   4891  N2        39.3150   -8.4790   46.0100 N.pl3 226  G226       -0.0859
   4892  N3        39.3650   -6.7790   44.4560 N.ar  226  G226       -0.1918
   4893  C4        38.5730   -5.8830   43.8290 C.ar  226  G226        0.1723
   4894  C5        37.2110   -5.7010   43.9550 C.ar  226  G226        0.1748
   4895  C6        36.4930   -6.5180   44.8670 C.ar  226  G226        0.3023
   4896  O6        35.2850   -6.5010   45.1300 O.2   226  G226       -0.2633
   4897  N7        36.7700   -4.6860   43.1170 N.ar  226  G226       -0.2173
   4898  C8        37.8490   -4.2840   42.5000 C.ar  226  G226        0.1817
   4899  N9        38.9820   -4.9510   42.9040 N.ar  226  G226       -0.2693
   4900  OP1       38.5050   -1.1100   37.5070 O.2   226  G226       -0.5172
   4901  OP2       36.4460   -1.6640   38.8740 O.co2 226  G226       -0.4373
   4902  P         40.2400   -6.8620   38.4130 P.3   227  A227        0.2141
   4903  C5'       41.7390   -8.7050   39.5480 C.3   227  A227        0.1812
   4904  O5'       40.6750   -7.7540   39.6600 O.3   227  A227       -0.3114
   4905  C4'       41.5210   -9.8090   40.5460 C.3   227  A227        0.1773
   4906  O4'       40.9530   -9.2690   41.7720 O.3   227  A227       -0.3307
   4907  C3'       40.5150  -10.8770   40.1450 C.3   227  A227        0.1860
   4908  O3'       41.0840  -11.8190   39.2480 O.3   227  A227       -0.3112
   4909  C2'       40.1730  -11.4940   41.4950 C.3   227  A227        0.2309
   4910  O2'       41.1370  -12.4330   41.9330 O.3   227  A227       -0.2156
   4911  C1'       40.1440  -10.2550   42.3950 C.3   227  A227        0.2408
   4912  N1        35.4600  -10.8020   44.4830 N.ar  227  A227       -0.2040
   4913  C2        36.5760  -11.5300   44.5910 C.ar  227  A227        0.2016
   4914  N3        37.7680  -11.3360   44.0280 N.ar  227  A227       -0.2048
   4915  C4        37.7530  -10.2380   43.2540 C.ar  227  A227        0.1692
   4916  C5        36.6770   -9.4020   43.0260 C.ar  227  A227        0.1518
   4917  C6        35.4750   -9.7160   43.6820 C.ar  227  A227        0.1919
   4918  N6        34.3550   -9.0050   43.5530 N.pl3 227  A227       -0.1054
   4919  N7        37.0280   -8.3780   42.1610 N.ar  227  A227       -0.2193
   4920  C8        38.2840   -8.6200   41.8780 C.ar  227  A227        0.1816
   4921  N9        38.7940   -9.7160   42.5230 N.ar  227  A227       -0.2693
   4922  OP1       41.1710   -7.1050   37.2880 O.2   227  A227       -0.5172
   4923  OP2       38.7770   -6.9570   38.2050 O.co2 227  A227       -0.4373
   4924  P         40.0590  -12.4170   38.1870 P.3   228  A228        0.2141
   4925  C5'       39.7710  -14.4400   39.8640 C.3   228  A228        0.1812
   4926  O5'       39.1710  -13.3320   39.1480 O.3   228  A228       -0.3114
   4927  C4'       38.7330  -15.3050   40.5500 C.3   228  A228        0.1773
   4928  O4'       38.1910  -14.6330   41.7230 O.3   228  A228       -0.3307
   4929  C3'       37.5020  -15.6750   39.7320 C.3   228  A228        0.1860
   4930  O3'       37.7450  -16.7570   38.8440 O.3   228  A228       -0.3112
   4931  C2'       36.5080  -16.0430   40.8260 C.3   228  A228        0.2309
   4932  O2'       36.6400  -17.3620   41.3020 O.3   228  A228       -0.2156
   4933  C1'       36.8350  -15.0090   41.9010 C.3   228  A228        0.2408
   4934  N1        32.4410  -12.7410   43.2630 N.ar  228  A228       -0.2040
   4935  C2        33.0040  -13.9030   43.6100 C.ar  228  A228        0.2016
   4936  N3        34.1570  -14.4340   43.2130 N.ar  228  A228       -0.2048
   4937  C4        34.7810  -13.6190   42.3490 C.ar  228  A228        0.1692
   4938  C5        34.3280  -12.3990   41.8850 C.ar  228  A228        0.1518
   4939  C6        33.0900  -11.9460   42.3870 C.ar  228  A228        0.1919
   4940  N6        32.5280  -10.7870   42.0440 N.pl3 228  A228       -0.1054
   4941  N7        35.2330  -11.8480   40.9880 N.ar  228  A228       -0.2193
   4942  C8        36.1930  -12.7380   40.9240 C.ar  228  A228        0.1816
   4943  N9        35.9980  -13.8210   41.7440 N.ar  228  A228       -0.2693
   4944  OP1       40.8800  -13.1790   37.2130 O.2   228  A228       -0.5172
   4945  OP2       39.1770  -11.3440   37.6800 O.co2 228  A228       -0.4373
   4946  P         36.5320  -17.3510   37.9780 P.3   229  G229        0.2141
   4947  C5'       34.8540  -18.8910   39.3240 C.3   229  G229        0.1812
   4948  O5'       35.3420  -17.5630   39.0300 O.3   229  G229       -0.3114
   4949  C4'       33.6420  -18.8780   40.2320 C.3   229  G229        0.1773
   4950  O4'       33.6570  -17.7310   41.1200 O.3   229  G229       -0.3307
   4951  C3'       32.2850  -18.8120   39.5540 C.3   229  G229        0.1860
   4952  O3'       31.8990  -20.0920   39.0610 O.3   229  G229       -0.3112
   4953  C2'       31.4000  -18.3030   40.6850 C.3   229  G229        0.2309
   4954  O2'       31.0190  -19.2530   41.6500 O.3   229  G229       -0.2156
   4955  C1'       32.3270  -17.2970   41.3640 C.3   229  G229        0.2408
   4956  N1        29.2570  -13.2890   40.8110 N.ar  229  G229       -0.1709
   4957  C2        29.0340  -14.4690   41.4780 C.ar  229  G229        0.2606
   4958  N2        27.8430  -14.5890   42.0880 N.pl3 229  G229       -0.0859
   4959  N3        29.9170  -15.4520   41.5520 N.ar  229  G229       -0.1918
   4960  C4        31.0620  -15.1530   40.9020 C.ar  229  G229        0.1723
   4961  C5        31.3780  -14.0110   40.1990 C.ar  229  G229        0.1748
   4962  C6        30.4230  -12.9660   40.1250 C.ar  229  G229        0.3023
   4963  O6        30.5130  -11.8790   39.5420 O.2   229  G229       -0.2633
   4964  N7        32.6560  -14.1000   39.6640 N.ar  229  G229       -0.2173
   4965  C8        33.0830  -15.2730   40.0410 C.ar  229  G229        0.1817
   4966  N9        32.1710  -15.9580   40.8080 N.ar  229  G229       -0.2693
   4967  OP1       37.0580  -18.6910   37.5790 O.3   229  G229       -0.4373
   4968  OP2       36.1220  -16.3910   36.8930 O.co2 229  G229       -0.5172
   4969  P         31.6830  -20.3260   37.4740 P.3   230  C230        0.2141
   4970  C5'       29.2940  -20.9940   38.3860 C.3   230  C230        0.1812
   4971  O5'       30.0940  -20.1740   37.5170 O.3   230  C230       -0.3114
   4972  C4'       27.9860  -20.3120   38.6840 C.3   230  C230        0.1773
   4973  O4'       28.2300  -19.1630   39.5480 O.3   230  C230       -0.3307
   4974  C3'       27.2530  -19.7250   37.4870 C.3   230  C230        0.1860
   4975  O3'       26.4980  -20.6510   36.7060 O.3   230  C230       -0.3112
   4976  C2'       26.3910  -18.6630   38.1570 C.3   230  C230        0.2309
   4977  O2'       25.2590  -19.1750   38.8230 O.3   230  C230       -0.2156
   4978  C1'       27.3760  -18.0870   39.1730 C.3   230  C230        0.2420
   4979  N1        28.1890  -17.0090   38.5750 N.ar  230  C230       -0.2535
   4980  C2        27.6340  -15.7300   38.4620 C.ar  230  C230        0.3532
   4981  O2        26.4950  -15.5320   38.9010 O.2   230  C230       -0.2443
   4982  N3        28.3530  -14.7460   37.8750 N.ar  230  C230       -0.1739
   4983  C4        29.5750  -15.0060   37.4010 C.ar  230  C230        0.1759
   4984  N4        30.2490  -14.0090   36.8270 N.pl3 230  C230       -0.1070
   4985  C5        30.1580  -16.3030   37.4900 C.ar  230  C230        0.0566
   4986  C6        29.4320  -17.2680   38.0670 C.ar  230  C230        0.0850
   4987  OP1       31.9850  -21.7160   37.0450 O.3   230  C230       -0.4373
   4988  OP2       32.3300  -19.2270   36.7070 O.co2 230  C230       -0.5172
   4989  P         26.5310  -20.6020   35.0780 P.3   231  A231        0.2141
   4990  C5'       24.1200  -19.6880   35.6680 C.3   231  A231        0.1812
   4991  O5'       25.1630  -19.8720   34.7050 O.3   231  A231       -0.3114
   4992  C4'       23.4940  -18.3360   35.4560 C.3   231  A231        0.1773
   4993  O4'       24.2170  -17.3220   36.2030 O.3   231  A231       -0.3307
   4994  C3'       23.5420  -17.7860   34.0360 C.3   231  A231        0.1860
   4995  O3'       22.5840  -18.4120   33.1890 O.3   231  A231       -0.3112
   4996  C2'       23.2580  -16.3110   34.2860 C.3   231  A231        0.2309
   4997  O2'       21.9150  -16.0600   34.6240 O.3   231  A231       -0.2156
   4998  C1'       24.0550  -16.0650   35.5640 C.3   231  A231        0.2408
   4999  N1        26.6310  -11.8960   34.0790 N.ar  231  A231       -0.2040
   5000  C2        25.3320  -12.1230   34.3030 C.ar  231  A231        0.2016
   5001  N3        24.7260  -13.2420   34.6910 N.ar  231  A231       -0.2048
   5002  C4        25.6190  -14.2300   34.8520 C.ar  231  A231        0.1692
   5003  C5        26.9860  -14.1500   34.6660 C.ar  231  A231        0.1518
   5004  C6        27.5020  -12.9080   34.2570 C.ar  231  A231        0.1919
   5005  N6        28.7950  -12.6810   34.0300 N.pl3 231  A231       -0.1054
   5006  N7        27.5910  -15.3670   34.9480 N.ar  231  A231       -0.2193
   5007  C8        26.5910  -16.1440   35.2850 C.ar  231  A231        0.1816
   5008  N9        25.3720  -15.5160   35.2660 N.ar  231  A231       -0.2693
   5009  OP1       26.4120  -21.9750   34.5100 O.2   231  A231       -0.5172
   5010  OP2       27.6600  -19.7340   34.6160 O.co2 231  A231       -0.4373
   5011  P         22.4680  -18.0760   31.6180 P.3   232  G232        0.2141
   5012  C5'       21.6000  -15.9170   30.4100 C.3   232  G232        0.1812
   5013  O5'       21.8370  -16.6150   31.6440 O.3   232  G232       -0.3114
   5014  C4'       21.3840  -14.4430   30.6540 C.3   232  G232        0.1773
   5015  O4'       22.2210  -13.9980   31.7550 O.3   232  G232       -0.3307
   5016  C3'       21.7710  -13.5490   29.4870 C.3   232  G232        0.1860
   5017  O3'       20.6940  -13.3940   28.5830 O.3   232  G232       -0.3112
   5018  C2'       22.0840  -12.2380   30.1800 C.3   232  G232        0.2309
   5019  O2'       20.9000  -11.5530   30.5100 O.3   232  G232       -0.2156
   5020  C1'       22.7920  -12.7380   31.4380 C.3   232  G232        0.2408
   5021  N1        27.1490  -10.3710   30.4240 N.ar  232  G232       -0.1709
   5022  C2        25.8770   -9.8690   30.4940 C.ar  232  G232        0.2606
   5023  N2        25.7430   -8.5540   30.2690 N.pl3 232  G232       -0.0859
   5024  N3        24.8120  -10.5970   30.7650 N.ar  232  G232       -0.1918
   5025  C4        25.1240  -11.8910   30.9600 C.ar  232  G232        0.1723
   5026  C5        26.3600  -12.4940   30.9150 C.ar  232  G232        0.1748
   5027  C6        27.4950  -11.7010   30.6230 C.ar  232  G232        0.3023
   5028  O6        28.6760  -12.0500   30.5230 O.2   232  G232       -0.2633
   5029  N7        26.2570  -13.8510   31.1890 N.ar  232  G232       -0.2173
   5030  C8        24.9810  -14.0440   31.3890 C.ar  232  G232        0.1817
   5031  N9        24.2370  -12.8960   31.2620 N.ar  232  G232       -0.2693
   5032  OP1       21.4200  -18.9880   31.1060 O.3   232  G232       -0.4373
   5033  OP2       23.7970  -18.0370   30.9320 O.co2 232  G232       -0.5172
   5034  P         21.0070  -13.7440   27.0660 P.3   233  A233        0.2141
   5035  C5'       20.6770  -11.1870   26.9430 C.3   233  A233        0.1812
   5036  O5'       21.4270  -12.3220   26.4990 O.3   233  A233       -0.3114
   5037  C4'       21.5160   -9.9490   26.8240 C.3   233  A233        0.1773
   5038  O4'       22.5500   -9.9040   27.8450 O.3   233  A233       -0.3307
   5039  C3'       22.3130   -9.8350   25.5410 C.3   233  A233        0.1860
   5040  O3'       21.4510   -9.3220   24.5630 O.3   233  A233       -0.3112
   5041  C2'       23.3200   -8.7750   25.9250 C.3   233  A233        0.2309
   5042  O2'       22.7090   -7.5250   26.1230 O.3   233  A233       -0.2156
   5043  C1'       23.6950   -9.2500   27.3190 C.3   233  A233        0.2408
   5044  N1        28.7200   -9.6430   26.4680 N.ar  233  A233       -0.2040
   5045  C2        27.8520   -8.6380   26.3090 C.ar  233  A233        0.2016
   5046  N3        26.5410   -8.6160   26.5340 N.ar  233  A233       -0.2048
   5047  C4        26.1190   -9.8130   26.9810 C.ar  233  A233        0.1692
   5048  C5        26.8910  -10.9410   27.1860 C.ar  233  A233        0.1518
   5049  C6        28.2610  -10.8290   26.9190 C.ar  233  A233        0.1919
   5050  N6        29.1240  -11.8220   27.0840 N.pl3 233  A233       -0.1054
   5051  N7        26.1150  -11.9910   27.6550 N.ar  233  A233       -0.2193
   5052  C8        24.9090  -11.4810   27.7280 C.ar  233  A233        0.1816
   5053  N9        24.8390  -10.1660   27.3350 N.ar  233  A233       -0.2693
   5054  OP1       19.7060  -13.9630   26.4060 O.2   233  A233       -0.5172
   5055  OP2       22.0520  -14.8020   27.0310 O.co2 233  A233       -0.4373
   5056  P         21.5910  -10.0130   23.1580 P.3   234  U234        0.2141
   5057  C5'       23.0080   -7.8750   22.4060 C.3   234  U234        0.1812
   5058  O5'       22.9080   -9.3140   22.5950 O.3   234  U234       -0.3114
   5059  C4'       24.4370   -7.5090   22.0460 C.3   234  U234        0.1773
   5060  O4'       25.3120   -7.7940   23.1770 O.3   234  U234       -0.3307
   5061  C3'       25.0760   -8.2880   20.8980 C.3   234  U234        0.1860
   5062  O3'       24.8350   -7.7720   19.6080 O.3   234  U234       -0.3112
   5063  C2'       26.5490   -8.1000   21.1910 C.3   234  U234        0.2309
   5064  O2'       27.0420   -6.8310   20.8220 O.3   234  U234       -0.2156
   5065  C1'       26.5610   -8.2730   22.7040 C.3   234  U234        0.2420
   5066  N1        26.7300   -9.6740   23.1260 N.ar  234  U234       -0.2534
   5067  C2        28.0180  -10.0860   23.4010 C.ar  234  U234        0.3546
   5068  O2        28.9820   -9.3430   23.3020 O.2   234  U234       -0.2443
   5069  N3        28.1330  -11.3970   23.8000 N.ar  234  U234       -0.1530
   5070  C4        27.1180  -12.3160   23.9470 C.ar  234  U234        0.2846
   5071  O4        27.3840  -13.4610   24.3040 O.2   234  U234       -0.2650
   5072  C5        25.8170  -11.8200   23.6240 C.ar  234  U234        0.0814
   5073  C6        25.6710  -10.5500   23.2230 C.ar  234  U234        0.0870
   5074  OP1       20.4710   -9.4190   22.3540 O.2   234  U234       -0.5172
   5075  OP2       21.7680  -11.5150   23.3360 O.co2 234  U234       -0.4373
   5076  P         24.1890   -8.7760   18.5730 P.3   235  U235        0.2141
   5077  C5'       25.1350   -6.8750   17.0830 C.3   235  U235        0.1812
   5078  O5'       24.0730   -7.8080   17.3100 O.3   235  U235       -0.3114
   5079  C4'       24.7410   -5.8320   16.0780 C.3   235  U235        0.1773
   5080  O4'       24.1120   -6.4360   14.9140 O.3   235  U235       -0.3307
   5081  C3'       23.7530   -4.7960   16.5970 C.3   235  U235        0.1860
   5082  O3'       24.1910   -3.5610   16.0710 O.3   235  U235       -0.3112
   5083  C2'       22.4370   -5.2310   15.9670 C.3   235  U235        0.2309
   5084  O2'       21.3500   -4.3310   15.8200 O.3   235  U235       -0.2156
   5085  C1'       22.9270   -5.7290   14.6150 C.3   235  U235        0.2420
   5086  N1        21.9480   -6.6430   14.0170 N.ar  235  U235       -0.2534
   5087  C2        21.2140   -6.1800   12.9370 C.ar  235  U235        0.3546
   5088  O2        21.3910   -5.0820   12.4380 O.2   235  U235       -0.2443
   5089  N3        20.2970   -7.0730   12.4420 N.ar  235  U235       -0.1530
   5090  C4        20.0080   -8.3290   12.9330 C.ar  235  U235        0.2846
   5091  O4        19.1400   -9.0050   12.3860 O.2   235  U235       -0.2650
   5092  C5        20.7900   -8.7250   14.0660 C.ar  235  U235        0.0814
   5093  C6        21.7040   -7.8870   14.5630 C.ar  235  U235        0.0870
   5094  OP1       22.8580   -9.3180   19.0060 O.3   235  U235       -0.4373
   5095  OP2       25.3080   -9.7180   18.3550 O.co2 235  U235       -0.5172
   5096  P         24.4770   -2.4880   17.1910 P.3   236  G236        0.2141
   5097  C5'       25.5300   -0.4700   15.9230 C.3   236  G236        0.1812
   5098  O5'       25.7320   -1.7330   16.5630 O.3   236  G236       -0.3114
   5099  C4'       26.8470    0.1930   15.6930 C.3   236  G236        0.1773
   5100  O4'       27.5340    0.3640   16.9490 O.3   236  G236       -0.3307
   5101  C3'       27.7700   -0.6430   14.8560 C.3   236  G236        0.1860
   5102  O3'       27.4090   -0.0960   13.6200 O.3   236  G236       -0.3112
   5103  C2'       29.1360   -0.1900   15.3260 C.3   236  G236        0.2309
   5104  O2'       29.3700    1.1240   14.9490 O.3   236  G236       -0.2156
   5105  C1'       28.8950    0.0100   16.8050 C.3   236  G236        0.2408
   5106  N1        32.4890   -2.6580   19.1670 N.ar  236  G236       -0.1709
   5107  C2        32.5930   -1.5070   18.4230 C.ar  236  G236        0.2606
   5108  N2        33.8270   -0.9890   18.2980 N.pl3 236  G236       -0.0859
   5109  N3        31.5680   -0.9110   17.8340 N.ar  236  G236       -0.1918
   5110  C4        30.4030   -1.5420   18.0880 C.ar  236  G236        0.1723
   5111  C5        30.1850   -2.6860   18.8260 C.ar  236  G236        0.1748
   5112  C6        31.3050   -3.3360   19.4330 C.ar  236  G236        0.3023
   5113  O6        31.3290   -4.3790   20.1150 O.2   236  G236       -0.2633
   5114  N7        28.8390   -3.0320   18.8110 N.ar  236  G236       -0.2173
   5115  C8        28.2780   -2.1140   18.0700 C.ar  236  G236        0.1817
   5116  N9        29.1690   -1.1740   17.6100 N.ar  236  G236       -0.2693
   5117  OP1       24.9340   -3.1120   18.4790 O.3   236  G236       -0.4373
   5118  OP2       23.1710   -1.7510   17.1090 O.co2 236  G236       -0.5172
   5119  P         28.1110   -0.5630   12.2860 P.3   237  A237        0.2141
   5120  C5'       26.3300   -2.5240   12.3150 C.3   237  A237        0.1812
   5121  O5'       27.6630   -2.0900   12.1760 O.3   237  A237       -0.3114
   5122  C4'       26.3420   -3.8220   13.0590 C.3   237  A237        0.1773
   5123  O4'       25.0730   -4.5070   12.8530 O.3   237  A237       -0.3307
   5124  C3'       27.3930   -4.8280   12.6070 C.3   237  A237        0.1860
   5125  O3'       27.3360   -5.7500   13.6770 O.3   237  A237       -0.3112
   5126  C2'       26.6730   -5.4810   11.4450 C.3   237  A237        0.2309
   5127  O2'       27.1190   -6.7670   11.1080 O.3   237  A237       -0.2156
   5128  C1'       25.2670   -5.6180   12.0220 C.3   237  A237        0.2408
   5129  N1        21.7150   -8.4310    9.6710 N.ar  237  A237       -0.2040
   5130  C2        22.5300   -8.6790   10.7070 C.ar  237  A237        0.2016
   5131  N3        23.4250   -7.8850   11.2790 N.ar  237  A237       -0.2048
   5132  C4        23.4540   -6.6870   10.6660 C.ar  237  A237        0.1692
   5133  C5        22.6820   -6.2840    9.5890 C.ar  237  A237        0.1518
   5134  C6        21.7800   -7.2230    9.0690 C.ar  237  A237        0.1919
   5135  N6        20.9570   -6.9720    8.0500 N.pl3 237  A237       -0.1054
   5136  N7        22.9690   -4.9710    9.2400 N.ar  237  A237       -0.2193
   5137  C8        23.9150   -4.6220   10.0820 C.ar  237  A237        0.1816
   5138  N9        24.2460   -5.6090   10.9830 N.ar  237  A237       -0.2693
   5139  OP1       29.5960   -0.3950   12.4530 O.3   237  A237       -0.4373
   5140  OP2       27.3590    0.1920   11.2050 O.co2 237  A237       -0.5172
   5141  P         28.3980   -6.8560   13.9260 P.3   238  U238        0.2141
   5142  C5'       29.6010   -5.7920   15.9830 C.3   238  U238        0.1812
   5143  O5'       29.5770   -6.0230   14.5840 O.3   238  U238       -0.3114
   5144  C4'       31.0100   -5.9180   16.4570 C.3   238  U238        0.1773
   5145  O4'       30.9370   -6.1020   17.8920 O.3   238  U238       -0.3307
   5146  C3'       31.8110   -7.1270   15.9500 C.3   238  U238        0.1860
   5147  O3'       32.5180   -6.9230   14.7270 O.3   238  U238       -0.3112
   5148  C2'       32.7610   -7.3770   17.1140 C.3   238  U238        0.2309
   5149  O2'       33.8350   -6.4650   17.2710 O.3   238  U238       -0.2156
   5150  C1'       31.8300   -7.1310   18.2930 C.3   238  U238        0.2420
   5151  N1        31.0290   -8.2850   18.7000 N.ar  238  U238       -0.2534
   5152  C2        31.6840   -9.2810   19.3780 C.ar  238  U238        0.3546
   5153  O2        32.8830   -9.2550   19.5870 O.2   238  U238       -0.2443
   5154  N3        30.8930  -10.3330   19.7620 N.ar  238  U238       -0.1530
   5155  C4        29.5360  -10.4620   19.5870 C.ar  238  U238        0.2846
   5156  O4        28.9670  -11.4770   19.9950 O.2   238  U238       -0.2650
   5157  C5        28.9220   -9.3750   18.8900 C.ar  238  U238        0.0814
   5158  C6        29.6730   -8.3480   18.4810 C.ar  238  U238        0.0870
   5159  OP1       28.8170   -7.4190   12.6030 O.2   238  U238       -0.5172
   5160  OP2       27.9260   -7.7770   14.9690 O.co2 238  U238       -0.4373
   5161  P         32.9050   -8.0740   13.6340 P.3   239  G239        0.2141
   5162  C5'       35.4530   -8.0670   14.4180 C.3   239  G239        0.1812
   5163  O5'       34.1620   -8.7030   14.3540 O.3   239  G239       -0.3114
   5164  C4'       36.4530   -9.0850   14.9290 C.3   239  G239        0.1773
   5165  O4'       36.0980   -9.4710   16.2880 O.3   239  G239       -0.3307
   5166  C3'       36.4530  -10.4290   14.2140 C.3   239  G239        0.1860
   5167  O3'       37.2370  -10.3660   13.0550 O.3   239  G239       -0.3112
   5168  C2'       37.1350  -11.3100   15.2280 C.3   239  G239        0.2309
   5169  O2'       38.5260  -11.0760   15.3520 O.3   239  G239       -0.2156
   5170  C1'       36.4860  -10.8090   16.5020 C.3   239  G239        0.2408
   5171  N1        34.9160  -15.2430   18.2920 N.ar  239  G239       -0.1709
   5172  C2        36.1820  -14.8150   17.9920 C.ar  239  G239        0.2606
   5173  N2        37.1700  -15.6950   18.2080 N.pl3 239  G239       -0.0859
   5174  N3        36.4630  -13.6100   17.5290 N.ar  239  G239       -0.1918
   5175  C4        35.3520  -12.8650   17.3530 C.ar  239  G239        0.1723
   5176  C5        34.0430  -13.1910   17.6340 C.ar  239  G239        0.1748
   5177  C6        33.7610  -14.4880   18.1490 C.ar  239  G239        0.3023
   5178  O6        32.6700  -14.9900   18.4230 O.2   239  G239       -0.2633
   5179  N7        33.1960  -12.1310   17.3290 N.ar  239  G239       -0.2173
   5180  C8        33.9920  -11.2020   16.8680 C.ar  239  G239        0.1817
   5181  N9        35.3120  -11.5840   16.8560 N.ar  239  G239       -0.2693
   5182  OP1       33.5130   -7.6710   12.3220 O.2   239  G239       -0.5172
   5183  OP2       31.7570   -9.0420   13.6140 O.co2 239  G239       -0.4373
   5184  P         36.6670  -11.2420   11.8580 P.3   240  A240        0.2141
   5185  C5'       36.9820  -13.8370   11.8190 C.3   240  A240        0.1812
   5186  O5'       36.9350  -12.6370   12.5690 O.3   240  A240       -0.3114
   5187  C4'       37.5870  -14.9430   12.6570 C.3   240  A240        0.1773
   5188  O4'       37.1910  -14.8220   14.0520 O.3   240  A240       -0.3307
   5189  C3'       37.1580  -16.3460   12.2560 C.3   240  A240        0.1860
   5190  O3'       38.0620  -16.7580   11.2350 O.3   240  A240       -0.3112
   5191  C2'       37.3840  -17.1130   13.5360 C.3   240  A240        0.2309
   5192  O2'       38.7860  -17.2310   13.5850 O.3   240  A240       -0.2156
   5193  C1'       36.9380  -16.0970   14.5820 C.3   240  A240        0.2408
   5194  N1        33.1470  -18.9030   16.6600 N.ar  240  A240       -0.2040
   5195  C2        34.4550  -19.1450   16.4910 C.ar  240  A240        0.2016
   5196  N3        35.3960  -18.3720   15.9480 N.ar  240  A240       -0.2048
   5197  C4        34.8680  -17.2110   15.5270 C.ar  240  A240        0.1692
   5198  C5        33.5390  -16.8290   15.6070 C.ar  240  A240        0.1518
   5199  C6        32.6490  -17.7290   16.2130 C.ar  240  A240        0.1919
   5200  N6        31.3500  -17.4840   16.3730 N.pl3 240  A240       -0.1054
   5201  N7        33.3630  -15.5640   15.0760 N.ar  240  A240       -0.2193
   5202  C8        34.5600  -15.2300   14.6520 C.ar  240  A240        0.1816
   5203  N9        35.5170  -16.1770   14.8930 N.ar  240  A240       -0.2693
   5204  OP1       37.5460  -11.2450   10.6740 O.2   240  A240       -0.5172
   5205  OP2       35.2420  -10.9180   11.7610 O.co2 240  A240       -0.4373
   5206  P         37.2830  -17.5010   10.0370 P.3   241  A241        0.2141
   5207  C5'       38.2480  -19.7740   10.9880 C.3   241  A241        0.1812
   5208  O5'       37.1060  -18.9850   10.5750 O.3   241  A241       -0.3114
   5209  C4'       37.7480  -20.9860   11.7380 C.3   241  A241        0.1773
   5210  O4'       36.9920  -20.5820   12.9180 O.3   241  A241       -0.3307
   5211  C3'       36.7150  -21.7950   10.9670 C.3   241  A241        0.1860
   5212  O3'       37.2690  -22.5310    9.8810 O.3   241  A241       -0.3112
   5213  C2'       36.0620  -22.5990   12.0790 C.3   241  A241        0.2309
   5214  O2'       36.9170  -23.6930   12.3410 O.3   241  A241       -0.2156
   5215  C1'       36.0040  -21.5630   13.2110 C.3   241  A241        0.2408
   5216  N1        31.0730  -22.0600   14.6490 N.ar  241  A241       -0.2040
   5217  C2        32.0980  -22.9210   14.6380 C.ar  241  A241        0.2016
   5218  N3        33.3630  -22.7300   14.2490 N.ar  241  A241       -0.2048
   5219  C4        33.5380  -21.4720   13.8180 C.ar  241  A241        0.1692
   5220  C5        32.5770  -20.4770   13.7590 C.ar  241  A241        0.1518
   5221  C6        31.2840  -20.8090   14.1910 C.ar  241  A241        0.1919
   5222  N6        30.2590  -19.9610   14.1630 N.pl3 241  A241       -0.1054
   5223  N7        33.1170  -19.3060   13.2590 N.ar  241  A241       -0.2193
   5224  C8        34.3680  -19.6160   13.0090 C.ar  241  A241        0.1816
   5225  N9        34.6980  -20.9040   13.3460 N.ar  241  A241       -0.2693
   5226  OP1       38.2520  -17.3880    8.9400 O.2   241  A241       -0.5172
   5227  OP2       35.8820  -16.9880    9.8380 O.co2 241  A241       -0.4373
   5228  P         36.3240  -22.8480    8.6130 P.3   242  G242        0.2141
   5229  C5'       35.7780  -25.3200    9.3810 C.3   242  G242        0.1812
   5230  O5'       35.3570  -23.9650    9.2150 O.3   242  G242       -0.3114
   5231  C4'       34.6770  -26.0750   10.0670 C.3   242  G242        0.1773
   5232  O4'       34.1030  -25.2440   11.1070 O.3   242  G242       -0.3307
   5233  C3'       33.4660  -26.3480    9.2080 C.3   242  G242        0.1860
   5234  O3'       33.7160  -27.3520    8.2230 O.3   242  G242       -0.3112
   5235  C2'       32.4080  -26.6540   10.2590 C.3   242  G242        0.2309
   5236  O2'       32.5490  -28.0110   10.6240 O.3   242  G242       -0.2156
   5237  C1'       32.7860  -25.6720   11.3770 C.3   242  G242        0.2408
   5238  N1        28.1940  -23.7040   12.3400 N.ar  242  G242       -0.1709
   5239  C2        28.6310  -25.0000   12.4910 C.ar  242  G242        0.2606
   5240  N2        27.7250  -25.8820   12.9230 N.pl3 242  G242       -0.0859
   5241  N3        29.8600  -25.4030   12.2120 N.ar  242  G242       -0.1918
   5242  C4        30.6340  -24.3860   11.7720 C.ar  242  G242        0.1723
   5243  C5        30.2940  -23.0630   11.5900 C.ar  242  G242        0.1748
   5244  C6        28.9760  -22.6470   11.8850 C.ar  242  G242        0.3023
   5245  O6        28.4950  -21.5140   11.8090 O.2   242  G242       -0.2633
   5246  N7        31.3810  -22.3340   11.1360 N.ar  242  G242       -0.2173
   5247  C8        32.3370  -23.2150   11.0200 C.ar  242  G242        0.1817
   5248  N9        31.9540  -24.4780   11.3960 N.ar  242  G242       -0.2693
   5249  OP1       37.3050  -23.2180    7.5380 O.2   242  G242       -0.5172
   5250  OP2       35.2330  -21.8690    8.3060 O.co2 242  G242       -0.4373
   5251  P         32.8260  -27.1560    6.8880 P.3   243  G243        0.2141
   5252  C5'       30.3010  -27.8170    6.7470 C.3   243  G243        0.1812
   5253  O5'       31.5520  -27.9560    7.4230 O.3   243  G243       -0.3114
   5254  C4'       29.1630  -28.0860    7.6780 C.3   243  G243        0.1773
   5255  O4'       29.2710  -27.2710    8.8770 O.3   243  G243       -0.3307
   5256  C3'       27.8260  -27.6740    7.1090 C.3   243  G243        0.1860
   5257  O3'       27.3710  -28.6870    6.2690 O.3   243  G243       -0.3112
   5258  C2'       26.9800  -27.5280    8.3600 C.3   243  G243        0.2309
   5259  O2'       26.6150  -28.7240    8.9800 O.3   243  G243       -0.2156
   5260  C1'       27.9650  -26.8290    9.2860 C.3   243  G243        0.2408
   5261  N1        25.0730  -22.6670    9.8160 N.ar  243  G243       -0.1709
   5262  C2        24.7800  -23.9690   10.1120 C.ar  243  G243        0.2606
   5263  N2        23.5720  -24.1910   10.6380 N.pl3 243  G243       -0.0859
   5264  N3        25.6210  -24.9770    9.9430 N.ar  243  G243       -0.1918
   5265  C4        26.7870  -24.5750    9.4010 C.ar  243  G243        0.1723
   5266  C5        27.1770  -23.3030    9.0610 C.ar  243  G243        0.1748
   5267  C6        26.2680  -22.2250    9.2700 C.ar  243  G243        0.3023
   5268  O6        26.4230  -21.0210    9.0220 O.2   243  G243       -0.2633
   5269  N7        28.4640  -23.3060    8.5490 N.ar  243  G243       -0.2173
   5270  C8        28.8280  -24.5570    8.5930 C.ar  243  G243        0.1817
   5271  N9        27.8680  -25.3770    9.1190 N.ar  243  G243       -0.2693
   5272  OP1       33.5740  -27.7550    5.7730 O.2   243  G243       -0.5172
   5273  OP2       32.2850  -25.7690    6.7050 O.co2 243  G243       -0.4373
   5274  P         27.5030  -28.3900    4.7250 P.3   244  G244        0.2141
   5275  C5'       24.9420  -28.1780    5.0210 C.3   244  G244        0.1812
   5276  O5'       26.1680  -27.5230    4.7240 O.3   244  G244       -0.3114
   5277  C4'       23.8790  -27.1910    5.4270 C.3   244  G244        0.1773
   5278  O4'       24.3020  -26.4130    6.5850 O.3   244  G244       -0.3307
   5279  C3'       23.4900  -26.1540    4.3960 C.3   244  G244        0.1860
   5280  O3'       22.5190  -26.6740    3.5000 O.3   244  G244       -0.3112
   5281  C2'       22.8810  -25.0890    5.2920 C.3   244  G244        0.2309
   5282  O2'       21.5960  -25.5430    5.6640 O.3   244  G244       -0.2156
   5283  C1'       23.8960  -25.0620    6.4330 C.3   244  G244        0.2408
   5284  N1        25.8290  -20.3830    6.0060 N.ar  244  G244       -0.1709
   5285  C2        24.5790  -20.7810    6.4170 C.ar  244  G244        0.2606
   5286  N2        23.7150  -19.8090    6.7480 N.pl3 244  G244       -0.0859
   5287  N3        24.1930  -22.0440    6.4960 N.ar  244  G244       -0.1918
   5288  C4        25.1680  -22.8940    6.1260 C.ar  244  G244        0.1723
   5289  C5        26.4430  -22.6050    5.6970 C.ar  244  G244        0.1748
   5290  C6        26.8490  -21.2450    5.6200 C.ar  244  G244        0.3023
   5291  O6        27.9360  -20.7900    5.2620 O.2   244  G244       -0.2633
   5292  N7        27.1360  -23.7670    5.3920 N.ar  244  G244       -0.2173
   5293  C8        26.2890  -24.7240    5.6550 C.ar  244  G244        0.1817
   5294  N9        25.0760  -24.2630    6.1050 N.ar  244  G244       -0.2693
   5295  OP1       27.0910  -29.7490    4.2410 O.2   244  G244       -0.5172
   5296  OP2       28.8070  -27.8180    4.2450 O.co2 244  G244       -0.4373
   5297  P         23.0040  -27.0980    2.0240 P.3   245  A245        0.2141
   5298  C5'       21.5280  -25.0500    1.8340 C.3   245  A245        0.1812
   5299  O5'       22.4210  -25.9070    1.1670 O.3   245  A245       -0.3114
   5300  C4'       20.4900  -24.5700    0.8930 C.3   245  A245        0.1773
   5301  O4'       20.8970  -24.7280   -0.4890 O.3   245  A245       -0.3307
   5302  C3'       19.1730  -25.2890    1.0280 C.3   245  A245        0.1860
   5303  O3'       18.4620  -24.0840    0.9700 O.3   245  A245       -0.3112
   5304  C2'       19.0610  -26.0790   -0.2730 C.3   245  A245        0.2309
   5305  O2'       17.7190  -25.9680   -0.6720 O.3   245  A245       -0.2156
   5306  C1'       19.7910  -25.1710   -1.2400 C.3   245  A245        0.2408
   5307  N1        19.8980  -24.7180   -6.3320 N.ar  245  A245       -0.2040
   5308  C2        19.1820  -24.0880   -5.3840 C.ar  245  A245        0.2016
   5309  N3        19.1780  -24.2810   -4.0660 N.ar  245  A245       -0.2048
   5310  C4        20.0380  -25.2610   -3.7340 C.ar  245  A245        0.1692
   5311  C5        20.8490  -25.9890   -4.5960 C.ar  245  A245        0.1518
   5312  C6        20.7560  -25.6950   -5.9580 C.ar  245  A245        0.1919
   5313  N6        21.4410  -26.3440   -6.8980 N.pl3 245  A245       -0.1054
   5314  N7        21.6150  -26.9050   -3.8950 N.ar  245  A245       -0.2193
   5315  C8        21.2790  -26.6970   -2.6420 C.ar  245  A245        0.1816
   5316  N9        20.2940  -25.7520   -2.4780 N.ar  245  A245       -0.2693
   5317  OP1       22.1130  -28.2440    1.7060 O.2   245  A245       -0.5172
   5318  OP2       24.4460  -27.1310    1.7150 O.co2 245  A245       -0.4373
   5319  P         17.2280  -23.9730    1.8980 P.3   246  A246        0.2141
   5320  C5'       16.7950  -22.9180    4.2450 C.3   246  A246        0.1812
   5321  O5'       17.6920  -23.1120    3.1410 O.3   246  A246       -0.3114
   5322  C4'       17.0740  -21.5820    4.8990 C.3   246  A246        0.1773
   5323  O4'       18.4920  -21.5100    5.2350 O.3   246  A246       -0.3307
   5324  C3'       16.7940  -20.3920    3.9920 C.3   246  A246        0.1860
   5325  O3'       16.4150  -19.2980    4.7730 O.3   246  A246       -0.3112
   5326  C2'       18.1570  -20.1250    3.3680 C.3   246  A246        0.2309
   5327  O2'       18.3050  -18.8160    2.8670 O.3   246  A246       -0.2156
   5328  C1'       19.0800  -20.4440    4.5360 C.3   246  A246        0.2408
   5329  N1        23.7150  -18.9290    3.0550 N.ar  246  A246       -0.2040
   5330  C2        22.6290  -18.2540    3.4510 C.ar  246  A246        0.2016
   5331  N3        21.4520  -18.7170    3.8490 N.ar  246  A246       -0.2048
   5332  C4        21.4250  -20.0590    3.7830 C.ar  246  A246        0.1692
   5333  C5        22.4620  -20.8910    3.4000 C.ar  246  A246        0.1518
   5334  C6        23.6630  -20.2780    3.0220 C.ar  246  A246        0.1919
   5335  N6        24.7520  -20.9470    2.6390 N.pl3 246  A246       -0.1054
   5336  N7        22.0720  -22.2200    3.4680 N.ar  246  A246       -0.2193
   5337  C8        20.8230  -22.1600    3.8810 C.ar  246  A246        0.1816
   5338  N9        20.3670  -20.8830    4.0700 N.ar  246  A246       -0.2693
   5339  OP1       17.0490  -25.2890    2.5610 O.3   246  A246       -0.4373
   5340  OP2       16.1170  -23.3570    1.1360 O.co2 246  A246       -0.5172
   5341  P         14.8430  -19.1440    4.7200 P.3   247  A247        0.2141
   5342  C5'       15.1170  -16.7960    5.9110 C.3   247  A247        0.1812
   5343  O5'       14.3930  -17.6380    4.9950 O.3   247  A247       -0.3114
   5344  C4'       16.3040  -16.0690    5.2810 C.3   247  A247        0.1773
   5345  O4'       16.7440  -16.6090    3.9930 O.3   247  A247       -0.3307
   5346  C3'       16.1650  -14.5890    4.9690 C.3   247  A247        0.1860
   5347  O3'       16.2430  -13.8470    6.1600 O.3   247  A247       -0.3112
   5348  C2'       17.4440  -14.3650    4.1840 C.3   247  A247        0.2309
   5349  O2'       18.6140  -14.6080    4.9310 O.3   247  A247       -0.2156
   5350  C1'       17.4540  -15.5950    3.2870 C.3   247  A247        0.2408
   5351  N1        17.9020  -13.3930   -1.3030 N.ar  247  A247       -0.2040
   5352  C2        18.7230  -13.4630   -0.2480 C.ar  247  A247        0.2016
   5353  N3        18.5350  -14.0480    0.9300 N.ar  247  A247       -0.2048
   5354  C4        17.3350  -14.6400    0.9730 C.ar  247  A247        0.1692
   5355  C5        16.3870  -14.6620   -0.0320 C.ar  247  A247        0.1518
   5356  C6        16.7080  -14.0030   -1.2270 C.ar  247  A247        0.1919
   5357  N6        15.9010  -13.9470   -2.2790 N.pl3 247  A247       -0.1054
   5358  N7        15.2600  -15.3590    0.3720 N.ar  247  A247       -0.2193
   5359  C8        15.5450  -15.7250    1.5980 C.ar  247  A247        0.1816
   5360  N9        16.7980  -15.3510    2.0120 N.ar  247  A247       -0.2693
   5361  OP1       14.2930  -20.1130    5.7170 O.3   247  A247       -0.4373
   5362  OP2       14.6340  -19.3680    3.2750 O.co2 247  A247       -0.5172
   5363  P         15.5240  -12.3840    6.1420 P.3   248  G248        0.2141
   5364  C5'       17.6500  -10.9690    5.6000 C.3   248  G248        0.1812
   5365  O5'       16.4020  -11.5080    5.1430 O.3   248  G248       -0.3114
   5366  C4'       18.4160  -10.3610    4.4520 C.3   248  G248        0.1773
   5367  O4'       18.4460  -11.2500    3.3040 O.3   248  G248       -0.3307
   5368  C3'       17.8450   -9.0860    3.8610 C.3   248  G248        0.1860
   5369  O3'       18.2180   -7.9790    4.6450 O.3   248  G248       -0.3112
   5370  C2'       18.6110   -9.0180    2.5560 C.3   248  G248        0.2309
   5371  O2'       19.9890   -8.8180    2.7890 O.3   248  G248       -0.2156
   5372  C1'       18.5310  -10.4730    2.1230 C.3   248  G248        0.2408
   5373  N1        16.4470   -9.8300   -2.4350 N.ar  248  G248       -0.1709
   5374  C2        17.6610   -9.4070   -1.9650 C.ar  248  G248        0.2606
   5375  N2        18.4250   -8.7300   -2.8300 N.pl3 248  G248       -0.0859
   5376  N3        18.0930   -9.6310   -0.7370 N.ar  248  G248       -0.1918
   5377  C4        17.1940  -10.3190   -0.0030 C.ar  248  G248        0.1723
   5378  C5        15.9610  -10.7900   -0.3800 C.ar  248  G248        0.1748
   5379  C6        15.5150  -10.5530   -1.7030 C.ar  248  G248        0.3023
   5380  O6        14.4480  -10.8760   -2.2270 O.2   248  G248       -0.2633
   5381  N7        15.3440  -11.4440    0.6720 N.ar  248  G248       -0.2173
   5382  C8        16.2070  -11.3790    1.6480 C.ar  248  G248        0.1817
   5383  N9        17.3550  -10.7200    1.3010 N.ar  248  G248       -0.2693
   5384  OP1       15.6390  -11.8430    7.5270 O.3   248  G248       -0.4373
   5385  OP2       14.1990  -12.4470    5.4810 O.co2 248  G248       -0.5172
   5386  P         17.2040   -6.8090    4.8840 P.3   249  A249        0.2141
   5387  C5'       18.6060   -5.6110    3.0730 C.3   249  A249        0.1812
   5388  O5'       17.3230   -5.9380    3.5540 O.3   249  A249       -0.3114
   5389  C4'       18.4840   -5.0210    1.6980 C.3   249  A249        0.1773
   5390  O4'       18.2690   -6.0610    0.7120 O.3   249  A249       -0.3307
   5391  C3'       17.3230   -4.0770    1.4550 C.3   249  A249        0.1860
   5392  O3'       17.6380   -2.7870    1.9450 O.3   249  A249       -0.3112
   5393  C2'       17.2890   -4.0770   -0.0640 C.3   249  A249        0.2309
   5394  O2'       18.4020   -3.4280   -0.6680 O.3   249  A249       -0.2156
   5395  C1'       17.4680   -5.5630   -0.3440 C.3   249  A249        0.2408
   5396  N1        13.5900   -7.2370   -3.2950 N.ar  249  A249       -0.2040
   5397  C2        14.5820   -6.3590   -3.5210 C.ar  249  A249        0.2016
   5398  N3        15.5550   -5.9550   -2.7050 N.ar  249  A249       -0.2048
   5399  C4        15.4450   -6.5530   -1.5070 C.ar  249  A249        0.1692
   5400  C5        14.4700   -7.4590   -1.1160 C.ar  249  A249        0.1518
   5401  C6        13.5050   -7.8150   -2.0750 C.ar  249  A249        0.1919
   5402  N6        12.5350   -8.7060   -1.8540 N.pl3 249  A249       -0.1054
   5403  N7        14.6740   -7.8640    0.1950 N.ar  249  A249       -0.2193
   5404  C8        15.7470   -7.2030    0.5630 C.ar  249  A249        0.1816
   5405  N9        16.2500   -6.3720   -0.4090 N.ar  249  A249       -0.2693
   5406  OP1       17.8340   -6.1500    6.0600 O.3   249  A249       -0.4373
   5407  OP2       15.8100   -7.3480    4.9720 O.co2 249  A249       -0.5172
   5408  P         16.4640   -1.8690    2.4510 P.3   250  C250        0.2141
   5409  C5'       16.6350   -0.4250    0.3480 C.3   250  C250        0.1812
   5410  O5'       15.8140   -1.3120    1.1030 O.3   250  C250       -0.3114
   5411  C4'       16.1040   -0.2180   -1.0330 C.3   250  C250        0.1773
   5412  O4'       16.0590   -1.4900   -1.6980 O.3   250  C250       -0.3307
   5413  C3'       14.7020    0.3390   -1.1730 C.3   250  C250        0.1860
   5414  O3'       14.7310    1.7560   -1.2440 O.3   250  C250       -0.3112
   5415  C2'       14.3300   -0.1490   -2.5650 C.3   250  C250        0.2309
   5416  O2'       14.9630    0.5590   -3.6130 O.3   250  C250       -0.2156
   5417  C1'       14.9420   -1.5410   -2.5530 C.3   250  C250        0.2420
   5418  N1        14.0300   -2.5470   -2.0320 N.ar  250  C250       -0.2535
   5419  C2        13.1490   -3.1380   -2.9220 C.ar  250  C250        0.3532
   5420  O2        13.1840   -2.7830   -4.1050 O.2   250  C250       -0.2443
   5421  N3        12.2940   -4.0900   -2.4800 N.ar  250  C250       -0.1739
   5422  C4        12.3120   -4.4520   -1.1970 C.ar  250  C250        0.1759
   5423  N4        11.4550   -5.3950   -0.7990 N.pl3 250  C250       -0.1070
   5424  C5        13.2030   -3.8540   -0.2590 C.ar  250  C250        0.0566
   5425  C6        14.0370   -2.9140   -0.7150 C.ar  250  C250        0.0850
   5426  OP1       17.1790   -0.7740    3.1520 O.2   250  C250       -0.5172
   5427  OP2       15.5310   -2.7290    3.2040 O.co2 250  C250       -0.4373
   5428  P         13.4490    2.4660   -0.6190 P.3   251  U251        0.2141
   5429  C5'       12.8450    2.9340   -3.1590 C.3   251  U251        0.1812
   5430  O5'       12.4440    2.4710   -1.8540 O.3   251  U251       -0.3114
   5431  C4'       11.8340    2.4770   -4.1890 C.3   251  U251        0.1773
   5432  O4'       11.9010    1.0300   -4.3350 O.3   251  U251       -0.3307
   5433  C3'       10.3650    2.7490   -3.8640 C.3   251  U251        0.1860
   5434  O3'        9.9230    4.0630   -4.1890 O.3   251  U251       -0.3112
   5435  C2'        9.6550    1.7210   -4.7310 C.3   251  U251        0.2309
   5436  O2'        9.6110    2.1800   -6.0680 O.3   251  U251       -0.2156
   5437  C1'       10.5970    0.5220   -4.6050 C.3   251  U251        0.2420
   5438  N1        10.2250   -0.4180   -3.5360 N.ar  251  U251       -0.2534
   5439  C2         9.3470   -1.4340   -3.8600 C.ar  251  U251        0.3546
   5440  O2         8.8500   -1.5480   -4.9650 O.2   251  U251       -0.2443
   5441  N3         9.0690   -2.3070   -2.8370 N.ar  251  U251       -0.1530
   5442  C4         9.5450   -2.2550   -1.5430 C.ar  251  U251        0.2846
   5443  O4         9.1760   -3.0980   -0.7280 O.2   251  U251       -0.2650
   5444  C5        10.4680   -1.1910   -1.2920 C.ar  251  U251        0.0814
   5445  C6        10.7710   -0.3320   -2.2730 C.ar  251  U251        0.0870
   5446  OP1       13.8260    3.8710   -0.2860 O.2   251  U251       -0.5172
   5447  OP2       12.7920    1.6200    0.4030 O.co2 251  U251       -0.4373
   5448  P          8.8100    4.7630   -3.2580 P.3   252  G252        0.2141
   5449  C5'        7.0940    4.3180   -5.2240 C.3   252  G252        0.1812
   5450  O5'        7.5140    4.0500   -3.8670 O.3   252  G252       -0.3114
   5451  C4'        5.7760    3.6470   -5.5300 C.3   252  G252        0.1773
   5452  O4'        5.9670    2.2050   -5.5740 O.3   252  G252       -0.3307
   5453  C3'        4.6450    3.8720   -4.5310 C.3   252  G252        0.1860
   5454  O3'        3.8350    5.0250   -4.7940 O.3   252  G252       -0.3112
   5455  C2'        3.8030    2.6090   -4.6980 C.3   252  G252        0.2309
   5456  O2'        2.8660    2.7690   -5.7470 O.3   252  G252       -0.2156
   5457  C1'        4.8790    1.5470   -4.9400 C.3   252  G252        0.2408
   5458  N1         4.5800   -2.4550   -1.7900 N.ar  252  G252       -0.1709
   5459  C2         3.8370   -2.1770   -2.9090 C.ar  252  G252        0.2606
   5460  N2         2.9110   -3.0890   -3.2410 N.pl3 252  G252       -0.0859
   5461  N3         4.0070   -1.0990   -3.6630 N.ar  252  G252       -0.1918
   5462  C4         4.9870   -0.2990   -3.1880 C.ar  252  G252        0.1723
   5463  C5         5.7880   -0.4870   -2.0810 C.ar  252  G252        0.1748
   5464  C6         5.6000   -1.6550   -1.2890 C.ar  252  G252        0.3023
   5465  O6         6.1970   -1.9940   -0.2620 O.2   252  G252       -0.2633
   5466  N7         6.6770    0.5710   -1.9290 N.ar  252  G252       -0.2173
   5467  C8         6.4130    1.3630   -2.9330 C.ar  252  G252        0.1817
   5468  N9         5.3890    0.9030   -3.7290 N.ar  252  G252       -0.2693
   5469  OP1        8.8660    6.1970   -3.6500 O.2   252  G252       -0.5172
   5470  OP2        8.9240    4.4340   -1.8040 O.co2 252  G252       -0.4373
   5471  P          3.1100    5.7590   -3.5640 P.3   253  C253        0.2141
   5472  C5'        1.2750    4.5360   -2.1210 C.3   253  C253        0.1812
   5473  O5'        2.5710    4.5180   -2.7230 O.3   253  C253       -0.3114
   5474  C4'        0.3340    3.6740   -2.9280 C.3   253  C253        0.1773
   5475  O4'        1.0890    2.5820   -3.5220 O.3   253  C253       -0.3307
   5476  C3'       -0.7900    3.0280   -2.1160 C.3   253  C253        0.1860
   5477  O3'       -2.0180    3.7480   -2.1730 O.3   253  C253       -0.3112
   5478  C2'       -0.8750    1.6170   -2.6850 C.3   253  C253        0.2309
   5479  O2'       -1.8590    1.5100   -3.7080 O.3   253  C253       -0.2156
   5480  C1'        0.5940    1.3550   -3.0360 C.3   253  C253        0.2420
   5481  N1         1.4250    0.9710   -1.8820 N.ar  253  C253       -0.2535
   5482  C2         1.0950   -0.1820   -1.1640 C.ar  253  C253        0.3532
   5483  O2         0.1010   -0.8340   -1.5060 O.2   253  C253       -0.2443
   5484  N3         1.8650   -0.5510   -0.1130 N.ar  253  C253       -0.1739
   5485  C4         2.9220    0.1890    0.2320 C.ar  253  C253        0.1759
   5486  N4         3.6390   -0.1990    1.2880 N.pl3 253  C253       -0.1070
   5487  C5         3.2790    1.3720   -0.4810 C.ar  253  C253        0.0566
   5488  C6         2.5130    1.7190   -1.5250 C.ar  253  C253        0.0850
   5489  OP1        1.9730    6.4990   -4.1600 O.2   253  C253       -0.5172
   5490  OP2        4.0610    6.4780   -2.6620 O.co2 253  C253       -0.4373
   5491  P         -2.4140    4.4010   -0.7670 P.3   254  A254        0.2141
   5492  C5'       -3.7350    2.2430   -0.0900 C.3   254  A254        0.1812
   5493  O5'       -2.6670    3.1500    0.1820 O.3   254  A254       -0.3114
   5494  C4'       -3.7360    1.1740    0.9590 C.3   254  A254        0.1773
   5495  O4'       -2.4980    0.4400    0.8490 O.3   254  A254       -0.3307
   5496  C3'       -3.7100    1.6320    2.4170 C.3   254  A254        0.1860
   5497  O3'       -4.9330    2.1590    2.9780 O.3   254  A254       -0.3112
   5498  C2'       -3.2380    0.3560    3.1000 C.3   254  A254        0.2309
   5499  O2'       -4.2390   -0.6350    3.2110 O.3   254  A254       -0.2156
   5500  C1'       -2.1960   -0.1550    2.1030 C.3   254  A254        0.2408
   5501  N1         1.7080   -1.3160    5.2400 N.ar  254  A254       -0.2040
   5502  C2         0.4890   -1.8440    5.0820 C.ar  254  A254        0.2016
   5503  N3        -0.4780   -1.4950    4.2330 N.ar  254  A254       -0.2048
   5504  C4        -0.0920   -0.4530    3.4740 C.ar  254  A254        0.1692
   5505  C5         1.1230    0.2050    3.5280 C.ar  254  A254        0.1518
   5506  C6         2.0630   -0.2670    4.4660 C.ar  254  A254        0.1919
   5507  N6         3.2690    0.2740    4.6410 N.pl3 254  A254       -0.1054
   5508  N7         1.1630    1.2410    2.6040 N.ar  254  A254       -0.2193
   5509  C8        -0.0080    1.1840    2.0160 C.ar  254  A254        0.1816
   5510  N9        -0.8190    0.1820    2.4920 N.ar  254  A254       -0.2693
   5511  OP1       -3.6720    5.1420   -1.0510 O.2   254  A254       -0.5172
   5512  OP2       -1.2590    5.1080   -0.1390 O.co2 254  A254       -0.4373
   5513  P         -5.0530    3.0960    4.3210 P.3   255  U255        0.2141
   5514  C5'       -5.3900    0.9930    5.9300 C.3   255  U255        0.1812
   5515  O5'       -4.6670    2.1910    5.5780 O.3   255  U255       -0.3114
   5516  C4'       -4.5960    0.2030    6.9410 C.3   255  U255        0.1773
   5517  O4'       -3.3960   -0.3170    6.3010 O.3   255  U255       -0.3307
   5518  C3'       -4.0650    1.0030    8.1180 C.3   255  U255        0.1860
   5519  O3'       -5.0120    1.1200    9.1620 O.3   255  U255       -0.3112
   5520  C2'       -2.8530    0.1870    8.5540 C.3   255  U255        0.2309
   5521  O2'       -3.1280   -0.8630    9.4610 O.3   255  U255       -0.2156
   5522  C1'       -2.3100   -0.3010    7.2110 C.3   255  U255        0.2420
   5523  N1        -1.2930    0.6130    6.6850 N.ar  255  U255       -0.2534
   5524  C2        -0.0170    0.5410    7.2180 C.ar  255  U255        0.3546
   5525  O2         0.2930   -0.2670    8.0780 O.2   255  U255       -0.2443
   5526  N3         0.8750    1.4550    6.7030 N.ar  255  U255       -0.1530
   5527  C4         0.6250    2.4160    5.7360 C.ar  255  U255        0.2846
   5528  O4         1.5250    3.1770    5.3860 O.2   255  U255       -0.2650
   5529  C5        -0.7180    2.4250    5.2410 C.ar  255  U255        0.0814
   5530  C6        -1.6130    1.5550    5.7300 C.ar  255  U255        0.0870
   5531  OP1       -6.4790    3.4680    4.5020 O.3   255  U255       -0.4373
   5532  OP2       -4.0240    4.1820    4.3260 O.co2 255  U255       -0.5172
   5533  P         -5.0220    2.5370    9.9070 P.3   256  U256        0.2141
   5534  C5'       -4.0160    1.3670   12.0460 C.3   256  U256        0.1812
   5535  O5'       -3.8700    2.3530   11.0020 O.3   256  U256       -0.3114
   5536  C4'       -2.6790    0.9570   12.6030 C.3   256  U256        0.1773
   5537  O4'       -1.7520    0.7290   11.5080 O.3   256  U256       -0.3307
   5538  C3'       -1.9760    2.0100   13.4290 C.3   256  U256        0.1860
   5539  O3'       -2.4930    2.1300   14.7470 O.3   256  U256       -0.3112
   5540  C2'       -0.5220    1.5480   13.3580 C.3   256  U256        0.2309
   5541  O2'       -0.1570    0.5020   14.2300 O.3   256  U256       -0.2156
   5542  C1'       -0.4290    1.0470   11.9160 C.3   256  U256        0.2420
   5543  N1         0.1240    2.0260   10.9640 N.ar  256  U256       -0.2534
   5544  C2         1.4950    2.2800   10.9790 C.ar  256  U256        0.3546
   5545  O2         2.2660    1.7420   11.7580 O.2   256  U256       -0.2443
   5546  N3         1.9190    3.2040   10.0570 N.ar  256  U256       -0.1530
   5547  C4         1.1460    3.8800    9.1340 C.ar  256  U256        0.2846
   5548  O4         1.6810    4.6790    8.3650 O.2   256  U256       -0.2650
   5549  C5        -0.2530    3.5640    9.1810 C.ar  256  U256        0.0814
   5550  C6        -0.7040    2.6700   10.0710 C.ar  256  U256        0.0870
   5551  OP1       -6.3720    2.6570   10.5690 O.3   256  U256       -0.4373
   5552  OP2       -4.6130    3.5560    8.8840 O.co2 256  U256       -0.5172
   5553  P         -2.4650    3.5940   15.4380 P.3   257  C257        0.2141
   5554  C5'       -0.8390    2.4250   17.1900 C.3   257  C257        0.1812
   5555  O5'       -1.1380    3.5520   16.3270 O.3   257  C257       -0.3114
   5556  C4'        0.6200    2.4370   17.5930 C.3   257  C257        0.1773
   5557  O4'        1.4290    2.1530   16.4220 O.3   257  C257       -0.3307
   5558  C3'        1.1490    3.7790   18.0770 C.3   257  C257        0.1860
   5559  O3'        0.8970    4.0980   19.4370 O.3   257  C257       -0.3112
   5560  C2'        2.6380    3.6750   17.7850 C.3   257  C257        0.2309
   5561  O2'        3.3760    2.9740   18.7630 O.3   257  C257       -0.2156
   5562  C1'        2.6280    2.9140   16.4640 C.3   257  C257        0.2420
   5563  N1         2.6810    3.7620   15.2600 N.ar  257  C257       -0.2535
   5564  C2         3.9330    4.2020   14.7870 C.ar  257  C257        0.3532
   5565  O2         4.9570    3.9010   15.4210 O.2   257  C257       -0.2443
   5566  N3         3.9880    4.9490   13.6560 N.ar  257  C257       -0.1739
   5567  C4         2.8620    5.2460   12.9990 C.ar  257  C257        0.1759
   5568  N4         2.9630    5.9730   11.8830 N.pl3 257  C257       -0.1070
   5569  C5         1.5780    4.8160   13.4620 C.ar  257  C257        0.0566
   5570  C6         1.5360    4.0860   14.5860 C.ar  257  C257        0.0850
   5571  OP1       -3.5930    3.6980   16.3970 O.3   257  C257       -0.4373
   5572  OP2       -2.3610    4.5930   14.3450 O.co2 257  C257       -0.5172
   5573  P          0.6770    5.6770   19.6560 P.3   258  U258        0.2141
   5574  C5'        3.1850    5.8790   20.5450 C.3   258  U258        0.1812
   5575  O5'        2.1730    6.2350   19.5850 O.3   258  U258       -0.3114
   5576  C4'        4.5150    6.3140   20.0010 C.3   258  U258        0.1773
   5577  O4'        4.5770    5.9860   18.5900 O.3   258  U258       -0.3307
   5578  C3'        4.7790    7.8040   19.9650 C.3   258  U258        0.1860
   5579  O3'        5.1450    8.3200   21.2250 O.3   258  U258       -0.3112
   5580  C2'        5.9360    7.8810   18.9790 C.3   258  U258        0.2309
   5581  O2'        7.1450    7.4530   19.5810 O.3   258  U258       -0.2156
   5582  C1'        5.4730    6.8740   17.9260 C.3   258  U258        0.2420
   5583  N1         4.7610    7.4800   16.7900 N.ar  258  U258       -0.2534
   5584  C2         5.4910    8.2170   15.8760 C.ar  258  U258        0.3546
   5585  O2         6.6890    8.3920   15.9730 O.2   258  U258       -0.2443
   5586  N3         4.7580    8.7490   14.8480 N.ar  258  U258       -0.1530
   5587  C4         3.4040    8.6270   14.6380 C.ar  258  U258        0.2846
   5588  O4         2.8910    9.1680   13.6580 O.2   258  U258       -0.2650
   5589  C5         2.7180    7.8460   15.6230 C.ar  258  U258        0.0814
   5590  C6         3.4040    7.3090   16.6360 C.ar  258  U258        0.0870
   5591  OP1        0.1570    5.8410   21.0440 O.3   258  U258       -0.4373
   5592  OP2       -0.0570    6.2920   18.4970 O.co2 258  U258       -0.5172
   5593  P          4.4720    9.7340   21.4700 P.3   259  U259        0.2141
   5594  C5'        6.8710   10.6280   21.4730 C.3   259  U259        0.1812
   5595  O5'        5.5970   10.6600   20.8390 O.3   259  U259       -0.3114
   5596  C4'        7.8860   11.3320   20.6290 C.3   259  U259        0.1773
   5597  O4'        7.8130   10.8960   19.2500 O.3   259  U259       -0.3307
   5598  C3'        7.7210   12.8370   20.5110 C.3   259  U259        0.1860
   5599  O3'        8.2140   13.4050   21.7220 O.3   259  U259       -0.3112
   5600  C2'        8.6320   13.1310   19.3200 C.3   259  U259        0.2309
   5601  O2'        9.9850   13.2610   19.7520 O.3   259  U259       -0.2156
   5602  C1'        8.4120   11.8860   18.4350 C.3   259  U259        0.2420
   5603  N1         7.5200   12.1420   17.3000 N.ar  259  U259       -0.2534
   5604  C2         8.0730   12.7040   16.1700 C.ar  259  U259        0.3546
   5605  O2         9.2530   12.9680   16.0740 O.2   259  U259       -0.2443
   5606  N3         7.1920   12.9410   15.1510 N.ar  259  U259       -0.1530
   5607  C4         5.8360   12.7260   15.1580 C.ar  259  U259        0.2846
   5608  O4         5.1700   13.0140   14.1590 O.2   259  U259       -0.2650
   5609  C5         5.3300   12.1630   16.3770 C.ar  259  U259        0.0814
   5610  C6         6.1700   11.9070   17.3860 C.ar  259  U259        0.0870
   5611  OP1        4.3820    9.8990   22.9580 O.3   259  U259       -0.4373
   5612  OP2        3.2750    9.8400   20.5930 O.co2 259  U259       -0.5172
   5613  P          7.3300   14.3870   22.6020 P.3   260  A260        0.2141
   5614  C5'        9.0440   16.1850   21.7230 C.3   260  A260        0.1812
   5615  O5'        8.2490   15.6680   22.7940 O.3   260  A260       -0.3114
   5616  C4'        9.7900   17.3670   22.2440 C.3   260  A260        0.1773
   5617  O4'       10.5420   17.0110   23.4430 O.3   260  A260       -0.3307
   5618  C3'       10.7830   18.0530   21.3070 C.3   260  A260        0.1860
   5619  O3'       10.5970   19.4390   21.5520 O.3   260  A260       -0.3112
   5620  C2'       12.1230   17.7680   21.9740 C.3   260  A260        0.2309
   5621  O2'       13.1810   18.6720   21.7850 O.3   260  A260       -0.2156
   5622  C1'       11.7280   17.7600   23.4440 C.3   260  A260        0.2408
   5623  N1        15.5890   18.0300   26.8340 N.ar  260  A260       -0.2040
   5624  C2        14.8060   18.9750   26.3030 C.ar  260  A260        0.2016
   5625  N3        13.8310   18.8520   25.4050 N.ar  260  A260       -0.2048
   5626  C4        13.6430   17.5630   25.0840 C.ar  260  A260        0.1692
   5627  C5        14.3640   16.4820   25.5470 C.ar  260  A260        0.1518
   5628  C6        15.3890   16.7430   26.4640 C.ar  260  A260        0.1919
   5629  N6        16.1500   15.7910   27.0070 N.pl3 260  A260       -0.1054
   5630  N7        13.9030   15.3080   24.9800 N.ar  260  A260       -0.2193
   5631  C8        12.9170   15.6960   24.2110 C.ar  260  A260        0.1816
   5632  N9        12.7020   17.0450   24.2310 N.ar  260  A260       -0.2693
   5633  OP1        7.1350   13.8170   23.9580 O.3   260  A260       -0.4373
   5634  OP2        6.1830   14.9010   21.7870 O.co2 260  A260       -0.5172
   5635  P          9.8400   20.4900   20.6580 P.3   261  C261        0.2141
   5636  C5'       12.1480   20.8510   19.6760 C.3   261  C261        0.1812
   5637  O5'       10.7720   20.6140   19.3890 O.3   261  C261       -0.3114
   5638  C4'       12.5630   22.1950   19.1730 C.3   261  C261        0.1773
   5639  O4'       13.7690   22.5820   19.8710 O.3   261  C261       -0.3307
   5640  C3'       12.9170   22.2050   17.6920 C.3   261  C261        0.1860
   5641  O3'       12.8350   23.4950   17.1070 O.3   261  C261       -0.3112
   5642  C2'       14.3970   21.8950   17.7070 C.3   261  C261        0.2309
   5643  O2'       15.0490   22.4350   16.5810 O.3   261  C261       -0.2156
   5644  C1'       14.8460   22.6520   18.9510 C.3   261  C261        0.2420
   5645  N1        16.0320   22.0760   19.5910 N.ar  261  C261       -0.2535
   5646  C2        16.8170   22.8960   20.3980 C.ar  261  C261        0.3532
   5647  O2        16.5050   24.0790   20.5220 O.2   261  C261       -0.2443
   5648  N3        17.8920   22.3780   21.0250 N.ar  261  C261       -0.1739
   5649  C4        18.1810   21.0840   20.8870 C.ar  261  C261        0.1759
   5650  N4        19.2360   20.6130   21.5390 N.pl3 261  C261       -0.1070
   5651  C5        17.3870   20.2160   20.0800 C.ar  261  C261        0.0566
   5652  C6        16.3250   20.7480   19.4640 C.ar  261  C261        0.0850
   5653  OP1       10.0770   21.7210   21.4570 O.3   261  C261       -0.4373
   5654  OP2        8.4840   20.0430   20.2390 O.co2 261  C261       -0.5172
   5655  P         11.4940   24.3580   16.8040 P.3   262  C262        0.2141
   5656  C5'       11.4020   23.7380   14.2910 C.3   262  C262        0.1812
   5657  O5'       10.7440   23.6600   15.5780 O.3   262  C262       -0.3114
   5658  C4'       10.4900   23.2230   13.2200 C.3   262  C262        0.1773
   5659  O4'       10.2240   21.8330   13.5120 O.3   262  C262       -0.3307
   5660  C3'        9.1200   23.8520   13.2430 C.3   262  C262        0.1860
   5661  O3'        9.2550   25.0720   12.5250 O.3   262  C262       -0.3112
   5662  C2'        8.2370   22.7650   12.6380 C.3   262  C262        0.2309
   5663  O2'        8.3960   22.4700   11.2760 O.3   262  C262       -0.2156
   5664  C1'        8.8880   21.5130   13.1790 C.3   262  C262        0.2420
   5665  N1         8.2410   20.9810   14.3610 N.ar  262  C262       -0.2535
   5666  C2         6.9910   20.3780   14.2080 C.ar  262  C262        0.3532
   5667  O2         6.4570   20.3920   13.0920 O.2   262  C262       -0.2443
   5668  N3         6.3850   19.8170   15.2850 N.ar  262  C262       -0.1739
   5669  C4         6.9910   19.8430   16.4730 C.ar  262  C262        0.1759
   5670  N4         6.3590   19.2900   17.5020 N.pl3 262  C262       -0.1070
   5671  C5         8.2950   20.4040   16.6470 C.ar  262  C262        0.0566
   5672  C6         8.8790   20.9570   15.5710 C.ar  262  C262        0.0850
   5673  OP1       12.2170   25.5270   16.1960 O.2   262  C262       -0.5172
   5674  OP2       10.6740   24.4630   18.0600 O.co2 262  C262       -0.4373
   5675  P          8.3960   26.3490   13.0410 P.3   263  C263        0.2141
   5676  C5'        6.4500   25.9100   11.4010 C.3   263  C263        0.1812
   5677  O5'        6.9070   25.8150   12.7730 O.3   263  C263       -0.3114
   5678  C4'        5.0480   25.3930   11.2290 C.3   263  C263        0.1773
   5679  O4'        4.9990   24.0530   11.7580 O.3   263  C263       -0.3307
   5680  C3'        3.9590   26.1450   11.9930 C.3   263  C263        0.1860
   5681  O3'        3.4840   27.3280   11.3600 O.3   263  C263       -0.3112
   5682  C2'        2.8750   25.0900   12.1890 C.3   263  C263        0.2309
   5683  O2'        1.9560   24.9450   11.1190 O.3   263  C263       -0.2156
   5684  C1'        3.7220   23.8240   12.3300 C.3   263  C263        0.2420
   5685  N1         3.9270   23.3910   13.7080 N.ar  263  C263       -0.2535
   5686  C2         2.8590   22.7980   14.3920 C.ar  263  C263        0.3532
   5687  O2         1.7540   22.7220   13.8300 O.2   263  C263       -0.2443
   5688  N3         3.0530   22.3350   15.6450 N.ar  263  C263       -0.1739
   5689  C4         4.2570   22.4450   16.2130 C.ar  263  C263        0.1759
   5690  N4         4.4030   21.9850   17.4540 N.pl3 263  C263       -0.1070
   5691  C5         5.3700   23.0180   15.5260 C.ar  263  C263        0.0566
   5692  C6         5.1600   23.4810   14.2900 C.ar  263  C263        0.0850
   5693  OP1        8.7910   27.3200   11.9780 O.2   263  C263       -0.5172
   5694  OP2        8.6760   26.6680   14.4760 O.co2 263  C263       -0.4373
   5695  P          3.4120   28.5580   12.3780 P.3   264  G264        0.2141
   5696  C5'        0.7560   28.4380   12.3740 C.3   264  G264        0.1812
   5697  O5'        2.0110   28.2390   13.0940 O.3   264  G264       -0.3114
   5698  C4'       -0.4220   27.8200   13.0950 C.3   264  G264        0.1773
   5699  O4'       -0.1190   26.4500   13.4930 O.3   264  G264       -0.3307
   5700  C3'       -0.7940   28.4940   14.4040 C.3   264  G264        0.1860
   5701  O3'       -1.4740   29.7350   14.2610 O.3   264  G264       -0.3112
   5702  C2'       -1.5720   27.3990   15.1230 C.3   264  G264        0.2309
   5703  O2'       -2.8890   27.3660   14.6600 O.3   264  G264       -0.2156
   5704  C1'       -0.7960   26.1410   14.7090 C.3   264  G264        0.2408
   5705  N1        -0.0440   24.2640   19.3750 N.ar  264  G264       -0.1709
   5706  C2        -1.2170   24.4670   18.6950 C.ar  264  G264        0.2606
   5707  N2        -2.3390   24.1200   19.3420 N.pl3 264  G264       -0.0859
   5708  N3        -1.2860   24.9610   17.4650 N.ar  264  G264       -0.1918
   5709  C4        -0.0650   25.2500   16.9660 C.ar  264  G264        0.1723
   5710  C5         1.1680   25.0990   17.5680 C.ar  264  G264        0.1748
   5711  C6         1.2240   24.5610   18.8900 C.ar  264  G264        0.3023
   5712  O6         2.2160   24.3420   19.5960 O.2   264  G264       -0.2633
   5713  N7         2.1890   25.5020   16.7110 N.ar  264  G264       -0.2173
   5714  C8         1.5670   25.9010   15.6300 C.ar  264  G264        0.1817
   5715  N9         0.1980   25.7640   15.7140 N.ar  264  G264       -0.2693
   5716  OP1        3.5200   29.6310   11.3420 O.2   264  G264       -0.5172
   5717  OP2        4.3340   28.5540   13.5240 O.co2 264  G264       -0.4373
   5718  P         -0.9540   30.9430   15.1900 P.3   265  G265        0.2141
   5719  C5'       -2.9170   30.6050   16.9110 C.3   265  G265        0.1812
   5720  O5'       -1.5100   30.5930   16.6530 O.3   265  G265       -0.3114
   5721  C4'       -3.3530   29.6980   18.0490 C.3   265  G265        0.1773
   5722  O4'       -2.7340   28.3700   18.0530 O.3   265  G265       -0.3307
   5723  C3'       -3.1070   30.1840   19.4600 C.3   265  G265        0.1860
   5724  O3'       -3.9060   31.2950   19.8220 O.3   265  G265       -0.3112
   5725  C2'       -3.4130   28.9170   20.2540 C.3   265  G265        0.2309
   5726  O2'       -4.7940   28.6310   20.3670 O.3   265  G265       -0.2156
   5727  C1'       -2.6910   27.8660   19.4020 C.3   265  G265        0.2408
   5728  N1         0.6310   26.3080   22.9650 N.ar  265  G265       -0.1709
   5729  C2        -0.7370   26.2480   22.9750 C.ar  265  G265        0.2606
   5730  N2        -1.2760   25.7200   24.0740 N.pl3 265  G265       -0.0859
   5731  N3        -1.5120   26.6690   21.9790 N.ar  265  G265       -0.1918
   5732  C4        -0.7880   27.1750   20.9590 C.ar  265  G265        0.1723
   5733  C5         0.5860   27.2750   20.8470 C.ar  265  G265        0.1748
   5734  C6         1.4020   26.7870   21.9110 C.ar  265  G265        0.3023
   5735  O6         2.6410   26.7340   21.9780 O.2   265  G265       -0.2633
   5736  N7         0.9420   27.8360   19.6290 N.ar  265  G265       -0.2173
   5737  C8        -0.1970   28.0890   19.0440 C.ar  265  G265        0.1817
   5738  N9        -1.2870   27.6990   19.7880 N.ar  265  G265       -0.2693
   5739  OP1       -1.5470   32.1640   14.5810 O.2   265  G265       -0.5172
   5740  OP2        0.5120   30.9090   15.3470 O.co2 265  G265       -0.4373
   5741  P         -3.1760   32.5240   20.5430 P.3   266  G266        0.2141
   5742  C5'       -4.3890   31.6500   22.6920 C.3   266  G266        0.1812
   5743  O5'       -3.1760   32.0170   22.0540 O.3   266  G266       -0.3114
   5744  C4'       -4.0750   30.8410   23.9060 C.3   266  G266        0.1773
   5745  O4'       -3.2460   29.6950   23.5460 O.3   266  G266       -0.3307
   5746  C3'       -3.2100   31.5380   24.9290 C.3   266  G266        0.1860
   5747  O3'       -4.0360   32.3360   25.7130 O.3   266  G266       -0.3112
   5748  C2'       -2.7420   30.3550   25.7540 C.3   266  G266        0.2309
   5749  O2'       -3.8410   29.8520   26.4830 O.3   266  G266       -0.2156
   5750  C1'       -2.4050   29.3480   24.6480 C.3   266  G266        0.2408
   5751  N1         2.4250   28.2160   25.7390 N.ar  266  G266       -0.1709
   5752  C2         1.2910   27.9370   26.4460 C.ar  266  G266        0.2606
   5753  N2         1.4630   27.2550   27.5780 N.pl3 266  G266       -0.0859
   5754  N3         0.0760   28.2710   26.0550 N.ar  266  G266       -0.1918
   5755  C4         0.0890   28.9200   24.8750 C.ar  266  G266        0.1723
   5756  C5         1.1730   29.2590   24.0940 C.ar  266  G266        0.1748
   5757  C6         2.4650   28.8610   24.5120 C.ar  266  G266        0.3023
   5758  O6         3.5520   29.0130   23.9320 O.2   266  G266       -0.2633
   5759  N7         0.7670   29.9470   22.9600 N.ar  266  G266       -0.2173
   5760  C8        -0.5340   30.0100   23.0680 C.ar  266  G266        0.1817
   5761  N9        -1.0110   29.4090   24.2080 N.ar  266  G266       -0.2693
   5762  OP1       -4.1000   33.7000   20.4960 O.3   266  G266       -0.4373
   5763  OP2       -1.8010   32.6350   20.0020 O.co2 266  G266       -0.5172
   5764  P         -3.6280   33.8360   26.0820 P.3   267  G267        0.2141
   5765  C5'       -2.8690   32.8950   28.4280 C.3   267  G267        0.1812
   5766  O5'       -2.5860   33.7300   27.2840 O.3   267  G267       -0.3114
   5767  C4'       -1.7440   33.0130   29.4190 C.3   267  G267        0.1773
   5768  O4'       -0.7130   32.0250   29.0900 O.3   267  G267       -0.3307
   5769  C3'       -1.0600   34.3790   29.3920 C.3   267  G267        0.1860
   5770  O3'       -0.7410   34.8190   30.7080 O.3   267  G267       -0.3112
   5771  C2'        0.1940   34.1060   28.5650 C.3   267  G267        0.2309
   5772  O2'        1.2270   35.0550   28.7400 O.3   267  G267       -0.2156
   5773  C1'        0.5360   32.6840   29.0180 C.3   267  G267        0.2408
   5774  N1         4.6890   29.7720   28.6670 N.ar  267  G267       -0.1709
   5775  C2         3.9580   30.1200   29.7770 C.ar  267  G267        0.2606
   5776  N2         4.4060   29.6540   30.9500 N.pl3 267  G267       -0.0859
   5777  N3         2.8700   30.8780   29.7450 N.ar  267  G267       -0.1918
   5778  C4         2.5580   31.2560   28.4870 C.ar  267  G267        0.1723
   5779  C5         3.2170   30.9580   27.3110 C.ar  267  G267        0.1748
   5780  C6         4.3980   30.1650   27.3640 C.ar  267  G267        0.3023
   5781  O6         5.1440   29.8260   26.4340 O.2   267  G267       -0.2633
   5782  N7         2.5660   31.5250   26.2250 N.ar  267  G267       -0.2173
   5783  C8         1.5510   32.1570   26.7550 C.ar  267  G267        0.1817
   5784  N9         1.4610   31.9950   28.1150 N.ar  267  G267       -0.2693
   5785  OP1       -4.8910   34.3850   26.6900 O.3   267  G267       -0.4373
   5786  OP2       -3.0000   34.4370   24.8670 O.co2 267  G267       -0.5172
   5787  P         -0.6020   36.3910   31.1200 P.3   268  A268        0.2141
   5788  C5'       -2.6920   36.0520   32.6070 C.3   268  A268        0.1812
   5789  O5'       -1.3590   36.5310   32.5020 O.3   268  A268       -0.3114
   5790  C4'       -2.7750   35.0070   33.6820 C.3   268  A268        0.1773
   5791  O4'       -2.0220   33.8250   33.3100 O.3   268  A268       -0.3307
   5792  C3'       -2.1610   35.3610   35.0220 C.3   268  A268        0.1860
   5793  O3'       -3.0440   36.2390   35.7050 O.3   268  A268       -0.3112
   5794  C2'       -2.1310   33.9850   35.6530 C.3   268  A268        0.2309
   5795  O2'       -3.4910   33.6620   35.8070 O.3   268  A268       -0.2156
   5796  C1'       -1.5910   33.1490   34.4870 C.3   268  A268        0.2408
   5797  N1         2.5420   31.8700   37.2290 N.ar  268  A268       -0.2040
   5798  C2         1.2320   31.7360   37.4520 C.ar  268  A268        0.2016
   5799  N3         0.2070   32.0920   36.6850 N.ar  268  A268       -0.2048
   5800  C4         0.6410   32.6230   35.5310 C.ar  268  A268        0.1692
   5801  C5         1.9560   32.8190   35.1530 C.ar  268  A268        0.1518
   5802  C6         2.9460   32.4210   36.0660 C.ar  268  A268        0.1919
   5803  N6         4.2540   32.5750   35.8580 N.pl3 268  A268       -0.1054
   5804  N7         2.0230   33.4120   33.9000 N.ar  268  A268       -0.2193
   5805  C8         0.7660   33.5390   33.5450 C.ar  268  A268        0.1816
   5806  N9        -0.1240   33.0920   34.4910 N.ar  268  A268       -0.2693
   5807  OP1       -1.1010   37.0130   29.8650 O.2   268  A268       -0.5172
   5808  OP2        0.7360   36.7540   31.6520 O.co2 268  A268       -0.4373
   5809  P         -2.4820   37.5710   36.3900 P.3   269  G269        0.2141
   5810  C5'       -1.7640   36.9080   38.8370 C.3   269  G269        0.1812
   5811  O5'       -1.4010   37.1090   37.4690 O.3   269  G269       -0.3114
   5812  C4'       -0.6650   36.2120   39.6030 C.3   269  G269        0.1773
   5813  O4'       -0.2030   35.0450   38.8770 O.3   269  G269       -0.3307
   5814  C3'        0.5820   37.0390   39.8340 C.3   269  G269        0.1860
   5815  O3'        0.3850   37.8060   40.9910 O.3   269  G269       -0.3112
   5816  C2'        1.6410   35.9700   40.0370 C.3   269  G269        0.2309
   5817  O2'        1.7310   35.4570   41.3480 O.3   269  G269       -0.2156
   5818  C1'        1.2100   34.9430   38.9930 C.3   269  G269        0.2408
   5819  N1         5.5950   35.4080   36.5410 N.ar  269  G269       -0.1709
   5820  C2         5.3440   35.0100   37.8250 C.ar  269  G269        0.2606
   5821  N2         6.4080   34.7160   38.5730 N.pl3 269  G269       -0.0859
   5822  N3         4.1360   34.9140   38.3450 N.ar  269  G269       -0.1918
   5823  C4         3.1790   35.2770   37.4710 C.ar  269  G269        0.1723
   5824  C5         3.3190   35.7030   36.1700 C.ar  269  G269        0.1748
   5825  C6         4.6280   35.7830   35.6170 C.ar  269  G269        0.3023
   5826  O6         4.9710   36.1510   34.4860 O.2   269  G269       -0.2633
   5827  N7         2.0810   35.9950   35.6120 N.ar  269  G269       -0.2173
   5828  C8         1.2260   35.7110   36.5570 C.ar  269  G269        0.1817
   5829  N9         1.8270   35.2640   37.7090 N.ar  269  G269       -0.2693
   5830  OP1       -3.6980   38.0630   37.1230 O.3   269  G269       -0.4373
   5831  OP2       -1.7450   38.4560   35.4200 O.co2 269  G269       -0.5172
   5832  P          0.5880   39.3520   40.7930 P.3   270  G270        0.2141
   5833  C5'        2.9810   38.9250   41.9090 C.3   270  G270        0.1812
   5834  O5'        2.1660   39.5820   40.9180 O.3   270  G270       -0.3114
   5835  C4'        4.4010   38.8110   41.4140 C.3   270  G270        0.1773
   5836  O4'        4.4500   37.8400   40.3330 O.3   270  G270       -0.3307
   5837  C3'        4.9950   40.0660   40.8040 C.3   270  G270        0.1860
   5838  O3'        5.4710   40.9620   41.8020 O.3   270  G270       -0.3112
   5839  C2'        6.1040   39.4790   39.9400 C.3   270  G270        0.2309
   5840  O2'        7.1320   39.0200   40.7830 O.3   270  G270       -0.2156
   5841  C1'        5.4190   38.2340   39.3690 C.3   270  G270        0.2408
   5842  N1         6.0510   39.2320   34.4420 N.ar  270  G270       -0.1709
   5843  C2         6.9860   38.9550   35.4090 C.ar  270  G270        0.2606
   5844  N2         8.2550   38.9780   35.0190 N.pl3 270  G270       -0.0859
   5845  N3         6.6940   38.7060   36.6750 N.ar  270  G270       -0.1918
   5846  C4         5.3650   38.7330   36.8990 C.ar  270  G270        0.1723
   5847  C5         4.3450   38.9890   36.0050 C.ar  270  G270        0.1748
   5848  C6         4.6760   39.2670   34.6490 C.ar  270  G270        0.3023
   5849  O6         3.9190   39.4920   33.7020 O.2   270  G270       -0.2633
   5850  N7         3.1110   38.8860   36.6240 N.ar  270  G270       -0.2173
   5851  C8         3.3990   38.6080   37.8680 C.ar  270  G270        0.1817
   5852  N9         4.7480   38.4920   38.0980 N.ar  270  G270       -0.2693
   5853  OP1       -0.1580   39.9980   41.8950 O.3   270  G270       -0.4373
   5854  OP2        0.2620   39.6870   39.3820 O.co2 270  G270       -0.5172
   5855  P          5.5820   42.5280   41.4800 P.3   271  U271        0.2141
   5856  C5'        7.9020   42.4470   40.3990 C.3   271  U271        0.1812
   5857  O5'        6.5260   42.7630   40.2240 O.3   271  U271       -0.3114
   5858  C4'        8.6530   42.5990   39.1120 C.3   271  U271        0.1773
   5859  O4'        8.1730   41.6620   38.1140 O.3   271  U271       -0.3307
   5860  C3'        8.4990   43.9350   38.4360 C.3   271  U271        0.1860
   5861  O3'        9.4590   44.7630   39.0380 O.3   271  U271       -0.3112
   5862  C2'        8.9830   43.5960   37.0460 C.3   271  U271        0.2309
   5863  O2'       10.3590   43.3670   37.2210 O.3   271  U271       -0.2156
   5864  C1'        8.3090   42.2430   36.8260 C.3   271  U271        0.2420
   5865  N1         6.9800   42.3580   36.2030 N.ar  271  U271       -0.2534
   5866  C2         6.9540   42.6020   34.8490 C.ar  271  U271        0.3546
   5867  O2         7.9670   42.7220   34.1770 O.2   271  U271       -0.2443
   5868  N3         5.6990   42.7110   34.3080 N.ar  271  U271       -0.1530
   5869  C4         4.4970   42.5890   34.9590 C.ar  271  U271        0.2846
   5870  O4         3.4500   42.7290   34.3270 O.2   271  U271       -0.2650
   5871  C5         4.6060   42.3360   36.3600 C.ar  271  U271        0.0814
   5872  C6         5.8140   42.2520   36.9230 C.ar  271  U271        0.0870
   5873  OP1        6.2980   43.3460   42.4980 O.3   271  U271       -0.4373
   5874  OP2        4.2410   42.9410   41.0130 O.co2 271  U271       -0.5172
   5875  P          9.0670   46.2660   39.0910 P.3   272  C272        0.2141
   5876  C5'       10.2530   46.9950   36.8880 C.3   272  C272        0.1812
   5877  O5'        9.0750   46.5090   37.5210 O.3   272  C272       -0.3114
   5878  C4'        9.9920   47.1950   35.4180 C.3   272  C272        0.1773
   5879  O4'        9.1950   46.1090   34.8420 O.3   272  C272       -0.3307
   5880  C3'        9.2050   48.4380   35.0560 C.3   272  C272        0.1860
   5881  O3'       10.1120   49.5230   35.0360 O.3   272  C272       -0.3112
   5882  C2'        8.7920   48.1000   33.6310 C.3   272  C272        0.2309
   5883  O2'        9.9250   48.1840   32.7960 O.3   272  C272       -0.2156
   5884  C1'        8.3990   46.6260   33.7770 C.3   272  C272        0.2420
   5885  N1         6.9640   46.3990   34.0890 N.ar  272  C272       -0.2535
   5886  C2         6.0160   46.5350   33.0680 C.ar  272  C272        0.3532
   5887  O2         6.3910   46.8730   31.9370 O.2   272  C272       -0.2443
   5888  N3         4.7140   46.3210   33.3400 N.ar  272  C272       -0.1739
   5889  C4         4.3400   45.9800   34.5680 C.ar  272  C272        0.1759
   5890  N4         3.0450   45.7740   34.7830 N.pl3 272  C272       -0.1070
   5891  C5         5.2810   45.8220   35.6260 C.ar  272  C272        0.0566
   5892  C6         6.5720   46.0380   35.3440 C.ar  272  C272        0.0850
   5893  OP1       10.1360   47.1420   39.6250 O.2   272  C272       -0.5172
   5894  OP2        7.7160   46.3940   39.6650 O.co2 272  C272       -0.4373
   5895  P          9.7080   50.9440   35.6030 P.3   273  U273        0.2141
   5896  C5'        9.3510   51.3840   33.0730 C.3   273  U273        0.1812
   5897  O5'        8.8560   51.5530   34.4020 O.3   273  U273       -0.3114
   5898  C4'        8.4280   51.9890   32.0440 C.3   273  U273        0.1773
   5899  O4'        7.5770   50.9650   31.4450 O.3   273  U273       -0.3307
   5900  C3'        7.4510   53.0690   32.4880 C.3   273  U273        0.1860
   5901  O3'        8.1550   54.2730   32.4110 O.3   273  U273       -0.3112
   5902  C2'        6.4660   53.0350   31.3310 C.3   273  U273        0.2309
   5903  O2'        7.0770   53.4560   30.1100 O.3   273  U273       -0.2156
   5904  C1'        6.3030   51.5290   31.1700 C.3   273  U273        0.2420
   5905  N1         5.3290   50.9210   32.0800 N.ar  273  U273       -0.2534
   5906  C2         4.0080   50.9850   31.7130 C.ar  273  U273        0.3546
   5907  O2         3.6260   51.6190   30.7530 O.2   273  U273       -0.2443
   5908  N3         3.1430   50.3220   32.5390 N.ar  273  U273       -0.1530
   5909  C4         3.4610   49.6070   33.6680 C.ar  273  U273        0.2846
   5910  O4         2.5640   49.0680   34.3240 O.2   273  U273       -0.2650
   5911  C5         4.8660   49.5300   33.9390 C.ar  273  U273        0.0814
   5912  C6         5.7300   50.1640   33.1400 C.ar  273  U273        0.0870
   5913  OP1       10.9470   51.7560   35.5100 O.2   273  U273       -0.5172
   5914  OP2        8.9650   50.8070   36.8600 O.co2 273  U273       -0.4373
   5915  P          7.6100   55.5510   33.1050 P.3   274  G274        0.2141
   5916  C5'        6.1120   56.7510   31.2970 C.3   274  G274        0.1812
   5917  O5'        6.1870   56.0090   32.5540 O.3   274  G274       -0.3114
   5918  C4'        4.6870   56.8920   30.8110 C.3   274  G274        0.1773
   5919  O4'        4.0560   55.5930   30.6060 O.3   274  G274       -0.3307
   5920  C3'        3.7350   57.5370   31.7890 C.3   274  G274        0.1860
   5921  O3'        4.1010   58.8930   31.7090 O.3   274  G274       -0.3112
   5922  C2'        2.4120   57.1770   31.1430 C.3   274  G274        0.2309
   5923  O2'        2.4640   57.7100   29.8200 O.3   274  G274       -0.2156
   5924  C1'        2.6550   55.7010   30.8540 C.3   274  G274        0.2408
   5925  N1        -1.0530   53.1840   33.2220 N.ar  274  G274       -0.1709
   5926  C2        -1.1360   54.0350   32.1560 C.ar  274  G274        0.2606
   5927  N2        -2.3580   54.2320   31.6590 N.pl3 274  G274       -0.0859
   5928  N3        -0.0960   54.6420   31.6130 N.ar  274  G274       -0.1918
   5929  C4         1.0540   54.2980   32.2240 C.ar  274  G274        0.1723
   5930  C5         1.2400   53.4320   33.2770 C.ar  274  G274        0.1748
   5931  C6         0.1250   52.8100   33.8560 C.ar  274  G274        0.3023
   5932  O6         0.0960   52.0060   34.8020 O.2   274  G274       -0.2633
   5933  N7         2.5740   53.3680   33.6310 N.ar  274  G274       -0.2173
   5934  C8         3.1700   54.1630   32.7840 C.ar  274  G274        0.1817
   5935  N9         2.3020   54.7880   31.9300 N.ar  274  G274       -0.2693
   5936  OP1        8.6710   56.4550   32.5370 O.2   274  G274       -0.5172
   5937  OP2        7.4070   55.3470   34.5500 O.co2 274  G274       -0.4373
   5938  P          4.1980   59.7340   33.0480 P.3   275  G275        0.2141
   5939  C5'        1.6650   60.4630   33.0810 C.3   275  G275        0.1812
   5940  O5'        2.7670   59.8270   33.7350 O.3   275  G275       -0.3114
   5941  C4'        0.3990   59.8560   33.6130 C.3   275  G275        0.1773
   5942  O4'        0.4250   58.4300   33.3680 O.3   275  G275       -0.3307
   5943  C3'        0.2790   59.8520   35.1080 C.3   275  G275        0.1860
   5944  O3'        0.0570   61.1870   35.5870 O.3   275  G275       -0.3112
   5945  C2'       -0.8390   58.8340   35.2900 C.3   275  G275        0.2309
   5946  O2'       -2.1100   59.3850   35.0790 O.3   275  G275       -0.2156
   5947  C1'       -0.4780   57.7810   34.2370 C.3   275  G275        0.2408
   5948  N1        -0.7130   53.9010   37.5010 N.ar  275  G275       -0.1709
   5949  C2        -1.7370   54.5400   36.8590 C.ar  275  G275        0.2606
   5950  N2        -2.9690   54.1370   37.1900 N.pl3 275  G275       -0.0859
   5951  N3        -1.5680   55.5280   35.9960 N.ar  275  G275       -0.1918
   5952  C4        -0.2610   55.7890   35.7850 C.ar  275  G275        0.1723
   5953  C5         0.8350   55.2020   36.3730 C.ar  275  G275        0.1748
   5954  C6         0.6350   54.1710   37.3170 C.ar  275  G275        0.3023
   5955  O6         1.4830   53.5000   37.9130 O.2   275  G275       -0.2633
   5956  N7         2.0110   55.7530   35.8860 N.ar  275  G275       -0.2173
   5957  C8         1.6140   56.6820   35.0590 C.ar  275  G275        0.1817
   5958  N9         0.2510   56.7370   34.9260 N.ar  275  G275       -0.2693
   5959  OP1        4.7590   60.9370   32.3250 O.2   275  G275       -0.5172
   5960  OP2        4.9350   58.9940   34.1130 O.co2 275  G275       -0.4373
   5961  P          0.7040   61.7030   36.9900 P.3   276  A276        0.2141
   5962  C5'        0.9600   60.8110   39.4930 C.3   276  A276        0.1812
   5963  O5'        0.6800   60.5640   38.1030 O.3   276  A276       -0.3114
   5964  C4'       -0.2840   60.6130   40.3160 C.3   276  A276        0.1773
   5965  O4'       -1.2100   61.6070   39.8710 O.3   276  A276       -0.3307
   5966  C3'       -1.0940   59.3490   40.0760 C.3   276  A276        0.1860
   5967  O3'       -0.6920   58.2360   40.8400 O.3   276  A276       -0.3112
   5968  C2'       -2.4890   59.7400   40.5320 C.3   276  A276        0.2309
   5969  O2'       -2.4150   59.6990   41.9060 O.3   276  A276       -0.2156
   5970  C1'       -2.5110   61.2390   40.2700 C.3   276  A276        0.2408
   5971  N1        -7.3510   61.6230   38.5560 N.ar  276  A276       -0.2040
   5972  C2        -6.8390   61.0490   39.6530 C.ar  276  A276        0.2016
   5973  N3        -5.5770   60.9780   40.0500 N.ar  276  A276       -0.2048
   5974  C4        -4.7730   61.5670   39.1560 C.ar  276  A276        0.1692
   5975  C5        -5.1510   62.1880   37.9820 C.ar  276  A276        0.1518
   5976  C6        -6.5050   62.2080   37.6830 C.ar  276  A276        0.1919
   5977  N6        -6.9970   62.7530   36.5740 N.pl3 276  A276       -0.1054
   5978  N7        -4.0510   62.7120   37.3230 N.ar  276  A276       -0.2193
   5979  C8        -3.0420   62.3560   38.0770 C.ar  276  A276        0.1816
   5980  N9        -3.4100   61.6790   39.2140 N.ar  276  A276       -0.2693
   5981  OP1       -0.1790   62.6400   37.7190 O.3   276  A276       -0.4373
   5982  OP2        2.0430   62.0890   36.4820 O.co2 276  A276       -0.5172
   5983  P         -0.4070   56.8790   39.9470 P.3   277  A277        0.2141
   5984  C5'       -2.4390   55.8440   41.2090 C.3   277  A277        0.1812
   5985  O5'       -1.9380   56.4410   40.0080 O.3   277  A277       -0.3114
   5986  C4'       -3.9370   55.8850   41.1830 C.3   277  A277        0.1773
   5987  O4'       -4.3960   57.1940   40.7400 O.3   277  A277       -0.3307
   5988  C3'       -4.5680   54.9040   40.2140 C.3   277  A277        0.1860
   5989  O3'       -4.8430   53.7330   40.9720 O.3   277  A277       -0.3112
   5990  C2'       -5.8910   55.5780   39.8860 C.3   277  A277        0.2309
   5991  O2'       -6.7470   55.4560   41.0010 O.3   277  A277       -0.2156
   5992  C1'       -5.5290   57.0520   39.9160 C.3   277  A277        0.2408
   5993  N1        -7.4770   59.7070   36.0160 N.ar  277  A277       -0.2040
   5994  C2        -8.0350   59.1270   37.0840 C.ar  277  A277        0.2016
   5995  N3        -7.4660   58.4120   38.0490 N.ar  277  A277       -0.2048
   5996  C4        -6.1450   58.3230   37.8510 C.ar  277  A277        0.1692
   5997  C5        -5.4250   58.8630   36.8000 C.ar  277  A277        0.1518
   5998  C6        -6.1490   59.5810   35.8320 C.ar  277  A277        0.1919
   5999  N6        -5.6040   60.1350   34.7480 N.pl3 277  A277       -0.1054
   6000  N7        -4.0820   58.5340   36.9090 N.ar  277  A277       -0.2193
   6001  C8        -4.0180   57.8520   38.0310 C.ar  277  A277        0.1816
   6002  N9        -5.2330   57.6630   38.6330 N.ar  277  A277       -0.2693
   6003  OP1        0.2600   55.7570   40.7290 O.3   277  A277       -0.4373
   6004  OP2        0.1860   57.3170   38.6360 O.co2 277  A277       -0.5172
   6005  P         -5.1610   52.4490   40.0830 P.3   278  A278        0.2141
   6006  C5'       -7.8270   52.4870   39.9270 C.3   278  A278        0.1812
   6007  O5'       -6.5310   52.7950   39.3600 O.3   278  A278       -0.3114
   6008  C4'       -8.8260   52.9420   38.8970 C.3   278  A278        0.1773
   6009  O4'       -8.5350   54.3250   38.5610 O.3   278  A278       -0.3307
   6010  C3'       -8.7290   52.2550   37.5460 C.3   278  A278        0.1860
   6011  O3'       -9.6440   51.2060   37.6660 O.3   278  A278       -0.3112
   6012  C2'       -9.3530   53.2760   36.6210 C.3   278  A278        0.2309
   6013  O2'      -10.7530   53.3110   36.7810 O.3   278  A278       -0.2156
   6014  C1'       -8.8220   54.5780   37.2060 C.3   278  A278        0.2408
   6015  N1        -6.6430   57.4080   33.5220 N.ar  278  A278       -0.2040
   6016  C2        -7.9010   57.3280   33.9570 C.ar  278  A278        0.2016
   6017  N3        -8.4040   56.5920   34.9390 N.ar  278  A278       -0.2048
   6018  C4        -7.4480   55.8390   35.5060 C.ar  278  A278        0.1692
   6019  C5        -6.1230   55.7630   35.1240 C.ar  278  A278        0.1518
   6020  C6        -5.7100   56.6130   34.0930 C.ar  278  A278        0.1919
   6021  N6        -4.4530   56.6750   33.6430 N.pl3 278  A278       -0.1054
   6022  N7        -5.4400   54.8480   35.9070 N.ar  278  A278       -0.2193
   6023  C8        -6.3510   54.4030   36.7430 C.ar  278  A278        0.1816
   6024  N9        -7.5880   54.9570   36.5520 N.ar  278  A278       -0.2693
   6025  OP1       -5.4480   51.2310   40.8820 O.3   278  A278       -0.4373
   6026  OP2       -4.1190   52.4380   39.0100 O.co2 278  A278       -0.5172
   6027  P         -9.3610   49.8940   36.8750 P.3   279  C279        0.2141
   6028  C5'       -9.7290   50.8000   34.4790 C.3   279  C279        0.1812
   6029  O5'       -8.8280   50.2890   35.4360 O.3   279  C279       -0.3114
   6030  C4'       -8.9560   51.5600   33.4460 C.3   279  C279        0.1773
   6031  O4'       -8.0930   52.5500   34.0750 O.3   279  C279       -0.3307
   6032  C3'       -7.9970   50.7680   32.5690 C.3   279  C279        0.1860
   6033  O3'       -8.6750   50.0040   31.5910 O.3   279  C279       -0.3112
   6034  C2'       -7.1590   51.9040   31.9940 C.3   279  C279        0.2309
   6035  O2'       -7.8250   52.7410   31.0550 O.3   279  C279       -0.2156
   6036  C1'       -6.9300   52.7310   33.2670 C.3   279  C279        0.2420
   6037  N1        -5.7620   52.2310   34.0090 N.ar  279  C279       -0.2535
   6038  C2        -4.4930   52.6440   33.6050 C.ar  279  C279        0.3532
   6039  O2        -4.3960   53.4260   32.6530 O.2   279  C279       -0.2443
   6040  N3        -3.4070   52.1880   34.2650 N.ar  279  C279       -0.1739
   6041  C4        -3.5530   51.3170   35.2630 C.ar  279  C279        0.1759
   6042  N4        -2.4530   50.8840   35.8760 N.pl3 279  C279       -0.1070
   6043  C5        -4.8370   50.8670   35.6910 C.ar  279  C279        0.0566
   6044  C6        -5.9030   51.3250   35.0240 C.ar  279  C279        0.0850
   6045  OP1      -10.7460   49.3720   36.8910 O.2   279  C279       -0.5172
   6046  OP2       -8.2540   49.1180   37.5020 O.co2 279  C279       -0.4373
   6047  P         -7.9680   48.8740   30.7040 P.3   280  A280        0.2141
   6048  C5'       -7.0960   50.2570   28.6350 C.3   280  A280        0.1812
   6049  O5'       -6.8460   49.6840   29.9180 O.3   280  A280       -0.3114
   6050  C4'       -5.8700   51.0310   28.2200 C.3   280  A280        0.1773
   6051  O4'       -5.2600   51.5850   29.4110 O.3   280  A280       -0.3307
   6052  C3'       -4.7510   50.2030   27.6060 C.3   280  A280        0.1860
   6053  O3'       -4.9040   50.0400   26.2040 O.3   280  A280       -0.3112
   6054  C2'       -3.5160   51.0370   27.9090 C.3   280  A280        0.2309
   6055  O2'       -3.4350   52.2120   27.1940 O.3   280  A280       -0.2156
   6056  C1'       -3.8590   51.6360   29.2590 C.3   280  A280        0.2408
   6057  N1         0.5010   50.5510   31.7210 N.ar  280  A280       -0.2040
   6058  C2         0.2410   51.2810   30.6340 C.ar  280  A280        0.2016
   6059  N3        -0.9170   51.5030   30.0310 N.ar  280  A280       -0.2048
   6060  C4        -1.9160   50.8770   30.6780 C.ar  280  A280        0.1692
   6061  C5        -1.8040   50.0770   31.7950 C.ar  280  A280        0.1518
   6062  C6        -0.5190   49.9220   32.3380 C.ar  280  A280        0.1919
   6063  N6        -0.2560   49.2080   33.4320 N.pl3 280  A280       -0.1054
   6064  N7        -3.0490   49.6050   32.1890 N.ar  280  A280       -0.2193
   6065  C8        -3.8670   50.0970   31.2920 C.ar  280  A280        0.1816
   6066  N9        -3.2540   50.9060   30.3700 N.ar  280  A280       -0.2693
   6067  OP1       -8.9430   48.4830   29.6750 O.2   280  A280       -0.5172
   6068  OP2       -7.4000   47.8460   31.6210 O.co2 280  A280       -0.4373
   6069  P         -4.6270   48.5560   25.7310 P.3   281  G281        0.2141
   6070  C5'       -2.1250   48.0080   25.5570 C.3   281  G281        0.1812
   6071  O5'       -3.1840   48.8850   25.1620 O.3   281  G281       -0.3114
   6072  C4'       -0.8210   48.7500   25.6590 C.3   281  G281        0.1773
   6073  O4'       -0.7570   49.4030   26.9570 O.3   281  G281       -0.3307
   6074  C3'        0.3900   47.8340   25.6430 C.3   281  G281        0.1860
   6075  O3'        0.7610   47.5800   24.3010 O.3   281  G281       -0.3112
   6076  C2'        1.4120   48.6610   26.3920 C.3   281  G281        0.2309
   6077  O2'        1.8760   49.6550   25.4960 O.3   281  G281       -0.2156
   6078  C1'        0.5410   49.2610   27.4890 C.3   281  G281        0.2408
   6079  N1         3.0820   47.2480   31.3900 N.ar  281  G281       -0.1709
   6080  C2         3.5540   47.9650   30.3240 C.ar  281  G281        0.2606
   6081  N2         4.8810   48.1510   30.2820 N.pl3 281  G281       -0.0859
   6082  N3         2.7900   48.4280   29.3430 N.ar  281  G281       -0.1918
   6083  C4         1.4880   48.1270   29.5340 C.ar  281  G281        0.1723
   6084  C5         0.9100   47.4450   30.5820 C.ar  281  G281        0.1748
   6085  C6         1.7470   46.9630   31.6310 C.ar  281  G281        0.3023
   6086  O6         1.4250   46.3550   32.6660 O.2   281  G281       -0.2633
   6087  N7        -0.4700   47.3920   30.4310 N.ar  281  G281       -0.2173
   6088  C8        -0.6970   48.0140   29.3060 C.ar  281  G281        0.1817
   6089  N9         0.4470   48.4750   28.7060 N.ar  281  G281       -0.2693
   6090  OP1       -5.3880   48.3870   24.4930 O.2   281  G281       -0.5172
   6091  OP2       -4.5100   47.4680   26.7380 O.co2 281  G281       -0.4373
   6092  P          1.3820   46.1450   23.9240 P.3   282  A282        0.2141
   6093  C5'        3.8940   46.9750   24.2310 C.3   282  A282        0.1812
   6094  O5'        2.7600   46.2100   24.7260 O.3   282  A282       -0.3114
   6095  C4'        5.1140   46.7010   25.0860 C.3   282  A282        0.1773
   6096  O4'        4.8820   47.0730   26.4860 O.3   282  A282       -0.3307
   6097  C3'        5.5500   45.2440   25.2350 C.3   282  A282        0.1860
   6098  O3'        6.2990   44.7940   24.1680 O.3   282  A282       -0.3112
   6099  C2'        6.5130   45.3600   26.3970 C.3   282  A282        0.2309
   6100  O2'        7.6670   46.0150   25.8660 O.3   282  A282       -0.2156
   6101  C1'        5.6890   46.2550   27.3210 C.3   282  A282        0.2408
   6102  N1         5.0580   43.6270   31.6890 N.ar  282  A282       -0.2040
   6103  C2         6.1520   44.0650   31.0690 C.ar  282  A282        0.2016
   6104  N3         6.2640   44.7200   29.9160 N.ar  282  A282       -0.2048
   6105  C4         5.0560   44.9180   29.3690 C.ar  282  A282        0.1692
   6106  C5         3.8450   44.4890   29.8680 C.ar  282  A282        0.1518
   6107  C6         3.8650   43.8050   31.0920 C.ar  282  A282        0.1919
   6108  N6         2.7720   43.3620   31.7160 N.pl3 282  A282       -0.1054
   6109  N7         2.8100   44.8700   29.0290 N.ar  282  A282       -0.2193
   6110  C8         3.4160   45.4860   28.0380 C.ar  282  A282        0.1816
   6111  N9         4.7730   45.5550   28.1850 N.ar  282  A282       -0.2693
   6112  OP1        1.5720   46.2310   22.4480 O.2   282  A282       -0.5172
   6113  OP2        0.5530   45.1190   24.5680 O.co2 282  A282       -0.4373
   6114  P          6.1510   43.2830   23.6370 P.3   283  A283        0.2141
   6115  C5'        8.7620   42.8510   24.3250 C.3   283  A283        0.1812
   6116  O5'        7.3490   42.5400   24.4040 O.3   283  A283       -0.3114
   6117  C4'        9.4120   42.4720   25.6350 C.3   283  A283        0.1773
   6118  O4'        8.6370   43.0300   26.7210 O.3   283  A283       -0.3307
   6119  C3'        9.3940   41.0010   25.9990 C.3   283  A283        0.1860
   6120  O3'       10.4650   40.2680   25.4400 O.3   283  A283       -0.3112
   6121  C2'        9.6480   41.0610   27.4950 C.3   283  A283        0.2309
   6122  O2'       10.9730   41.4080   27.7730 O.3   283  A283       -0.2156
   6123  C1'        8.8240   42.2740   27.9070 C.3   283  A283        0.2408
   6124  N1         6.1410   40.3080   31.8740 N.ar  283  A283       -0.2040
   6125  C2         7.4300   40.6330   31.7430 C.ar  283  A283        0.2016
   6126  N3         8.0660   41.1400   30.6970 N.ar  283  A283       -0.2048
   6127  C4         7.2200   41.3450   29.6790 C.ar  283  A283        0.1692
   6128  C5         5.8670   41.0790   29.6680 C.ar  283  A283        0.1518
   6129  C6         5.3180   40.5100   30.8250 C.ar  283  A283        0.1919
   6130  N6         4.0260   40.1930   30.9550 N.pl3 283  A283       -0.1054
   6131  N7         5.3110   41.4100   28.4410 N.ar  283  A283       -0.2193
   6132  C8         6.3320   41.8380   27.7360 C.ar  283  A283        0.1816
   6133  N9         7.5120   41.8680   28.4370 N.ar  283  A283       -0.2693
   6134  OP1        6.4540   43.4130   22.1530 O.2   283  A283       -0.5172
   6135  OP2        4.8880   42.6350   24.1630 O.co2 283  A283       -0.4373
   6136  P         10.2180   38.7590   24.8770 P.3   284  G284        0.2141
   6137  C5'       10.9450   37.8700   27.2700 C.3   284  G284        0.1812
   6138  O5'        9.9170   38.1610   26.3250 O.3   284  G284       -0.3114
   6139  C4'       10.2920   37.3980   28.5450 C.3   284  G284        0.1773
   6140  O4'        9.2830   38.3760   28.9430 O.3   284  G284       -0.3307
   6141  C3'        9.5090   36.0880   28.5100 C.3   284  G284        0.1860
   6142  O3'       10.2600   34.8870   28.6520 O.3   284  G284       -0.3112
   6143  C2'        8.6450   36.2430   29.7540 C.3   284  G284        0.2309
   6144  O2'        9.3180   36.1740   30.9900 O.3   284  G284       -0.2156
   6145  C1'        8.2530   37.7200   29.6760 C.3   284  G284        0.2408
   6146  N1         3.2350   37.2900   30.0200 N.ar  284  G284       -0.1709
   6147  C2         4.1950   37.0640   30.9690 C.ar  284  G284        0.2606
   6148  N2         3.7620   36.6920   32.1730 N.pl3 284  G284       -0.0859
   6149  N3         5.4850   37.2200   30.7590 N.ar  284  G284       -0.1918
   6150  C4         5.7440   37.6170   29.4980 C.ar  284  G284        0.1723
   6151  C5         4.8590   37.8370   28.4690 C.ar  284  G284        0.1748
   6152  C6         3.4850   37.6750   28.7100 C.ar  284  G284        0.3023
   6153  O6         2.5530   37.7920   27.9180 O.2   284  G284       -0.2633
   6154  N7         5.5270   38.2120   27.3150 N.ar  284  G284       -0.2173
   6155  C8         6.7880   38.1950   27.6530 C.ar  284  G284        0.1817
   6156  N9         6.9850   37.8730   28.9730 N.ar  284  G284       -0.2693
   6157  OP1       11.4640   38.2120   24.2670 O.3   284  G284       -0.4373
   6158  OP2        8.9540   38.6150   24.0750 O.co2 284  G284       -0.5172
   6159  P         10.2560   33.7200   27.4870 P.3   285  U285        0.2141
   6160  C5'        9.4940   31.6680   28.9850 C.3   285  U285        0.1812
   6161  O5'        9.1500   32.8330   28.2180 O.3   285  U285       -0.3114
   6162  C4'        9.5800   32.0210   30.4410 C.3   285  U285        0.1773
   6163  O4'        8.5070   32.9340   30.7200 O.3   285  U285       -0.3307
   6164  C3'        9.3940   30.8680   31.4160 C.3   285  U285        0.1860
   6165  O3'       10.0160   31.2660   32.6370 O.3   285  U285       -0.3112
   6166  C2'        7.8870   30.8580   31.6230 C.3   285  U285        0.2309
   6167  O2'        7.4800   30.3350   32.8760 O.3   285  U285       -0.2156
   6168  C1'        7.6180   32.3520   31.6560 C.3   285  U285        0.2420
   6169  N1         6.2530   32.7840   31.3360 N.ar  285  U285       -0.2534
   6170  C2         5.4560   33.0960   32.4020 C.ar  285  U285        0.3546
   6171  O2         5.8230   32.9610   33.5470 O.2   285  U285       -0.2443
   6172  N3         4.1990   33.5410   32.0770 N.ar  285  U285       -0.1530
   6173  C4         3.6840   33.7420   30.8110 C.ar  285  U285        0.2846
   6174  O4         2.5330   34.1540   30.6840 O.2   285  U285       -0.2650
   6175  C5         4.5780   33.4090   29.7510 C.ar  285  U285        0.0814
   6176  C6         5.7990   32.9370   30.0420 C.ar  285  U285        0.0870
   6177  OP1       11.6500   33.1400   27.2860 O.3   285  U285       -0.4373
   6178  OP2        9.4610   34.0140   26.2740 O.co2 285  U285       -0.5172
   6179  P         11.4900   30.6810   32.9980 P.3   286  C286        0.2141
   6180  C5'       10.2270   28.8300   34.3080 C.3   286  C286        0.1812
   6181  O5'       11.1490   29.1550   33.2780 O.3   286  C286       -0.3114
   6182  C4'        9.4950   27.6060   33.8830 C.3   286  C286        0.1773
   6183  O4'        8.8000   27.8450   32.6340 O.3   286  C286       -0.3307
   6184  C3'       10.4080   26.4370   33.6110 C.3   286  C286        0.1860
   6185  O3'        9.7540   25.3350   34.2180 O.3   286  C286       -0.3112
   6186  C2'       10.5190   26.4380   32.0910 C.3   286  C286        0.2309
   6187  O2'       10.8290   25.1660   31.5780 O.3   286  C286       -0.2156
   6188  C1'        9.1070   26.8300   31.7120 C.3   286  C286        0.2420
   6189  N1         8.8810   27.4120   30.3890 N.ar  286  C286       -0.2535
   6190  C2         7.6130   27.9150   30.1540 C.ar  286  C286        0.3532
   6191  O2         6.7600   27.7920   31.0340 O.2   286  C286       -0.2443
   6192  N3         7.3350   28.5030   28.9750 N.ar  286  C286       -0.1739
   6193  C4         8.2810   28.6120   28.0510 C.ar  286  C286        0.1759
   6194  N4         7.9550   29.1980   26.9010 N.pl3 286  C286       -0.1070
   6195  C5         9.5990   28.1060   28.2590 C.ar  286  C286        0.0566
   6196  C6         9.8580   27.5340   29.4410 C.ar  286  C286        0.0850
   6197  OP1       11.9660   31.2000   34.3150 O.3   286  C286       -0.4373
   6198  OP2       12.3620   30.7080   31.8010 O.co2 286  C286       -0.5172
   6199  P         10.9050   24.3700   34.5350 P.3   287  A287        0.2141
   6200  C5'       10.0700   21.9770   34.6160 C.3   287  A287        0.1812
   6201  O5'       10.2450   23.2130   35.3820 O.3   287  A287       -0.3114
   6202  C4'       11.2780   21.0040   34.5830 C.3   287  A287        0.1773
   6203  O4'       12.4720   21.4540   33.8670 O.3   287  A287       -0.3307
   6204  C3'       11.8200   20.5480   35.9280 C.3   287  A287        0.1860
   6205  O3'       10.7550   19.8100   36.5240 O.3   287  A287       -0.3112
   6206  C2'       13.1500   19.9030   35.5310 C.3   287  A287        0.2309
   6207  O2'       13.0510   18.6070   34.9800 O.3   287  A287       -0.2156
   6208  C1'       13.6480   20.8850   34.4740 C.3   287  A287        0.2408
   6209  N1        17.9370   22.2730   37.0950 N.ar  287  A287       -0.2040
   6210  C2        17.4780   21.0720   36.7130 C.ar  287  A287        0.2016
   6211  N3        16.3650   20.7640   36.0370 N.ar  287  A287       -0.2048
   6212  C4        15.6690   21.8770   35.7340 C.ar  287  A287        0.1692
   6213  C5        16.0140   23.1800   36.0550 C.ar  287  A287        0.1518
   6214  C6        17.2120   23.3710   36.7780 C.ar  287  A287        0.1919
   6215  N6        17.6510   24.5690   37.1800 N.pl3 287  A287       -0.1054
   6216  N7        15.0560   24.0690   35.5920 N.ar  287  A287       -0.2193
   6217  C8        14.1760   23.3030   34.9960 C.ar  287  A287        0.1816
   6218  N9        14.4770   21.9640   35.0460 N.ar  287  A287       -0.2693
   6219  OP1       11.9860   25.0820   35.2690 O.3   287  A287       -0.4373
   6220  OP2       11.1800   23.7650   33.1940 O.co2 287  A287       -0.5172
   6221  P         10.8050   20.1520   38.0400 P.3   288  G288        0.2141
   6222  C5'       12.9040   19.7320   39.6690 C.3   288  G288        0.1812
   6223  O5'       12.3040   19.7070   38.3590 O.3   288  G288       -0.3114
   6224  C4'       12.6520   18.4420   40.4320 C.3   288  G288        0.1773
   6225  O4'       13.2800   17.3050   39.7880 O.3   288  G288       -0.3307
   6226  C3'       13.1840   18.4890   41.8520 C.3   288  G288        0.1860
   6227  O3'       12.0440   18.7870   42.6460 O.3   288  G288       -0.3112
   6228  C2'       13.7140   17.0860   42.1290 C.3   288  G288        0.2309
   6229  O2'       12.7830   16.2600   42.7740 O.3   288  G288       -0.2156
   6230  C1'       13.9840   16.5330   40.7380 C.3   288  G288        0.2408
   6231  N1        18.3830   13.9830   40.8050 N.ar  288  G288       -0.1709
   6232  C2        17.1530   13.6150   41.2970 C.ar  288  G288        0.2606
   6233  N2        17.0870   12.4180   41.8790 N.pl3 288  G288       -0.0859
   6234  N3        16.0670   14.3630   41.2130 N.ar  288  G288       -0.1918
   6235  C4        16.3170   15.5510   40.6230 C.ar  288  G288        0.1723
   6236  C5        17.5050   16.0210   40.1050 C.ar  288  G288        0.1748
   6237  C6        18.6610   15.1930   40.1730 C.ar  288  G288        0.3023
   6238  O6        19.8000   15.4120   39.7230 O.2   288  G288       -0.2633
   6239  N7        17.3360   17.2850   39.5560 N.ar  288  G288       -0.2173
   6240  C8        16.0750   17.5550   39.7490 C.ar  288  G288        0.1817
   6241  N9        15.3970   16.5430   40.3820 N.ar  288  G288       -0.2693
   6242  OP1        9.8180   19.2120   38.6620 O.3   288  G288       -0.4373
   6243  OP2       10.7950   21.6280   38.2800 O.co2 288  G288       -0.5172
   6244  P         12.2270   19.9720   43.6690 P.3   289  C289        0.2141
   6245  C5'       12.7570   18.0650   45.4020 C.3   289  C289        0.1812
   6246  O5'       13.1280   19.3250   44.8110 O.3   289  C289       -0.3114
   6247  C4'       13.9490   17.4250   46.0740 C.3   289  C289        0.1773
   6248  O4'       14.9540   17.0900   45.0720 O.3   289  C289       -0.3307
   6249  C3'       14.6620   18.2760   47.1260 C.3   289  C289        0.1860
   6250  O3'       15.1350   17.4910   48.2110 O.3   289  C289       -0.3112
   6251  C2'       15.8840   18.7730   46.3680 C.3   289  C289        0.2309
   6252  O2'       17.0470   18.9960   47.1290 O.3   289  C289       -0.2156
   6253  C1'       16.2090   17.5470   45.5290 C.3   289  C289        0.2420
   6254  N1        17.0790   17.8490   44.3880 N.ar  289  C289       -0.2535
   6255  C2        17.7550   16.8030   43.7610 C.ar  289  C289        0.3532
   6256  O2        17.5570   15.6450   44.1490 O.2   289  C289       -0.2443
   6257  N3        18.5780   17.0770   42.7250 N.ar  289  C289       -0.1739
   6258  C4        18.7690   18.3400   42.3410 C.ar  289  C289        0.1759
   6259  N4        19.5920   18.5640   41.3200 N.pl3 289  C289       -0.1070
   6260  C5        18.1090   19.4280   42.9770 C.ar  289  C289        0.0566
   6261  C6        17.2890   19.1410   43.9950 C.ar  289  C289        0.0850
   6262  OP1       10.8210   20.1730   44.0910 O.3   289  C289       -0.4373
   6263  OP2       13.0230   21.0760   43.0800 O.co2 289  C289       -0.5172
   6264  P         15.3130   17.9890   49.7340 P.3   290  A290        0.2141
   6265  C5'       13.4280   16.3790   50.6470 C.3   290  A290        0.1812
   6266  O5'       13.8110   17.6640   50.1500 O.3   290  A290       -0.3114
   6267  C4'       12.0700   16.4880   51.2800 C.3   290  A290        0.1773
   6268  O4'       12.2110   17.0480   52.6100 O.3   290  A290       -0.3307
   6269  C3'       11.1010   17.4140   50.5620 C.3   290  A290        0.1860
   6270  O3'       10.3660   16.5740   49.6970 O.3   290  A290       -0.3112
   6271  C2'       10.1990   17.8770   51.6930 C.3   290  A290        0.2309
   6272  O2'        9.2450   16.8750   51.9950 O.3   290  A290       -0.2156
   6273  C1'       11.1910   17.9890   52.8480 C.3   290  A290        0.2408
   6274  N1        10.9080   22.7770   54.7290 N.ar  290  A290       -0.2040
   6275  C2        10.0860   21.7270   54.8340 C.ar  290  A290        0.2016
   6276  N3        10.2070   20.5060   54.3170 N.ar  290  A290       -0.2048
   6277  C4        11.3520   20.3980   53.6220 C.ar  290  A290        0.1692
   6278  C5        12.3030   21.3840   53.4360 C.ar  290  A290        0.1518
   6279  C6        12.0490   22.6350   54.0230 C.ar  290  A290        0.1919
   6280  N6        12.8850   23.6670   53.9490 N.pl3 290  A290       -0.1054
   6281  N7        13.3650   20.9030   52.6850 N.ar  290  A290       -0.2193
   6282  C8        13.0370   19.6600   52.4360 C.ar  290  A290        0.1816
   6283  N9        11.8230   19.2940   52.9540 N.ar  290  A290       -0.2693
   6284  OP1       15.4800   19.4790   49.7950 O.2   290  A290       -0.5172
   6285  OP2       16.2330   17.1090   50.5260 O.co2 290  A290       -0.4373
   6286  P          9.7720   17.0590   48.3080 P.3   291  G291        0.2141
   6287  C5'        7.2920   16.2470   48.8150 C.3   291  G291        0.1812
   6288  O5'        8.2290   17.3150   48.5940 O.3   291  G291       -0.3114
   6289  C4'        5.9750   16.8870   49.1460 C.3   291  G291        0.1773
   6290  O4'        6.1800   17.6680   50.3440 O.3   291  G291       -0.3307
   6291  C3'        5.4940   17.8380   48.0560 C.3   291  G291        0.1860
   6292  O3'        4.3440   17.4310   47.3200 O.3   291  G291       -0.3112
   6293  C2'        5.5410   19.2290   48.6870 C.3   291  G291        0.2309
   6294  O2'        4.4860   20.0700   48.2560 O.3   291  G291       -0.2156
   6295  C1'        5.6150   18.9380   50.1910 C.3   291  G291        0.2408
   6296  N1         6.3510   21.7090   54.4130 N.ar  291  G291       -0.1709
   6297  C2         5.3880   20.7650   54.1560 C.ar  291  G291        0.2606
   6298  N2         4.5000   20.5520   55.1340 N.pl3 291  G291       -0.0859
   6299  N3         5.2980   20.0880   53.0190 N.ar  291  G291       -0.1918
   6300  C4         6.2700   20.4350   52.1480 C.ar  291  G291        0.1723
   6301  C5         7.2780   21.3650   52.3100 C.ar  291  G291        0.1748
   6302  C6         7.3520   22.0900   53.5250 C.ar  291  G291        0.3023
   6303  O6         8.1820   22.9370   53.8630 O.2   291  G291       -0.2633
   6304  N7         8.0900   21.4120   51.1880 N.ar  291  G291       -0.2173
   6305  C8         7.5560   20.5510   50.3650 C.ar  291  G291        0.1817
   6306  N9         6.4610   19.9090   50.8900 N.ar  291  G291       -0.2693
   6307  OP1        9.9170   15.8560   47.4430 O.2   291  G291       -0.5172
   6308  OP2       10.3570   18.3700   47.9260 O.co2 291  G291       -0.4373
   6309  P          2.7990   17.4700   47.7150 P.3   292  A292        0.2141
   6310  C5'        1.7070   15.1050   48.1140 C.3   292  A292        0.1812
   6311  O5'        2.4960   16.1980   48.6240 O.3   292  A292       -0.3114
   6312  C4'        0.4950   14.8850   48.9840 C.3   292  A292        0.1773
   6313  O4'        0.8760   15.0480   50.3810 O.3   292  A292       -0.3307
   6314  C3'       -0.6490   15.8790   48.8080 C.3   292  A292        0.1860
   6315  O3'       -1.5490   15.6280   47.7320 O.3   292  A292       -0.3112
   6316  C2'       -1.3670   15.7370   50.1400 C.3   292  A292        0.2309
   6317  O2'       -2.1140   14.5410   50.1440 O.3   292  A292       -0.2156
   6318  C1'       -0.1820   15.6690   51.1020 C.3   292  A292        0.2408
   6319  N1        -1.2600   19.7900   53.9820 N.ar  292  A292       -0.2040
   6320  C2        -1.8750   18.6070   53.8350 C.ar  292  A292        0.2016
   6321  N3        -1.5340   17.5680   53.0740 N.ar  292  A292       -0.2048
   6322  C4        -0.4030   17.8300   52.3960 C.ar  292  A292        0.1692
   6323  C5         0.3490   18.9900   52.4530 C.ar  292  A292        0.1518
   6324  C6        -0.1220   20.0160   53.2880 C.ar  292  A292        0.1919
   6325  N6         0.4970   21.1890   53.4400 N.pl3 292  A292       -0.1054
   6326  N7         1.4610   18.8940   51.6320 N.ar  292  A292       -0.2193
   6327  C8         1.3530   17.7040   51.0950 C.ar  292  A292        0.1816
   6328  N9         0.2540   17.0010   51.5210 N.ar  292  A292       -0.2693
   6329  OP1        2.0930   17.1770   46.4490 O.2   292  A292       -0.5172
   6330  OP2        2.4840   18.7320   48.4260 O.co2 292  A292       -0.4373
   6331  P         -2.2290   16.9300   47.0650 P.3   293  A293        0.2141
   6332  C5'       -4.4890   16.7930   48.3830 C.3   293  A293        0.1812
   6333  O5'       -3.2600   17.5020   48.1380 O.3   293  A293       -0.3114
   6334  C4'       -5.1190   17.1830   49.7020 C.3   293  A293        0.1773
   6335  O4'       -4.1180   17.5180   50.7060 O.3   293  A293       -0.3307
   6336  C3'       -5.9950   18.4280   49.6930 C.3   293  A293        0.1860
   6337  O3'       -7.2140   18.2820   48.9730 O.3   293  A293       -0.3112
   6338  C2'       -6.1140   18.6980   51.1870 C.3   293  A293        0.2309
   6339  O2'       -6.9050   17.7710   51.9030 O.3   293  A293       -0.2156
   6340  C1'       -4.6690   18.4650   51.6240 C.3   293  A293        0.2408
   6341  N1        -3.7370   22.9770   53.9150 N.ar  293  A293       -0.2040
   6342  C2        -4.6080   21.9950   54.1770 C.ar  293  A293        0.2016
   6343  N3        -4.7950   20.8390   53.5390 N.ar  293  A293       -0.2048
   6344  C4        -3.9540   20.7330   52.4950 C.ar  293  A293        0.1692
   6345  C5        -2.9990   21.6550   52.1030 C.ar  293  A293        0.1518
   6346  C6        -2.8970   22.8330   52.8670 C.ar  293  A293        0.1919
   6347  N6        -2.0240   23.8100   52.6120 N.pl3 293  A293       -0.1054
   6348  N7        -2.3100   21.2020   50.9870 N.ar  293  A293       -0.2193
   6349  C8        -2.8600   20.0400   50.7260 C.ar  293  A293        0.1816
   6350  N9        -3.8570   19.6900   51.6040 N.ar  293  A293       -0.2693
   6351  OP1       -3.0550   16.4830   45.9160 O.2   293  A293       -0.5172
   6352  OP2       -1.1480   17.9310   46.8510 O.co2 293  A293       -0.4373
   6353  P         -7.5670   19.3370   47.8100 P.3   294  G294        0.2141
   6354  C5'       -8.5230   21.2220   49.3920 C.3   294  G294        0.1812
   6355  O5'       -7.4880   20.7760   48.4910 O.3   294  G294       -0.3114
   6356  C4'       -8.1020   22.4880   50.1020 C.3   294  G294        0.1773
   6357  O4'       -6.7860   22.3080   50.6900 O.3   294  G294       -0.3307
   6358  C3'       -7.9360   23.7180   49.2270 C.3   294  G294        0.1860
   6359  O3'       -9.1740   24.3410   48.9240 O.3   294  G294       -0.3112
   6360  C2'       -7.0250   24.5860   50.0820 C.3   294  G294        0.2309
   6361  O2'       -7.6670   25.2780   51.1240 O.3   294  G294       -0.2156
   6362  C1'       -6.0820   23.5360   50.6670 C.3   294  G294        0.2408
   6363  N1        -1.8800   25.7560   48.9210 N.ar  294  G294       -0.1709
   6364  C2        -2.7960   26.2160   49.8340 C.ar  294  G294        0.2606
   6365  N2        -2.5620   27.4310   50.3440 N.pl3 294  G294       -0.0859
   6366  N3        -3.8680   25.5400   50.2080 N.ar  294  G294       -0.1918
   6367  C4        -3.9410   24.3330   49.6040 C.ar  294  G294        0.1723
   6368  C5        -3.0760   23.7750   48.6880 C.ar  294  G294        0.1748
   6369  C6        -1.9380   24.5210   48.2810 C.ar  294  G294        0.3023
   6370  O6        -1.0550   24.2030   47.4770 O.2   294  G294       -0.2633
   6371  N7        -3.5110   22.5140   48.3040 N.ar  294  G294       -0.2173
   6372  C8        -4.6090   22.3270   48.9860 C.ar  294  G294        0.1817
   6373  N9        -4.9160   23.3830   49.8100 N.ar  294  G294       -0.2693
   6374  OP1       -8.9860   19.0270   47.4820 O.3   294  G294       -0.4373
   6375  OP2       -6.5210   19.3180   46.7430 O.co2 294  G294       -0.5172
   6376  P         -9.3150   24.9820   47.4690 P.3   295  U295        0.2141
   6377  C5'       -8.7400   27.1730   48.7190 C.3   295  U295        0.1812
   6378  O5'       -8.4120   26.2780   47.6510 O.3   295  U295       -0.3114
   6379  C4'       -7.8030   28.3370   48.7340 C.3   295  U295        0.1773
   6380  O4'       -6.4540   27.8690   48.9760 O.3   295  U295       -0.3307
   6381  C3'       -7.6920   29.0720   47.4170 C.3   295  U295        0.1860
   6382  O3'       -8.8320   29.9150   47.2610 O.3   295  U295       -0.3112
   6383  C2'       -6.3610   29.7840   47.5980 C.3   295  U295        0.2309
   6384  O2'       -6.4410   30.8190   48.5470 O.3   295  U295       -0.2156
   6385  C1'       -5.5380   28.7070   48.2980 C.3   295  U295        0.2420
   6386  N1        -4.7270   27.8880   47.3840 N.ar  295  U295       -0.2534
   6387  C2        -3.5370   28.4310   46.9310 C.ar  295  U295        0.3546
   6388  O2        -3.1540   29.5430   47.2520 O.2   295  U295       -0.2443
   6389  N3        -2.8140   27.6220   46.0890 N.ar  295  U295       -0.1530
   6390  C4        -3.1400   26.3500   45.6680 C.ar  295  U295        0.2846
   6391  O4        -2.3760   25.7480   44.9080 O.2   295  U295       -0.2650
   6392  C5        -4.3860   25.8540   46.1800 C.ar  295  U295        0.0814
   6393  C6        -5.1190   26.6220   47.0000 C.ar  295  U295        0.0870
   6394  OP1      -10.7390   25.4000   47.3250 O.3   295  U295       -0.4373
   6395  OP2       -8.7140   24.0520   46.4780 O.co2 295  U295       -0.5172
   6396  P         -9.5670   30.1750   45.8450 P.3   296  C296        0.2141
   6397  C5'       -8.1730   32.3730   45.8750 C.3   296  C296        0.1812
   6398  O5'       -8.5130   31.1620   45.1700 O.3   296  C296       -0.3114
   6399  C4'       -7.3530   33.3040   45.0170 C.3   296  C296        0.1773
   6400  O4'       -5.9360   33.0680   45.2460 O.3   296  C296       -0.3307
   6401  C3'       -7.5220   33.1720   43.5130 C.3   296  C296        0.1860
   6402  O3'       -8.6650   33.8970   43.0660 O.3   296  C296       -0.3112
   6403  C2'       -6.2220   33.7900   43.0200 C.3   296  C296        0.2309
   6404  O2'       -6.2560   35.1920   43.1560 O.3   296  C296       -0.2156
   6405  C1'       -5.2260   33.2330   44.0350 C.3   296  C296        0.2420
   6406  N1        -4.6570   31.9320   43.6350 N.ar  296  C296       -0.2535
   6407  C2        -3.3960   31.9180   43.0200 C.ar  296  C296        0.3532
   6408  O2        -2.7920   32.9910   42.8670 O.2   296  C296       -0.2443
   6409  N3        -2.8670   30.7370   42.6180 N.ar  296  C296       -0.1739
   6410  C4        -3.5410   29.6020   42.8200 C.ar  296  C296        0.1759
   6411  N4        -2.9750   28.4640   42.4230 N.pl3 296  C296       -0.1070
   6412  C5        -4.8240   29.5850   43.4450 C.ar  296  C296        0.0566
   6413  C6        -5.3440   30.7640   43.8250 C.ar  296  C296        0.0850
   6414  OP1      -10.7540   31.0380   46.0980 O.3   296  C296       -0.4373
   6415  OP2       -9.7360   28.8750   45.1310 O.co2 296  C296       -0.5172
   6416  P         -9.5650   33.4210   41.8110 P.3   297  A297        0.2141
   6417  C5'       -7.9790   35.0250   40.3890 C.3   297  A297        0.1812
   6418  O5'       -8.6450   33.7520   40.5540 O.3   297  A297       -0.3114
   6419  C4'       -7.1200   34.9870   39.1520 C.3   297  A297        0.1773
   6420  O4'       -5.8030   34.4840   39.5090 O.3   297  A297       -0.3307
   6421  C3'       -7.6160   34.0440   38.0550 C.3   297  A297        0.1860
   6422  O3'       -8.6260   34.6530   37.2610 O.3   297  A297       -0.3112
   6423  C2'       -6.3180   33.6850   37.3340 C.3   297  A297        0.2309
   6424  O2'       -5.8260   34.6760   36.4460 O.3   297  A297       -0.2156
   6425  C1'       -5.3530   33.5670   38.5150 C.3   297  A297        0.2408
   6426  N1        -3.5060   28.7260   38.3870 N.ar  297  A297       -0.2040
   6427  C2        -3.2400   29.7970   37.6310 C.ar  297  A297        0.2016
   6428  N3        -3.7400   31.0310   37.7080 N.ar  297  A297       -0.2048
   6429  C4        -4.6260   31.1210   38.7130 C.ar  297  A297        0.1692
   6430  C5        -4.9970   30.1100   39.5790 C.ar  297  A297        0.1518
   6431  C6        -4.3960   28.8550   39.3930 C.ar  297  A297        0.1919
   6432  N6        -4.6660   27.7910   40.1510 N.pl3 297  A297       -0.1054
   6433  N7        -5.9360   30.5660   40.4910 N.ar  297  A297       -0.2193
   6434  C8        -6.1030   31.8240   40.1690 C.ar  297  A297        0.1816
   6435  N9        -5.3530   32.2250   39.0950 N.ar  297  A297       -0.2693
   6436  OP1      -10.7290   34.3680   41.7380 O.3   297  A297       -0.4373
   6437  OP2       -9.7600   31.9380   41.6910 O.co2 297  A297       -0.5172
   6438  P         -9.4130   33.8800   36.1020 P.3   298  U298        0.2141
   6439  C5'       -7.9330   34.6630   34.0790 C.3   298  U298        0.1812
   6440  O5'       -8.3970   33.5750   34.9090 O.3   298  U298       -0.3114
   6441  C4'       -6.9910   34.1810   33.0000 C.3   298  U298        0.1773
   6442  O4'       -5.7530   33.6800   33.5770 O.3   298  U298       -0.3307
   6443  C3'       -7.5090   33.0650   32.1060 C.3   298  U298        0.1860
   6444  O3'       -8.1940   33.6030   30.9750 O.3   298  U298       -0.3112
   6445  C2'       -6.2190   32.4130   31.6190 C.3   298  U298        0.2309
   6446  O2'       -5.7200   33.0000   30.4320 O.3   298  U298       -0.2156
   6447  C1'       -5.3030   32.5690   32.8350 C.3   298  U298        0.2420
   6448  N1        -5.3470   31.3900   33.7050 N.ar  298  U298       -0.2534
   6449  C2        -4.2920   30.5060   33.6220 C.ar  298  U298        0.3546
   6450  O2        -3.3510   30.6700   32.8740 O.2   298  U298       -0.2443
   6451  N3        -4.3870   29.4150   34.4460 N.ar  298  U298       -0.1530
   6452  C4        -5.3980   29.1230   35.3280 C.ar  298  U298        0.2846
   6453  O4        -5.3280   28.1010   36.0090 O.2   298  U298       -0.2650
   6454  C5        -6.4560   30.0890   35.3610 C.ar  298  U298        0.0814
   6455  C6        -6.3990   31.1590   34.5610 C.ar  298  U298        0.0870
   6456  OP1      -10.3000   34.8440   35.4100 O.2   298  U298       -0.5172
   6457  OP2       -9.9710   32.6220   36.6340 O.co2 298  U298       -0.4373
   6458  P         -9.2830   32.7160   30.2390 P.3   299  A299        0.2141
   6459  C5'      -11.3560   32.0090   31.6250 C.3   299  A299        0.1812
   6460  O5'       -9.9530   32.1940   31.5810 O.3   299  A299       -0.3114
   6461  C4'      -11.6700   30.8620   32.5340 C.3   299  A299        0.1773
   6462  O4'      -10.7930   29.7470   32.2280 O.3   299  A299       -0.3307
   6463  C3'      -11.4700   31.1590   34.0180 C.3   299  A299        0.1860
   6464  O3'      -12.4830   30.4740   34.7600 O.3   299  A299       -0.3112
   6465  C2'      -10.1370   30.4990   34.2970 C.3   299  A299        0.2309
   6466  O2'       -9.9450   30.1720   35.6490 O.3   299  A299       -0.2156
   6467  C1'      -10.2690   29.2480   33.4360 C.3   299  A299        0.2408
   6468  N1        -7.2270   25.3870   34.8340 N.ar  299  A299       -0.2040
   6469  C2        -8.4840   25.7100   35.1520 C.ar  299  A299        0.2016
   6470  N3        -9.2210   26.7340   34.7340 N.ar  299  A299       -0.2048
   6471  C4        -8.5320   27.4870   33.8600 C.ar  299  A299        0.1692
   6472  C5        -7.2320   27.2840   33.4350 C.ar  299  A299        0.1518
   6473  C6        -6.5540   26.1770   33.9700 C.ar  299  A299        0.1919
   6474  N6        -5.2980   25.8540   33.6560 N.pl3 299  A299       -0.1054
   6475  N7        -6.8490   28.2730   32.5400 N.ar  299  A299       -0.2193
   6476  C8        -7.9070   29.0400   32.4470 C.ar  299  A299        0.1816
   6477  N9        -8.9710   28.6080   33.2000 N.ar  299  A299       -0.2693
   6478  OP1       -8.6590   31.5950   29.5010 O.2   299  A299       -0.5172
   6479  OP2      -10.2020   33.6250   29.5390 O.co2 299  A299       -0.4373
   6480  P        -13.9110   31.1340   35.1850 P.3   300  G300        0.2141
   6481  C5'      -15.1070   28.8390   34.8190 C.3   300  G300        0.1812
   6482  O5'      -14.9150   30.1890   34.3950 O.3   300  G300       -0.3114
   6483  C4'      -14.5370   27.8980   33.8060 C.3   300  G300        0.1773
   6484  O4'      -13.8620   26.8490   34.5350 O.3   300  G300       -0.3307
   6485  C3'      -15.5630   27.2120   32.9030 C.3   300  G300        0.1860
   6486  O3'      -15.0910   27.2440   31.5600 O.3   300  G300       -0.3112
   6487  C2'      -15.6420   25.7940   33.4640 C.3   300  G300        0.2309
   6488  O2'      -15.8970   24.8330   32.4620 O.3   300  G300       -0.2156
   6489  C1'      -14.2210   25.6030   33.9840 C.3   300  G300        0.2408
   6490  N1       -11.2690   21.8330   35.6690 N.ar  300  G300       -0.1709
   6491  C2       -11.0910   22.6710   34.5950 C.ar  300  G300        0.2606
   6492  N2        -9.9800   22.4760   33.8700 N.pl3 300  G300       -0.0859
   6493  N3       -11.9440   23.6230   34.2520 N.ar  300  G300       -0.1918
   6494  C4       -13.0000   23.6840   35.0920 C.ar  300  G300        0.1723
   6495  C5       -13.2690   22.9010   36.1950 C.ar  300  G300        0.1748
   6496  C6       -12.3450   21.8740   36.5480 C.ar  300  G300        0.3023
   6497  O6       -12.3960   21.0780   37.4940 O.2   300  G300       -0.2633
   6498  N7       -14.4580   23.2940   36.7990 N.ar  300  G300       -0.2173
   6499  C8       -14.8890   24.2790   36.0570 C.ar  300  G300        0.1817
   6500  N9       -14.0520   24.5680   35.0050 N.ar  300  G300       -0.2693
   6501  OP1      -14.0580   32.4470   34.5180 O.2   300  G300       -0.5172
   6502  OP2      -13.9940   31.0360   36.6680 O.co2 300  G300       -0.4373
   6503  P        -15.6300   26.4440   30.2460 P.3   301  U301        0.2141
   6504  C5'      -14.8820   28.7670   29.2580 C.3   301  U301        0.1812
   6505  O5'      -14.9780   27.3250   29.0870 O.3   301  U301       -0.3114
   6506  C4'      -13.6720   29.3450   28.5470 C.3   301  U301        0.1773
   6507  O4'      -12.5990   29.6520   29.4910 O.3   301  U301       -0.3307
   6508  C3'      -13.0120   28.4520   27.5120 C.3   301  U301        0.1860
   6509  O3'      -13.6350   28.6200   26.2540 O.3   301  U301       -0.3112
   6510  C2'      -11.6260   29.0550   27.4460 C.3   301  U301        0.2309
   6511  O2'      -11.8460   30.3040   26.8280 O.3   301  U301       -0.2156
   6512  C1'      -11.3470   29.2940   28.9280 C.3   301  U301        0.2420
   6513  N1       -10.7890   28.1520   29.6830 N.ar  301  U301       -0.2534
   6514  C2        -9.4880   27.7560   29.4040 C.ar  301  U301        0.3546
   6515  O2        -8.8090   28.2700   28.5330 O.2   301  U301       -0.2443
   6516  N3        -9.0200   26.7250   30.1800 N.ar  301  U301       -0.1530
   6517  C4        -9.6910   26.0620   31.1860 C.ar  301  U301        0.2846
   6518  O4        -9.1280   25.1420   31.7870 O.2   301  U301       -0.2650
   6519  C5       -11.0260   26.5290   31.4170 C.ar  301  U301        0.0814
   6520  C6       -11.5170   27.5330   30.6770 C.ar  301  U301        0.0870
   6521  OP1      -17.0990   26.6160   30.1530 O.2   301  U301       -0.5172
   6522  OP2      -15.0650   25.0800   30.2140 O.co2 301  U301       -0.4373
   6523  P        -13.7300   27.3240   25.3310 P.3   302  A302        0.2141
   6524  C5'      -11.4340   27.9680   24.2130 C.3   302  A302        0.1812
   6525  O5'      -12.1940   27.0460   25.0220 O.3   302  A302       -0.3114
   6526  C4'      -10.0690   27.3950   23.9370 C.3   302  A302        0.1773
   6527  O4'       -9.3100   27.3100   25.1770 O.3   302  A302       -0.3307
   6528  C3'      -10.0640   25.9670   23.4140 C.3   302  A302        0.1860
   6529  O3'      -10.2680   26.0220   22.0140 O.3   302  A302       -0.3112
   6530  C2'       -8.6610   25.5340   23.7750 C.3   302  A302        0.2309
   6531  O2'       -7.8090   26.3010   22.9560 O.3   302  A302       -0.2156
   6532  C1'       -8.5210   26.1380   25.1660 C.3   302  A302        0.2408
   6533  N1        -7.2790   22.3910   28.4550 N.ar  302  A302       -0.2040
   6534  C2        -6.5830   23.0040   27.4910 C.ar  302  A302        0.2016
   6535  N3        -6.9620   23.9800   26.6670 N.ar  302  A302       -0.2048
   6536  C4        -8.2430   24.3200   26.8950 C.ar  302  A302        0.1692
   6537  C5        -9.0860   23.7770   27.8450 C.ar  302  A302        0.1518
   6538  C6        -8.5600   22.7590   28.6590 C.ar  302  A302        0.1919
   6539  N6        -9.2570   22.1420   29.6140 N.pl3 302  A302       -0.1054
   6540  N7       -10.3330   24.3770   27.7920 N.ar  302  A302       -0.2193
   6541  C8       -10.2200   25.2540   26.8260 C.ar  302  A302        0.1816
   6542  N9        -8.9840   25.2720   26.2380 N.ar  302  A302       -0.2693
   6543  OP1      -14.3150   27.8370   24.0640 O.2   302  A302       -0.5172
   6544  OP2      -14.3510   26.1620   26.0550 O.co2 302  A302       -0.4373
   6545  P        -10.5380   24.6780   21.2010 P.3   303  C303        0.2141
   6546  C5'       -8.9310   22.5580   21.0090 C.3   303  C303        0.1812
   6547  O5'       -9.1120   23.9680   21.2610 O.3   303  C303       -0.3114
   6548  C4'       -8.5390   21.8610   22.2870 C.3   303  C303        0.1773
   6549  O4'       -9.0750   22.5800   23.4220 O.3   303  C303       -0.3307
   6550  C3'       -9.1580   20.4930   22.4660 C.3   303  C303        0.1860
   6551  O3'       -8.6130   19.5520   21.5440 O.3   303  C303       -0.3112
   6552  C2'       -9.0420   20.2700   23.9740 C.3   303  C303        0.2309
   6553  O2'       -7.8490   19.7430   24.4990 O.3   303  C303       -0.2156
   6554  C1'       -9.1700   21.6940   24.5150 C.3   303  C303        0.2420
   6555  N1       -10.4480   21.9150   25.1840 N.ar  303  C303       -0.2535
   6556  C2       -10.6750   21.2640   26.3990 C.ar  303  C303        0.3532
   6557  O2        -9.7800   20.5490   26.8670 O.2   303  C303       -0.2443
   6558  N3       -11.8560   21.4380   27.0360 N.ar  303  C303       -0.1739
   6559  C4       -12.7930   22.2220   26.4970 C.ar  303  C303        0.1759
   6560  N4       -13.9400   22.3680   27.1620 N.pl3 303  C303       -0.1070
   6561  C5       -12.5940   22.8890   25.2510 C.ar  303  C303        0.0566
   6562  C6       -11.4160   22.7090   24.6340 C.ar  303  C303        0.0850
   6563  OP1      -10.7850   25.0170   19.7670 O.2   303  C303       -0.5172
   6564  OP2      -11.4880   23.8290   21.9800 O.co2 303  C303       -0.4373
   6565  P         -9.6800   18.7520   20.6240 P.3   304  C304        0.2141
   6566  C5'       -8.9460   17.0670   22.5220 C.3   304  C304        0.1812
   6567  O5'      -10.0160   17.6300   21.7130 O.3   304  C304       -0.3114
   6568  C4'       -9.4360   16.0330   23.5190 C.3   304  C304        0.1773
   6569  O4'       -9.7670   16.6730   24.7850 O.3   304  C304       -0.3307
   6570  C3'      -10.6870   15.2500   23.1650 C.3   304  C304        0.1860
   6571  O3'      -10.3980   14.1870   22.2630 O.3   304  C304       -0.3112
   6572  C2'      -11.1320   14.7890   24.5430 C.3   304  C304        0.2309
   6573  O2'      -10.1690   13.9260   25.1010 O.3   304  C304       -0.2156
   6574  C1'      -10.9200   16.0670   25.3450 C.3   304  C304        0.2420
   6575  N1       -12.0370   17.0300   25.2750 N.ar  304  C304       -0.2535
   6576  C2       -13.0290   16.9840   26.2640 C.ar  304  C304        0.3532
   6577  O2       -12.9450   16.1270   27.1590 O.2   304  C304       -0.2443
   6578  N3       -14.0450   17.8830   26.2250 N.ar  304  C304       -0.1739
   6579  C4       -14.0960   18.7910   25.2450 C.ar  304  C304        0.1759
   6580  N4       -15.1180   19.6520   25.2390 N.pl3 304  C304       -0.1070
   6581  C5       -13.1010   18.8560   24.2250 C.ar  304  C304        0.0566
   6582  C6       -12.0960   17.9690   24.2820 C.ar  304  C304        0.0850
   6583  OP1       -8.9760   18.2110   19.4310 O.2   304  C304       -0.5172
   6584  OP2      -10.9130   19.5550   20.4250 O.co2 304  C304       -0.4373
   6585  P        -11.4330   13.8210   21.0790 P.3   305  C305        0.2141
   6586  C5'      -11.9990   11.7090   22.5670 C.3   305  C305        0.1812
   6587  O5'      -12.4610   12.9110   21.8980 O.3   305  C305       -0.3114
   6588  C4'      -13.0860   11.0590   23.3990 C.3   305  C305        0.1773
   6589  O4'      -13.3660   11.8640   24.5710 O.3   305  C305       -0.3307
   6590  C3'      -14.4500   10.8850   22.7500 C.3   305  C305        0.1860
   6591  O3'      -14.5240    9.7720   21.8660 O.3   305  C305       -0.3112
   6592  C2'      -15.3610   10.7150   23.9630 C.3   305  C305        0.2309
   6593  O2'      -15.4550    9.4150   24.5080 O.3   305  C305       -0.2156
   6594  C1'      -14.7120   11.6620   24.9720 C.3   305  C305        0.2420
   6595  N1       -15.3860   12.9630   25.0080 N.ar  305  C305       -0.2535
   6596  C2       -16.4060   13.1670   25.9450 C.ar  305  C305        0.3532
   6597  O2       -16.6960   12.2470   26.7260 O.2   305  C305       -0.2443
   6598  N3       -17.0390   14.3630   25.9830 N.ar  305  C305       -0.1739
   6599  C4       -16.6890   15.3290   25.1300 C.ar  305  C305        0.1759
   6600  N4       -17.3360   16.4920   25.2040 N.pl3 305  C305       -0.1070
   6601  C5       -15.6610   15.1440   24.1590 C.ar  305  C305        0.0566
   6602  C6       -15.0440   13.9560   24.1320 C.ar  305  C305        0.0850
   6603  OP1      -10.6920   12.9410   20.1270 O.2   305  C305       -0.5172
   6604  OP2      -12.0940   15.0660   20.5720 O.co2 305  C305       -0.4373
   6605  P        -15.5100    9.9240   20.6180 P.3   306  U306        0.2141
   6606  C5'      -17.2580    8.4440   22.0150 C.3   306  U306        0.1812
   6607  O5'      -16.9510    9.6330   21.2430 O.3   306  U306       -0.3114
   6608  C4'      -18.5940    8.5820   22.7350 C.3   306  U306        0.1773
   6609  O4'      -18.4740    9.5230   23.8440 O.3   306  U306       -0.3307
   6610  C3'      -19.7700    9.1050   21.9140 C.3   306  U306        0.1860
   6611  O3'      -20.4120    8.1360   21.0900 O.3   306  U306       -0.3112
   6612  C2'      -20.6800    9.6880   22.9930 C.3   306  U306        0.2309
   6613  O2'      -21.5230    8.7590   23.6470 O.3   306  U306       -0.2156
   6614  C1'      -19.6520   10.3180   23.9360 C.3   306  U306        0.2420
   6615  N1       -19.3130   11.7070   23.5730 N.ar  306  U306       -0.2534
   6616  C2       -20.2070   12.7090   23.9140 C.ar  306  U306        0.3546
   6617  O2       -21.2500   12.4960   24.5100 O.2   306  U306       -0.2443
   6618  N3       -19.8320   13.9720   23.5230 N.ar  306  U306       -0.1530
   6619  C4       -18.6850   14.3330   22.8450 C.ar  306  U306        0.2846
   6620  O4       -18.4880   15.5180   22.5710 O.2   306  U306       -0.2650
   6621  C5       -17.8130   13.2430   22.5290 C.ar  306  U306        0.0814
   6622  C6       -18.1460   11.9990   22.8970 C.ar  306  U306        0.0870
   6623  OP1      -15.1760    8.9210   19.5740 O.2   306  U306       -0.5172
   6624  OP2      -15.4780   11.3700   20.2640 O.co2 306  U306       -0.4373
   6625  P        -21.0940    8.5940   19.7020 P.3   307  G307        0.2141
   6626  C5'      -23.6170    9.3100   19.4760 C.3   307  G307        0.1812
   6627  O5'      -22.6310    8.4800   20.1060 O.3   307  G307       -0.3114
   6628  C4'      -24.6230    9.7670   20.4960 C.3   307  G307        0.1773
   6629  O4'      -23.9280   10.2100   21.6990 O.3   307  G307       -0.3307
   6630  C3'      -25.4730   10.9530   20.0670 C.3   307  G307        0.1860
   6631  O3'      -26.6520   10.5730   19.3700 O.3   307  G307       -0.3112
   6632  C2'      -25.7540   11.6360   21.3960 C.3   307  G307        0.2309
   6633  O2'      -26.7700   10.9740   22.1240 O.3   307  G307       -0.2156
   6634  C1'      -24.3890   11.5000   22.0670 C.3   307  G307        0.2408
   6635  N1       -23.5080   16.2320   20.3840 N.ar  307  G307       -0.1709
   6636  C2       -24.6980   15.6510   20.7470 C.ar  307  G307        0.2606
   6637  N2       -25.7880   16.4260   20.6510 N.pl3 307  G307       -0.0859
   6638  N3       -24.8110   14.4030   21.1740 N.ar  307  G307       -0.1918
   6639  C4       -23.6170   13.7720   21.2110 C.ar  307  G307        0.1723
   6640  C5       -22.3740   14.2630   20.8700 C.ar  307  G307        0.1748
   6641  C6       -22.2670   15.6020   20.4160 C.ar  307  G307        0.3023
   6642  O6       -21.2540   16.2190   20.0690 O.2   307  G307       -0.2633
   6643  N7       -21.3960   13.2940   21.0470 N.ar  307  G307       -0.2173
   6644  C8       -22.0490   12.2500   21.4770 C.ar  307  G307        0.1817
   6645  N9       -23.3980   12.4720   21.6090 N.ar  307  G307       -0.2693
   6646  OP1      -20.7830    7.5910   18.6480 O.2   307  G307       -0.5172
   6647  OP2      -20.8430   10.0320   19.4270 O.co2 307  G307       -0.4373
   6648  P        -27.0820   11.5400   18.1710 P.3   308  U308        0.2141
   6649  C5'      -28.2380   13.9020   18.5330 C.3   308  U308        0.1812
   6650  O5'      -27.2480   12.9340   18.9290 O.3   308  U308       -0.3114
   6651  C4'      -27.6240   14.9400   17.6210 C.3   308  U308        0.1773
   6652  O4'      -26.2090   15.0500   17.8840 O.3   308  U308       -0.3307
   6653  C3'      -27.7270   14.6550   16.1220 C.3   308  U308        0.1860
   6654  O3'      -28.8200   15.3670   15.5380 O.3   308  U308       -0.3112
   6655  C2'      -26.3600   15.0680   15.5410 C.3   308  U308        0.2309
   6656  O2'      -26.4150   16.0760   14.5530 O.3   308  U308       -0.2156
   6657  C1'      -25.6020   15.6160   16.7540 C.3   308  U308        0.2420
   6658  N1       -24.1700   15.2780   16.7610 N.ar  308  U308       -0.2534
   6659  C2       -23.2660   16.3190   16.6460 C.ar  308  U308        0.3546
   6660  O2       -23.6080   17.4870   16.5560 O.2   308  U308       -0.2443
   6661  N3       -21.9460   15.9380   16.6470 N.ar  308  U308       -0.1530
   6662  C4       -21.4440   14.6560   16.7440 C.ar  308  U308        0.2846
   6663  O4       -20.2230   14.4780   16.7330 O.2   308  U308       -0.2650
   6664  C5       -22.4430   13.6340   16.8550 C.ar  308  U308        0.0814
   6665  C6       -23.7390   13.9720   16.8570 C.ar  308  U308        0.0870
   6666  OP1      -28.4150   11.0930   17.6930 O.3   308  U308       -0.4373
   6667  OP2      -25.9440   11.6200   17.2110 O.co2 308  U308       -0.5172
   6668  P        -29.8970   14.7420   14.5140 P.3   309  U309        0.2141
   6669  C5'      -31.1460   16.7790   13.3680 C.3   309  U309        0.1812
   6670  O5'      -30.0280   15.8690   13.3920 O.3   309  U309       -0.3114
   6671  C4'      -30.6880   18.2120   13.5420 C.3   309  U309        0.1773
   6672  O4'      -31.8630   19.0370   13.7330 O.3   309  U309       -0.3307
   6673  C3'      -29.7860   18.5010   14.7440 C.3   309  U309        0.1860
   6674  O3'      -28.8180   19.5450   14.5660 O.3   309  U309       -0.3112
   6675  C2'      -30.7850   18.8260   15.8520 C.3   309  U309        0.2309
   6676  O2'      -30.3950   19.7550   16.8430 O.3   309  U309       -0.2156
   6677  C1'      -31.9300   19.4710   15.0780 C.3   309  U309        0.2420
   6678  N1       -33.2160   19.0560   15.6510 N.ar  309  U309       -0.2534
   6679  C2       -33.8210   19.9250   16.5410 C.ar  309  U309        0.3546
   6680  O2       -33.3580   21.0190   16.8160 O.2   309  U309       -0.2443
   6681  N3       -35.0020   19.4720   17.0750 N.ar  309  U309       -0.1530
   6682  C4       -35.6170   18.2610   16.8370 C.ar  309  U309        0.2846
   6683  O4       -36.6830   18.0020   17.3990 O.2   309  U309       -0.2650
   6684  C5       -34.9140   17.4060   15.9270 C.ar  309  U309        0.0814
   6685  C6       -33.7590   17.8170   15.3890 C.ar  309  U309        0.0870
   6686  OP1      -31.1970   14.6420   15.2350 O.3   309  U309       -0.4373
   6687  OP2      -29.3100   13.5340   13.8720 O.co2 309  U309       -0.5172
   6688  P        -27.5610   19.7940   15.5760 P.3   310  C310        0.2141
   6689  C5'      -25.9090   21.8590   15.6560 C.3   310  C310        0.1812
   6690  O5'      -27.2160   21.3330   15.3550 O.3   310  C310       -0.3114
   6691  C4'      -25.4680   22.7980   14.5580 C.3   310  C310        0.1773
   6692  O4'      -24.3670   22.2060   13.8300 O.3   310  C310       -0.3307
   6693  C3'      -26.5500   23.1640   13.5430 C.3   310  C310        0.1860
   6694  O3'      -26.8420   24.5560   13.6610 O.3   310  C310       -0.3112
   6695  C2'      -25.9760   22.7600   12.1750 C.3   310  C310        0.2309
   6696  O2'      -25.5700   23.8640   11.3900 O.3   310  C310       -0.2156
   6697  C1'      -24.7920   21.8520   12.5340 C.3   310  C310        0.2420
   6698  N1       -25.0390   20.3920   12.4960 N.ar  310  C310       -0.2535
   6699  C2       -23.9760   19.5160   12.7720 C.ar  310  C310        0.3532
   6700  O2       -22.8640   19.9880   13.0490 O.2   310  C310       -0.2443
   6701  N3       -24.1930   18.1810   12.7330 N.ar  310  C310       -0.1739
   6702  C4       -25.4030   17.7100   12.4220 C.ar  310  C310        0.1759
   6703  N4       -25.5680   16.3860   12.3920 N.pl3 310  C310       -0.1070
   6704  C5       -26.4990   18.5770   12.1310 C.ar  310  C310        0.0566
   6705  C6       -26.2730   19.8970   12.1730 C.ar  310  C310        0.0850
   6706  OP1      -26.3980   18.9810   15.1280 O.2   310  C310       -0.5172
   6707  OP2      -27.9940   19.7070   16.9950 O.co2 310  C310       -0.4373
   6708  P        -27.9750   25.1110   14.6670 P.3   311  G311        0.2141
   6709  C5'      -27.3830   27.0980   16.3370 C.3   311  G311        0.1812
   6710  O5'      -27.5020   26.6020   14.9860 O.3   311  G311       -0.3114
   6711  C4'      -26.1470   26.5230   16.9970 C.3   311  G311        0.1773
   6712  O4'      -24.9730   26.8150   16.1970 O.3   311  G311       -0.3307
   6713  C3'      -25.8520   27.0020   18.4130 C.3   311  G311        0.1860
   6714  O3'      -25.4430   25.9330   19.2550 O.3   311  G311       -0.3112
   6715  C2'      -24.7360   28.0320   18.2430 C.3   311  G311        0.2309
   6716  O2'      -23.8120   28.0080   19.3130 O.3   311  G311       -0.2156
   6717  C1'      -24.0640   27.6080   16.9340 C.3   311  G311        0.2408
   6718  N1       -24.3410   32.6340   16.2030 N.ar  311  G311       -0.1709
   6719  C2       -24.8740   31.8720   17.2140 C.ar  311  G311        0.2606
   6720  N2       -25.5710   32.5340   18.1490 N.pl3 311  G311       -0.0859
   6721  N3       -24.7350   30.5590   17.3010 N.ar  311  G311       -0.1918
   6722  C4       -24.0040   30.0590   16.2790 C.ar  311  G311        0.1723
   6723  C5       -23.4270   30.7330   15.2230 C.ar  311  G311        0.1748
   6724  C6       -23.5870   32.1420   15.1410 C.ar  311  G311        0.3023
   6725  O6       -23.1510   32.9190   14.2820 O.2   311  G311       -0.2633
   6726  N7       -22.7580   29.8530   14.3830 N.ar  311  G311       -0.2173
   6727  C8       -22.9340   28.6830   14.9330 C.ar  311  G311        0.1817
   6728  N9       -23.6750   28.7360   16.0900 N.ar  311  G311       -0.2693
   6729  OP1      -28.0000   24.3120   15.9210 O.3   311  G311       -0.4373
   6730  OP2      -29.2130   25.2170   13.8580 O.co2 311  G311       -0.5172
   6731  P        -26.1710   25.7960   20.6660 P.3   312  C312        0.2141
   6732  C5'      -28.1890   24.2140   21.3530 C.3   312  C312        0.1812
   6733  O5'      -27.2940   24.7120   20.3370 O.3   312  C312       -0.3114
   6734  C4'      -27.6660   22.9150   21.9170 C.3   312  C312        0.1773
   6735  O4'      -27.2340   22.0600   20.8270 O.3   312  C312       -0.3307
   6736  C3'      -26.4380   23.0400   22.8100 C.3   312  C312        0.1860
   6737  O3'      -26.8040   23.3880   24.1480 O.3   312  C312       -0.3112
   6738  C2'      -25.7890   21.6630   22.6870 C.3   312  C312        0.2309
   6739  O2'      -26.3890   20.7120   23.5350 O.3   312  C312       -0.2156
   6740  C1'      -26.1530   21.2490   21.2580 C.3   312  C312        0.2420
   6741  N1       -25.0560   21.3370   20.2690 N.ar  312  C312       -0.2535
   6742  C2       -24.2440   20.2150   20.0560 C.ar  312  C312        0.3532
   6743  O2       -24.4540   19.1860   20.7170 O.2   312  C312       -0.2443
   6744  N3       -23.2520   20.2830   19.1370 N.ar  312  C312       -0.1739
   6745  C4       -23.0590   21.4090   18.4450 C.ar  312  C312        0.1759
   6746  N4       -22.0700   21.4300   17.5510 N.pl3 312  C312       -0.1070
   6747  C5       -23.8730   22.5620   18.6390 C.ar  312  C312        0.0566
   6748  C6       -24.8530   22.4820   19.5480 C.ar  312  C312        0.0850
   6749  OP1      -26.8610   27.0740   20.9670 O.2   312  C312       -0.5172
   6750  OP2      -25.1590   25.2700   21.6180 O.co2 312  C312       -0.4373
   6751  P        -25.8420   24.1700   25.1820 P.3   313  A313        0.2141
   6752  C5'      -25.4450   21.9810   26.5960 C.3   313  A313        0.1812
   6753  O5'      -26.0460   23.2850   26.4920 O.3   313  A313       -0.3114
   6754  C4'      -26.4990   20.9000   26.5990 C.3   313  A313        0.1773
   6755  O4'      -26.3460   20.0810   25.4110 O.3   313  A313       -0.3307
   6756  C3'      -26.3850   19.9010   27.7410 C.3   313  A313        0.1860
   6757  O3'      -27.0050   20.4460   28.8970 O.3   313  A313       -0.3112
   6758  C2'      -27.0960   18.6780   27.1760 C.3   313  A313        0.2309
   6759  O2'      -28.4950   18.8280   27.2290 O.3   313  A313       -0.2156
   6760  C1'      -26.7060   18.7400   25.7000 C.3   313  A313        0.2408
   6761  N1       -22.1320   18.1550   23.3110 N.ar  313  A313       -0.2040
   6762  C2       -22.8990   19.2350   23.5110 C.ar  313  A313        0.2016
   6763  N3       -24.0710   19.3340   24.1350 N.ar  313  A313       -0.2048
   6764  C4       -24.4650   18.1340   24.5990 C.ar  313  A313        0.1692
   6765  C5       -23.7840   16.9340   24.4730 C.ar  313  A313        0.1518
   6766  C6       -22.5550   16.9640   23.7900 C.ar  313  A313        0.1919
   6767  N6       -21.7890   15.8880   23.5930 N.pl3 313  A313       -0.1054
   6768  N7       -24.4900   15.9020   25.0750 N.ar  313  A313       -0.2193
   6769  C8       -25.5650   16.4890   25.5450 C.ar  313  A313        0.1816
   6770  N9       -25.6110   17.8410   25.3040 N.ar  313  A313       -0.2693
   6771  OP1      -26.4020   25.5030   25.5100 O.3   313  A313       -0.4373
   6772  OP2      -24.4410   24.0720   24.6980 O.co2 313  A313       -0.5172
   6773  P        -26.1130   20.7830   30.1830 P.3   314  G314        0.2141
   6774  C5'      -26.0130   18.3450   31.2010 C.3   314  G314        0.1812
   6775  O5'      -25.3690   19.3950   30.4530 O.3   314  G314       -0.3114
   6776  C4'      -25.5710   16.9700   30.7430 C.3   314  G314        0.1773
   6777  O4'      -25.4760   16.8940   29.2940 O.3   314  G314       -0.3307
   6778  C3'      -24.2020   16.5080   31.2130 C.3   314  G314        0.1860
   6779  O3'      -24.1540   16.1570   32.5900 O.3   314  G314       -0.3112
   6780  C2'      -23.9160   15.3710   30.2400 C.3   314  G314        0.2309
   6781  O2'      -24.5020   14.1140   30.5190 O.3   314  G314       -0.2156
   6782  C1'      -24.4470   15.9750   28.9380 C.3   314  G314        0.2408
   6783  N1       -19.9670   15.6900   26.5640 N.ar  314  G314       -0.1709
   6784  C2       -20.7180   14.6860   27.1270 C.ar  314  G314        0.2606
   6785  N2       -20.2110   13.4470   27.0440 N.pl3 314  G314       -0.0859
   6786  N3       -21.8800   14.8830   27.7240 N.ar  314  G314       -0.1918
   6787  C4       -22.2410   16.1850   27.7110 C.ar  314  G314        0.1723
   6788  C5       -21.5640   17.2600   27.1750 C.ar  314  G314        0.1748
   6789  C6       -20.3170   17.0370   26.5430 C.ar  314  G314        0.3023
   6790  O6       -19.5670   17.8620   26.0100 O.2   314  G314       -0.2633
   6791  N7       -22.2740   18.4360   27.3690 N.ar  314  G314       -0.2173
   6792  C8       -23.3460   18.0640   28.0130 C.ar  314  G314        0.1817
   6793  N9       -23.3980   16.7090   28.2380 N.ar  314  G314       -0.2693
   6794  OP1      -27.0150   21.0970   31.3270 O.3   314  G314       -0.4373
   6795  OP2      -25.1430   21.8110   29.7390 O.co2 314  G314       -0.5172
   6796  P        -23.0850   16.9790   33.4470 P.3   315  G315        0.2141
   6797  C5'      -21.9550   14.5880   33.7240 C.3   315  G315        0.1812
   6798  O5'      -21.8560   15.9700   33.3140 O.3   315  G315       -0.3114
   6799  C4'      -20.7560   13.8040   33.2270 C.3   315  G315        0.1773
   6800  O4'      -20.7400   13.8070   31.7740 O.3   315  G315       -0.3307
   6801  C3'      -19.3850   14.3390   33.6140 C.3   315  G315        0.1860
   6802  O3'      -18.9130   13.8790   34.8700 O.3   315  G315       -0.3112
   6803  C2'      -18.4900   13.7470   32.5350 C.3   315  G315        0.2309
   6804  O2'      -18.0520   12.4470   32.8620 O.3   315  G315       -0.2156
   6805  C1'      -19.3990   13.8140   31.3060 C.3   315  G315        0.2408
   6806  N1       -16.2210   16.4320   28.3210 N.ar  315  G315       -0.1709
   6807  C2       -16.0580   15.1910   28.8860 C.ar  315  G315        0.2606
   6808  N2       -14.8960   14.5750   28.6330 N.pl3 315  G315       -0.0859
   6809  N3       -16.9660   14.6000   29.6470 N.ar  315  G315       -0.1918
   6810  C4       -18.0700   15.3660   29.8030 C.ar  315  G315        0.1723
   6811  C5       -18.3280   16.6190   29.2860 C.ar  315  G315        0.1748
   6812  C6       -17.3470   17.2380   28.4670 C.ar  315  G315        0.3023
   6813  O6       -17.3860   18.3490   27.9220 O.2   315  G315       -0.2633
   6814  N7       -19.5790   17.0690   29.6850 N.ar  315  G315       -0.2173
   6815  C8       -20.0510   16.1010   30.4220 C.ar  315  G315        0.1817
   6816  N9       -19.1900   15.0340   30.5300 N.ar  315  G315       -0.2693
   6817  OP1      -23.4800   17.1060   34.8750 O.3   315  G315       -0.4373
   6818  OP2      -22.8450   18.2150   32.6610 O.co2 315  G315       -0.5172
   6819  P        -17.8730   14.8250   35.6500 P.3   316  G316        0.2141
   6820  C5'      -15.3210   15.1940   35.0900 C.3   316  G316        0.1812
   6821  O5'      -16.4320   14.2760   35.2390 O.3   316  G316       -0.3114
   6822  C4'      -14.3770   14.7440   33.9940 C.3   316  G316        0.1773
   6823  O4'      -15.0100   14.8570   32.6900 O.3   316  G316       -0.3307
   6824  C3'      -13.0950   15.5440   33.8790 C.3   316  G316        0.1860
   6825  O3'      -12.1340   14.9040   34.6930 O.3   316  G316       -0.3112
   6826  C2'      -12.7130   15.3550   32.4210 C.3   316  G316        0.2309
   6827  O2'      -12.0580   14.1140   32.2250 O.3   316  G316       -0.2156
   6828  C1'      -14.0820   15.3570   31.7440 C.3   316  G316        0.2408
   6829  N1       -13.3480   19.4840   28.8140 N.ar  316  G316       -0.1709
   6830  C2       -12.5110   18.4220   29.0220 C.ar  316  G316        0.2606
   6831  N2       -11.3480   18.4620   28.3680 N.pl3 316  G316       -0.0859
   6832  N3       -12.7970   17.3930   29.8070 N.ar  316  G316       -0.1918
   6833  C4       -14.0040   17.5300   30.3960 C.ar  316  G316        0.1723
   6834  C5       -14.9090   18.5620   30.2650 C.ar  316  G316        0.1748
   6835  C6       -14.5890   19.6500   29.4110 C.ar  316  G316        0.3023
   6836  O6       -15.2590   20.6550   29.1610 O.2   316  G316       -0.2633
   6837  N7       -16.0400   18.3270   31.0350 N.ar  316  G316       -0.2173
   6838  C8       -15.8070   17.1790   31.6100 C.ar  316  G316        0.1817
   6839  N9       -14.5860   16.6460   31.2800 N.ar  316  G316       -0.2693
   6840  OP1      -18.0560   14.6080   37.1100 O.3   316  G316       -0.4373
   6841  OP2      -17.9900   16.2080   35.1030 O.co2 316  G316       -0.5172
   6842  P        -11.4990   15.8410   35.7980 P.3   317  G317        0.2141
   6843  C5'       -9.5760   16.6590   34.0960 C.3   317  G317        0.1812
   6844  O5'      -10.7090   16.9640   34.9690 O.3   317  G317       -0.3114
   6845  C4'       -9.4270   17.6380   32.9330 C.3   317  G317        0.1773
   6846  O4'      -10.5950   17.6310   32.0570 O.3   317  G317       -0.3307
   6847  C3'       -9.2490   19.1030   33.2830 C.3   317  G317        0.1860
   6848  O3'       -7.9020   19.3950   33.5640 O.3   317  G317       -0.3112
   6849  C2'       -9.6260   19.7710   31.9750 C.3   317  G317        0.2309
   6850  O2'       -8.6220   19.6640   31.0120 O.3   317  G317       -0.2156
   6851  C1'      -10.8310   18.9380   31.5590 C.3   317  G317        0.2408
   6852  N1       -13.9850   22.8850   31.7220 N.ar  317  G317       -0.1709
   6853  C2       -12.9670   22.6130   30.8460 C.ar  317  G317        0.2606
   6854  N2       -12.7460   23.5240   29.8950 N.pl3 317  G317       -0.0859
   6855  N3       -12.2170   21.5290   30.9000 N.ar  317  G317       -0.1918
   6856  C4       -12.5780   20.7140   31.9120 C.ar  317  G317        0.1723
   6857  C5       -13.5760   20.8910   32.8430 C.ar  317  G317        0.1748
   6858  C6       -14.3750   22.0630   32.7740 C.ar  317  G317        0.3023
   6859  O6       -15.3220   22.3960   33.4960 O.2   317  G317       -0.2633
   6860  N7       -13.6220   19.8190   33.7250 N.ar  317  G317       -0.2173
   6861  C8       -12.6620   19.0300   33.3250 C.ar  317  G317        0.1817
   6862  N9       -12.0100   19.4990   32.2100 N.ar  317  G317       -0.2693
   6863  OP1      -10.6150   14.9140   36.5620 O.3   317  G317       -0.4373
   6864  OP2      -12.6210   16.5350   36.4820 O.co2 317  G317       -0.5172
   6865  P         -7.4990   19.8350   35.0430 P.3   318  A318        0.2141
   6866  C5'       -6.2150   21.5220   33.4960 C.3   318  A318        0.1812
   6867  O5'       -6.1560   20.4690   34.4740 O.3   318  A318       -0.3114
   6868  C4'       -5.0260   21.4390   32.5770 C.3   318  A318        0.1773
   6869  O4'       -5.4630   21.6890   31.2150 O.3   318  A318       -0.3307
   6870  C3'       -3.9230   22.4560   32.8320 C.3   318  A318        0.1860
   6871  O3'       -2.9430   21.8970   33.6840 O.3   318  A318       -0.3112
   6872  C2'       -3.2820   22.5770   31.4650 C.3   318  A318        0.2309
   6873  O2'       -2.5440   21.4190   31.1810 O.3   318  A318       -0.2156
   6874  C1'       -4.4820   22.4420   30.5340 C.3   318  A318        0.2408
   6875  N1        -4.0320   26.5810   27.5220 N.ar  318  A318       -0.2040
   6876  C2        -3.2830   25.4840   27.6590 C.ar  318  A318        0.2016
   6877  N3        -3.4410   24.4530   28.4840 N.ar  318  A318       -0.2048
   6878  C4        -4.5610   24.5950   29.2120 C.ar  318  A318        0.1692
   6879  C5        -5.4430   25.6560   29.1710 C.ar  318  A318        0.1518
   6880  C6        -5.1420   26.7030   28.2830 C.ar  318  A318        0.1919
   6881  N6        -5.8980   27.7930   28.1400 N.pl3 318  A318       -0.1054
   6882  N7        -6.4860   25.4600   30.0650 N.ar  318  A318       -0.2193
   6883  C8        -6.2090   24.3080   30.6240 C.ar  318  A318        0.1816
   6884  N9        -5.0630   23.7250   30.1490 N.ar  318  A318       -0.2693
   6885  OP1       -7.1860   18.6040   35.8110 O.3   318  A318       -0.4373
   6886  OP2       -8.3350   20.9020   35.6670 O.co2 318  A318       -0.5172
   6887  P         -2.3630   22.8950   34.7830 P.3   319  A319        0.2141
   6888  C5'       -0.3230   22.8620   33.0910 C.3   319  A319        0.1812
   6889  O5'       -1.1650   23.5930   33.9910 O.3   319  A319       -0.3114
   6890  C4'        0.6770   23.7720   32.4230 C.3   319  A319        0.1773
   6891  O4'        0.0960   24.4020   31.2440 O.3   319  A319       -0.3307
   6892  C3'        1.2150   24.8790   33.3130 C.3   319  A319        0.1860
   6893  O3'        2.4080   24.3190   33.8460 O.3   319  A319       -0.3112
   6894  C2'        1.4300   26.0470   32.3400 C.3   319  A319        0.2309
   6895  O2'        2.6910   26.0280   31.6970 O.3   319  A319       -0.2156
   6896  C1'        0.3730   25.7920   31.2570 C.3   319  A319        0.2408
   6897  N1        -2.8710   29.2120   29.1200 N.ar  319  A319       -0.2040
   6898  C2        -1.6340   28.8240   28.7840 C.ar  319  A319        0.2016
   6899  N3        -0.8290   27.9550   29.3920 N.ar  319  A319       -0.2048
   6900  C4        -1.4250   27.4350   30.4820 C.ar  319  A319        0.1692
   6901  C5        -2.6910   27.7330   30.9510 C.ar  319  A319        0.1518
   6902  C6        -3.4410   28.6710   30.2190 C.ar  319  A319        0.1919
   6903  N6        -4.6590   29.0820   30.5710 N.pl3 319  A319       -0.1054
   6904  N7        -2.9630   27.0230   32.1090 N.ar  319  A319       -0.2193
   6905  C8        -1.8940   26.2840   32.2850 C.ar  319  A319        0.1816
   6906  N9        -0.9070   26.5100   31.3620 N.ar  319  A319       -0.2693
   6907  OP1       -1.7140   22.2360   35.9510 O.3   319  A319       -0.4373
   6908  OP2       -3.3280   23.9990   35.0600 O.co2 319  A319       -0.5172
   6909  P          3.0960   24.7840   35.2300 P.3   320  G320        0.2141
   6910  C5'        5.2250   26.1160   34.4700 C.3   320  G320        0.1812
   6911  O5'        3.8130   26.0740   34.6380 O.3   320  G320       -0.3114
   6912  C4'        5.6830   27.5430   34.5220 C.3   320  G320        0.1773
   6913  O4'        4.7720   28.3970   33.7730 O.3   320  G320       -0.3307
   6914  C3'        5.7410   28.1100   35.9250 C.3   320  G320        0.1860
   6915  O3'        7.1140   28.0280   36.2300 O.3   320  G320       -0.3112
   6916  C2'        5.3400   29.5670   35.7310 C.3   320  G320        0.2309
   6917  O2'        6.4130   30.3350   35.2500 O.3   320  G320       -0.2156
   6918  C1'        4.3310   29.4570   34.5960 C.3   320  G320        0.2408
   6919  N1        -0.5920   29.5240   33.4010 N.ar  320  G320       -0.1709
   6920  C2         0.4900   29.9250   32.6630 C.ar  320  G320        0.2606
   6921  N2         0.2280   30.4030   31.4370 N.pl3 320  G320       -0.0859
   6922  N3         1.7400   29.8550   33.0870 N.ar  320  G320       -0.1918
   6923  C4         1.8240   29.3610   34.3370 C.ar  320  G320        0.1723
   6924  C5         0.8090   28.9300   35.1590 C.ar  320  G320        0.1748
   6925  C6        -0.5300   29.0050   34.6890 C.ar  320  G320        0.3023
   6926  O6        -1.5700   28.6750   35.2700 O.2   320  G320       -0.2633
   6927  N7         1.3160   28.4610   36.3630 N.ar  320  G320       -0.2173
   6928  C8         2.6060   28.6200   36.2530 C.ar  320  G320        0.1817
   6929  N9         2.9790   29.1580   35.0470 N.ar  320  G320       -0.2693
   6930  OP1        4.1870   23.9110   35.7330 O.2   320  G320       -0.5172
   6931  OP2        2.1000   25.2660   36.2450 O.co2 320  G320       -0.4373
   6932  P          7.4310   27.5800   37.6800 P.3   321  G321        0.2141
   6933  C5'        7.4730   30.1160   38.2860 C.3   321  G321        0.1812
   6934  O5'        6.9110   28.8160   38.5380 O.3   321  G321       -0.3114
   6935  C4'        6.8520   31.1280   39.2110 C.3   321  G321        0.1773
   6936  O4'        5.4790   31.3860   38.8180 O.3   321  G321       -0.3307
   6937  C3'        6.7400   30.7130   40.6610 C.3   321  G321        0.1860
   6938  O3'        7.9950   30.9610   41.2630 O.3   321  G321       -0.3112
   6939  C2'        5.6540   31.6540   41.1520 C.3   321  G321        0.2309
   6940  O2'        6.1990   32.9540   41.2250 O.3   321  G321       -0.2156
   6941  C1'        4.6950   31.6280   39.9700 C.3   321  G321        0.2408
   6942  N1        -0.0460   30.4520   41.3680 N.ar  321  G321       -0.1709
   6943  C2         0.6370   31.6400   41.5130 C.ar  321  G321        0.2606
   6944  N2        -0.0310   32.6430   42.1000 N.pl3 321  G321       -0.0859
   6945  N3         1.8830   31.8310   41.1080 N.ar  321  G321       -0.1918
   6946  C4         2.4000   30.7230   40.5320 C.ar  321  G321        0.1723
   6947  C5         1.7970   29.4990   40.3200 C.ar  321  G321        0.1748
   6948  C6         0.4610   29.3060   40.7560 C.ar  321  G321        0.3023
   6949  O6        -0.2470   28.2930   40.6510 O.2   321  G321       -0.2633
   6950  N7         2.6680   28.6250   39.6860 N.ar  321  G321       -0.2173
   6951  C8         3.7580   29.3230   39.5150 C.ar  321  G321        0.1817
   6952  N9         3.6750   30.5910   40.0380 N.ar  321  G321       -0.2693
   6953  OP1        8.9100   27.4500   37.7910 O.3   321  G321       -0.4373
   6954  OP2        6.5370   26.3960   37.7820 O.co2 321  G321       -0.5172
   6955  P          8.2280   30.6420   42.8100 P.3   322  A322        0.2141
   6956  C5'        7.1050   31.9910   44.7870 C.3   322  A322        0.1812
   6957  O5'        7.0000   31.3580   43.5100 O.3   322  A322       -0.3114
   6958  C4'        5.7610   32.5850   45.0960 C.3   322  A322        0.1773
   6959  O4'        4.8030   32.1100   44.1200 O.3   322  A322       -0.3307
   6960  C3'        5.0830   32.1340   46.3730 C.3   322  A322        0.1860
   6961  O3'        5.7230   32.6590   47.5230 O.3   322  A322       -0.3112
   6962  C2'        3.6630   32.6160   46.1140 C.3   322  A322        0.2309
   6963  O2'        3.4980   34.0160   46.0700 O.3   322  A322       -0.2156
   6964  C1'        3.5020   32.2350   44.6490 C.3   322  A322        0.2408
   6965  N1        -0.9160   29.6480   45.1150 N.ar  322  A322       -0.2040
   6966  C2        -0.5560   30.8800   45.4920 C.ar  322  A322        0.2016
   6967  N3         0.6130   31.4980   45.3460 N.ar  322  A322       -0.2048
   6968  C4         1.5010   30.6940   44.7340 C.ar  322  A322        0.1692
   6969  C5         1.2820   29.4010   44.2960 C.ar  322  A322        0.1518
   6970  C6        -0.0020   28.8680   44.4980 C.ar  322  A322        0.1919
   6971  N6        -0.3560   27.6330   44.1410 N.pl3 322  A322       -0.1054
   6972  N7         2.4320   28.8770   43.7220 N.ar  322  A322       -0.2193
   6973  C8         3.3050   29.8500   43.8220 C.ar  322  A322        0.1816
   6974  N9         2.8130   30.9740   44.4340 N.ar  322  A322       -0.2693
   6975  OP1        9.5200   31.3170   43.0730 O.2   322  A322       -0.5172
   6976  OP2        8.0560   29.2100   43.1220 O.co2 322  A322       -0.4373
   6977  P          6.0360   31.6180   48.6990 P.3   323  C323        0.2141
   6978  C5'        3.9830   32.7430   49.9190 C.3   323  C323        0.1812
   6979  O5'        4.5880   31.5680   49.3540 O.3   323  C323       -0.3114
   6980  C4'        2.5090   32.4880   50.1150 C.3   323  C323        0.1773
   6981  O4'        1.9440   31.9100   48.9100 O.3   323  C323       -0.3307
   6982  C3'        2.1530   31.4450   51.1590 C.3   323  C323        0.1860
   6983  O3'        2.2910   31.9630   52.4650 O.3   323  C323       -0.3112
   6984  C2'        0.7180   31.0920   50.7760 C.3   323  C323        0.2309
   6985  O2'       -0.3210   31.8800   51.3130 O.3   323  C323       -0.2156
   6986  C1'        0.7710   31.1850   49.2480 C.3   323  C323        0.2420
   6987  N1         0.8670   29.8440   48.6720 N.ar  323  C323       -0.2535
   6988  C2        -0.2760   29.0390   48.6980 C.ar  323  C323        0.3532
   6989  O2        -1.3340   29.5190   49.1340 O.2   323  C323       -0.2443
   6990  N3        -0.2040   27.7700   48.2220 N.ar  323  C323       -0.1739
   6991  C4         0.9550   27.2990   47.7480 C.ar  323  C323        0.1759
   6992  N4         0.9780   26.0480   47.2860 N.pl3 323  C323       -0.1070
   6993  C5         2.1420   28.0930   47.7310 C.ar  323  C323        0.0566
   6994  C6         2.0560   29.3450   48.2080 C.ar  323  C323        0.0850
   6995  OP1        7.0230   32.3120   49.5840 O.3   323  C323       -0.4373
   6996  OP2        6.3330   30.2690   48.1300 O.co2 323  C323       -0.5172
   6997  P          3.1090   31.1300   53.5360 P.3   324  G324        0.2141
   6998  C5'        0.8880   30.0670   54.4320 C.3   324  G324        0.1812
   6999  O5'        2.1350   29.8900   53.7390 O.3   324  G324       -0.3114
   7000  C4'        0.0180   28.8620   54.2090 C.3   324  G324        0.1773
   7001  O4'       -0.1020   28.6200   52.7800 O.3   324  G324       -0.3307
   7002  C3'        0.5760   27.5630   54.7670 C.3   324  G324        0.1860
   7003  O3'        0.2070   27.3600   56.1150 O.3   324  G324       -0.3112
   7004  C2'       -0.0920   26.5230   53.8830 C.3   324  G324        0.2309
   7005  O2'       -1.3900   26.2550   54.3780 O.3   324  G324       -0.2156
   7006  C1'       -0.0680   27.2260   52.5240 C.3   324  G324        0.2408
   7007  N1         2.2130   23.9910   49.3340 N.ar  324  G324       -0.1709
   7008  C2         0.9900   23.8870   49.9520 C.ar  324  G324        0.2606
   7009  N2         0.2760   22.7850   49.6740 N.pl3 324  G324       -0.0859
   7010  N3         0.4980   24.8000   50.7770 N.ar  324  G324       -0.1918
   7011  C4         1.3470   25.8350   50.9470 C.ar  324  G324        0.1723
   7012  C5         2.5970   26.0240   50.3930 C.ar  324  G324        0.1748
   7013  C6         3.1100   25.0400   49.5040 C.ar  324  G324        0.3023
   7014  O6         4.1990   25.0220   48.9150 O.2   324  G324       -0.2633
   7015  N7         3.1500   27.2220   50.8230 N.ar  324  G324       -0.2173
   7016  C8         2.2430   27.7310   51.6140 C.ar  324  G324        0.1817
   7017  N9         1.1250   26.9400   51.7340 N.ar  324  G324       -0.2693
   7018  OP1        3.0370   31.8970   54.8180 O.3   324  G324       -0.4373
   7019  OP2        4.4260   30.7830   52.9460 O.co2 324  G324       -0.5172
   7020  P          1.2970   27.5040   57.2670 P.3   325  G325        0.2141
   7021  C5'        0.2160   25.2580   58.1430 C.3   325  G325        0.1812
   7022  O5'        1.3920   26.0360   57.8660 O.3   325  G325       -0.3114
   7023  C4'        0.3480   23.9240   57.4550 C.3   325  G325        0.1773
   7024  O4'        0.6620   24.1640   56.0740 O.3   325  G325       -0.3307
   7025  C3'        1.4460   23.0260   58.0140 C.3   325  G325        0.1860
   7026  O3'        0.7650   21.9720   58.6820 O.3   325  G325       -0.3112
   7027  C2'        2.1230   22.4030   56.7980 C.3   325  G325        0.2309
   7028  O2'        1.6680   21.0920   56.5800 O.3   325  G325       -0.2156
   7029  C1'        1.5820   23.2070   55.6230 C.3   325  G325        0.2408
   7030  N1         4.5790   23.3270   51.5480 N.ar  325  G325       -0.1709
   7031  C2         3.5700   22.4500   51.8590 C.ar  325  G325        0.2606
   7032  N2         3.3440   21.4660   50.9760 N.pl3 325  G325       -0.0859
   7033  N3         2.8470   22.5220   52.9620 N.ar  325  G325       -0.1918
   7034  C4         3.2160   23.5600   53.7390 C.ar  325  G325        0.1723
   7035  C5         4.1960   24.4990   53.5110 C.ar  325  G325        0.1748
   7036  C6         4.9590   24.4170   52.3210 C.ar  325  G325        0.3023
   7037  O6         5.8570   25.1710   51.9260 O.2   325  G325       -0.2633
   7038  N7         4.2540   25.4130   54.5530 N.ar  325  G325       -0.2173
   7039  C8         3.3290   25.0160   55.3830 C.ar  325  G325        0.1817
   7040  N9         2.6570   23.9030   54.9440 N.ar  325  G325       -0.2693
   7041  OP1        0.6130   28.3690   58.2680 O.3   325  G325       -0.4373
   7042  OP2        2.7080   27.7790   56.8720 O.co2 325  G325       -0.5172
   7043  P          1.4930   20.8040   59.4740 P.3   326  A326        0.2141
   7044  C5'       -0.6020   19.2720   58.8090 C.3   326  A326        0.1812
   7045  O5'        0.8400   19.4710   58.8820 O.3   326  A326       -0.3114
   7046  C4'       -0.9370   17.8590   58.3690 C.3   326  A326        0.1773
   7047  O4'       -1.0750   17.8100   56.9200 O.3   326  A326       -0.3307
   7048  C3'        0.1080   16.7990   58.6980 C.3   326  A326        0.1860
   7049  O3'       -0.0970   16.2830   60.0060 O.3   326  A326       -0.3112
   7050  C2'       -0.0980   15.7710   57.5900 C.3   326  A326        0.2309
   7051  O2'       -1.1970   14.9070   57.7590 O.3   326  A326       -0.2156
   7052  C1'       -0.4060   16.6710   56.4020 C.3   326  A326        0.2408
   7053  N1         3.2510   15.4120   53.0230 N.ar  326  A326       -0.2040
   7054  C2         2.1670   14.7580   53.4650 C.ar  326  A326        0.2016
   7055  N3         1.2470   15.1480   54.3460 N.ar  326  A326       -0.2048
   7056  C4         1.5250   16.3810   54.8050 C.ar  326  A326        0.1692
   7057  C5         2.6050   17.1730   54.4540 C.ar  326  A326        0.1518
   7058  C6         3.5070   16.6440   53.5140 C.ar  326  A326        0.1919
   7059  N6         4.5890   17.2900   53.0800 N.pl3 326  A326       -0.1054
   7060  N7         2.5780   18.3740   55.1480 N.ar  326  A326       -0.2193
   7061  C8         1.4990   18.2860   55.8880 C.ar  326  A326        0.1816
   7062  N9         0.8070   17.1120   55.7200 N.ar  326  A326       -0.2693
   7063  OP1        0.9940   21.0870   60.8470 O.3   326  A326       -0.4373
   7064  OP2        2.9570   20.7840   59.1960 O.co2 326  A326       -0.5172
   7065  P          1.2110   15.8880   60.8400 P.3   327  A327        0.2141
   7066  C5'        3.0240   14.1440   60.0400 C.3   327  A327        0.1812
   7067  O5'        1.6450   14.5280   60.1300 O.3   327  A327       -0.3114
   7068  C4'        3.2780   13.4790   58.7220 C.3   327  A327        0.1773
   7069  O4'        2.9550   14.3950   57.6380 O.3   327  A327       -0.3307
   7070  C3'        4.7380   13.1360   58.4930 C.3   327  A327        0.1860
   7071  O3'        4.9580   11.8450   58.9960 O.3   327  A327       -0.3112
   7072  C2'        4.8300   13.1310   56.9780 C.3   327  A327        0.2309
   7073  O2'        4.1330   12.0420   56.4500 O.3   327  A327       -0.2156
   7074  C1'        3.9570   14.3240   56.6280 C.3   327  A327        0.2408
   7075  N1         7.7250   16.9930   54.3680 N.ar  327  A327       -0.2040
   7076  C2         7.2030   15.7880   54.1190 C.ar  327  A327        0.2016
   7077  N3         6.2240   15.1490   54.7490 N.ar  327  A327       -0.2048
   7078  C4         5.7380   15.8990   55.7510 C.ar  327  A327        0.1692
   7079  C5         6.1540   17.1670   56.1130 C.ar  327  A327        0.1518
   7080  C6         7.2070   17.7260   55.3770 C.ar  327  A327        0.1919
   7081  N6         7.7100   18.9410   55.6100 N.pl3 327  A327       -0.1054
   7082  N7         5.4240   17.6330   57.1960 N.ar  327  A327       -0.2193
   7083  C8         4.5920   16.6540   57.4600 C.ar  327  A327        0.1816
   7084  N9         4.7240   15.5740   56.6200 N.ar  327  A327       -0.2693
   7085  OP1        0.8800   15.5470   62.2580 O.3   327  A327       -0.4373
   7086  OP2        2.2040   16.9710   60.5150 O.co2 327  A327       -0.5172
   7087  P          6.2390   11.6400   59.9010 P.3   328  C328        0.2141
   7088  C5'        7.5930   10.8500   57.7850 C.3   328  C328        0.1812
   7089  O5'        7.5110   11.6810   58.9400 O.3   328  C328       -0.3114
   7090  C4'        8.6360   11.4070   56.8600 C.3   328  C328        0.1773
   7091  O4'        8.1880   12.6910   56.3630 O.3   328  C328       -0.3307
   7092  C3'        9.9480   11.7500   57.5300 C.3   328  C328        0.1860
   7093  O3'       10.7850   10.6220   57.6140 O.3   328  C328       -0.3112
   7094  C2'       10.5510   12.7560   56.5680 C.3   328  C328        0.2309
   7095  O2'       11.1160   12.1560   55.4330 O.3   328  C328       -0.2156
   7096  C1'        9.3130   13.5140   56.1040 C.3   328  C328        0.2420
   7097  N1         9.1600   14.8000   56.8040 N.ar  328  C328       -0.2535
   7098  C2        10.1310   15.7750   56.5830 C.ar  328  C328        0.3532
   7099  O2        11.0680   15.5180   55.8200 O.2   328  C328       -0.2443
   7100  N3        10.0270   16.9690   57.2040 N.ar  328  C328       -0.1739
   7101  C4         8.9980   17.2100   58.0130 C.ar  328  C328        0.1759
   7102  N4         8.9370   18.4040   58.5970 N.pl3 328  C328       -0.1070
   7103  C5         7.9970   16.2280   58.2730 C.ar  328  C328        0.0566
   7104  C6         8.1170   15.0460   57.6520 C.ar  328  C328        0.0850
   7105  OP1        6.2610   10.2020   60.3380 O.2   328  C328       -0.5172
   7106  OP2        6.1400   12.7790   60.8750 O.co2 328  C328       -0.4373
   7107  P         11.4870   10.4200   59.0360 P.3   329  A329        0.2141
   7108  C5'       13.4950   10.9980   57.4550 C.3   329  A329        0.1812
   7109  O5'       12.8450   11.1760   58.7300 O.3   329  A329       -0.3114
   7110  C4'       14.6690   11.9310   57.3890 C.3   329  A329        0.1773
   7111  O4'       14.2270   13.2210   56.9010 O.3   329  A329       -0.3307
   7112  C3'       15.2490   12.2440   58.7620 C.3   329  A329        0.1860
   7113  O3'       16.0660   11.1420   59.1410 O.3   329  A329       -0.3112
   7114  C2'       15.9130   13.5850   58.5060 C.3   329  A329        0.2309
   7115  O2'       17.0010   13.3840   57.6330 O.3   329  A329       -0.2156
   7116  C1'       14.8740   14.2520   57.6190 C.3   329  A329        0.2408
   7117  N1        13.6660   18.8570   59.5280 N.ar  329  A329       -0.2040
   7118  C2        14.7720   18.3850   58.9340 C.ar  329  A329        0.2016
   7119  N3        15.0190   17.1660   58.4530 N.ar  329  A329       -0.2048
   7120  C4        13.9580   16.3600   58.6370 C.ar  329  A329        0.1692
   7121  C5        12.7460   16.7020   59.2120 C.ar  329  A329        0.1518
   7122  C6        12.6130   18.0260   59.6830 C.ar  329  A329        0.1919
   7123  N6        11.5070   18.5050   60.2490 N.pl3 329  A329       -0.1054
   7124  N7        11.8820   15.6150   59.2130 N.ar  329  A329       -0.2193
   7125  C8        12.5840   14.6530   58.6660 C.ar  329  A329        0.1816
   7126  N9        13.8590   15.0260   58.3210 N.ar  329  A329       -0.2693
   7127  OP1       11.8970    8.9970   59.0310 O.2   329  A329       -0.5172
   7128  OP2       10.8160   11.0200   60.2190 O.co2 329  A329       -0.4373
   7129  P         16.8880   11.2150   60.4820 P.3   330  A330        0.2141
   7130  C5'       18.9470   12.8820   60.3680 C.3   330  A330        0.1812
   7131  O5'       17.5410   12.6630   60.5900 O.3   330  A330       -0.3114
   7132  C4'       19.2940   14.2830   60.7770 C.3   330  A330        0.1773
   7133  O4'       18.2810   15.1770   60.2710 O.3   330  A330       -0.3307
   7134  C3'       19.2420   14.5260   62.2760 C.3   330  A330        0.1860
   7135  O3'       20.4320   14.0800   62.8970 O.3   330  A330       -0.3112
   7136  C2'       19.0400   16.0360   62.3560 C.3   330  A330        0.2309
   7137  O2'       20.2080   16.8280   62.4330 O.3   330  A330       -0.2156
   7138  C1'       18.2510   16.3290   61.0730 C.3   330  A330        0.2408
   7139  N1        15.0440   19.7440   63.1220 N.ar  330  A330       -0.2040
   7140  C2        16.3690   19.7480   62.9370 C.ar  330  A330        0.2016
   7141  N3        17.1450   18.8160   62.3940 N.ar  330  A330       -0.2048
   7142  C4        16.4120   17.7630   61.9980 C.ar  330  A330        0.1692
   7143  C5        15.0440   17.6160   62.1110 C.ar  330  A330        0.1518
   7144  C6        14.3360   18.6740   62.7000 C.ar  330  A330        0.1919
   7145  N6        13.0140   18.6750   62.8730 N.pl3 330  A330       -0.1054
   7146  N7        14.6380   16.3950   61.5910 N.ar  330  A330       -0.2193
   7147  C8        15.7520   15.8470   61.1700 C.ar  330  A330        0.1816
   7148  N9        16.8610   16.6280   61.3700 N.ar  330  A330       -0.2693
   7149  OP1       17.9470   10.1930   60.2950 O.2   330  A330       -0.5172
   7150  OP2       16.0180   11.2380   61.6910 O.co2 330  A330       -0.4373
   7151  P         20.2790   13.5250   64.3710 P.3   331  G331        0.2141
   7152  C5'       21.4640   15.6150   65.3900 C.3   331  G331        0.1812
   7153  O5'       20.3550   14.7180   65.4230 O.3   331  G331       -0.3114
   7154  C4'       21.0500   16.9560   65.8960 C.3   331  G331        0.1773
   7155  O4'       19.8790   17.4030   65.1870 O.3   331  G331       -0.3307
   7156  C3'       20.5480   16.9350   67.3060 C.3   331  G331        0.1860
   7157  O3'       21.6460   16.8450   68.1850 O.3   331  G331       -0.3112
   7158  C2'       19.7900   18.2490   67.3880 C.3   331  G331        0.2309
   7159  O2'       20.6490   19.3110   67.7350 O.3   331  G331       -0.2156
   7160  C1'       19.2070   18.3620   65.9780 C.3   331  G331        0.2408
   7161  N1        14.5130   19.9740   67.1130 N.ar  331  G331       -0.1709
   7162  C2        15.7140   20.6220   67.2720 C.ar  331  G331        0.2606
   7163  N2        15.6560   21.8580   67.7850 N.pl3 331  G331       -0.0859
   7164  N3        16.8840   20.1020   66.9320 N.ar  331  G331       -0.1918
   7165  C4        16.7550   18.8610   66.4070 C.ar  331  G331        0.1723
   7166  C5        15.6030   18.1310   66.2010 C.ar  331  G331        0.1748
   7167  C6        14.3550   18.7000   66.5700 C.ar  331  G331        0.3023
   7168  O6        13.2240   18.2080   66.4670 O.2   331  G331       -0.2633
   7169  N7        15.8960   16.8950   65.6390 N.ar  331  G331       -0.2173
   7170  C8        17.1940   16.9010   65.5030 C.ar  331  G331        0.1817
   7171  N9        17.7790   18.0620   65.9500 N.ar  331  G331       -0.2693
   7172  OP1       21.3940   12.5790   64.6520 O.3   331  G331       -0.4373
   7173  OP2       18.8780   13.0690   64.4170 O.co2 331  G331       -0.5172
   7174  P         21.2490   16.0350   69.5120 P.3   332  U332        0.2141
   7175  C5'       20.2920   17.5000   71.4630 C.3   332  U332        0.1812
   7176  O5'       20.1060   16.9460   70.1470 O.3   332  U332       -0.3114
   7177  C4'       19.2110   18.5070   71.7770 C.3   332  U332        0.1773
   7178  O4'       18.4160   18.7700   70.5910 O.3   332  U332       -0.3307
   7179  C3'       18.1930   18.0690   72.8080 C.3   332  U332        0.1860
   7180  O3'       18.6990   18.3240   74.1020 O.3   332  U332       -0.3112
   7181  C2'       17.0000   18.9590   72.4950 C.3   332  U332        0.2309
   7182  O2'       17.0770   20.2300   73.0990 O.3   332  U332       -0.2156
   7183  C1'       17.0800   19.0740   70.9710 C.3   332  U332        0.2420
   7184  N1        16.1880   18.1460   70.2610 N.ar  332  U332       -0.2534
   7185  C2        14.8230   18.3820   70.2840 C.ar  332  U332        0.3546
   7186  O2        14.3160   19.3120   70.8950 O.2   332  U332       -0.2443
   7187  N3        14.0730   17.4610   69.5930 N.ar  332  U332       -0.1530
   7188  C4        14.5290   16.3470   68.9110 C.ar  332  U332        0.2846
   7189  O4        13.7250   15.6160   68.3300 O.2   332  U332       -0.2650
   7190  C5        15.9500   16.1770   68.9320 C.ar  332  U332        0.0814
   7191  C6        16.7110   17.0600   69.5870 C.ar  332  U332        0.0870
   7192  OP1       22.3210   15.9320   70.5570 O.3   332  U332       -0.4373
   7193  OP2       20.7530   14.8030   68.8390 O.co2 332  U332       -0.5172
   7194  P         18.8970   16.9860   74.9280 P.3   333  A333        0.2141
   7195  C5'       16.8070   18.1720   76.1350 C.3   333  A333        0.1812
   7196  O5'       17.7520   17.0680   76.0450 O.3   333  A333       -0.3114
   7197  C4'       15.9780   18.1350   77.4230 C.3   333  A333        0.1773
   7198  O4'       14.5990   17.7650   77.1270 O.3   333  A333       -0.3307
   7199  C3'       16.3900   17.1990   78.5600 C.3   333  A333        0.1860
   7200  O3'       15.7540   17.6110   79.7600 O.3   333  A333       -0.3112
   7201  C2'       15.5760   15.9480   78.2650 C.3   333  A333        0.2309
   7202  O2'       15.3890   15.1660   79.4310 O.3   333  A333       -0.2156
   7203  C1'       14.2510   16.5700   77.8210 C.3   333  A333        0.2408
   7204  N1         9.6080   16.0440   75.7490 N.ar  333  A333       -0.2040
   7205  C2        10.0990   16.8570   76.6970 C.ar  333  A333        0.2016
   7206  N3        11.3290   16.9200   77.2020 N.ar  333  A333       -0.2048
   7207  C4        12.1200   15.9960   76.6300 C.ar  333  A333        0.1692
   7208  C5        11.7550   15.0680   75.6670 C.ar  333  A333        0.1518
   7209  C6        10.4200   15.1080   75.2160 C.ar  333  A333        0.1919
   7210  N6         9.9170   14.2840   74.2920 N.pl3 333  A333       -0.1054
   7211  N7        12.8350   14.2630   75.3270 N.ar  333  A333       -0.2193
   7212  C8        13.8120   14.7140   76.0810 C.ar  333  A333        0.1816
   7213  N9        13.4440   15.7540   76.9070 N.ar  333  A333       -0.2693
   7214  OP1       20.1740   16.9150   75.6830 O.3   333  A333       -0.4373
   7215  OP2       18.6840   16.0030   73.8260 O.co2 333  A333       -0.5172
   7216  P         16.2560   18.8010   80.6640 P.3   334  U334        0.2141
   7217  C5'       14.0450   19.0460   82.0360 C.3   334  U334        0.1812
   7218  O5'       14.9230   19.5800   81.0400 O.3   334  U334       -0.3114
   7219  C4'       12.7560   19.8250   82.0580 C.3   334  U334        0.1773
   7220  O4'       12.8230   20.8970   81.0890 O.3   334  U334       -0.3307
   7221  C3'       11.5120   19.0490   81.6660 C.3   334  U334        0.1860
   7222  O3'       11.0230   18.3520   82.8030 O.3   334  U334       -0.3112
   7223  C2'       10.5680   20.1580   81.2180 C.3   334  U334        0.2309
   7224  O2'        9.9200   20.8300   82.2750 O.3   334  U334       -0.2156
   7225  C1'       11.5350   21.1390   80.5600 C.3   334  U334        0.2420
   7226  N1        11.6130   20.9740   79.1070 N.ar  334  U334       -0.2534
   7227  C2        10.5070   21.3130   78.3490 C.ar  334  U334        0.3546
   7228  O2         9.4670   21.7190   78.8380 O.2   334  U334       -0.2443
   7229  N3        10.6640   21.1460   76.9960 N.ar  334  U334       -0.1530
   7230  C4        11.7850   20.6840   76.3360 C.ar  334  U334        0.2846
   7231  O4        11.7670   20.5710   75.1080 O.2   334  U334       -0.2650
   7232  C5        12.8900   20.3710   77.1910 C.ar  334  U334        0.0814
   7233  C6        12.7680   20.5220   78.5140 C.ar  334  U334        0.0870
   7234  OP1       17.0750   19.7110   79.8170 O.2   334  U334       -0.5172
   7235  OP2       16.8410   18.1280   81.8470 O.co2 334  U334       -0.4373
   7236  P         11.2260   16.7840   82.8390 P.3   335  G335        0.2141
   7237  C5'        9.0540   16.4420   81.3220 C.3   335  G335        0.1812
   7238  O5'       10.4830   16.2840   81.5150 O.3   335  G335       -0.3114
   7239  C4'        8.3810   15.1290   80.9430 C.3   335  G335        0.1773
   7240  O4'        8.6380   14.8260   79.5540 O.3   335  G335       -0.3307
   7241  C3'        8.7920   13.8850   81.7200 C.3   335  G335        0.1860
   7242  O3'        7.9160   13.6130   82.7920 O.3   335  G335       -0.3112
   7243  C2'        8.6600   12.7650   80.6950 C.3   335  G335        0.2309
   7244  O2'        7.4060   12.1340   80.5460 O.3   335  G335       -0.2156
   7245  C1'        9.0460   13.4850   79.4200 C.3   335  G335        0.2408
   7246  N1        12.9600   10.8020   77.6820 N.ar  335  G335       -0.1709
   7247  C2        11.6420   10.4190   77.8430 C.ar  335  G335        0.2606
   7248  N2        11.3250    9.1690   77.4480 N.pl3 335  G335       -0.0859
   7249  N3        10.7030   11.2100   78.3080 N.ar  335  G335       -0.1918
   7250  C4        11.1970   12.4440   78.6400 C.ar  335  G335        0.1723
   7251  C5        12.4980   12.9080   78.5750 C.ar  335  G335        0.1748
   7252  C6        13.4920   12.0530   78.0490 C.ar  335  G335        0.3023
   7253  O6        14.7000   12.2890   77.9010 O.2   335  G335       -0.2633
   7254  N7        12.5970   14.2110   79.0740 N.ar  335  G335       -0.2173
   7255  C8        11.3750   14.5130   79.4160 C.ar  335  G335        0.1817
   7256  N9        10.4810   13.4770   79.1920 N.ar  335  G335       -0.2693
   7257  OP1       10.4820   16.3900   84.0620 O.3   335  G335       -0.4373
   7258  OP2       12.6580   16.3940   82.7090 O.co2 335  G335       -0.5172
   7259  P          8.6150   12.6460   83.8310 P.3   336  G336        0.2141
   7260  C5'        9.1900   10.0540   83.7940 C.3   336  G336        0.1812
   7261  O5'        8.3510   11.1810   83.2560 O.3   336  G336       -0.3114
   7262  C4'        9.2750    9.0770   82.6590 C.3   336  G336        0.1773
   7263  O4'        9.8850    9.7730   81.5600 O.3   336  G336       -0.3307
   7264  C3'       10.1630    7.8650   82.8790 C.3   336  G336        0.1860
   7265  O3'        9.3720    6.7780   83.2920 O.3   336  G336       -0.3112
   7266  C2'       10.5970    7.5010   81.4680 C.3   336  G336        0.2309
   7267  O2'        9.6590    6.6420   80.7680 O.3   336  G336       -0.2156
   7268  C1'       10.7190    8.8820   80.8480 C.3   336  G336        0.2408
   7269  N1        15.5930    8.3140   79.4530 N.ar  336  G336       -0.1709
   7270  C2        14.5480    7.4240   79.3350 C.ar  336  G336        0.2606
   7271  N2        14.8340    6.2600   78.7430 N.pl3 336  G336       -0.0859
   7272  N3        13.3130    7.6590   79.7710 N.ar  336  G336       -0.1918
   7273  C4        13.2020    8.8980   80.3040 C.ar  336  G336        0.1723
   7274  C5        14.1820    9.8620   80.4610 C.ar  336  G336        0.1748
   7275  C6        15.5020    9.5820   80.0240 C.ar  336  G336        0.3023
   7276  O6        16.5030   10.3220   80.0640 O.2   336  G336       -0.2633
   7277  N7        13.6640   10.9950   81.0690 N.ar  336  G336       -0.2173
   7278  C8        12.4100   10.6950   81.2970 C.ar  336  G336        0.1817
   7279  N9        12.0620    9.4390   80.8560 N.ar  336  G336       -0.2693
   7280  OP1        7.9640   12.8690   85.1870 O.3   336  G336       -0.4373
   7281  OP2       10.1050   12.7630   83.5830 O.co2 336  G336       -0.5172
   7282  P          9.9710    6.1350   84.6320 P.3   337  C337        0.2141
   7283  C5'       10.6170    3.6540   84.2610 C.3   337  C337        0.1812
   7284  O5'       10.4870    4.9520   83.6980 O.3   337  C337       -0.3114
   7285  C4'       11.4680    2.8890   83.3140 C.3   337  C337        0.1773
   7286  O4'       11.8620    3.8370   82.3020 O.3   337  C337       -0.3307
   7287  C3'       12.8050    2.4180   83.8540 C.3   337  C337        0.1860
   7288  O3'       12.7800    1.2620   84.6660 O.3   337  C337       -0.3112
   7289  C2'       13.6060    2.2620   82.5710 C.3   337  C337        0.2309
   7290  O2'       13.2320    1.1860   81.7400 O.3   337  C337       -0.2156
   7291  C1'       13.1560    3.5040   81.8240 C.3   337  C337        0.2420
   7292  N1        14.0350    4.6570   82.0310 N.ar  337  C337       -0.2535
   7293  C2        15.3030    4.6490   81.4230 C.ar  337  C337        0.3532
   7294  O2        15.6470    3.6540   80.7620 O.2   337  C337       -0.2443
   7295  N3        16.1160    5.7250   81.5610 N.ar  337  C337       -0.1739
   7296  C4        15.6990    6.7840   82.2630 C.ar  337  C337        0.1759
   7297  N4        16.5290    7.8330   82.3540 N.pl3 337  C337       -0.1070
   7298  C5        14.4150    6.8110   82.9080 C.ar  337  C337        0.0566
   7299  C6        13.6230    5.7380   82.7630 C.ar  337  C337        0.0850
   7300  OP1        8.7350    5.8160   85.6110 O.3   337  C337       -0.4373
   7301  OP2       11.1910    6.9830   85.0310 O.co2 337  C337       -0.5172
   7302  P         13.7120    1.4560   85.9490 P.3   338  G338        0.2141
   7303  C5'       15.2200   -0.0850   84.3740 C.3   338  G338        0.1812
   7304  O5'       15.1080    1.0790   85.2650 O.3   338  G338       -0.3114
   7305  C4'       16.6700   -0.3770   84.0390 C.3   338  G338        0.1773
   7306  O4'       17.1480    0.5580   83.0270 O.3   338  G338       -0.3307
   7307  C3'       17.6600   -0.2490   85.1860 C.3   338  G338        0.1860
   7308  O3'       17.8280   -1.4600   85.8900 O.3   338  G338       -0.3112
   7309  C2'       18.9530    0.0900   84.4640 C.3   338  G338        0.2309
   7310  O2'       19.5880   -1.0670   83.9640 O.3   338  G338       -0.2156
   7311  C1'       18.4390    1.0320   83.3800 C.3   338  G338        0.2408
   7312  N1        20.6660    5.5600   83.9780 N.ar  338  G338       -0.1709
   7313  C2        21.1510    4.4290   83.3740 C.ar  338  G338        0.2606
   7314  N2        22.3870    4.5190   82.8620 N.pl3 338  G338       -0.0859
   7315  N3        20.4730    3.2960   83.2720 N.ar  338  G338       -0.1918
   7316  C4        19.2500    3.3900   83.8370 C.ar  338  G338        0.1723
   7317  C5        18.6720    4.4750   84.4590 C.ar  338  G338        0.1748
   7318  C6        19.4110    5.6780   84.5630 C.ar  338  G338        0.3023
   7319  O6        19.0790    6.7420   85.0920 O.2   338  G338       -0.2633
   7320  N7        17.3990    4.1610   84.9130 N.ar  338  G338       -0.2173
   7321  C8        17.2250    2.9200   84.5540 C.ar  338  G338        0.1817
   7322  N9        18.3040    2.3940   83.8870 N.ar  338  G338       -0.2693
   7323  OP1       13.3520    0.3680   86.9720 O.3   338  G338       -0.4373
   7324  OP2       13.6430    2.9350   86.3350 O.co2 338  G338       -0.5172
   7325  P         18.5210   -1.2930   87.3080 P.3   339  U339        0.2141
   7326  C5'       20.3150    0.4350   88.1320 C.3   339  U339        0.1812
   7327  O5'       19.6880   -0.2480   87.0390 O.3   339  U339       -0.3114
   7328  C4'       21.6450    0.9550   87.6650 C.3   339  U339        0.1773
   7329  O4'       21.4100    1.8980   86.5850 O.3   339  U339       -0.3307
   7330  C3'       22.4740    1.6960   88.7070 C.3   339  U339        0.1860
   7331  O3'       23.4490    0.8290   89.2800 O.3   339  U339       -0.3112
   7332  C2'       23.1920    2.7440   87.8670 C.3   339  U339        0.2309
   7333  O2'       24.2990    2.1870   87.1830 O.3   339  U339       -0.2156
   7334  C1'       22.1200    3.0930   86.8370 C.3   339  U339        0.2420
   7335  N1        21.1660    4.1430   87.2370 N.ar  339  U339       -0.2534
   7336  C2        21.6540    5.4320   87.3630 C.ar  339  U339        0.3546
   7337  O2        22.8260    5.7160   87.1910 O.2   339  U339       -0.2443
   7338  N3        20.7160    6.3740   87.7090 N.ar  339  U339       -0.1530
   7339  C4        19.3700    6.1730   87.9290 C.ar  339  U339        0.2846
   7340  O4        18.6540    7.1330   88.2280 O.2   339  U339       -0.2650
   7341  C5        18.9390    4.8160   87.7700 C.ar  339  U339        0.0814
   7342  C6        19.8290    3.8710   87.4340 C.ar  339  U339        0.0870
   7343  OP1       19.1440   -2.6140   87.5840 O.2   339  U339       -0.5172
   7344  OP2       17.6120   -0.6510   88.3070 O.co2 339  U339       -0.4373
   7345  P         23.4960    0.4040   90.8280 P.3   340  U340        0.2141
   7346  C5'       25.7820    0.7630   92.1370 C.3   340  U340        0.1812
   7347  O5'       24.6540    1.3220   91.4280 O.3   340  U340       -0.3114
   7348  C4'       27.0570    0.9380   91.3400 C.3   340  U340        0.1773
   7349  O4'       27.4510   -0.3500   90.8160 O.3   340  U340       -0.3307
   7350  C3'       26.9560    1.8420   90.1160 C.3   340  U340        0.1860
   7351  O3'       27.0700    3.2430   90.4040 O.3   340  U340       -0.3112
   7352  C2'       28.0220    1.2890   89.1630 C.3   340  U340        0.2309
   7353  O2'       29.2820    1.9270   89.1940 O.3   340  U340       -0.2156
   7354  C1'       28.1610   -0.1720   89.6080 C.3   340  U340        0.2420
   7355  N1        27.6900   -1.1750   88.6390 N.ar  340  U340       -0.2534
   7356  C2        27.7350   -0.8690   87.2880 C.ar  340  U340        0.3546
   7357  O2        28.1160    0.2090   86.8610 O.2   340  U340       -0.2443
   7358  N3        27.3040   -1.8730   86.4570 N.ar  340  U340       -0.1530
   7359  C4        26.8500   -3.1250   86.8200 C.ar  340  U340        0.2846
   7360  O4        26.4990   -3.9200   85.9460 O.2   340  U340       -0.2650
   7361  C5        26.8440   -3.3680   88.2320 C.ar  340  U340        0.0814
   7362  C6        27.2590   -2.4120   89.0720 C.ar  340  U340        0.0870
   7363  OP1       23.9190   -1.0260   90.8810 O.2   340  U340       -0.5172
   7364  OP2       22.2150    0.8250   91.4560 O.co2 340  U340       -0.4373
   7365  P         28.1610    4.0670   91.2720 P.3   341  C341        0.2141
   7366  C5'       28.8880    6.5550   90.7390 C.3   341  C341        0.1812
   7367  O5'       28.4450    5.2710   90.2660 O.3   341  C341       -0.3114
   7368  C4'       27.7200    7.5050   90.8730 C.3   341  C341        0.1773
   7369  O4'       26.4950    6.8590   90.4470 O.3   341  C341       -0.3307
   7370  C3'       27.4580    8.0290   92.2870 C.3   341  C341        0.1860
   7371  O3'       27.8010    9.4130   92.4480 O.3   341  C341       -0.3112
   7372  C2'       25.9920    7.6630   92.5810 C.3   341  C341        0.2309
   7373  O2'       25.2820    8.6850   93.2520 O.3   341  C341       -0.2156
   7374  C1'       25.4210    7.3930   91.1860 C.3   341  C341        0.2420
   7375  N1        24.2930    6.4330   91.1370 N.ar  341  C341       -0.2535
   7376  C2        22.9910    6.9210   90.9650 C.ar  341  C341        0.3532
   7377  O2        22.8150    8.1470   90.8780 O.2   341  C341       -0.2443
   7378  N3        21.9590    6.0450   90.9040 N.ar  341  C341       -0.1739
   7379  C4        22.1910    4.7320   90.9980 C.ar  341  C341        0.1759
   7380  N4        21.1450    3.9050   90.9310 N.pl3 341  C341       -0.1070
   7381  C5        23.5060    4.2090   91.1680 C.ar  341  C341        0.0566
   7382  C6        24.5180    5.0860   91.2270 C.ar  341  C341        0.0850
   7383  OP1       29.4180    3.2860   91.3980 O.2   341  C341       -0.5172
   7384  OP2       27.5080    4.6010   92.4980 O.co2 341  C341       -0.4373
   7385  P         27.6330   10.6280   91.3920 P.3   342  G342        0.2141
   7386  C5'       28.3290   10.9050   88.8360 C.3   342  G342        0.1812
   7387  O5'       28.5200   10.2610   90.1180 O.3   342  G342       -0.3114
   7388  C4'       29.3330   10.3710   87.8390 C.3   342  G342        0.1773
   7389  O4'       29.4820    8.9480   88.0430 O.3   342  G342       -0.3307
   7390  C3'       28.9650   10.5040   86.3690 C.3   342  G342        0.1860
   7391  O3'       29.4540   11.7430   85.8580 O.3   342  G342       -0.3112
   7392  C2'       29.7350    9.3590   85.7050 C.3   342  G342        0.2309
   7393  O2'       31.0100    9.7510   85.2460 O.3   342  G342       -0.2156
   7394  C1'       29.9230    8.3520   86.8450 C.3   342  G342        0.2408
   7395  N1        25.4560    5.9420   87.1050 N.ar  342  G342       -0.1709
   7396  C2        25.7480    7.2620   87.3500 C.ar  342  G342        0.2606
   7397  N2        24.7180    8.0390   87.7150 N.pl3 342  G342       -0.0859
   7398  N3        26.9600    7.7820   87.2470 N.ar  342  G342       -0.1918
   7399  C4        27.8740    6.8600   86.8740 C.ar  342  G342        0.1723
   7400  C5        27.6850    5.5210   86.6020 C.ar  342  G342        0.1748
   7401  C6        26.3810    4.9760   86.7160 C.ar  342  G342        0.3023
   7402  O6        26.0110    3.8130   86.5170 O.2   342  G342       -0.2633
   7403  N7        28.8830    4.9180   86.2430 N.ar  342  G342       -0.2173
   7404  C8        29.7600    5.8820   86.3000 C.ar  342  G342        0.1817
   7405  N9        29.2140    7.0880   86.6710 N.ar  342  G342       -0.2693
   7406  OP1       28.2570   11.8280   92.0090 O.3   342  G342       -0.4373
   7407  OP2       26.2050   10.6730   90.9900 O.co2 342  G342       -0.5172
   7408  P         28.6620   12.7190   84.8360 P.3   343  C343        0.2141
   7409  C5'       27.8050   11.6570   82.5630 C.3   343  C343        0.1812
   7410  O5'       28.8940   12.1600   83.3610 O.3   343  C343       -0.3114
   7411  C4'       27.8620   10.1510   82.5180 C.3   343  C343        0.1773
   7412  O4'       27.2910    9.6080   83.7400 O.3   343  C343       -0.3307
   7413  C3'       27.0510    9.4970   81.4170 C.3   343  C343        0.1860
   7414  O3'       27.7470    9.4840   80.1820 O.3   343  C343       -0.3112
   7415  C2'       26.8360    8.0960   81.9710 C.3   343  C343        0.2309
   7416  O2'       27.9680    7.2750   81.7890 O.3   343  C343       -0.2156
   7417  C1'       26.6180    8.3880   83.4590 C.3   343  C343        0.2420
   7418  N1        25.1950    8.5250   83.8540 N.ar  343  C343       -0.2535
   7419  C2        24.3800    7.3840   83.8570 C.ar  343  C343        0.3532
   7420  O2        24.8730    6.2930   83.5290 O.2   343  C343       -0.2443
   7421  N3        23.0770    7.5030   84.2100 N.ar  343  C343       -0.1739
   7422  C4        22.5840    8.6970   84.5520 C.ar  343  C343        0.1759
   7423  N4        21.2970    8.7670   84.8980 N.pl3 343  C343       -0.1070
   7424  C5        23.3920    9.8720   84.5610 C.ar  343  C343        0.0566
   7425  C6        24.6790    9.7410   84.2100 C.ar  343  C343        0.0850
   7426  OP1       29.3300   14.0450   84.8730 O.2   343  C343       -0.5172
   7427  OP2       27.2100   12.6380   85.1240 O.co2 343  C343       -0.4373
   7428  P         26.8520    9.7770   78.8820 P.3   344  G344        0.2141
   7429  C5'       26.8860    7.1820   78.4020 C.3   344  G344        0.1812
   7430  O5'       26.1170    8.3830   78.6360 O.3   344  G344       -0.3114
   7431  C4'       26.0140    5.9460   78.4240 C.3   344  G344        0.1773
   7432  O4'       25.4620    5.7240   79.7550 O.3   344  G344       -0.3307
   7433  C3'       24.7800    5.9590   77.5370 C.3   344  G344        0.1860
   7434  O3'       25.0210    5.9030   76.1380 O.3   344  G344       -0.3112
   7435  C2'       23.9630    4.8410   78.1710 C.3   344  G344        0.2309
   7436  O2'       24.4670    3.5230   78.1220 O.3   344  G344       -0.2156
   7437  C1'       24.1430    5.1900   79.6420 C.3   344  G344        0.2408
   7438  N1        19.3030    6.0820   80.8820 N.ar  344  G344       -0.1709
   7439  C2        19.8940    4.9180   80.4480 C.ar  344  G344        0.2606
   7440  N2        19.0910    3.8510   80.3340 N.pl3 344  G344       -0.0859
   7441  N3        21.1760    4.8110   80.1450 N.ar  344  G344       -0.1918
   7442  C4        21.8330    5.9800   80.3110 C.ar  344  G344        0.1723
   7443  C5        21.3360    7.1950   80.7350 C.ar  344  G344        0.1748
   7444  C6        19.9600    7.2970   81.0610 C.ar  344  G344        0.3023
   7445  O6        19.3310    8.2900   81.4500 O.2   344  G344       -0.2633
   7446  N7        22.3410    8.1520   80.7740 N.ar  344  G344       -0.2173
   7447  C8        23.4100    7.5130   80.3850 C.ar  344  G344        0.1817
   7448  N9        23.1760    6.1890   80.0990 N.ar  344  G344       -0.2693
   7449  OP1       27.6830    9.9760   77.6660 O.2   344  G344       -0.5172
   7450  OP2       25.9110   10.8520   79.3010 O.co2 344  G344       -0.4373
   7451  P         24.2370    6.9730   75.2230 P.3   345  C345        0.2141
   7452  C5'       22.6230    5.1350   74.1840 C.3   345  C345        0.1812
   7453  O5'       22.8100    6.2850   75.0510 O.3   345  C345       -0.3114
   7454  C4'       21.5680    4.2110   74.7500 C.3   345  C345        0.1773
   7455  O4'       21.5220    4.3820   76.1960 O.3   345  C345       -0.3307
   7456  C3'       20.1410    4.4820   74.2970 C.3   345  C345        0.1860
   7457  O3'       19.8000    3.9450   73.0200 O.3   345  C345       -0.3112
   7458  C2'       19.3300    3.9110   75.4520 C.3   345  C345        0.2309
   7459  O2'       19.2410    2.5030   75.4450 O.3   345  C345       -0.2156
   7460  C1'       20.1790    4.3370   76.6480 C.3   345  C345        0.2420
   7461  N1        19.8110    5.6630   77.1680 N.ar  345  C345       -0.2535
   7462  C2        18.6290    5.7860   77.8970 C.ar  345  C345        0.3532
   7463  O2        17.9570    4.7690   78.1220 O.2   345  C345       -0.2443
   7464  N3        18.2600    7.0040   78.3610 N.ar  345  C345       -0.1739
   7465  C4        19.0280    8.0680   78.1210 C.ar  345  C345        0.1759
   7466  N4        18.6250    9.2470   78.5910 N.pl3 345  C345       -0.1070
   7467  C5        20.2340    7.9720   77.3700 C.ar  345  C345        0.0566
   7468  C6        20.5840    6.7620   76.9150 C.ar  345  C345        0.0850
   7469  OP1       24.8100    7.0160   73.8390 O.2   345  C345       -0.5172
   7470  OP2       24.0940    8.2350   76.0020 O.co2 345  C345       -0.4373
   7471  P         18.9260    4.9630   72.1250 P.3   346  C346        0.2141
   7472  C5'       16.6690    3.7820   72.8650 C.3   346  C346        0.1812
   7473  O5'       17.5530    4.9150   72.9270 O.3   346  C346       -0.3114
   7474  C4'       15.3130    4.1910   73.3890 C.3   346  C346        0.1773
   7475  O4'       15.4570    4.7140   74.7350 O.3   346  C346       -0.3307
   7476  C3'       14.6200    5.3270   72.6530 C.3   346  C346        0.1860
   7477  O3'       14.0110    4.9400   71.4260 O.3   346  C346       -0.3112
   7478  C2'       13.6210    5.8100   73.6990 C.3   346  C346        0.2309
   7479  O2'       12.4100    5.1200   73.8990 O.3   346  C346       -0.2156
   7480  C1'       14.4000    5.6070   74.9990 C.3   346  C346        0.2420
   7481  N1        14.9550    6.8910   75.3910 N.ar  346  C346       -0.2535
   7482  C2        14.1690    7.7210   76.1900 C.ar  346  C346        0.3532
   7483  O2        13.0820    7.2870   76.6330 O.2   346  C346       -0.2443
   7484  N3        14.6370    8.9460   76.5200 N.ar  346  C346       -0.1739
   7485  C4        15.8170    9.3680   76.0300 C.ar  346  C346        0.1759
   7486  N4        16.2330   10.5920   76.3630 N.pl3 346  C346       -0.1070
   7487  C5        16.6210    8.5560   75.1740 C.ar  346  C346        0.0566
   7488  C6        16.1450    7.3430   74.8650 C.ar  346  C346        0.0850
   7489  OP1       18.7280    4.4950   70.7260 O.2   346  C346       -0.5172
   7490  OP2       19.3550    6.3660   72.3700 O.co2 346  C346       -0.4373
   7491  P         14.0410    5.9840   70.2170 P.3   347  U347        0.2141
   7492  C5'       11.6250    6.8400   70.5320 C.3   347  U347        0.1812
   7493  O5'       13.0100    7.0260   70.8310 O.3   347  U347       -0.3114
   7494  C4'       10.7320    7.6450   71.4330 C.3   347  U347        0.1773
   7495  O4'       11.3450    7.8600   72.7280 O.3   347  U347       -0.3307
   7496  C3'       10.4330    9.0280   70.9060 C.3   347  U347        0.1860
   7497  O3'        9.3390    8.9090   70.0260 O.3   347  U347       -0.3112
   7498  C2'       10.0190    9.7540   72.1670 C.3   347  U347        0.2309
   7499  O2'        8.6460    9.5520   72.4450 O.3   347  U347       -0.2156
   7500  C1'       10.9530    9.1280   73.2150 C.3   347  U347        0.2420
   7501  N1        12.1610    9.9410   73.4220 N.ar  347  U347       -0.2534
   7502  C2        12.0120   11.1880   74.0270 C.ar  347  U347        0.3546
   7503  O2        10.9300   11.6240   74.4280 O.2   347  U347       -0.2443
   7504  N3        13.1810   11.8980   74.1590 N.ar  347  U347       -0.1530
   7505  C4        14.4540   11.5150   73.7410 C.ar  347  U347        0.2846
   7506  O4        15.4070   12.2730   73.9370 O.2   347  U347       -0.2650
   7507  C5        14.5250   10.2250   73.0990 C.ar  347  U347        0.0814
   7508  C6        13.4050    9.4970   72.9710 C.ar  347  U347        0.0870
   7509  OP1       13.4170    5.5290   68.9460 O.2   347  U347       -0.5172
   7510  OP2       15.3750    6.6000   70.1500 O.co2 347  U347       -0.4373
   7511  P          9.4110    9.5900   68.5940 P.3   348  A348        0.2141
   7512  C5'        8.1150   11.6150   69.5530 C.3   348  A348        0.1812
   7513  O5'        9.3140   11.1200   68.9940 O.3   348  A348       -0.3114
   7514  C4'        8.3410   13.0580   69.8580 C.3   348  A348        0.1773
   7515  O4'        9.5470   13.1860   70.6480 O.3   348  A348       -0.3307
   7516  C3'        8.5310   13.9670   68.6390 C.3   348  A348        0.1860
   7517  O3'        7.6240   15.0630   68.7640 O.3   348  A348       -0.3112
   7518  C2'        9.9750   14.4620   68.7620 C.3   348  A348        0.2309
   7519  O2'       10.1150   15.8040   68.3300 O.3   348  A348       -0.2156
   7520  C1'       10.2030   14.3780   70.2700 C.3   348  A348        0.2408
   7521  N1        14.1460   16.2550   73.0370 N.ar  348  A348       -0.2040
   7522  C2        12.8890   16.6960   72.8600 C.ar  348  A348        0.2016
   7523  N3        11.9100   16.1790   72.1120 N.ar  348  A348       -0.2048
   7524  C4        12.3300   15.0600   71.4900 C.ar  348  A348        0.1692
   7525  C5        13.5900   14.4890   71.5690 C.ar  348  A348        0.1518
   7526  C6        14.5400   15.1420   72.3720 C.ar  348  A348        0.1919
   7527  N6        15.7930   14.7060   72.5350 N.pl3 348  A348       -0.1054
   7528  N7        13.6540   13.3350   70.8030 N.ar  348  A348       -0.2193
   7529  C8        12.4570   13.2390   70.2760 C.ar  348  A348        0.1816
   7530  N9        11.6060   14.2500   70.6460 N.ar  348  A348       -0.2693
   7531  OP1        8.2110    9.2200   67.8200 O.2   348  A348       -0.5172
   7532  OP2       10.7350    9.4510   67.9260 O.co2 348  A348       -0.4373
   7533  P          6.2750   15.0420   67.9290 P.3   349  A349        0.2141
   7534  C5'        4.0450   16.0180   68.8730 C.3   349  A349        0.1812
   7535  O5'        5.3830   15.5970   69.1270 O.3   349  A349       -0.3114
   7536  C4'        3.5330   16.7640   70.0620 C.3   349  A349        0.1773
   7537  O4'        4.1150   16.1690   71.2470 O.3   349  A349       -0.3307
   7538  C3'        3.9660   18.2200   70.1250 C.3   349  A349        0.1860
   7539  O3'        3.0940   19.0840   69.4130 O.3   349  A349       -0.3112
   7540  C2'        3.9780   18.4940   71.6090 C.3   349  A349        0.2309
   7541  O2'        2.6420   18.4080   72.0100 O.3   349  A349       -0.2156
   7542  C1'        4.5090   17.1790   72.1510 C.3   349  A349        0.2408
   7543  N1         8.4640   18.9170   74.8920 N.ar  349  A349       -0.2040
   7544  C2         7.1490   19.1520   74.9480 C.ar  349  A349        0.2016
   7545  N3         6.1720   18.6640   74.1860 N.ar  349  A349       -0.2048
   7546  C4         6.6640   17.8300   73.2530 C.ar  349  A349        0.1692
   7547  C5         7.9890   17.4730   73.0770 C.ar  349  A349        0.1518
   7548  C6         8.9300   18.0740   73.9440 C.ar  349  A349        0.1919
   7549  N6        10.2440   17.8380   73.8980 N.pl3 349  A349       -0.1054
   7550  N7         8.1220   16.5820   72.0130 N.ar  349  A349       -0.2193
   7551  C8         6.8920   16.4150   71.5880 C.ar  349  A349        0.1816
   7552  N9         5.9580   17.1330   72.3030 N.ar  349  A349       -0.2693
   7553  OP1        6.0220   13.6420   67.5520 O.3   349  A349       -0.4373
   7554  OP2        6.3340   16.0500   66.8190 O.co2 349  A349       -0.5172
   7555  P          3.8810   19.8370   68.2170 P.3   350  G350        0.2141
   7556  C5'        3.9300   21.6360   70.1560 C.3   350  G350        0.1812
   7557  O5'        4.6310   20.8650   69.1770 O.3   350  G350       -0.3114
   7558  C4'        4.9360   22.3700   71.0150 C.3   350  G350        0.1773
   7559  O4'        5.6730   21.4400   71.8690 O.3   350  G350       -0.3307
   7560  C3'        6.0230   23.1170   70.2620 C.3   350  G350        0.1860
   7561  O3'        5.5700   24.3900   69.8460 O.3   350  G350       -0.3112
   7562  C2'        7.1130   23.2040   71.3210 C.3   350  G350        0.2309
   7563  O2'        6.8210   24.2200   72.2680 O.3   350  G350       -0.2156
   7564  C1'        7.0520   21.7920   71.9000 C.3   350  G350        0.2408
   7565  N1        11.5460   19.5630   71.0610 N.ar  350  G350       -0.1709
   7566  C2        11.2090   20.5350   71.9760 C.ar  350  G350        0.2606
   7567  N2        12.1870   20.9520   72.7920 N.pl3 350  G350       -0.0859
   7568  N3         9.9940   21.0430   72.1030 N.ar  350  G350       -0.1918
   7569  C4         9.1290   20.4990   71.2230 C.ar  350  G350        0.1723
   7570  C5         9.3680   19.5370   70.2580 C.ar  350  G350        0.1748
   7571  C6        10.6740   19.0070   70.1260 C.ar  350  G350        0.3023
   7572  O6        11.0880   18.1780   69.3010 O.2   350  G350       -0.2633
   7573  N7         8.2180   19.2750   69.5260 N.ar  350  G350       -0.2173
   7574  C8         7.3100   20.0410   70.0710 C.ar  350  G350        0.1817
   7575  N9         7.7970   20.8130   71.1020 N.ar  350  G350       -0.2693
   7576  OP1        2.8280   20.6320   67.5520 O.3   350  G350       -0.4373
   7577  OP2        4.8520   19.0320   67.3880 O.co2 350  G350       -0.5172
   7578  P          5.9740   24.8910   68.3810 P.3   351  C351        0.2141
   7579  C5'        7.9940   26.0600   69.5840 C.3   351  C351        0.1812
   7580  O5'        7.5240   25.2560   68.4780 O.3   351  C351       -0.3114
   7581  C4'        9.5010   26.1030   69.6350 C.3   351  C351        0.1773
   7582  O4'        9.9870   24.9190   70.3100 O.3   351  C351       -0.3307
   7583  C3'       10.2290   26.0890   68.3030 C.3   351  C351        0.1860
   7584  O3'       10.2070   27.3740   67.6950 O.3   351  C351       -0.3112
   7585  C2'       11.6020   25.5880   68.7270 C.3   351  C351        0.2309
   7586  O2'       12.4700   26.5400   69.2890 O.3   351  C351       -0.2156
   7587  C1'       11.2130   24.5140   69.7400 C.3   351  C351        0.2420
   7588  N1        10.9980   23.2560   69.0280 N.ar  351  C351       -0.2535
   7589  C2        12.1140   22.4550   68.7660 C.ar  351  C351        0.3532
   7590  O2        13.2110   22.7870   69.2440 O.2   351  C351       -0.2443
   7591  N3        11.9630   21.3290   68.0270 N.ar  351  C351       -0.1739
   7592  C4        10.7610   21.0090   67.5410 C.ar  351  C351        0.1759
   7593  N4        10.6520   19.8860   66.8470 N.pl3 351  C351       -0.1070
   7594  C5         9.6160   21.8310   67.7550 C.ar  351  C351        0.0566
   7595  C6         9.7800   22.9410   68.4900 C.ar  351  C351        0.0850
   7596  OP1        5.0170   26.0350   68.4680 O.3   351  C351       -0.4373
   7597  OP2        5.8930   23.9130   67.2620 O.co2 351  C351       -0.5172
   7598  P         10.6550   27.7500   66.1920 P.3   352  U352        0.2141
   7599  C5'       13.2570   27.6500   66.7610 C.3   352  U352        0.1812
   7600  O5'       12.1030   27.0870   66.1180 O.3   352  U352       -0.3114
   7601  C4'       14.4590   27.1960   65.9920 C.3   352  U352        0.1773
   7602  O4'       14.7990   25.8540   66.4440 O.3   352  U352       -0.3307
   7603  C3'       14.1980   27.0340   64.5030 C.3   352  U352        0.1860
   7604  O3'       14.3550   28.2330   63.7620 O.3   352  U352       -0.3112
   7605  C2'       15.2360   25.9900   64.1190 C.3   352  U352        0.2309
   7606  O2'       16.4690   26.5830   63.7420 O.3   352  U352       -0.2156
   7607  C1'       15.2060   25.0640   65.3420 C.3   352  U352        0.2420
   7608  N1        14.2380   23.9700   65.1400 N.ar  352  U352       -0.2534
   7609  C2        14.7440   22.7100   64.8750 C.ar  352  U352        0.3546
   7610  O2        15.9360   22.4550   64.9070 O.2   352  U352       -0.2443
   7611  N3        13.7950   21.7490   64.6220 N.ar  352  U352       -0.1530
   7612  C4        12.4230   21.9140   64.5800 C.ar  352  U352        0.2846
   7613  O4        11.6990   20.9410   64.3400 O.2   352  U352       -0.2650
   7614  C5        11.9790   23.2490   64.8460 C.ar  352  U352        0.0814
   7615  C6        12.8800   24.2120   65.0880 C.ar  352  U352        0.0870
   7616  OP1       10.5960   29.2480   66.2910 O.3   352  U352       -0.4373
   7617  OP2        9.9520   27.0770   65.0690 O.co2 352  U352       -0.5172
   7618  P         14.4730   28.2730   62.1410 P.3   353  U353        0.2141
   7619  C5'       16.8130   27.2830   61.3250 C.3   353  U353        0.1812
   7620  O5'       15.4120   27.1000   61.6020 O.3   353  U353       -0.3114
   7621  C4'       17.3780   26.0920   60.5840 C.3   353  U353        0.1773
   7622  O4'       17.2530   24.8750   61.3900 O.3   353  U353       -0.3307
   7623  C3'       16.7020   25.7220   59.2690 C.3   353  U353        0.1860
   7624  O3'       17.0500   26.4930   58.1180 O.3   353  U353       -0.3112
   7625  C2'       17.1900   24.2900   59.0960 C.3   353  U353        0.2309
   7626  O2'       18.5100   24.2510   58.5800 O.3   353  U353       -0.2156
   7627  C1'       17.0470   23.7530   60.5260 C.3   353  U353        0.2420
   7628  N1        15.6990   23.1870   60.7500 N.ar  353  U353       -0.2534
   7629  C2        15.4590   21.8740   60.3700 C.ar  353  U353        0.3546
   7630  O2        16.3210   21.1440   59.9180 O.2   353  U353       -0.2443
   7631  N3        14.1680   21.4480   60.5540 N.ar  353  U353       -0.1530
   7632  C4        13.1110   22.1770   61.0510 C.ar  353  U353        0.2846
   7633  O4        12.0050   21.6520   61.1450 O.2   353  U353       -0.2650
   7634  C5        13.4310   23.5250   61.4010 C.ar  353  U353        0.0814
   7635  C6        14.6780   23.9780   61.2280 C.ar  353  U353        0.0870
   7636  OP1       15.2360   29.5180   61.9030 O.3   353  U353       -0.4373
   7637  OP2       13.1440   28.1430   61.4840 O.co2 353  U353       -0.5172
   7638  P         16.0630   26.6110   56.8370 P.3   354  G354        0.2141
   7639  C5'       17.4780   24.8530   55.4970 C.3   354  G354        0.1812
   7640  O5'       16.2210   25.2320   56.0620 O.3   354  G354       -0.3114
   7641  C4'       17.4230   23.4290   55.0230 C.3   354  G354        0.1773
   7642  O4'       17.2260   22.5290   56.1530 O.3   354  G354       -0.3307
   7643  C3'       16.3020   23.0660   54.0640 C.3   354  G354        0.1860
   7644  O3'       16.6170   23.3530   52.7020 O.3   354  G354       -0.3112
   7645  C2'       16.2760   21.5550   54.2460 C.3   354  G354        0.2309
   7646  O2'       17.4400   20.9230   53.7550 O.3   354  G354       -0.2156
   7647  C1'       16.3980   21.4460   55.7610 C.3   354  G354        0.2408
   7648  N1        12.0000   19.1090   56.7490 N.ar  354  G354       -0.1709
   7649  C2        13.0830   18.6670   56.0340 C.ar  354  G354        0.2606
   7650  N2        12.9830   17.4400   55.5090 N.pl3 354  G354       -0.0859
   7651  N3        14.1830   19.3740   55.8460 N.ar  354  G354       -0.1918
   7652  C4        14.1160   20.5800   56.4460 C.ar  354  G354        0.1723
   7653  C5        13.0860   21.1140   57.1890 C.ar  354  G354        0.1748
   7654  C6        11.9110   20.3370   57.3880 C.ar  354  G354        0.3023
   7655  O6        10.9010   20.6130   58.0470 O.2   354  G354       -0.2633
   7656  N7        13.4160   22.3830   57.6450 N.ar  354  G354       -0.2173
   7657  C8        14.6170   22.5940   57.1760 C.ar  354  G354        0.1817
   7658  N9        15.1040   21.5390   56.4450 N.ar  354  G354       -0.2693
   7659  OP1       16.5010   27.6920   55.9160 O.2   354  G354       -0.5172
   7660  OP2       14.6830   26.6860   57.3350 O.co2 354  G354       -0.4373
   7661  P         15.8830   24.3380   51.6600 P.3   355  A355        0.2141
   7662  C5'       16.5240   26.9520   51.5550 C.3   355  A355        0.1812
   7663  O5'       16.8300   25.5890   51.9690 O.3   355  A355       -0.3114
   7664  C4'       17.5990   27.4920   50.6270 C.3   355  A355        0.1773
   7665  O4'       18.8850   27.5480   51.3110 O.3   355  A355       -0.3307
   7666  C3'       17.8650   26.6460   49.3880 C.3   355  A355        0.1860
   7667  O3'       16.9680   26.9790   48.3370 O.3   355  A355       -0.3112
   7668  C2'       19.2880   27.0340   49.0240 C.3   355  A355        0.2309
   7669  O2'       19.1880   28.1750   48.2090 O.3   355  A355       -0.2156
   7670  C1'       19.9300   27.2460   50.3970 C.3   355  A355        0.2408
   7671  N1        24.3430   24.5830   50.4450 N.ar  355  A355       -0.2040
   7672  C2        24.0080   25.7630   49.9050 C.ar  355  A355        0.2016
   7673  N3        22.8420   26.4070   49.9360 N.ar  355  A355       -0.2048
   7674  C4        21.9270   25.6960   50.6140 C.ar  355  A355        0.1692
   7675  C5        22.1150   24.4640   51.2190 C.ar  355  A355        0.1518
   7676  C6        23.4010   23.8910   51.1210 C.ar  355  A355        0.1919
   7677  N6        23.7410   22.7170   51.6620 N.pl3 355  A355       -0.1054
   7678  N7        20.9490   24.0440   51.8430 N.ar  355  A355       -0.2193
   7679  C8        20.0940   25.0080   51.5970 C.ar  355  A355        0.1816
   7680  N9        20.6220   26.0450   50.8670 N.ar  355  A355       -0.2693
   7681  OP1       14.5550   24.8440   52.0550 O.3   355  A355       -0.4373
   7682  OP2       16.0510   23.7620   50.2940 O.co2 355  A355       -0.5172
   7683  P         16.8250   25.9880   47.0880 P.3   356  A356        0.2141
   7684  C5'       18.7650   25.6830   45.3530 C.3   356  A356        0.1812
   7685  O5'       18.3150   26.2240   46.5950 O.3   356  A356       -0.3114
   7686  C4'       20.2730   25.5800   45.3490 C.3   356  A356        0.1773
   7687  O4'       20.7980   25.6120   46.7120 O.3   356  A356       -0.3307
   7688  C3'       20.8100   24.2930   44.7340 C.3   356  A356        0.1860
   7689  O3'       20.8880   24.4410   43.3210 O.3   356  A356       -0.3112
   7690  C2'       22.1310   24.1170   45.4670 C.3   356  A356        0.2309
   7691  O2'       23.1470   24.8540   44.8290 O.3   356  A356       -0.2156
   7692  C1'       21.7550   24.5820   46.8790 C.3   356  A356        0.2408
   7693  N1        22.4140   19.9930   49.1320 N.ar  356  A356       -0.2040
   7694  C2        23.2470   20.7860   48.4450 C.ar  356  A356        0.2016
   7695  N3        23.0130   21.9700   47.8860 N.ar  356  A356       -0.2048
   7696  C4        21.7420   22.3540   48.0990 C.ar  356  A356        0.1692
   7697  C5        20.7680   21.6480   48.7820 C.ar  356  A356        0.1518
   7698  C6        21.1420   20.4040   49.3230 C.ar  356  A356        0.1919
   7699  N6        20.3190   19.6210   50.0240 N.pl3 356  A356       -0.1054
   7700  N7        19.5710   22.3510   48.7940 N.ar  356  A356       -0.2193
   7701  C8        19.8440   23.4500   48.1340 C.ar  356  A356        0.1816
   7702  N9        21.1400   23.5190   47.6840 N.ar  356  A356       -0.2693
   7703  OP1       15.9400   26.4860   46.0130 O.2   356  A356       -0.5172
   7704  OP2       16.6800   24.5700   47.5440 O.co2 356  A356       -0.4373
   7705  P         20.2590   23.2050   42.4860 P.3   357  C357        0.2141
   7706  C5'       22.6580   22.1730   42.3720 C.3   357  C357        0.1812
   7707  O5'       21.3220   22.0850   42.9170 O.3   357  C357       -0.3114
   7708  C4'       23.6530   21.2190   42.9950 C.3   357  C357        0.1773
   7709  O4'       23.5610   21.2110   44.4430 O.3   357  C357       -0.3307
   7710  C3'       23.6080   19.7470   42.5930 C.3   357  C357        0.1860
   7711  O3'       24.1400   19.5210   41.2700 O.3   357  C357       -0.3112
   7712  C2'       24.4350   19.1300   43.7200 C.3   357  C357        0.2309
   7713  O2'       25.8260   19.3330   43.6330 O.3   357  C357       -0.2156
   7714  C1'       23.9680   19.9450   44.9320 C.3   357  C357        0.2420
   7715  N1        22.8090   19.2950   45.5580 N.ar  357  C357       -0.2535
   7716  C2        23.0230   18.1390   46.3180 C.ar  357  C357        0.3532
   7717  O2        24.1880   17.7540   46.5060 O.2   357  C357       -0.2443
   7718  N3        21.9590   17.4930   46.8530 N.ar  357  C357       -0.1739
   7719  C4        20.7220   17.9460   46.6270 C.ar  357  C357        0.1759
   7720  N4        19.7040   17.2710   47.1560 N.pl3 357  C357       -0.1070
   7721  C5        20.4750   19.1080   45.8390 C.ar  357  C357        0.0566
   7722  C6        21.5370   19.7380   45.3190 C.ar  357  C357        0.0850
   7723  OP1       20.4050   23.5010   41.0370 O.2   357  C357       -0.5172
   7724  OP2       18.9090   22.8800   42.9800 O.co2 357  C357       -0.4373
   7725  P         23.7380   18.3010   40.3090 P.3   358  C358        0.2141
   7726  C5'       25.8250   17.2700   41.5220 C.3   358  C358        0.1812
   7727  O5'       24.4720   17.1150   41.0610 O.3   358  C358       -0.3114
   7728  C4'       26.3090   15.9580   42.0650 C.3   358  C358        0.1773
   7729  O4'       25.8960   15.8460   43.4550 O.3   358  C358       -0.3307
   7730  C3'       25.6940   14.7280   41.4180 C.3   358  C358        0.1860
   7731  O3'       26.3170   14.3410   40.2150 O.3   358  C358       -0.3112
   7732  C2'       25.8990   13.6970   42.5030 C.3   358  C358        0.2309
   7733  O2'       27.2630   13.3340   42.4750 O.3   358  C358       -0.2156
   7734  C1'       25.4770   14.5110   43.7300 C.3   358  C358        0.2420
   7735  N1        24.0070   14.5060   43.9230 N.ar  358  C358       -0.2535
   7736  C2        23.3780   13.3080   44.2780 C.ar  358  C358        0.3532
   7737  O2        24.0710   12.3010   44.4720 O.2   358  C358       -0.2443
   7738  N3        22.0340   13.2830   44.4200 N.ar  358  C358       -0.1739
   7739  C4        21.3200   14.3840   44.1870 C.ar  358  C358        0.1759
   7740  N4        19.9990   14.3060   44.3230 N.pl3 358  C358       -0.1070
   7741  C5        21.9320   15.6160   43.8130 C.ar  358  C358        0.0566
   7742  C6        23.2650   15.6310   43.6920 C.ar  358  C358        0.0850
   7743  OP1       24.3960   18.2640   39.0020 O.2   358  C358       -0.5172
   7744  OP2       22.3050   18.0600   40.3600 O.co2 358  C358       -0.4373
   7745  P         25.5180   14.6550   38.8920 P.3   359  G359        0.2141
   7746  C5'       23.8950   12.6260   38.4650 C.3   359  G359        0.1812
   7747  O5'       24.1300   13.9010   39.0690 O.3   359  G359       -0.3114
   7748  C4'       24.3290   11.5230   39.4030 C.3   359  G359        0.1773
   7749  O4'       23.9940   11.8740   40.7780 O.3   359  G359       -0.3307
   7750  C3'       23.6890   10.1580   39.1680 C.3   359  G359        0.1860
   7751  O3'       24.4420    9.4300   38.2020 O.3   359  G359       -0.3112
   7752  C2'       23.8210    9.5130   40.5360 C.3   359  G359        0.2309
   7753  O2'       25.0830    8.9060   40.7040 O.3   359  G359       -0.2156
   7754  C1'       23.6080   10.7080   41.4810 C.3   359  G359        0.2408
   7755  N1        19.6960    8.3720   43.6810 N.ar  359  G359       -0.1709
   7756  C2        21.0040    7.9780   43.5790 C.ar  359  G359        0.2606
   7757  N2        21.3070    6.7910   44.1200 N.pl3 359  G359       -0.0859
   7758  N3        21.9480    8.6940   42.9930 N.ar  359  G359       -0.1918
   7759  C4        21.4680    9.8560   42.4980 C.ar  359  G359        0.1723
   7760  C5        20.1760   10.3350   42.5310 C.ar  359  G359        0.1748
   7761  C6        19.1740    9.5550   43.1720 C.ar  359  G359        0.3023
   7762  O6        17.9730    9.8030   43.3100 O.2   359  G359       -0.2633
   7763  N7        20.0930   11.5700   41.9000 N.ar  359  G359       -0.2173
   7764  C8        21.3140   11.8150   41.5080 C.ar  359  G359        0.1817
   7765  N9        22.2000   10.8220   41.8500 N.ar  359  G359       -0.2693
   7766  OP1       26.2900   13.9480   37.8510 O.2   359  G359       -0.5172
   7767  OP2       25.2450   16.1170   38.7880 O.co2 359  G359       -0.4373
   7768  P         23.7780    8.6780   36.9420 P.3   360  C360        0.2141
   7769  C5'       24.0360    6.4580   38.3250 C.3   360  C360        0.1812
   7770  O5'       23.1700    7.4140   37.6950 O.3   360  C360       -0.3114
   7771  C4'       23.2240    5.5140   39.1490 C.3   360  C360        0.1773
   7772  O4'       22.6510    6.2610   40.2410 O.3   360  C360       -0.3307
   7773  C3'       22.0230    4.8990   38.4520 C.3   360  C360        0.1860
   7774  O3'       22.3810    3.6930   37.7950 O.3   360  C360       -0.3112
   7775  C2'       21.1080    4.5630   39.6200 C.3   360  C360        0.2309
   7776  O2'       21.5060    3.4620   40.3920 O.3   360  C360       -0.2156
   7777  C1'       21.3930    5.7080   40.5830 C.3   360  C360        0.2420
   7778  N1        20.3620    6.7440   40.4840 N.ar  360  C360       -0.2535
   7779  C2        19.1310    6.5110   41.1120 C.ar  360  C360        0.3532
   7780  O2        18.9750    5.4690   41.7620 O.2   360  C360       -0.2443
   7781  N3        18.1520    7.4350   41.0080 N.ar  360  C360       -0.1739
   7782  C4        18.3640    8.5550   40.3170 C.ar  360  C360        0.1759
   7783  N4        17.3690    9.4400   40.2540 N.pl3 360  C360       -0.1070
   7784  C5        19.6080    8.8190   39.6640 C.ar  360  C360        0.0566
   7785  C6        20.5670    7.8910   39.7660 C.ar  360  C360        0.0850
   7786  OP1       24.7980    8.2120   35.9080 O.2   360  C360       -0.5172
   7787  OP2       22.6410    9.5260   36.5150 O.co2 360  C360       -0.4373
   7788  P         21.6780    3.3250   36.4040 P.3   361  C361        0.2141
   7789  C5'       20.4570    1.3840   37.5900 C.3   361  C361        0.1812
   7790  O5'       20.3500    2.5240   36.7520 O.3   361  C361       -0.3114
   7791  C4'       19.0920    0.9440   37.9990 C.3   361  C361        0.1773
   7792  O4'       18.6280    1.8030   39.0710 O.3   361  C361       -0.3307
   7793  C3'       18.0160    1.0540   36.9460 C.3   361  C361        0.1860
   7794  O3'       17.9350   -0.1850   36.3090 O.3   361  C361       -0.3112
   7795  C2'       16.7630    1.1140   37.8040 C.3   361  C361        0.2309
   7796  O2'       16.4280   -0.1290   38.3990 O.3   361  C361       -0.2156
   7797  C1'       17.2290    2.0050   38.9510 C.3   361  C361        0.2420
   7798  N1        16.9580    3.4390   38.7340 N.ar  361  C361       -0.2535
   7799  C2        15.6470    3.8990   38.8980 C.ar  361  C361        0.3532
   7800  O2        14.7640    3.0920   39.2220 O.2   361  C361       -0.2443
   7801  N3        15.3770    5.2110   38.7050 N.ar  361  C361       -0.1739
   7802  C4        16.3580    6.0500   38.3600 C.ar  361  C361        0.1759
   7803  N4        16.0460    7.3320   38.1850 N.pl3 361  C361       -0.1070
   7804  C5        17.7060    5.6110   38.1970 C.ar  361  C361        0.0566
   7805  C6        17.9580    4.3090   38.3930 C.ar  361  C361        0.0850
   7806  OP1       22.4860    2.3620   35.5960 O.2   361  C361       -0.5172
   7807  OP2       21.4070    4.6780   35.8960 O.co2 361  C361       -0.4373
   7808  P         17.4440   -0.2600   34.8110 P.3   362  G362        0.2141
   7809  C5'       15.3030   -1.2560   36.0220 C.3   362  G362        0.1812
   7810  O5'       15.8750   -0.5250   34.9240 O.3   362  G362       -0.3114
   7811  C4'       13.8060   -1.0900   36.0000 C.3   362  G362        0.1773
   7812  O4'       13.4130   -0.0360   36.9120 O.3   362  G362       -0.3307
   7813  C3'       13.2540   -0.6570   34.6530 C.3   362  G362        0.1860
   7814  O3'       13.0390   -1.8150   33.8560 O.3   362  G362       -0.3112
   7815  C2'       11.9530    0.0250   35.0500 C.3   362  G362        0.2309
   7816  O2'       10.9690   -0.9420   35.3370 O.3   362  G362       -0.2156
   7817  C1'       12.3520    0.7190   36.3480 C.3   362  G362        0.2408
   7818  N1        10.9370    5.5710   35.8270 N.ar  362  G362       -0.1709
   7819  C2        10.1630    4.4540   35.9900 C.ar  362  G362        0.2606
   7820  N2         8.8450    4.6570   36.0310 N.pl3 362  G362       -0.0859
   7821  N3        10.6470    3.2300   36.1160 N.ar  362  G362       -0.1918
   7822  C4        11.9950    3.2130   36.0650 C.ar  362  G362        0.1723
   7823  C5        12.8610    4.2740   35.9130 C.ar  362  G362        0.1748
   7824  C6        12.3240    5.5840   35.7940 C.ar  362  G362        0.3023
   7825  O6        12.9230    6.6550   35.6660 O.2   362  G362       -0.2633
   7826  N7        14.1790    3.8370   35.9110 N.ar  362  G362       -0.2173
   7827  C8        14.0920    2.5440   36.0700 C.ar  362  G362        0.1817
   7828  N9        12.7960    2.0990   36.1680 N.ar  362  G362       -0.2693
   7829  OP1       17.9300   -1.4660   34.0870 O.2   362  G362       -0.5172
   7830  OP2       17.8470    1.0900   34.3100 O.co2 362  G362       -0.4373
   7831  P         12.8340   -1.7000   32.2890 P.3   363  U363        0.2141
   7832  C5'       10.1630   -1.7030   32.1050 C.3   363  U363        0.1812
   7833  O5'       11.4170   -0.9930   32.0620 O.3   363  U363       -0.3114
   7834  C4'        9.0310   -0.7180   31.9950 C.3   363  U363        0.1773
   7835  O4'        9.2040    0.3050   33.0150 O.3   363  U363       -0.3307
   7836  C3'        8.9900    0.0810   30.7070 C.3   363  U363        0.1860
   7837  O3'        8.4260   -0.6270   29.6130 O.3   363  U363       -0.3112
   7838  C2'        8.2020    1.3270   31.1210 C.3   363  U363        0.2309
   7839  O2'        6.7930    1.3160   31.0090 O.3   363  U363       -0.2156
   7840  C1'        8.6960    1.5520   32.5540 C.3   363  U363        0.2420
   7841  N1         9.7790    2.5490   32.5930 N.ar  363  U363       -0.2534
   7842  C2         9.4280    3.8840   32.4900 C.ar  363  U363        0.3546
   7843  O2         8.2730    4.2610   32.4210 O.2   363  U363       -0.2443
   7844  N3        10.4850    4.7610   32.4740 N.ar  363  U363       -0.1530
   7845  C4        11.8280    4.4520   32.5150 C.ar  363  U363        0.2846
   7846  O4        12.6630    5.3610   32.4810 O.2   363  U363       -0.2650
   7847  C5        12.1110    3.0500   32.6200 C.ar  363  U363        0.0814
   7848  C6        11.1020    2.1680   32.6420 C.ar  363  U363        0.0870
   7849  OP1       12.7780   -3.0720   31.7020 O.2   363  U363       -0.5172
   7850  OP2       13.8970   -0.7580   31.8240 O.co2 363  U363       -0.4373
   7851  P          9.0600   -0.3040   28.1630 P.3   364  A364        0.2141
   7852  C5'        7.1820    1.4810   27.6060 C.3   364  A364        0.1812
   7853  O5'        8.5390    1.1960   27.9860 O.3   364  A364       -0.3114
   7854  C4'        6.9610    2.9710   27.5980 C.3   364  A364        0.1773
   7855  O4'        7.5030    3.5740   28.8060 O.3   364  A364       -0.3307
   7856  C3'        7.6670    3.7400   26.4900 C.3   364  A364        0.1860
   7857  O3'        6.9900    3.6350   25.2410 O.3   364  A364       -0.3112
   7858  C2'        7.6440    5.1590   27.0400 C.3   364  A364        0.2309
   7859  O2'        6.4100    5.7800   26.7970 O.3   364  A364       -0.2156
   7860  C1'        7.8670    4.9200   28.5360 C.3   364  A364        0.2408
   7861  N1        11.6530    8.2970   29.3340 N.ar  364  A364       -0.2040
   7862  C2        10.3450    8.4540   29.0850 C.ar  364  A364        0.2016
   7863  N3         9.4080    7.5290   28.8970 N.ar  364  A364       -0.2048
   7864  C4         9.9380    6.2960   28.9790 C.ar  364  A364        0.1692
   7865  C5        11.2590    5.9760   29.2320 C.ar  364  A364        0.1518
   7866  C6        12.1510    7.0420   29.4130 C.ar  364  A364        0.1919
   7867  N6        13.4530    6.8860   29.6520 N.pl3 364  A364       -0.1054
   7868  N7        11.4300    4.6020   29.2710 N.ar  364  A364       -0.2193
   7869  C8        10.2350    4.1280   29.0220 C.ar  364  A364        0.1816
   7870  N9         9.2790    5.0960   28.8630 N.ar  364  A364       -0.2693
   7871  OP1        8.5230   -1.0700   27.0080 O.2   364  A364       -0.5172
   7872  OP2       10.5330   -0.2950   28.3710 O.co2 364  A364       -0.4373
   7873  P          7.8780    3.3690   23.9150 P.3   365  U365        0.2141
   7874  C5'        7.6930    6.0160   23.6380 C.3   365  U365        0.1812
   7875  O5'        8.5080    4.8240   23.7240 O.3   365  U365       -0.3114
   7876  C4'        8.5620    7.2570   23.6660 C.3   365  U365        0.1773
   7877  O4'        9.1010    7.4870   24.9980 O.3   365  U365       -0.3307
   7878  C3'        9.8050    7.2100   22.8100 C.3   365  U365        0.1860
   7879  O3'        9.4240    7.4650   21.4780 O.3   365  U365       -0.3112
   7880  C2'       10.6300    8.3360   23.4110 C.3   365  U365        0.2309
   7881  O2'       10.1970    9.6050   22.9820 O.3   365  U365       -0.2156
   7882  C1'       10.3500    8.1540   24.9040 C.3   365  U365        0.2420
   7883  N1        11.3760    7.3230   25.5540 N.ar  365  U365       -0.2534
   7884  C2        12.5260    7.9430   26.0150 C.ar  365  U365        0.3546
   7885  O2        12.7020    9.1450   25.9620 O.2   365  U365       -0.2443
   7886  N3        13.4540    7.0960   26.5630 N.ar  365  U365       -0.1530
   7887  C4        13.3650    5.7280   26.6950 C.ar  365  U365        0.2846
   7888  O4        14.2850    5.1120   27.2340 O.2   365  U365       -0.2650
   7889  C5        12.1560    5.1610   26.1840 C.ar  365  U365        0.0814
   7890  C6        11.2290    5.9560   25.6380 C.ar  365  U365        0.0870
   7891  OP1        6.9840    3.1430   22.7600 O.2   365  U365       -0.5172
   7892  OP2        8.9610    2.3790   24.1740 O.co2 365  U365       -0.4373
   7893  P         10.4690    7.0320   20.3550 P.3   366  A366        0.2141
   7894  C5'       11.6330    9.3250   19.8390 C.3   366  A366        0.1812
   7895  O5'       11.6800    8.0510   20.5010 O.3   366  A366       -0.3114
   7896  C4'       12.7590   10.2070   20.3170 C.3   366  A366        0.1773
   7897  O4'       12.9500   10.1760   21.7640 O.3   366  A366       -0.3307
   7898  C3'       14.1600    9.8320   19.8730 C.3   366  A366        0.1860
   7899  O3'       14.3390    9.8490   18.4660 O.3   366  A366       -0.3112
   7900  C2'       14.9790   10.8050   20.7160 C.3   366  A366        0.2309
   7901  O2'       14.9060   12.1350   20.2560 O.3   366  A366       -0.2156
   7902  C1'       14.2190   10.7630   22.0480 C.3   366  A366        0.2408
   7903  N1        18.3030   10.6200   25.1300 N.ar  366  A366       -0.2040
   7904  C2        17.8170   11.5590   24.3090 C.ar  366  A366        0.2016
   7905  N3        16.7260   11.5280   23.5380 N.ar  366  A366       -0.2048
   7906  C4        16.0940   10.3500   23.6580 C.ar  366  A366        0.1692
   7907  C5        16.4630    9.2920   24.4680 C.ar  366  A366        0.1518
   7908  C6        17.6310    9.4550   25.2410 C.ar  366  A366        0.1919
   7909  N6        18.1020    8.5330   26.0680 N.pl3 366  A366       -0.1054
   7910  N7        15.5510    8.2510   24.3580 N.ar  366  A366       -0.2193
   7911  C8        14.6820    8.6850   23.4760 C.ar  366  A366        0.1816
   7912  N9        14.9350    9.9590   23.0330 N.ar  366  A366       -0.2693
   7913  OP1        9.7300    7.3390   19.1050 O.2   366  A366       -0.5172
   7914  OP2       11.0550    5.6820   20.5980 O.co2 366  A366       -0.4373
   7915  P         15.5320    8.9420   17.8760 P.3   367  C367        0.2141
   7916  C5'       17.9540    9.7600   18.0410 C.3   367  C367        0.1812
   7917  O5'       16.8140    9.2870   18.7420 O.3   367  C367       -0.3114
   7918  C4'       18.7550   10.6980   18.8940 C.3   367  C367        0.1773
   7919  O4'       18.3970   10.5390   20.2850 O.3   367  C367       -0.3307
   7920  C3'       20.2460   10.4180   18.9410 C.3   367  C367        0.1860
   7921  O3'       20.8780   10.7900   17.7300 O.3   367  C367       -0.3112
   7922  C2'       20.6600   11.2450   20.1520 C.3   367  C367        0.2309
   7923  O2'       20.8210   12.6190   19.8610 O.3   367  C367       -0.2156
   7924  C1'       19.4640   11.0240   21.0810 C.3   367  C367        0.2420
   7925  N1        19.7760   10.0230   22.0820 N.ar  367  C367       -0.2535
   7926  C2        20.7780   10.3340   22.9910 C.ar  367  C367        0.3532
   7927  O2        21.3130   11.4370   22.9150 O.2   367  C367       -0.2443
   7928  N3        21.1440    9.4210   23.9190 N.ar  367  C367       -0.1739
   7929  C4        20.5300    8.2320   23.9590 C.ar  367  C367        0.1759
   7930  N4        20.9040    7.3630   24.9100 N.pl3 367  C367       -0.1070
   7931  C5        19.4940    7.8870   23.0360 C.ar  367  C367        0.0566
   7932  C6        19.1700    8.7960   22.1070 C.ar  367  C367        0.0850
   7933  OP1       15.8640    9.3950   16.5060 O.2   367  C367       -0.5172
   7934  OP2       15.2480    7.5130   18.1220 O.co2 367  C367       -0.4373
   7935  P         22.0670    9.9050   17.1090 P.3   368  C368        0.2141
   7936  C5'       24.0260   11.4450   17.6410 C.3   368  C368        0.1812
   7937  O5'       23.2820   10.3140   18.0600 O.3   368  C368       -0.3114
   7938  C4'       25.0710   11.7880   18.6480 C.3   368  C368        0.1773
   7939  O4'       24.4540   11.7130   19.9390 O.3   368  C368       -0.3307
   7940  C3'       26.2090   10.7890   18.7890 C.3   368  C368        0.1860
   7941  O3'       27.2230   10.8030   17.8010 O.3   368  C368       -0.3112
   7942  C2'       26.7470   11.1440   20.1600 C.3   368  C368        0.2309
   7943  O2'       27.5370   12.3010   20.3040 O.3   368  C368       -0.2156
   7944  C1'       25.4460   11.4050   20.9000 C.3   368  C368        0.2420
   7945  N1        25.0230   10.2240   21.6390 N.ar  368  C368       -0.2535
   7946  C2        25.6380    9.9900   22.8650 C.ar  368  C368        0.3532
   7947  O2        26.5280   10.7760   23.2390 O.2   368  C368       -0.2443
   7948  N3        25.2710    8.9060   23.5960 N.ar  368  C368       -0.1739
   7949  C4        24.2920    8.1100   23.1540 C.ar  368  C368        0.1759
   7950  N4        23.9310    7.0770   23.9170 N.pl3 368  C368       -0.1070
   7951  C5        23.6590    8.3210   21.8910 C.ar  368  C368        0.0566
   7952  C6        24.0710    9.3650   21.1620 C.ar  368  C368        0.0850
   7953  OP1       22.4990   10.4250   15.7550 O.2   368  C368       -0.5172
   7954  OP2       21.4330    8.5440   17.2730 O.co2 368  C368       -0.4373
   7955  P         27.2540    9.5130   16.8700 P.3   369  G369        0.2141
   7956  C5'       27.6830    7.0560   17.7010 C.3   369  G369        0.1812
   7957  O5'       28.0380    8.4710   17.7880 O.3   369  G369       -0.3114
   7958  C4'       27.9680    6.3410   18.9980 C.3   369  G369        0.1773
   7959  O4'       29.1550    6.8960   19.6200 O.3   369  G369       -0.3307
   7960  C3'       26.8490    6.3750   20.0320 C.3   369  G369        0.1860
   7961  O3'       26.4160    5.0450   20.3150 O.3   369  G369       -0.3112
   7962  C2'       27.4450    7.1200   21.2360 C.3   369  G369        0.2309
   7963  O2'       27.0780    6.5500   22.4820 O.3   369  G369       -0.2156
   7964  C1'       28.9580    7.0280   21.0050 C.3   369  G369        0.2408
   7965  N1        31.8030    9.3180   24.5620 N.ar  369  G369       -0.1709
   7966  C2        31.3140    8.0340   24.5380 C.ar  369  G369        0.2606
   7967  N2        31.5850    7.2760   25.6110 N.pl3 369  G369       -0.0859
   7968  N3        30.5660    7.5470   23.5610 N.ar  369  G369       -0.1918
   7969  C4        30.3670    8.4510   22.5790 C.ar  369  G369        0.1723
   7970  C5        30.8250    9.7500   22.5000 C.ar  369  G369        0.1748
   7971  C6        31.6080   10.2660   23.5620 C.ar  369  G369        0.3023
   7972  O6        32.1120   11.3890   23.6710 O.2   369  G369       -0.2633
   7973  N7        30.4170   10.3460   21.3140 N.ar  369  G369       -0.2173
   7974  C8        29.7400    9.4140   20.6990 C.ar  369  G369        0.1817
   7975  N9        29.6570    8.2430   21.4170 N.ar  369  G369       -0.2693
   7976  OP1       27.9700    9.9090   15.6630 O.2   369  G369       -0.5172
   7977  OP2       25.9320    8.8440   16.7070 O.co2 369  G369       -0.4373
   7978  P         25.1160    4.4790   19.5840 P.3   370  A370        0.2141
   7979  C5'       23.8360    2.1790   19.8220 C.3   370  A370        0.1812
   7980  O5'       25.0450    2.9520   20.0350 O.3   370  A370       -0.3114
   7981  C4'       24.0890    0.7490   20.2100 C.3   370  A370        0.1773
   7982  O4'       25.2510    0.2540   19.4730 O.3   370  A370       -0.3307
   7983  C3'       24.4940    0.5500   21.6660 C.3   370  A370        0.1860
   7984  O3'       23.4270    0.6170   22.6080 O.3   370  A370       -0.3112
   7985  C2'       25.2090   -0.7950   21.6050 C.3   370  A370        0.2309
   7986  O2'       24.2730   -1.8490   21.4650 O.3   370  A370       -0.2156
   7987  C1'       25.9920   -0.6460   20.2950 C.3   370  A370        0.2408
   7988  N1        30.7820   -1.5120   22.0730 N.ar  370  A370       -0.2040
   7989  C2        29.6330   -2.1850   22.2380 C.ar  370  A370        0.2016
   7990  N3        28.4180   -1.9170   21.7520 N.ar  370  A370       -0.2048
   7991  C4        28.4380   -0.7800   21.0270 C.ar  370  A370        0.1692
   7992  C5        29.5400    0.0170   20.7680 C.ar  370  A370        0.1518
   7993  C6        30.7670   -0.3800   21.3300 C.ar  370  A370        0.1919
   7994  N6        31.9080    0.3040   21.1760 N.pl3 370  A370       -0.1054
   7995  N7        29.1860    1.1000   19.9800 N.ar  370  A370       -0.2193
   7996  C8        27.9050    0.9300   19.7710 C.ar  370  A370        0.1816
   7997  N9        27.3790   -0.1650   20.4020 N.ar  370  A370       -0.2693
   7998  OP1       25.2530    4.6360   18.0970 O.2   370  A370       -0.5172
   7999  OP2       23.8970    4.9790   20.3090 O.co2 370  A370       -0.4373
   8000  P         23.7850    1.4110   23.9540 P.3   371  A371        0.2141
   8001  C5'       24.7550   -0.9380   24.9160 C.3   371  A371        0.1812
   8002  O5'       24.8970    0.4870   24.6390 O.3   371  A371       -0.3114
   8003  C4'       26.0290   -1.4370   25.5600 C.3   371  A371        0.1773
   8004  O4'       27.0770   -1.4950   24.5560 O.3   371  A371       -0.3307
   8005  C3'       26.6140   -0.5400   26.6490 C.3   371  A371        0.1860
   8006  O3'       26.0030   -0.8040   27.9140 O.3   371  A371       -0.3112
   8007  C2'       28.0960   -0.8970   26.6110 C.3   371  A371        0.2309
   8008  O2'       28.3920   -2.1040   27.2850 O.3   371  A371       -0.2156
   8009  C1'       28.3190   -1.1190   25.1210 C.3   371  A371        0.2408
   8010  N1        32.2730    2.0130   24.1590 N.ar  371  A371       -0.2040
   8011  C2        32.1650    0.9160   24.9090 C.ar  371  A371        0.2016
   8012  N3        31.1040    0.1500   25.1290 N.ar  371  A371       -0.2048
   8013  C4        30.0420    0.6050   24.4460 C.ar  371  A371        0.1692
   8014  C5        29.9910    1.7370   23.6580 C.ar  371  A371        0.1518
   8015  C6        31.1690    2.4860   23.5450 C.ar  371  A371        0.1919
   8016  N6        31.2650    3.6110   22.8290 N.pl3 371  A371       -0.1054
   8017  N7        28.7170    1.9180   23.1420 N.ar  371  A371       -0.2193
   8018  C8        28.0390    0.9020   23.6160 C.ar  371  A371        0.1816
   8019  N9        28.7710    0.0850   24.4380 N.ar  371  A371       -0.2693
   8020  OP1       22.6710    1.4700   24.9360 O.3   371  A371       -0.4373
   8021  OP2       24.5230    2.6410   23.5390 O.co2 371  A371       -0.5172
   8022  P         25.9920    0.3560   28.9900 P.3   372  C372        0.2141
   8023  C5'       28.3170    0.4300   30.2250 C.3   372  C372        0.1812
   8024  O5'       27.4900    0.8900   29.1490 O.3   372  C372       -0.3114
   8025  C4'       29.6960    1.0360   30.1700 C.3   372  C372        0.1773
   8026  O4'       30.2010    1.0410   28.8140 O.3   372  C372       -0.3307
   8027  C3'       29.7620    2.4950   30.5560 C.3   372  C372        0.1860
   8028  O3'       29.7860    2.6760   31.9570 O.3   372  C372       -0.3112
   8029  C2'       31.0850    2.9210   29.9440 C.3   372  C372        0.2309
   8030  O2'       32.2280    2.6690   30.7330 O.3   372  C372       -0.2156
   8031  C1'       31.0540    2.1620   28.6250 C.3   372  C372        0.2420
   8032  N1        30.4630    2.9870   27.5760 N.ar  372  C372       -0.2535
   8033  C2        31.2170    4.0080   26.9970 C.ar  372  C372        0.3532
   8034  O2        32.3730    4.1970   27.3980 O.2   372  C372       -0.2443
   8035  N3        30.6640    4.7590   26.0120 N.ar  372  C372       -0.1739
   8036  C4        29.4130    4.5200   25.6150 C.ar  372  C372        0.1759
   8037  N4        28.9060    5.2750   24.6480 N.pl3 372  C372       -0.1070
   8038  C5        28.6260    3.4880   26.1890 C.ar  372  C372        0.0566
   8039  C6        29.1800    2.7580   27.1650 C.ar  372  C372        0.0850
   8040  OP1       25.5780   -0.3920   30.1960 O.3   372  C372       -0.4373
   8041  OP2       25.1160    1.4730   28.5030 O.co2 372  C372       -0.5172
   8042  P         28.7030    3.6730   32.5550 P.3   373  G373        0.2141
   8043  C5'       30.4360    5.6310   32.5520 C.3   373  G373        0.1812
   8044  O5'       29.2260    5.0800   32.0230 O.3   373  G373       -0.3114
   8045  C4'       30.8620    6.7910   31.6950 C.3   373  G373        0.1773
   8046  O4'       30.9140    6.3790   30.2970 O.3   373  G373       -0.3307
   8047  C3'       29.8900    7.9560   31.7020 C.3   373  G373        0.1860
   8048  O3'       30.1840    8.8380   32.7660 O.3   373  G373       -0.3112
   8049  C2'       30.1840    8.6200   30.3730 C.3   373  G373        0.2309
   8050  O2'       31.3670    9.3780   30.4530 O.3   373  G373       -0.2156
   8051  C1'       30.3970    7.4090   29.4770 C.3   373  G373        0.2408
   8052  N1        26.9760    8.0420   25.7770 N.ar  373  G373       -0.1709
   8053  C2        28.0820    8.8020   26.0770 C.ar  373  G373        0.2606
   8054  N2        28.3250    9.8510   25.2740 N.pl3 373  G373       -0.0859
   8055  N3        28.9040    8.5450   27.0850 N.ar  373  G373       -0.1918
   8056  C4        28.5240    7.4500   27.7760 C.ar  373  G373        0.1723
   8057  C5        27.4300    6.6400   27.5690 C.ar  373  G373        0.1748
   8058  C6        26.5530    6.9320   26.5040 C.ar  373  G373        0.3023
   8059  O6        25.5300    6.3310   26.1730 O.2   373  G373       -0.2633
   8060  N7        27.3790    5.6280   28.5180 N.ar  373  G373       -0.2173
   8061  C8        28.4230    5.8390   29.2750 C.ar  373  G373        0.1817
   8062  N9        29.1600    6.9300   28.8810 N.ar  373  G373       -0.2693
   8063  OP1       28.8670    3.7080   34.0220 O.3   373  G373       -0.4373
   8064  OP2       27.4430    3.1650   31.9160 O.co2 373  G373       -0.5172
   8065  P         28.8580    9.2590   33.5460 P.3   374  G374        0.2141
   8066  C5'       27.3630   11.1460   32.3640 C.3   374  G374        0.1812
   8067  O5'       28.6630   10.6320   32.7440 O.3   374  G374       -0.3114
   8068  C4'       27.4230   11.7780   30.9930 C.3   374  G374        0.1773
   8069  O4'       27.6620   10.7670   29.9800 O.3   374  G374       -0.3307
   8070  C3'       26.1550   12.4650   30.5090 C.3   374  G374        0.1860
   8071  O3'       26.0700   13.7840   31.0540 O.3   374  G374       -0.3112
   8072  C2'       26.3840   12.4920   29.0030 C.3   374  G374        0.2309
   8073  O2'       27.3890   13.4330   28.7200 O.3   374  G374       -0.2156
   8074  C1'       27.0060   11.1190   28.7670 C.3   374  G374        0.2408
   8075  N1        23.2020    9.5250   25.8030 N.ar  374  G374       -0.1709
   8076  C2        24.0350   10.6030   25.6310 C.ar  374  G374        0.2606
   8077  N2        23.8230   11.3470   24.5320 N.pl3 374  G374       -0.0859
   8078  N3        25.0170   10.9150   26.4630 N.ar  374  G374       -0.1918
   8079  C4        25.1030   10.0440   27.4860 C.ar  374  G374        0.1723
   8080  C5        24.3230    8.9380   27.7400 C.ar  374  G374        0.1748
   8081  C6        23.2910    8.6060   26.8440 C.ar  374  G374        0.3023
   8082  O6        22.5150    7.6410   26.8860 O.2   374  G374       -0.2633
   8083  N7        24.7150    8.3200   28.9150 N.ar  374  G374       -0.2173
   8084  C8        25.6960    9.0600   29.3550 C.ar  374  G374        0.1817
   8085  N9        25.9950   10.1080   28.5250 N.ar  374  G374       -0.2693
   8086  OP1       29.2950    9.5690   34.9290 O.3   374  G374       -0.4373
   8087  OP2       27.7660    8.2320   33.2880 O.co2 374  G374       -0.5172
   8088  P         24.6550   14.1730   31.7060 P.3   375  U375        0.2141
   8089  C5'       24.6120   15.6580   29.4550 C.3   375  U375        0.1812
   8090  O5'       24.0330   14.6220   30.3060 O.3   375  U375       -0.3114
   8091  C4'       23.7390   15.8300   28.2270 C.3   375  U375        0.1773
   8092  O4'       23.6300   14.5460   27.5680 O.3   375  U375       -0.3307
   8093  C3'       22.2760   16.1690   28.5150 C.3   375  U375        0.1860
   8094  O3'       22.0270   17.5550   28.6800 O.3   375  U375       -0.3112
   8095  C2'       21.5460   15.6870   27.2680 C.3   375  U375        0.2309
   8096  O2'       21.5390   16.6550   26.2290 O.3   375  U375       -0.2156
   8097  C1'       22.3960   14.4830   26.8660 C.3   375  U375        0.2420
   8098  N1        21.7580   13.1800   27.1020 N.ar  375  U375       -0.2534
   8099  C2        20.8060   12.7740   26.1770 C.ar  375  U375        0.3546
   8100  O2        20.4640   13.4610   25.2350 O.2   375  U375       -0.2443
   8101  N3        20.3150   11.5080   26.3710 N.ar  375  U375       -0.1530
   8102  C4        20.5980   10.6560   27.4130 C.ar  375  U375        0.2846
   8103  O4        19.9830    9.5990   27.5040 O.2   375  U375       -0.2650
   8104  C5        21.5810   11.1460   28.3380 C.ar  375  U375        0.0814
   8105  C6        22.1290   12.3540   28.1440 C.ar  375  U375        0.0870
   8106  OP1       24.9120   15.2730   32.6710 O.3   375  U375       -0.4373
   8107  OP2       23.8730   12.9700   32.1690 O.co2 375  U375       -0.5172
   8108  P         20.8450   18.0720   29.5930 P.3   376  A376        0.2141
   8109  C5'       22.4090   18.5850   31.6460 C.3   376  A376        0.1812
   8110  O5'       21.4210   17.7640   31.0380 O.3   376  A376       -0.3114
   8111  C4'       21.9710   18.8670   33.0520 C.3   376  A376        0.1773
   8112  O4'       20.8970   19.8510   32.9780 O.3   376  A376       -0.3307
   8113  C3'       21.3710   17.6610   33.7820 C.3   376  A376        0.1860
   8114  O3'       21.6990   17.7250   35.1600 O.3   376  A376       -0.3112
   8115  C2'       19.8790   17.8370   33.5160 C.3   376  A376        0.2309
   8116  O2'       19.0160   17.2260   34.4330 O.3   376  A376       -0.2156
   8117  C1'       19.7490   19.3520   33.6360 C.3   376  A376        0.2408
   8118  N1        17.1620   23.6990   32.8330 N.ar  376  A376       -0.2040
   8119  C2        18.3080   23.4320   33.4750 C.ar  376  A376        0.2016
   8120  N3        18.9270   22.2690   33.6440 N.ar  376  A376       -0.2048
   8121  C4        18.2380   21.2770   33.0520 C.ar  376  A376        0.1692
   8122  C5        17.0430   21.3910   32.3620 C.ar  376  A376        0.1518
   8123  C6        16.4870   22.6760   32.2590 C.ar  376  A376        0.1919
   8124  N6        15.3450   22.9420   31.6130 N.pl3 376  A376       -0.1054
   8125  N7        16.6160   20.1520   31.9110 N.ar  376  A376       -0.2193
   8126  C8        17.5640   19.3360   32.3000 C.ar  376  A376        0.1816
   8127  N9        18.5660   19.9460   33.0130 N.ar  376  A376       -0.2693
   8128  OP1       19.5770   17.2620   29.4640 O.3   376  A376       -0.4373
   8129  OP2       20.9680   19.5200   29.1920 O.co2 376  A376       -0.5172
   8130  P         22.8010   16.7620   35.8200 P.3   377  C377        0.2141
   8131  C5'       21.4310   14.6250   35.3530 C.3   377  C377        0.1812
   8132  O5'       21.8460   15.5850   36.2990 O.3   377  C377       -0.3114
   8133  C4'       21.1000   13.3870   36.1130 C.3   377  C377        0.1773
   8134  O4'       20.5150   13.7420   37.4030 O.3   377  C377       -0.3307
   8135  C3'       20.0740   12.4720   35.4560 C.3   377  C377        0.1860
   8136  O3'       20.7110   11.6060   34.5410 O.3   377  C377       -0.3112
   8137  C2'       19.5700   11.6800   36.6490 C.3   377  C377        0.2309
   8138  O2'       20.5390   10.7580   37.0270 O.3   377  C377       -0.2156
   8139  C1'       19.5410   12.7550   37.7350 C.3   377  C377        0.2420
   8140  N1        18.2210   13.3730   37.7020 N.ar  377  C377       -0.2535
   8141  C2        17.1160   12.6050   38.0890 C.ar  377  C377        0.3532
   8142  O2        17.2960   11.4350   38.4540 O.2   377  C377       -0.2443
   8143  N3        15.8820   13.1540   38.0430 N.ar  377  C377       -0.1739
   8144  C4        15.7240   14.4020   37.5920 C.ar  377  C377        0.1759
   8145  N4        14.4900   14.9030   37.5670 N.pl3 377  C377       -0.1070
   8146  C5        16.8300   15.1930   37.1550 C.ar  377  C377        0.0566
   8147  C6        18.0490   14.6410   37.2180 C.ar  377  C377        0.0850
   8148  OP1       23.4200   17.3310   37.0670 O.3   377  C377       -0.4373
   8149  OP2       23.6910   16.2160   34.7610 O.co2 377  C377       -0.5172
   8150  P         19.9060   11.0190   33.2770 P.3   378  G378        0.2141
   8151  C5'       20.2550   13.1600   31.6870 C.3   378  G378        0.1812
   8152  O5'       19.4470   12.4070   32.6210 O.3   378  G378       -0.3114
   8153  C4'       19.4140   14.1100   30.8570 C.3   378  G378        0.1773
   8154  O4'       19.4230   13.6750   29.4710 O.3   378  G378       -0.3307
   8155  C3'       17.9420   14.2520   31.2220 C.3   378  G378        0.1860
   8156  O3'       17.8130   15.2730   32.2120 O.3   378  G378       -0.3112
   8157  C2'       17.3070   14.5880   29.8690 C.3   378  G378        0.2309
   8158  O2'       17.4520   15.9000   29.3450 O.3   378  G378       -0.2156
   8159  C1'       18.1040   13.6790   28.9440 C.3   378  G378        0.2408
   8160  N1        14.6730   10.4060   27.0930 N.ar  378  G378       -0.1709
   8161  C2        14.8510   11.7360   26.8000 C.ar  378  G378        0.2606
   8162  N2        14.0240   12.2490   25.8810 N.pl3 378  G378       -0.0859
   8163  N3        15.7920   12.4940   27.3390 N.ar  378  G378       -0.1918
   8164  C4        16.5390   11.8110   28.2270 C.ar  378  G378        0.1723
   8165  C5        16.4500   10.4840   28.5820 C.ar  378  G378        0.1748
   8166  C6        15.4370    9.6810   27.9950 C.ar  378  G378        0.3023
   8167  O6        15.1760    8.4920   28.2070 O.2   378  G378       -0.2633
   8168  N7        17.4160   10.1610   29.5230 N.ar  378  G378       -0.2173
   8169  C8        18.0710   11.2730   29.7090 C.ar  378  G378        0.1817
   8170  N9        17.5950   12.3120   28.9510 N.ar  378  G378       -0.2693
   8171  OP1       18.6970   10.2620   33.7470 O.3   378  G378       -0.4373
   8172  OP2       20.8980   10.3100   32.3820 O.co2 378  G378       -0.5172
   8173  P         16.4690   15.4870   33.0470 P.3   379  U379        0.2141
   8174  C5'       14.8710   16.5250   31.2340 C.3   379  U379        0.1812
   8175  O5'       15.3160   15.3560   31.9590 O.3   379  U379       -0.3114
   8176  C4'       13.5700   16.2410   30.5310 C.3   379  U379        0.1773
   8177  O4'       13.7960   15.3140   29.4420 O.3   379  U379       -0.3307
   8178  C3'       12.5250   15.5520   31.3880 C.3   379  U379        0.1860
   8179  O3'       11.8860   16.5600   32.1290 O.3   379  U379       -0.3112
   8180  C2'       11.6650   14.8870   30.3350 C.3   379  U379        0.2309
   8181  O2'       10.8970   15.8230   29.6240 O.3   379  U379       -0.2156
   8182  C1'       12.7490   14.3570   29.4130 C.3   379  U379        0.2420
   8183  N1        13.2610   13.0670   29.8960 N.ar  379  U379       -0.2534
   8184  C2        12.6080   11.9550   29.4210 C.ar  379  U379        0.3546
   8185  O2        11.6800   12.0230   28.6310 O.2   379  U379       -0.2443
   8186  N3        13.0940   10.7590   29.8830 N.ar  379  U379       -0.1530
   8187  C4        14.1260   10.5680   30.7690 C.ar  379  U379        0.2846
   8188  O4        14.4580    9.4190   31.0680 O.2   379  U379       -0.2650
   8189  C5        14.7540   11.7750   31.2220 C.ar  379  U379        0.0814
   8190  C6        14.3150   12.9530   30.7760 C.ar  379  U379        0.0870
   8191  OP1       16.5430   16.8740   33.5280 O.2   379  U379       -0.5172
   8192  OP2       16.2000   14.4170   34.0320 O.co2 379  U379       -0.4373
   8193  P         10.8990   16.3190   33.3090 P.3   380  A380        0.2141
   8194  C5'        8.5980   15.6400   32.1920 C.3   380  A380        0.1812
   8195  O5'        9.9110   15.2650   32.6230 O.3   380  A380       -0.3114
   8196  C4'        7.6740   14.4470   32.1920 C.3   380  A380        0.1773
   8197  O4'        8.1980   13.4390   31.2940 O.3   380  A380       -0.3307
   8198  C3'        7.4870   13.7100   33.5150 C.3   380  A380        0.1860
   8199  O3'        6.4730   14.2690   34.3440 O.3   380  A380       -0.3112
   8200  C2'        7.0470   12.3320   33.0400 C.3   380  A380        0.2309
   8201  O2'        5.6800   12.2280   32.7310 O.3   380  A380       -0.2156
   8202  C1'        7.8980   12.1530   31.7870 C.3   380  A380        0.2408
   8203  N1        10.2260    7.6410   32.4370 N.ar  380  A380       -0.2040
   8204  C2         8.9750    7.9680   32.0960 C.ar  380  A380        0.2016
   8205  N3         8.4320    9.1700   31.9520 N.ar  380  A380       -0.2048
   8206  C4         9.3430   10.1310   32.1790 C.ar  380  A380        0.1692
   8207  C5        10.6650    9.9520   32.5420 C.ar  380  A380        0.1518
   8208  C6        11.1160    8.6310   32.6650 C.ar  380  A380        0.1919
   8209  N6        12.3680    8.3020   32.9910 N.pl3 380  A380       -0.1054
   8210  N7        11.3010   11.1750   32.7020 N.ar  380  A380       -0.2193
   8211  C8        10.3640   12.0530   32.4350 C.ar  380  A380        0.1816
   8212  N9         9.1560   11.4890   32.1020 N.ar  380  A380       -0.2693
   8213  OP1       10.4510   17.7300   33.3780 O.2   380  A380       -0.5172
   8214  OP2       11.5700   15.7110   34.4840 O.co2 380  A380       -0.4373
   8215  P          6.5560   14.3080   35.9540 P.3   381  C381        0.2141
   8216  C5'        4.8450   12.3840   35.6610 C.3   381  C381        0.1812
   8217  O5'        6.0230   12.8570   36.3320 O.3   381  C381       -0.3114
   8218  C4'        4.6650   10.8940   35.7950 C.3   381  C381        0.1773
   8219  O4'        5.4290   10.2030   34.7640 O.3   381  C381       -0.3307
   8220  C3'        5.1390   10.2500   37.0900 C.3   381  C381        0.1860
   8221  O3'        4.2730   10.4120   38.1960 O.3   381  C381       -0.3112
   8222  C2'        5.2560    8.8040   36.6500 C.3   381  C381        0.2309
   8223  O2'        3.9830    8.2330   36.4740 O.3   381  C381       -0.2156
   8224  C1'        5.9560    8.9930   35.3050 C.3   381  C381        0.2420
   8225  N1         7.4170    9.1420   35.4940 N.ar  381  C381       -0.2535
   8226  C2         8.2120    7.9920   35.4540 C.ar  381  C381        0.3532
   8227  O2         7.6740    6.9030   35.1930 O.2   381  C381       -0.2443
   8228  N3         9.5510    8.1040   35.6640 N.ar  381  C381       -0.1739
   8229  C4        10.0850    9.2990   35.9340 C.ar  381  C381        0.1759
   8230  N4        11.4030    9.3680   36.1450 N.pl3 381  C381       -0.1070
   8231  C5         9.2870   10.4760   36.0270 C.ar  381  C381        0.0566
   8232  C6         7.9710   10.3520   35.8080 C.ar  381  C381        0.0850
   8233  OP1        5.5390   15.3400   36.2720 O.2   381  C381       -0.5172
   8234  OP2        7.9270   14.5060   36.4630 O.co2 381  C381       -0.4373
   8235  P          4.8330   10.3840   39.7050 P.3   382  G382        0.2141
   8236  C5'        5.2340    8.1250   40.9090 C.3   382  G382        0.1812
   8237  O5'        4.8810    8.7980   39.7190 O.3   382  G382       -0.3114
   8238  C4'        5.6630    6.7410   40.5590 C.3   382  G382        0.1773
   8239  O4'        6.2390    6.7500   39.2220 O.3   382  G382       -0.3307
   8240  C3'        6.7800    6.2070   41.4280 C.3   382  G382        0.1860
   8241  O3'        6.3100    5.7820   42.6890 O.3   382  G382       -0.3112
   8242  C2'        7.3600    5.1410   40.5190 C.3   382  G382        0.2309
   8243  O2'        6.5600    3.9840   40.4180 O.3   382  G382       -0.2156
   8244  C1'        7.3920    5.9080   39.1940 C.3   382  G382        0.2408
   8245  N1        12.4580    5.8590   39.0770 N.ar  382  G382       -0.1709
   8246  C2        11.5740    4.8150   39.1560 C.ar  382  G382        0.2606
   8247  N2        12.1060    3.5910   39.2230 N.pl3 382  G382       -0.0859
   8248  N3        10.2650    4.9570   39.1440 N.ar  382  G382       -0.1918
   8249  C4         9.8980    6.2530   39.0820 C.ar  382  G382        0.1723
   8250  C5        10.7000    7.3710   39.0200 C.ar  382  G382        0.1748
   8251  C6        12.1060    7.2000   38.9880 C.ar  382  G382        0.3023
   8252  O6        12.9850    8.0660   38.9320 O.2   382  G382       -0.2633
   8253  N7         9.9330    8.5280   38.9980 N.ar  382  G382       -0.2173
   8254  C8         8.7000    8.0990   39.0360 C.ar  382  G382        0.1817
   8255  N9         8.6060    6.7280   39.0780 N.ar  382  G382       -0.2693
   8256  OP1        3.7920   10.8000   40.6720 O.3   382  G382       -0.4373
   8257  OP2        6.1740   11.0070   39.7820 O.co2 382  G382       -0.5172
   8258  P          6.9840    6.4750   43.9660 P.3   383  G383        0.2141
   8259  C5'        8.0120    4.0340   44.0720 C.3   383  G383        0.1812
   8260  O5'        8.1810    5.4590   44.2450 O.3   383  G383       -0.3114
   8261  C4'        9.3510    3.3610   43.9120 C.3   383  G383        0.1773
   8262  O4'        9.9420    3.7270   42.6320 O.3   383  G383       -0.3307
   8263  C3'       10.4450    3.7550   44.8900 C.3   383  G383        0.1860
   8264  O3'       10.3660    3.1820   46.1780 O.3   383  G383       -0.3112
   8265  C2'       11.6710    3.2260   44.1610 C.3   383  G383        0.2309
   8266  O2'       11.7670    1.8120   44.2190 O.3   383  G383       -0.2156
   8267  C1'       11.3680    3.6830   42.7320 C.3   383  G383        0.2408
   8268  N1        15.5580    6.5200   42.1400 N.ar  383  G383       -0.1709
   8269  C2        15.4510    5.1760   42.4000 C.ar  383  G383        0.2606
   8270  N2        16.6060    4.5060   42.5460 N.pl3 383  G383       -0.0859
   8271  N3        14.2980    4.5370   42.5220 N.ar  383  G383       -0.1918
   8272  C4        13.2410    5.3650   42.3600 C.ar  383  G383        0.1723
   8273  C5        13.2430    6.7160   42.0880 C.ar  383  G383        0.1748
   8274  C6        14.4860    7.3870   41.9510 C.ar  383  G383        0.3023
   8275  O6        14.6950    8.5810   41.6930 O.2   383  G383       -0.2633
   8276  N7        11.9460    7.1990   41.9820 N.ar  383  G383       -0.2173
   8277  C8        11.1930    6.1550   42.2010 C.ar  383  G383        0.1817
   8278  N9        11.9120    5.0090   42.4350 N.ar  383  G383       -0.2693
   8279  OP1        5.9890    6.4170   45.0680 O.3   383  G383       -0.4373
   8280  OP2        7.5910    7.7700   43.5990 O.co2 383  G383       -0.5172
   8281  P         10.8040    4.0530   47.4490 P.3   384  U384        0.2141
   8282  C5'       13.1480    2.8660   47.4950 C.3   384  U384        0.1812
   8283  O5'       12.3870    4.0650   47.3450 O.3   384  U384       -0.3114
   8284  C4'       14.5980    3.2370   47.4070 C.3   384  U384        0.1773
   8285  O4'       14.8650    3.8330   46.1070 O.3   384  U384       -0.3307
   8286  C3'       15.0150    4.3320   48.3760 C.3   384  U384        0.1860
   8287  O3'       15.1400    3.8750   49.7200 O.3   384  U384       -0.3112
   8288  C2'       16.2950    4.8400   47.7200 C.3   384  U384        0.2309
   8289  O2'       17.4350    4.0320   47.9430 O.3   384  U384       -0.2156
   8290  C1'       15.9160    4.7830   46.2370 C.3   384  U384        0.2420
   8291  N1        15.4780    6.0910   45.7120 N.ar  384  U384       -0.2534
   8292  C2        16.4680    6.9880   45.3490 C.ar  384  U384        0.3546
   8293  O2        17.6560    6.7320   45.4300 O.2   384  U384       -0.2443
   8294  N3        16.0110    8.1910   44.8760 N.ar  384  U384       -0.1530
   8295  C4        14.7010    8.5980   44.7540 C.ar  384  U384        0.2846
   8296  O4        14.4520    9.7270   44.3180 O.2   384  U384       -0.2650
   8297  C5        13.7370    7.6230   45.1650 C.ar  384  U384        0.0814
   8298  C6        14.1480    6.4340   45.6230 C.ar  384  U384        0.0870
   8299  OP1       10.4510    3.2620   48.6690 O.3   384  U384       -0.4373
   8300  OP2       10.3550    5.4780   47.3120 O.co2 384  U384       -0.5172
   8301  P         15.7860    4.7970   50.8820 P.3   385  G385        0.2141
   8302  C5'       18.2120    5.7440   51.3030 C.3   385  G385        0.1812
   8303  O5'       17.3300    4.9390   50.5140 O.3   385  G385       -0.3114
   8304  C4'       19.6030    5.6880   50.7300 C.3   385  G385        0.1773
   8305  O4'       19.5710    5.6820   49.2740 O.3   385  G385       -0.3307
   8306  C3'       20.4480    6.8920   51.0730 C.3   385  G385        0.1860
   8307  O3'       20.9400    6.7060   52.3770 O.3   385  G385       -0.3112
   8308  C2'       21.4770    6.8820   49.9600 C.3   385  G385        0.2309
   8309  O2'       22.5190    5.9440   50.1830 O.3   385  G385       -0.2156
   8310  C1'       20.5880    6.5410   48.7620 C.3   385  G385        0.2408
   8311  N1        21.1930   10.9500   46.2410 N.ar  385  G385       -0.1709
   8312  C2        22.1500   10.0680   46.6830 C.ar  385  G385        0.2606
   8313  N2        23.4220   10.4090   46.4400 N.pl3 385  G385       -0.0859
   8314  N3        21.8790    8.9440   47.3290 N.ar  385  G385       -0.1918
   8315  C4        20.5500    8.7710   47.5060 C.ar  385  G385        0.1723
   8316  C5        19.5160    9.5950   47.1100 C.ar  385  G385        0.1748
   8317  C6        19.8220   10.7990   46.4200 C.ar  385  G385        0.3023
   8318  O6        19.0440   11.6640   45.9990 O.2   385  G385       -0.2633
   8319  N7        18.2900    9.0630   47.4840 N.ar  385  G385       -0.2173
   8320  C8        18.5900    7.9470   48.0900 C.ar  385  G385        0.1817
   8321  N9        19.9430    7.7070   48.1440 N.ar  385  G385       -0.2693
   8322  OP1       15.7990    3.9290   52.0770 O.3   385  G385       -0.4373
   8323  OP2       15.1970    6.1670   50.9490 O.co2 385  G385       -0.5172
   8324  P         20.7070    7.9930   53.2870 P.3   386  G386        0.2141
   8325  C5'       23.2760    8.3790   52.8630 C.3   386  G386        0.1812
   8326  O5'       21.9340    8.9020   52.8420 O.3   386  G386       -0.3114
   8327  C4'       24.1350    9.1520   51.8960 C.3   386  G386        0.1773
   8328  O4'       23.4550    9.3000   50.6150 O.3   386  G386       -0.3307
   8329  C3'       24.4260   10.5870   52.2930 C.3   386  G386        0.1860
   8330  O3'       25.3890   10.6960   53.3450 O.3   386  G386       -0.3112
   8331  C2'       24.8530   11.1880   50.9560 C.3   386  G386        0.2309
   8332  O2'       26.1870   10.8870   50.6160 O.3   386  G386       -0.2156
   8333  C1'       23.9060   10.4850   49.9800 C.3   386  G386        0.2408
   8334  N1        22.2050   14.7390   47.7890 N.ar  386  G386       -0.1709
   8335  C2        23.4830   14.2390   47.8350 C.ar  386  G386        0.2606
   8336  N2        24.4230   14.9640   47.2170 N.pl3 386  G386       -0.0859
   8337  N3        23.8120   13.1110   48.4410 N.ar  386  G386       -0.1918
   8338  C4        22.7390   12.5080   49.0010 C.ar  386  G386        0.1723
   8339  C5        21.4250   12.9270   49.0130 C.ar  386  G386        0.1748
   8340  C6        21.0880   14.1360   48.3620 C.ar  386  G386        0.3023
   8341  O6        19.9770   14.6680   48.2580 O.2   386  G386       -0.2633
   8342  N7        20.6240   12.0240   49.7000 N.ar  386  G386       -0.2173
   8343  C8        21.4510   11.0920   50.0910 C.ar  386  G386        0.1817
   8344  N9        22.7450   11.3110   49.6800 N.ar  386  G386       -0.2693
   8345  OP1       20.9910    7.6550   54.7100 O.3   386  G386       -0.4373
   8346  OP2       19.4250    8.6680   52.9120 O.co2 386  G386       -0.5172
   8347  P         25.5090   12.1610   54.0110 P.3   387  U387        0.2141
   8348  C5'       27.3400   13.0160   52.2540 C.3   387  U387        0.1812
   8349  O5'       25.9680   13.0040   52.7320 O.3   387  U387       -0.3114
   8350  C4'       27.6460   14.3310   51.5790 C.3   387  U387        0.1773
   8351  O4'       26.7210   14.5380   50.4830 O.3   387  U387       -0.3307
   8352  C3'       27.4570   15.5420   52.4740 C.3   387  U387        0.1860
   8353  O3'       28.6560   15.8160   53.1740 O.3   387  U387       -0.3112
   8354  C2'       27.1260   16.6570   51.4910 C.3   387  U387        0.2309
   8355  O2'       28.2510   17.2550   50.9030 O.3   387  U387       -0.2156
   8356  C1'       26.3990   15.9110   50.3790 C.3   387  U387        0.2420
   8357  N1        24.9420   16.0640   50.4730 N.ar  387  U387       -0.2534
   8358  C2        24.3880   17.2650   50.0590 C.ar  387  U387        0.3546
   8359  O2        25.0540   18.1850   49.6170 O.2   387  U387       -0.2443
   8360  N3        23.0230   17.3430   50.1820 N.ar  387  U387       -0.1530
   8361  C4        22.1740   16.3750   50.6690 C.ar  387  U387        0.2846
   8362  O4        20.9670   16.5930   50.7000 O.2   387  U387       -0.2650
   8363  C5        22.8210   15.1680   51.0830 C.ar  387  U387        0.0814
   8364  C6        24.1500   15.0570   50.9760 C.ar  387  U387        0.0870
   8365  OP1       26.6140   12.2040   54.9990 O.3   387  U387       -0.4373
   8366  OP2       24.1290   12.5640   54.4260 O.co2 387  U387       -0.5172
   8367  P         28.4490   16.4040   54.6220 P.3   388  G388        0.2141
   8368  C5'       28.5030   18.7130   53.3460 C.3   388  G388        0.1812
   8369  O5'       27.8440   17.8350   54.2790 O.3   388  G388       -0.3114
   8370  C4'       27.7200   19.9950   53.1960 C.3   388  G388        0.1773
   8371  O4'       26.3900   19.7050   52.6710 O.3   388  G388       -0.3307
   8372  C3'       27.5370   20.7710   54.5000 C.3   388  G388        0.1860
   8373  O3'       27.6570   22.1730   54.3450 O.3   388  G388       -0.3112
   8374  C2'       26.1110   20.4350   54.9230 C.3   388  G388        0.2309
   8375  O2'       25.5060   21.4200   55.7470 O.3   388  G388       -0.2156
   8376  C1'       25.4120   20.1880   53.5760 C.3   388  G388        0.2408
   8377  N1        20.4320   19.1640   53.3530 N.ar  388  G388       -0.1709
   8378  C2        21.1010   20.2990   52.9680 C.ar  388  G388        0.2606
   8379  N2        20.3400   21.2920   52.4830 N.pl3 388  G388       -0.0859
   8380  N3        22.4160   20.4460   53.0490 N.ar  388  G388       -0.1918
   8381  C4        23.0150   19.3500   53.5660 C.ar  388  G388        0.1723
   8382  C5        22.4360   18.1710   53.9880 C.ar  388  G388        0.1748
   8383  C6        21.0270   18.0250   53.8830 C.ar  388  G388        0.3023
   8384  O6        20.3290   17.0490   54.1750 O.2   388  G388       -0.2633
   8385  N7        23.3990   17.2890   54.4600 N.ar  388  G388       -0.2173
   8386  C8        24.5250   17.9350   54.3230 C.ar  388  G388        0.1817
   8387  N9        24.3690   19.1780   53.7530 N.ar  388  G388       -0.2693
   8388  OP1       29.7620   16.5900   55.2890 O.2   388  G388       -0.5172
   8389  OP2       27.4090   15.5950   55.2930 O.co2 388  G388       -0.4373
   8390  P         28.1070   23.1070   55.5500 P.3   389  U389        0.2141
   8391  C5'       27.3270   24.6330   53.5060 C.3   389  U389        0.1812
   8392  O5'       27.9450   24.5240   54.8230 O.3   389  U389       -0.3114
   8393  C4'       26.9830   26.0670   53.1190 C.3   389  U389        0.1772
   8394  O4'       25.5740   26.1710   52.7680 O.3   389  U389       -0.3307
   8395  C3'       27.1630   27.1570   54.1630 C.3   389  U389        0.1844
   8396  O3'       27.2240   28.3820   53.4340 O.3   389  U389       -0.3258
   8397  C2'       25.8690   27.0440   54.9730 C.3   389  U389        0.2309
   8398  O2'       25.6450   28.1010   55.9150 O.3   389  U389       -0.2156
   8399  C1'       24.8420   26.7050   53.8680 C.3   389  U389        0.2420
   8400  N1        23.8600   25.6870   54.2860 N.ar  389  U389       -0.2534
   8401  C2        22.5090   25.9470   54.1160 C.ar  389  U389        0.3546
   8402  O2        22.0830   26.9810   53.6180 O.2   389  U389       -0.2443
   8403  N3        21.6740   24.9440   54.5550 N.ar  389  U389       -0.1530
   8404  C4        22.0390   23.7370   55.1360 C.ar  389  U389        0.2846
   8405  O4        21.1660   22.9350   55.4880 O.2   389  U389       -0.2650
   8406  C5        23.4500   23.5460   55.2660 C.ar  389  U389        0.0814
   8407  C6        24.2900   24.5010   54.8470 C.ar  389  U389        0.0870
   8408  OP1       29.5290   22.7390   55.7760 O.2   389  U389       -0.5172
   8409  OP2       27.1570   23.0140   56.6910 O.co2 389  U389       -0.4373
   8410  P         28.6200   29.1080   53.1300 P.3   390  G390        0.1280
   8411  OP1       29.4020   28.2590   52.1940 O.3   390  G390       -0.1955
   8412  OP2       29.1940   29.4620   54.4600 O.co2 390  G390       -0.7863
@<TRIPOS>BOND
     1   666   645    2
     2   689   668    2
     3   628   645    1
     4   628   627    1
     5   646   648    1
     6   646   647    1
     7   645   647    1
     8   645   667    1
     9   651   668    1
    10   651   650    1
    11   630   629    1
    12   668   690    1
    13   668   670    1
    14   648   650    1
    15   648   649    1
    16   625   623    1
    17   625   627    1
    18   625   626    1
    19   623   624    1
    20   627   629    1
    21   643   622    2
    22   650   652    1
    23   669   670    1
    24   669   671    1
    25   938   939   ar
    26   938   937   ar
    27   629   631    1
    28   608   607    1
    29   649   654    1
    30   653   652    1
    31   626   631    1
    32   939   940   ar
    33   709   691    2
    34   937   942   ar
    35   935   934    1
    36   624   622    1
    37   652   654    1
    38   611   612   ar
    39   611   610   ar
    40   631   642    1
    41   622   606    1
    42   622   644    1
    43   710   691    1
    44   606   605    1
    45   612   613   ar
    46   654   665    1
    47   607   605    1
    48   607   609    1
    49   671   673    1
    50   671   672    1
    51   691   674    1
    52   691   693    1
    53   934   936    1
    54   934   932    1
    55   674   673    1
    56   950   952    1
    57   950   951    1
    58   952   953    1
    59   952   954    1
    60   610   615   ar
    61   940   941   ar
    62   940   946   ar
    63   969   949    2
    64   957   956    1
    65   942   943    1
    66   942   941   ar
    67   989   971    2
    68   605   603    1
    69   673   675    1
    70   955   954    1
    71   955   971    1
    72   953   958    1
    73   672   677    1
    74   933   932    1
    75   933   949    1
    76   936   946    1
    77   936   931    1
    78   642   641   ar
    79   642   636   ar
    80   609   619    1
    81   609   604    1
    82   733   711    2
    83   613   619   ar
    84   613   614   ar
    85   665   664   ar
    86   665   659   ar
    87   941   944   ar
    88   932   930    1
    89   946   945   ar
    90   777   756    2
    91   954   956    1
    92   664   663   ar
    93   635   636   ar
    94   635   633   ar
    95   603   604    1
    96   603   601    1
    97   956   958    1
    98   951   949    1
    99   693   692    1
   100   949   970    1
   101   958   968    1
   102   971   973    1
   103   971   990    1
   104   619   618   ar
   105   615   614   ar
   106   615   616    1
   107   641   640   ar
   108   972   973    1
   109   972   974    1
   110   636   637   ar
   111   614   617   ar
   112   931   930    1
   113   692   694    1
   114   930   928    1
   115   675   677    1
   116   675   676    1
   117   728   727    2
   118   677   688    1
   119   634   633    1
   120   755   734    2
   121   659   658   ar
   122   659   660   ar
   123   711   732    1
   124   711   713    1
   125   711   697    1
   126   687   688   ar
   127   687   686   ar
   128   633   632   ar
   129   945   944   ar
   130   663   660   ar
   131   658   656   ar
   132   735   737    1
   133   735   736    1
   134   536   518    2
   135   974   975    1
   136   974   976    1
   137   756   740    1
   138   756   778    1
   139   756   758    1
   140   740   739    1
   141   601   602    1
   142   912   911    1
   143   729   726   ar
   144   729   730   ar
   145   516   498    2
   146   968   967   ar
   147   968   962   ar
   148   618   617   ar
   149   640   637   ar
   150   688   682   ar
   151   637   638   ar
   152   737   739    1
   153   737   738    1
   154   975   980    1
   155   660   661   ar
   156   727   726   ar
   157   727   721   ar
   158   713   712    1
   159   686   683   ar
   160   697   696    1
   161   967   966   ar
   162   928   929    1
   163   694   696    1
   164   694   695    1
   165   504   518    1
   166   504   503    1
   167   602   600    1
   168   734   736    1
   169   734   754    1
   170   734   717    1
   171   707   708   ar
   172   707   705   ar
   173   726   725   ar
   174   739   741    1
   175   632   638   ar
   176   499   501    1
   177   499   500    1
   178   730   731   ar
   179   696   698    1
   180   961   962   ar
   181   961   960   ar
   182   518   537    1
   183   518   520    1
   184   757   758    1
   185   757   759    1
   186   656   657    1
   187   656   655   ar
   188   896   895    2
   189   910   909    1
   190   910   927    1
   191   708   701   ar
   192   962   963   ar
   193  1009   991    2
   194   907   908    1
   195   907   909    1
   196   907   905    1
   197   892   891    1
   198   976   977    1
   199   976   978    1
   200   977   991    1
   201   592   591    2
   202   638   639    2
   203   911   913    1
   204   911   909    1
   205   738   743    1
   206   742   741    1
   207   908   913    1
   208   682   683   ar
   209   682   681   ar
   210   913   924    1
   211   695   700    1
   212   501   503    1
   213   501   502    1
   214   721   722   ar
   215   800   779    2
   216   980   978    1
   217   980   981    1
   218   498   481    1
   219   498   500    1
   220   498   517    1
   221   947   927    2
   222   481   480    1
   223   929   927    1
   224   661   655   ar
   225   661   662    2
   226   683   684   ar
   227  1010   991    1
   228   712   714    1
   229   905   906    1
   230   706   705    2
   231   991   993    1
   232   503   505    1
   233   741   743    1
   234   979   978    1
   235   705   704   ar
   236   966   963   ar
   237   588   587    1
   238   519   520    1
   239   519   521    1
   240   716   717    1
   241   716   714    1
   242   716   718    1
   243   927   948    1
   244   988   981   ar
   245   988   987   ar
   246   725   731   ar
   247   725   724   ar
   248   960   959   ar
   249   731   720    1
   250   593   591   ar
   251   593   594   ar
   252   591   590   ar
   253   799   779    1
   254   963   964   ar
   255   895   897   ar
   256   895   894   ar
   257   506   505    1
   258   743   753    1
   259   556   538    2
   260   891   893    1
   261   891   889    1
   262   600   620    2
   263   600   621    1
   264   600   586    1
   265   701   700    1
   266   701   702   ar
   267   681   679   ar
   268   759   761    1
   269   759   760    1
   270   981   982   ar
   271   893   894    1
   272   893   888    1
   273  1297  1276    2
   274   698   700    1
   275   698   699    1
   276   779   762    1
   277   779   781    1
   278   917   915   ar
   279   917   918   ar
   280   557   538    1
   281   916   915    1
   282   587   589    1
   283   587   585    1
   284   714   715    1
   285   897   898   ar
   286   722   724   ar
   287   722   723    1
   288   483   482    1
   289   502   507    1
   290   924   918   ar
   291   924   923   ar
   292   762   761    1
   293   505   507    1
   294   987   985   ar
   295   538   524    1
   296   538   540    1
   297   480   478    1
   298   480   482    1
   299   595   594    2
   300   718   720    1
   301   718   719    1
   302   684   685    2
   303   684   678   ar
   304   715   720    1
   305   894   901   ar
   306   524   523    1
   307   761   763    1
   308   704   702   ar
   309   478   476    1
   310   478   479    1
   311   594   596   ar
   312   906   904    1
   313   915   914   ar
   314   888   887    1
   315   918   919   ar
   316   476   477    1
   317   959   964   ar
   318   760   765    1
   319   521   523    1
   320   521   522    1
   321   964   965    1
   322   993   992    1
   323   586   585    1
   324   590   589    1
   325   590   597   ar
   326   702   703    2
   327   890   889    1
   328   890   904    1
   329   589   584    1
   330   992   994    1
   331   482   484    1
   332   679   678   ar
   333   679   680    1
   334   753   752   ar
   335   753   747   ar
   336   889   887    1
   337   876   875    2
   338   982   983    2
   339   982   984   ar
   340   507   508    1
   341   585   583    1
   342   925   904    2
   343   523   525    1
   344   781   780    1
   345   752   751   ar
   346  1276  1278    1
   347  1276  1260    1
   348  1276  1298    1
   349   496   475    2
   350   923   922   ar
   351   578   558    2
   352   823   801    2
   353   898   899    1
   354   898   900   ar
   355   904   926    1
   356   887   885    1
   357  1277  1278    1
   358  1277  1279    1
   359  1317  1299    2
   360   985   984   ar
   361   985   986    1
   362   775   774   ar
   363   775   776   ar
   364   877   875   ar
   365   877   878   ar
   366   901   900   ar
   367   522   527    1
   368   596   597   ar
   369   540   539    1
   370   479   484    1
   371  1339  1319    2
   372  1440  1439    2
   373  1260  1259    1
   374   477   475    1
   375   914   920   ar
   376  1436  1435    1
   377   875   874   ar
   378   919   922   ar
   379   919   920   ar
   380   763   765    1
   381   763   764    1
   382  1300  1302    1
   383  1300  1301    1
   384   765   776    1
   385   515   508   ar
   386   515   514   ar
   387   484   495    1
   388   747   746   ar
   389   747   748   ar
   390   508   509   ar
   391   994   995    1
   392   994   996    1
   393   995  1000    1
   394   584   583    1
   395   539   541    1
   396   774   771   ar
   397   822   801    1
   398   746   745   ar
   399   780   782    1
   400  1281  1279    1
   401  1281  1282    1
   402  1281  1283    1
   403   879   878    1
   404   583   581    1
   405   776   770   ar
   406   475   459    1
   407   475   497    1
   408  1302  1303    1
   409  1302  1304    1
   410  1466  1448    2
   411  1279  1280    1
   412   801   785    1
   413   801   803    1
   414   787   786    1
   415   786   784    1
   416   786   788    1
   417   784   785    1
   418   784   782    1
   419   751   748   ar
   420  1008  1007   ar
   421  1008  1001   ar
   422  1007  1005   ar
   423   525   526    1
   424   525   527    1
   425  1262  1261    1
   426   878   880   ar
   427   920   921    2
   428   797   796   ar
   429   797   798   ar
   430  1305  1319    1
   431  1305  1304    1
   432   461   460    1
   433   459   458    1
   434   558   544    1
   435   558   579    1
   436   558   560    1
   437  1467  1448    1
   438   885   886    1
   439   544   543    1
   440  1439  1441   ar
   441  1439  1438   ar
   442   872   871    1
   443   535   534   ar
   444   535   528   ar
   445  1435  1433    1
   446  1435  1437    1
   447  1299  1282    1
   448  1299  1301    1
   449  1299  1318    1
   450   527   528    1
   451   796   793   ar
   452  1441  1442   ar
   453   598   580    2
   454   514   512   ar
   455   559   560    1
   456   559   561    1
   457  1303  1308    1
   458  1319  1340    1
   459  1319  1321    1
   460   748   749   ar
   461  1434  1448    1
   462  1434  1433    1
   463   582   581    1
   464   582   580    1
   465   782   783    1
   466   874   873    1
   467   874   881   ar
   468  1307  1306    1
   469  1488  1468    2
   470  1448  1450    1
   471  1283  1284    1
   472  1283  1285    1
   473  1259  1261    1
   474  1259  1257    1
   475   509   510    2
   476   509   511   ar
   477   495   494   ar
   478   495   489   ar
   479   996   997    1
   480   996   998    1
   481   871   873    1
   482   871   869    1
   483  1033  1011    2
   484   534   532   ar
   485  1304  1306    1
   486  5313  5312    1
   487   859   858    1
   488   541   543    1
   489   541   542    1
   490  1511  1490    2
   491   873   868    1
   492  1000  1001    1
   493  1000   998    1
   494   543   545    1
   495   771   770   ar
   496   771   772   ar
   497   802   803    1
   498   802   804    1
   499   528   529   ar
   500  1001  1002   ar
   501  1261  1263    1
   502   745   744   ar
   503   770   769   ar
   504   886   884    1
   505   488   489   ar
   506   488   486   ar
   507   783   788    1
   508   460   458    1
   509   460   462    1
   510  1417  1416    1
   511   798   788    1
   512   798   792   ar
   513  1280  1285    1
   514   997  1011    1
   515  1433  1431    1
   516  1469  1471    1
   517  1469  1470    1
   518  1257  1255    1
   519  1257  1258    1
   520  1005  1006    2
   521  1005  1004   ar
   522   857   858   ar
   523   857   855   ar
   524   458   456    1
   525  1437  1438    1
   526  1437  1432    1
   527  1443  1442    2
   528  1438  1445   ar
   529  4331  4330    1
   530   880   881   ar
   531  1442  1444   ar
   532   494   493   ar
   533  1274  1254    2
   534   489   490   ar
   535   580   564    1
   536   580   599    1
   537  5307  5312   ar
   538  5307  5308   ar
   539   561   563    1
   540   561   562    1
   541  1306  1308    1
   542   563   564    1
   543   563   565    1
   544  1512  1490    1
   545   856   855    2
   546  1474  1490    1
   547  1474  1473    1
   548  1308  1309    1
   549   512   511   ar
   550   512   513    2
   551  1256  1255    1
   552  1256  1254    1
   553  1415  1416   ar
   554  1415  1421   ar
   555  1011  1032    1
   556  1011  1013    1
   557  1320  1321    1
   558  1320  1322    1
   559  1471  1473    1
   560  1471  1472    1
   561   793   792   ar
   562   793   794   ar
   563  5436  5435    1
   564   858   860   ar
   565   998   999    1
   566  1490  1492    1
   567   487   486    1
   568   749   744   ar
   569   749   750    1
   570  5312  5311   ar
   571  1285  1296    1
   572  1454  1468    1
   573  1454  1453    1
   574   456   454    1
   575   456   457    1
   576   555   554   ar
   577   555   548   ar
   578   542   547    1
   579   486   485   ar
   580  1468  1470    1
   581  1468  1489    1
   582  1422  1421    2
   583   843   824    2
   584  5456  5455    1
   585   855   854   ar
   586  1416  1418   ar
   587   554   552   ar
   588   772   773    2
   589   772   766   ar
   590  1456  1455    1
   591   769   767   ar
   592  1002  1004   ar
   593  1002  1003    2
   594  5452  5451    1
   595  5452  5457    1
   596   868   867    1
   597   792   791   ar
   598   532   533    1
   599   532   531   ar
   600   795   794    1
   601  1263  1258    1
   602  1263  1273    1
   603  5451  5449    1
   604  5451  5453    1
   605  1450  1449    1
   606   529   530    2
   607   529   531   ar
   608   869   870    1
   609   869   867    1
   610   804   806    1
   611   804   805    1
   612  1295  1296   ar
   613  1295  1294   ar
   614  5308  5309   ar
   615   545   546    1
   616   545   547    1
   617  1431  1432    1
   618  1431  1429    1
   619  4326  4327    1
   620  4326  4324    1
   621  4326  4328    1
   622  1240  1239    1
   623  1362  1341    2
   624  1421  1420   ar
   625   462   457    1
   626   462   472    1
   627  1445  1444   ar
   628  1254  1238    1
   629  1254  1275    1
   630   493   490   ar
   631  1473  1475    1
   632  4351  4350    1
   633   490   491   ar
   634  5449  5450    1
   635   565   566    1
   636   565   567    1
   637  1316  1309   ar
   638  1316  1315   ar
   639   794   789   ar
   640   884   870    1
   641   884   903    2
   642   884   902    1
   643  1451  1453    1
   644  1451  1449    1
   645  1451  1452    1
   646  4327  4332    1
   647  1472  1477    1
   648  4346  4347    1
   649  4346  4344    1
   650  4346  4348    1
   651  1476  1475    1
   652   454   455    1
   653  1296  1290   ar
   654  1309  1310   ar
   655  4330  4332    1
   656  4330  4328    1
   657  4311  4310    1
   658   842   824    1
   659  4324  4325    1
   660   562   567    1
   661  5440  5439    2
   662  4332  4333    1
   663  5457  5455    1
   664  5457  5468    1
   665  1238  1237    1
   666   807   824    1
   667   807   806    1
   668  4347  4352    1
   669   867   865    1
   670  4329  4328    1
   671  4329  4343    1
   672   547   548    1
   673  1453  1455    1
   674   465   464   ar
   675   465   466   ar
   676   824   826    1
   677  1322  1324    1
   678  1322  1323    1
   679  5454  5453    1
   680  5454  5471    1
   681  4345  4344    1
   682  4345  4343    1
   683   548   549   ar
   684  5435  5437    1
   685  5435  5433    1
   686   806   808    1
   687  5455  5453    1
   688  1361  1341    1
   689  4361  4343    2
   690   485   491   ar
   691   860   861   ar
   692  1013  1012    1
   693  1325  1341    1
   694  1325  1324    1
   695   805   810    1
   696  5437  5432    1
   697  5437  5438    1
   698  5311  5314   ar
   699  5311  5310   ar
   700   766   767   ar
   701   767   768    1
   702  1492  1491    1
   703  1418  1419   ar
   704  4349  4348    1
   705  4349  4363    1
   706  1266  1267   ar
   707  1266  1265   ar
   708  1455  1457    1
   709   552   553    2
   710   552   551   ar
   711  4335  4334    2
   712  1029  1030   ar
   713  1029  1026   ar
   714  1341  1343    1
   715  1399  1398    1
   716  1452  1457    1
   717  4352  4350    1
   718  4352  4353    1
   719   854   861   ar
   720   854   853    1
   721  1294  1291   ar
   722  1475  1477    1
   723   464   463   ar
   724  5432  5431    1
   725   491   492    2
   726  4381  4363    2
   727  1071  1070    2
   728   791   790   ar
   729   472   466   ar
   730   472   471   ar
   731  4350  4348    1
   732  1273  1267   ar
   733  1273  1272   ar
   734  5431  5433    1
   735  5431  5429    1
   736  5434  5433    1
   737  5434  5448    1
   738   567   577    1
   739  1324  1326    1
   740  1315  1313   ar
   741  5489  5471    2
   742  4343  4362    1
   743   820   819   ar
   744   820   821   ar
   745  1239  1237    1
   746  1239  1241    1
   747  1429  1430    1
   748  1030  1031   ar
   749  1477  1487    1
   750  5420  5419    2
   751   466   467   ar
   752  5309  5310   ar
   753   455   453    1
   754  1420  1419   ar
   755  1420  1423   ar
   756  1457  1458    1
   757   576   577   ar
   758   576   575   ar
   759  1028  1027    2
   760  5314  5315   ar
   761  5450  5448    1
   762   789   790   ar
   763  5439  5438   ar
   764  5439  5441   ar
   765  1323  1328    1
   766  1267  1268   ar
   767  1064  1070   ar
   768  1064  1065   ar
   769  1265  1264   ar
   770  1310  1311    2
   771  1310  1312   ar
   772  1237  1235    1
   773   473   453    2
   774  4310  4312    1
   775  4310  4308    1
   776  5310  5316   ar
   777  1419  1425   ar
   778  5468  5462   ar
   779  5468  5467   ar
   780  4315  4314    2
   781  5479  5478    1
   782   819   816   ar
   783  1491  1493    1
   784  1290  1291   ar
   785  1290  1289   ar
   786  5461  5462   ar
   787  5461  5459   ar
   788  5469  5448    2
   789  4333  4334   ar
   790  4333  4340   ar
   791  4341  4323    2
   792  5416  5415    1
   793  4325  4323    1
   794  5471  5473    1
   795  5471  5490    1
   796  1012  1014    1
   797  5438  5445   ar
   798  4334  4336   ar
   799  5475  5480    1
   800  5475  5474    1
   801  5397  5396   ar
   802  5397  5398   ar
   803  1393  1398   ar
   804  1393  1394   ar
   805   549   551   ar
   806   549   550    2
   807  1066  1065    1
   808   853   851    1
   809   853   848    1
   810  4364  4366    1
   811  4364  4365    1
   812  4363  4365    1
   813  4363  4382    1
   814   577   571   ar
   815  4309  4323    1
   816  4309  4308    1
   817  1070  1069   ar
   818  1398  1397   ar
   819   865   866    1
   820   851   852    1
   821   851   849    1
   822   826   825    1
   823   810   808    1
   824   810   821    1
   825  1026  1027   ar
   826  1026  1025   ar
   827  2528  2508    2
   828  5396  5401   ar
   829   463   468   ar
   830  1291  1292   ar
   831   866   864    1
   832  1378  1377    1
   833   471   470   ar
   834   808   809    1
   835  1244  1243   ar
   836  1244  1245   ar
   837  5448  5470    1
   838  5460  5459    1
   839   821   815   ar
   840  2506  2485    2
   841  5462  5463   ar
   842  4312  4307    1
   843  4312  4313    1
   844  1272  1271   ar
   845  5429  5430    1
   846  1430  1428    1
   847  1243  1242   ar
   848  1027  1021   ar
   849  1357  1356    1
   850  4353  4360   ar
   851  4353  4354   ar
   852  1049  1048    2
   853   840   841   ar
   854   840   838   ar
   855  5480  5478    1
   856  5480  5481    1
   857  1235  1236    1
   858  1235  1233    1
   859   575   572   ar
   860   453   439    1
   861   453   474    1
   862   467   468   ar
   863   467   470   ar
   864  1343  1342    1
   865  1015  1014    1
   866  1015  1020    1
   867  4323  4342    1
   868  1423  1424   ar
   869  5467  5466   ar
   870  1241  1236    1
   871  1241  1251    1
   872  5474  5472    1
   873  5474  5476    1
   874  1065  1067   ar
   875  5419  5421   ar
   876  5419  5418   ar
   877  1358  1359   ar
   878  1358  1355   ar
   879  5459  5458   ar
   880  1289  1287   ar
   881  4366  4367    1
   882  4366  4368    1
   883  4355  4354    2
   884  5441  5442   ar
   885  1031  1025   ar
   886  1031  1020    1
   887  5375  5374    1
   888  1487  1486   ar
   889  1487  1481   ar
   890  1313  1312   ar
   891  1313  1314    2
   892  4308  4306    1
   893  1337  1336   ar
   894  1337  1338   ar
   895  5473  5472    1
   896  5398  5399   ar
   897  4306  4307    1
   898  4306  4304    1
   899   839   838    2
   900  1326  1327    1
   901  1326  1328    1
   902  5478  5476    1
   903  5315  5316   ar
   904  4367  4372    1
   905   468   469    1
   906  5415  5417    1
   907  5415  5413    1
   908  5417  5418    1
   909  5417  5412    1
   910  4314  4313   ar
   911  4314  4316   ar
   912  1328  1338    1
   913  4340  4339   ar
   914  1486  1485   ar
   915  1264  1269   ar
   916  1268  1271   ar
   917  1268  1269   ar
   918  4360  4359   ar
   919   841   834   ar
   920   441   440    1
   921  1458  1465   ar
   922  1458  1459   ar
   923  5421  5422   ar
   924  5316  5306    1
   925  1394  1395   ar
   926   816   815   ar
   927   816   817   ar
   928  5373  5374   ar
   929  5373  5379   ar
   930  1425  1424   ar
   931  1425  1414    1
   932  1014  1016    1
   933  4354  4356   ar
   934  1460  1459    2
   935  1025  1024   ar
   936   439   438    1
   937   838   837   ar
   938  5357  5356    1
   939  4336  4337   ar
   940  1493  1494    1
   941  1493  1495    1
   942  5445  5444   ar
   943  1359  1360   ar
   944  1245  1251   ar
   945  1245  1246   ar
   946  5380  5379    2
   947  1233  1234    1
   948  1447  1428    2
   949   825   827    1
   950   848   847    1
   951  1494  1499    1
   952  5477  5476    1
   953  5477  5491    1
   954  1397  1400   ar
   955  1397  1396   ar
   956  1242  1247   ar
   957   849   850    1
   958   849   847    1
   959   815   814   ar
   960  4313  4320   ar
   961  1413  1412    1
   962  1020  1018    1
   963  1336  1333   ar
   964  1382  1363    2
   965  5463  5466   ar
   966  5463  5464   ar
   967  1338  1332   ar
   968  5401  5402    1
   969  5401  5400   ar
   970   571   572   ar
   971   571   570   ar
   972  4321  4303    2
   973  1377  1379   ar
   974  1377  1376   ar
   975  1048  1050   ar
   976  1048  1047   ar
   977  5418  5425   ar
   978  1251  1250   ar
   979   883   864    2
   980  1069  1072   ar
   981  1069  1068   ar
   982  1412  1414    1
   983  1412  1410    1
   984  5374  5376   ar
   985  1356  1355   ar
   986  1356  1351   ar
   987  1342  1344    1
   988  2508  2529    1
   989  2508  2491    1
   990  2508  2510    1
   991  1355  1354   ar
   992  1292  1293    2
   993  1292  1286   ar
   994  1050  1051   ar
   995  1509  1508   ar
   996  1509  1510   ar
   997   440   438    1
   998   440   442    1
   999  5481  5488   ar
  1000  5481  5482   ar
  1001  5430  5428    1
  1002   864   850    1
  1003   864   882    1
  1004  1269  1270    1
  1005  1053  1034    2
  1006   572   573   ar
  1007  1428  1446    1
  1008  1428  1411    1
  1009  4371  4370    1
  1010  1021  1022   ar
  1011  1465  1464   ar
  1012  5458  5464   ar
  1013  1459  1461   ar
  1014  2485  2468    1
  1015  2485  2507    1
  1016  2485  2487    1
  1017  1379  1380   ar
  1018  2468  2467    1
  1019  1400  1401   ar
  1020  5379  5378   ar
  1021  5412  5411    1
  1022  1414  1409    1
  1023  1481  1480   ar
  1024  1481  1482   ar
  1025  1093  1092    1
  1026   445   444    2
  1027  1287  1286   ar
  1028  1287  1288    1
  1029  1067  1068   ar
  1030  1016  1018    1
  1031  1016  1017    1
  1032  4372  4370    1
  1033  4372  4373    1
  1034  2486  2487    1
  1035  2486  2488    1
  1036  4301  4283    2
  1037   818   817    2
  1038  5442  5444   ar
  1039  5442  5443    2
  1040  4368  4369    1
  1041  4368  4370    1
  1042  4316  4317   ar
  1043  5488  5487   ar
  1044  4304  4305    1
  1045  1508  1505   ar
  1046  5399  5400   ar
  1047  5399  5405   ar
  1048  5483  5482    2
  1049  4305  4303    1
  1050  4369  4383    1
  1051   817   811   ar
  1052  1480  1479   ar
  1053   831   829    1
  1054   831   832    1
  1055   831   833    1
  1056   438   436    1
  1057  4322  4303    1
  1058  4339  4337   ar
  1059  1221  1220    1
  1060  1532  1513    2
  1061  5351  5356   ar
  1062  5351  5352   ar
  1063  4359  4357   ar
  1064  5464  5465    2
  1065  1485  1482   ar
  1066   847   845    1
  1067  1395  1396   ar
  1068  5414  5413    1
  1069  5414  5428    1
  1070  1072  1073   ar
  1071  5306  5301    1
  1072  5306  5304    1
  1073  4303  4289    1
  1074  5356  5355   ar
  1075  2491  2490    1
  1076  1068  1074   ar
  1077   834   833    1
  1078   834   835   ar
  1079  5422  5423    1
  1080  5422  5424   ar
  1081  4404  4383    2
  1082  5413  5411    1
  1083  1246  1247   ar
  1084  1246  1249   ar
  1085  5482  5484   ar
  1086  1495  1496    1
  1087  1495  1497    1
  1088  1396  1402   ar
  1089  1247  1248    1
  1090   570   569   ar
  1091  4337  4338    2
  1092  4356  4357   ar
  1093  5400  5403   ar
  1094   829   827    1
  1095   829   830    1
  1096  1024  1022   ar
  1097  1376  1374   ar
  1098  5511  5491    2
  1099  5411  5409    1
  1100   827   828    1
  1101   814   812   ar
  1102   837   835   ar
  1103  2510  2509    1
  1104  1018  1019    1
  1105  1496  1513    1
  1106  1360  1354   ar
  1107  1360  1350    1
  1108   828   833    1
  1109  1022  1023    1
  1110  1234  1232    1
  1111  1047  1045   ar
  1112  1250  1249   ar
  1113  1499  1510    1
  1114  1499  1497    1
  1115  1510  1504   ar
  1116  1333  1332   ar
  1117  1333  1334   ar
  1118  1410  1411    1
  1119  1410  1408    1
  1120  4320  4319   ar
  1121  1252  1232    2
  1122   863   844    2
  1123  1351  1352   ar
  1124   846   845    1
  1125   846   844    1
  1126  1332  1331   ar
  1127  5491  5512    1
  1128  5491  5493    1
  1129   444   446   ar
  1130   444   443   ar
  1131  2654  2653    1
  1132  5376  5377   ar
  1133  1346  1344    1
  1134  1346  1347    1
  1135  1346  1348    1
  1136  1363  1347    1
  1137  1363  1381    1
  1138  1363  1365    1
  1139  2470  2469    1
  1140  5425  5424   ar
  1141  1482  1483   ar
  1142  1051  1044   ar
  1143  1354  1353   ar
  1144  5305  5304    1
  1145  5394  5393    1
  1146  1344  1345    1
  1147  2488  2490    1
  1148  2488  2489    1
  1149  5428  5446    2
  1150  5428  5447    1
  1151  4357  4358    1
  1152   442   443    1
  1153   442   437    1
  1154  4380  4373   ar
  1155  4380  4379   ar
  1156  1531  1513    1
  1157  1017  1034    1
  1158  4373  4374   ar
  1159  2463  2465    1
  1160  2463  2464    1
  1161   573   574    1
  1162   573   568   ar
  1163  1380  1373   ar
  1164  1034  1052    1
  1165  1034  1036    1
  1166  4284  4286    1
  1167  4284  4285    1
  1168  5301  5300    1
  1169  1513  1515    1
  1170  2467  2465    1
  1171  2467  2469    1
  1172  1464  1462   ar
  1173  5487  5485   ar
  1174  1401  1402   ar
  1175  2465  2466    1
  1176  4383  4385    1
  1177  4383  4405    1
  1178  2548  2530    2
  1179  1461  1462   ar
  1180  5405  5395    1
  1181  5405  5404   ar
  1182  5378  5377   ar
  1183  5378  5381   ar
  1184   835   836    2
  1185   446   447   ar
  1186  5395  5393    1
  1187  5395  5390    1
  1188   811   812   ar
  1189  1092  1091   ar
  1190  1092  1087   ar
  1191  1409  1408    1
  1192  1220  1219   ar
  1193  1220  1222   ar
  1194  5304  5302    1
  1195  1345  1350    1
  1196  5352  5353   ar
  1197  2490  2492    1
  1198  2509  2511    1
  1199  1479  1478   ar
  1200  4317  4319   ar
  1201  4317  4318    2
  1202   436   437    1
  1203   436   434    1
  1204   443   450   ar
  1205  1505  1504   ar
  1206  1505  1506   ar
  1207   812   813    1
  1208  1094  1091   ar
  1209  1094  1095   ar
  1210  5484  5485   ar
  1211  4283  4269    1
  1212  4283  4285    1
  1213  4283  4302    1
  1214  5492  5493    1
  1215  5492  5494    1
  1216  1402  1392    1
  1217  5393  5391    1
  1218  2464  2462    1
  1219  1497  1498    1
  1220  4269  4268    1
  1221  5355  5358   ar
  1222  5355  5354   ar
  1223  2483  2462    2
  1224  1073  1074   ar
  1225  5377  5383   ar
  1226  2626  2627   ar
  1227  2626  2631   ar
  1228  1427  1405    2
  1229  2469  2471    1
  1230   844   830    1
  1231   844   862    1
  1232  1074  1063    1
  1233   569   568   ar
  1234  1219  1225   ar
  1235  4384  4385    1
  1236  4384  4386    1
  1237  1217  1216    1
  1238  1404  1383    2
  1239  1350  1348    1
  1240  1232  1215    1
  1241  1232  1253    1
  1242  5403  5404   ar
  1243  1374  1373   ar
  1244  1374  1375    2
  1245  4271  4270    1
  1246  5485  5486    1
  1247  1365  1364    1
  1248  4289  4288    1
  1249  4286  4288    1
  1250  4286  4287    1
  1251  1462  1463    2
  1252  1504  1503   ar
  1253  1331  1330   ar
  1254  1222  1223   ar
  1255  1408  1406    1
  1256  1352  1353   ar
  1257  5409  5410    1
  1258  1091  1090   ar
  1259  2627  2628   ar
  1260  4379  4377   ar
  1261  1045  1044   ar
  1262  1045  1046    2
  1263  1348  1349    1
  1264  5358  5359   ar
  1265  1334  1335    1
  1266  1334  1329   ar
  1267  1044  1043    1
  1268  1087  1088   ar
  1269  4374  4375    2
  1270  4374  4376   ar
  1271  1373  1372    1
  1272  1215  1214    1
  1273   447   448    1
  1274   447   449   ar
  1275  2653  2648   ar
  1276  2653  2652   ar
  1277  2489  2494    1
  1278  1483  1478   ar
  1279  1483  1484    1
  1280  1407  1405    1
  1281  1407  1406    1
  1282  2632  2631    1
  1283  4288  4290    1
  1284  1507  1506    2
  1285  5381  5382   ar
  1286  5390  5389    1
  1287  1216  1214    1
  1288  1216  1218    1
  1289  1036  1035    1
  1290   450   449   ar
  1291  2462  2448    1
  1292  2462  2484    1
  1293  2466  2471    1
  1294  1506  1500   ar
  1295  5495  5494    1
  1296  5495  5500    1
  1297   434   435    1
  1298  5300  5302    1
  1299  5300  5298    1
  1300  2526  2525   ar
  1301  2526  2527   ar
  1302  2513  2511    1
  1303  2513  2514    1
  1304  2513  2515    1
  1305  5353  5354   ar
  1306  2525  2522   ar
  1307  2530  2549    1
  1308  2530  2514    1
  1309  2530  2532    1
  1310  2631  2630   ar
  1311  5494  5496    1
  1312  2493  2492    1
  1313  5303  5302    1
  1314  5303  5319    1
  1315  5354  5360   ar
  1316  1095  1096   ar
  1317  4266  4268    1
  1318  4266  4264    1
  1319  4266  4267    1
  1320  2511  2512    1
  1321  1515  1514    1
  1322  2655  2652   ar
  1323  2655  2656   ar
  1324  2471  2482    1
  1325  5410  5408    1
  1326  2492  2494    1
  1327  2450  2449    1
  1328  1390  1392    1
  1329  1390  1388    1
  1330  1390  1391    1
  1331  5340  5319    2
  1332  1225  1226    2
  1333  1225  1224   ar
  1334  5299  5298    1
  1335  5299  5297    1
  1336  4268  4270    1
  1337  2648  2649   ar
  1338  4264  4265    1
  1339  1392  1387    1
  1340  1405  1389    1
  1341  1405  1426    1
  1342  2448  2447    1
  1343  5383  5382   ar
  1344  5383  5372    1
  1345   422   421    1
  1346  1214  1212    1
  1347  1063  1061    1
  1348  1063  1058    1
  1349  1223  1224   ar
  1350  1223  1229   ar
  1351  2652  2651   ar
  1352  4386  4387    1
  1353  4386  4388    1
  1354  1330  1329   ar
  1355  4376  4377   ar
  1356  4387  4392    1
  1357  4377  4378    2
  1358  4270  4272    1
  1359  2572  2550    2
  1360  5391  5389    1
  1361  5391  5392    1
  1362   435   433    1
  1363  1038  1043    1
  1364  1038  1037    1
  1365  1645  1644    1
  1366  1529  1530   ar
  1367  1529  1527   ar
  1368  1503  1501   ar
  1369  2628  2629   ar
  1370  4287  4292    1
  1371  1383  1385    1
  1372  1383  1369    1
  1373  1383  1403    1
  1374  5359  5360   ar
  1375  1364  1366    1
  1376  2515  2516    1
  1377  2515  2517    1
  1378  1368  1370    1
  1379  1368  1366    1
  1380  1368  1369    1
  1381  2494  2505    1
  1382  1388  1389    1
  1383  1388  1386    1
  1384  5389  5387    1
  1385  5317  5297    2
  1386  5318  5297    1
  1387  1043  1041    1
  1388  1090  1096   ar
  1389  1090  1089   ar
  1390  1568  1567    2
  1391  2531  2532    1
  1392  2531  2533    1
  1393  1088  1089   ar
  1394  1061  1062    1
  1395  1061  1059    1
  1396  1224  1227   ar
  1397  1035  1037    1
  1398  1385  1384    1
  1399  1372  1370    1
  1400  1372  1367    1
  1401  5319  5339    1
  1402  5319  5321    1
  1403  4281  4263    2
  1404  5392  5408    1
  1405  2504  2505   ar
  1406  2504  2503   ar
  1407  1098  1077    2
  1408  1218  1229    1
  1409  1218  1213    1
  1410  5360  5350    1
  1411  1668  1667    1
  1412  5509  5510   ar
  1413  5509  5508   ar
  1414  5297  5280    1
  1415  1514  1516    1
  1416  1528  1527    1
  1417  1530  1523   ar
  1418  1370  1371    1
  1419  4267  4272    1
  1420  1367  1366    1
  1421  5500  5510    1
  1422  5500  5498    1
  1423  1500  1501   ar
  1424  5372  5370    1
  1425  5372  5367    1
  1426  1096  1086    1
  1427  2512  2517    1
  1428  2527  2517    1
  1429  2527  2521   ar
  1430   421   420   ar
  1431   421   423   ar
  1432  4290  4292    1
  1433  4290  4291    1
  1434  1229  1228   ar
  1435   420   426   ar
  1436  2449  2447    1
  1437  2449  2451    1
  1438  2656  2657   ar
  1439  1387  1386    1
  1440  2630  2629   ar
  1441  2630  2633   ar
  1442  2611  2610    1
  1443  2522  2523   ar
  1444  2522  2521   ar
  1445  4265  4263    1
  1446  1058  1057    1
  1447  1663  1661    1
  1448  1663  1664    1
  1449  1663  1665    1
  1450  4272  4273    1
  1451  2524  2523    1
  1452  1548  1547    1
  1453  4402  4401   ar
  1454  4402  4403   ar
  1455  1037  1039    1
  1456   451   433    2
  1457  5496  5497    1
  1458  5496  5498    1
  1459  2482  2476   ar
  1460  2482  2481   ar
  1461  2505  2499   ar
  1462  2447  2445    1
  1463  1501  1502    1
  1464  5408  5426    2
  1465  5408  5427    1
  1466  1076  1054    2
  1467  1527  1526   ar
  1468  2629  2635   ar
  1469  1700  1680    2
  1470  5510  5504   ar
  1471  2649  2650   ar
  1472  1661  1662    1
  1473  2475  2476   ar
  1474  2475  2473   ar
  1475  1212  1213    1
  1476  1212  1210    1
  1477  5370  5371    1
  1478  5370  5368    1
  1479  4292  4293    1
  1480  1039  1041    1
  1481  1039  1040    1
  1482  5508  5505   ar
  1483  1664  1669    1
  1484  5335  5334    1
  1485  2567  2566    2
  1486  1041  1042    1
  1487   433   452    1
  1488   433   416    1
  1489  2651  2657   ar
  1490  2651  2650   ar
  1491  4388  4389    1
  1492  4388  4390    1
  1493  1386  1384    1
  1494  4251  4250    1
  1495  4392  4403    1
  1496  4392  4390    1
  1497  2550  2571    1
  1498  2550  2536    1
  1499  2550  2552    1
  1500  1059  1057    1
  1501  1059  1060    1
  1502  1666  1665    1
  1503  1666  1680    1
  1504  2503  2500   ar
  1505  1644  1646    1
  1506  1644  1642    1
  1507  5327  5326    1
  1508  1227  1228   ar
  1509   427   426    2
  1510  2590  2589    2
  1511  4401  4398   ar
  1512   423   424   ar
  1513  1567  1566   ar
  1514  1567  1569   ar
  1515  5497  5513    1
  1516  1517  1516    1
  1517  1517  1522    1
  1518  2523  2518   ar
  1519   426   425   ar
  1520  1079  1077    1
  1521  1079  1078    1
  1522  1649  1648    1
  1523  5334  5329   ar
  1524  5334  5333   ar
  1525  2533  2534    1
  1526  2533  2535    1
  1527  2445  2446    1
  1528  2445  2443    1
  1529  2474  2473    1
  1530  2476  2477   ar
  1531  2521  2520   ar
  1532  5329  5330   ar
  1533  5387  5388    1
  1534  4263  4249    1
  1535  4263  4282    1
  1536  4403  4397   ar
  1537  5498  5499    1
  1538  2568  2569   ar
  1539  2568  2565   ar
  1540  5321  5320    1
  1541  4389  4406    1
  1542  1669  1667    1
  1543  1669  1670    1
  1544  1667  1665    1
  1545  1646  1641    1
  1546  1646  1657    1
  1547  2657  2647    1
  1548  5362  5341    2
  1549  1056  1054    1
  1550  1056  1055    1
  1551  5350  5345    1
  1552  5350  5348    1
  1553  2454  2453    2
  1554  5367  5366    1
  1555  1549  1547   ar
  1556  1549  1550   ar
  1557  1552  1533    2
  1558  2481  2480   ar
  1559  1516  1518    1
  1560  2451  2446    1
  1561  2451  2452    1
  1562  1643  1642    1
  1563  1643  1660    1
  1564  4249  4248    1
  1565  5326  5324    1
  1566  5326  5328    1
  1567  2473  2472   ar
  1568  1077  1060    1
  1569  1077  1097    1
  1570  1523  1522    1
  1571  1523  1524   ar
  1572  5333  5336   ar
  1573  5333  5332   ar
  1574  2633  2634   ar
  1575  2536  2535    1
  1576  1640  1641    1
  1577  1640  1642    1
  1578  1640  1638    1
  1579  1650  1648   ar
  1580  1650  1651   ar
  1581  5330  5331   ar
  1582  1120  1099    2
  1583  5336  5337   ar
  1584  1547  1546   ar
  1585  1057  1055    1
  1586  5504  5505   ar
  1587  5504  5503   ar
  1588  1081  1086    1
  1589  1081  1080    1
  1590  1605  1606   ar
  1591  1605  1610   ar
  1592  5280  5279    1
  1593  1086  1084    1
  1594  5505  5506   ar
  1595  2610  2609   ar
  1596  2610  2612   ar
  1597  5388  5386    1
  1598  1210  1211    1
  1599  4391  4390    1
  1600  1197  1198   ar
  1601  1197  1202   ar
  1602  1680  1682    1
  1603  1680  1701    1
  1604  1589  1588    1
  1605  4275  4274    2
  1606  1566  1564   ar
  1607  1054  1040    1
  1608  1054  1075    1
  1609  1198  1199   ar
  1610   424   425   ar
  1611   424   430   ar
  1612  2566  2565   ar
  1613  2566  2560   ar
  1614  2499  2500   ar
  1615  2499  2498   ar
  1616  1078  1080    1
  1617  4273  4274   ar
  1618  4273  4280   ar
  1619  5332  5331   ar
  1620  5332  5338   ar
  1621  1526  1524   ar
  1622  1569  1570   ar
  1623  1681  1682    1
  1624  1681  1683    1
  1625  2635  2634   ar
  1626  2635  2625    1
  1627   425   428   ar
  1628  1648  1647   ar
  1629  5368  5366    1
  1630  5368  5369    1
  1631  2534  2539    1
  1632  4424  4406    2
  1633  1611  1610    1
  1634  1678  1660    2
  1635   418   417    1
  1636  5337  5338   ar
  1637  4293  4300   ar
  1638  4293  4294   ar
  1639  2609  2607   ar
  1640  2443  2444    1
  1641  4250  4248    1
  1642  4250  4252    1
  1643  2535  2537    1
  1644  2569  2570   ar
  1645  1662  1660    1
  1646  2552  2551    1
  1647   416   415    1
  1648   417   415    1
  1649   417   419    1
  1650  4425  4406    1
  1651  1082  1084    1
  1652  1082  1080    1
  1653  1082  1083    1
  1654  1606  1607   ar
  1655  5324  5325    1
  1656  5324  5322    1
  1657  5345  5344    1
  1658  1522  1520    1
  1659  2565  2564   ar
  1660  2500  2501   ar
  1661  1518  1519    1
  1662  1518  1520    1
  1663  4406  4408    1
  1664  4398  4397   ar
  1665  4398  4399   ar
  1666  5338  5328    1
  1667  4300  4299   ar
  1668  1084  1085    1
  1669  2589  2583   ar
  1670  2589  2588   ar
  1671  4397  4396   ar
  1672  5348  5349    1
  1673  5348  5346    1
  1674  5503  5502   ar
  1675  5295  5274    2
  1676  5296  5274    1
  1677  5320  5322    1
  1678   319   301    2
  1679  1524  1525    2
  1680  2477  2480   ar
  1681  2477  2478   ar
  1682  2453  2452   ar
  1683  2453  2455   ar
  1684  5513  5532    2
  1685  5513  5531    1
  1686  5513  5515    1
  1687  4248  4246    1
  1688  2518  2519   ar
  1689  2623  2624    1
  1690  2623  2625    1
  1691  2623  2621    1
  1692  1629  1628    2
  1693  1657  1651   ar
  1694  1657  1656   ar
  1695  1660  1679    1
  1696  1610  1609   ar
  1697  4274  4276   ar
  1698  2520  2519   ar
  1699  5279  5281    1
  1700  5279  5277    1
  1701  2452  2459   ar
  1702  1550  1543   ar
  1703   415   413    1
  1704  1651  1652   ar
  1705  5366  5364    1
  1706  1638  1639    1
  1707  1625  1624    1
  1708  5506  5507    1
  1709  5506  5501   ar
  1710  1672  1671    2
  1711  1203  1202    1
  1712  2625  2620    1
  1713  5328  5323    1
  1714  2612  2613   ar
  1715  1670  1671   ar
  1716  1670  1677   ar
  1717  1211  1209    1
  1718  1533  1551    1
  1719  1533  1519    1
  1720  1533  1535    1
  1721  4280  4279   ar
  1722  1202  1201   ar
  1723  2646  2645    1
  1724  1199  1200   ar
  1725  2647  2645    1
  1726  2647  2642    1
  1727  2472  2478   ar
  1728  5369  5386    1
  1729  4246  4247    1
  1730  4246  4244    1
  1731  2498  2496   ar
  1732   430   419    1
  1733   430   429   ar
  1734  1546  1544   ar
  1735  2444  2442    1
  1736  5341  5325    1
  1737  5341  5343    1
  1738  5341  5361    1
  1739  5276  5274    1
  1740  5276  5275    1
  1741  5274  5257    1
  1742  2547  2546   ar
  1743  2547  2540   ar
  1744   302   303    1
  1745   302   304    1
  1746   428   429   ar
  1747  4295  4294    2
  1748  2583  2584   ar
  1749  1683  1684    1
  1750  1683  1685    1
  1751  2591  2588   ar
  1752  2591  2592   ar
  1753  1099  1083    1
  1754  1099  1119    1
  1755  1099  1101    1
  1756  5386  5407    2
  1757  5386  5406    1
  1758  1520  1521    1
  1759  5322  5323    1
  1760  1588  1583   ar
  1761  1588  1587   ar
  1762  2560  2561   ar
  1763  4294  4296   ar
  1764  5346  5344    1
  1765  5346  5347    1
  1766  3715  3714    1
  1767   419   414    1
  1768  4252  4247    1
  1769  4252  4253    1
  1770  5343  5342    1
  1771  2595  2573    2
  1772  5275  5277    1
  1773  4399  4400    2
  1774  4399  4393   ar
  1775  1564  1565    2
  1776  1564  1563   ar
  1777  2645  2643    1
  1778  2588  2587   ar
  1779  5502  5501   ar
  1780  1647  1653   ar
  1781  4396  4394   ar
  1782  2546  2544   ar
  1783  1570  1563   ar
  1784  5365  5364    1
  1785  5365  5363    1
  1786  1671  1673   ar
  1787  1583  1584   ar
  1788  2478  2479    2
  1789  2607  2608    2
  1790  2607  2606   ar
  1791   320   301    1
  1792  2659  2638    2
  1793   301   303    1
  1794   301   285    1
  1795   305   304    1
  1796   305   310    1
  1797  2539  2537    1
  1798  2539  2540    1
  1799  2551  2553    1
  1800  2570  2564   ar
  1801  2570  2559    1
  1802  5529  5530   ar
  1803  5529  5527   ar
  1804  1607  1608   ar
  1805  5291  5290    2
  1806  1677  1676   ar
  1807  2455  2456   ar
  1808  5344  5342    1
  1809  2501  2502    2
  1810  2501  2495   ar
  1811  5281  5282    1
  1812  5281  5283    1
  1813  4299  4297   ar
  1814  2537  2538    1
  1815  2564  2563   ar
  1816  3673  3672    1
  1817  1684  1689    1
  1818  3696  3695    1
  1819  5528  5527    2
  1820  5292  5293   ar
  1821  5292  5289   ar
  1822  4255  4254    2
  1823  5277  5278    1
  1824  3692  3691    1
  1825   317   318   ar
  1826   317   315   ar
  1827   304   306    1
  1828  4408  4407    1
  1829  2459  2458   ar
  1830  5385  5363    2
  1831  2642  2641    1
  1832  3710  3708    1
  1833  3710  3711    1
  1834  3710  3712    1
  1835  1200  1201   ar
  1836  1200  1206   ar
  1837  1628  1630   ar
  1838  1628  1627   ar
  1839  1624  1626    1
  1840  1624  1622    1
  1841  4244  4245    1
  1842  1656  1655   ar
  1843  5515  5514    1
  1844  1201  1204   ar
  1845  5290  5289   ar
  1846  5290  5284   ar
  1847  2460  2442    2
  1848  2621  2622    1
  1849  2621  2619    1
  1850   316   315    2
  1851  1543  1544   ar
  1852  1543  1542    1
  1853  5293  5294   ar
  1854  1534  1535    1
  1855  1534  1536    1
  1856  2540  2541   ar
  1857  2431  2430    1
  1858   318   311   ar
  1859  5289  5288   ar
  1860  4276  4277   ar
  1861  1609  1608   ar
  1862  1609  1612   ar
  1863  1652  1653   ar
  1864  1652  1655   ar
  1865  5530  5523   ar
  1866  5527  5526   ar
  1867  3713  3712    1
  1868  3713  3729    1
  1869  1563  1562    1
  1870  5272  5251    2
  1871  1101  1100    1
  1872  1195  1194    1
  1873  1544  1545    2
  1874  1639  1637    1
  1875  3708  3709    1
  1876   315   314   ar
  1877  2613  2606   ar
  1878  1722  1702    2
  1879  1230  1209    2
  1880  2496  2495   ar
  1881  2496  2497    1
  1882  2554  2553    1
  1883  2554  2559    1
  1884  3747  3729    2
  1885  4279  4277   ar
  1886  1626  1627    1
  1887  1626  1621    1
  1888  2620  2619    1
  1889  1686  1685    1
  1890  1686  1702    1
  1891  5514  5516    1
  1892   413   414    1
  1893   413   411    1
  1894  1209  1231    1
  1895  1209  1193    1
  1896  2442  2461    1
  1897  2442  2425    1
  1898  4393  4394   ar
  1899  1587  1590   ar
  1900  1587  1586   ar
  1901  4394  4395    1
  1902  5284  5285   ar
  1903  1630  1631   ar
  1904  3711  3716    1
  1905  1194  1192    1
  1906  1194  1196    1
  1907  1590  1591   ar
  1908  2592  2593   ar
  1909  1608  1614   ar
  1910  5294  5288   ar
  1911  5294  5283    1
  1912  1685  1687    1
  1913  1653  1654    2
  1914  5288  5287   ar
  1915  2622  2638    1
  1916  4407  4409    1
  1917  5363  5347    1
  1918  5363  5384    1
  1919  2584  2585    1
  1920  2584  2586   ar
  1921  4296  4297   ar
  1922  2606  2605    1
  1923  2561  2563   ar
  1924  2561  2562    1
  1925   405   404    2
  1926   311   310    1
  1927   311   312   ar
  1928  4245  4243    1
  1929  4253  4254   ar
  1930  4253  4260   ar
  1931  4422  4423   ar
  1932  4422  4420   ar
  1933  2553  2555    1
  1934  5257  5256    1
  1935  3712  3714    1
  1936  5517  5516    1
  1937  5517  5522    1
  1938  3714  3716    1
  1939  1100  1102    1
  1940   343   321    2
  1941  3716  3726    1
  1942  2456  2458   ar
  1943  2456  2457    1
  1944  2427  2426    1
  1945   314   312   ar
  1946  3697  3695   ar
  1947  3697  3698   ar
  1948  2559  2557    1
  1949  4254  4256   ar
  1950  2555  2556    1
  1951  2555  2557    1
  1952  5285  5287   ar
  1953  5285  5286    1
  1954  1584  1585   ar
  1955  2587  2586   ar
  1956  2587  2593   ar
  1957  1627  1634   ar
  1958  5283  5278    1
  1959  4277  4278    1
  1960   310   308    1
  1961  1673  1674   ar
  1962  4297  4298    2
  1963  1537  1536    1
  1964  1537  1542    1
  1965  2638  2640    1
  1966  2638  2658    1
  1967  3695  3694   ar
  1968  2640  2639    1
  1969  2573  2556    1
  1970  2573  2594    1
  1971  2573  2575    1
  1972  3730  3732    1
  1973  3730  3731    1
  1974  1703  1705    1
  1975  1703  1704    1
  1976  2178  2158    2
  1977  4423  4416   ar
  1978  2544  2545    1
  1979  2544  2543   ar
  1980  4261  4243    2
  1981  1193  1192    1
  1982  1676  1674   ar
  1983  2643  2641    1
  1984  2643  2644    1
  1985  1623  1622    1
  1986  1623  1637    1
  1987   312   313    2
  1988  1206  1196    1
  1989  1206  1205   ar
  1990   285   284    1
  1991  1572  1553    2
  1992  2619  2617    1
  1993  3672  3674   ar
  1994  3672  3671   ar
  1995  1204  1205   ar
  1996  3691  3693    1
  1997  3691  3689    1
  1998  5523  5522    1
  1999  5523  5524   ar
  2000  5526  5524   ar
  2001  2418  2397    2
  2002  5273  5251    1
  2003  1689  1687    1
  2004  1689  1699    1
  2005  5252  5253    1
  2006  5252  5254    1
  2007  3693  3688    1
  2008  3693  3704    1
  2009  2641  2639    1
  2010   412   411    1
  2011   412   410    1
  2012  4410  4409    1
  2013  4410  4415    1
  2014  1658  1637    2
  2015  2425  2424    1
  2016  1612  1613   ar
  2017  1536  1538    1
  2018  1542  1540    1
  2019  4421  4420    1
  2020  2430  2432   ar
  2021  2430  2429   ar
  2022   432   410    2
  2023  3729  3731    1
  2024  3729  3748    1
  2025  1622  1620    1
  2026  5251  5253    1
  2027  5251  5234    1
  2028  1192  1190    1
  2029  1621  1620    1
  2030  1702  1704    1
  2031  1702  1723    1
  2032  5516  5518    1
  2033   306   307    1
  2034   306   308    1
  2035   404   403   ar
  2036   404   406   ar
  2037  2644  2660    1
  2038  1196  1191    1
  2039   403   401   ar
  2040  1698  1699   ar
  2041  1698  1697   ar
  2042  2541  2543   ar
  2043  2541  2542    2
  2044  1637  1659    1
  2045  2593  2582    1
  2046  4420  4419   ar
  2047  1688  1687    1
  2048  2417  2397    1
  2049  5256  5254    1
  2050  5256  5258    1
  2051  3690  3689    1
  2052  3690  3707    1
  2053  2557  2558    1
  2054  1674  1675    1
  2055  3674  3675   ar
  2056  2432  2433   ar
  2057  2426  2424    1
  2058  2426  2428    1
  2059  1705  1706    1
  2060  1705  1707    1
  2061  3688  3687    1
  2062  5522  5520    1
  2063  5524  5525    2
  2064  3709  3707    1
  2065  1562  1557    1
  2066  1562  1560    1
  2067  1586  1585   ar
  2068  1586  1592   ar
  2069  3732  3733    1
  2070  3732  3734    1
  2071  1620  1618    1
  2072   342   321    1
  2073  4409  4411    1
  2074  2575  2574    1
  2075  3687  3689    1
  2076  3687  3685    1
  2077  1538  1540    1
  2078  1538  1539    1
  2079  2618  2617    1
  2080  2618  2616    1
  2081  4260  4259   ar
  2082  3727  3707    2
  2083  1591  1592   ar
  2084  2676  2675    1
  2085  1631  1632    1
  2086  1631  1633   ar
  2087  1142  1121    2
  2088  1182  1181    1
  2089  2677  2678   ar
  2090  2677  2674   ar
  2091   307   321    1
  2092   321   323    1
  2093  3671  3677   ar
  2094  1699  1693   ar
  2095  4243  4229    1
  2096  4243  4262    1
  2097  2637  2616    2
  2098   308   309    1
  2099  1614  1613   ar
  2100  1614  1604    1
  2101  1706  1711    1
  2102  2141  2158    1
  2103  2141  2140    1
  2104  4231  4230    1
  2105  1117  1116   ar
  2106  1117  1118   ar
  2107   284   282    1
  2108   284   286    1
  2109  2678  2679   ar
  2110  5249  5228    2
  2111  4416  4415    1
  2112  4416  4417   ar
  2113  4256  4257   ar
  2114  3698  3704   ar
  2115  3698  3699   ar
  2116  2605  2603    1
  2117  2605  2600    1
  2118  2664  2669    1
  2119  2664  2663    1
  2120  1104  1102    1
  2121  1104  1106    1
  2122  1104  1105    1
  2123  1102  1103    1
  2124  2136  2138    1
  2125  2136  2137    1
  2126  2397  2381    1
  2127  2397  2399    1
  2128  3726  3720   ar
  2129  3726  3725   ar
  2130  3694  3700   ar
  2131  2675  2674   ar
  2132  2675  2670   ar
  2133   410   431    1
  2134   410   396    1
  2135  3669  3668    1
  2136  2674  2673   ar
  2137  5254  5255    1
  2138  3719  3720   ar
  2139  3719  3718   ar
  2140  2386  2387   ar
  2141  2386  2385   ar
  2142  3733  3738    1
  2143  2429  2435   ar
  2144  1557  1556    1
  2145   384   383    2
  2146  2603  2601    1
  2147  2603  2604    1
  2148  2424  2422    1
  2149   402   401    2
  2150  2615  2596    2
  2151  3704  3703   ar
  2152  1634  1633   ar
  2153  1560  1561    1
  2154  1560  1558    1
  2155  2156  2135    2
  2156  1103  1108    1
  2157  1116  1113   ar
  2158   401   400   ar
  2159  2143  2142    1
  2160  3707  3728    1
  2161  1540  1541    1
  2162  2158  2160    1
  2163  2158  2179    1
  2164  4415  4413    1
  2165  2138  2140    1
  2166  2138  2139    1
  2167  2383  2382    1
  2168  1697  1694   ar
  2169  4229  4228    1
  2170   299   279    2
  2171  2679  2673   ar
  2172  2679  2669    1
  2173   406   407   ar
  2174   287   286    1
  2175  2120  2119    1
  2176  2159  2160    1
  2177  2159  2161    1
  2178  2670  2671   ar
  2179  2673  2672   ar
  2180  1553  1555    1
  2181  1553  1539    1
  2182  1553  1571    1
  2183  5135  5134    1
  2184  1106  1108    1
  2185  1106  1107    1
  2186  4419  4417   ar
  2187  1592  1582    1
  2188  1161  1160    2
  2189  5518  5520    1
  2190  5518  5519    1
  2191  2387  2388   ar
  2192  2669  2667    1
  2193  3720  3721   ar
  2194  2385  2390   ar
  2195  1555  1554    1
  2196  5234  5233    1
  2197  2200  2180    2
  2198  3735  3734    1
  2199  3735  3749    1
  2200  1180  1181   ar
  2201  1180  1178   ar
  2202  1191  1190    1
  2203  1190  1188    1
  2204  2601  2602    1
  2205  2601  2599    1
  2206  5250  5228    1
  2207  1604  1602    1
  2208  1604  1599    1
  2209  2671  2672   ar
  2210  2616  2602    1
  2211  2616  2636    1
  2212  3685  3686    1
  2213   282   280    1
  2214   282   283    1
  2215  1105  1121    1
  2216  2661  2663    1
  2217  2661  2662    1
  2218  4417  4418    2
  2219  5258  5259    1
  2220  5258  5260    1
  2221  5548  5547    2
  2222  1181  1183   ar
  2223  3770  3749    2
  2224  1708  1707    1
  2225  1708  1724    1
  2226  2381  2380    1
  2227  2433  2439   ar
  2228  2433  2434   ar
  2229  4230  4228    1
  2230  4230  4232    1
  2231  2600  2599    1
  2232  2428  2439    1
  2233  2428  2423    1
  2234  2118  2135    1
  2235  2118  2117    1
  2236  4411  4413    1
  2237  4411  4412    1
  2238  4259  4257   ar
  2239  2582  2577    1
  2240  2582  2580    1
  2241  2140  2142    1
  2242  3675  3681   ar
  2243  3675  3676   ar
  2244  3725  3724   ar
  2245  3734  3736    1
  2246  1707  1709    1
  2247  3718  3717   ar
  2248  5269  5270   ar
  2249  5269  5266   ar
  2250  5520  5521    1
  2251  2660  2681    2
  2252  2660  2662    1
  2253  2660  2680    1
  2254   286   288    1
  2255  1602  1603    1
  2256  1602  1600    1
  2257  4257  4258    1
  2258  5270  5271   ar
  2259  1594  1573    2
  2260  2382  2380    1
  2261  2382  2384    1
  2262  5228  5230    1
  2263  5228  5212    1
  2264  1121  1143    1
  2265  1121  1123    1
  2266  2663  2665    1
  2267  1118  1108    1
  2268  1118  1112   ar
  2269  1558  1556    1
  2270  1558  1559    1
  2271  1693  1694   ar
  2272  1693  1692   ar
  2273  3668  3670    1
  2274  3668  3666    1
  2275  4441  4440    1
  2276  1618  1619    1
  2277   280   281    1
  2278  2577  2576    1
  2279  2598  2596    1
  2280  2598  2597    1
  2281   400   407   ar
  2282   400   399    1
  2283  2574  2576    1
  2284  1904  1903    1
  2285   383   377   ar
  2286   383   382   ar
  2287  3738  3736    1
  2288  3738  3739    1
  2289  3677  3676   ar
  2290  3677  3678    2
  2291  3699  3700   ar
  2292  3699  3702   ar
  2293  2399  2398    1
  2294  1711  1709    1
  2295  1711  1721    1
  2296   323   322    1
  2297   366   344    2
  2298  3700  3701    2
  2299  5255  5260    1
  2300   397   395    1
  2301   397   398    1
  2302   397   399    1
  2303  2137  2135    1
  2304  5552  5533    2
  2305  1746  1724    2
  2306  1710  1709    1
  2307  3670  3681    1
  2308  3670  3665    1
  2309  1694  1695   ar
  2310  3771  3749    1
  2311  2422  2423    1
  2312  2422  2420    1
  2313  5226  5206    2
  2314  2578  2580    1
  2315  2578  2576    1
  2316  2578  2579    1
  2317  2139  2144    1
  2318  2435  2434   ar
  2319  2435  2436    2
  2320  2142  2144    1
  2321  4228  4226    1
  2322  2135  2157    1
  2323  1556  1554    1
  2324  3749  3751    1
  2325  2439  2438   ar
  2326   396   395    1
  2327  4235  4234    2
  2328  5268  5267    2
  2329   265   279    1
  2330   265   264    1
  2331  2161  2163    1
  2332  2161  2162    1
  2333  5266  5267   ar
  2334  5266  5265   ar
  2335  5134  5133   ar
  2336  5134  5129   ar
  2337  2580  2581    1
  2338  2596  2579    1
  2339  2596  2614    1
  2340  2164  2180    1
  2341  2164  2163    1
  2342  4413  4414    1
  2343  3703  3702   ar
  2344  5271  5260    1
  2345  5271  5265   ar
  2346   267   266    1
  2347  5547  5549   ar
  2348  5547  5546   ar
  2349  4445  4426    2
  2350  2201  2180    1
  2351  5519  5533    1
  2352  1113  1112   ar
  2353  1113  1114   ar
  2354  5549  5550   ar
  2355   395   393    1
  2356  2380  2378    1
  2357  2119  2117    1
  2358  2119  2121    1
  2359  1138  1137    2
  2360  5233  5231    1
  2361  5233  5235    1
  2362  1160  1154   ar
  2363  1160  1159   ar
  2364   377   378   ar
  2365  5230  5229    1
  2366   279   281    1
  2367   279   300    1
  2368  5136  5133   ar
  2369  5136  5137   ar
  2370  2180  2182    1
  2371  1745  1724    1
  2372  2599  2597    1
  2373  5267  5261   ar
  2374  2115  2117    1
  2375  2115  2113    1
  2376  2115  2116    1
  2377  3736  3737    1
  2378  2434  2437   ar
  2379  2388  2389   ar
  2380  2388  2394   ar
  2381  1179  1178    2
  2382  1178  1177   ar
  2383  3681  3680   ar
  2384  3676  3679   ar
  2385  2390  2391    1
  2386  2390  2389   ar
  2387  2408  2407   ar
  2388  2408  2409   ar
  2389  1724  1726    1
  2390  5229  5231    1
  2391  4462  4461    1
  2392  1692  1691   ar
  2393  4412  4426    1
  2394  5265  5264   ar
  2395  1188  1189    1
  2396  3721  3724   ar
  2397  3721  3722   ar
  2398  1189  1187    1
  2399   385   382   ar
  2400   385   386   ar
  2401  1183  1184   ar
  2402  2668  2667    1
  2403  1619  1617    1
  2404   409   390    2
  2405   288   283    1
  2406   288   298    1
  2407  1720  1721   ar
  2408  1720  1719   ar
  2409  1582  1577    1
  2410  1582  1580    1
  2411  1154  1155   ar
  2412  4442  4440   ar
  2413  4442  4443   ar
  2414  1599  1598    1
  2415  2421  2420    1
  2416  2421  2419    1
  2417  2144  2155    1
  2418  4440  4439   ar
  2419   399   394    1
  2420  5133  5132   ar
  2421  3686  3684    1
  2422   382   381   ar
  2423  2667  2665    1
  2424  2398  2400    1
  2425  1721  1715   ar
  2426  1139  1140   ar
  2427  1139  1136   ar
  2428  5129  5130   ar
  2429  4232  4227    1
  2430  4232  4233    1
  2431  1115  1114    1
  2432   322   324    1
  2433  1112  1111   ar
  2434  3717  3722   ar
  2435  1123  1122    1
  2436  2440  2419    2
  2437  2697  2696    1
  2438  5261  5262   ar
  2439  3739  3746   ar
  2440  3739  3740   ar
  2441  2384  2394    1
  2442  2384  2379    1
  2443  2163  2165    1
  2444  5227  5206    1
  2445  2113  2114    1
  2446   361   360    2
  2447  1559  1573    1
  2448  5212  5211    1
  2449  2407  2412   ar
  2450  1920  1922    1
  2451  1920  1921    1
  2452  1600  1601    1
  2453  1600  1598    1
  2454  5533  5551    1
  2455  5533  5535    1
  2456  2665  2666    1
  2457  2409  2410   ar
  2458  1573  1575    1
  2459  1573  1593    1
  2460  2389  2392   ar
  2461  5264  5262   ar
  2462  3746  3745   ar
  2463  3665  3664    1
  2464  4226  4227    1
  2465  4226  4224    1
  2466  1577  1576    1
  2467  3667  3666    1
  2468  3667  3684    1
  2469  3666  3664    1
  2470  4234  4233   ar
  2471  4234  4236   ar
  2472  5206  5208    1
  2473  5206  5190    1
  2474  4426  4444    1
  2475  4426  4428    1
  2476  5546  5544   ar
  2477   262   264    1
  2478   262   260    1
  2479   262   263    1
  2480   389   367    2
  2481  5231  5232    1
  2482  5550  5543   ar
  2483  2394  2393   ar
  2484  1114  1109   ar
  2485  5137  5138   ar
  2486  2121  2116    1
  2487  2121  2132    1
  2488  1575  1574    1
  2489  5262  5263    1
  2490  1695  1696    1
  2491  1695  1690   ar
  2492  1903  1905    1
  2493  1903  1901    1
  2494  2162  2167    1
  2495   344   365    1
  2496   344   327    1
  2497   344   346    1
  2498   264   266    1
  2499  1137  1136   ar
  2500  1137  1131   ar
  2501  2438  2437   ar
  2502  3722  3723    1
  2503  1159  1162   ar
  2504  1159  1158   ar
  2505  2696  2695   ar
  2506  2696  2698   ar
  2507  5235  5236    1
  2508  5235  5237    1
  2509  1922  1923    1
  2510  1922  1924    1
  2511   392   390    1
  2512   392   391    1
  2513  1902  1901    1
  2514  1902  1919    1
  2515  2695  2693   ar
  2516  1208  1187    2
  2517  2402  2404    1
  2518  2402  2400    1
  2519  2402  2403    1
  2520   378   379    1
  2521   378   380   ar
  2522  1162  1163   ar
  2523   266   268    1
  2524  1580  1578    1
  2525  1580  1581    1
  2526  1140  1141   ar
  2527  1177  1184   ar
  2528  1177  1176    1
  2529   260   261    1
  2530  2274  2273    1
  2531   339   340   ar
  2532   339   336   ar
  2533  1136  1135   ar
  2534  4233  4240   ar
  2535  3664  3662    1
  2536  1719  1716   ar
  2537  4439  4437   ar
  2538  1691  1690   ar
  2539   386   387   ar
  2540  1937  1919    2
  2541  4443  4436   ar
  2542  3751  3750    1
  2543  2378  2379    1
  2544  2378  2376    1
  2545  1166  1144    2
  2546  2419  2403    1
  2547  2419  2441    1
  2548  5208  5207    1
  2549  1905  1900    1
  2550  1905  1916    1
  2551  3680  3679   ar
  2552   362   359   ar
  2553   362   363   ar
  2554  4212  4211    1
  2555  1601  1617    1
  2556  1598  1596    1
  2557  2698  2699   ar
  2558  4461  4460   ar
  2559  4461  4456   ar
  2560  4463  4460   ar
  2561  4463  4464   ar
  2562  3684  3705    2
  2563  3684  3706    1
  2564   393   394    1
  2565   393   391    1
  2566  5132  5138   ar
  2567  5132  5131   ar
  2568  2404  2405    1
  2569  2404  2406    1
  2570  5204  5184    2
  2571  1899  1900    1
  2572  1899  1901    1
  2573  1899  1897    1
  2574   390   408    1
  2575   390   373    1
  2576  5130  5131   ar
  2577   340   341   ar
  2578  1155  1156    1
  2579  1155  1157   ar
  2580   381   380   ar
  2581   381   387   ar
  2582  3741  3740    2
  2583  2693  2694    2
  2584  2693  2692   ar
  2585  1187  1207    1
  2586  1187  1173    1
  2587  2400  2401    1
  2588  1908  1907    1
  2589  2182  2181    1
  2590  3740  3742   ar
  2591  1923  1928    1
  2592  1715  1716   ar
  2593  1715  1714   ar
  2594  4236  4237   ar
  2595   360   359   ar
  2596   360   354   ar
  2597   298   292   ar
  2598   298   297   ar
  2599  2272  2273   ar
  2600  2272  2278   ar
  2601  1726  1725    1
  2602  2666  2682    1
  2603   263   268    1
  2604  3745  3743   ar
  2605  5543  5544   ar
  2606  5543  5542    1
  2607  5211  5209    1
  2608  5211  5213    1
  2609  1578  1576    1
  2610  1578  1579    1
  2611   291   292   ar
  2612   291   290   ar
  2613  5544  5545    2
  2614  5138  5128    1
  2615  1617  1636    2
  2616  1617  1635    1
  2617  1925  1924    1
  2618  1925  1939    1
  2619  5207  5209    1
  2620  2155  2154   ar
  2621  2155  2149   ar
  2622  5535  5534    1
  2623  1111  1110   ar
  2624  5247  5246   ar
  2625  5247  5248   ar
  2626  2166  2165    1
  2627  3750  3752    1
  2628  2699  2692   ar
  2629   327   326    1
  2630  1927  1926    1
  2631  1122  1124    1
  2632  1921  1919    1
  2633  1174  1176    1
  2634  1174  1172    1
  2635  1174  1175    1
  2636   324   326    1
  2637   324   325    1
  2638  1597  1596    1
  2639  1597  1595    1
  2640  2392  2393   ar
  2641  2692  2691    1
  2642  1909  1907   ar
  2643  1909  1910   ar
  2644  2165  2167    1
  2645  2221  2202    2
  2646   346   345    1
  2647  5232  5237    1
  2648  5127  5126    1
  2649  5683  5682    1
  2650  1616  1595    2
  2651  2133  2112    2
  2652  5246  5243   ar
  2653   326   328    1
  2654   268   269    1
  2655  2125  2123   ar
  2656  2125  2126   ar
  2657   338   337    2
  2658  4224  4225    1
  2659  2181  2183    1
  2660  4460  4459   ar
  2661  4428  4427    1
  2662  2279  2278    2
  2663  1576  1574    1
  2664  5140  5119    2
  2665  2412  2413    1
  2666  2412  2411   ar
  2667  2114  2112    1
  2668  1960  1939    2
  2669  5678  5676    1
  2670  5678  5679    1
  2671  5678  5680    1
  2672  2410  2411   ar
  2673  2410  2416   ar
  2674  5190  5189    1
  2675   359   358   ar
  2676  1919  1938    1
  2677  2124  2123    1
  2678  5663  5662    1
  2679  2273  2275   ar
  2680   388   367    1
  2681   387   376    1
  2682  1716  1717   ar
  2683  2167  2177    1
  2684  1131  1132   ar
  2685   367   369    1
  2686   367   350    1
  2687  1714  1713   ar
  2688  5716  5695    2
  2689  5681  5680    1
  2690  5681  5695    1
  2691  5237  5248    1
  2692  1884  1883    1
  2693  6696  6695    1
  2694  1109  1110   ar
  2695  5248  5242   ar
  2696   363   364   ar
  2697  1158  1157   ar
  2698  1158  1164   ar
  2699  5676  5677    1
  2700  1924  1926    1
  2701   368   369    1
  2702   368   370    1
  2703  1725  1727    1
  2704  5126  5128    1
  2705  5126  5124    1
  2706  4456  4457   ar
  2707  4437  4436   ar
  2708  4437  4438    2
  2709  4436  4435    1
  2710  2132  2126   ar
  2711  2132  2131   ar
  2712   292   293   ar
  2713  1176  1171    1
  2714  5537  5542    1
  2715  5537  5536    1
  2716  1163  1164   ar
  2717  1172  1173    1
  2718  1172  1170    1
  2719  1897  1898    1
  2720   336   337   ar
  2721   336   335   ar
  2722  2691  2686    1
  2723  2691  2689    1
  2724  1907  1906   ar
  2725  2376  2377    1
  2726  5243  5242   ar
  2727  5243  5244   ar
  2728  2278  2277   ar
  2729  2154  2153   ar
  2730  4240  4239   ar
  2731  1141  1135   ar
  2732  1141  1130    1
  2733  4464  4465   ar
  2734   261   259    1
  2735  1928  1926    1
  2736  1928  1929    1
  2737   325   330    1
  2738  1135  1134   ar
  2739   372   373    1
  2740   372   370    1
  2741   372   374    1
  2742  5209  5210    1
  2743  5679  5684    1
  2744  5205  5184    1
  2745  2401  2406    1
  2746   354   355   ar
  2747  5242  5241   ar
  2748  4211  4210   ar
  2749  4211  4213   ar
  2750  2686  2685    1
  2751  5245  5244    2
  2752   297   296   ar
  2753  4225  4223    1
  2754  5185  5186    1
  2755  5185  5187    1
  2756   337   331   ar
  2757  2148  2149   ar
  2758  2148  2146   ar
  2759  3742  3743   ar
  2760  1743  1742   ar
  2761  1743  1744   ar
  2762  2100  2099    1
  2763   277   259    2
  2764   244   243    1
  2765  5184  5186    1
  2766  5184  5167    1
  2767  1916  1910   ar
  2768  1916  1915   ar
  2769   290   289   ar
  2770  2123  2122   ar
  2771  1742  1739   ar
  2772  5568  5567    1
  2773  5244  5238   ar
  2774  2406  2416    1
  2775  2126  2127   ar
  2776  5542  5540    1
  2777   341   335   ar
  2778   341   330    1
  2779  2411  2414   ar
  2780  3662  3663    1
  2781  1595  1579    1
  2782  1595  1615    1
  2783  1186  1167    2
  2784  5693  5675    2
  2785  4237  4239   ar
  2786  4237  4238    2
  2787  5680  5682    1
  2788  3743  3744    2
  2789  2149  2150   ar
  2790  1144  1165    1
  2791  1144  1127    1
  2792  1144  1146    1
  2793  5128  5123    1
  2794  1910  1911   ar
  2795  2377  2375    1
  2796  2112  2098    1
  2797  2112  2134    1
  2798  5534  5536    1
  2799  1126  1124    1
  2800  1126  1127    1
  2801  1126  1128    1
  2802  1939  1941    1
  2803  1939  1961    1
  2804  5213  5214    1
  2805  5213  5215    1
  2806  1125  1124    1
  2807  1125  1130    1
  2808  4430  4435    1
  2809  4430  4429    1
  2810  2220  2202    1
  2811  6704  6705   ar
  2812  6704  6702   ar
  2813  2416  2415   ar
  2814  1728  1727    1
  2815  1728  1733    1
  2816  6705  6698   ar
  2817  6695  6697    1
  2818  6695  6693    1
  2819  5121  5119    1
  2820  5121  5120    1
  2821  5682  5684    1
  2822  1888  1887    2
  2823  4427  4429    1
  2824  5241  5239   ar
  2825  1164  1153    1
  2826  4210  4216   ar
  2827  2202  2186    1
  2828  2202  2204    1
  2829  5189  5187    1
  2830  5189  5191    1
  2831  5119  5139    1
  2832  5119  5102    1
  2833   271   270    2
  2834  5120  5122    1
  2835  5182  5161    2
  2836  5684  5685    1
  2837  1940  1941    1
  2838  1940  1942    1
  2839  5238  5239   ar
  2840  2275  2276   ar
  2841   370   371    1
  2842   374   376    1
  2843   374   375    1
  2844  5696  5697    1
  2845  5696  5698    1
  2846  5695  5697    1
  2847  5695  5717    1
  2848  2717  2716    1
  2849  5091  5090    2
  2850  6703  6702    1
  2851   358   364   ar
  2852   358   357   ar
  2853  1169  1167    1
  2854  1169  1168    1
  2855  4213  4214   ar
  2856  6702  6701   ar
  2857  2682  2701    2
  2858  2682  2684    1
  2859  2682  2700    1
  2860  5088  5087    2
  2861  5089  5090   ar
  2862  5089  5087   ar
  2863  2177  2176   ar
  2864  2177  2171   ar
  2865  2176  2175   ar
  2866   345   347    1
  2867  1713  1712   ar
  2868   335   334   ar
  2869  3752  3753    1
  2870  3752  3754    1
  2871  5239  5240    1
  2872  1717  1712   ar
  2873  1717  1718    1
  2874  6698  6697    1
  2875  6698  6699   ar
  2876   350   349    1
  2877  1132  1134   ar
  2878  1132  1133    1
  2879  4459  4465   ar
  2880  4459  4458   ar
  2881   364   353    1
  2882   349   347    1
  2883   349   351    1
  2884   330   328    1
  2885  5661  5675    1
  2886  5661  5660    1
  2887   376   371    1
  2888   328   329    1
  2889  6697  6692    1
  2890  4435  4433    1
  2891  2098  2097    1
  2892  1171  1170    1
  2893  2131  2130   ar
  2894   259   242    1
  2895   259   278    1
  2896   269   270   ar
  2897   269   276   ar
  2898  3753  3758    1
  2899  2684  2683    1
  2900  3663  3661    1
  2901  2183  2185    1
  2902  2183  2184    1
  2903  1727  1729    1
  2904  5536  5538    1
  2905  5159  5141    2
  2906  5124  5122    1
  2907  5124  5125    1
  2908  3768  3767   ar
  2909  3768  3769   ar
  2910  1883  1885    1
  2911  1883  1881    1
  2912  5662  5664    1
  2913  5662  5660    1
  2914   242   241    1
  2915  1130  1128    1
  2916  5187  5188    1
  2917  2364  2363    1
  2918  3767  3764   ar
  2919  4457  4458   ar
  2920  6701  6699   ar
  2921  4068  4048    2
  2922  2186  2185    1
  2923  2257  2256    2
  2924   293   296   ar
  2925   293   294   ar
  2926  6699  6700    2
  2927  5677  5675    1
  2928  2099  2097    1
  2929  2099  2101    1
  2930  4465  4455    1
  2931  2277  2276   ar
  2932  2277  2280   ar
  2933  1146  1145    1
  2934  1170  1168    1
  2935  5123  5122    1
  2936  2689  2690    1
  2937  2689  2687    1
  2938  2716  2715   ar
  2939  2716  2718   ar
  2940  4208  4207    1
  2941  1906  1912   ar
  2942  3792  3772    2
  2943   355   357   ar
  2944   355   356    1
  2945  5210  5215    1
  2946  2153  2150   ar
  2947  1898  1896    1
  2948  3793  3772    1
  2949  5090  5092   ar
  2950  4241  4223    2
  2951  5087  5086   ar
  2952  1929  1936   ar
  2953  1929  1930   ar
  2954  1744  1733    1
  2955  1744  1738   ar
  2956  2715  2713   ar
  2957  4429  4431    1
  2958  2146  2147    1
  2959  2146  2145   ar
  2960  1167  1185    1
  2961  1167  1150    1
  2962  1128  1129    1
  2963  5567  5569   ar
  2964  5567  5566   ar
  2965  5224  5223   ar
  2966  5224  5225   ar
  2967   243   241    1
  2968   243   245    1
  2969   248   247    1
  2970  5675  5694    1
  2971   331   332   ar
  2972  5167  5166    1
  2973  2276  2282   ar
  2974   270   272   ar
  2975  5667  5666    2
  2976  5698  5699    1
  2977  5698  5700    1
  2978  1915  1914   ar
  2979  2185  2187    1
  2980  1739  1740   ar
  2981  1739  1738   ar
  2982  4223  4242    1
  2983  4223  4206    1
  2984   289   294   ar
  2985  2150  2151   ar
  2986  5664  5659    1
  2987  5664  5665    1
  2988  5215  5225    1
  2989  2685  2683    1
  2990  2685  2687    1
  2991  1882  1881    1
  2992  1882  1896    1
  2993   347   348    1
  2994  5658  5660    1
  2995  5658  5659    1
  2996  5658  5656    1
  2997  2122  2128   ar
  2998  5223  5220   ar
  2999  2414  2415   ar
  3000  1733  1731    1
  3001  2127  2130   ar
  3002  2127  2128   ar
  3003  1741  1740    2
  3004  2198  2197   ar
  3005  2198  2199   ar
  3006  2217  2216    2
  3007  2718  2719   ar
  3008  1885  1886    1
  3009  1885  1880    1
  3010  3754  3755    1
  3011  3754  3756    1
  3012  5225  5219   ar
  3013  5540  5538    1
  3014  5540  5541    1
  3015  6669  6670    1
  3016  6669  6671    1
  3017  1936  1935   ar
  3018  1942  1943    1
  3019  1942  1944    1
  3020  6670  6668    1
  3021   351   353    1
  3022   351   352    1
  3023   276   275   ar
  3024  1911  1912   ar
  3025  1911  1914   ar
  3026  2097  2095    1
  3027  1887  1886   ar
  3028  1887  1889   ar
  3029  4207  4209    1
  3030  4207  4205    1
  3031  5538  5539    1
  3032  4216  4217    2
  3033  4216  4215   ar
  3034  2184  2189    1
  3035  1149  1151    1
  3036  1149  1150    1
  3037  1149  1147    1
  3038  2713  2714    2
  3039  2713  2712   ar
  3040  5569  5570   ar
  3041  1931  1930    2
  3042  2104  2103    2
  3043  5699  5704    1
  3044  2197  2194   ar
  3045   348   353    1
  3046  3772  3755    1
  3047  3772  3774    1
  3048  5191  5192    1
  3049  5191  5193    1
  3050  6671  6672    1
  3051  6671  6673    1
  3052  6693  6694    1
  3053  6693  6691    1
  3054  4431  4433    1
  3055  4431  4432    1
  3056  1153  1151    1
  3057  1153  1148    1
  3058  4214  4215   ar
  3059  4214  4220   ar
  3060  2375  2395    2
  3061  2375  2358    1
  3062  2375  2396    1
  3063  2218  2216   ar
  3064  2218  2219   ar
  3065  1151  1152    1
  3066   294   295    1
  3067  5183  5161    1
  3068  5102  5101    1
  3069   241   239    1
  3070  2204  2203    1
  3071  5161  5163    1
  3072  5161  5147    1
  3073   334   332   ar
  3074  5566  5564   ar
  3075  5588  5587    2
  3076  2175  2172   ar
  3077  6694  6708    1
  3078  1881  1879    1
  3079  5125  5141    1
  3080  1917  1896    2
  3081  3769  3758    1
  3082  3769  3763   ar
  3083  5685  5692   ar
  3084  5685  5686   ar
  3085  1740  1734   ar
  3086  6672  6677    1
  3087  1729  1731    1
  3088  1729  1730    1
  3089  1943  1948    1
  3090  5220  5219   ar
  3091  5220  5221   ar
  3092  2171  2170   ar
  3093  2171  2172   ar
  3094  2280  2281   ar
  3095  1738  1737   ar
  3096  4433  4434    1
  3097  2719  2712   ar
  3098  1930  1932   ar
  3099  5219  5218   ar
  3100  6692  6691    1
  3101  5687  5686    2
  3102  2101  2096    1
  3103  2101  2102    1
  3104  6730  6708    2
  3105  2687  2688    1
  3106   249   247   ar
  3107   249   250   ar
  3108  3758  3756    1
  3109  6687  6668    2
  3110  2095  2096    1
  3111  2095  2093    1
  3112  2358  2357    1
  3113  2363  2365   ar
  3114  2363  2362   ar
  3115  2712  2711    1
  3116  3764  3765   ar
  3117  3764  3763   ar
  3118   332   333    1
  3119  1912  1913    2
  3120  5141  5143    1
  3121  5141  5160    1
  3122  2256  2255   ar
  3123  2256  2258   ar
  3124  1145  1147    1
  3125  4450  4455    1
  3126  4450  4449    1
  3127  1896  1918    1
  3128  5086  5093   ar
  3129  5086  5085    1
  3130   247   246   ar
  3131  2216  2215   ar
  3132  2128  2129    2
  3133  3766  3765    2
  3134  5188  5193    1
  3135  4206  4205    1
  3136  4090  4070    2
  3137  5092  5093   ar
  3138  1148  1147    1
  3139  4467  4446    2
  3140  4455  4453    1
  3141  2365  2366   ar
  3142  1886  1893   ar
  3143  4215  4218   ar
  3144  1889  1890   ar
  3145   245   240    1
  3146   245   256    1
  3147  4048  4032    1
  3148  4048  4069    1
  3149  4048  4050    1
  3150  5608  5607    2
  3151  5222  5221    1
  3152  3661  3647    1
  3153  3661  3683    2
  3154  3661  3682    1
  3155  5221  5216   ar
  3156  1879  1880    1
  3157  1879  1877    1
  3158  5666  5665   ar
  3159  5666  5668   ar
  3160  2145  2151   ar
  3161  5166  5164    1
  3162  5166  5168    1
  3163  2170  2169   ar
  3164  5218  5217   ar
  3165   239   240    1
  3166   239   237    1
  3167  4209  4220    1
  3168  4209  4204    1
  3169  2282  2281   ar
  3170  2282  2271    1
  3171  5701  5700    1
  3172  5701  5718    1
  3173  3647  3646    1
  3174  6725  6724    2
  3175  5692  5691   ar
  3176  5656  5657    1
  3177  5572  5553    2
  3178  5163  5162    1
  3179  5665  5672   ar
  3180  4032  4031    1
  3181  6726  6727   ar
  3182  6726  6723   ar
  3183  5686  5688   ar
  3184   272   273   ar
  3185  2151  2152    2
  3186  5700  5702    1
  3187  4091  4070    1
  3188  3649  3648    1
  3189  5162  5164    1
  3190  2711  2706    1
  3191  2711  2709    1
  3192  2199  2189    1
  3193  2199  2193   ar
  3194  4220  4219   ar
  3195  1731  1732    1
  3196  3765  3759   ar
  3197  2219  2212   ar
  3198  1769  1747    2
  3199  2172  2173   ar
  3200  2241  2222    2
  3201  6668  6686    1
  3202  6668  6654    1
  3203  3756  3757    1
  3204  3763  3762   ar
  3205  4205  4203    1
  3206  2237  2236    1
  3207  2706  2705    1
  3208  6656  6655    1
  3209  6691  6689    1
  3210  6674  6673    1
  3211  6674  6688    1
  3212  2255  2253   ar
  3213  2103  2102   ar
  3214  2103  2105   ar
  3215  5739  5718    2
  3216  5193  5203    1
  3217  1935  1933   ar
  3218  5143  5142    1
  3219  5570  5563   ar
  3220  2189  2187    1
  3221  1945  1944    1
  3222  1945  1962    1
  3223  5085  5080    1
  3224  5085  5083    1
  3225  2187  2188    1
  3226  4447  4449    1
  3227  4447  4448    1
  3228  5217  5216   ar
  3229  5587  5586   ar
  3230  5587  5589   ar
  3231  2269  2270    1
  3232  2269  2271    1
  3233  2269  2267    1
  3234  5202  5203   ar
  3235  5202  5201   ar
  3236  5703  5702    1
  3237  4049  4050    1
  3238  4049  4051    1
  3239  1730  1747    1
  3240  6708  6710    1
  3241  6708  6729    1
  3242  2305  2285    2
  3243   275   273   ar
  3244  1944  1946    1
  3245  5704  5702    1
  3246  5704  5715    1
  3247  4432  4446    1
  3248  5147  5146    1
  3249  2258  2259   ar
  3250  6673  6675    1
  3251  5539  5553    1
  3252  5564  5563   ar
  3253  5564  5565    2
  3254  1764  1763    2
  3255  2093  2094    1
  3256  2203  2205    1
  3257  2362  2368   ar
  3258  2102  2109   ar
  3259  5586  5584   ar
  3260  2356  2355    1
  3261  2356  2361    1
  3262  5101  5103    1
  3263  5101  5099    1
  3264  2194  2193   ar
  3265  2194  2195   ar
  3266  5203  5197   ar
  3267  4070  4054    1
  3268  4070  4072    1
  3269  5080  5079    1
  3270  5164  5165    1
  3271  6727  6728   ar
  3272  5104  5103    1
  3273   250   256   ar
  3274   250   251   ar
  3275  4046  4026    2
  3276  1734  1735   ar
  3277  6710  6709    1
  3278  2271  2266    1
  3279  4449  4451    1
  3280  4451  4453    1
  3281  4451  4452    1
  3282  1737  1735   ar
  3283  4453  4454    1
  3284  1932  1933   ar
  3285  2355  2357    1
  3286  2355  2353    1
  3287  5201  5198   ar
  3288  6677  6678    1
  3289  6677  6675    1
  3290  2737  2736    2
  3291  3774  3773    1
  3292  2688  2702    1
  3293   256   255   ar
  3294  1948  1946    1
  3295  1948  1959    1
  3296  6706  6688    2
  3297  6724  6723   ar
  3298  6724  6718   ar
  3299  2361  2372    1
  3300  2361  2359    1
  3301  5606  5607   ar
  3302  5606  5604   ar
  3303  4054  4053    1
  3304   246   252   ar
  3305  5607  5609   ar
  3306  4446  4448    1
  3307  4446  4466    1
  3308  2306  2285    1
  3309   273   274    1
  3310  5718  5740    1
  3311  5718  5720    1
  3312  4027  4029    1
  3313  4027  4028    1
  3314  1947  1946    1
  3315  3646  3648    1
  3316  3646  3644    1
  3317  2357  2359    1
  3318  6723  6722   ar
  3319  5168  5169    1
  3320  5168  5170    1
  3321  1765  1766   ar
  3322  1765  1762   ar
  3323  5563  5562    1
  3324  5668  5669   ar
  3325  2196  2195    1
  3326  4218  4219   ar
  3327  5103  5105    1
  3328   237   238    1
  3329  4188  4189   ar
  3330  4188  4193   ar
  3331  2366  2372   ar
  3332  2366  2367   ar
  3333  6690  6688    1
  3334  6690  6689    1
  3335  2215  2213   ar
  3336  6685  6678   ar
  3337  6685  6684   ar
  3338  1868  1867    2
  3339   225   224    1
  3340  3648  3650    1
  3341  4029  4031    1
  3342  4029  4030    1
  3343  5553  5555    1
  3344  5553  5571    1
  3345  1890  1891    1
  3346  1890  1892   ar
  3347  1747  1768    1
  3348  1747  1749    1
  3349  4203  4204    1
  3350  4203  4201    1
  3351  1893  1892   ar
  3352  2193  2192   ar
  3353  2735  2736   ar
  3354  2735  2733   ar
  3355  1933  1934    2
  3356  5691  5689   ar
  3357  5197  5198   ar
  3358  5197  5196   ar
  3359  6654  6653    1
  3360  6655  6653    1
  3361  6655  6657    1
  3362  2736  2738   ar
  3363  5672  5671   ar
  3364  2105  2106   ar
  3365  6688  6707    1
  3366  5657  5655    1
  3367  1877  1878    1
  3368  1735  1736    1
  3369  2169  2168   ar
  3370  1958  1959   ar
  3371  1958  1957   ar
  3372  2238  2236   ar
  3373  2238  2239   ar
  3374  5198  5199   ar
  3375  2285  2268    1
  3376  2285  2287    1
  3377  5589  5590   ar
  3378  4034  4033    1
  3379  4031  4033    1
  3380  5714  5715   ar
  3381  5714  5713   ar
  3382  2236  2235   ar
  3383  5688  5689   ar
  3384  6678  6679   ar
  3385  4051  4053    1
  3386  4051  4052    1
  3387  7976  7955    2
  3388  3762  3760   ar
  3389  3659  3641    2
  3390  1983  1962    2
  3391  4189  4190   ar
  3392  3759  3760   ar
  3393  5099  5097    1
  3394  5099  5100    1
  3395  5715  5709   ar
  3396  2195  2190   ar
  3397  2267  2268    1
  3398  2267  2265    1
  3399  7953  7935    2
  3400  2360  2359    1
  3401  2734  2733    2
  3402  5084  5083    1
  3403  2212  2213   ar
  3404  2212  2211    1
  3405  2709  2710    1
  3406  2709  2707    1
  3407  1959  1953   ar
  3408  4194  4193    1
  3409  2253  2254    2
  3410  2253  2252   ar
  3411  6675  6676    1
  3412  1763  1762   ar
  3413  1763  1757   ar
  3414  2705  2703    1
  3415  2705  2707    1
  3416  2372  2371   ar
  3417  5584  5585    2
  3418  5584  5583   ar
  3419  2173  2168   ar
  3420  2173  2174    1
  3421  3773  3775    1
  3422  2222  2240    1
  3423  2222  2208    1
  3424  2222  2224    1
  3425  5097  5098    1
  3426  6684  6682   ar
  3427  2733  2732   ar
  3428  5196  5195   ar
  3429  5146  5144    1
  3430  5146  5148    1
  3431  2094  2092    1
  3432  4452  4468    1
  3433  5083  5081    1
  3434  5142  5144    1
  3435  2207  2205    1
  3436  2207  2208    1
  3437  2207  2209    1
  3438  1962  1984    1
  3439  1962  1964    1
  3440  1766  1767   ar
  3441  2081  2080   ar
  3442  2081  2082   ar
  3443  2259  2252   ar
  3444  2205  2206    1
  3445  4053  4055    1
  3446  5082  5081    1
  3447  5082  5096    1
  3448  5605  5604    2
  3449  5079  5081    1
  3450  5079  5077    1
  3451  2109  2108   ar
  3452  6728  6722   ar
  3453  6728  6717    1
  3454  1762  1761   ar
  3455  6653  6651    1
  3456  2368  2367   ar
  3457  2368  2369    2
  3458  4150  4149    1
  3459  4193  4192   ar
  3460  4028  4026    1
  3461   251   252   ar
  3462   251   254   ar
  3463  5604  5603   ar
  3464  5673  5655    2
  3465  6712  6717    1
  3466  6712  6711    1
  3467  2721  2702    2
  3468  2738  2739   ar
  3469  2206  2211    1
  3470  6718  6719   ar
  3471  2704  2703    1
  3472  2704  2702    1
  3473  5199  5200    1
  3474  5199  5194   ar
  3475  5689  5690    1
  3476  3760  3761    1
  3477  2353  2354    1
  3478  1864  1863    1
  3479  4501  4502   ar
  3480  4501  4500   ar
  3481  1787  1786    2
  3482  6722  6721   ar
  3483  5165  5170    1
  3484   252   253    2
  3485  5555  5554    1
  3486  2213  2214    2
  3487  4026  4012    1
  3488  4026  4047    1
  3489  2702  2720    1
  3490  6709  6711    1
  3491  4072  4071    1
  3492  2266  2265    1
  3493   238   236    1
  3494  2367  2370   ar
  3495  5609  5610   ar
  3496   255   254   ar
  3497  4033  4035    1
  3498  5557  5562    1
  3499  5557  5556    1
  3500  2080  2085   ar
  3501  1957  1954   ar
  3502  5144  5145    1
  3503  5562  5560    1
  3504  5669  5671   ar
  3505  5669  5670    1
  3506  5195  5194   ar
  3507  5170  5181    1
  3508  7933  7915    2
  3509  1867  1869   ar
  3510  1867  1866   ar
  3511  1878  1876    1
  3512  2732  2739   ar
  3513  2732  2731    1
  3514  6679  6680    2
  3515  6679  6681   ar
  3516  3660  3641    1
  3517  4502  4503   ar
  3518  6660  6659    2
  3519  5098  5096    1
  3520  2252  2251    1
  3521  5643  5642    1
  3522  2082  2083   ar
  3523  3644  3642    1
  3524  3644  3645    1
  3525  3643  3641    1
  3526  3643  3642    1
  3527  4500  4505   ar
  3528  1749  1748    1
  3529   224   223   ar
  3530   224   226   ar
  3531  5590  5583   ar
  3532  6659  6661   ar
  3533  6659  6658   ar
  3534  6661  6662   ar
  3535  5720  5719    1
  3536  3641  3625    1
  3537  1869  1870   ar
  3538  4030  4035    1
  3539  4172  4171    1
  3540  2707  2708    1
  3541  7977  7955    1
  3542  5713  5710   ar
  3543  4190  4191   ar
  3544  6663  6662    2
  3545  4012  4011    1
  3546  2239  2232   ar
  3547  6662  6664   ar
  3548  6657  6658    1
  3549  6657  6652    1
  3550  6658  6665   ar
  3551  2211  2209    1
  3552  3650  3645    1
  3553  3650  3651    1
  3554  2261  2242    2
  3555  2235  2233   ar
  3556  2192  2191   ar
  3557  5583  5582    1
  3558  5655  5641    1
  3559  5655  5674    1
  3560  5105  5100    1
  3561  5105  5116    1
  3562  2106  2108   ar
  3563  2106  2107    2
  3564  4113  4092    2
  3565  6682  6681   ar
  3566  6682  6683    2
  3567  3776  3775    1
  3568  3776  3781    1
  3569  4071  4073    1
  3570  4112  4092    1
  3571  4201  4202    1
  3572  6664  6665   ar
  3573  5181  5180   ar
  3574  5181  5175   ar
  3575  5180  5179   ar
  3576  7955  7957    1
  3577  7955  7941    1
  3578  1863  1865    1
  3579  1863  1861    1
  3580  2110  2092    2
  3581  2224  2223    1
  3582  4052  4057    1
  3583  5719  5721    1
  3584  2265  2263    1
  3585  6717  6715    1
  3586  3775  3777    1
  3587  5709  5708   ar
  3588  5709  5710   ar
  3589  1953  1954   ar
  3590  1953  1952   ar
  3591  1757  1758   ar
  3592  2287  2286    1
  3593  6711  6713    1
  3594  2078  2077    1
  3595  2731  2726    1
  3596  2731  2729    1
  3597  2190  2191   ar
  3598  4144  4149   ar
  3599  4144  4145   ar
  3600  2209  2210    1
  3601  5077  5078    1
  3602  4524  4523    1
  3603   223   229   ar
  3604  5641  5640    1
  3605  7935  7954    1
  3606  7935  7921    1
  3607  7935  7937    1
  3608  5118  5096    2
  3609  5148  5149    1
  3610  5148  5150    1
  3611  4149  4148   ar
  3612  2284  2262    2
  3613  1964  1963    1
  3614  2371  2370   ar
  3615  5554  5556    1
  3616  5096  5117    1
  3617  6667  6648    2
  3618  6719  6721   ar
  3619  6719  6720    1
  3620  2092  2111    1
  3621  2092  2076    1
  3622  1767  1761   ar
  3623  1767  1756    1
  3624  4470  4468    1
  3625  4470  4469    1
  3626  4192  4191   ar
  3627  4192  4195   ar
  3628  2264  2263    1
  3629  2264  2262    1
  3630  2328  2307    2
  3631  5603  5610   ar
  3632  5603  5602    1
  3633   226   227   ar
  3634  5078  5076    1
  3635  4035  4045    1
  3636  1761  1760   ar
  3637  5179  5176   ar
  3638  4503  4504   ar
  3639  4503  4509   ar
  3640  1954  1955   ar
  3641  5175  5174   ar
  3642  5175  5176   ar
  3643   257   236    2
  3644  4505  4506    1
  3645  4505  4504   ar
  3646  4014  4013    1
  3647  4202  4200    1
  3648  4468  4488    2
  3649  4468  4489    1
  3650  4055  4056    1
  3651  4055  4057    1
  3652  2354  2352    1
  3653  1865  1866    1
  3654  1865  1860    1
  3655  5708  5706   ar
  3656  4191  4197   ar
  3657  2726  2725    1
  3658  1786  1780   ar
  3659  1786  1785   ar
  3660  4498  4497    1
  3661  3651  3658   ar
  3662  3651  3652   ar
  3663  1808  1807    2
  3664  5174  5172   ar
  3665  4092  4076    1
  3666  4092  4094    1
  3667   221   220    1
  3668  6746  6745    1
  3669  1952  1950   ar
  3670  3658  3657   ar
  3671  4469  4471    1
  3672  5710  5711   ar
  3673  5556  5558    1
  3674  5116  5115   ar
  3675  5116  5110   ar
  3676  6651  6652    1
  3677  6651  6649    1
  3678  1866  1873   ar
  3679  2301  2300    1
  3680  5176  5177   ar
  3681  2077  2079    1
  3682  2077  2075    1
  3683  7936  7937    1
  3684  7936  7938    1
  3685  4499  4509    1
  3686  4499  4497    1
  3687  4499  4494    1
  3688  2754  2753    2
  3689   236   219    1
  3690   236   258    1
  3691  2085  2086    1
  3692  2085  2084   ar
  3693  5640  5642    1
  3694  5640  5638    1
  3695  6666  6648    1
  3696  7956  7957    1
  3697  7956  7958    1
  3698  5642  5644    1
  3699  2755  2753   ar
  3700  2755  2756   ar
  3701  7921  7920    1
  3702  1751  1756    1
  3703  1751  1750    1
  3704  4523  4525   ar
  3705  4523  4522   ar
  3706  1748  1750    1
  3707  2373  2352    2
  3708  2286  2288    1
  3709  4504  4507   ar
  3710  5560  5558    1
  3711  5560  5561    1
  3712  2757  2756    2
  3713  4171  4166   ar
  3714  4171  4170   ar
  3715  7941  7940    1
  3716  2083  2084   ar
  3717  2083  2089   ar
  3718  5109  5110   ar
  3719  5109  5107   ar
  3720  4509  4508   ar
  3721  7915  7934    1
  3722  7915  7899    1
  3723  7915  7917    1
  3724  4525  4526   ar
  3725  5145  5150    1
  3726  1870  1871    1
  3727  1870  1872   ar
  3728  4166  4167   ar
  3729  2232  2233   ar
  3730  2232  2231    1
  3731  4076  4075    1
  3732  4520  4519    1
  3733  5582  5577    1
  3734  5582  5580    1
  3735  2233  2234    2
  3736  2249  2251    1
  3737  2249  2247    1
  3738  2249  2250    1
  3739  1862  1876    1
  3740  1862  1861    1
  3741  2251  2246    1
  3742  2708  2722    1
  3743  2753  2752   ar
  3744  1788  1785   ar
  3745  1788  1789   ar
  3746  5172  5173    1
  3747  5172  5171   ar
  3748  4057  4067    1
  3749  1876  1894    2
  3750  1876  1895    1
  3751  7916  7917    1
  3752  7916  7918    1
  3753  5721  5722    1
  3754  5721  5723    1
  3755  5722  5727    1
  3756  2756  2758   ar
  3757  4011  4013    1
  3758  4011  4009    1
  3759  5115  5114   ar
  3760   219   218    1
  3761  5558  5559    1
  3762  3653  3652    2
  3763  3781  3791    1
  3764  3781  3779    1
  3765  4145  4146   ar
  3766  5110  5111   ar
  3767  7998  7978    2
  3768  2262  2248    1
  3769  2262  2283    1
  3770  3652  3654   ar
  3771   220   218    1
  3772   220   222    1
  3773  1861  1859    1
  3774  4066  4067   ar
  3775  4066  4065   ar
  3776  5177  5171   ar
  3777  5177  5178    2
  3778  2730  2729    1
  3779  1758  1760   ar
  3780  1758  1759    1
  3781  6648  6650    1
  3782  6648  6631    1
  3783  3625  3624    1
  3784  4497  4495    1
  3785  1780  1781   ar
  3786  3790  3791   ar
  3787  3790  3789   ar
  3788  4522  4528   ar
  3789  4073  4075    1
  3790  4073  4074    1
  3791  3657  3655   ar
  3792  1963  1965    1
  3793  2242  2244    1
  3794  2242  2260    1
  3795  2242  2228    1
  3796  2247  2248    1
  3797  2247  2245    1
  3798  4148  4151   ar
  3799  4148  4147   ar
  3800  6715  6713    1
  3801  6715  6716    1
  3802  2729  2727    1
  3803  4195  4196   ar
  3804  1756  1754    1
  3805  5150  5151    1
  3806  5108  5107    1
  3807  2076  2075    1
  3808  1785  1784   ar
  3809  4075  4077    1
  3810  2223  2225    1
  3811  4013  4015    1
  3812   229   230    2
  3813   229   228   ar
  3814  2302  2299   ar
  3815  2302  2303   ar
  3816  4494  4493    1
  3817  5095  5076    2
  3818  2350  2329    2
  3819  2244  2243    1
  3820  4186  4185    1
  3821  3777  3778    1
  3822  3777  3779    1
  3823  2084  2087   ar
  3824  6713  6714    1
  3825  5107  5106   ar
  3826  5602  5597    1
  3827  5602  5600    1
  3828  6745  6747   ar
  3829  6745  6744   ar
  3830  2300  2299   ar
  3831  2300  2295   ar
  3832  7899  7898    1
  3833  5158  5151   ar
  3834  5158  5157   ar
  3835  2079  2089    1
  3836  2079  2074    1
  3837  5592  5573    2
  3838  1955  1956    2
  3839  1955  1949   ar
  3840  4521  4532    1
  3841  4521  4519    1
  3842  4521  4516    1
  3843  2352  2374    1
  3844  2352  2335    1
  3845  4009  4007    1
  3846  4009  4010    1
  3847   227   228   ar
  3848   227   233   ar
  3849  6649  6650    1
  3850  4507  4508   ar
  3851  4526  4532   ar
  3852  4526  4527   ar
  3853  3791  3785   ar
  3854  4151  4152   ar
  3855  5076  5094    1
  3856  5076  5062    1
  3857  5577  5576    1
  3858  1750  1752    1
  3859  2246  2245    1
  3860  2752  2751    1
  3861  2752  2759   ar
  3862  4045  4044   ar
  3863  4045  4039   ar
  3864  1950  1949   ar
  3865  1950  1951    1
  3866  4197  4196   ar
  3867  4197  4187    1
  3868  4185  4187    1
  3869  4185  4183    1
  3870  6747  6748   ar
  3871  7938  7940    1
  3872  7938  7939    1
  3873  6646  6625    2
  3874  4067  4061   ar
  3875  2089  2088   ar
  3876  3778  3794    1
  3877  1807  1806   ar
  3878  1807  1809   ar
  3879  2075  2073    1
  3880  5706  5707    1
  3881  5706  5705   ar
  3882  5151  5152   ar
  3883  2227  2225    1
  3884  2227  2228    1
  3885  2227  2229    1
  3886  2758  2759   ar
  3887  2307  2327    1
  3888  2307  2291    1
  3889  2307  2309    1
  3890  3654  3655   ar
  3891  1860  1859    1
  3892  2299  2298   ar
  3893  3816  3794    2
  3894  4170  4173   ar
  3895  4170  4169   ar
  3896  7940  7942    1
  3897  4129  4128    1
  3898  5114  5111   ar
  3899  5111  5112   ar
  3900  3655  3656    2
  3901  4532  4531   ar
  3902  1873  1872   ar
  3903  2725  2727    1
  3904  2725  2723    1
  3905  4528  4527   ar
  3906  4528  4529    2
  3907  5711  5705   ar
  3908  5711  5712    2
  3909  5157  5155   ar
  3910  7918  7920    1
  3911  7918  7919    1
  3912  2774  2773    2
  3913  4007  4008    1
  3914  4519  4517    1
  3915   218   216    1
  3916  2751  2746    1
  3917  2751  2749    1
  3918  1851  1850    2
  3919  4094  4093    1
  3920  4173  4174   ar
  3921  3789  3786   ar
  3922  7920  7922    1
  3923  4133  4114    2
  3924  5644  5645    1
  3925  5644  5639    1
  3926  4200  4221    2
  3927  4200  4222    1
  3928  4200  4184    1
  3929  2303  2304   ar
  3930  5580  5581    1
  3931  5580  5578    1
  3932  4065  4062   ar
  3933  4167  4168   ar
  3934  7958  7959    1
  3935  7958  7960    1
  3936  1806  1804   ar
  3937  1859  1857    1
  3938  2226  2225    1
  3939  2226  2231    1
  3940  2724  2722    1
  3941  2724  2723    1
  3942  4471  4472    1
  3943  4471  4473    1
  3944  5737  5736   ar
  3945  5737  5738   ar
  3946  2295  2296   ar
  3947  4044  4043   ar
  3948  4527  4530   ar
  3949  4479  4480   ar
  3950  4479  4478   ar
  3951  3779  3780    1
  3952   228   231   ar
  3953  1792  1770    2
  3954  2741  2722    2
  3955  7913  7893    2
  3956  4074  4079    1
  3957  1849  1850   ar
  3958  1849  1847   ar
  3959  1789  1790   ar
  3960  2288  2290    1
  3961  2288  2289    1
  3962  6744  6742   ar
  3963  3624  3626    1
  3964  3624  3622    1
  3965  4088  4087   ar
  3966  4088  4089   ar
  3967  1966  1965    1
  3968  1966  1971    1
  3969  5106  5112   ar
  3970  5638  5636    1
  3971  5638  5639    1
  3972  2231  2229    1
  3973  2290  2291    1
  3974  2290  2292    1
  3975  4516  4515    1
  3976  2308  2309    1
  3977  2308  2310    1
  3978  4146  4147   ar
  3979  4147  4153   ar
  3980  1848  1847    2
  3981  2245  2243    1
  3982  4187  4182    1
  3983  5597  5596    1
  3984  2722  2740    1
  3985  6714  6731    1
  3986   222   233    1
  3987   222   217    1
  3988  2775  2773   ar
  3989  2775  2776   ar
  3990  1752  1754    1
  3991  1752  1753    1
  3992  5600  5601    1
  3993  5600  5598    1
  3994  3811  3810    2
  3995  1981  1980   ar
  3996  1981  1982   ar
  3997  2746  2745    1
  3998  6631  6630    1
  3999  5152  5153    2
  4000  5152  5154   ar
  4001  1965  1967    1
  4002  5637  5636    1
  4003  5637  5635    1
  4004  2773  2772   ar
  4005  5727  5738    1
  4006  5727  5725    1
  4007  2727  2728    1
  4008  4480  4481   ar
  4009  6647  6625    1
  4010  6583  6565    2
  4011  5112  5113    2
  4012  5559  5573    1
  4013  2229  2230    1
  4014   233   232   ar
  4015  5723  5724    1
  4016  5723  5725    1
  4017  5652  5645   ar
  4018  5652  5651   ar
  4019  7982  7981    1
  4020  7982  7987    1
  4021  6626  6627    1
  4022  6626  6628    1
  4023  1980  1977   ar
  4024  4087  4084   ar
  4025  4472  4477    1
  4026  1781  1782    1
  4027  1781  1783   ar
  4028  2335  2334    1
  4029  3794  3815    1
  4030  3794  3796    1
  4031  6748  6741   ar
  4032  4493  4495    1
  4033  4493  4491    1
  4034  4531  4530   ar
  4035  1754  1755    1
  4036  6623  6605    2
  4037  7978  7980    1
  4038  7978  7999    1
  4039  7978  7961    1
  4040  5575  5573    1
  4041  5575  5574    1
  4042  5155  5154   ar
  4043  5155  5156    2
  4044  5645  5646   ar
  4045  4177  4156    2
  4046  3785  3786   ar
  4047  3785  3784   ar
  4048  4183  4184    1
  4049  4183  4181    1
  4050  5062  5061    1
  4051  2330  2332    1
  4052  2330  2331    1
  4053  2087  2088   ar
  4054  7959  7964    1
  4055  5736  5733   ar
  4056  1784  1790   ar
  4057  1784  1783   ar
  4058  4130  4128   ar
  4059  4130  4131   ar
  4060  2298  2304   ar
  4061  2298  2297   ar
  4062  1850  1852   ar
  4063  4039  4038   ar
  4064  4039  4040   ar
  4065  4495  4496    1
  4066  5573  5591    1
  4067  4132  4114    1
  4068  4478  4483   ar
  4069  4038  4037   ar
  4070  2750  2749    1
  4071  4010  4015    1
  4072  4015  4016    1
  4073  2777  2776    1
  4074  6625  6627    1
  4075  6625  6611    1
  4076  3627  3626    1
  4077  3812  3813   ar
  4078  3812  3809   ar
  4079  4152  4153   ar
  4080  2794  2793    1
  4081  2074  2073    1
  4082  2304  2294    1
  4083  6563  6545    2
  4084  1847  1846   ar
  4085  7996  7995   ar
  4086  7996  7997   ar
  4087  2004  1985    2
  4088  5738  5732   ar
  4089  3786  3787   ar
  4090  4128  4127   ar
  4091  4077  4079    1
  4092  4077  4078    1
  4093  1809  1810   ar
  4094  5724  5741    1
  4095  7979  7980    1
  4096  7979  7981    1
  4097  2776  2778   ar
  4098  7894  7896    1
  4099  7894  7895    1
  4100  2329  2313    1
  4101  2329  2331    1
  4102  2329  2351    1
  4103  4093  4095    1
  4104  4169  4168   ar
  4105  4169  4175   ar
  4106  2073  2071    1
  4107  7923  7922    1
  4108  7898  7896    1
  4109  7898  7900    1
  4110  3626  3628    1
  4111  2296  2297   ar
  4112  4515  4517    1
  4113  4515  4513    1
  4114  4114  4098    1
  4115  4114  4116    1
  4116  4061  4062   ar
  4117  4061  4060   ar
  4118  7939  7944    1
  4119  5578  5576    1
  4120  5578  5579    1
  4121  7995  7992   ar
  4122  2313  2312    1
  4123  4008  4006    1
  4124  5576  5574    1
  4125  4473  4475    1
  4126  4473  4474    1
  4127  5763  5741    2
  4128  2749  2747    1
  4129  7960  7961    1
  4130  7960  7962    1
  4131  6742  6741   ar
  4132  6742  6743    2
  4133  2772  2771    1
  4134  2772  2779   ar
  4135   216   217    1
  4136   216   214    1
  4137  6630  6628    1
  4138  6630  6632    1
  4139  4109  4110   ar
  4140  4109  4106   ar
  4141  6642  6641    2
  4142  5651  5649   ar
  4143  4174  4175   ar
  4144  4024  4006    2
  4145  4079  4089    1
  4146  4062  4063   ar
  4147  4089  4083   ar
  4148  2289  2294    1
  4149  6603  6585    2
  4150  2771  2766    1
  4151  2771  2769    1
  4152  1790  1779    1
  4153  7922  7924    1
  4154  7942  7943    1
  4155  7942  7944    1
  4156  4153  4143    1
  4157  4155  4134    2
  4158  3620  3622    1
  4159  3620  3621    1
  4160  4517  4518    1
  4161  7981  7983    1
  4162  3622  3623    1
  4163  5654  5635    2
  4164  3810  3809   ar
  4165  3810  3804   ar
  4166  2793  2792   ar
  4167  2793  2795   ar
  4168  5725  5726    1
  4169  7901  7900    1
  4170  1804  1805    2
  4171  1804  1803   ar
  4172  6624  6605    1
  4173  4043  4040   ar
  4174  1982  1971    1
  4175  1982  1976   ar
  4176  6741  6740    1
  4177  2310  2312    1
  4178  2310  2311    1
  4179  7919  7924    1
  4180  3784  3783   ar
  4181  7987  7997    1
  4182  7987  7985    1
  4183  4496  4512    1
  4184  7896  7897    1
  4185  3621  3619    1
  4186  6733  6731    1
  4187  6733  6732    1
  4188  2792  2798   ar
  4189  7893  7895    1
  4190  7893  7914    1
  4191  7893  7879    1
  4192   231   232   ar
  4193  3813  3814   ar
  4194  4110  4111   ar
  4195  1971  1969    1
  4196  4547  4546    2
  4197  6635  6641   ar
  4198  6635  6636   ar
  4199  2332  2334    1
  4200  2332  2333    1
  4201  4539  4544    1
  4202  4539  4538    1
  4203  5646  5647    2
  4204  5646  5648   ar
  4205  7997  7991   ar
  4206  4544  4545    1
  4207  4544  4542    1
  4208  6641  6640   ar
  4209  4543  4542    1
  4210  6584  6565    1
  4211  4098  4097    1
  4212  3809  3808   ar
  4213  4018  4017    2
  4214  1770  1753    1
  4215  1770  1791    1
  4216  1770  1772    1
  4217  5762  5741    1
  4218  6628  6629    1
  4219  2292  2294    1
  4220  2292  2293    1
  4221  1857  1858    1
  4222  4481  4487   ar
  4223  4481  4482   ar
  4224  5598  5596    1
  4225  5598  5599    1
  4226  2766  2765    1
  4227  4492  4491    1
  4228  4492  4490    1
  4229  2778  2779   ar
  4230  5741  5743    1
  4231    12    11    1
  4232  6604  6585    1
  4233  2334  2336    1
  4234  5612  5593    2
  4235  2795  2796   ar
  4236  4518  4535    1
  4237  6605  6607    1
  4238  6605  6591    1
  4239  6565  6551    1
  4240  6565  6567    1
  4241  5596  5594    1
  4242  4182  4181    1
  4243  1977  1976   ar
  4244  1977  1978   ar
  4245  6637  6636    1
  4246  4040  4041   ar
  4247  4131  4124   ar
  4248  5635  5653    1
  4249  5635  5619    1
  4250  1967  1968    1
  4251  1967  1969    1
  4252  2728  2742    1
  4253  6731  6749    2
  4254  6731  6750    1
  4255  4175  4165    1
  4256  4475  4477    1
  4257  4475  4476    1
  4258  4108  4107    1
  4259  7974  7973   ar
  4260  7974  7975   ar
  4261  2745  2747    1
  4262  2745  2743    1
  4263  7900  7902    1
  4264  6636  6638   ar
  4265  4483  4482   ar
  4266  4483  4484    1
  4267  7992  7991   ar
  4268  7992  7993   ar
  4269  4538  4536    1
  4270  4538  4540    1
  4271  3796  3795    1
  4272  4084  4083   ar
  4273  4084  4085   ar
  4274  4477  4487    1
  4275  3787  3788    1
  4276  3787  3782   ar
  4277  4060  4059   ar
  4278  5064  5063    1
  4279  4016  4017   ar
  4280  4016  4023   ar
  4281  6735  6740    1
  4282  6735  6734    1
  4283  4097  4095    1
  4284  4097  4099    1
  4285  5595  5593    1
  4286  5595  5594    1
  4287  2770  2769    1
  4288  5733  5732   ar
  4289  5733  5734   ar
  4290  4037  4036   ar
  4291  2798  2799    2
  4292  2798  2797   ar
  4293  6640  6643   ar
  4294  6640  6639   ar
  4295  4546  4545   ar
  4296  4546  4548   ar
  4297  5649  5648   ar
  4298  5649  5650    1
  4299  5061  5063    1
  4300  5061  5059    1
  4301  7944  7945    1
  4302  2312  2314    1
  4303  4474  4490    1
  4304  4127  4125   ar
  4305  4181  4179    1
  4306  4156  4176    1
  4307  4156  4158    1
  4308  4156  4140    1
  4309  4006  3990    1
  4310  4006  4025    1
  4311  1985  2003    1
  4312  1985  1968    1
  4313  1985  1987    1
  4314  4141  4139    1
  4315  4141  4143    1
  4316  4141  4142    1
  4317  5732  5731   ar
  4318  4545  4552   ar
  4319  1858  1856    1
  4320  7964  7962    1
  4321  7964  7975    1
  4322  6546  6547    1
  4323  6546  6548    1
  4324  7991  7990   ar
  4325  1810  1803   ar
  4326  6643  6644   ar
  4327  1852  1853   ar
  4328  1979  1978    2
  4329  3639  3619    2
  4330  6585  6587    1
  4331  6585  6571    1
  4332  7924  7925    1
  4333  6611  6610    1
  4334  2796  2797   ar
  4335  2796  2802   ar
  4336  4095  4096    1
  4337  4513  4514    1
  4338  1976  1975   ar
  4339  4536  4537    1
  4340  1846  1853   ar
  4341  1846  1845    1
  4342  4487  4486   ar
  4343  4017  4019   ar
  4344  4199  4178    2
  4345  2072  2071    1
  4346  2072  2070    1
  4347  7952  7945   ar
  4348  7952  7951   ar
  4349  4115  4116    1
  4350  4115  4117    1
  4351  4083  4082   ar
  4352  6638  6639   ar
  4353  7994  7993    1
  4354  1844  1843    1
  4355  5063  5065    1
  4356  6545  6547    1
  4357  6545  6564    1
  4358  6545  6529    1
  4359  6639  6645   ar
  4360  4482  4485   ar
  4361  4106  4107   ar
  4362  4106  4105   ar
  4363  5579  5593    1
  4364  2797  2800   ar
  4365  3804  3805   ar
  4366  4542  4540    1
  4367  3783  3782   ar
  4368   214   215    1
  4369  7962  7963    1
  4370  2769  2767    1
  4371  6607  6606    1
  4372  2747  2748    1
  4373  6740  6738    1
  4374  4180  4179    1
  4375  4180  4178    1
  4376  1803  1802    1
  4377     8     7    1
  4378  5618  5619    1
  4379  5618  5620    1
  4380  5618  5616    1
  4381  3628  3623    1
  4382  3628  3638    1
  4383  4139  4140    1
  4384  4139  4137    1
  4385  7973  7970   ar
  4386  7993  7988   ar
  4387  1978  1972   ar
  4388    99    98    1
  4389  4143  4138    1
  4390  6732  6734    1
  4391  4063  4064    1
  4392  4063  4058   ar
  4393  3631  3630   ar
  4394  3631  3632   ar
  4395  4548  4549   ar
  4396  6632  6634    1
  4397  6632  6633    1
  4398  7975  7969   ar
  4399  2311  2316    1
  4400  3990  3989    1
  4401    29    28    1
  4402  3630  3629   ar
  4403  1969  1970    1
  4404  1774  1779    1
  4405  1774  1773    1
  4406  7986  7985    1
  4407  3814  3808   ar
  4408  3814  3803    1
  4409  5593  5611    1
  4410  2743  2744    1
  4411  6644  6645   ar
  4412  7879  7878    1
  4413  1843  1845    1
  4414  1843  1841    1
  4415  1779  1777    1
  4416  4086  4085    1
  4417  4514  4512    1
  4418  1772  1771    1
  4419  2761  2742    2
  4420  2065  2064    1
  4421  4158  4157    1
  4422  4134  4136    1
  4423  4134  4154    1
  4424  4134  4120    1
  4425    25    30    1
  4426    25    24    1
  4427  3808  3807   ar
  4428  2744  2742    1
  4429  3638  3632   ar
  4430  3638  3637   ar
  4431  3992  3991    1
  4432  4136  4135    1
  4433  4107  4102   ar
  4434  4552  4551   ar
  4435  4023  4022   ar
  4436  6551  6550    1
  4437  3632  3633   ar
  4438  2802  2791    1
  4439  2802  2801   ar
  4440  2063  2064   ar
  4441  2063  2061   ar
  4442  7985  7983    1
  4443  6645  6634    1
  4444  3619  3640    1
  4445  3619  3603    1
  4446  4111  4105   ar
  4447  4111  4101    1
  4448  7945  7946   ar
  4449  3832  3831    2
  4450  2791  2786    1
  4451  2791  2789    1
  4452  2062  2061    2
  4453  7983  7984    1
  4454  3629  3634   ar
  4455  6629  6634    1
  4456  4490  4511    2
  4457  4490  4510    1
  4458  6567  6566    1
  4459    11    13   ar
  4460    11    10   ar
  4461  2333  2338    1
  4462  5599  5613    1
  4463  5614  5616    1
  4464  5614  5615    1
  4465  4085  4080   ar
  4466  3637  3636   ar
  4467  7990  7989   ar
  4468  2800  2801   ar
  4469  4512  4534    2
  4470  4512  4533    1
  4471  7897  7902    1
  4472  2765  2767    1
  4473  2765  2763    1
  4474  2742  2760    1
  4475  4096  4101    1
  4476  3633  3634   ar
  4477  3633  3636   ar
  4478  3798  3803    1
  4479  3798  3797    1
  4480  5621  5620    1
  4481  5634  5613    2
  4482  4124  4125   ar
  4483  4124  4123    1
  4484    13    14   ar
  4485  3795  3797    1
  4486  2337  2336    1
  4487  4041  4036   ar
  4488  4041  4042    1
  4489  3634  3635    1
  4490  1845  1840    1
  4491  6591  6590    1
  4492  7951  7949   ar
  4493  4540  4541    1
  4494  6587  6586    1
  4495  5734  5735    2
  4496  5734  5728   ar
  4497  6610  6608    1
  4498  6610  6612    1
  4499  6734  6736    1
  4500  2336  2338    1
  4501   205   204    2
  4502   215   213    1
  4503  4059  4058   ar
  4504  2790  2789    1
  4505  4125  4126    2
  4506  5620  5622    1
  4507  2315  2314    1
  4508  4549  4551   ar
  4509  4549  4550    2
  4510   206   204   ar
  4511   206   207   ar
  4512  5731  5729   ar
  4513  4165  4163    1
  4514  4165  4160    1
  4515  4163  4161    1
  4516  4163  4164    1
  4517  6529  6528    1
  4518  6606  6608    1
  4519  5059  5057    1
  4520  5059  5060    1
  4521  7902  7912    1
  4522    30    28    1
  4523  5743  5742    1
  4524    24    22    1
  4525    24    26    1
  4526   208   207    1
  4527  7988  7989   ar
  4528  7925  7932   ar
  4529  7925  7926   ar
  4530    98    97   ar
  4531    98   100   ar
  4532  7932  7931   ar
  4533  4099  4101    1
  4534  4099  4100    1
  4535  4178  4162    1
  4536  4178  4198    1
  4537  1975  1973   ar
  4538  6134  6114    2
  4539  4019  4020   ar
  4540  2064  2066   ar
  4541  4535  4537    1
  4542  4535  4553    2
  4543  4535  4554    1
  4544  4161  4162    1
  4545  4161  4159    1
  4546  4486  4485   ar
  4547  4105  4104   ar
  4548  2061  2060   ar
  4549  2091  2070    2
  4550  2786  2785    1
  4551  2314  2316    1
  4552  5616  5617    1
  4553  4138  4137    1
  4554    97   103   ar
  4555  6571  6570    1
  4556  3805  3807   ar
  4557  3805  3806    1
  4558  3991  3989    1
  4559  3991  3993    1
  4560  4119  4117    1
  4561  4119  4120    1
  4562  4119  4121    1
  4563  1771  1773    1
  4564  6548  6550    1
  4565  6548  6549    1
  4566  4541  4555    1
  4567  2817  2816    1
  4568  4082  4081   ar
  4569  5074  5056    2
  4570  3803  3801    1
  4571  1972  1973   ar
  4572  4117  4118    1
  4573  5057  5058    1
  4574  2767  2768    1
  4575  1987  1986    1
  4576  2748  2762    1
  4577  2027  2005    2
  4578  6112  6092    2
  4579  3603  3602    1
  4580  6550  6552    1
  4581  2070  2090    1
  4582  2070  2056    1
  4583  7970  7969   ar
  4584  7970  7971   ar
  4585   204   203   ar
  4586  2763  2764    1
  4587  6566  6568    1
  4588  4137  4135    1
  4589  1777  1775    1
  4590  1777  1778    1
  4591  6621  6619   ar
  4592  6621  6622   ar
  4593    28    26    1
  4594  3989  3987    1
  4595     7     9    1
  4596     7     5    1
  4597  1773  1775    1
  4598  4022  4020   ar
  4599  1856  1875    2
  4600  1856  1842    1
  4601  1856  1874    1
  4602  6586  6588    1
  4603  6620  6619    2
  4604  2789  2787    1
  4605  7969  7968   ar
  4606  4118  4123    1
  4607  2316  2326    1
  4608  5058  5056    1
  4609  5613  5615    1
  4610  5613  5633    1
  4611  7984  8000    1
  4612  1775  1776    1
  4613   207   209   ar
  4614   100   101   ar
  4615  3797  3799    1
  4616    22    23    1
  4617  3831  3833   ar
  4618  3831  3830   ar
  4619  2764  2762    1
  4620  4559  4564    1
  4621  4559  4558    1
  4622  1986  1988    1
  4623  1802  1800    1
  4624  1802  1797    1
  4625  6738  6736    1
  4626  6738  6739    1
  4627  2338  2349    1
  4628  5742  5744    1
  4629  5065  5066    1
  4630  5065  5060    1
  4631  4160  4159    1
  4632  1841  1842    1
  4633  1841  1839    1
  4634     9     4    1
  4635     9    20    1
  4636    10    16   ar
  4637  6608  6609    1
  4638  1973  1974    1
  4639  6590  6588    1
  4640  6590  6592    1
  4641  7891  7873    2
  4642  2341  2340    1
  4643  4102  4103   ar
  4644  7878  7880    1
  4645  7878  7876    1
  4646  6736  6737    1
  4647  8016  8015    1
  4648  6619  6618   ar
  4649  2816  2818   ar
  4650  2816  2815   ar
  4651  4020  4021    1
  4652  4157  4159    1
  4653  7946  7947    2
  4654  7946  7948   ar
  4655  4563  4562    1
  4656  4564  4565    1
  4657  4564  4562    1
  4658  6622  6615   ar
  4659  7927  7926    2
  4660  4080  4081   ar
  4661  2818  2819   ar
  4662  4123  4121    1
  4663  2342  2340   ar
  4664  2342  2343   ar
  4665  6531  6530    1
  4666  5759  5760   ar
  4667  5759  5756   ar
  4668  5728  5729   ar
  4669  5729  5730    1
  4670  7881  7880    1
  4671  7926  7928   ar
  4672  6612  6613    1
  4673  6612  6614    1
  4674   103   104    2
  4675   103   102   ar
  4676  3833  3834   ar
  4677  7912  7911   ar
  4678  7912  7906   ar
  4679  7931  7929   ar
  4680    26    27    1
  4681    14    20   ar
  4682    14    15   ar
  4683  5760  5761   ar
  4684    27    32    1
  4685  1801  1800    1
  4686  3995  3996   ar
  4687  3995  3994   ar
  4688  3996  3997   ar
  4689  5066  5073   ar
  4690  5066  5067   ar
  4691  1812  1793    2
  4692  8017  8018   ar
  4693  8017  8014   ar
  4694  7949  7948   ar
  4695  7949  7950    1
  4696  5056  5075    1
  4697  5056  5040    1
  4698  6570  6568    1
  4699  6570  6572    1
  4700  4558  4556    1
  4701  4558  4560    1
  4702  2340  2339   ar
  4703  5073  5072   ar
  4704  4121  4122    1
  4705  2815  2821   ar
  4706  1840  1839    1
  4707  2057  2058    1
  4708  2057  2055    1
  4709  2057  2059    1
  4710  5068  5067    2
  4711  2781  2762    2
  4712  6761  6762   ar
  4713  6761  6766   ar
  4714    40    39    1
  4715   101   102   ar
  4716   101   107   ar
  4717  1800  1798    1
  4718  1797  1796    1
  4719  6588  6589    1
  4720  5067  5069   ar
  4721  2768  2782    1
  4722  7880  7882    1
  4723  6528  6530    1
  4724  6528  6526    1
  4725  2762  2780    1
  4726  6549  6554    1
  4727  2349  2343   ar
  4728  2349  2348   ar
  4729  4104  4103   ar
  4730   213   234    2
  4731   213   235    1
  4732   213   199    1
  4733     4     3    1
  4734  2785  2787    1
  4735  2785  2783    1
  4736  5617  5622    1
  4737  5622  5632    1
  4738  3799  3801    1
  4739  3799  3800    1
  4740  3852  3851    2
  4741  7911  7910   ar
  4742  2343  2344   ar
  4743    20    19   ar
  4744  2060  2067   ar
  4745  2060  2059    1
  4746  2066  2067   ar
  4747  4556  4557    1
  4748  2814  2809    1
  4749  2814  2825    1
  4750  2814  2812    1
  4751  4567  4566    2
  4752  6762  6763   ar
  4753  3605  3604    1
  4754  2819  2825   ar
  4755  2819  2820   ar
  4756  3830  3828   ar
  4757  6568  6569    1
  4758  6618  6616   ar
  4759  7905  7906   ar
  4760  7905  7904   ar
  4761  8021  8000    2
  4762  8015  8014   ar
  4763  8015  8010   ar
  4764  5745  5744    1
  4765  5745  5750    1
  4766  4565  4566   ar
  4767  4565  4572   ar
  4768  7968  7966   ar
  4769  7971  7972    2
  4770  7971  7965   ar
  4771   200   201    1
  4772   200   202    1
  4773   200   198    1
  4774  6615  6616   ar
  4775  6615  6614    1
  4776     6     5    1
  4777     6    21    1
  4778  6767  6766    1
  4779   102   105   ar
  4780  2326  2325   ar
  4781  2326  2320   ar
  4782  3987  3985    1
  4783  3987  3988    1
  4784  8018  8019   ar
  4785  5072  5070   ar
  4786  6114  6135    1
  4787  6114  6098    1
  4788  6114  6116    1
  4789  7874  7876    1
  4790  7874  7875    1
  4791  8014  8013   ar
  4792  7906  7907   ar
  4793  2056  2055    1
  4794  3604  3602    1
  4795  3604  3606    1
  4796  7876  7877    1
  4797  3602  3600    1
  4798  2026  2005    1
  4799  3993  4003    1
  4800  3993  3988    1
  4801  7875  7873    1
  4802  3801  3802    1
  4803   203   202    1
  4804   203   210   ar
  4805  2325  2324   ar
  4806  2005  1991    1
  4807  2005  2007    1
  4808     5     3    1
  4809  2784  2783    1
  4810  2784  2782    1
  4811  4562  4560    1
  4812  2809  2808    1
  4813  2813  2812    1
  4814  2825  2824   ar
  4815  6530  6532    1
  4816    23    21    1
  4817  6766  6765   ar
  4818  2055  2053    1
  4819  5069  5070   ar
  4820     3     1    1
  4821  1776  1793    1
  4822  4566  4568   ar
  4823  1839  1837    1
  4824  2821  2820   ar
  4825  2821  2822    2
  4826  6609  6614    1
  4827  4555  4557    1
  4828  4555  4573    2
  4829  4555  4574    1
  4830  3994  3999   ar
  4831  2787  2788    1
  4832   209   210   ar
  4833  5744  5746    1
  4834  2339  2345   ar
  4835  6616  6617    2
  4836  7873  7892    1
  4837  7873  7857    1
  4838  7928  7929   ar
  4839  4572  4571   ar
  4840  6092  6075    1
  4841  6092  6113    1
  4842  6092  6094    1
  4843  5758  5757    2
  4844  6526  6524    1
  4845  6526  6527    1
  4846  5070  5071    2
  4847    53    32    2
  4848  8000  8002    1
  4849  8000  8020    1
  4850  7929  7930    1
  4851  6592  6593    1
  4852  6592  6594    1
  4853  2022  2021    2
  4854  6552  6553    1
  4855  6552  6554    1
  4856  2820  2823   ar
  4857    31    21    1
  4858    16    15   ar
  4859    16    17    2
  4860  2348  2347   ar
  4861  3997  4003   ar
  4862  3997  3998   ar
  4863  6543  6523    2
  4864   107    96    1
  4865   107   106   ar
  4866  6158  6136    2
  4867  5756  5757   ar
  4868  5756  5755   ar
  4869  2059  2054    1
  4870  1988  1990    1
  4871  1988  1989    1
  4872  6602  6601   ar
  4873  6602  6595   ar
  4874   188   187    1
  4875  6763  6764   ar
  4876  3834  3827   ar
  4877  2044  2043    1
  4878  6737  6751    1
  4879    15    18   ar
  4880  8010  8011   ar
  4881  6601  6599   ar
  4882    96    94    1
  4883    96    91    1
  4884  6098  6097    1
  4885    34    32    1
  4886    34    33    1
  4887    95    94    1
  4888  5761  5750    1
  4889  5761  5755   ar
  4890  5631  5632   ar
  4891  5631  5630   ar
  4892  6524  6525    1
  4893  2344  2345   ar
  4894  2344  2347   ar
  4895  6581  6582   ar
  4896  6581  6579   ar
  4897  6093  6094    1
  4898  6093  6095    1
  4899  5632  5626   ar
  4900    36    41    1
  4901    36    35    1
  4902  6157  6136    1
  4903    41    39    1
  4904    41    52    1
  4905   202   197    1
  4906  6582  6575   ar
  4907    32    54    1
  4908  6075  6074    1
  4909  1793  1795    1
  4910  1793  1811    1
  4911  7904  7903   ar
  4912  6115  6116    1
  4913  6115  6117    1
  4914  4003  4002   ar
  4915  2023  2024   ar
  4916  2023  2020   ar
  4917   199   198    1
  4918   122   121    2
  4919  7910  7907   ar
  4920  2824  2823   ar
  4921  4560  4561    1
  4922  1795  1794    1
  4923  2812  2810    1
  4924  3985  3986    1
  4925   105   106   ar
  4926   198   196    1
  4927  8019  8013   ar
  4928  8019  8009    1
  4929  8013  8012   ar
  4930  2345  2346    2
  4931    35    33    1
  4932    35    37    1
  4933  4568  4569   ar
  4934  2320  2319   ar
  4935  2320  2321   ar
  4936  7907  7908   ar
  4937  6765  6764   ar
  4938  6765  6768   ar
  4939  6090  6069    2
  4940   118   117    1
  4941  3851  3850   ar
  4942  3851  3853   ar
  4943  5757  5751   ar
  4944  6554  6555    1
  4945  2782  2803    2
  4946  2782  2804    1
  4947  8077  8076    1
  4948  7966  7965   ar
  4949  7966  7967    1
  4950  6572  6573    1
  4951  6572  6574    1
  4952  4571  4569   ar
  4953  8004  8009    1
  4954  8004  8003    1
  4955    39    37    1
  4956  5040  5039    1
  4957   114   119    1
  4958   114   113    1
  4959  6589  6594    1
  4960  1991  1990    1
  4961  6764  6770   ar
  4962  3800  3817    1
  4963  6562  6555   ar
  4964  6562  6561   ar
  4965  8002  8001    1
  4966  5750  5748    1
  4967  8037  8036    1
  4968  2319  2318   ar
  4969  3828  3827   ar
  4970  3828  3829    2
  4971  1990  1992    1
  4972  6772  6751    2
  4973  2324  2321   ar
  4974    94    92    1
  4975  2808  2806    1
  4976  2808  2810    1
  4977   119   120    1
  4978   119   117    1
  4979  1989  1994    1
  4980  3850  3848   ar
  4981  6569  6574    1
  4982  1796  1798    1
  4983  1796  1794    1
  4984  3999  3998   ar
  4985  3999  4000    1
  4986    19    18   ar
  4987  2788  2805    1
  4988  3836  3817    2
  4989  1798  1799    1
  4990  4569  4570    2
  4991  2007  2006    1
  4992  3872  3871    2
  4993  4561  4575    1
  4994  3608  3609   ar
  4995  3608  3607   ar
  4996  5786  5764    2
  4997  5755  5754   ar
  4998  6136  6120    1
  4999  6136  6138    1
  5000  3609  3610   ar
  5001  3998  4001   ar
  5002  7882  7877    1
  5003  7882  7883    1
  5004  8011  8012   ar
  5005  8001  8003    1
  5006  5746  5747    1
  5007  5746  5748    1
  5008  3827  3826    1
  5009  3870  3871   ar
  5010  3870  3868   ar
  5011  3869  3868    2
  5012  6594  6595    1
  5013  3600  3598    1
  5014  3600  3601    1
  5015   186   187   ar
  5016   186   184   ar
  5017  2002  2001   ar
  5018  2002  1995   ar
  5019  5630  5627   ar
  5020  6595  6596   ar
  5021  1838  1837    1
  5022  1838  1836    1
  5023  3986  3984    1
  5024  6525  6523    1
  5025  2021  2020   ar
  5026  2021  2015   ar
  5027  2001  1999   ar
  5028   121   120   ar
  5029   121   123   ar
  5030  6768  6769   ar
  5031  2024  2025   ar
  5032    91    90    1
  5033  5626  5625   ar
  5034  5626  5627   ar
  5035  6095  6097    1
  5036  6095  6096    1
  5037   168   167    1
  5038  3606  3616    1
  5039  3606  3601    1
  5040  3607  3612   ar
  5041   187   189   ar
  5042  8009  8007    1
  5043  6599  6600    1
  5044  6599  6598   ar
  5045  7903  7908   ar
  5046     1     2    1
  5047  2321  2322   ar
  5048  6071  6070    1
  5049  6071  6069    1
  5050  6532  6527    1
  5051  6532  6542    1
  5052  6751  6771    1
  5053  6751  6753    1
  5054  3610  3616   ar
  5055  3610  3611   ar
  5056  6555  6556   ar
  5057  6097  6099    1
  5058  8100  8099    2
  5059  6580  6579    1
  5060  7857  7856    1
  5061  7908  7909    1
  5062  2020  2019   ar
  5063  6579  6578   ar
  5064    37    38    1
  5065  6561  6559   ar
  5066    38    55    1
  5067   113   111    1
  5068   113   115    1
  5069  8054  8053    1
  5070  6575  6574    1
  5071  6575  6576   ar
  5072  2053  2054    1
  5073  2053  2051    1
  5074  3616  3615   ar
  5075    52    46   ar
  5076    52    51   ar
  5077  2045  2042   ar
  5078  2045  2046   ar
  5079  6770  6769   ar
  5080  6770  6760    1
  5081  2049  2028    2
  5082    45    46   ar
  5083    45    43   ar
  5084  6523  6544    1
  5085  6523  6509    1
  5086  4002  4001   ar
  5087   120   127   ar
  5088    59    64    1
  5089    59    58    1
  5090  2043  2042   ar
  5091  2043  2038   ar
  5092  3612  3611   ar
  5093  3612  3613    1
  5094  5625  5624   ar
  5095  6755  6760    1
  5096  6755  6754    1
  5097  3617  3597    2
  5098  6120  6119    1
  5099  3611  3614   ar
  5100  4579  4578    1
  5101  4579  4584    1
  5102  3853  3854   ar
  5103  6077  6076    1
  5104  2806  2807    1
  5105  3871  3873   ar
  5106  5039  5041    1
  5107  5039  5037    1
  5108  2810  2811    1
  5109  5627  5628   ar
  5110  1799  1813    1
  5111  7883  7890   ar
  5112  7883  7884   ar
  5113  3868  3867   ar
  5114   117   115    1
  5115  6070  6072    1
  5116  8003  8005    1
  5117  3615  3614   ar
  5118  2318  2317   ar
  5119  3817  3819    1
  5120  3817  3835    1
  5121  3599  3598    1
  5122  3599  3597    1
  5123  8036  8035   ar
  5124  8036  8038   ar
  5125  8076  8075   ar
  5126  8076  8078   ar
  5127  6117  6119    1
  5128  6117  6118    1
  5129   197   196    1
  5130  7890  7889   ar
  5131   123   124   ar
  5132  6074  6072    1
  5133  6074  6076    1
  5134    44    43    1
  5135  2832  2837    1
  5136  2832  2831    1
  5137  6072  6073    1
  5138  6760  6758    1
  5139  5747  5764    1
  5140  6069  6053    1
  5141  6069  6091    1
  5142  5751  5752   ar
  5143    46    47   ar
  5144  5748  5749    1
  5145  8052  8053   ar
  5146  8052  8058   ar
  5147  2837  2838    1
  5148  2837  2835    1
  5149  8075  8081   ar
  5150   196   194    1
  5151    64    62    1
  5152  4004  3984    2
  5153  2840  2839    2
  5154  6100  6099    1
  5155   185   184    2
  5156  3618  3597    1
  5157  8162  8161    1
  5158  3848  3849    2
  5159  3848  3847   ar
  5160  2042  2041   ar
  5161   111   112    1
  5162  5041  5042    1
  5163  5041  5043    1
  5164  1819  1836    1
  5165  1819  1818    1
  5166    43    42   ar
  5167  6596  6598   ar
  5168  6596  6597    2
  5169   184   183   ar
  5170  4576  4578    1
  5171  4576  4577    1
  5172  7885  7884    2
  5173  6119  6121    1
  5174    51    50   ar
  5175  2807  2805    1
  5176    85    67    2
  5177  2051  2052    1
  5178  6790  6789    2
  5179  8035  8033   ar
  5180  7884  7886   ar
  5181  1855  1836    2
  5182  1994  1995    1
  5183  1994  1992    1
  5184  3819  3818    1
  5185  3597  3583    1
  5186  5754  5752   ar
  5187  8053  8055   ar
  5188  5764  5785    1
  5189  5764  5766    1
  5190  1995  1996   ar
  5191    58    60    1
  5192    58    56    1
  5193  2006  2008    1
  5194  4578  4580    1
  5195  1992  1993    1
  5196    61    67    1
  5197    61    60    1
  5198  3826  3821    1
  5199  3826  3824    1
  5200  2322  2317   ar
  5201  2322  2323    1
  5202   116   115    1
  5203   116   130    1
  5204  3821  3820    1
  5205  8059  8058    2
  5206  8099  8101   ar
  5207  8099  8098   ar
  5208  7889  7887   ar
  5209  2838  2839   ar
  5210  2838  2845   ar
  5211  2015  2016   ar
  5212  8038  8039   ar
  5213  2839  2841   ar
  5214  6053  6052    1
  5215   127   126   ar
  5216  1836  1854    1
  5217    92    90    1
  5218    92    93    1
  5219  6578  6576   ar
  5220  5782  5783   ar
  5221  5782  5779   ar
  5222  8096  8095    1
  5223  6542  6541   ar
  5224  6542  6536   ar
  5225  4584  4595    1
  5226  4584  4582    1
  5227  2811  2828    1
  5228   189   190   ar
  5229  3984  4005    1
  5230  3984  3968    1
  5231  6509  6508    1
  5232  2038  2039   ar
  5233  6576  6577    2
  5234    90    88    1
  5235  2046  2047   ar
  5236   167   169   ar
  5237   167   166   ar
  5238  6178  6159    2
  5239  2805  2827    2
  5240  2805  2826    1
  5241  5624  5623   ar
  5242  5045  5044   ar
  5243  5045  5046   ar
  5244  6138  6137    1
  5245  2836  2835    1
  5246  1999  2000    1
  5247  1999  1998   ar
  5248  8101  8102   ar
  5249   131   133    1
  5250   131   132    1
  5251  6076  6078    1
  5252  6099  6101    1
  5253  6556  6557    2
  5254  6556  6558   ar
  5255  5054  5034    2
  5256    57    55    1
  5257    57    56    1
  5258  2025  2019   ar
  5259  2025  2014    1
  5260  5781  5780    2
  5261  5752  5753    1
  5262    65    55    2
  5263  4575  4596    2
  5264  4575  4577    1
  5265  4575  4597    1
  5266  8078  8079   ar
  5267   124   126   ar
  5268   124   125    2
  5269  5628  5623   ar
  5270  5628  5629    1
  5271  5044  5049   ar
  5272  6096  6101    1
  5273  7856  7858    1
  5274  7856  7854    1
  5275  6753  6752    1
  5276  6559  6558   ar
  5277  6559  6560    1
  5278  5036  5035    1
  5279  5036  5034    1
  5280  8058  8057   ar
  5281   195   194    1
  5282   195   193    1
  5283   172   153    2
  5284  2019  2018   ar
  5285  5046  5047   ar
  5286  6789  6783   ar
  5287  6789  6788   ar
  5288  4583  4582    1
  5289  7886  7887   ar
  5290  6783  6784   ar
  5291    55    66    1
  5292  3854  3847   ar
  5293  6752  6754    1
  5294  2841  2842   ar
  5295  6754  6756    1
  5296  2845  2844   ar
  5297  8007  8005    1
  5298  8007  8008    1
  5299    86    67    1
  5300  8005  8006    1
  5301   169   170   ar
  5302  6535  6536   ar
  5303  6535  6534   ar
  5304    67    69    1
  5305   212   193    2
  5306  2831  2829    1
  5307  2831  2833    1
  5308  7887  7888    2
  5309    47    50   ar
  5310    47    48   ar
  5311  6118  6123    1
  5312  5783  5784   ar
  5313   133   134    1
  5314   133   135    1
  5315  2028  2048    1
  5316  2028  2030    1
  5317  2028  2011    1
  5318  3847  3846    1
  5319  7859  7858    1
  5320  8161  8160   ar
  5321  8161  8163   ar
  5322  1818  1816    1
  5323  1818  1820    1
  5324  5037  5035    1
  5325  5037  5038    1
  5326  6541  6540   ar
  5327  6511  6510    1
  5328    60    62    1
  5329  8081  8082    2
  5330  8081  8080   ar
  5331   151   130    2
  5332   134   139    1
  5333  8097  8098    1
  5334  8097  8095    1
  5335  8097  8092    1
  5336  3867  3874   ar
  5337  3867  3866    1
  5338  4595  4594   ar
  5339  4595  4589   ar
  5340  3873  3874   ar
  5341  6536  6537   ar
  5342  6194  6193    1
  5343  2010  2008    1
  5344  2010  2011    1
  5345  2010  2012    1
  5346    42    48   ar
  5347   112   110    1
  5348  5049  5050    1
  5349  5049  5048   ar
  5350  2835  2833    1
  5351    93   110    1
  5352  6073  6078    1
  5353  5047  5048   ar
  5354  5047  5053   ar
  5355  2844  2842   ar
  5356  2842  2843    2
  5357  8033  8034    2
  5358  8033  8032   ar
  5359  7871  7851    2
  5360  5055  5034    1
  5361  7858  7860    1
  5362  6785  6784    1
  5363  2069  2050    2
  5364  1814  1816    1
  5365  1814  1815    1
  5366  2829  2830    1
  5367   166   164   ar
  5368  5034  5017    1
  5369   183   190   ar
  5370   183   182    1
  5371    62    63    1
  5372  8055  8056   ar
  5373  8160  8166   ar
  5374  8098  8105   ar
  5375  4594  4593   ar
  5376  2008  2009    1
  5377  6784  6786   ar
  5378  1813  1834    2
  5379  1813  1835    1
  5380  1813  1815    1
  5381  8039  8032   ar
  5382  6788  6791   ar
  5383  6788  6787   ar
  5384  6758  6759    1
  5385  6758  6756    1
  5386  5048  5051   ar
  5387  6055  6054    1
  5388  2009  2014    1
  5389  2041  2047   ar
  5390  2041  2040   ar
  5391  3818  3820    1
  5392  4582  4580    1
  5393  8095  8093    1
  5394  6137  6139    1
  5395  1816  1817    1
  5396  5766  5765    1
  5397  6177  6159    1
  5398  4588  4589   ar
  5399  4588  4586   ar
  5400  3968  3967    1
  5401  5779  5780   ar
  5402  5779  5778   ar
  5403  6154  6155   ar
  5404  6154  6151   ar
  5405  5043  5053    1
  5406  5043  5038    1
  5407  6101  6111    1
  5408  1996  1998   ar
  5409  1996  1997    2
  5410  5053  5052   ar
  5411  4589  4590   ar
  5412  8163  8164   ar
  5413   130   132    1
  5414   130   152    1
  5415  5780  5774   ar
  5416  6791  6792   ar
  5417    48    49    2
  5418  3970  3969    1
  5419  8102  8103    2
  5420  8102  8104   ar
  5421  2016  2018   ar
  5422  2016  2017    1
  5423  2052  2050    1
  5424  6510  6508    1
  5425  6510  6512    1
  5426  3820  3822    1
  5427    89    88    1
  5428    89    87    1
  5429  2047  2037    1
  5430  3824  3822    1
  5431  3824  3825    1
  5432  2030  2029    1
  5433  8079  8080   ar
  5434  8079  8085   ar
  5435  6159  6161    1
  5436  6159  6142    1
  5437  6078  6089    1
  5438  6534  6533   ar
  5439  2014  2012    1
  5440  6121  6122    1
  5441  6121  6123    1
  5442  6508  6506    1
  5443  2039  2040   ar
  5444  6875  6876   ar
  5445  6875  6880   ar
  5446  4580  4581    1
  5447   193   211    1
  5448   193   179    1
  5449  3866  3864    1
  5450  3866  3861    1
  5451  8092  8091    1
  5452  8057  8056   ar
  5453  8057  8060   ar
  5454  8032  8031    1
  5455  7854  7852    1
  5456  7854  7855    1
  5457  7852  7853    1
  5458  6052  6054    1
  5459  6052  6050    1
  5460  3583  3582    1
  5461  6155  6156   ar
  5462  5051  5052   ar
  5463  6876  6877   ar
  5464  4593  4590   ar
  5465  3973  3974   ar
  5466  3973  3972   ar
  5467  2830  2828    1
  5468  6787  6786   ar
  5469  6787  6793   ar
  5470  2012  2013    1
  5471  6132  6133   ar
  5472  6132  6131   ar
  5473  8080  8083   ar
  5474  6756  6757    1
  5475  2828  2846    2
  5476  2828  2847    1
  5477  2833  2834    1
  5478  8056  8062   ar
  5479  6540  6537   ar
  5480   192   173    2
  5481  4586  4587    1
  5482  4586  4585   ar
  5483  4590  4591   ar
  5484   180   182    1
  5485   180   178    1
  5486   180   181    1
  5487  6537  6538   ar
  5488  3969  3967    1
  5489  3969  3971    1
  5490   153   171    1
  5491   153   136    1
  5492   153   155    1
  5493   170   163   ar
  5494  3822  3823    1
  5495  6123  6133    1
  5496  6054  6056    1
  5497  8006  8022    1
  5498  6153  6152    2
  5499  6813  6812    2
  5500  3846  3841    1
  5501  3846  3844    1
  5502   110   128    2
  5503   110   129    1
  5504  7853  7851    1
  5505  8166  8167    2
  5506  8166  8165   ar
  5507  6792  6793   ar
  5508  3974  3975   ar
  5509  6110  6111   ar
  5510  6110  6109   ar
  5511  6193  6195   ar
  5512  6193  6192   ar
  5513  1821  1820    1
  5514  3972  3977   ar
  5515  5784  5778   ar
  5516  5784  5773    1
  5517  1820  1822    1
  5518   135   136    1
  5519   135   137    1
  5520    69    68    1
  5521  2050  2034    1
  5522  2050  2068    1
  5523  6881  6880    1
  5524  8105  8104   ar
  5525   182   177    1
  5526  7851  7872    1
  5527  7851  7837    1
  5528   139   150    1
  5529   139   137    1
  5530  6111  6105   ar
  5531  6161  6160    1
  5532  6050  6048    1
  5533  6050  6051    1
  5534  8091  8093    1
  5535  8091  8089    1
  5536  8164  8165   ar
  5537  8164  8170   ar
  5538  6793  6782    1
  5539  3967  3965    1
  5540  6195  6196   ar
  5541  6880  6879   ar
  5542   164   163   ar
  5543   164   165    2
  5544  6806  6812   ar
  5545  6806  6807   ar
  5546  4585  4591   ar
  5547  3864  3865    1
  5548  3864  3862    1
  5549   178   179    1
  5550   178   176    1
  5551  6831  6830    1
  5552  2033  2035    1
  5553  2033  2034    1
  5554  2033  2031    1
  5555  4591  4592    2
  5556   143   141   ar
  5557   143   144   ar
  5558  3582  3584    1
  5559  3582  3580    1
  5560   142   141    1
  5561  5765  5767    1
  5562  6133  6127   ar
  5563  4581  4598    1
  5564  6131  6128   ar
  5565  6533  6538   ar
  5566  6812  6811   ar
  5567  6151  6152   ar
  5568  6151  6150   ar
  5569  2852  2857    1
  5570  2852  2851    1
  5571  6877  6878   ar
  5572  5778  5777   ar
  5573  3861  3860    1
  5574  8041  8022    2
  5575   109    87    2
  5576  6141  6139    1
  5577  6141  6142    1
  5578  6141  6143    1
  5579  8093  8094    1
  5580  8060  8061   ar
  5581  8085  8074    1
  5582  8085  8084   ar
  5583  6515  6514    2
  5584  7860  7855    1
  5585  7860  7870    1
  5586   150   144   ar
  5587   150   149   ar
  5588  6139  6140    1
  5589  6506  6504    1
  5590  6506  6507    1
  5591  5771  5772    1
  5592  5771  5773    1
  5593  5771  5769    1
  5594  2834  2848    1
  5595  8165  8168   ar
  5596  5017  5016    1
  5597  2035  2037    1
  5598  2035  2036    1
  5599  3841  3840    1
  5600  8031  8026    1
  5601  8031  8029    1
  5602  8185  8184    2
  5603  6808  6807    1
  5604  6048  6049    1
  5605   141   140   ar
  5606  6538  6539    1
  5607  5774  5775   ar
  5608    75    74    1
  5609  8094  8108    1
  5610   144   145   ar
  5611  1817  1822    1
  5612  6089  6088   ar
  5613  6089  6083   ar
  5614  2037  2032    1
  5615  6152  6146   ar
  5616   163   162    1
  5617  8073  8072    1
  5618  3856  3837    2
  5619  8074  8072    1
  5620  8074  8069    1
  5621  6898  6897   ar
  5622  6898  6899   ar
  5623    87    73    1
  5624    87   108    1
  5625  6829  6830   ar
  5626  6829  6835   ar
  5627  8026  8025    1
  5628  7870  7864   ar
  5629  7870  7869   ar
  5630  2029  2031    1
  5631    72    74    1
  5632    72    73    1
  5633    72    70    1
  5634  8062  8061   ar
  5635  8062  8051    1
  5636  3975  3976   ar
  5637  3975  3981   ar
  5638  6807  6809   ar
  5639  6757  6773    1
  5640  7863  7864   ar
  5641  7863  7862   ar
  5642  8083  8084   ar
  5643   149   148   ar
  5644  3584  3585    1
  5645  3584  3586    1
  5646  6512  6507    1
  5647  6512  6513    1
  5648  6782  6777    1
  5649  6782  6780    1
  5650  6140  6145    1
  5651  8159  8170    1
  5652  8159  8154    1
  5653  8159  8157    1
  5654  8170  8169   ar
  5655  3977  3978    1
  5656  3977  3976   ar
  5657   155   154    1
  5658  6156  6150   ar
  5659  6156  6145    1
  5660  6192  6190   ar
  5661  3844  3845    1
  5662  3844  3842    1
  5663  7864  7865   ar
  5664  6160  6162    1
  5665  8022  8024    1
  5666  8022  8040    1
  5667  8072  8070    1
  5668  2857  2858    1
  5669  2857  2855    1
  5670  5773  5768    1
  5671  7869  7868   ar
  5672  6830  6832   ar
  5673  6109  6106   ar
  5674   137   138    1
  5675  7862  7861   ar
  5676  6505  6504    1
  5677  6505  6503    1
  5678  5768  5767    1
  5679   140   146   ar
  5680  6897  6902   ar
  5681   175   173    1
  5682   175   174    1
  5683  1822  1833    1
  5684   145   148   ar
  5685   145   146   ar
  5686  2860  2859    2
  5687  8024  8023    1
  5688  6836  6835    2
  5689  3467  3447    2
  5690  6879  6878   ar
  5691  6879  6882   ar
  5692  2032  2031    1
  5693  8129  8108    2
  5694    74    76    1
  5695  3971  3981    1
  5696  3971  3966    1
  5697   173   191    1
  5698   173   159    1
  5699  6878  6884   ar
  5700  7865  7868   ar
  5701  7865  7866   ar
  5702  3823  3837    1
  5703  6056  6051    1
  5704  6056  6066    1
  5705  3490  3469    2
  5706  6811  6814   ar
  5707  6811  6810   ar
  5708  6777  6776    1
  5709  6088  6087   ar
  5710    68    70    1
  5711   177   176    1
  5712  7861  7866   ar
  5713  3592  3591    1
  5714  6082  6083   ar
  5715  6082  6080   ar
  5716  8158  8157    1
  5717   146   147    2
  5718  6105  6106   ar
  5719  6105  6104   ar
  5720  2851  2849    1
  5721  2851  2853    1
  5722  2858  2859   ar
  5723  2858  2865   ar
  5724  5769  5767    1
  5725  5769  5770    1
  5726  6899  6900   ar
  5727  3976  3979   ar
  5728  3590  3591   ar
  5729  3590  3588   ar
  5730  6514  6513   ar
  5731  6514  6516   ar
  5732  6835  6834   ar
  5733  7866  7867    1
  5734  8182  8177    1
  5735  8182  8183    1
  5736  8182  8180    1
  5737  2859  2861   ar
  5738  8184  8186   ar
  5739  8184  8183   ar
  5740  2849  2850    1
  5741  6196  6189   ar
  5742  8177  8176    1
  5743  3981  3980   ar
  5744  8089  8090    1
  5745  8128  8108    1
  5746  3589  3588    2
  5747  8154  8153    1
  5748  8051  8046    1
  5749  8051  8049    1
  5750  5016  5018    1
  5751  5016  5014    1
  5752  6150  6149   ar
  5753  6478  6458    2
  5754  8168  8169   ar
  5755  6083  6084   ar
  5756  6479  6458    1
  5757  3839  3837    1
  5758  3839  3838    1
  5759  3591  3593   ar
  5760  3965  3966    1
  5761  3965  3963    1
  5762  8108  8110    1
  5763  3588  3587   ar
  5764  2856  2855    1
  5765  7837  7836    1
  5766  8181  8180    1
  5767  3578  3580    1
  5768  3578  3579    1
  5769  6809  6810   ar
  5770   176   174    1
  5771  6128  6127   ar
  5772  6128  6129   ar
  5773  6067  6047    2
  5774  6145  6143    1
  5775  6127  6126   ar
  5776  6513  6520   ar
  5777  2865  2864   ar
  5778  6814  6815   ar
  5779  3580  3581    1
  5780  3837  3855    1
  5781  3862  3860    1
  5782  3862  3863    1
  5783  6795  6773    2
  5784   158   160    1
  5785   158   159    1
  5786   158   156    1
  5787  5777  5775   ar
  5788  2861  2862   ar
  5789  6175  6176   ar
  5790  6175  6173   ar
  5791  6143  6144    1
  5792  4602  4601    1
  5793  4602  4607    1
  5794  5775  5776    1
  5795  6810  6816   ar
  5796  6832  6833   ar
  5797  5923  5922    1
  5798  3860  3858    1
  5799  5807  5787    2
  5800  6106  6107   ar
  5801  8157  8155    1
  5802    70    71    1
  5803  8186  8187   ar
  5804  3842  3840    1
  5805  3842  3843    1
  5806  4599  4601    1
  5807  4599  4600    1
  5808  6854  6853    1
  5809  8183  8190   ar
  5810   160   162    1
  5811   160   161    1
  5812  6104  6103   ar
  5813  6049  6047    1
  5814  3593  3594   ar
  5815  8029  8027    1
  5816  8029  8030    1
  5817  3840  3838    1
  5818  8069  8068    1
  5819  3587  3594   ar
  5820  3587  3586    1
  5821  2864  2862   ar
  5822   162   157    1
  5823  2850  2848    1
  5824  6146  6147   ar
  5825  3445  3427    2
  5826  6059  6058   ar
  5827  6059  6060   ar
  5828  4598  4620    2
  5829  4598  4600    1
  5830  4598  4619    1
  5831  2862  2863    1
  5832  6176  6169   ar
  5833  6882  6883   ar
  5834  2848  2866    2
  5835  2848  2867    1
  5836  5903  5902    1
  5837  6884  6874    1
  5838  6884  6883   ar
  5839  6521  6503    2
  5840  6190  6189   ar
  5841  6190  6191    2
  5842  8025  8023    1
  5843  8025  8027    1
  5844  6516  6517   ar
  5845  5018  5019    1
  5846  5018  5020    1
  5847  6773  6775    1
  5848  6773  6794    1
  5849  3586  3581    1
  5850  2855  2853    1
  5851  6522  6503    1
  5852  6902  6903    1
  5853  6902  6901   ar
  5854  6458  6444    1
  5855  6458  6460    1
  5856  6780  6781    1
  5857  6780  6778    1
  5858  3980  3979   ar
  5859  6503  6486    1
  5860  6834  6833   ar
  5861  6834  6837   ar
  5862   154   156    1
  5863  5023  5022    1
  5864  6081  6080    1
  5865  8046  8045    1
  5866  8090  8088    1
  5867  6080  6079   ar
  5868  8180  8178    1
  5869  3899  3877    2
  5870   157   156    1
  5871  6066  6060   ar
  5872  6066  6065   ar
  5873  8049  8050    1
  5874  8049  8047    1
  5875  1826  1827   ar
  5876  1826  1824   ar
  5877  6189  6188    1
  5878  6833  6839   ar
  5879  5012  5014    1
  5880  5012  5013    1
  5881  4601  4603    1
  5882  6815  6816   ar
  5883  5021  5022   ar
  5884  5021  5027   ar
  5885  6087  6084   ar
  5886  6446  6445    1
  5887  6162  6163    1
  5888  6162  6164    1
  5889  6775  6774    1
  5890  3963  3964    1
  5891  6900  6901   ar
  5892  6900  6906   ar
  5893  5022  5024   ar
  5894  1833  1827   ar
  5895  1833  1832   ar
  5896  8070  8068    1
  5897  8070  8071    1
  5898  5028  5027    2
  5899  6816  6805    1
  5900  8176  8174    1
  5901  8176  8178    1
  5902  6874  6869    1
  5903  6874  6872    1
  5904  8027  8028    1
  5905  6084  6085   ar
  5906  3469  3453    1
  5907  3469  3491    1
  5908  3469  3471    1
  5909  5919  5918    1
  5910  5919  5924    1
  5911  3447  3468    1
  5912  3447  3433    1
  5913  3447  3449    1
  5914  3859  3858    1
  5915  3859  3857    1
  5916  5027  5026   ar
  5917  6058  6057   ar
  5918  5014  5015    1
  5919  4617  4618   ar
  5920  4617  4616   ar
  5921  6520  6519   ar
  5922  6060  6061   ar
  5923  3579  3577    1
  5924  6174  6173    2
  5925  2853  2854    1
  5926  1825  1824    1
  5927  6126  6125   ar
  5928  6047  6033    1
  5929  6047  6068    1
  5930  7836  7838    1
  5931  7836  7834    1
  5932  5770  5787    1
  5933  6163  6168    1
  5934    76    71    1
  5935    76    77    1
  5936  3453  3452    1
  5937  4607  4618    1
  5938  4607  4605    1
  5939  6776  6774    1
  5940  6776  6778    1
  5941  5907  5906    2
  5942  6149  6147   ar
  5943  5024  5025   ar
  5944  8187  8188    2
  5945  8187  8189   ar
  5946  8190  8189   ar
  5947  5918  5916    1
  5948  5918  5920    1
  5949  6173  6172   ar
  5950  3863  3877    1
  5951  3596  3577    2
  5952  6129  6130    1
  5953  6129  6124   ar
  5954  6853  6855   ar
  5955  6853  6852   ar
  5956  5924  5922    1
  5957  5924  5935    1
  5958  8153  8155    1
  5959  8153  8151    1
  5960  6855  6856   ar
  5961  4618  4612   ar
  5962  5026  5025   ar
  5963  5026  5029   ar
  5964  3595  3577    1
  5965  4616  4613   ar
  5966  5033  5011    2
  5967  6901  6904   ar
  5968  3876  3857    2
  5969  5025  5031   ar
  5970  3898  3877    1
  5971  6147  6148    1
  5972  6444  6443    1
  5973  8068  8066    1
  5974  7839  7838    1
  5975  6850  6849    1
  5976  3448  3449    1
  5977  3448  3450    1
  5978  6837  6838   ar
  5979  8110  8109    1
  5980  1827  1828   ar
  5981  8071  8088    1
  5982  6035  6034    1
  5983  6103  6102   ar
  5984  3964  3962    1
  5985  6107  6102   ar
  5986  6107  6108    1
  5987  5032  5011    1
  5988  5787  5808    1
  5989  5787  5789    1
  5990  7838  7840    1
  5991  3433  3432    1
  5992  3843  3857    1
  5993  3877  3879    1
  5994  5922  5920    1
  5995  5904  5902    1
  5996  5904  5899    1
  5997  5904  5905    1
  5998  1824  1823   ar
  5999  6873  6872    1
  6000  6517  6519   ar
  6001  6517  6518    2
  6002  5029  5030   ar
  6003  3577  3563    1
  6004  6778  6779    1
  6005  6869  6868    1
  6006  8155  8156    1
  6007  8174  8175    1
  6008  6891  6896    1
  6009  6891  6890    1
  6010  6896  6906    1
  6011  6896  6894    1
  6012  5031  5030   ar
  6013  5031  5020    1
  6014  6839  6838   ar
  6015  6839  6828    1
  6016  6065  6064   ar
  6017  8197  8202    1
  6018  8197  8196    1
  6019  5916  5917    1
  6020  6805  6800    1
  6021  6805  6803    1
  6022  5902  5900    1
  6023  6169  6168    1
  6024  6169  6170   ar
  6025  4613  4612   ar
  6026  4613  4614   ar
  6027  4612  4611   ar
  6028  6906  6905   ar
  6029  8178  8179    1
  6030  6079  6085   ar
  6031  6164  6166    1
  6032  6164  6165    1
  6033  2854  2868    1
  6034  6921  6920    1
  6035  5020  5015    1
  6036  5899  5898    1
  6037  3857  3875    1
  6038    77    84   ar
  6039    77    78   ar
  6040  6872  6870    1
  6041  3427  3429    1
  6042  3427  3413    1
  6043  3427  3446    1
  6044    84    83   ar
  6045  1832  1831   ar
  6046  6851  6849    1
  6047  6851  6846    1
  6048  6851  6862    1
  6049  6486  6485    1
  6050  6187  6186    1
  6051  6460  6459    1
  6052  6033  6032    1
  6053  5928  5926   ar
  6054  5928  5929   ar
  6055  8124  8123    1
  6056  5011  5013    1
  6057  5011  4995    1
  6058  6445  6443    1
  6059  6445  6447    1
  6060  6166  6168    1
  6061  6166  6167    1
  6062  6459  6461    1
  6063  6085  6086    2
  6064  8109  8111    1
  6065  5927  5926    1
  6066  8151  8152    1
  6067  8045  8047    1
  6068  8045  8043    1
  6069  6895  6894    1
  6070  7849  7831    2
  6071  8047  8048    1
  6072  4611  4609   ar
  6073  8088  8107    2
  6074  8088  8106    1
  6075  5921  5920    1
  6076  5921  5938    1
  6077  6188  6186    1
  6078  6188  6183    1
  6079  5906  5905   ar
  6080  5906  5908   ar
  6081  6057  6062   ar
  6082  6852  6858   ar
  6083  4614  4615    2
  6084  4614  4608   ar
  6085  6125  6124   ar
  6086  6828  6826    1
  6087  6828  6823    1
  6088  3471  3470    1
  6089  6800  6799    1
  6090  8202  8212    1
  6091  8202  8200    1
  6092  6061  6064   ar
  6093  6061  6062   ar
  6094  6198  6179    2
  6095  3957  3956    2
  6096  7850  7831    1
  6097  3429  3428    1
  6098  3450  3452    1
  6099  3450  3451    1
  6100  3452  3454    1
  6101  8125  8126   ar
  6102  8125  8122   ar
  6103  6856  6862   ar
  6104  6856  6857   ar
  6105  4603  4605    1
  6106  4603  4604    1
  6107  8064  8042    2
  6108  5935  5929   ar
  6109  5935  5934   ar
  6110  5887  5886    2
  6111  8205  8204   ar
  6112  8205  8206   ar
  6113  8028  8042    1
  6114  8175  8173    1
  6115  3428  3430    1
  6116  6849  6847    1
  6117  6034  6032    1
  6118  6034  6036    1
  6119  7834  7832    1
  6120  7834  7835    1
  6121  4605  4606    1
  6122  8044  8043    1
  6123  8044  8042    1
  6124  5898  5900    1
  6125  5898  5896    1
  6126  6846  6845    1
  6127  7833  7832    1
  6128  7833  7831    1
  6129  6172  6170   ar
  6130  5905  5912   ar
  6131  4609  4608   ar
  6132  4609  4610    1
  6133  6186  6184    1
  6134  8204  8203   ar
  6135  8212  8206   ar
  6136  8212  8211   ar
  6137  6443  6441    1
  6138  6904  6905   ar
  6139  3413  3412    1
  6140    79    78    2
  6141  8179  8193    1
  6142    78    80   ar
  6143  5926  5925   ar
  6144  3955  3956   ar
  6145  3955  3953   ar
  6146  8206  8207   ar
  6147    83    81   ar
  6148  8194  8196    1
  6149  8194  8195    1
  6150  8196  8198    1
  6151  2872  2877    1
  6152  2872  2871    1
  6153  6862  6861   ar
  6154  8156  8173    1
  6155  5929  5930   ar
  6156  6827  6826    1
  6157  6462  6461    1
  6158  6462  6467    1
  6159  8123  8122   ar
  6160  8123  8118   ar
  6161  7831  7814    1
  6162  8126  8127   ar
  6163  5959  5938    2
  6164  6062  6063    1
  6165  6894  6892    1
  6166  8122  8121   ar
  6167  8066  8067    1
  6168  1828  1831   ar
  6169  1828  1829   ar
  6170  8172  8150    2
  6171  3513  3492    2
  6172  6170  6171    2
  6173  3956  3958   ar
  6174  5901  5900    1
  6175  5901  5915    1
  6176  6826  6824    1
  6177  7843  7842    2
  6178  6890  6888    1
  6179  6890  6892    1
  6180  8211  8210   ar
  6181  3432  3430    1
  6182  3432  3434    1
  6183  8203  8208   ar
  6184  6476  6475   ar
  6185  6476  6477   ar
  6186  3954  3953    2
  6187  6488  6487    1
  6188  7844  7842   ar
  6189  7844  7845   ar
  6190  7846  7845    2
  6191  7842  7841   ar
  6192  5789  5788    1
  6193  1823  1829   ar
  6194  7845  7847   ar
  6195  6461  6463    1
  6196  6803  6804    1
  6197  6803  6801    1
  6198  5936  5915    2
  6199  5908  5909   ar
  6200  6475  6472   ar
  6201  8207  8208   ar
  6202  8207  8210   ar
  6203  3572  3571    2
  6204  3962  3982    2
  6205  3962  3983    1
  6206  3962  3948    1
  6207  5917  5915    1
  6208  7840  7841    1
  6209  7840  7835    1
  6210  8042  8063    1
  6211  3430  3431    1
  6212  6032  6030    1
  6213  6868  6870    1
  6214  6868  6866    1
  6215  6779  6796    1
  6216  7841  7848   ar
  6217  5788  5790    1
  6218  7847  7848   ar
  6219  8152  8150    1
  6220  8195  8193    1
  6221  6183  6182    1
  6222  6165  6179    1
  6223  6039  6038    2
  6224  6818  6796    2
  6225  6920  6922   ar
  6226  6920  6919   ar
  6227  3879  3878    1
  6228  8208  8209    1
  6229  2877  2878    1
  6230  2877  2875    1
  6231  6823  6822    1
  6232  8201  8200    1
  6233  3953  3952   ar
  6234  8067  8065    1
  6235  4604  4621    1
  6236  8048  8065    1
  6237  6858  6857   ar
  6238  6858  6859    2
  6239  3563  3562    1
  6240  5934  5933   ar
  6241  5883  5882    1
  6242    80    81   ar
  6243  6870  6871    1
  6244  8118  8119   ar
  6245  6447  6442    1
  6246  6447  6448    1
  6247  6857  6860   ar
  6248  2885  2878   ar
  6249  2885  2884   ar
  6250  6450  6449    2
  6251  3470  3472    1
  6252    81    82    2
  6253  6485  6487    1
  6254  6485  6483    1
  6255  3455  3454    1
  6256  2869  2871    1
  6257  2869  2870    1
  6258  6845  6847    1
  6259  6845  6843    1
  6260  2871  2873    1
  6261  2878  2879   ar
  6262  8112  8111    1
  6263  8112  8117    1
  6264  3571  3570   ar
  6265  3571  3573   ar
  6266  6179  6181    1
  6267  6179  6197    1
  6268  6441  6442    1
  6269  6441  6439    1
  6270  8127  8121   ar
  6271  8127  8117    1
  6272  3895  3896   ar
  6273  3895  3892   ar
  6274  2868  2870    1
  6275  2868  2886    2
  6276  2868  2887    1
  6277  3565  3564    1
  6278  8200  8198    1
  6279  8173  8191    2
  6280  8173  8192    1
  6281  5938  5940    1
  6282  5938  5960    1
  6283  8121  8120   ar
  6284  8111  8113    1
  6285  5886  5888   ar
  6286  5886  5885   ar
  6287  5896  5897    1
  6288  5939  5941    1
  6289  5939  5940    1
  6290  2884  2882   ar
  6291  6922  6923   ar
  6292  6888  6889    1
  6293  5915  5937    1
  6294  3454  3456    1
  6295  5912  5911   ar
  6296  3514  3492    1
  6297  3570  3568   ar
  6298  3475  3492    1
  6299  3475  3474    1
  6300  4995  4994    1
  6301  6220  6199    2
  6302  6477  6467    1
  6303  6477  6471   ar
  6304  1829  1830    2
  6305  5925  5931   ar
  6306  3435  3434    1
  6307  6799  6801    1
  6308  6799  6797    1
  6309  3564  3562    1
  6310  3564  3566    1
  6311  6036  6037    1
  6312  6036  6031    1
  6313  3451  3456    1
  6314  8150  8171    1
  6315  8150  8136    1
  6316  5930  5933   ar
  6317  5930  5931   ar
  6318  6181  6180    1
  6319  6847  6848    1
  6320  8087  8065    2
  6321  3492  3494    1
  6322  8193  8213    2
  6323  8193  8214    1
  6324  5791  5790    1
  6325  5791  5796    1
  6326  6892  6893    1
  6327  6798  6796    1
  6328  6798  6797    1
  6329  6861  6860   ar
  6330  2879  2880    2
  6331  2879  2881   ar
  6332  5888  5889   ar
  6333  3573  3574   ar
  6334  3408  3410    1
  6335  3408  3409    1
  6336  3896  3897   ar
  6337  5942  5941    1
  6338  5942  5947    1
  6339  3958  3959   ar
  6340  6919  6925   ar
  6341  3425  3407    2
  6342  6472  6471   ar
  6343  6472  6473   ar
  6344  6467  6465    1
  6345  6030  6031    1
  6346  6030  6028    1
  6347  6796  6817    1
  6348  3894  3893    2
  6349  6487  6489    1
  6350  2882  2881   ar
  6351  2882  2883    2
  6352  3562  3560    1
  6353  3412  3410    1
  6354  3412  3414    1
  6355  8119  8120   ar
  6356  3949  3947    1
  6357  3949  3950    1
  6358  3949  3951    1
  6359  3948  3947    1
  6360  6866  6867    1
  6361  8198  8199    1
  6362  8115  8117    1
  6363  8115  8113    1
  6364  8115  8116    1
  6365  6015  6016   ar
  6366  6015  6020   ar
  6367  5805  5804   ar
  6368  5805  5806   ar
  6369  8065  8086    1
  6370  3410  3411    1
  6371  3434  3436    1
  6372  6848  6865    1
  6373  3409  3407    1
  6374  3534  3515    2
  6375  6038  6037   ar
  6376  6038  6040   ar
  6377  6184  6182    1
  6378  6184  6185    1
  6379  5941  5943    1
  6380  6801  6802    1
  6381  6449  6448   ar
  6382  6449  6451   ar
  6383  5882  5884    1
  6384  5882  5880    1
  6385  6021  6020    1
  6386  6474  6473    1
  6387  3568  3569    2
  6388  3568  3567   ar
  6389  3952  3959   ar
  6390  3952  3951    1
  6391  3878  3880    1
  6392  5909  5911   ar
  6393  5909  5910    2
  6394  5790  5792    1
  6395  6871  6887    1
  6396  5849  5848    2
  6397  6448  6455   ar
  6398  2876  2875    1
  6399  6913  6912    1
  6400  6913  6918    1
  6401  5884  5885    1
  6402  5884  5879    1
  6403  8113  8114    1
  6404  6483  6484    1
  6405  6483  6481    1
  6406  3574  3567   ar
  6407  3415  3414    1
  6408  3947  3945    1
  6409  3936  3935    1
  6410  6893  6909    1
  6411  7814  7813    1
  6412  5931  5932    2
  6413  6471  6470   ar
  6414  6203  6208    1
  6415  6203  6202    1
  6416  6492  6491    1
  6417  6824  6822    1
  6418  6824  6825    1
  6419  3576  3557    2
  6420  6182  6180    1
  6421  5804  5801   ar
  6422  3472  3474    1
  6423  3472  3473    1
  6424  4639  4621    2
  6425  6016  6017   ar
  6426  6473  6468   ar
  6427  2875  2873    1
  6428  6489  6484    1
  6429  6489  6500    1
  6430  6889  6887    1
  6431  6822  6820    1
  6432  3431  3436    1
  6433  6037  6044   ar
  6434  3567  3566    1
  6435  6463  6465    1
  6436  6463  6464    1
  6437  4621  4640    1
  6438  4621  4623    1
  6439  3892  3893   ar
  6440  3892  3891   ar
  6441  5005  5004    1
  6442  4994  4996    1
  6443  4994  4992    1
  6444  3456  3466    1
  6445  4999  5004   ar
  6446  4999  5000   ar
  6447  6439  6440    1
  6448  7829  7808    2
  6449  5885  5892   ar
  6450  6020  6019   ar
  6451  6843  6844    1
  6452  3459  3458   ar
  6453  3459  3460   ar
  6454  3474  3476    1
  6455  5867  5866    2
  6456  3893  3887   ar
  6457  6185  6199    1
  6458  5947  5958    1
  6459  5947  5945    1
  6460  6493  6491   ar
  6461  6493  6494   ar
  6462  5004  5003   ar
  6463  6040  6041   ar
  6464  4996  4997    1
  6465  4996  4998    1
  6466  6465  6466    1
  6467  5000  5001   ar
  6468  3881  3880    1
  6469  3881  3886    1
  6470  5868  5866   ar
  6471  5868  5869   ar
  6472  7830  7808    1
  6473  2873  2874    1
  6474  5870  5869    2
  6475  6923  6929   ar
  6476  6923  6924   ar
  6477  8199  8215    1
  6478  3951  3946    1
  6479  3961  3942    2
  6480  6482  6481    1
  6481  6482  6480    1
  6482  5897  5895    1
  6483  3414  3416    1
  6484  3407  3390    1
  6485  3407  3426    1
  6486  5842  5848   ar
  6487  5842  5843   ar
  6488  3566  3561    1
  6489  6451  6452   ar
  6490  6910  6912    1
  6491  6910  6911    1
  6492  6208  6218    1
  6493  6208  6206    1
  6494  6867  6865    1
  6495  6028  6029    1
  6496  5826  5825    2
  6497  5796  5806    1
  6498  5796  5794    1
  6499  5806  5800   ar
  6500  5009  4989    2
  6501  6501  6480    2
  6502  6912  6914    1
  6503  3458  3457   ar
  6504  6199  6219    1
  6505  6199  6201    1
  6506  8136  8135    1
  6507  3575  3557    1
  6508  3897  3891   ar
  6509  3897  3886    1
  6510  6455  6454   ar
  6511  5889  5890    1
  6512  5889  5891   ar
  6513  6202  6200    1
  6514  6202  6204    1
  6515  6491  6490   ar
  6516  6918  6929    1
  6517  6918  6916    1
  6518  5010  4989    1
  6519  6200  6201    1
  6520  3935  3930   ar
  6521  3935  3934   ar
  6522  4636  4635    2
  6523  6911  6909    1
  6524  3930  3931   ar
  6525  5848  5847   ar
  6526  7813  7815    1
  6527  7813  7811    1
  6528  3559  3557    1
  6529  3559  3558    1
  6530  3436  3437    1
  6531  5003  5002   ar
  6532  5003  5006   ar
  6533  6925  6924   ar
  6534  6925  6926    2
  6535  5001  5002   ar
  6536  6825  6842    1
  6537  4991  4989    1
  6538  4991  4990    1
  6539  4637  4635   ar
  6540  4637  4638   ar
  6541  6470  6469   ar
  6542  5999  5998    1
  6543  3533  3515    1
  6544  6464  6480    1
  6545  8149  8130    2
  6546  8219  8224    1
  6547  8219  8218    1
  6548  3557  3541    1
  6549  6887  6908    2
  6550  6887  6907    1
  6551  3494  3493    1
  6552  7808  7810    1
  6553  7808  7794    1
  6554  3880  3882    1
  6555  4635  4634   ar
  6556  6468  6469   ar
  6557  4625  4630    1
  6558  4625  4624    1
  6559  3515  3498    1
  6560  3515  3517    1
  6561  5879  5878    1
  6562  5866  5865   ar
  6563  5002  5008   ar
  6564  6802  6819    1
  6565  3411  3416    1
  6566  6440  6438    1
  6567  7810  7809    1
  6568  5958  5957   ar
  6569  5958  5952   ar
  6570  3551  3550    1
  6571  6017  6018   ar
  6572  5006  5007   ar
  6573  3556  3535    2
  6574  5869  5871   ar
  6575  6844  6842    1
  6576  3891  3890   ar
  6577  4638  4631   ar
  6578  6207  6206    1
  6579  3560  3561    1
  6580  3560  3558    1
  6581  6217  6218   ar
  6582  6217  6216   ar
  6583  3944  3942    1
  6584  3944  3943    1
  6585  6500  6494   ar
  6586  6500  6499   ar
  6587  3481  3480    1
  6588  5844  5843    1
  6589  5792  5794    1
  6590  5792  5793    1
  6591  6044  6043   ar
  6592  5881  5880    1
  6593  5881  5895    1
  6594  6865  6886    2
  6595  6865  6885    1
  6596  6218  6212   ar
  6597  6929  6928   ar
  6598  7815  7816    1
  6599  7815  7817    1
  6600  5880  5878    1
  6601  5957  5956   ar
  6602  4989  4975    1
  6603  5946  5945    1
  6604  6820  6821    1
  6605  6494  6495   ar
  6606  6841  6819    2
  6607  3493  3495    1
  6608  5943  5945    1
  6609  5943  5944    1
  6610  6019  6018   ar
  6611  6019  6022   ar
  6612  3466  3460   ar
  6613  3466  3465   ar
  6614  3460  3461   ar
  6615  5801  5800   ar
  6616  5801  5802   ar
  6617  3390  3389    1
  6618  6924  6927   ar
  6619  8114  8130    1
  6620  4622  4623    1
  6621  4622  4624    1
  6622  4634  4632   ar
  6623  2874  2888    1
  6624  6480  6502    1
  6625  8227  8226    2
  6626  3886  3884    1
  6627  3473  3478    1
  6628  3444  3437   ar
  6629  3444  3443   ar
  6630  6909  6930    2
  6631  6909  6931    1
  6632  6821  6819    1
  6633  6917  6916    1
  6634  6041  6043   ar
  6635  6041  6042    1
  6636  5008  5007   ar
  6637  5008  4998    1
  6638  8224  8225    1
  6639  8224  8222    1
  6640  4631  4632   ar
  6641  4631  4630    1
  6642  3945  3946    1
  6643  3945  3943    1
  6644  6452  6454   ar
  6645  6452  6453    2
  6646  5892  5891   ar
  6647  3942  3960    1
  6648  3942  3926    1
  6649  8131  8133    1
  6650  8131  8132    1
  6651  3887  3888   ar
  6652  3902  3901    1
  6653  3902  3900    1
  6654  5843  5845   ar
  6655  6456  6438    2
  6656  4632  4633    2
  6657  5878  5876    1
  6658  5831  5809    2
  6659  6029  6027    1
  6660  3931  3932   ar
  6661  3940  3920    2
  6662  8226  8225   ar
  6663  8226  8228   ar
  6664  8135  8133    1
  6665  8135  8137    1
  6666  4992  4990    1
  6667  4992  4993    1
  6668  3934  3937   ar
  6669  3934  3933   ar
  6670  8225  8232   ar
  6671  3416  3417    1
  6672  6018  6024   ar
  6673  3437  3438   ar
  6674  5913  5895    2
  6675  3901  3903    1
  6676  3476  3477    1
  6677  3476  3478    1
  6678  6206  6204    1
  6679  5800  5799   ar
  6680  4998  4993    1
  6681  4630  4628    1
  6682  5944  5961    1
  6683  6216  6213   ar
  6684  7806  7788    2
  6685  5895  5914    1
  6686  5827  5824   ar
  6687  5827  5828   ar
  6688  5825  5824   ar
  6689  5825  5819   ar
  6690  3392  3391    1
  6691  6819  6840    1
  6692  5794  5795    1
  6693  8216  8218    1
  6694  8216  8217    1
  6695  8228  8229   ar
  6696  3555  3535    1
  6697  7825  7824    2
  6698  6490  6496   ar
  6699  3457  3462   ar
  6700  3937  3938   ar
  6701  5793  5809    1
  6702  3498  3497    1
  6703  3882  3884    1
  6704  3882  3883    1
  6705  3517  3516    1
  6706  6916  6914    1
  6707  4624  4626    1
  6708  6212  6211   ar
  6709  6212  6213   ar
  6710  3516  3518    1
  6711  3550  3549   ar
  6712  3550  3545   ar
  6713  5952  5951   ar
  6714  5952  5953   ar
  6715  7824  7818   ar
  6716  7824  7823   ar
  6717  8218  8220    1
  6718  6842  6864    2
  6719  6842  6863    1
  6720  8232  8231   ar
  6721  8130  8132    1
  6722  8130  8148    1
  6723  7818  7819   ar
  6724  5998  5993   ar
  6725  5998  5997   ar
  6726  5803  5802    1
  6727  3482  3480   ar
  6728  3482  3483   ar
  6729  5956  5953   ar
  6730  7807  7788    1
  6731  6022  6023   ar
  6732  7786  7768    2
  6733  3552  3549   ar
  6734  3552  3553   ar
  6735  7826  7823   ar
  6736  7826  7827   ar
  6737  7823  7822   ar
  6738  6914  6915    1
  6739  6204  6205    1
  6740  8229  8231   ar
  6741  8229  8230    1
  6742  3480  3479   ar
  6743  8215  8233    2
  6744  8215  8217    1
  6745  8215  8234    1
  6746  3443  3441   ar
  6747  7819  7820    1
  6748  7819  7821   ar
  6749  3918  3900    2
  6750  5951  5949   ar
  6751  7811  7809    1
  6752  7811  7812    1
  6753  5847  5850   ar
  6754  5847  5846   ar
  6755  5993  5994   ar
  6756  3535  3537    1
  6757  3535  3521    1
  6758  6211  6210   ar
  6759  6213  6214   ar
  6760  6499  6498   ar
  6761  7822  7821   ar
  6762  7822  7828   ar
  6763  3903  3904    1
  6764  3903  3905    1
  6765  5802  5797   ar
  6766  7827  7828   ar
  6767  3890  3888   ar
  6768  6438  6457    1
  6769  6438  6422    1
  6770  8133  8134    1
  6771  3497  3495    1
  6772  3497  3499    1
  6773  7828  7817    1
  6774  5824  5823   ar
  6775  3549  3548   ar
  6776  3545  3546   ar
  6777  6495  6496   ar
  6778  6495  6498   ar
  6779  5865  5864    1
  6780  5865  5872   ar
  6781  6915  6932    1
  6782  3478  3489    1
  6783  3933  3932   ar
  6784  3933  3939   ar
  6785  3888  3889    1
  6786  6928  6927   ar
  6787  7794  7793    1
  6788  3541  3540    1
  6789  7817  7812    1
  6790  3495  3496    1
  6791  3465  3464   ar
  6792  5871  5872   ar
  6793  5953  5954   ar
  6794  3461  3462   ar
  6795  3461  3464   ar
  6796  5809  5830    1
  6797  5809  5811    1
  6798  7788  7790    1
  6799  7788  7774    1
  6800  3884  3885    1
  6801  6424  6423    1
  6802  8223  8222    1
  6803  5982  5961    2
  6804  3906  3920    1
  6805  3906  3905    1
  6806  3941  3920    1
  6807  3389  3391    1
  6808  3389  3387    1
  6809  3920  3922    1
  6810  7787  7768    1
  6811  6205  6221    1
  6812  3900  3883    1
  6813  3900  3919    1
  6814  3391  3393    1
  6815  5819  5820   ar
  6816  6496  6497    2
  6817  6024  6023   ar
  6818  6024  6014    1
  6819  5828  5829   ar
  6820  5977  5976    1
  6821  3438  3439    2
  6822  3438  3440   ar
  6823  3938  3939   ar
  6824  3553  3554   ar
  6825  3417  3424   ar
  6826  3417  3418   ar
  6827  6012  6013    1
  6828  6012  6014    1
  6829  6012  6010    1
  6830  5850  5851   ar
  6831  8137  8138    1
  6832  8137  8139    1
  6833  8222  8220    1
  6834  3462  3463    1
  6835  3511  3510   ar
  6836  3511  3512   ar
  6837  3510  3507   ar
  6838  5845  5846   ar
  6839  5799  5798   ar
  6840  3540  3538    1
  6841  3540  3542    1
  6842  4975  4974    1
  6843  4988  4969    2
  6844  6210  6209   ar
  6845  2888  2910    2
  6846  2888  2890    1
  6847  2888  2909    1
  6848  2892  2891    1
  6849  2892  2897    1
  6850  3536  3537    1
  6851  3536  3538    1
  6852  2906  2907   ar
  6853  2906  2903   ar
  6854  7790  7789    1
  6855  3904  3909    1
  6856  3531  3532   ar
  6857  3531  3529   ar
  6858  6214  6209   ar
  6859  6214  6215    1
  6860  5997  6000   ar
  6861  5997  5996   ar
  6862  5864  5862    1
  6863  5864  5859    1
  6864  2905  2904    2
  6865  4984  4983    1
  6866  3926  3925    1
  6867  2889  2890    1
  6868  2889  2891    1
  6869  5949  5950    1
  6870  5949  5948   ar
  6871  3483  3489   ar
  6872  3483  3484   ar
  6873  6027  6045    2
  6874  6027  6046    1
  6875  6027  6011    1
  6876  5876  5877    1
  6877  4968  4946    2
  6878  5846  5852   ar
  6879  6000  6001   ar
  6880  2907  2908   ar
  6881  3479  3485   ar
  6882  3424  3423   ar
  6883  7768  7770    1
  6884  7768  7751    1
  6885  7793  7795    1
  6886  7793  7791    1
  6887  3939  3929    1
  6888  5961  5981    1
  6889  5961  5963    1
  6890  3546  3547   ar
  6891  3548  3554   ar
  6892  3548  3547   ar
  6893  4987  4969    1
  6894  5862  5863    1
  6895  5862  5860    1
  6896  4626  4628    1
  6897  4626  4627    1
  6898  4628  4629    1
  6899  3419  3418    2
  6900  3489  3488   ar
  6901  2903  2904   ar
  6902  2903  2902   ar
  6903  3521  3520    1
  6904  5994  5995   ar
  6905  2904  2898   ar
  6906  3441  3440   ar
  6907  3441  3442    2
  6908  8220  8221    1
  6909  3905  3907    1
  6910  3925  3927    1
  6911  3925  3923    1
  6912  8146  8147   ar
  6913  8146  8144   ar
  6914  3518  3520    1
  6915  3518  3519    1
  6916  3927  3928    1
  6917  3927  3929    1
  6918  3532  3525   ar
  6919  6014  6009    1
  6920  4944  4924    2
  6921  8147  8140   ar
  6922  5797  5798   ar
  6923  6422  6421    1
  6924  3387  3385    1
  6925  3387  3388    1
  6926  4922  4902    2
  6927  3554  3544    1
  6928  2908  2902   ar
  6929  2908  2897    1
  6930  5954  5948   ar
  6931  5954  5955    2
  6932  5978  5975   ar
  6933  5978  5979   ar
  6934  6423  6421    1
  6935  6423  6425    1
  6936  3496  3501    1
  6937  3418  3420   ar
  6938  4983  4985   ar
  6939  4983  4982   ar
  6940  8134  8139    1
  6941  3520  3522    1
  6942  2902  2901   ar
  6943  3530  3529    2
  6944  5811  5810    1
  6945  5823  5829   ar
  6946  5823  5822   ar
  6947  4969  4971    1
  6948  4969  4952    1
  6949  2898  2899   ar
  6950  4974  4976    1
  6951  4974  4972    1
  6952  4985  4986   ar
  6953  4900  4879    2
  6954  4971  4970    1
  6955  5877  5875    1
  6956  2891  2893    1
  6957  3908  3907    1
  6958  3538  3539    1
  6959  6010  6011    1
  6960  6010  6008    1
  6961  8145  8144    1
  6962  3499  3501    1
  6963  3499  3500    1
  6964  2897  2895    1
  6965  4967  4946    1
  6966  7789  7791    1
  6967  8144  8143   ar
  6968  3542  3544    1
  6969  3542  3543    1
  6970  4657  4656    1
  6971  3909  3907    1
  6972  3909  3910    1
  6973  6427  6428   ar
  6974  6427  6426   ar
  6975  4945  4924    1
  6976  6932  6954    2
  6977  6932  6953    1
  6978  6932  6934    1
  6979  5976  5975   ar
  6980  5976  5971   ar
  6981  3529  3528   ar
  6982  7770  7769    1
  6983  8140  8139    1
  6984  8140  8141   ar
  6985  6428  6429   ar
  6986  5829  5818    1
  6987  3512  3501    1
  6988  3512  3506   ar
  6989  3396  3395    1
  6990  7774  7773    1
  6991  7795  7796    1
  6992  7795  7797    1
  6993  3507  3508   ar
  6994  3507  3506   ar
  6995  2901  2899   ar
  6996  2899  2900    1
  6997  5820  5822   ar
  6998  5820  5821    1
  6999  7766  7745    2
  7000  5996  5995   ar
  7001  5996  6002   ar
  7002  3385  3386    1
  7003  5851  5852   ar
  7004  4982  4980   ar
  7005  3484  3485   ar
  7006  3484  3487   ar
  7007  3509  3508    2
  7008  3929  3924    1
  7009  3922  3921    1
  7010  3393  3388    1
  7011  3393  3404    1
  7012  3485  3486    2
  7013  3423  3421   ar
  7014  4831  4830    1
  7015  4946  4930    1
  7016  4946  4948    1
  7017  5975  5974   ar
  7018  7791  7792    1
  7019  6001  6002   ar
  7020  3519  3524    1
  7021  6221  6243    2
  7022  6221  6223    1
  7023  6221  6242    1
  7024  8143  8141   ar
  7025  6421  6419    1
  7026  4986  4979   ar
  7027  5979  5980   ar
  7028  8141  8142    2
  7029  5852  5841    1
  7030  5963  5962    1
  7031  5859  5858    1
  7032  4976  4977    1
  7033  4976  4978    1
  7034  3397  3395   ar
  7035  3397  3398   ar
  7036  3544  3539    1
  7037  3488  3487   ar
  7038  7803  7802    1
  7039  4924  4926    1
  7040  4924  4908    1
  7041  8221  8235    1
  7042  7804  7802   ar
  7043  7804  7805   ar
  7044  4658  4655   ar
  7045  4658  4659   ar
  7046  4627  4641    1
  7047  7751  7750    1
  7048  4923  4902    1
  7049  4656  4655   ar
  7050  4656  4651   ar
  7051  6933  6934    1
  7052  6933  6935    1
  7053  7769  7771    1
  7054  3508  3502   ar
  7055  6223  6222    1
  7056  7802  7801   ar
  7057  4762  4761    1
  7058  4970  4972    1
  7059  6426  6431   ar
  7060  7805  7798   ar
  7061  4902  4885    1
  7062  4902  4904    1
  7063  3420  3421   ar
  7064  5860  5861    1
  7065  5860  5858    1
  7066  3395  3394   ar
  7067  7773  7771    1
  7068  7773  7775    1
  7069  4980  4979   ar
  7070  4980  4981    2
  7071  7746  7747    1
  7072  7746  7748    1
  7073  3506  3505   ar
  7074  3525  3524    1
  7075  3525  3526   ar
  7076  4655  4654   ar
  7077  6425  6435    1
  7078  6425  6420    1
  7079  3923  3921    1
  7080  3923  3924    1
  7081  5971  5972   ar
  7082  6009  6008    1
  7083  4979  4978    1
  7084  6002  5992    1
  7085  6004  5983    2
  7086  4651  4652   ar
  7087  4972  4973    1
  7088  4659  4660   ar
  7089  7801  7799   ar
  7090  6429  6435   ar
  7091  6429  6430   ar
  7092  3421  3422    1
  7093  7798  7799   ar
  7094  7798  7797    1
  7095  4662  4641    2
  7096  7767  7745    1
  7097  6936  6935    1
  7098  6936  6941    1
  7099  4879  4901    1
  7100  4879  4881    1
  7101  4879  4865    1
  7102  4885  4884    1
  7103  5810  5812    1
  7104  3910  3911   ar
  7105  3910  3917   ar
  7106  3405  3384    2
  7107  4930  4929    1
  7108  4830  4825   ar
  7109  4830  4829   ar
  7110  3912  3911    2
  7111  3522  3524    1
  7112  3522  3523    1
  7113  5813  5818    1
  7114  5813  5812    1
  7115  2893  2895    1
  7116  2893  2894    1
  7117  3404  3398   ar
  7118  3404  3403   ar
  7119  7745  7747    1
  7120  7745  7731    1
  7121  6008  6006    1
  7122  7799  7800    2
  7123  8252  8251    2
  7124  4825  4826   ar
  7125  3398  3399   ar
  7126  7797  7792    1
  7127  3386  3384    1
  7128  3528  3526   ar
  7129  8251  8250   ar
  7130  8251  8245   ar
  7131  5818  5816    1
  7132  8253  8250   ar
  7133  8253  8254   ar
  7134  2895  2896    1
  7135  7743  7725    2
  7136  6026  6005    2
  7137  8250  8249   ar
  7138  4948  4947    1
  7139  8254  8255   ar
  7140  5861  5875    1
  7141  4952  4951    1
  7142  8245  8246   ar
  7143  8255  8249   ar
  7144  8255  8244    1
  7145  8249  8248   ar
  7146  5875  5893    2
  7147  5875  5894    1
  7148  6435  6434   ar
  7149  5858  5856    1
  7150  8248  8246   ar
  7151  4926  4925    1
  7152  7771  7772    1
  7153  6419  6420    1
  7154  6419  6417    1
  7155  5974  5980   ar
  7156  5974  5973   ar
  7157  8246  8247    1
  7158  7750  7748    1
  7159  7750  7752    1
  7160  4978  4973    1
  7161  4654  4660   ar
  7162  4654  4653   ar
  7163  4781  4780    1
  7164  8244  8239    1
  7165  8244  8242    1
  7166  6935  6937    1
  7167  5980  5970    1
  7168  8239  8238    1
  7169  4908  4907    1
  7170  4660  4650    1
  7171  4652  4653   ar
  7172  4947  4949    1
  7173  6007  6006    1
  7174  6007  6005    1
  7175  5841  5839    1
  7176  5841  5836    1
  7177  4641  4643    1
  7178  4641  4661    1
  7179  5854  5832    2
  7180  6431  6430   ar
  7181  6431  6432    1
  7182  7748  7749    1
  7183  3911  3913   ar
  7184  3917  3916   ar
  7185  3526  3527    2
  7186  3394  3400   ar
  7187  5962  5964    1
  7188  4761  4763   ar
  7189  4761  4760   ar
  7190  3502  3503   ar
  7191  6951  6950   ar
  7192  6951  6952   ar
  7193  4963  4962    2
  7194  4903  4904    1
  7195  4903  4905    1
  7196  4951  4949    1
  7197  4951  4953    1
  7198  6239  6240   ar
  7199  6239  6236   ar
  7200  6430  6433   ar
  7201  5812  5814    1
  7202  3505  3503   ar
  7203  7775  7776    1
  7204  7775  7777    1
  7205  5972  5973   ar
  7206  7784  7785   ar
  7207  7784  7782   ar
  7208  4964  4965   ar
  7209  4964  4961   ar
  7210  4881  4880    1
  7211  6222  6224    1
  7212  6950  6947   ar
  7213  4865  4864    1
  7214  8235  8237    1
  7215  8235  8257    2
  7216  8235  8256    1
  7217  4880  4882    1
  7218  4829  4832   ar
  7219  4829  4828   ar
  7220  8237  8236    1
  7221  6238  6237    2
  7222  4929  4927    1
  7223  4929  4931    1
  7224  4645  4650    1
  7225  4645  4644    1
  7226  6240  6241   ar
  7227  7785  7778   ar
  7228  6225  6224    1
  7229  6225  6230    1
  7230  3384  3406    1
  7231  3384  3367    1
  7232  4826  4827   ar
  7233  5814  5816    1
  7234  5814  5815    1
  7235  2919  2918    1
  7236  3403  3402   ar
  7237  4925  4927    1
  7238  5965  5970    1
  7239  5965  5964    1
  7240  5990  5992    1
  7241  5990  5988    1
  7242  5990  5991    1
  7243  4832  4833   ar
  7244  4763  4764   ar
  7245  5992  5987    1
  7246  2894  2911    1
  7247  5839  5840    1
  7248  5839  5837    1
  7249  4650  4648    1
  7250  5983  5985    1
  7251  5983  6003    1
  7252  5983  5967    1
  7253  3399  3400   ar
  7254  3399  3402   ar
  7255  4643  4642    1
  7256  6941  6952    1
  7257  6941  6939    1
  7258  5985  5984    1
  7259  5816  5817    1
  7260  6952  6946   ar
  7261  4965  4966   ar
  7262  3167  3166    1
  7263  5966  5964    1
  7264  5966  5968    1
  7265  5966  5967    1
  7266  4884  4882    1
  7267  4884  4886    1
  7268  6005  6025    1
  7269  6005  5989    1
  7270  3503  3504    1
  7271  6236  6237   ar
  7272  6236  6235   ar
  7273  4962  4961   ar
  7274  4962  4956   ar
  7275  4907  4905    1
  7276  4907  4909    1
  7277  6434  6433   ar
  7278  6237  6231   ar
  7279  4785  4784    2
  7280  4760  4766   ar
  7281  4961  4960   ar
  7282  5988  5989    1
  7283  5988  5986    1
  7284  7731  7730    1
  7285  4738  4739   ar
  7286  4738  4743   ar
  7287  4739  4740   ar
  7288  5857  5856    1
  7289  5857  5855    1
  7290  4949  4950    1
  7291  7772  7777    1
  7292  7783  7782    1
  7293  3400  3401    2
  7294  5970  5968    1
  7295  4678  4677    1
  7296  7725  7744    1
  7297  7725  7727    1
  7298  7725  7711    1
  7299  7782  7781   ar
  7300  6947  6946   ar
  7301  6947  6948   ar
  7302  5836  5835    1
  7303  2954  2933    2
  7304  6241  6235   ar
  7305  6241  6230    1
  7306  6417  6418    1
  7307  4780  4782    1
  7308  4780  4778    1
  7309  2917  2916    1
  7310  2917  2933    1
  7311  2914  2912    1
  7312  2914  2915    1
  7313  2914  2916    1
  7314  8243  8242    1
  7315  4882  4883    1
  7316  6224  6226    1
  7317  3369  3368    1
  7318  4758  4757    1
  7319  7778  7777    1
  7320  7778  7779   ar
  7321  3913  3914   ar
  7322  3916  3914   ar
  7323  8242  8240    1
  7324  5968  5969    1
  7325  6946  6945   ar
  7326  7752  7753    1
  7327  7752  7754    1
  7328  4905  4906    1
  7329  4927  4928    1
  7330  6418  6416    1
  7331  8238  8236    1
  7332  8238  8240    1
  7333  4828  4827   ar
  7334  4828  4834   ar
  7335  3166  3165   ar
  7336  3166  3168   ar
  7337  4782  4777    1
  7338  4782  4783    1
  7339  6235  6234   ar
  7340  6949  6948    2
  7341  6937  6939    1
  7342  6937  6938    1
  7343  3373  3372    1
  7344  4953  4955    1
  7345  4953  4954    1
  7346  4722  4721    2
  7347  3367  3366    1
  7348  6230  6228    1
  7349  5987  5986    1
  7350  6948  6942   ar
  7351  7749  7754    1
  7352  2912  2913    1
  7353  5832  5834    1
  7354  5832  5815    1
  7355  5832  5853    1
  7356  5837  5835    1
  7357  5837  5838    1
  7358  2915  2920    1
  7359  6231  6232   ar
  7360  4966  4960   ar
  7361  4966  4955    1
  7362  4956  4957   ar
  7363  4931  4932    1
  7364  4931  4933    1
  7365  4642  4644    1
  7366  4833  4834   ar
  7367  3165  3163   ar
  7368  2931  2911    2
  7369  4960  4959   ar
  7370  5834  5833    1
  7371  4942  4941   ar
  7372  4942  4943   ar
  7373  3119  3118   ar
  7374  3119  3120   ar
  7375  4860  4861    1
  7376  4860  4862    1
  7377  4715  4721   ar
  7378  4715  4716   ar
  7379  3168  3169   ar
  7380  4941  4938   ar
  7381  7781  7779   ar
  7382  4644  4646    1
  7383  5874  5855    2
  7384  4864  4862    1
  7385  4864  4866    1
  7386  4717  4716    1
  7387  3118  3123   ar
  7388  7723  7705    2
  7389  4740  4741   ar
  7390  7727  7726    1
  7391  3914  3915    1
  7392  4764  4770   ar
  7393  4764  4765   ar
  7394  4861  4859    1
  7395  6945  6943   ar
  7396  7779  7780    2
  7397  2916  2918    1
  7398  4950  4955    1
  7399  2918  2920    1
  7400  4887  4886    1
  7401  2911  2913    1
  7402  2911  2932    1
  7403  4779  4778    1
  7404  4779  4793    1
  7405  6939  6940    1
  7406  4744  4743    1
  7407  4743  4742   ar
  7408  4777  4776    1
  7409  5986  5984    1
  7410  4784  4783   ar
  7411  4784  4786   ar
  7412  2933  2935    1
  7413  2933  2955    1
  7414  4677  4679   ar
  7415  4677  4676   ar
  7416  4823  4822    1
  7417  6234  6232   ar
  7418  4699  4698    1
  7419  4886  4888    1
  7420  3368  3366    1
  7421  3368  3370    1
  7422  6938  6955    1
  7423  7711  7710    1
  7424  2920  2930    1
  7425  4834  4824    1
  7426  6232  6233    1
  7427  4759  4757    1
  7428  4759  4770    1
  7429  4759  4754    1
  7430  6259  6258    1
  7431  6942  6943   ar
  7432  4862  4863    1
  7433  4766  4765   ar
  7434  4766  4767    2
  7435  2934  2935    1
  7436  2934  2936    1
  7437  5835  5833    1
  7438  3163  3164    2
  7439  3163  3162   ar
  7440  7730  7728    1
  7441  7730  7732    1
  7442  8240  8241    1
  7443  4648  4646    1
  7444  4648  4649    1
  7445  4693  4698   ar
  7446  4693  4694   ar
  7447  4679  4680   ar
  7448  4957  4959   ar
  7449  4957  4958    1
  7450  5855  5838    1
  7451  5855  5873    1
  7452  7754  7765    1
  7453  4721  4720   ar
  7454  4909  4910    1
  7455  4909  4911    1
  7456  7764  7765   ar
  7457  7764  7763   ar
  7458  4757  4755    1
  7459  6943  6944    1
  7460  4778  4776    1
  7461  7726  7728    1
  7462  4783  4790   ar
  7463  3372  3374   ar
  7464  3372  3371   ar
  7465  3169  3162   ar
  7466  4877  4859    2
  7467  4776  4774    1
  7468  6437  6416    2
  7469  8275  8274    2
  7470  4716  4718   ar
  7471  4928  4933    1
  7472  3374  3375   ar
  7473  4770  4769   ar
  7474  6436  6416    1
  7475  4943  4933    1
  7476  4943  4937   ar
  7477  3366  3364    1
  7478  4813  4793    2
  7479  4906  4911    1
  7480  3162  3161    1
  7481  3120  3121   ar
  7482  6416  6402    1
  7483  4765  4768   ar
  7484  7765  7759   ar
  7485  6226  6228    1
  7486  6226  6227    1
  7487  4676  4674   ar
  7488  4883  4888    1
  7489  4867  4866    1
  7490  4920  4919   ar
  7491  4920  4921   ar
  7492  4938  4937   ar
  7493  4938  4939   ar
  7494  4646  4647    1
  7495  7763  7760   ar
  7496  8274  8273   ar
  7497  8274  8268   ar
  7498  4741  4742   ar
  7499  4741  4747   ar
  7500  4698  4697   ar
  7501  4835  4815    2
  7502  8276  8273   ar
  7503  8276  8277   ar
  7504  4822  4824    1
  7505  4822  4820    1
  7506  4940  4939    1
  7507  7728  7729    1
  7508  4786  4787   ar
  7509  4754  4753    1
  7510  4742  4745   ar
  7511  8273  8272   ar
  7512  4866  4868    1
  7513  3141  3142   ar
  7514  3141  3140   ar
  7515  3123  3124    1
  7516  3123  3122   ar
  7517  6228  6229    1
  7518  8268  8269   ar
  7519  3371  3377   ar
  7520  4919  4916   ar
  7521  4694  4695   ar
  7522  4859  4878    1
  7523  4859  4843    1
  7524  8277  8278   ar
  7525  3142  3143   ar
  7526  4824  4819    1
  7527  4793  4814    1
  7528  4793  4795    1
  7529  6258  6257   ar
  7530  6258  6260   ar
  7531  4937  4936   ar
  7532  8272  8278   ar
  7533  8272  8271   ar
  7534  3156  3161    1
  7535  3156  3155    1
  7536  7706  7707    1
  7537  7706  7708    1
  7538  4680  4673   ar
  7539  4939  4934   ar
  7540  4911  4921    1
  7541  4888  4899    1
  7542  8269  8271   ar
  7543  8269  8270    1
  7544  3161  3159    1
  7545  6411  6410    1
  7546  8278  8267    1
  7547  2936  2937    1
  7548  2936  2938    1
  7549  7733  7732    1
  7550  3138  3137    1
  7551  4838  4839    1
  7552  4838  4840    1
  7553  7705  7707    1
  7554  7705  7724    1
  7555  7705  7689    1
  7556  7759  7760   ar
  7557  7759  7758   ar
  7558  4898  4899   ar
  7559  4898  4897   ar
  7560  7732  7734    1
  7561  4921  4915   ar
  7562  7760  7761   ar
  7563  3370  3381    1
  7564  3370  3365    1
  7565  7710  7708    1
  7566  7710  7712    1
  7567  3375  3381   ar
  7568  3375  3376   ar
  7569  6409  6410   ar
  7570  6409  6407   ar
  7571  8262  8267    1
  7572  8262  8261    1
  7573  6227  6244    1
  7574  2930  2924   ar
  7575  2930  2929   ar
  7576  4790  4789   ar
  7577  8241  8258    1
  7578  4839  4837    1
  7579  6257  6255   ar
  7580  8267  8265    1
  7581  4674  4673   ar
  7582  4674  4675    2
  7583  4736  4735    1
  7584  6955  6975    2
  7585  6955  6976    1
  7586  6955  6957    1
  7587  4753  4755    1
  7588  4753  4751    1
  7589  4863  4868    1
  7590  6410  6412   ar
  7591  2923  2924   ar
  7592  2923  2922   ar
  7593  3187  3186    2
  7594  4769  4768   ar
  7595  3121  3122   ar
  7596  3121  3127   ar
  7597  6408  6407    2
  7598  4755  4756    1
  7599  4840  4841    1
  7600  4840  4842    1
  7601  4720  4719   ar
  7602  4720  4723   ar
  7603  4899  4893   ar
  7604  3364  3365    1
  7605  3364  3362    1
  7606  2937  2942    1
  7607  3140  3145   ar
  7608  4747  4737    1
  7609  4747  4746   ar
  7610  4799  4815    1
  7611  4799  4798    1
  7612  6260  6261   ar
  7613  7758  7756   ar
  7614  7708  7709    1
  7615  6403  6404    1
  7616  6403  6401    1
  7617  6403  6405    1
  7618  6407  6406   ar
  7619  4718  4719   ar
  7620  4916  4915   ar
  7621  4916  4917   ar
  7622  3381  3380   ar
  7623  3377  3376   ar
  7624  3377  3378    2
  7625  4673  4672    1
  7626  6402  6401    1
  7627  6263  6244    2
  7628  3122  3125   ar
  7629  4756  4773    1
  7630  4797  4796    1
  7631  4797  4802    1
  7632  4897  4894   ar
  7633  4774  4775    1
  7634  4745  4746   ar
  7635  3139  3134    1
  7636  3139  3137    1
  7637  3139  3149    1
  7638  7761  7762    2
  7639  7761  7755   ar
  7640  4936  4935   ar
  7641  4775  4773    1
  7642  4697  4696   ar
  7643  4697  4700   ar
  7644  4787  4789   ar
  7645  4787  4788    2
  7646  4915  4914   ar
  7647  4934  4935   ar
  7648  3376  3379   ar
  7649  4815  4836    1
  7650  4815  4817    1
  7651  4737  4735    1
  7652  4737  4732    1
  7653  2924  2925   ar
  7654  4647  4663    1
  7655  4868  4869    1
  7656  7689  7688    1
  7657  3143  3149   ar
  7658  3143  3144   ar
  7659  2978  2956    2
  7660  4796  4798    1
  7661  4796  4794    1
  7662  4843  4842    1
  7663  4695  4696   ar
  7664  4795  4794    1
  7665  4820  4821    1
  7666  4820  4818    1
  7667  6412  6413   ar
  7668  4735  4733    1
  7669  7729  7734    1
  7670  4819  4818    1
  7671  3355  3354    1
  7672  4821  4837    1
  7673  6957  6956    1
  7674  6401  6399    1
  7675  3134  3133    1
  7676  2929  2928   ar
  7677  2939  2938    1
  7678  2939  2956    1
  7679  4719  4725   ar
  7680  4918  4917    1
  7681  3186  3185   ar
  7682  3186  3188   ar
  7683  3137  3135    1
  7684  7756  7755   ar
  7685  7756  7757    1
  7686  8280  8258    2
  7687  7713  7712    1
  7688  6406  6413   ar
  7689  6406  6405    1
  7690  4841  4846    1
  7691  4805  4804   ar
  7692  4805  4806   ar
  7693  6244  6262    1
  7694  6244  6246    1
  7695  4917  4912   ar
  7696  7742  7741   ar
  7697  7742  7735   ar
  7698  2938  2940    1
  7699  3155  3153    1
  7700  3155  3157    1
  7701  2922  2921   ar
  7702  7712  7714    1
  7703  4876  4869   ar
  7704  4876  4875   ar
  7705  6972  6973   ar
  7706  6972  6969   ar
  7707  7734  7735    1
  7708  6255  6256    2
  7709  6255  6254   ar
  7710  3349  3354   ar
  7711  3349  3350   ar
  7712  4802  4812    1
  7713  4802  4800    1
  7714  4842  4844    1
  7715  3149  3148   ar
  7716  4723  4724   ar
  7717  7741  7739   ar
  7718  4804  4803   ar
  7719  6973  6974   ar
  7720  4893  4894   ar
  7721  4893  4892   ar
  7722  4665  4663    1
  7723  4665  4664    1
  7724  3153  3154    1
  7725  4696  4702   ar
  7726  3159  3160    1
  7727  3159  3157    1
  7728  3380  3379   ar
  7729  8261  8259    1
  7730  8261  8263    1
  7731  3185  3183   ar
  7732  7735  7736   ar
  7733  2977  2956    1
  7734  4869  4870   ar
  7735  3127  3117    1
  7736  3127  3126   ar
  7737  4667  4672    1
  7738  4667  4666    1
  7739  4894  4895   ar
  7740  8258  8260    1
  7741  8258  8279    1
  7742  3362  3363    1
  7743  4798  4800    1
  7744  4682  4663    2
  7745  6261  6254   ar
  7746  2956  2958    1
  7747  4700  4701   ar
  7748  4914  4913   ar
  7749  4837  4857    2
  7750  4837  4858    1
  7751  6405  6400    1
  7752  8259  8260    1
  7753  4672  4670    1
  7754  3145  3144   ar
  7755  3145  3146    1
  7756  3117  3115    1
  7757  3117  3112    1
  7758  6959  6964    1
  7759  6959  6958    1
  7760  3188  3189   ar
  7761  6971  6970    1
  7762  3354  3353   ar
  7763  4773  4792    2
  7764  4773  4791    1
  7765  8265  8266    1
  7766  8265  8263    1
  7767  4751  4752    1
  7768  4817  4816    1
  7769  7739  7740    1
  7770  7739  7738   ar
  7771  4663  4681    1
  7772  4875  4873   ar
  7773  7736  7738   ar
  7774  7736  7737    2
  7775  6969  6970   ar
  7776  6969  6968   ar
  7777  3144  3147   ar
  7778  3116  3115    1
  7779  3125  3126   ar
  7780  8296  8295    2
  7781  4818  4816    1
  7782  2942  2940    1
  7783  2942  2953    1
  7784  3133  3135    1
  7785  3133  3131    1
  7786  3363  3361    1
  7787  6254  6253    1
  7788  3350  3351   ar
  7789  4806  4812   ar
  7790  4806  4807   ar
  7791  6974  6964    1
  7792  6974  6968   ar
  7793  7709  7714    1
  7794  4892  4890   ar
  7795  4912  4913   ar
  7796  4732  4731    1
  7797  6970  6965   ar
  7798  4812  4811   ar
  7799  2925  2928   ar
  7800  2925  2926   ar
  7801  3157  3158    1
  7802  4846  4844    1
  7803  4846  4856    1
  7804  4803  4808   ar
  7805  6964  6962    1
  7806  2952  2953   ar
  7807  2952  2951   ar
  7808  3183  3184    2
  7809  3183  3182   ar
  7810  3115  3113    1
  7811  4870  4871    2
  7812  4870  4872   ar
  7813  4800  4801    1
  7814  6968  6967   ar
  7815  7688  7686    1
  7816  7688  7690    1
  7817  3135  3136    1
  7818  8295  8294   ar
  7819  8295  8297   ar
  7820  6956  6958    1
  7821  3136  3152    1
  7822  4664  4666    1
  7823  6246  6245    1
  7824  2940  2941    1
  7825  7691  7690    1
  7826  4895  4896    2
  7827  4895  4889   ar
  7828  4725  4724   ar
  7829  4725  4714    1
  7830  8294  8292   ar
  7831  8263  8264    1
  7832  6391  6390    2
  7833  3189  3182   ar
  7834  7714  7715    1
  7835  2921  2926   ar
  7836  4733  4734    1
  7837  4733  4731    1
  7838  4752  4750    1
  7839  3148  3147   ar
  7840  6399  6400    1
  7841  6399  6397    1
  7842  3112  3111    1
  7843  2953  2947   ar
  7844  4702  4701   ar
  7845  4702  4692    1
  7846  6248  6253    1
  7847  6248  6247    1
  7848  6958  6960    1
  7849  6965  6966   ar
  7850  4873  4872   ar
  7851  4873  4874    2
  7852  4844  4845    1
  7853  6415  6396    2
  7854  8297  8298   ar
  7855  4666  4668    1
  7856  6398  6396    1
  7857  6398  6397    1
  7858  3353  3352   ar
  7859  3353  3356   ar
  7860  3182  3181    1
  7861  3154  3152    1
  7862  4807  4808   ar
  7863  4807  4810   ar
  7864  4890  4889   ar
  7865  4890  4891    1
  7866  7722  7715   ar
  7867  7722  7721   ar
  7868  3171  3152    2
  7869  6967  6966   ar
  7870  8292  8293    2
  7871  8292  8291   ar
  7872  7686  7684    1
  7873  7686  7687    1
  7874  7684  7685    1
  7875  4808  4809    1
  7876  4734  4750    1
  7877  2926  2927    1
  7878  3351  3352   ar
  7879  6245  6247    1
  7880  4811  4810   ar
  7881  7690  7692    1
  7882  4731  4729    1
  7883  3131  3132    1
  7884  4670  4668    1
  7885  4670  4671    1
  7886  3207  3206    2
  7887  6253  6251    1
  7888  2958  2957    1
  7889  2951  2948   ar
  7890  7715  7716   ar
  7891  4856  4855   ar
  7892  4856  4850   ar
  7893  8298  8291   ar
  7894  6390  6389   ar
  7895  6390  6392   ar
  7896  8291  8290    1
  7897  3352  3358   ar
  7898  3152  3170    1
  7899  3361  3383    2
  7900  3361  3382    1
  7901  3361  3345    1
  7902  3012  3011   ar
  7903  3012  3013   ar
  7904  3356  3357   ar
  7905  7721  7719   ar
  7906  6396  6414    1
  7907  6396  6382    1
  7908  4668  4669    1
  7909  3158  3172    1
  7910  6351  6331    2
  7911  4849  4850   ar
  7912  4849  4848   ar
  7913  4714  4712    1
  7914  4714  4709    1
  7915  8318  8317    2
  7916  7703  7683    2
  7917  3011  3016   ar
  7918  6963  6962    1
  7919  4855  4854   ar
  7920  6247  6249    1
  7921  3181  3176    1
  7922  3181  3179    1
  7923  4692  4687    1
  7924  4692  4690    1
  7925  6389  6387   ar
  7926  4750  4772    2
  7927  4750  4771    1
  7928  8285  8290    1
  7929  8285  8284    1
  7930  6962  6960    1
  7931  4850  4851   ar
  7932  3205  3206   ar
  7933  3205  3203   ar
  7934  8264  8281    1
  7935  6392  6393   ar
  7936  3113  3111    1
  7937  3113  3114    1
  7938  2947  2948   ar
  7939  2947  2946   ar
  7940  8290  8288    1
  7941  8311  8317   ar
  7942  8311  8312   ar
  7943  3013  3014   ar
  7944  3206  3208   ar
  7945  7716  7717    2
  7946  7716  7718   ar
  7947  3111  3109    1
  7948  6251  6249    1
  7949  6251  6252    1
  7950  6960  6961    1
  7951  3176  3175    1
  7952  4712  4713    1
  7953  4712  4710    1
  7954  8317  8316   ar
  7955  3360  3339    2
  7956  8313  8312    1
  7957  6329  6309    2
  7958  2957  2959    1
  7959  6395  6376    2
  7960  3132  3130    1
  7961  2974  2975   ar
  7962  2974  2971   ar
  7963  2948  2949   ar
  7964  3097  3096    1
  7965  7685  7683    1
  7966  7719  7718   ar
  7967  7719  7720    1
  7968  8312  8314   ar
  7969  4848  4847   ar
  7970  7687  7692    1
  7971  3204  3203    2
  7972  3357  3358   ar
  7973  6375  6353    2
  7974  3358  3348    1
  7975  4730  4729    1
  7976  4730  4728    1
  7977  2975  2976   ar
  7978  6352  6331    1
  7979  7692  7702    1
  7980  4687  4686    1
  7981  3227  3226    1
  7982  3346  3344    1
  7983  3346  3347    1
  7984  3346  3348    1
  7985  2946  2944   ar
  7986  6387  6388    2
  7987  6387  6386   ar
  7988  3203  3202   ar
  7989  3191  3172    2
  7990  4854  4851   ar
  7991  3016  3017    1
  7992  3016  3015   ar
  7993  3114  3130    1
  7994  3345  3344    1
  7995  3000  2979    2
  7996  4851  4852   ar
  7997  6393  6386   ar
  7998  4690  4691    1
  7999  4690  4688    1
  8000  3225  3226   ar
  8001  3225  3223   ar
  8002  6331  6315    1
  8003  6331  6333    1
  8004  7683  7704    1
  8005  7683  7667    1
  8006  4709  4708    1
  8007  8316  8319   ar
  8008  8316  8315   ar
  8009  6249  6250    1
  8010  3243  3242   ar
  8011  3243  3244   ar
  8012  2973  2972    2
  8013  3014  3015   ar
  8014  3014  3020   ar
  8015  3344  3342    1
  8016  3172  3174    1
  8017  3172  3190    1
  8018  3174  3173    1
  8019  8336  8335    1
  8020  3242  3247   ar
  8021  3224  3223    2
  8022  6382  6381    1
  8023  4669  4683    1
  8024  6992  6991    1
  8025  3009  3008    1
  8026  8300  8281    2
  8027  6292  6309    1
  8028  6292  6291    1
  8029  6394  6376    1
  8030  8314  8315   ar
  8031  8283  8281    1
  8032  8283  8282    1
  8033  3109  3110    1
  8034  3208  3209   ar
  8035  6386  6385    1
  8036  8284  8282    1
  8037  8284  8286    1
  8038  3179  3180    1
  8039  3179  3177    1
  8040  6381  6383    1
  8041  6381  6379    1
  8042  4710  4708    1
  8043  4710  4711    1
  8044  6307  6286    2
  8045  8281  8299    1
  8046  6376  6378    1
  8047  6376  6359    1
  8048  6370  6369    2
  8049  6374  6353    1
  8050  8319  8320   ar
  8051  8315  8321   ar
  8052  6961  6977    1
  8053  3093  3092    1
  8054  3015  3018   ar
  8055  3226  3228   ar
  8056  4847  4852   ar
  8057  6383  6385    1
  8058  6383  6384    1
  8059  4704  4683    2
  8060  3348  3343    1
  8061  6378  6377    1
  8062  3223  3222   ar
  8063  7702  7696   ar
  8064  7702  7701   ar
  8065  3244  3245   ar
  8066  2971  2972   ar
  8067  2971  2970   ar
  8068  2949  2950    2
  8069  2949  2943   ar
  8070  6309  6330    1
  8071  6309  6311    1
  8072  8288  8289    1
  8073  8288  8286    1
  8074  3130  3150    2
  8075  3130  3151    1
  8076  6993  6991   ar
  8077  6993  6994   ar
  8078  6315  6314    1
  8079  4852  4853    1
  8080  6991  6990   ar
  8081  3110  3108    1
  8082  4749  4728    2
  8083  8334  8335   ar
  8084  8334  8340   ar
  8085  6353  6355    1
  8086  6353  6337    1
  8087  3175  3173    1
  8088  3175  3177    1
  8089  4685  4683    1
  8090  4685  4684    1
  8091  3096  3098   ar
  8092  3096  3095   ar
  8093  8335  8337   ar
  8094  2959  2960    1
  8095  2959  2961    1
  8096  3341  3339    1
  8097  3341  3340    1
  8098  3339  3322    1
  8099  3339  3359    1
  8100  3010  3020    1
  8101  3010  3008    1
  8102  3010  3005    1
  8103  3020  3019   ar
  8104  7695  7696   ar
  8105  7695  7694   ar
  8106  2960  2965    1
  8107  3247  3248    1
  8108  3247  3246   ar
  8109  6308  6286    1
  8110  3008  3006    1
  8111  3328  3327    1
  8112  3202  3209   ar
  8113  3202  3201    1
  8114  2972  2966   ar
  8115  2944  2943   ar
  8116  2944  2945    1
  8117  6291  6293    1
  8118  6291  6289    1
  8119  4728  4711    1
  8120  4728  4748    1
  8121  8320  8321   ar
  8122  7696  7697   ar
  8123  6310  6311    1
  8124  6310  6312    1
  8125  4688  4686    1
  8126  4688  4689    1
  8127  4683  4703    1
  8128  6996  6977    2
  8129  7701  7700   ar
  8130  6333  6332    1
  8131  8321  8310    1
  8132  4708  4706    1
  8133  2976  2970   ar
  8134  2976  2965    1
  8135  3098  3099   ar
  8136  6994  6987   ar
  8137  7669  7668    1
  8138  6250  6264    1
  8139  6990  6988   ar
  8140  4686  4684    1
  8141  6294  6293    1
  8142  8341  8340    2
  8143  6369  6368   ar
  8144  6369  6363   ar
  8145  2961  2962    1
  8146  2961  2963    1
  8147  6385  6380    1
  8148  6371  6368   ar
  8149  6371  6372   ar
  8150  6286  6288    1
  8151  6286  6270    1
  8152  7667  7666    1
  8153  8340  8339   ar
  8154  3324  3323    1
  8155  8286  8287    1
  8156  3245  3246   ar
  8157  3245  3251   ar
  8158  3290  3289    1
  8159  6332  6334    1
  8160  3177  3178    1
  8161  3322  3321    1
  8162  8337  8338   ar
  8163  7694  7693   ar
  8164  2979  2962    1
  8165  2979  2999    1
  8166  2979  2981    1
  8167  3018  3019   ar
  8168  6355  6354    1
  8169  3246  3249   ar
  8170  3266  3265    2
  8171  6288  6287    1
  8172  3342  3343    1
  8173  3342  3340    1
  8174  6987  6988   ar
  8175  6987  6986    1
  8176  6293  6295    1
  8177  6368  6367   ar
  8178  6988  6989    2
  8179  6977  6979    1
  8180  6977  6995    1
  8181  2970  2969   ar
  8182  6377  6379    1
  8183  3095  3101   ar
  8184  6379  6380    1
  8185  8310  8305    1
  8186  8310  8308    1
  8187  3228  3229   ar
  8188  7697  7700   ar
  8189  7697  7698   ar
  8190  6314  6312    1
  8191  6314  6316    1
  8192  6287  6289    1
  8193  3201  3196    1
  8194  3201  3199    1
  8195  2965  2963    1
  8196  3222  3229   ar
  8197  3222  3221    1
  8198  4706  4707    1
  8199  3128  3108    2
  8200  6981  6986    1
  8201  6981  6980    1
  8202  3092  3094    1
  8203  3092  3090    1
  8204  7014  7013    2
  8205  6363  6364   ar
  8206  6359  6358    1
  8207  3091  3108    1
  8208  3091  3090    1
  8209  6337  6336    1
  8210  3005  3004    1
  8211  6312  6313    1
  8212  6372  6373   ar
  8213  3108  3129    1
  8214  8338  8339   ar
  8215  8338  8344   ar
  8216  3327  3329   ar
  8217  3327  3326   ar
  8218  8339  8342   ar
  8219  7668  7666    1
  8220  7668  7670    1
  8221  3329  3330   ar
  8222  3251  3241    1
  8223  3251  3250   ar
  8224  3196  3195    1
  8225  7693  7698   ar
  8226  2980  2981    1
  8227  2980  2982    1
  8228  6289  6290    1
  8229  3241  3236    1
  8230  3241  3239    1
  8231  6358  6360    1
  8232  6358  6356    1
  8233  6986  6984    1
  8234  3289  3284   ar
  8235  3289  3288   ar
  8236  8305  8304    1
  8237  2966  2967   ar
  8238  4727  4705    2
  8239  3249  3250   ar
  8240  3265  3267   ar
  8241  3265  3264   ar
  8242  4689  4705    1
  8243  7698  7699    1
  8244  7007  7013   ar
  8245  7007  7008   ar
  8246  6979  6978    1
  8247  2963  2964    1
  8248  7666  7664    1
  8249  6354  6356    1
  8250  3006  3007    1
  8251  3006  3004    1
  8252  7013  7012   ar
  8253  3240  3239    1
  8254  3099  3105   ar
  8255  3099  3100   ar
  8256  3323  3321    1
  8257  3323  3325    1
  8258  3221  3219    1
  8259  3221  3216    1
  8260  3284  3285   ar
  8261  6367  6373   ar
  8262  6367  6366   ar
  8263  3267  3268   ar
  8264  3094  3105    1
  8265  3094  3089    1
  8266  8359  8358    2
  8267  3321  3319    1
  8268  3178  3192    1
  8269  7009  7008    1
  8270  8344  8333    1
  8271  8344  8343   ar
  8272  6336  6334    1
  8273  6336  6338    1
  8274  6270  6269    1
  8275  8342  8343   ar
  8276  6334  6335    1
  8277  3325  3320    1
  8278  3325  3336    1
  8279  3263  3264    1
  8280  3263  3258    1
  8281  3263  3261    1
  8282  3007  3023    1
  8283  8287  8301    1
  8284  6264  6284    2
  8285  6264  6266    1
  8286  6264  6285    1
  8287  3090  3088    1
  8288  6373  6362    1
  8289  3291  3288   ar
  8290  3291  3292   ar
  8291  6364  6366   ar
  8292  6364  6365    1
  8293  2990  2991   ar
  8294  2990  2989   ar
  8295  7672  7673   ar
  8296  7672  7671   ar
  8297  3288  3287   ar
  8298  6978  6980    1
  8299  3236  3235    1
  8300  3004  3002    1
  8301  7673  7674   ar
  8302  4707  4705    1
  8303  3239  3237    1
  8304  3264  3271   ar
  8305  7008  7010   ar
  8306  3258  3257    1
  8307  8308  8309    1
  8308  8308  8306    1
  8309  8333  8328    1
  8310  8333  8331    1
  8311  3262  3261    1
  8312  2969  2967   ar
  8313  3326  3332   ar
  8314  4705  4726    1
  8315  8358  8360   ar
  8316  8358  8357   ar
  8317  6360  6362    1
  8318  6360  6361    1
  8319  6356  6357    1
  8320  3101  3100   ar
  8321  3101  3102    2
  8322  6980  6982    1
  8323  6316  6317    1
  8324  6316  6318    1
  8325  6266  6265    1
  8326  3199  3200    1
  8327  3199  3197    1
  8328  3330  3336   ar
  8329  3330  3331   ar
  8330  8360  8361   ar
  8331  6295  6290    1
  8332  6295  6306    1
  8333  3105  3104   ar
  8334  2967  2968    1
  8335  3042  3023    2
  8336  2991  2992   ar
  8337  7682  7661    2
  8338  3220  3219    1
  8339  3219  3217    1
  8340  2989  2994   ar
  8341  6305  6306   ar
  8342  6305  6304   ar
  8343  8356  8357    1
  8344  8356  8351    1
  8345  8356  8354    1
  8346  3320  3319    1
  8347  6313  6318    1
  8348  7012  7015   ar
  8349  7012  7011   ar
  8350  7670  7680    1
  8351  7670  7665    1
  8352  7671  7676   ar
  8353  3268  3269    2
  8354  3268  3270   ar
  8355  8357  8364   ar
  8356  3088  3089    1
  8357  3088  3086    1
  8358  8351  8350    1
  8359  3285  3286   ar
  8360  3336  3335   ar
  8361  3211  3192    2
  8362  2982  2983    1
  8363  2982  2984    1
  8364  3100  3103   ar
  8365  8303  8301    1
  8366  8303  8302    1
  8367  3319  3317    1
  8368  2983  2988    1
  8369  3194  3193    1
  8370  3194  3192    1
  8371  3195  3193    1
  8372  3195  3197    1
  8373  6269  6267    1
  8374  6269  6271    1
  8375  3216  3215    1
  8376  7674  7680   ar
  8377  7674  7675   ar
  8378  8328  8327    1
  8379  8332  8331    1
  8380  7664  7665    1
  8381  7664  7662    1
  8382  6265  6267    1
  8383  3261  3259    1
  8384  6362  6357    1
  8385  8361  8362    2
  8386  8361  8363   ar
  8387  3292  3293   ar
  8388  6335  6340    1
  8389  6349  6348   ar
  8390  6349  6350   ar
  8391  8304  8306    1
  8392  8304  8302    1
  8393  6984  6982    1
  8394  6984  6985    1
  8395  7010  7011   ar
  8396  3192  3210    1
  8397  3271  3270   ar
  8398  7015  7016   ar
  8399  3287  3286   ar
  8400  3287  3293   ar
  8401  3023  3041    1
  8402  3023  3025    1
  8403  7680  7679   ar
  8404  8301  8323    2
  8405  8301  8322    1
  8406  6306  6300   ar
  8407  8355  8354    1
  8408  3080  3079    1
  8409  7011  7017   ar
  8410  8331  8329    1
  8411  3257  3255    1
  8412  3257  3259    1
  8413  7032  7031    1
  8414  8364  8363   ar
  8415  6348  6345   ar
  8416  3059  3058    1
  8417  3078  3079   ar
  8418  3078  3076   ar
  8419  8306  8307    1
  8420  3197  3198    1
  8421  6327  6328   ar
  8422  6327  6326   ar
  8423  6318  6328    1
  8424  7676  7675   ar
  8425  7676  7677    1
  8426  6982  6983    1
  8427  3235  3237    1
  8428  3235  3233    1
  8429  6338  6340    1
  8430  6338  6339    1
  8431  6304  6301   ar
  8432  3332  3331   ar
  8433  3332  3333    2
  8434  7675  7678   ar
  8435  3331  3334   ar
  8436  3077  3076    2
  8437  6267  6268    1
  8438  3002  3003    1
  8439  3293  3283    1
  8440  3003  3001    1
  8441  2992  2993   ar
  8442  2992  2998   ar
  8443  3237  3238    1
  8444  2994  2995    1
  8445  2994  2993   ar
  8446  8354  8352    1
  8447  6328  6322   ar
  8448  7030  7031   ar
  8449  7030  7036   ar
  8450  3104  3103   ar
  8451  7662  7663    1
  8452  8350  8348    1
  8453  8350  8352    1
  8454  7679  7678   ar
  8455  6350  6340    1
  8456  6350  6344   ar
  8457  7016  7017   ar
  8458  6326  6323   ar
  8459  2984  2985    1
  8460  2984  2986    1
  8461  7661  7663    1
  8462  7661  7681    1
  8463  7661  7644    1
  8464  3079  3081   ar
  8465  6271  6272    1
  8466  6271  6273    1
  8467  3255  3256    1
  8468  3217  3215    1
  8469  3217  3218    1
  8470  7017  7006    1
  8471  3335  3334   ar
  8472  3259  3260    1
  8473  3076  3075   ar
  8474  3215  3213    1
  8475  3086  3087    1
  8476  7031  7033   ar
  8477  2988  2998    1
  8478  2988  2986    1
  8479  3021  3001    2
  8480  3278  3283    1
  8481  3278  3277    1
  8482  8327  8329    1
  8483  8327  8325    1
  8484  7037  7036    2
  8485  2993  2996   ar
  8486  3317  3318    1
  8487  2998  2997   ar
  8488  3025  3024    1
  8489  6345  6344   ar
  8490  6345  6346   ar
  8491  6300  6301   ar
  8492  6300  6299   ar
  8493  3238  3254    1
  8494  8411  8410    1
  8495  8348  8349    1
  8496  2985  3001    1
  8497  3233  3234    1
  8498  3058  3053   ar
  8499  3058  3057   ar
  8500  8329  8330    1
  8501  3283  3281    1
  8502  6301  6302   ar
  8503  7036  7035   ar
  8504  8307  8324    1
  8505  6322  6323   ar
  8506  6322  6321   ar
  8507  3318  3316    1
  8508  3001  3022    1
  8509  3198  3212    1
  8510  6282  6281   ar
  8511  6282  6283   ar
  8512  6323  6324   ar
  8513  6983  6997    1
  8514  8352  8353    1
  8515  8379  8378    1
  8516  6344  6343   ar
  8517  7006  7001    1
  8518  7006  7004    1
  8519  3214  3213    1
  8520  3214  3212    1
  8521  3260  3274    1
  8522  3087  3085    1
  8523  6268  6273    1
  8524  3053  3054   ar
  8525  6347  6346    1
  8526  8371  8370    1
  8527  8371  8376    1
  8528  3234  3232    1
  8529  6281  6278   ar
  8530  2986  2987    1
  8531  7644  7643    1
  8532  3218  3232    1
  8533  8349  8347    1
  8534  8394  8393    1
  8535  8394  8399    1
  8536  7001  7000    1
  8537  8326  8325    1
  8538  8326  8324    1
  8539  6273  6283    1
  8540  6346  6341   ar
  8541  8346  8324    2
  8542  3275  3277    1
  8543  3275  3276    1
  8544  7019  6997    2
  8545  6283  6277   ar
  8546  3256  3254    1
  8547  7033  7034   ar
  8548  8378  8380   ar
  8549  8378  8377   ar
  8550  6299  6297   ar
  8551  7053  7054   ar
  8552  7053  7058   ar
  8553  2996  2997   ar
  8554  8380  8381   ar
  8555  3277  3279    1
  8556  3081  3082   ar
  8557  6321  6320   ar
  8558  7059  7058    1
  8559  8393  8391    1
  8560  8393  8395    1
  8561  8410  8396    1
  8562  8410  8412    1
  8563  3075  3082   ar
  8564  3075  3074    1
  8565  8353  8367    1
  8566  8370  8368    1
  8567  8370  8372    1
  8568  3253  3232    2
  8569  3060  3057   ar
  8570  3060  3061   ar
  8571  3057  3056   ar
  8572  8324  8345    1
  8573  6324  6325    1
  8574  6324  6319   ar
  8575  3024  3026    1
  8576  8330  8347    1
  8577  8368  8369    1
  8578  8377  8383   ar
  8579  3039  3040   ar
  8580  3039  3037   ar
  8581  3064  3043    2
  8582  3254  3273    2
  8583  3254  3272    1
  8584  3212  3231    2
  8585  3212  3230    1
  8586  8396  8395    1
  8587  6278  6277   ar
  8588  6278  6279   ar
  8589  7054  7055   ar
  8590  3232  3252    1
  8591  8391  8392    1
  8592  7035  7034   ar
  8593  7035  7038   ar
  8594  3072  3073    1
  8595  3072  3074    1
  8596  3072  3070    1
  8597  7058  7057   ar
  8598  6302  6303    2
  8599  6302  6296   ar
  8600  6997  6999    1
  8601  6997  7018    1
  8602  6343  6342   ar
  8603  8381  8387   ar
  8604  8381  8382   ar
  8605  8376  8387    1
  8606  8376  8374    1
  8607  8402  8401    2
  8608  6277  6276   ar
  8609  3281  3279    1
  8610  3281  3282    1
  8611  3276  3274    1
  8612  6999  6998    1
  8613  7034  7040   ar
  8614  8387  8386   ar
  8615  7646  7645    1
  8616  3040  3033   ar
  8617  6320  6319   ar
  8618  3054  3055   ar
  8619  8399  8400    1
  8620  8399  8397    1
  8621  8383  8382   ar
  8622  8383  8384    2
  8623  7004  7005    1
  8624  7004  7002    1
  8625  6341  6342   ar
  8626  3274  3295    2
  8627  3274  3294    1
  8628  6280  6279    1
  8629  3074  3069    1
  8630  3316  3338    2
  8631  3316  3302    1
  8632  3316  3337    1
  8633  8382  8385   ar
  8634  8347  8366    2
  8635  8347  8365    1
  8636  6279  6274   ar
  8637  7643  7645    1
  8638  7643  7641    1
  8639  3038  3037    1
  8640  8401  8400   ar
  8641  8401  8403   ar
  8642  7076  7075   ar
  8643  7076  7077   ar
  8644  6297  6296   ar
  8645  6297  6298    1
  8646  8395  8397    1
  8647  3085  3106    2
  8648  3085  3071    1
  8649  3085  3107    1
  8650  7000  6998    1
  8651  7000  7002    1
  8652  7645  7647    1
  8653  3279  3280    1
  8654  8369  8367    1
  8655  3028  3029    1
  8656  3028  3026    1
  8657  3028  3030    1
  8658  8400  8407   ar
  8659  6276  6275   ar
  8660  8386  8385   ar
  8661  8373  8372    1
  8662  8373  8390    1
  8663  7055  7056   ar
  8664  3029  3043    1
  8665  7075  7080   ar
  8666  3026  3027    1
  8667  3302  3301    1
  8668  3037  3036   ar
  8669  7057  7056   ar
  8670  7057  7060   ar
  8671  3061  3062   ar
  8672  3070  3071    1
  8673  3070  3068    1
  8674  8372  8374    1
  8675  3056  3055   ar
  8676  3056  3062   ar
  8677  7038  7039   ar
  8678  8403  8404   ar
  8679  8367  8388    2
  8680  8367  8389    1
  8681  3027  3032    1
  8682  3043  3063    1
  8683  3043  3045    1
  8684  6274  6275   ar
  8685  7077  7078   ar
  8686  7002  7003    1
  8687  7056  7062   ar
  8688  8392  8390    1
  8689  8407  8406   ar
  8690  3280  3296    1
  8691  8374  8375    1
  8692  7040  7039   ar
  8693  7040  7029    1
  8694  8397  8398    1
  8695  7641  7639    1
  8696  7641  7642    1
  8697  3033  3032    1
  8698  3033  3034   ar
  8699  8404  8406   ar
  8700  8404  8405    2
  8701  7060  7061   ar
  8702  3062  3052    1
  8703  3069  3068    1
  8704  7080  7081    1
  8705  7080  7079   ar
  8706  7095  7094    1
  8707  3030  3032    1
  8708  3030  3031    1
  8709  7639  7640    1
  8710  7650  7649    1
  8711  8390  8408    2
  8712  8390  8409    1
  8713  7029  7024    1
  8714  7029  7027    1
  8715  3036  3034   ar
  8716  7062  7061   ar
  8717  7062  7052    1
  8718  3045  3044    1
  8719  7078  7079   ar
  8720  7078  7084   ar
  8721  3301  3299    1
  8722  3301  3303    1
  8723  7647  7642    1
  8724  7647  7658    1
  8725  3068  3066    1
  8726  7099  7098    2
  8727  3304  3303    1
  8728  7651  7649   ar
  8729  7651  7652   ar
  8730  7659  7638    2
  8731  7649  7648   ar
  8732  3034  3035    2
  8733  7640  7638    1
  8734  7024  7023    1
  8735  3084  3065    2
  8736  7096  7091    1
  8737  7096  7094    1
  8738  7096  7097    1
  8739  3067  3066    1
  8740  3067  3065    1
  8741  7079  7082   ar
  8742  7003  7020    1
  8743  3315  3296    2
  8744  7091  7090    1
  8745  7052  7047    1
  8746  7052  7050    1
  8747  3296  3314    1
  8748  3296  3298    1
  8749  7658  7652   ar
  8750  7658  7657   ar
  8751  7652  7653   ar
  8752  7073  7072    1
  8753  3299  3297    1
  8754  3299  3300    1
  8755  3303  3305    1
  8756  7094  7092    1
  8757  7028  7027    1
  8758  3297  3298    1
  8759  7098  7097   ar
  8760  7098  7100   ar
  8761  7084  7074    1
  8762  7084  7083   ar
  8763  7074  7072    1
  8764  7074  7069    1
  8765  3052  3050    1
  8766  3052  3047    1
  8767  7648  7654   ar
  8768  7027  7025    1
  8769  7097  7104   ar
  8770  7638  7660    1
  8771  7638  7624    1
  8772  7090  7092    1
  8773  7090  7088    1
  8774  7042  7020    2
  8775  3044  3046    1
  8776  3048  3050    1
  8777  3048  3046    1
  8778  3048  3049    1
  8779  7111  7110    1
  8780  7111  7116    1
  8781  7047  7046    1
  8782  3050  3051    1
  8783  3065  3049    1
  8784  3065  3083    1
  8785  7072  7070    1
  8786  3047  3046    1
  8787  7657  7656   ar
  8788  7653  7654   ar
  8789  7653  7656   ar
  8790  7082  7083   ar
  8791  7100  7101   ar
  8792  7020  7022    1
  8793  7020  7041    1
  8794  7654  7655    2
  8795  7110  7108    1
  8796  7110  7112    1
  8797  7108  7109    1
  8798  7023  7025    1
  8799  7023  7021    1
  8800  7092  7093    1
  8801  7050  7051    1
  8802  7050  7048    1
  8803  7093  7107    1
  8804  7116  7126    1
  8805  7116  7114    1
  8806  7115  7114    1
  8807  7069  7068    1
  8808  7104  7103   ar
  8809  3305  3300    1
  8810  3305  3306    1
  8811  7088  7089    1
  8812  7022  7021    1
  8813  7101  7103   ar
  8814  7101  7102    1
  8815  7025  7026    1
  8816  7624  7623    1
  8817  3308  3307    2
  8818  7126  7120   ar
  8819  7126  7125   ar
  8820  7046  7048    1
  8821  7046  7044    1
  8822  7119  7120   ar
  8823  7119  7118   ar
  8824  7070  7068    1
  8825  7070  7071    1
  8826  7114  7112    1
  8827  7626  7625    1
  8828  7120  7121   ar
  8829  7125  7124   ar
  8830  7026  7043    1
  8831  7048  7049    1
  8832  7068  7066    1
  8833  7109  7107    1
  8834  7112  7113    1
  8835  7044  7045    1
  8836  7045  7043    1
  8837  7118  7117   ar
  8838  7089  7087    1
  8839  7071  7087    1
  8840  3306  3307   ar
  8841  3306  3313   ar
  8842  7127  7107    2
  8843  7107  7128    1
  8844  3307  3309   ar
  8845  7625  7623    1
  8846  7625  7627    1
  8847  7113  7129    1
  8848  7064  7043    2
  8849  7121  7124   ar
  8850  7121  7122   ar
  8851  7623  7621    1
  8852  7043  7063    1
  8853  7117  7122   ar
  8854  7122  7123    1
  8855  7087  7105    2
  8856  7087  7106    1
  8857  7630  7629    2
  8858  7049  7065    1
  8859  7066  7067    1
  8860  3313  3312   ar
  8861  7067  7065    1
  8862  7133  7132    1
  8863  7133  7138    1
  8864  3309  3310   ar
  8865  7149  7129    2
  8866  7130  7131    1
  8867  7130  7132    1
  8868  7629  7631   ar
  8869  7629  7628   ar
  8870  7129  7131    1
  8871  7129  7150    1
  8872  7086  7065    2
  8873  7627  7628    1
  8874  7627  7622    1
  8875  7631  7632   ar
  8876  7621  7619    1
  8877  7621  7622    1
  8878  7628  7635   ar
  8879  7132  7134    1
  8880  7065  7085    1
  8881  7632  7633    2
  8882  7632  7634   ar
  8883  7138  7148    1
  8884  7138  7136    1
  8885  7147  7148   ar
  8886  7147  7146   ar
  8887  7635  7634   ar
  8888  3312  3310   ar
  8889  7619  7620    1
  8890  7148  7142   ar
  8891  3310  3311    2
  8892  7637  7618    2
  8893  7146  7143   ar
  8894  7620  7618    1
  8895  7636  7618    1
  8896  7142  7143   ar
  8897  7142  7141   ar
  8898  7143  7144   ar
  8899  7618  7604    1
  8900  7134  7136    1
  8901  7134  7135    1
  8902  7136  7137    1
  8903  7141  7140   ar
  8904  7144  7145    1
  8905  7144  7139   ar
  8906  7135  7151    1
  8907  7140  7139   ar
  8908  7606  7605    1
  8909  7604  7603    1
  8910  7605  7603    1
  8911  7605  7607    1
  8912  7613  7612    2
  8913  7151  7173    2
  8914  7151  7172    1
  8915  7151  7153    1
  8916  7603  7601    1
  8917  7612  7611   ar
  8918  7612  7614   ar
  8919  7611  7609   ar
  8920  7614  7615   ar
  8921  7609  7610    2
  8922  7609  7608   ar
  8923  7617  7598    2
  8924  7615  7608   ar
  8925  7608  7607    1
  8926  7155  7154    1
  8927  7155  7160    1
  8928  7607  7602    1
  8929  7152  7153    1
  8930  7152  7154    1
  8931  7170  7169   ar
  8932  7170  7171   ar
  8933  7169  7166   ar
  8934  7154  7156    1
  8935  7171  7160    1
  8936  7171  7165   ar
  8937  7160  7158    1
  8938  7601  7602    1
  8939  7601  7599    1
  8940  7600  7598    1
  8941  7600  7599    1
  8942  7598  7616    1
  8943  7598  7584    1
  8944  7166  7165   ar
  8945  7166  7167   ar
  8946  7165  7164   ar
  8947  7168  7167    2
  8948  7167  7161   ar
  8949  7554  7533    2
  8950  7593  7592    1
  8951  7164  7162   ar
  8952  7161  7162   ar
  8953  7597  7578    2
  8954  7162  7163    1
  8955  7156  7158    1
  8956  7156  7157    1
  8957  7158  7159    1
  8958  7577  7555    2
  8959  7592  7594   ar
  8960  7592  7591   ar
  8961  7576  7555    1
  8962  7553  7533    1
  8963  7584  7583    1
  8964  7594  7595   ar
  8965  7531  7511    2
  8966  7532  7511    1
  8967  7533  7517    1
  8968  7533  7535    1
  8969  7591  7589   ar
  8970  7157  7174    1
  8971  7555  7557    1
  8972  7555  7539    1
  8973  7583  7585    1
  8974  7583  7581    1
  8975  7189  7188    2
  8976  7519  7518    1
  8977  7578  7596    1
  8978  7578  7580    1
  8979  7578  7561    1
  8980  7580  7579    1
  8981  7595  7588   ar
  8982  7511  7513    1
  8983  7511  7497    1
  8984  7516  7518    1
  8985  7516  7517    1
  8986  7516  7514    1
  8987  7585  7586    1
  8988  7585  7587    1
  8989  7518  7520    1
  8990  7589  7588   ar
  8991  7589  7590    2
  8992  7193  7174    2
  8993  7534  7535    1
  8994  7534  7536    1
  8995  7188  7190   ar
  8996  7188  7187   ar
  8997  7190  7191   ar
  8998  7509  7491    2
  8999  7513  7512    1
  9000  7588  7587    1
  9001  7557  7556    1
  9002  7572  7571    2
  9003  7539  7538    1
  9004  7174  7176    1
  9005  7174  7192    1
  9006  7573  7574   ar
  9007  7573  7570   ar
  9008  7512  7514    1
  9009  7579  7581    1
  9010  7191  7184   ar
  9011  7187  7185   ar
  9012  7581  7582    1
  9013  7587  7582    1
  9014  7561  7560    1
  9015  7514  7515    1
  9016  7497  7496    1
  9017  7536  7538    1
  9018  7536  7537    1
  9019  7574  7575   ar
  9020  7538  7540    1
  9021  7571  7570   ar
  9022  7571  7565   ar
  9023  7176  7175    1
  9024  7510  7491    1
  9025  7556  7558    1
  9026  7491  7493    1
  9027  7491  7477    1
  9028  7570  7569   ar
  9029  7184  7185   ar
  9030  7184  7183    1
  9031  7560  7558    1
  9032  7560  7562    1
  9033  7520  7530    1
  9034  7520  7515    1
  9035  7529  7530   ar
  9036  7529  7528   ar
  9037  7185  7186    2
  9038  7492  7493    1
  9039  7492  7494    1
  9040  7178  7183    1
  9041  7178  7177    1
  9042  7530  7524   ar
  9043  7489  7471    2
  9044  7528  7525   ar
  9045  7496  7494    1
  9046  7496  7498    1
  9047  7183  7181    1
  9048  7558  7559    1
  9049  7565  7566   ar
  9050  7575  7569   ar
  9051  7575  7564    1
  9052  7569  7568   ar
  9053  7537  7542    1
  9054  7562  7564    1
  9055  7562  7563    1
  9056  7477  7476    1
  9057  7494  7495    1
  9058  7175  7177    1
  9059  7524  7525   ar
  9060  7524  7523   ar
  9061  7525  7526   ar
  9062  7551  7550   ar
  9063  7551  7552   ar
  9064  7540  7541    1
  9065  7540  7542    1
  9066  7177  7179    1
  9067  7559  7564    1
  9068  7566  7568   ar
  9069  7566  7567    1
  9070  7550  7547   ar
  9071  7523  7522   ar
  9072  7471  7490    1
  9073  7471  7473    1
  9074  7471  7457    1
  9075  7542  7552    1
  9076  7498  7499    1
  9077  7498  7500    1
  9078  7552  7546   ar
  9079  7526  7527    1
  9080  7526  7521   ar
  9081  7181  7179    1
  9082  7181  7182    1
  9083  7476  7474    1
  9084  7476  7478    1
  9085  7495  7500    1
  9086  7179  7180    1
  9087  7522  7521   ar
  9088  7472  7473    1
  9089  7472  7474    1
  9090  7508  7507   ar
  9091  7508  7501   ar
  9092  7457  7456    1
  9093  7547  7546   ar
  9094  7547  7548   ar
  9095  7507  7505   ar
  9096  7500  7501    1
  9097  7546  7545   ar
  9098  7474  7475    1
  9099  7501  7502   ar
  9100  7478  7479    1
  9101  7478  7480    1
  9102  7505  7506    2
  9103  7505  7504   ar
  9104  7215  7194    2
  9105  7469  7451    2
  9106  7549  7548    1
  9107  7548  7543   ar
  9108  7502  7504   ar
  9109  7502  7503    2
  9110  7180  7194    1
  9111  7452  7454    1
  9112  7452  7453    1
  9113  7545  7544   ar
  9114  7210  7209    1
  9115  7456  7454    1
  9116  7456  7458    1
  9117  7475  7480    1
  9118  7454  7455    1
  9119  7488  7487   ar
  9120  7488  7481   ar
  9121  7543  7544   ar
  9122  7194  7214    1
  9123  7194  7196    1
  9124  7480  7481    1
  9125  7453  7451    1
  9126  7231  7230    2
  9127  7487  7485   ar
  9128  7209  7208   ar
  9129  7209  7204   ar
  9130  7451  7470    1
  9131  7451  7434    1
  9132  7211  7208   ar
  9133  7211  7212   ar
  9134  7481  7482   ar
  9135  7459  7458    1
  9136  7458  7460    1
  9137  7208  7207   ar
  9138  7204  7205   ar
  9139  7485  7486    1
  9140  7485  7484   ar
  9141  7196  7195    1
  9142  7212  7213   ar
  9143  7195  7197    1
  9144  7434  7433    1
  9145  7482  7484   ar
  9146  7482  7483    2
  9147  7455  7460    1
  9148  7230  7229   ar
  9149  7230  7232   ar
  9150  7207  7213   ar
  9151  7207  7206   ar
  9152  7460  7461    1
  9153  7205  7206   ar
  9154  7213  7203    1
  9155  7468  7461   ar
  9156  7468  7467   ar
  9157  7229  7227   ar
  9158  7198  7197    1
  9159  7198  7203    1
  9160  7461  7462   ar
  9161  7232  7233   ar
  9162  7467  7465   ar
  9163  7197  7199    1
  9164  7248  7247    1
  9165  7433  7435    1
  9166  7433  7431    1
  9167  7449  7428    2
  9168  7246  7247   ar
  9169  7246  7252   ar
  9170  7203  7201    1
  9171  7247  7249   ar
  9172  7462  7463    2
  9173  7462  7464   ar
  9174  7253  7252    2
  9175  7252  7251   ar
  9176  7465  7464   ar
  9177  7465  7466    1
  9178  7436  7435    1
  9179  7435  7437    1
  9180  7201  7199    1
  9181  7201  7202    1
  9182  7249  7250   ar
  9183  7227  7228    2
  9184  7227  7226   ar
  9185  7429  7431    1
  9186  7429  7430    1
  9187  7431  7432    1
  9188  7233  7226   ar
  9189  7199  7200    1
  9190  7251  7250   ar
  9191  7251  7254   ar
  9192  7430  7428    1
  9193  7250  7256   ar
  9194  7271  7270    1
  9195  7428  7450    1
  9196  7428  7414    1
  9197  7254  7255   ar
  9198  7226  7225    1
  9199  7256  7255   ar
  9200  7256  7245    1
  9201  7270  7269   ar
  9202  7270  7272   ar
  9203  7245  7240    1
  9204  7245  7243    1
  9205  7269  7275   ar
  9206  7240  7239    1
  9207  7437  7432    1
  9208  7437  7448    1
  9209  7200  7216    1
  9210  7272  7273   ar
  9211  7234  7216    2
  9212  7275  7276    2
  9213  7275  7274   ar
  9214  7448  7442   ar
  9215  7448  7447   ar
  9216  7441  7442   ar
  9217  7441  7439   ar
  9218  7414  7413    1
  9219  7273  7274   ar
  9220  7273  7279   ar
  9221  7442  7443   ar
  9222  7440  7439    1
  9223  7447  7446   ar
  9224  7439  7438   ar
  9225  7274  7277   ar
  9226  7244  7243    1
  9227  7225  7220    1
  9228  7225  7223    1
  9229  7216  7218    1
  9230  7216  7235    1
  9231  7243  7241    1
  9232  7443  7446   ar
  9233  7443  7444   ar
  9234  7294  7293    2
  9235  7267  7266    1
  9236  7268  7279    1
  9237  7268  7266    1
  9238  7268  7263    1
  9239  7279  7278   ar
  9240  7438  7444   ar
  9241  7239  7237    1
  9242  7239  7241    1
  9243  7218  7217    1
  9244  7444  7445    2
  9245  7277  7278   ar
  9246  7220  7219    1
  9247  7223  7221    1
  9248  7223  7224    1
  9249  7237  7238    1
  9250  7413  7415    1
  9251  7413  7411    1
  9252  7293  7295   ar
  9253  7293  7292   ar
  9254  7266  7264    1
  9255  7238  7236    1
  9256  7263  7262    1
  9257  7295  7296   ar
  9258  7221  7219    1
  9259  7221  7222    1
  9260  7241  7242    1
  9261  7290  7289    1
  9262  7416  7415    1
  9263  7291  7292    1
  9264  7291  7286    1
  9265  7291  7289    1
  9266  7415  7417    1
  9267  7292  7299   ar
  9268  7217  7219    1
  9269  7296  7297    1
  9270  7296  7298   ar
  9271  7286  7285    1
  9272  7411  7409    1
  9273  7411  7412    1
  9274  7409  7410    1
  9275  7289  7287    1
  9276  7262  7264    1
  9277  7262  7260    1
  9278  7258  7236    2
  9279  7299  7298   ar
  9280  7242  7259    1
  9281  7222  7236    1
  9282  7236  7257    1
  9283  7314  7313    1
  9284  7264  7265    1
  9285  7306  7311    1
  9286  7306  7305    1
  9287  7261  7260    1
  9288  7261  7259    1
  9289  7315  7313   ar
  9290  7315  7316   ar
  9291  7265  7282    1
  9292  7285  7287    1
  9293  7285  7283    1
  9294  7410  7408    1
  9295  7313  7312   ar
  9296  7311  7322    1
  9297  7311  7309    1
  9298  7417  7412    1
  9299  7417  7418    1
  9300  7420  7419    2
  9301  7281  7259    2
  9302  7284  7283    1
  9303  7284  7282    1
  9304  7259  7280    1
  9305  7316  7322   ar
  9306  7316  7317   ar
  9307  7287  7288    1
  9308  7418  7419   ar
  9309  7418  7425   ar
  9310  7419  7421   ar
  9311  7322  7321   ar
  9312  7310  7309    1
  9313  7312  7318   ar
  9314  7305  7303    1
  9315  7305  7307    1
  9316  7425  7424   ar
  9317  7421  7422   ar
  9318  7303  7304    1
  9319  7317  7318   ar
  9320  7317  7320   ar
  9321  7309  7307    1
  9322  7422  7424   ar
  9323  7422  7423    1
  9324  7321  7320   ar
  9325  7318  7319    2
  9326  7282  7301    2
  9327  7282  7300    1
  9328  7288  7302    1
  9329  7408  7426    2
  9330  7408  7427    1
  9331  7408  7391    1
  9332  7307  7308    1
  9333  7393  7392    1
  9334  7304  7302    1
  9335  7392  7390    1
  9336  7392  7394    1
  9337  7391  7390    1
  9338  7308  7325    1
  9339  7360  7359    2
  9340  7302  7324    2
  9341  7302  7323    1
  9342  7403  7404   ar
  9343  7403  7400   ar
  9344  7404  7405   ar
  9345  7390  7388    1
  9346  7358  7359   ar
  9347  7358  7356   ar
  9348  7402  7401    2
  9349  7329  7334    1
  9350  7329  7328    1
  9351  7400  7401   ar
  9352  7400  7399   ar
  9353  7405  7394    1
  9354  7405  7399   ar
  9355  7401  7395   ar
  9356  7359  7361   ar
  9357  7334  7335    1
  9358  7334  7332    1
  9359  7394  7389    1
  9360  7357  7356    2
  9361  7399  7398   ar
  9362  7327  7325    1
  9363  7327  7326    1
  9364  7395  7396   ar
  9365  7333  7332    1
  9366  7337  7336    2
  9367  7335  7336   ar
  9368  7335  7342   ar
  9369  7398  7396   ar
  9370  7356  7355   ar
  9371  7325  7343    2
  9372  7325  7344    1
  9373  7396  7397    1
  9374  7336  7338   ar
  9375  7342  7341   ar
  9376  7328  7326    1
  9377  7328  7330    1
  9378  7338  7339   ar
  9379  7341  7339   ar
  9380  7388  7389    1
  9381  7388  7386    1
  9382  7332  7330    1
  9383  7339  7340    2
  9384  7361  7362   ar
  9385  7355  7362   ar
  9386  7355  7354    1
  9387  7330  7331    1
  9388  7386  7387    1
  9389  7352  7353    1
  9390  7352  7354    1
  9391  7352  7350    1
  9392  7331  7345    1
  9393  7354  7349    1
  9394  7350  7351    1
  9395  7350  7348    1
  9396  7387  7385    1
  9397  7367  7366    1
  9398  7367  7365    1
  9399  7351  7365    1
  9400  7369  7368    1
  9401  7369  7374    1
  9402  7366  7368    1
  9403  7349  7348    1
  9404  7345  7363    2
  9405  7345  7347    1
  9406  7345  7364    1
  9407  7368  7370    1
  9408  7377  7376    2
  9409  7378  7376   ar
  9410  7378  7379   ar
  9411  7380  7379    1
  9412  7376  7375   ar
  9413  7407  7385    2
  9414  7379  7381   ar
  9415  7375  7374    1
  9416  7375  7382   ar
  9417  7381  7382   ar
  9418  7374  7372    1
  9419  7365  7383    2
  9420  7365  7384    1
  9421  7348  7346    1
  9422  7385  7406    1
  9423  7385  7371    1
  9424  7347  7346    1
  9425  7370  7371    1
  9426  7370  7372    1
  9427  7372  7373    1
