1nta_lig
 OpenBabel11021811403D
libRbt.so/2013.1/901 2013/11/27
 40 42  0  0  0  0  0  0  0  0999 V2000
    9.2098   33.5459   -0.6441 C   0  0  0  0  0  0  0  0  0  0  0  0
    9.6261   32.5513   -1.3352 N   0  0  0  0  0  0  0  0  0  0  0  0
    0.3582   35.1276   -4.6699 C   0  0  0  0  0  0  0  0  0  0  0  0
   -0.0312   34.6235   -5.7002 O   0  0  0  0  0  0  0  0  0  0  0  0
    3.7017   35.8625    1.1475 C   0  0  0  0  0  0  0  0  0  0  0  0
    3.2432   34.6478    1.3022 N   0  0  0  0  0  0  0  0  0  0  0  0
    0.4193   31.9886   -3.5724 C   0  0  0  0  0  0  0  0  0  0  0  0
    1.8584   39.3401   -2.4915 C   0  0  0  0  0  0  0  0  0  0  0  0
    6.9028   34.0010   -0.9105 C   0  0  2  0  0  0  0  0  0  0  0  0
    8.0192   33.3931   -0.0840 N   0  0  0  0  0  0  0  0  0  0  0  0
    1.6841   34.6536   -1.5257 C   0  0  2  0  0  0  0  0  0  0  0  0
    0.3653   37.0241   -0.6791 C   0  0  1  0  0  0  0  0  0  0  0  0
   -0.2058   36.0369   -1.4645 O   0  0  0  0  0  0  0  0  0  0  0  0
    6.0234   34.9062   -0.0272 C   0  0  1  0  0  0  0  0  0  0  0  0
    6.8312   35.9516    0.4229 O   0  0  0  0  0  0  0  0  0  0  0  0
    0.6605   35.4815   -2.2952 C   0  0  2  0  0  0  0  0  0  0  0  0
    0.1786   38.4393   -1.1801 C   0  0  1  0  0  0  0  0  0  0  0  0
    0.6611   38.5167   -2.5156 N   0  0  0  0  0  0  0  0  0  0  0  0
    4.8599   35.5317   -0.8082 C   0  0  2  0  0  0  0  0  0  0  0  0
    3.9889   36.4065    0.0129 N   0  0  0  0  0  0  0  0  0  0  0  0
    0.2158   34.5133   -3.3031 C   0  0  1  0  0  0  0  0  0  0  0  0
   -1.1409   34.1808   -3.0013 O   0  0  0  0  0  0  0  0  0  0  0  0
   -1.1606   38.8030   -1.1632 C   0  0  2  0  0  0  0  0  0  0  0  0
   -1.2263   40.1943   -1.3504 O   0  0  0  0  0  0  0  0  0  0  0  0
    4.0245   34.4038   -1.3928 C   0  0  1  0  0  0  0  0  0  0  0  0
    2.9525   34.9876   -2.1166 O   0  0  0  0  0  0  0  0  0  0  0  0
    1.0303   33.2980   -3.1798 C   0  0  1  0  0  0  0  0  0  0  0  0
    1.4439   33.2965   -1.8190 O   0  0  0  0  0  0  0  0  0  0  0  0
   -1.7846   38.4438    0.1598 C   0  0  1  0  0  0  0  0  0  0  0  0
   -3.1703   38.5962    0.0643 O   0  0  0  0  0  0  0  0  0  0  0  0
    4.8988   33.5132   -2.3208 C   0  0  2  0  0  0  0  0  0  0  0  0
    4.0958   32.4682   -2.8672 O   0  0  0  0  0  0  0  0  0  0  0  0
   -1.4916   37.0187    0.4848 C   0  0  1  0  0  0  0  0  0  0  0  0
   -0.1037   36.8784    0.5816 O   0  0  0  0  0  0  0  0  0  0  0  0
    6.0489   32.8970   -1.4970 C   0  0  1  0  0  0  0  0  0  0  0  0
    6.8687   32.0687   -2.3377 O   0  0  0  0  0  0  0  0  0  0  0  0
   -2.0979   36.6178    1.8442 C   0  0  0  0  0  0  0  0  0  0  0  0
   -1.5462   37.4426    2.8642 O   0  0  0  0  0  0  0  0  0  0  0  0
    9.8977   34.6273   -0.5042 N   0  0  0  0  0  0  0  0  0  0  0  0
    3.8715   36.6097    2.1669 N   0  0  0  0  0  0  0  0  0  0  0  0
  1  2  1  0  0  0  0
  1 39  1  0  0  0  0
  3  4  1  0  0  0  0
  5  6  1  0  0  0  0
  5 40  1  0  0  0  0
  9 10  1  1  0  0  0
  9 14  1  0  0  0  0
  9 35  1  0  0  0  0
 10  1  1  0  0  0  0
 11 16  1  0  0  0  0
 11 28  1  0  0  0  0
 11 26  1  6  0  0  0
 12 17  1  0  0  0  0
 12 34  1  0  0  0  0
 12 13  1  6  0  0  0
 14 15  1  6  0  0  0
 14 19  1  0  0  0  0
 16 13  1  1  0  0  0
 16 21  1  0  0  0  0
 17 18  1  6  0  0  0
 17 23  1  0  0  0  0
 18  8  1  0  0  0  0
 19 20  1  1  0  0  0
 19 25  1  0  0  0  0
 20  5  1  0  0  0  0
 21  3  1  6  0  0  0
 21 22  1  0  0  0  0
 21 27  1  0  0  0  0
 23 24  1  1  0  0  0
 23 29  1  0  0  0  0
 25 26  1  6  0  0  0
 25 31  1  0  0  0  0
 27  7  1  1  0  0  0
 27 28  1  0  0  0  0
 29 30  1  6  0  0  0
 29 33  1  0  0  0  0
 31 32  1  1  0  0  0
 31 35  1  0  0  0  0
 33 34  1  0  0  0  0
 33 37  1  1  0  0  0
 35 36  1  6  0  0  0
 37 38  1  0  0  0  0
M  END
>  <CHROM.1>
-129.86591007,-96.24652713,173.16966989,96.93058191,68.88918850,-111.27608193
-45.15405803,-50.12073205,-173.40954047,-115.93445828,-59.90333943,2.44002741
35.47954824,-1.15670845,-0.29147250,-0.31456132,0.85420781

>  <Name>
1nta_lig

>  <RI>
0

>  <Rbt.Current_Directory>
/home/itssahil/PROJECTS/Mol_Feturizer/New_Systems/rnas/1nta

>  <Rbt.Executable>
rbdock ($Id: //depot/dev/client3/rdock/2013.1/src/exe/rbdock.cxx#4 $)

>  <Rbt.Library>
libRbt.so (2013.1, Build901 2013/11/27)

>  <Rbt.Parameter_File>
/export/apps/rDock/src/rDock_2013.1_src/data/scripts/dock_solv.prm

>  <Rbt.Receptor>
prm/pocket_docking_2.prm

>  <SCORE>
-19.8412

>  <SCORE.INTER>
-2.44412

>  <SCORE.INTER.CONST>
1

>  <SCORE.INTER.POLAR>
-1.17913

>  <SCORE.INTER.ROT>
11

>  <SCORE.INTER.SOLV>
24.4647

>  <SCORE.INTER.VDW>
-16.7872

>  <SCORE.INTER.norm>
-0.061103

>  <SCORE.INTRA>
-17.5675

>  <SCORE.INTRA.DIHEDRAL>
-2.45385

>  <SCORE.INTRA.DIHEDRAL.0>
19.0336

>  <SCORE.INTRA.POLAR>
0

>  <SCORE.INTRA.POLAR.0>
0

>  <SCORE.INTRA.REPUL>
0

>  <SCORE.INTRA.REPUL.0>
0

>  <SCORE.INTRA.SOLV>
-0.781981

>  <SCORE.INTRA.SOLV.lig_0>
-97.5861

>  <SCORE.INTRA.VDW>
-15.9496

>  <SCORE.INTRA.VDW.0>
11.7669

>  <SCORE.INTRA.norm>
-0.439187

>  <SCORE.RESTR>
0.170447

>  <SCORE.RESTR.CAVITY>
0.170447

>  <SCORE.RESTR.norm>
0.00426116

>  <SCORE.SYSTEM>
0

>  <SCORE.SYSTEM.CONST>
0

>  <SCORE.SYSTEM.DIHEDRAL>
0

>  <SCORE.SYSTEM.SOLV>
0

>  <SCORE.SYSTEM.norm>
0

>  <SCORE.heavy>
40

>  <SCORE.norm>
-0.496029

>  <RMSD>
0.727

$$$$
1nta_lig
 OpenBabel11021811403D
libRbt.so/2013.1/901 2013/11/27
 40 42  0  0  0  0  0  0  0  0999 V2000
    9.1726   33.5371   -0.6632 C   0  0  0  0  0  0  0  0  0  0  0  0
    9.5803   32.5431   -1.3602 N   0  0  0  0  0  0  0  0  0  0  0  0
    0.3403   35.1918   -4.6860 C   0  0  0  0  0  0  0  0  0  0  0  0
   -0.0501   34.7250   -5.7334 O   0  0  0  0  0  0  0  0  0  0  0  0
    3.8165   35.9122    1.2386 C   0  0  0  0  0  0  0  0  0  0  0  0
    4.1856   36.5344    2.3278 N   0  0  0  0  0  0  0  0  0  0  0  0
    0.4264   32.0194   -3.6911 C   0  0  0  0  0  0  0  0  0  0  0  0
    1.9556   39.2927   -2.4399 C   0  0  0  0  0  0  0  0  0  0  0  0
    6.8670   34.0062   -0.9168 C   0  0  2  0  0  0  0  0  0  0  0  0
    7.9838   33.3885   -0.0981 N   0  0  0  0  0  0  0  0  0  0  0  0
    1.6462   34.6291   -1.5481 C   0  0  2  0  0  0  0  0  0  0  0  0
    0.2887   36.9766   -0.6549 C   0  0  1  0  0  0  0  0  0  0  0  0
   -0.2588   35.9898   -1.4574 O   0  0  0  0  0  0  0  0  0  0  0  0
    5.9802   34.8904   -0.0197 C   0  0  1  0  0  0  0  0  0  0  0  0
    6.7813   35.9312    0.4524 O   0  0  0  0  0  0  0  0  0  0  0  0
    0.6200   35.4709   -2.2986 C   0  0  2  0  0  0  0  0  0  0  0  0
    0.2180   38.3802   -1.2148 C   0  0  1  0  0  0  0  0  0  0  0  0
    0.8205   38.3873   -2.5028 N   0  0  0  0  0  0  0  0  0  0  0  0
    4.8161   35.5245   -0.7927 C   0  0  2  0  0  0  0  0  0  0  0  0
    3.9381   36.3795    0.0417 N   0  0  0  0  0  0  0  0  0  0  0  0
    0.1936   34.5317   -3.3412 C   0  0  1  0  0  0  0  0  0  0  0  0
   -1.1617   34.1754   -3.0617 O   0  0  0  0  0  0  0  0  0  0  0  0
   -1.0977   38.8065   -1.3305 C   0  0  2  0  0  0  0  0  0  0  0  0
   -1.0771   40.1918   -1.5663 O   0  0  0  0  0  0  0  0  0  0  0  0
    3.9882   34.4036   -1.4010 C   0  0  1  0  0  0  0  0  0  0  0  0
    2.9157   34.9954   -2.1172 O   0  0  0  0  0  0  0  0  0  0  0  0
    1.0201   33.3216   -3.2510 C   0  0  1  0  0  0  0  0  0  0  0  0
    1.4229   33.2798   -1.8875 O   0  0  0  0  0  0  0  0  0  0  0  0
   -1.8539   38.5243   -0.0588 C   0  0  1  0  0  0  0  0  0  0  0  0
   -3.2163   38.7379   -0.2840 O   0  0  0  0  0  0  0  0  0  0  0  0
    4.8699   33.5348   -2.3426 C   0  0  2  0  0  0  0  0  0  0  0  0
    4.0740   32.4962   -2.9110 O   0  0  0  0  0  0  0  0  0  0  0  0
   -1.6623   37.0995    0.3358 C   0  0  1  0  0  0  0  0  0  0  0  0
   -0.2972   36.8980    0.5622 O   0  0  0  0  0  0  0  0  0  0  0  0
    6.0205   32.9091   -1.5267 C   0  0  1  0  0  0  0  0  0  0  0  0
    6.8472   32.1007   -2.3799 O   0  0  0  0  0  0  0  0  0  0  0  0
   -2.4062   36.7761    1.6466 C   0  0  0  0  0  0  0  0  0  0  0  0
   -1.8383   37.5366    2.7069 O   0  0  0  0  0  0  0  0  0  0  0  0
    9.8670   34.6142   -0.5220 N   0  0  0  0  0  0  0  0  0  0  0  0
    3.3145   34.7424    1.3169 N   0  0  0  0  0  0  0  0  0  0  0  0
  1  2  1  0  0  0  0
  1 39  1  0  0  0  0
  3  4  1  0  0  0  0
  5  6  1  0  0  0  0
  5 40  1  0  0  0  0
  9 10  1  1  0  0  0
  9 14  1  0  0  0  0
  9 35  1  0  0  0  0
 10  1  1  0  0  0  0
 11 16  1  0  0  0  0
 11 28  1  0  0  0  0
 11 26  1  6  0  0  0
 12 17  1  0  0  0  0
 12 34  1  0  0  0  0
 12 13  1  6  0  0  0
 14 15  1  6  0  0  0
 14 19  1  0  0  0  0
 16 13  1  1  0  0  0
 16 21  1  0  0  0  0
 17 18  1  6  0  0  0
 17 23  1  0  0  0  0
 18  8  1  0  0  0  0
 19 20  1  1  0  0  0
 19 25  1  0  0  0  0
 20  5  1  0  0  0  0
 21  3  1  6  0  0  0
 21 22  1  0  0  0  0
 21 27  1  0  0  0  0
 23 24  1  1  0  0  0
 23 29  1  0  0  0  0
 25 26  1  6  0  0  0
 25 31  1  0  0  0  0
 27  7  1  1  0  0  0
 27 28  1  0  0  0  0
 29 30  1  6  0  0  0
 29 33  1  0  0  0  0
 31 32  1  1  0  0  0
 31 35  1  0  0  0  0
 33 34  1  0  0  0  0
 33 37  1  1  0  0  0
 35 36  1  6  0  0  0
 37 38  1  0  0  0  0
M  END
>  <CHROM.1>
-130.98166574,-96.26153334,172.94911900,89.63002075,70.16730829,-118.43942526
-35.24172939,118.60435850,-172.45564530,-116.73967534,-64.28024705,2.41596259
35.49269965,-1.20148782,-0.27862042,-0.32032834,0.85301553

>  <Name>
1nta_lig

>  <RI>
0

>  <Rbt.Current_Directory>
/home/itssahil/PROJECTS/Mol_Feturizer/New_Systems/rnas/1nta

>  <Rbt.Executable>
rbdock ($Id: //depot/dev/client3/rdock/2013.1/src/exe/rbdock.cxx#4 $)

>  <Rbt.Library>
libRbt.so (2013.1, Build901 2013/11/27)

>  <Rbt.Parameter_File>
/export/apps/rDock/src/rDock_2013.1_src/data/scripts/dock_solv.prm

>  <Rbt.Receptor>
prm/pocket_docking_2.prm

>  <SCORE>
-19.4617

>  <SCORE.INTER>
-2.52617

>  <SCORE.INTER.CONST>
1

>  <SCORE.INTER.POLAR>
-1.12406

>  <SCORE.INTER.ROT>
11

>  <SCORE.INTER.SOLV>
24.8386

>  <SCORE.INTER.VDW>
-17.1501

>  <SCORE.INTER.norm>
-0.0631541

>  <SCORE.INTRA>
-17.0471

>  <SCORE.INTRA.DIHEDRAL>
-3.56707

>  <SCORE.INTRA.DIHEDRAL.0>
19.0336

>  <SCORE.INTRA.POLAR>
0

>  <SCORE.INTRA.POLAR.0>
0

>  <SCORE.INTRA.REPUL>
0

>  <SCORE.INTRA.REPUL.0>
0

>  <SCORE.INTRA.SOLV>
-0.621575

>  <SCORE.INTRA.SOLV.lig_0>
-97.5861

>  <SCORE.INTRA.VDW>
-14.9527

>  <SCORE.INTRA.VDW.0>
11.7669

>  <SCORE.INTRA.norm>
-0.426176

>  <SCORE.RESTR>
0.111495

>  <SCORE.RESTR.CAVITY>
0.111495

>  <SCORE.RESTR.norm>
0.00278738

>  <SCORE.SYSTEM>
0

>  <SCORE.SYSTEM.CONST>
0

>  <SCORE.SYSTEM.DIHEDRAL>
0

>  <SCORE.SYSTEM.SOLV>
0

>  <SCORE.SYSTEM.norm>
0

>  <SCORE.heavy>
40

>  <SCORE.norm>
-0.486543

>  <RMSD>
0.753

$$$$
1nta_lig
 OpenBabel11021811403D
libRbt.so/2013.1/901 2013/11/27
 40 42  0  0  0  0  0  0  0  0999 V2000
    9.3537   33.4484   -0.9849 C   0  0  0  0  0  0  0  0  0  0  0  0
    9.9340   32.6682   -1.8184 N   0  0  0  0  0  0  0  0  0  0  0  0
    0.4049   35.7953   -4.5153 C   0  0  0  0  0  0  0  0  0  0  0  0
   -0.1299   35.6601   -5.5938 O   0  0  0  0  0  0  0  0  0  0  0  0
    3.9290   35.4537    1.1122 C   0  0  0  0  0  0  0  0  0  0  0  0
    3.0205   34.5150    1.1704 N   0  0  0  0  0  0  0  0  0  0  0  0
    0.4775   32.4754   -4.3286 C   0  0  0  0  0  0  0  0  0  0  0  0
    2.3079   38.9631   -1.4334 C   0  0  0  0  0  0  0  0  0  0  0  0
    7.0249   33.7647   -1.2628 C   0  0  2  0  0  0  0  0  0  0  0  0
    8.1635   33.0488   -0.5626 N   0  0  0  0  0  0  0  0  0  0  0  0
    1.7914   34.4747   -1.6514 C   0  0  2  0  0  0  0  0  0  0  0  0
    0.4839   36.5614   -0.1831 C   0  0  1  0  0  0  0  0  0  0  0  0
   -0.0923   35.7830   -1.1729 O   0  0  0  0  0  0  0  0  0  0  0  0
    6.2167   34.5935   -0.2465 C   0  0  1  0  0  0  0  0  0  0  0  0
    7.0752   35.5677    0.2651 O   0  0  0  0  0  0  0  0  0  0  0  0
    0.7555   35.4805   -2.1418 C   0  0  2  0  0  0  0  0  0  0  0  0
    0.4356   38.0543   -0.4229 C   0  0  1  0  0  0  0  0  0  0  0  0
    1.0240   38.3315   -1.6875 N   0  0  0  0  0  0  0  0  0  0  0  0
    5.0339   35.3232   -0.8972 C   0  0  2  0  0  0  0  0  0  0  0  0
    4.2300   36.1280    0.0537 N   0  0  0  0  0  0  0  0  0  0  0  0
    0.2876   34.8272   -3.3687 C   0  0  1  0  0  0  0  0  0  0  0  0
   -1.0638   34.4212   -3.1433 O   0  0  0  0  0  0  0  0  0  0  0  0
   -0.8724   38.5185   -0.4231 C   0  0  2  0  0  0  0  0  0  0  0  0
   -0.8263   39.9213   -0.3519 O   0  0  0  0  0  0  0  0  0  0  0  0
    4.1387   34.2815   -1.5495 C   0  0  1  0  0  0  0  0  0  0  0  0
    3.0490   34.9617   -2.1524 O   0  0  0  0  0  0  0  0  0  0  0  0
    1.1004   33.6270   -3.6021 C   0  0  1  0  0  0  0  0  0  0  0  0
    1.5409   33.2507   -2.3031 O   0  0  0  0  0  0  0  0  0  0  0  0
   -1.6202   37.9791    0.7679 C   0  0  1  0  0  0  0  0  0  0  0  0
   -2.9803   38.2604    0.6152 O   0  0  0  0  0  0  0  0  0  0  0  0
    4.9400   33.4720   -2.6084 C   0  0  2  0  0  0  0  0  0  0  0  0
    4.0815   32.5081   -3.2159 O   0  0  0  0  0  0  0  0  0  0  0  0
   -1.4532   36.4994    0.8400 C   0  0  1  0  0  0  0  0  0  0  0  0
   -0.0901   36.2296    0.9963 O   0  0  0  0  0  0  0  0  0  0  0  0
    6.1119   32.7474   -1.9136 C   0  0  1  0  0  0  0  0  0  0  0  0
    6.8650   31.9920   -2.8765 O   0  0  0  0  0  0  0  0  0  0  0  0
   -2.1892   35.9111    2.0600 C   0  0  0  0  0  0  0  0  0  0  0  0
   -3.5921   35.9537    1.8255 O   0  0  0  0  0  0  0  0  0  0  0  0
    9.8861   34.5523   -0.5847 N   0  0  0  0  0  0  0  0  0  0  0  0
    4.5749   35.7755    2.1636 N   0  0  0  0  0  0  0  0  0  0  0  0
  1  2  1  0  0  0  0
  1 39  1  0  0  0  0
  3  4  1  0  0  0  0
  5  6  1  0  0  0  0
  5 40  1  0  0  0  0
  9 10  1  1  0  0  0
  9 14  1  0  0  0  0
  9 35  1  0  0  0  0
 10  1  1  0  0  0  0
 11 16  1  0  0  0  0
 11 28  1  0  0  0  0
 11 26  1  6  0  0  0
 12 17  1  0  0  0  0
 12 34  1  0  0  0  0
 12 13  1  6  0  0  0
 14 15  1  6  0  0  0
 14 19  1  0  0  0  0
 16 13  1  1  0  0  0
 16 21  1  0  0  0  0
 17 18  1  6  0  0  0
 17 23  1  0  0  0  0
 18  8  1  0  0  0  0
 19 20  1  1  0  0  0
 19 25  1  0  0  0  0
 20  5  1  0  0  0  0
 21  3  1  6  0  0  0
 21 22  1  0  0  0  0
 21 27  1  0  0  0  0
 23 24  1  1  0  0  0
 23 29  1  0  0  0  0
 25 26  1  6  0  0  0
 25 31  1  0  0  0  0
 27  7  1  1  0  0  0
 27 28  1  0  0  0  0
 29 30  1  6  0  0  0
 29 33  1  0  0  0  0
 31 32  1  1  0  0  0
 31 35  1  0  0  0  0
 33 34  1  0  0  0  0
 33 37  1  1  0  0  0
 35 36  1  6  0  0  0
 37 38  1  0  0  0  0
M  END
>  <CHROM.1>
-116.53367190,-101.17976616,167.99922666,87.59633459,71.30330847,-107.92334248
-48.31182271,-75.08372891,-164.96460512,-123.24605807,72.28881667,2.51605888
35.30189155,-1.14416285,-0.28744901,-0.25999199,0.96850627

>  <Name>
1nta_lig

>  <RI>
0

>  <Rbt.Current_Directory>
/home/itssahil/PROJECTS/Mol_Feturizer/New_Systems/rnas/1nta

>  <Rbt.Executable>
rbdock ($Id: //depot/dev/client3/rdock/2013.1/src/exe/rbdock.cxx#4 $)

>  <Rbt.Library>
libRbt.so (2013.1, Build901 2013/11/27)

>  <Rbt.Parameter_File>
/export/apps/rDock/src/rDock_2013.1_src/data/scripts/dock_solv.prm

>  <Rbt.Receptor>
prm/pocket_docking_2.prm

>  <SCORE>
-19.4951

>  <SCORE.INTER>
-1.90119

>  <SCORE.INTER.CONST>
1

>  <SCORE.INTER.POLAR>
-1.02493

>  <SCORE.INTER.ROT>
11

>  <SCORE.INTER.SOLV>
24.0307

>  <SCORE.INTER.VDW>
-16.7946

>  <SCORE.INTER.norm>
-0.0475298

>  <SCORE.INTRA>
-17.9793

>  <SCORE.INTRA.DIHEDRAL>
-2.45681

>  <SCORE.INTRA.DIHEDRAL.0>
19.0336

>  <SCORE.INTRA.POLAR>
0

>  <SCORE.INTRA.POLAR.0>
0

>  <SCORE.INTRA.REPUL>
0

>  <SCORE.INTRA.REPUL.0>
0

>  <SCORE.INTRA.SOLV>
0.261495

>  <SCORE.INTRA.SOLV.lig_0>
-97.5861

>  <SCORE.INTRA.VDW>
-16.8816

>  <SCORE.INTRA.VDW.0>
11.7669

>  <SCORE.INTRA.norm>
-0.449482

>  <SCORE.RESTR>
0.385341

>  <SCORE.RESTR.CAVITY>
0.385341

>  <SCORE.RESTR.norm>
0.00963352

>  <SCORE.SYSTEM>
0

>  <SCORE.SYSTEM.CONST>
0

>  <SCORE.SYSTEM.DIHEDRAL>
0

>  <SCORE.SYSTEM.SOLV>
0

>  <SCORE.SYSTEM.norm>
0

>  <SCORE.heavy>
40

>  <SCORE.norm>
-0.487378

>  <RMSD>
0.759

$$$$
1nta_lig
 OpenBabel11021811403D
libRbt.so/2013.1/901 2013/11/27
 40 42  0  0  0  0  0  0  0  0999 V2000
    9.1808   33.5306   -0.6288 C   0  0  0  0  0  0  0  0  0  0  0  0
    9.5844   32.5142   -1.2951 N   0  0  0  0  0  0  0  0  0  0  0  0
    0.3344   35.2230   -4.6476 C   0  0  0  0  0  0  0  0  0  0  0  0
   -0.0238   34.7112   -5.6854 O   0  0  0  0  0  0  0  0  0  0  0  0
    3.6749   35.8627    1.1772 C   0  0  0  0  0  0  0  0  0  0  0  0
    4.4848   35.7909    2.2013 N   0  0  0  0  0  0  0  0  0  0  0  0
    0.3514   32.0749   -3.5752 C   0  0  0  0  0  0  0  0  0  0  0  0
    1.9503   39.3459   -2.5478 C   0  0  0  0  0  0  0  0  0  0  0  0
    6.8802   34.0220   -0.8867 C   0  0  2  0  0  0  0  0  0  0  0  0
    7.9911   33.4043   -0.0600 N   0  0  0  0  0  0  0  0  0  0  0  0
    1.6673   34.7034   -1.5137 C   0  0  2  0  0  0  0  0  0  0  0  0
    0.3790   37.1189   -0.6742 C   0  0  1  0  0  0  0  0  0  0  0  0
   -0.2004   36.1156   -1.4326 O   0  0  0  0  0  0  0  0  0  0  0  0
    5.9944   34.9161    0.0015 C   0  0  1  0  0  0  0  0  0  0  0  0
    6.7987   35.9561    0.4699 O   0  0  0  0  0  0  0  0  0  0  0  0
    0.6532   35.5533   -2.2717 C   0  0  2  0  0  0  0  0  0  0  0  0
    0.2364   38.5176   -1.2328 C   0  0  1  0  0  0  0  0  0  0  0  0
    0.7466   38.5317   -2.5601 N   0  0  0  0  0  0  0  0  0  0  0  0
    4.8361   35.5507   -0.7798 C   0  0  2  0  0  0  0  0  0  0  0  0
    3.9591   36.4152    0.0459 N   0  0  0  0  0  0  0  0  0  0  0  0
    0.1887   34.6002   -3.2851 C   0  0  1  0  0  0  0  0  0  0  0  0
   -1.1715   34.2866   -2.9794 O   0  0  0  0  0  0  0  0  0  0  0  0
   -1.0937   38.9129   -1.2572 C   0  0  2  0  0  0  0  0  0  0  0  0
   -1.1221   40.2970   -1.4989 O   0  0  0  0  0  0  0  0  0  0  0  0
    4.0052   34.4299   -1.3839 C   0  0  1  0  0  0  0  0  0  0  0  0
    2.9380   35.0222   -2.1079 O   0  0  0  0  0  0  0  0  0  0  0  0
    0.9847   33.3714   -3.1752 C   0  0  1  0  0  0  0  0  0  0  0  0
    1.4044   33.3526   -1.8164 O   0  0  0  0  0  0  0  0  0  0  0  0
   -1.7519   38.6201    0.0656 C   0  0  1  0  0  0  0  0  0  0  0  0
   -3.1314   38.8011   -0.0640 O   0  0  0  0  0  0  0  0  0  0  0  0
    4.8861   33.5510   -2.3167 C   0  0  2  0  0  0  0  0  0  0  0  0
    4.0873   32.5125   -2.8814 O   0  0  0  0  0  0  0  0  0  0  0  0
   -1.4999   37.2022    0.4510 C   0  0  1  0  0  0  0  0  0  0  0  0
   -0.1179   37.0333    0.5814 O   0  0  0  0  0  0  0  0  0  0  0  0
    6.0308   32.9250   -1.4927 C   0  0  1  0  0  0  0  0  0  0  0  0
    6.8567   32.1073   -2.3377 O   0  0  0  0  0  0  0  0  0  0  0  0
   -2.1421   36.8687    1.8121 C   0  0  0  0  0  0  0  0  0  0  0  0
   -3.5568   36.9753    1.7006 O   0  0  0  0  0  0  0  0  0  0  0  0
    9.8797   34.6085   -0.5201 N   0  0  0  0  0  0  0  0  0  0  0  0
    2.5140   35.3399    1.2503 N   0  0  0  0  0  0  0  0  0  0  0  0
  1  2  1  0  0  0  0
  1 39  1  0  0  0  0
  3  4  1  0  0  0  0
  5  6  1  0  0  0  0
  5 40  1  0  0  0  0
  9 10  1  1  0  0  0
  9 14  1  0  0  0  0
  9 35  1  0  0  0  0
 10  1  1  0  0  0  0
 11 16  1  0  0  0  0
 11 28  1  0  0  0  0
 11 26  1  6  0  0  0
 12 17  1  0  0  0  0
 12 34  1  0  0  0  0
 12 13  1  6  0  0  0
 14 15  1  6  0  0  0
 14 19  1  0  0  0  0
 16 13  1  1  0  0  0
 16 21  1  0  0  0  0
 17 18  1  6  0  0  0
 17 23  1  0  0  0  0
 18  8  1  0  0  0  0
 19 20  1  1  0  0  0
 19 25  1  0  0  0  0
 20  5  1  0  0  0  0
 21  3  1  6  0  0  0
 21 22  1  0  0  0  0
 21 27  1  0  0  0  0
 23 24  1  1  0  0  0
 23 29  1  0  0  0  0
 25 26  1  6  0  0  0
 25 31  1  0  0  0  0
 27  7  1  1  0  0  0
 27 28  1  0  0  0  0
 29 30  1  6  0  0  0
 29 33  1  0  0  0  0
 31 32  1  1  0  0  0
 31 35  1  0  0  0  0
 33 34  1  0  0  0  0
 33 37  1  1  0  0  0
 35 36  1  6  0  0  0
 37 38  1  0  0  0  0
M  END
>  <CHROM.1>
-131.68475845,-97.21756688,172.43105717,93.75097160,70.95603966,-112.22560760
-44.52872707,76.80669195,-176.24775003,-114.73702504,64.47168062,2.37628084
35.52333660,-1.19701962,-0.28493491,-0.30755419,0.82344458

>  <Name>
1nta_lig

>  <RI>
0

>  <Rbt.Current_Directory>
/home/itssahil/PROJECTS/Mol_Feturizer/New_Systems/rnas/1nta

>  <Rbt.Executable>
rbdock ($Id: //depot/dev/client3/rdock/2013.1/src/exe/rbdock.cxx#4 $)

>  <Rbt.Library>
libRbt.so (2013.1, Build901 2013/11/27)

>  <Rbt.Parameter_File>
/export/apps/rDock/src/rDock_2013.1_src/data/scripts/dock_solv.prm

>  <Rbt.Receptor>
prm/pocket_docking_2.prm

>  <SCORE>
-20.3198

>  <SCORE.INTER>
-3.41101

>  <SCORE.INTER.CONST>
1

>  <SCORE.INTER.POLAR>
-1.14915

>  <SCORE.INTER.ROT>
11

>  <SCORE.INTER.SOLV>
23.6854

>  <SCORE.INTER.VDW>
-17.272

>  <SCORE.INTER.norm>
-0.0852754

>  <SCORE.INTRA>
-16.9825

>  <SCORE.INTRA.DIHEDRAL>
-2.90381

>  <SCORE.INTRA.DIHEDRAL.0>
19.0336

>  <SCORE.INTRA.POLAR>
0

>  <SCORE.INTRA.POLAR.0>
0

>  <SCORE.INTRA.REPUL>
0.0201783

>  <SCORE.INTRA.REPUL.0>
0

>  <SCORE.INTRA.SOLV>
0.810838

>  <SCORE.INTRA.SOLV.lig_0>
-97.5861

>  <SCORE.INTRA.VDW>
-16.0369

>  <SCORE.INTRA.VDW.0>
11.7669

>  <SCORE.INTRA.norm>
-0.424562

>  <SCORE.RESTR>
0.0736503

>  <SCORE.RESTR.CAVITY>
0.0736503

>  <SCORE.RESTR.norm>
0.00184126

>  <SCORE.SYSTEM>
0

>  <SCORE.SYSTEM.CONST>
0

>  <SCORE.SYSTEM.DIHEDRAL>
0

>  <SCORE.SYSTEM.SOLV>
0

>  <SCORE.SYSTEM.norm>
0

>  <SCORE.heavy>
40

>  <SCORE.norm>
-0.507996

>  <RMSD>
0.783

$$$$
1nta_lig
 OpenBabel11021811403D
libRbt.so/2013.1/901 2013/11/27
 40 42  0  0  0  0  0  0  0  0999 V2000
    9.2713   33.4369   -0.7051 C   0  0  0  0  0  0  0  0  0  0  0  0
    9.9657   34.5063   -0.5856 N   0  0  0  0  0  0  0  0  0  0  0  0
    0.4461   35.7207   -4.0990 C   0  0  0  0  0  0  0  0  0  0  0  0
    1.4223   36.3869   -4.3643 O   0  0  0  0  0  0  0  0  0  0  0  0
    3.8201   35.9216    1.5359 C   0  0  0  0  0  0  0  0  0  0  0  0
    2.5960   35.4850    1.6802 N   0  0  0  0  0  0  0  0  0  0  0  0
    0.8174   32.4290   -3.8022 C   0  0  0  0  0  0  0  0  0  0  0  0
    2.0868   38.9664   -1.2725 C   0  0  0  0  0  0  0  0  0  0  0  0
    6.9883   34.0600   -0.7105 C   0  0  2  0  0  0  0  0  0  0  0  0
    8.1525   33.4009    0.0031 N   0  0  0  0  0  0  0  0  0  0  0  0
    1.7451   34.6121   -1.1070 C   0  0  2  0  0  0  0  0  0  0  0  0
    0.0808   36.7367    0.0962 C   0  0  1  0  0  0  0  0  0  0  0  0
   -0.2825   35.7449   -0.7993 O   0  0  0  0  0  0  0  0  0  0  0  0
    6.2279   34.9841    0.2596 C   0  0  1  0  0  0  0  0  0  0  0  0
    7.1119   35.9933    0.6441 O   0  0  0  0  0  0  0  0  0  0  0  0
    0.6563   35.5010   -1.6984 C   0  0  2  0  0  0  0  0  0  0  0  0
    0.0827   38.1433   -0.4608 C   0  0  1  0  0  0  0  0  0  0  0  0
    0.9159   38.1756   -1.6127 N   0  0  0  0  0  0  0  0  0  0  0  0
    5.0217   35.6618   -0.4042 C   0  0  2  0  0  0  0  0  0  0  0  0
    4.2629   36.5560    0.5028 N   0  0  0  0  0  0  0  0  0  0  0  0
    0.3398   34.7751   -2.9328 C   0  0  1  0  0  0  0  0  0  0  0  0
   -0.9800   34.2469   -2.7868 O   0  0  0  0  0  0  0  0  0  0  0  0
   -1.1978   38.5406   -0.8197 C   0  0  2  0  0  0  0  0  0  0  0  0
   -1.1666   39.9280   -1.0412 O   0  0  0  0  0  0  0  0  0  0  0  0
    4.0948   34.5730   -0.9210 C   0  0  1  0  0  0  0  0  0  0  0  0
    2.9834   35.2050   -1.5367 O   0  0  0  0  0  0  0  0  0  0  0  0
    1.2764   33.6530   -3.0721 C   0  0  1  0  0  0  0  0  0  0  0  0
    1.6575   33.3537   -1.7349 O   0  0  0  0  0  0  0  0  0  0  0  0
   -2.1722   38.2299    0.2860 C   0  0  1  0  0  0  0  0  0  0  0  0
   -3.4728   38.4144   -0.1901 O   0  0  0  0  0  0  0  0  0  0  0  0
    4.8465   33.6644   -1.9350 C   0  0  2  0  0  0  0  0  0  0  0  0
    3.9585   32.6567   -2.4159 O   0  0  0  0  0  0  0  0  0  0  0  0
   -2.0239   36.8064    0.7033 C   0  0  1  0  0  0  0  0  0  0  0  0
   -0.7210   36.6340    1.1811 O   0  0  0  0  0  0  0  0  0  0  0  0
    6.0437   32.9957   -1.2273 C   0  0  1  0  0  0  0  0  0  0  0  0
    6.7515   32.1501   -2.1486 O   0  0  0  0  0  0  0  0  0  0  0  0
   -2.9926   36.4545    1.8496 C   0  0  0  0  0  0  0  0  0  0  0  0
   -2.6831   37.2535    2.9858 O   0  0  0  0  0  0  0  0  0  0  0  0
    9.6352   32.4564   -1.4590 N   0  0  0  0  0  0  0  0  0  0  0  0
    4.6682   35.7494    2.4726 N   0  0  0  0  0  0  0  0  0  0  0  0
  1  2  1  0  0  0  0
  1 39  1  0  0  0  0
  3  4  1  0  0  0  0
  5  6  1  0  0  0  0
  5 40  1  0  0  0  0
  9 10  1  1  0  0  0
  9 14  1  0  0  0  0
  9 35  1  0  0  0  0
 10  1  1  0  0  0  0
 11 16  1  0  0  0  0
 11 28  1  0  0  0  0
 11 26  1  6  0  0  0
 12 17  1  0  0  0  0
 12 34  1  0  0  0  0
 12 13  1  6  0  0  0
 14 15  1  6  0  0  0
 14 19  1  0  0  0  0
 16 13  1  1  0  0  0
 16 21  1  0  0  0  0
 17 18  1  6  0  0  0
 17 23  1  0  0  0  0
 18  8  1  0  0  0  0
 19 20  1  1  0  0  0
 19 25  1  0  0  0  0
 20  5  1  0  0  0  0
 21  3  1  6  0  0  0
 21 22  1  0  0  0  0
 21 27  1  0  0  0  0
 23 24  1  1  0  0  0
 23 29  1  0  0  0  0
 25 26  1  6  0  0  0
 25 31  1  0  0  0  0
 27  7  1  1  0  0  0
 27 28  1  0  0  0  0
 29 30  1  6  0  0  0
 29 33  1  0  0  0  0
 31 32  1  1  0  0  0
 31 35  1  0  0  0  0
 33 34  1  0  0  0  0
 33 37  1  1  0  0  0
 35 36  1  6  0  0  0
 37 38  1  0  0  0  0
M  END
>  <CHROM.1>
-134.26876739,85.27111452,172.79960485,72.93354060,79.61152470,-111.13548705
-58.61940116,-100.11330000,54.67920014,-133.21145881,-62.18275884,2.44696887
35.51505834,-0.80369786,-0.27992617,-0.27628117,0.92300140

>  <Name>
1nta_lig

>  <RI>
0

>  <Rbt.Current_Directory>
/home/itssahil/PROJECTS/Mol_Feturizer/New_Systems/rnas/1nta

>  <Rbt.Executable>
rbdock ($Id: //depot/dev/client3/rdock/2013.1/src/exe/rbdock.cxx#4 $)

>  <Rbt.Library>
libRbt.so (2013.1, Build901 2013/11/27)

>  <Rbt.Parameter_File>
/export/apps/rDock/src/rDock_2013.1_src/data/scripts/dock_solv.prm

>  <Rbt.Receptor>
prm/pocket_docking_2.prm

>  <SCORE>
-22.9087

>  <SCORE.INTER>
-6.04911

>  <SCORE.INTER.CONST>
1

>  <SCORE.INTER.POLAR>
-1.83792

>  <SCORE.INTER.ROT>
11

>  <SCORE.INTER.SOLV>
25.2391

>  <SCORE.INTER.VDW>
-17.2527

>  <SCORE.INTER.norm>
-0.151228

>  <SCORE.INTRA>
-17.8361

>  <SCORE.INTRA.DIHEDRAL>
-6.21946

>  <SCORE.INTRA.DIHEDRAL.0>
19.0336

>  <SCORE.INTRA.POLAR>
0

>  <SCORE.INTRA.POLAR.0>
0

>  <SCORE.INTRA.REPUL>
0

>  <SCORE.INTRA.REPUL.0>
0

>  <SCORE.INTRA.SOLV>
2.1787

>  <SCORE.INTRA.SOLV.lig_0>
-97.5861

>  <SCORE.INTRA.VDW>
-15.8157

>  <SCORE.INTRA.VDW.0>
11.7669

>  <SCORE.INTRA.norm>
-0.445901

>  <SCORE.RESTR>
0.976506

>  <SCORE.RESTR.CAVITY>
0.976506

>  <SCORE.RESTR.norm>
0.0244127

>  <SCORE.SYSTEM>
0

>  <SCORE.SYSTEM.CONST>
0

>  <SCORE.SYSTEM.DIHEDRAL>
0

>  <SCORE.SYSTEM.SOLV>
0

>  <SCORE.SYSTEM.norm>
0

>  <SCORE.heavy>
40

>  <SCORE.norm>
-0.572717

>  <RMSD>
0.802

$$$$
1nta_lig
 OpenBabel11021811403D
libRbt.so/2013.1/901 2013/11/27
 40 42  0  0  0  0  0  0  0  0999 V2000
    9.1854   33.5419   -0.6611 C   0  0  0  0  0  0  0  0  0  0  0  0
    9.5738   32.5623   -1.3888 N   0  0  0  0  0  0  0  0  0  0  0  0
    0.3591   35.2324   -4.6650 C   0  0  0  0  0  0  0  0  0  0  0  0
   -0.1931   36.2719   -4.9509 O   0  0  0  0  0  0  0  0  0  0  0  0
    3.7770   35.8751    1.2403 C   0  0  0  0  0  0  0  0  0  0  0  0
    4.1054   36.4639    2.3607 N   0  0  0  0  0  0  0  0  0  0  0  0
    0.5002   32.0233   -3.8030 C   0  0  0  0  0  0  0  0  0  0  0  0
    1.9904   39.1520   -2.3343 C   0  0  0  0  0  0  0  0  0  0  0  0
    6.8770   34.0040   -0.9028 C   0  0  2  0  0  0  0  0  0  0  0  0
    8.0004   33.3927   -0.0883 N   0  0  0  0  0  0  0  0  0  0  0  0
    1.6494   34.5640   -1.5415 C   0  0  2  0  0  0  0  0  0  0  0  0
    0.2226   36.8841   -0.6007 C   0  0  1  0  0  0  0  0  0  0  0  0
   -0.2832   35.8820   -1.4116 O   0  0  0  0  0  0  0  0  0  0  0  0
    5.9939   34.8904   -0.0043 C   0  0  1  0  0  0  0  0  0  0  0  0
    6.7956   35.9352    0.4579 O   0  0  0  0  0  0  0  0  0  0  0  0
    0.6129   35.4163   -2.2656 C   0  0  2  0  0  0  0  0  0  0  0  0
    0.1803   38.2770   -1.1894 C   0  0  1  0  0  0  0  0  0  0  0  0
    0.8477   38.2609   -2.4450 N   0  0  0  0  0  0  0  0  0  0  0  0
    4.8236   35.5183   -0.7729 C   0  0  2  0  0  0  0  0  0  0  0  0
    3.9489   36.3752    0.0630 N   0  0  0  0  0  0  0  0  0  0  0  0
    0.2143   34.5136   -3.3505 C   0  0  1  0  0  0  0  0  0  0  0  0
   -1.1359   34.1192   -3.0987 O   0  0  0  0  0  0  0  0  0  0  0  0
   -1.1278   38.6997   -1.3799 C   0  0  2  0  0  0  0  0  0  0  0  0
   -1.0955   40.0804   -1.6400 O   0  0  0  0  0  0  0  0  0  0  0  0
    3.9944   34.3927   -1.3707 C   0  0  1  0  0  0  0  0  0  0  0  0
    2.9161   34.9788   -2.0829 O   0  0  0  0  0  0  0  0  0  0  0  0
    1.0641   33.3172   -3.3033 C   0  0  1  0  0  0  0  0  0  0  0  0
    1.4560   33.2261   -1.9391 O   0  0  0  0  0  0  0  0  0  0  0  0
   -1.9478   38.4403   -0.1434 C   0  0  1  0  0  0  0  0  0  0  0  0
   -3.2970   38.6482   -0.4417 O   0  0  0  0  0  0  0  0  0  0  0  0
    4.8721   33.5215   -2.3137 C   0  0  2  0  0  0  0  0  0  0  0  0
    4.0749   32.4785   -2.8722 O   0  0  0  0  0  0  0  0  0  0  0  0
   -1.7764   37.0233    0.2869 C   0  0  1  0  0  0  0  0  0  0  0  0
   -0.4245   36.8274    0.5862 O   0  0  0  0  0  0  0  0  0  0  0  0
    6.0292   32.9021   -1.5022 C   0  0  1  0  0  0  0  0  0  0  0  0
    6.8523   32.0916   -2.3568 O   0  0  0  0  0  0  0  0  0  0  0  0
   -2.5861   36.7234    1.5639 C   0  0  0  0  0  0  0  0  0  0  0  0
   -2.3583   35.3747    1.9565 O   0  0  0  0  0  0  0  0  0  0  0  0
    9.8945   34.6062   -0.4979 N   0  0  0  0  0  0  0  0  0  0  0  0
    3.2659   34.7069    1.2652 N   0  0  0  0  0  0  0  0  0  0  0  0
  1  2  1  0  0  0  0
  1 39  1  0  0  0  0
  3  4  1  0  0  0  0
  5  6  1  0  0  0  0
  5 40  1  0  0  0  0
  9 10  1  1  0  0  0
  9 14  1  0  0  0  0
  9 35  1  0  0  0  0
 10  1  1  0  0  0  0
 11 16  1  0  0  0  0
 11 28  1  0  0  0  0
 11 26  1  6  0  0  0
 12 17  1  0  0  0  0
 12 34  1  0  0  0  0
 12 13  1  6  0  0  0
 14 15  1  6  0  0  0
 14 19  1  0  0  0  0
 16 13  1  1  0  0  0
 16 21  1  0  0  0  0
 17 18  1  6  0  0  0
 17 23  1  0  0  0  0
 18  8  1  0  0  0  0
 19 20  1  1  0  0  0
 19 25  1  0  0  0  0
 20  5  1  0  0  0  0
 21  3  1  6  0  0  0
 21 22  1  0  0  0  0
 21 27  1  0  0  0  0
 23 24  1  1  0  0  0
 23 29  1  0  0  0  0
 25 26  1  6  0  0  0
 25 31  1  0  0  0  0
 27  7  1  1  0  0  0
 27 28  1  0  0  0  0
 29 30  1  6  0  0  0
 29 33  1  0  0  0  0
 31 32  1  1  0  0  0
 31 35  1  0  0  0  0
 33 34  1  0  0  0  0
 33 37  1  1  0  0  0
 35 36  1  6  0  0  0
 37 38  1  0  0  0  0
M  END
>  <CHROM.1>
-130.94151640,-94.26429751,172.16115973,84.96379494,72.68997413,-117.54166604
-38.76466288,120.25008017,-57.52904427,-119.34895774,-178.24369355,2.38408960
35.43566021,-1.20455459,-0.25228471,-0.30183887,0.82297242

>  <Name>
1nta_lig

>  <RI>
0

>  <Rbt.Current_Directory>
/home/itssahil/PROJECTS/Mol_Feturizer/New_Systems/rnas/1nta

>  <Rbt.Executable>
rbdock ($Id: //depot/dev/client3/rdock/2013.1/src/exe/rbdock.cxx#4 $)

>  <Rbt.Library>
libRbt.so (2013.1, Build901 2013/11/27)

>  <Rbt.Parameter_File>
/export/apps/rDock/src/rDock_2013.1_src/data/scripts/dock_solv.prm

>  <Rbt.Receptor>
prm/pocket_docking_2.prm

>  <SCORE>
-19.9833

>  <SCORE.INTER>
-2.50697

>  <SCORE.INTER.CONST>
1

>  <SCORE.INTER.POLAR>
-1.14099

>  <SCORE.INTER.ROT>
11

>  <SCORE.INTER.SOLV>
24.62

>  <SCORE.INTER.VDW>
-17.008

>  <SCORE.INTER.norm>
-0.0626742

>  <SCORE.INTRA>
-17.6131

>  <SCORE.INTRA.DIHEDRAL>
-4.33659

>  <SCORE.INTRA.DIHEDRAL.0>
19.0336

>  <SCORE.INTRA.POLAR>
0

>  <SCORE.INTRA.POLAR.0>
0

>  <SCORE.INTRA.REPUL>
0

>  <SCORE.INTRA.REPUL.0>
0

>  <SCORE.INTRA.SOLV>
-0.224151

>  <SCORE.INTRA.SOLV.lig_0>
-97.5861

>  <SCORE.INTRA.VDW>
-15.3327

>  <SCORE.INTRA.VDW.0>
11.7669

>  <SCORE.INTRA.norm>
-0.440326

>  <SCORE.RESTR>
0.13669

>  <SCORE.RESTR.CAVITY>
0.13669

>  <SCORE.RESTR.norm>
0.00341724

>  <SCORE.SYSTEM>
0

>  <SCORE.SYSTEM.CONST>
0

>  <SCORE.SYSTEM.DIHEDRAL>
0

>  <SCORE.SYSTEM.SOLV>
0

>  <SCORE.SYSTEM.norm>
0

>  <SCORE.heavy>
40

>  <SCORE.norm>
-0.499583

>  <RMSD>
0.837

$$$$
1nta_lig
 OpenBabel11021811403D
libRbt.so/2013.1/901 2013/11/27
 40 42  0  0  0  0  0  0  0  0999 V2000
    9.2892   33.5235   -0.6920 C   0  0  0  0  0  0  0  0  0  0  0  0
    9.9734   34.5836   -0.4727 N   0  0  0  0  0  0  0  0  0  0  0  0
    0.4565   35.7017   -4.0983 C   0  0  0  0  0  0  0  0  0  0  0  0
    1.4395   36.3586   -4.3616 O   0  0  0  0  0  0  0  0  0  0  0  0
    3.7874   35.8561    1.5629 C   0  0  0  0  0  0  0  0  0  0  0  0
    2.5639   35.4156    1.6992 N   0  0  0  0  0  0  0  0  0  0  0  0
    0.9347   32.4149   -3.9259 C   0  0  0  0  0  0  0  0  0  0  0  0
    1.7798   38.8936   -1.2581 C   0  0  0  0  0  0  0  0  0  0  0  0
    6.9867   34.0702   -0.7071 C   0  0  2  0  0  0  0  0  0  0  0  0
    8.1620   33.4192   -0.0042 N   0  0  0  0  0  0  0  0  0  0  0  0
    1.7391   34.5168   -1.1285 C   0  0  2  0  0  0  0  0  0  0  0  0
   -0.0478   36.5818    0.0847 C   0  0  1  0  0  0  0  0  0  0  0  0
   -0.3312   35.5678   -0.8148 O   0  0  0  0  0  0  0  0  0  0  0  0
    6.2155   34.9714    0.2758 C   0  0  1  0  0  0  0  0  0  0  0  0
    7.0859   35.9885    0.6707 O   0  0  0  0  0  0  0  0  0  0  0  0
    0.6313   35.3920   -1.7047 C   0  0  2  0  0  0  0  0  0  0  0  0
   -0.1921   37.9871   -0.4568 C   0  0  1  0  0  0  0  0  0  0  0  0
    0.6116   38.1101   -1.6234 N   0  0  0  0  0  0  0  0  0  0  0  0
    4.9982   35.6398   -0.3769 C   0  0  2  0  0  0  0  0  0  0  0  0
    4.2288   36.5119    0.5426 N   0  0  0  0  0  0  0  0  0  0  0  0
    0.3618   34.7065   -2.9729 C   0  0  1  0  0  0  0  0  0  0  0  0
   -0.9415   34.1290   -2.8735 O   0  0  0  0  0  0  0  0  0  0  0  0
   -1.5116   38.2621   -0.7876 C   0  0  2  0  0  0  0  0  0  0  0  0
   -1.6185   39.6481   -0.9944 O   0  0  0  0  0  0  0  0  0  0  0  0
    4.0857   34.5441   -0.9049 C   0  0  1  0  0  0  0  0  0  0  0  0
    2.9639   35.1676   -1.5104 O   0  0  0  0  0  0  0  0  0  0  0  0
    1.3385   33.6230   -3.1389 C   0  0  1  0  0  0  0  0  0  0  0  0
    1.7058   33.2826   -1.8077 O   0  0  0  0  0  0  0  0  0  0  0  0
   -2.4299   37.8488    0.3324 C   0  0  1  0  0  0  0  0  0  0  0  0
   -3.7513   37.9113   -0.1176 O   0  0  0  0  0  0  0  0  0  0  0  0
    4.8479   33.6588   -1.9316 C   0  0  2  0  0  0  0  0  0  0  0  0
    3.9733   32.6444   -2.4228 O   0  0  0  0  0  0  0  0  0  0  0  0
   -2.1371   36.4425    0.7313 C   0  0  1  0  0  0  0  0  0  0  0  0
   -0.8147   36.3923    1.1830 O   0  0  0  0  0  0  0  0  0  0  0  0
    6.0563   32.9989   -1.2348 C   0  0  1  0  0  0  0  0  0  0  0  0
    6.7739   32.1748   -2.1679 O   0  0  0  0  0  0  0  0  0  0  0  0
   -3.0450   35.9883    1.8913 C   0  0  0  0  0  0  0  0  0  0  0  0
   -2.8255   36.8326    3.0155 O   0  0  0  0  0  0  0  0  0  0  0  0
    9.6704   32.6135   -1.5220 N   0  0  0  0  0  0  0  0  0  0  0  0
    4.6366   35.6653    2.4951 N   0  0  0  0  0  0  0  0  0  0  0  0
  1  2  1  0  0  0  0
  1 39  1  0  0  0  0
  3  4  1  0  0  0  0
  5  6  1  0  0  0  0
  5 40  1  0  0  0  0
  9 10  1  1  0  0  0
  9 14  1  0  0  0  0
  9 35  1  0  0  0  0
 10  1  1  0  0  0  0
 11 16  1  0  0  0  0
 11 28  1  0  0  0  0
 11 26  1  6  0  0  0
 12 17  1  0  0  0  0
 12 34  1  0  0  0  0
 12 13  1  6  0  0  0
 14 15  1  6  0  0  0
 14 19  1  0  0  0  0
 16 13  1  1  0  0  0
 16 21  1  0  0  0  0
 17 18  1  6  0  0  0
 17 23  1  0  0  0  0
 18  8  1  0  0  0  0
 19 20  1  1  0  0  0
 19 25  1  0  0  0  0
 20  5  1  0  0  0  0
 21  3  1  6  0  0  0
 21 22  1  0  0  0  0
 21 27  1  0  0  0  0
 23 24  1  1  0  0  0
 23 29  1  0  0  0  0
 25 26  1  6  0  0  0
 25 31  1  0  0  0  0
 27  7  1  1  0  0  0
 27 28  1  0  0  0  0
 29 30  1  6  0  0  0
 29 33  1  0  0  0  0
 31 32  1  1  0  0  0
 31 35  1  0  0  0  0
 33 34  1  0  0  0  0
 33 37  1  1  0  0  0
 35 36  1  6  0  0  0
 37 38  1  0  0  0  0
M  END
>  <CHROM.1>
-131.92163151,88.08369251,173.11557647,75.20515144,82.75074629,-105.35642874
-59.19758474,-100.63949318,58.84641230,-135.59576535,-60.17060701,2.38159637
35.40972134,-0.80108687,-0.24254453,-0.26014140,0.98190210

>  <Name>
1nta_lig

>  <RI>
0

>  <Rbt.Current_Directory>
/home/itssahil/PROJECTS/Mol_Feturizer/New_Systems/rnas/1nta

>  <Rbt.Executable>
rbdock ($Id: //depot/dev/client3/rdock/2013.1/src/exe/rbdock.cxx#4 $)

>  <Rbt.Library>
libRbt.so (2013.1, Build901 2013/11/27)

>  <Rbt.Parameter_File>
/export/apps/rDock/src/rDock_2013.1_src/data/scripts/dock_solv.prm

>  <Rbt.Receptor>
prm/pocket_docking_2.prm

>  <SCORE>
-22.5501

>  <SCORE.INTER>
-5.882

>  <SCORE.INTER.CONST>
1

>  <SCORE.INTER.POLAR>
-1.86129

>  <SCORE.INTER.ROT>
11

>  <SCORE.INTER.SOLV>
25.3961

>  <SCORE.INTER.VDW>
-17.1158

>  <SCORE.INTER.norm>
-0.14705

>  <SCORE.INTRA>
-17.5821

>  <SCORE.INTRA.DIHEDRAL>
-5.95415

>  <SCORE.INTRA.DIHEDRAL.0>
19.0336

>  <SCORE.INTRA.POLAR>
0

>  <SCORE.INTRA.POLAR.0>
0

>  <SCORE.INTRA.REPUL>
0

>  <SCORE.INTRA.REPUL.0>
0

>  <SCORE.INTRA.SOLV>
1.79779

>  <SCORE.INTRA.SOLV.lig_0>
-97.5861

>  <SCORE.INTRA.VDW>
-15.5039

>  <SCORE.INTRA.VDW.0>
11.7669

>  <SCORE.INTRA.norm>
-0.439551

>  <SCORE.RESTR>
0.913988

>  <SCORE.RESTR.CAVITY>
0.913988

>  <SCORE.RESTR.norm>
0.0228497

>  <SCORE.SYSTEM>
0

>  <SCORE.SYSTEM.CONST>
0

>  <SCORE.SYSTEM.DIHEDRAL>
0

>  <SCORE.SYSTEM.SOLV>
0

>  <SCORE.SYSTEM.norm>
0

>  <SCORE.heavy>
40

>  <SCORE.norm>
-0.563752

>  <RMSD>
0.866

$$$$
1nta_lig
 OpenBabel11021811403D
libRbt.so/2013.1/901 2013/11/27
 40 42  0  0  0  0  0  0  0  0999 V2000
    9.3709   33.4092   -1.0648 C   0  0  0  0  0  0  0  0  0  0  0  0
    9.9793   32.6098   -1.8590 N   0  0  0  0  0  0  0  0  0  0  0  0
    0.3688   35.4330   -4.6953 C   0  0  0  0  0  0  0  0  0  0  0  0
   -0.2597   36.4333   -4.9628 O   0  0  0  0  0  0  0  0  0  0  0  0
    4.1120   35.4700    1.0699 C   0  0  0  0  0  0  0  0  0  0  0  0
    4.8306   35.7607    2.1230 N   0  0  0  0  0  0  0  0  0  0  0  0
    0.3465   32.1895   -3.9601 C   0  0  0  0  0  0  0  0  0  0  0  0
    2.0683   39.3993   -2.5310 C   0  0  0  0  0  0  0  0  0  0  0  0
    7.0454   33.7249   -1.3694 C   0  0  2  0  0  0  0  0  0  0  0  0
    8.1760   33.0087   -0.6567 N   0  0  0  0  0  0  0  0  0  0  0  0
    1.8270   34.5543   -1.7003 C   0  0  2  0  0  0  0  0  0  0  0  0
    0.6175   36.9678   -0.6137 C   0  0  1  0  0  0  0  0  0  0  0  0
    0.0050   35.9924   -1.3825 O   0  0  0  0  0  0  0  0  0  0  0  0
    6.2128   34.5361   -0.3586 C   0  0  1  0  0  0  0  0  0  0  0  0
    7.0548   35.5102    0.1800 O   0  0  0  0  0  0  0  0  0  0  0  0
    0.8038   35.5026   -2.3158 C   0  0  2  0  0  0  0  0  0  0  0  0
    0.5154   38.3773   -1.1538 C   0  0  1  0  0  0  0  0  0  0  0  0
    1.0207   38.3931   -2.4829 N   0  0  0  0  0  0  0  0  0  0  0  0
    5.0369   35.2652   -1.0224 C   0  0  2  0  0  0  0  0  0  0  0  0
    4.2101   36.0533   -0.0772 N   0  0  0  0  0  0  0  0  0  0  0  0
    0.2676   34.6731   -3.3999 C   0  0  1  0  0  0  0  0  0  0  0  0
   -1.0857   34.3602   -3.0640 O   0  0  0  0  0  0  0  0  0  0  0  0
   -0.8022   38.8131   -1.1675 C   0  0  2  0  0  0  0  0  0  0  0  0
   -0.7894   40.2004   -1.3914 O   0  0  0  0  0  0  0  0  0  0  0  0
    4.1613   34.2251   -1.7031 C   0  0  1  0  0  0  0  0  0  0  0  0
    3.0780   34.9048   -2.3180 O   0  0  0  0  0  0  0  0  0  0  0  0
    1.0331   33.4216   -3.4575 C   0  0  1  0  0  0  0  0  0  0  0  0
    1.5131   33.2494   -2.1298 O   0  0  0  0  0  0  0  0  0  0  0  0
   -1.4640   38.5232    0.1540 C   0  0  1  0  0  0  0  0  0  0  0  0
   -2.8378   38.7477    0.0326 O   0  0  0  0  0  0  0  0  0  0  0  0
    4.9876   33.4336   -2.7564 C   0  0  2  0  0  0  0  0  0  0  0  0
    4.1473   32.4710   -3.3908 O   0  0  0  0  0  0  0  0  0  0  0  0
   -1.2537   37.0935    0.5202 C   0  0  1  0  0  0  0  0  0  0  0  0
    0.1230   36.8811    0.6426 O   0  0  0  0  0  0  0  0  0  0  0  0
    6.1517   32.7090   -2.0486 C   0  0  1  0  0  0  0  0  0  0  0  0
    6.9276   31.9702   -3.0062 O   0  0  0  0  0  0  0  0  0  0  0  0
   -1.9006   36.7620    1.8796 C   0  0  0  0  0  0  0  0  0  0  0  0
   -3.3168   36.7829    1.7413 O   0  0  0  0  0  0  0  0  0  0  0  0
    9.8810   34.5320   -0.6886 N   0  0  0  0  0  0  0  0  0  0  0  0
    3.2526   34.5297    1.1299 N   0  0  0  0  0  0  0  0  0  0  0  0
  1  2  1  0  0  0  0
  1 39  1  0  0  0  0
  3  4  1  0  0  0  0
  5  6  1  0  0  0  0
  5 40  1  0  0  0  0
  9 10  1  1  0  0  0
  9 14  1  0  0  0  0
  9 35  1  0  0  0  0
 10  1  1  0  0  0  0
 11 16  1  0  0  0  0
 11 28  1  0  0  0  0
 11 26  1  6  0  0  0
 12 17  1  0  0  0  0
 12 34  1  0  0  0  0
 12 13  1  6  0  0  0
 14 15  1  6  0  0  0
 14 19  1  0  0  0  0
 16 13  1  1  0  0  0
 16 21  1  0  0  0  0
 17 18  1  6  0  0  0
 17 23  1  0  0  0  0
 18  8  1  0  0  0  0
 19 20  1  1  0  0  0
 19 25  1  0  0  0  0
 20  5  1  0  0  0  0
 21  3  1  6  0  0  0
 21 22  1  0  0  0  0
 21 27  1  0  0  0  0
 23 24  1  1  0  0  0
 23 29  1  0  0  0  0
 25 26  1  6  0  0  0
 25 31  1  0  0  0  0
 27  7  1  1  0  0  0
 27 28  1  0  0  0  0
 29 30  1  6  0  0  0
 29 33  1  0  0  0  0
 31 32  1  1  0  0  0
 31 35  1  0  0  0  0
 33 34  1  0  0  0  0
 33 37  1  1  0  0  0
 35 36  1  6  0  0  0
 37 38  1  0  0  0  0
M  END
>  <CHROM.1>
-117.34948368,-103.30394847,171.84070304,87.85916045,75.38125844,-124.58427632
-35.74961090,98.57337438,-67.19495199,-114.25977266,70.20788687,2.56771883
35.43570665,-1.34584621,-0.31232347,-0.30653359,0.87222255

>  <Name>
1nta_lig

>  <RI>
0

>  <Rbt.Current_Directory>
/home/itssahil/PROJECTS/Mol_Feturizer/New_Systems/rnas/1nta

>  <Rbt.Executable>
rbdock ($Id: //depot/dev/client3/rdock/2013.1/src/exe/rbdock.cxx#4 $)

>  <Rbt.Library>
libRbt.so (2013.1, Build901 2013/11/27)

>  <Rbt.Parameter_File>
/export/apps/rDock/src/rDock_2013.1_src/data/scripts/dock_solv.prm

>  <Rbt.Receptor>
prm/pocket_docking_2.prm

>  <SCORE>
-19.4481

>  <SCORE.INTER>
-2.09517

>  <SCORE.INTER.CONST>
1

>  <SCORE.INTER.POLAR>
-1.09254

>  <SCORE.INTER.ROT>
11

>  <SCORE.INTER.SOLV>
23.7973

>  <SCORE.INTER.VDW>
-16.6207

>  <SCORE.INTER.norm>
-0.0523792

>  <SCORE.INTRA>
-17.5088

>  <SCORE.INTRA.DIHEDRAL>
-2.87533

>  <SCORE.INTRA.DIHEDRAL.0>
19.0336

>  <SCORE.INTRA.POLAR>
0

>  <SCORE.INTRA.POLAR.0>
0

>  <SCORE.INTRA.REPUL>
0

>  <SCORE.INTRA.REPUL.0>
0

>  <SCORE.INTRA.SOLV>
-0.241031

>  <SCORE.INTRA.SOLV.lig_0>
-97.5861

>  <SCORE.INTRA.VDW>
-15.9506

>  <SCORE.INTRA.VDW.0>
11.7669

>  <SCORE.INTRA.norm>
-0.43772

>  <SCORE.RESTR>
0.155892

>  <SCORE.RESTR.CAVITY>
0.155892

>  <SCORE.RESTR.norm>
0.00389731

>  <SCORE.SYSTEM>
0

>  <SCORE.SYSTEM.CONST>
0

>  <SCORE.SYSTEM.DIHEDRAL>
0

>  <SCORE.SYSTEM.SOLV>
0

>  <SCORE.SYSTEM.norm>
0

>  <SCORE.heavy>
40

>  <SCORE.norm>
-0.486202

>  <RMSD>
0.871

$$$$
1nta_lig
 OpenBabel11021811403D
libRbt.so/2013.1/901 2013/11/27
 40 42  0  0  0  0  0  0  0  0999 V2000
    9.2012   33.5570   -0.6858 C   0  0  0  0  0  0  0  0  0  0  0  0
    9.6096   32.5974   -1.4291 N   0  0  0  0  0  0  0  0  0  0  0  0
    0.3496   35.0626   -4.7159 C   0  0  0  0  0  0  0  0  0  0  0  0
    0.0077   34.5919   -5.7784 O   0  0  0  0  0  0  0  0  0  0  0  0
    3.7283   35.7211    1.2284 C   0  0  0  0  0  0  0  0  0  0  0  0
    4.0705   36.2836    2.3581 N   0  0  0  0  0  0  0  0  0  0  0  0
    0.5187   31.8752   -3.7816 C   0  0  0  0  0  0  0  0  0  0  0  0
    1.8804   39.2096   -2.5160 C   0  0  0  0  0  0  0  0  0  0  0  0
    6.8865   33.9829   -0.9338 C   0  0  2  0  0  0  0  0  0  0  0  0
    8.0157   33.3779   -0.1226 N   0  0  0  0  0  0  0  0  0  0  0  0
    1.6540   34.4756   -1.5819 C   0  0  2  0  0  0  0  0  0  0  0  0
    0.2203   36.7841   -0.6684 C   0  0  1  0  0  0  0  0  0  0  0  0
   -0.2886   35.7810   -1.4761 O   0  0  0  0  0  0  0  0  0  0  0  0
    5.9697   34.8201   -0.0220 C   0  0  1  0  0  0  0  0  0  0  0  0
    6.7381   35.8717    0.4797 O   0  0  0  0  0  0  0  0  0  0  0  0
    0.6087   35.3031   -2.3220 C   0  0  2  0  0  0  0  0  0  0  0  0
    0.2253   38.1679   -1.2797 C   0  0  1  0  0  0  0  0  0  0  0  0
    0.9231   38.1161   -2.5177 N   0  0  0  0  0  0  0  0  0  0  0  0
    4.7926   35.4392   -0.7874 C   0  0  2  0  0  0  0  0  0  0  0  0
    3.8857   36.2489    0.0611 N   0  0  0  0  0  0  0  0  0  0  0  0
    0.2142   34.3728   -3.3849 C   0  0  1  0  0  0  0  0  0  0  0  0
   -1.1321   33.9736   -3.1202 O   0  0  0  0  0  0  0  0  0  0  0  0
   -1.0674   38.6175   -1.5096 C   0  0  2  0  0  0  0  0  0  0  0  0
   -0.9962   39.9927   -1.7904 O   0  0  0  0  0  0  0  0  0  0  0  0
    4.0005   34.3100   -1.4273 C   0  0  1  0  0  0  0  0  0  0  0  0
    2.9158   34.8880   -2.1364 O   0  0  0  0  0  0  0  0  0  0  0  0
    1.0736   33.1845   -3.3131 C   0  0  1  0  0  0  0  0  0  0  0  0
    1.4701   33.1275   -1.9484 O   0  0  0  0  0  0  0  0  0  0  0  0
   -1.9237   38.3971   -0.2903 C   0  0  1  0  0  0  0  0  0  0  0  0
   -3.2598   38.6313   -0.6256 O   0  0  0  0  0  0  0  0  0  0  0  0
    4.9121   33.4891   -2.3833 C   0  0  2  0  0  0  0  0  0  0  0  0
    4.1494   32.4421   -2.9811 O   0  0  0  0  0  0  0  0  0  0  0  0
   -1.7963   36.9837    0.1662 C   0  0  1  0  0  0  0  0  0  0  0  0
   -0.4573   36.7616    0.5025 O   0  0  0  0  0  0  0  0  0  0  0  0
    6.0753   32.8770   -1.5748 C   0  0  1  0  0  0  0  0  0  0  0  0
    6.9296   32.1129   -2.4415 O   0  0  0  0  0  0  0  0  0  0  0  0
   -2.6443   36.7233    1.4269 C   0  0  0  0  0  0  0  0  0  0  0  0
   -2.1552   37.5276    2.4942 O   0  0  0  0  0  0  0  0  0  0  0  0
    9.8918   34.6296   -0.4992 N   0  0  0  0  0  0  0  0  0  0  0  0
    3.2177   34.5525    1.2321 N   0  0  0  0  0  0  0  0  0  0  0  0
  1  2  1  0  0  0  0
  1 39  1  0  0  0  0
  3  4  1  0  0  0  0
  5  6  1  0  0  0  0
  5 40  1  0  0  0  0
  9 10  1  1  0  0  0
  9 14  1  0  0  0  0
  9 35  1  0  0  0  0
 10  1  1  0  0  0  0
 11 16  1  0  0  0  0
 11 28  1  0  0  0  0
 11 26  1  6  0  0  0
 12 17  1  0  0  0  0
 12 34  1  0  0  0  0
 12 13  1  6  0  0  0
 14 15  1  6  0  0  0
 14 19  1  0  0  0  0
 16 13  1  1  0  0  0
 16 21  1  0  0  0  0
 17 18  1  6  0  0  0
 17 23  1  0  0  0  0
 18  8  1  0  0  0  0
 19 20  1  1  0  0  0
 19 25  1  0  0  0  0
 20  5  1  0  0  0  0
 21  3  1  6  0  0  0
 21 22  1  0  0  0  0
 21 27  1  0  0  0  0
 23 24  1  1  0  0  0
 23 29  1  0  0  0  0
 25 26  1  6  0  0  0
 25 31  1  0  0  0  0
 27  7  1  1  0  0  0
 27 28  1  0  0  0  0
 29 30  1  6  0  0  0
 29 33  1  0  0  0  0
 31 32  1  1  0  0  0
 31 35  1  0  0  0  0
 33 34  1  0  0  0  0
 33 37  1  1  0  0  0
 35 36  1  6  0  0  0
 37 38  1  0  0  0  0
M  END
>  <CHROM.1>
-131.87919488,-94.13480121,173.08077619,83.44365045,71.29034512,-131.14305860
-37.82426440,118.02669838,-174.35641112,-116.56648482,-63.22033324,2.39971387
35.37977100,-1.26968987,-0.25946227,-0.31309659,0.85424676

>  <Name>
1nta_lig

>  <RI>
0

>  <Rbt.Current_Directory>
/home/itssahil/PROJECTS/Mol_Feturizer/New_Systems/rnas/1nta

>  <Rbt.Executable>
rbdock ($Id: //depot/dev/client3/rdock/2013.1/src/exe/rbdock.cxx#4 $)

>  <Rbt.Library>
libRbt.so (2013.1, Build901 2013/11/27)

>  <Rbt.Parameter_File>
/export/apps/rDock/src/rDock_2013.1_src/data/scripts/dock_solv.prm

>  <Rbt.Receptor>
prm/pocket_docking_2.prm

>  <SCORE>
-19.7829

>  <SCORE.INTER>
-2.65228

>  <SCORE.INTER.CONST>
1

>  <SCORE.INTER.POLAR>
-1.13983

>  <SCORE.INTER.ROT>
11

>  <SCORE.INTER.SOLV>
25.1428

>  <SCORE.INTER.VDW>
-17.283

>  <SCORE.INTER.norm>
-0.0663069

>  <SCORE.INTRA>
-17.3152

>  <SCORE.INTRA.DIHEDRAL>
-4.85514

>  <SCORE.INTRA.DIHEDRAL.0>
19.0336

>  <SCORE.INTRA.POLAR>
0

>  <SCORE.INTRA.POLAR.0>
0

>  <SCORE.INTRA.REPUL>
0

>  <SCORE.INTRA.REPUL.0>
0

>  <SCORE.INTRA.SOLV>
-0.299749

>  <SCORE.INTRA.SOLV.lig_0>
-97.5861

>  <SCORE.INTRA.VDW>
-14.7377

>  <SCORE.INTRA.VDW.0>
11.7669

>  <SCORE.INTRA.norm>
-0.43288

>  <SCORE.RESTR>
0.184562

>  <SCORE.RESTR.CAVITY>
0.184562

>  <SCORE.RESTR.norm>
0.00461406

>  <SCORE.SYSTEM>
0

>  <SCORE.SYSTEM.CONST>
0

>  <SCORE.SYSTEM.DIHEDRAL>
0

>  <SCORE.SYSTEM.SOLV>
0

>  <SCORE.SYSTEM.norm>
0

>  <SCORE.heavy>
40

>  <SCORE.norm>
-0.494573

>  <RMSD>
0.872

$$$$
1nta_lig
 OpenBabel11021811403D
libRbt.so/2013.1/901 2013/11/27
 40 42  0  0  0  0  0  0  0  0999 V2000
    9.4579   33.4851   -0.6319 C   0  0  0  0  0  0  0  0  0  0  0  0
    9.9125   34.6661   -0.4357 N   0  0  0  0  0  0  0  0  0  0  0  0
    0.5332   35.4860   -4.0415 C   0  0  0  0  0  0  0  0  0  0  0  0
    1.5184   36.1045   -4.3794 O   0  0  0  0  0  0  0  0  0  0  0  0
    4.0554   35.7936    1.5691 C   0  0  0  0  0  0  0  0  0  0  0  0
    2.9029   35.1894    1.6981 N   0  0  0  0  0  0  0  0  0  0  0  0
    0.8346   32.2145   -3.5238 C   0  0  0  0  0  0  0  0  0  0  0  0
    2.4852   38.7033   -1.1622 C   0  0  0  0  0  0  0  0  0  0  0  0
    7.1295   33.8920   -0.7494 C   0  0  2  0  0  0  0  0  0  0  0  0
    8.2961   33.2175   -0.0544 N   0  0  0  0  0  0  0  0  0  0  0  0
    1.8869   34.5556   -1.0132 C   0  0  2  0  0  0  0  0  0  0  0  0
    0.3663   36.6839    0.1823 C   0  0  1  0  0  0  0  0  0  0  0  0
   -0.1042   35.7584   -0.7340 O   0  0  0  0  0  0  0  0  0  0  0  0
    6.3938   34.8219    0.2339 C   0  0  1  0  0  0  0  0  0  0  0  0
    7.2948   35.8198    0.6085 O   0  0  0  0  0  0  0  0  0  0  0  0
    0.8037   35.4286   -1.6375 C   0  0  2  0  0  0  0  0  0  0  0  0
    0.4171   38.1138   -0.3091 C   0  0  1  0  0  0  0  0  0  0  0  0
    1.1834   38.1567   -1.5062 N   0  0  0  0  0  0  0  0  0  0  0  0
    5.1861   35.5154   -0.4106 C   0  0  2  0  0  0  0  0  0  0  0  0
    4.4507   36.4156    0.5096 N   0  0  0  0  0  0  0  0  0  0  0  0
    0.4365   34.6268   -2.8093 C   0  0  1  0  0  0  0  0  0  0  0  0
   -0.8909   34.1439   -2.5929 O   0  0  0  0  0  0  0  0  0  0  0  0
   -0.8569   38.5975   -0.5720 C   0  0  2  0  0  0  0  0  0  0  0  0
   -0.7588   39.9903   -0.7316 O   0  0  0  0  0  0  0  0  0  0  0  0
    4.2394   34.4388   -0.9171 C   0  0  1  0  0  0  0  0  0  0  0  0
    3.1267   35.0853   -1.5150 O   0  0  0  0  0  0  0  0  0  0  0  0
    1.3422   33.4743   -2.8935 C   0  0  1  0  0  0  0  0  0  0  0  0
    1.7525   33.2591   -1.5487 O   0  0  0  0  0  0  0  0  0  0  0  0
   -1.7826   38.2870    0.5748 C   0  0  1  0  0  0  0  0  0  0  0  0
   -3.0956   38.5654    0.1865 O   0  0  0  0  0  0  0  0  0  0  0  0
    4.9661   33.5246   -1.9442 C   0  0  2  0  0  0  0  0  0  0  0  0
    4.0597   32.5285   -2.4151 O   0  0  0  0  0  0  0  0  0  0  0  0
   -1.6926   36.8388    0.9172 C   0  0  1  0  0  0  0  0  0  0  0  0
   -0.3766   36.5722    1.3076 O   0  0  0  0  0  0  0  0  0  0  0  0
    6.1655   32.8402   -1.2556 C   0  0  1  0  0  0  0  0  0  0  0  0
    6.8503   31.9892   -2.1893 O   0  0  0  0  0  0  0  0  0  0  0  0
   -2.6127   36.4848    2.1023 C   0  0  0  0  0  0  0  0  0  0  0  0
   -2.1999   37.2175    3.2502 O   0  0  0  0  0  0  0  0  0  0  0  0
   10.0875   32.6101   -1.3392 N   0  0  0  0  0  0  0  0  0  0  0  0
    4.8724   35.8141    2.5481 N   0  0  0  0  0  0  0  0  0  0  0  0
  1  2  1  0  0  0  0
  1 39  1  0  0  0  0
  3  4  1  0  0  0  0
  5  6  1  0  0  0  0
  5 40  1  0  0  0  0
  9 10  1  1  0  0  0
  9 14  1  0  0  0  0
  9 35  1  0  0  0  0
 10  1  1  0  0  0  0
 11 16  1  0  0  0  0
 11 28  1  0  0  0  0
 11 26  1  6  0  0  0
 12 17  1  0  0  0  0
 12 34  1  0  0  0  0
 12 13  1  6  0  0  0
 14 15  1  6  0  0  0
 14 19  1  0  0  0  0
 16 13  1  1  0  0  0
 16 21  1  0  0  0  0
 17 18  1  6  0  0  0
 17 23  1  0  0  0  0
 18  8  1  0  0  0  0
 19 20  1  1  0  0  0
 19 25  1  0  0  0  0
 20  5  1  0  0  0  0
 21  3  1  6  0  0  0
 21 22  1  0  0  0  0
 21 27  1  0  0  0  0
 23 24  1  1  0  0  0
 23 29  1  0  0  0  0
 25 26  1  6  0  0  0
 25 31  1  0  0  0  0
 27  7  1  1  0  0  0
 27 28  1  0  0  0  0
 29 30  1  6  0  0  0
 29 33  1  0  0  0  0
 31 32  1  1  0  0  0
 31 35  1  0  0  0  0
 33 34  1  0  0  0  0
 33 37  1  1  0  0  0
 35 36  1  6  0  0  0
 37 38  1  0  0  0  0
M  END
>  <CHROM.1>
-120.73587203,73.76978563,174.71923241,77.93439115,72.15502752,-103.69885035
-56.39174485,-90.47517354,54.86091775,-129.99957288,-61.70726611,2.65775234
35.43341514,-0.70161986,-0.31387956,-0.26031499,0.88333437

>  <Name>
1nta_lig

>  <RI>
0

>  <Rbt.Current_Directory>
/home/itssahil/PROJECTS/Mol_Feturizer/New_Systems/rnas/1nta

>  <Rbt.Executable>
rbdock ($Id: //depot/dev/client3/rdock/2013.1/src/exe/rbdock.cxx#4 $)

>  <Rbt.Library>
libRbt.so (2013.1, Build901 2013/11/27)

>  <Rbt.Parameter_File>
/export/apps/rDock/src/rDock_2013.1_src/data/scripts/dock_solv.prm

>  <Rbt.Receptor>
prm/pocket_docking_3.prm

>  <SCORE>
-25.2544

>  <SCORE.INTER>
-6.965

>  <SCORE.INTER.CONST>
1

>  <SCORE.INTER.POLAR>
-1.98288

>  <SCORE.INTER.ROT>
11

>  <SCORE.INTER.SOLV>
26.976

>  <SCORE.INTER.VDW>
-17.9591

>  <SCORE.INTER.norm>
-0.174125

>  <SCORE.INTRA>
-18.2894

>  <SCORE.INTRA.DIHEDRAL>
-6.14153

>  <SCORE.INTRA.DIHEDRAL.0>
19.0336

>  <SCORE.INTRA.POLAR>
0

>  <SCORE.INTRA.POLAR.0>
0

>  <SCORE.INTRA.REPUL>
0.00155821

>  <SCORE.INTRA.REPUL.0>
0

>  <SCORE.INTRA.SOLV>
1.91831

>  <SCORE.INTRA.SOLV.lig_0>
-97.5861

>  <SCORE.INTRA.VDW>
-16.1856

>  <SCORE.INTRA.VDW.0>
11.7669

>  <SCORE.INTRA.norm>
-0.457235

>  <SCORE.RESTR>
0

>  <SCORE.RESTR.CAVITY>
0

>  <SCORE.RESTR.norm>
0

>  <SCORE.SYSTEM>
0

>  <SCORE.SYSTEM.CONST>
0

>  <SCORE.SYSTEM.DIHEDRAL>
0

>  <SCORE.SYSTEM.SOLV>
0

>  <SCORE.SYSTEM.norm>
0

>  <SCORE.heavy>
40

>  <SCORE.norm>
-0.63136

>  <RMSD>
0.880

$$$$
1nta_lig
 OpenBabel11021811403D
libRbt.so/2013.1/901 2013/11/27
 40 42  0  0  0  0  0  0  0  0999 V2000
    9.4087   33.2835   -1.2299 C   0  0  0  0  0  0  0  0  0  0  0  0
    9.8111   34.4508   -0.8899 N   0  0  0  0  0  0  0  0  0  0  0  0
    0.3035   35.1371   -4.5839 C   0  0  0  0  0  0  0  0  0  0  0  0
   -0.3960   36.0846   -4.8670 O   0  0  0  0  0  0  0  0  0  0  0  0
    4.3265   36.7181    0.5694 C   0  0  0  0  0  0  0  0  0  0  0  0
    5.4896   37.1071    1.0230 N   0  0  0  0  0  0  0  0  0  0  0  0
    0.4385   31.9071   -3.8027 C   0  0  0  0  0  0  0  0  0  0  0  0
    1.8856   39.2109   -2.4861 C   0  0  0  0  0  0  0  0  0  0  0  0
    7.0798   33.6869   -1.3489 C   0  0  2  0  0  0  0  0  0  0  0  0
    8.2347   32.9184   -0.7368 N   0  0  0  0  0  0  0  0  0  0  0  0
    1.8478   34.3689   -1.6018 C   0  0  2  0  0  0  0  0  0  0  0  0
    0.5536   36.7331   -0.5210 C   0  0  1  0  0  0  0  0  0  0  0  0
   -0.0315   35.7289   -1.2738 O   0  0  0  0  0  0  0  0  0  0  0  0
    6.1509   34.2175   -0.2405 C   0  0  1  0  0  0  0  0  0  0  0  0
    6.8958   35.1159    0.5251 O   0  0  0  0  0  0  0  0  0  0  0  0
    0.7733   35.2614   -2.2134 C   0  0  2  0  0  0  0  0  0  0  0  0
    0.4015   38.1319   -1.0770 C   0  0  1  0  0  0  0  0  0  0  0  0
    0.8972   38.1482   -2.4097 N   0  0  0  0  0  0  0  0  0  0  0  0
    4.9482   34.9857   -0.8045 C   0  0  2  0  0  0  0  0  0  0  0  0
    4.0293   35.5073    0.2355 N   0  0  0  0  0  0  0  0  0  0  0  0
    0.2573   34.3927   -3.2764 C   0  0  1  0  0  0  0  0  0  0  0  0
   -1.0749   34.0249   -2.9134 O   0  0  0  0  0  0  0  0  0  0  0  0
   -0.9298   38.5239   -1.0866 C   0  0  2  0  0  0  0  0  0  0  0  0
   -0.9642   39.9081   -1.3269 O   0  0  0  0  0  0  0  0  0  0  0  0
    4.1802   34.0494   -1.7240 C   0  0  1  0  0  0  0  0  0  0  0  0
    3.0717   34.7656   -2.2454 O   0  0  0  0  0  0  0  0  0  0  0  0
    1.0772   33.1759   -3.3292 C   0  0  1  0  0  0  0  0  0  0  0  0
    1.5859   33.0451   -2.0074 O   0  0  0  0  0  0  0  0  0  0  0  0
   -1.5729   38.2284    0.2430 C   0  0  1  0  0  0  0  0  0  0  0  0
   -2.9541   38.4061    0.1286 O   0  0  0  0  0  0  0  0  0  0  0  0
    5.1029   33.5464   -2.8705 C   0  0  2  0  0  0  0  0  0  0  0  0
    4.3624   32.6787   -3.7273 O   0  0  0  0  0  0  0  0  0  0  0  0
   -1.3131   36.8109    0.6245 C   0  0  1  0  0  0  0  0  0  0  0  0
    0.0706   36.6454    0.7398 O   0  0  0  0  0  0  0  0  0  0  0  0
    6.2919   32.7728   -2.2631 C   0  0  1  0  0  0  0  0  0  0  0  0
    7.1568   32.2983   -3.3080 O   0  0  0  0  0  0  0  0  0  0  0  0
   -1.9397   36.4748    1.9923 C   0  0  0  0  0  0  0  0  0  0  0  0
   -1.4146   37.3576    2.9771 O   0  0  0  0  0  0  0  0  0  0  0  0
   10.0988   32.5099   -1.9965 N   0  0  0  0  0  0  0  0  0  0  0  0
    3.3775   37.5622    0.4538 N   0  0  0  0  0  0  0  0  0  0  0  0
  1  2  1  0  0  0  0
  1 39  1  0  0  0  0
  3  4  1  0  0  0  0
  5  6  1  0  0  0  0
  5 40  1  0  0  0  0
  9 10  1  1  0  0  0
  9 14  1  0  0  0  0
  9 35  1  0  0  0  0
 10  1  1  0  0  0  0
 11 16  1  0  0  0  0
 11 28  1  0  0  0  0
 11 26  1  6  0  0  0
 12 17  1  0  0  0  0
 12 34  1  0  0  0  0
 12 13  1  6  0  0  0
 14 15  1  1  0  0  0
 14 19  1  0  0  0  0
 16 13  1  1  0  0  0
 16 21  1  0  0  0  0
 17 18  1  6  0  0  0
 17 23  1  0  0  0  0
 18  8  1  0  0  0  0
 19 20  1  1  0  0  0
 19 25  1  0  0  0  0
 20  5  1  0  0  0  0
 21  3  1  6  0  0  0
 21 22  1  0  0  0  0
 21 27  1  0  0  0  0
 23 24  1  1  0  0  0
 23 29  1  0  0  0  0
 25 26  1  6  0  0  0
 25 31  1  0  0  0  0
 27  7  1  1  0  0  0
 27 28  1  0  0  0  0
 29 30  1  6  0  0  0
 29 33  1  0  0  0  0
 31 32  1  6  0  0  0
 31 35  1  0  0  0  0
 33 34  1  0  0  0  0
 33 37  1  1  0  0  0
 35 36  1  6  0  0  0
 37 38  1  0  0  0  0
M  END
>  <CHROM.1>
-131.56615947,70.25353577,177.38113053,87.38049460,74.79870517,-126.04202597
93.03483519,-56.98171592,-69.04642448,-104.24713868,-57.86256602,2.62556365
35.40891871,-1.32504599,-0.35243432,-0.25637283,0.82747863

>  <Name>
1nta_lig

>  <RI>
0

>  <Rbt.Current_Directory>
/home/itssahil/PROJECTS/Mol_Feturizer/New_Systems/rnas/1nta

>  <Rbt.Executable>
rbdock ($Id: //depot/dev/client3/rdock/2013.1/src/exe/rbdock.cxx#4 $)

>  <Rbt.Library>
libRbt.so (2013.1, Build901 2013/11/27)

>  <Rbt.Parameter_File>
/export/apps/rDock/src/rDock_2013.1_src/data/scripts/dock_solv.prm

>  <Rbt.Receptor>
prm/pocket_docking_2.prm

>  <SCORE>
-25.1257

>  <SCORE.INTER>
-5.96456

>  <SCORE.INTER.CONST>
1

>  <SCORE.INTER.POLAR>
-0.762538

>  <SCORE.INTER.ROT>
11

>  <SCORE.INTER.SOLV>
19.4167

>  <SCORE.INTER.VDW>
-18.8402

>  <SCORE.INTER.norm>
-0.149114

>  <SCORE.INTRA>
-19.1988

>  <SCORE.INTRA.DIHEDRAL>
-3.82306

>  <SCORE.INTRA.DIHEDRAL.0>
19.0336

>  <SCORE.INTRA.POLAR>
0

>  <SCORE.INTRA.POLAR.0>
0

>  <SCORE.INTRA.REPUL>
0

>  <SCORE.INTRA.REPUL.0>
0

>  <SCORE.INTRA.SOLV>
0.0777954

>  <SCORE.INTRA.SOLV.lig_0>
-97.5861

>  <SCORE.INTRA.VDW>
-17.3262

>  <SCORE.INTRA.VDW.0>
11.7669

>  <SCORE.INTRA.norm>
-0.479971

>  <SCORE.RESTR>
0.0376808

>  <SCORE.RESTR.CAVITY>
0.0376808

>  <SCORE.RESTR.norm>
0.000942021

>  <SCORE.SYSTEM>
0

>  <SCORE.SYSTEM.CONST>
0

>  <SCORE.SYSTEM.DIHEDRAL>
0

>  <SCORE.SYSTEM.SOLV>
0

>  <SCORE.SYSTEM.norm>
0

>  <SCORE.heavy>
40

>  <SCORE.norm>
-0.628143

>  <RMSD>
0.953

$$$$
1nta_lig
 OpenBabel11021811403D
libRbt.so/2013.1/901 2013/11/27
 40 42  0  0  0  0  0  0  0  0999 V2000
    9.3548   33.2888   -1.3338 C   0  0  0  0  0  0  0  0  0  0  0  0
   10.0360   32.4717   -2.0469 N   0  0  0  0  0  0  0  0  0  0  0  0
    0.2405   35.1801   -4.7472 C   0  0  0  0  0  0  0  0  0  0  0  0
   -0.1362   34.7447   -5.8130 O   0  0  0  0  0  0  0  0  0  0  0  0
    4.3960   36.4426    0.6780 C   0  0  0  0  0  0  0  0  0  0  0  0
    4.8938   36.4670    1.8869 N   0  0  0  0  0  0  0  0  0  0  0  0
    0.3328   31.9426   -3.9910 C   0  0  0  0  0  0  0  0  0  0  0  0
    1.9561   39.1373   -2.4763 C   0  0  0  0  0  0  0  0  0  0  0  0
    7.0228   33.6397   -1.5315 C   0  0  2  0  0  0  0  0  0  0  0  0
    8.1707   32.8485   -0.9354 N   0  0  0  0  0  0  0  0  0  0  0  0
    1.8017   34.3657   -1.7862 C   0  0  2  0  0  0  0  0  0  0  0  0
    0.5709   36.7083   -0.6457 C   0  0  1  0  0  0  0  0  0  0  0  0
   -0.0528   35.7523   -1.4297 O   0  0  0  0  0  0  0  0  0  0  0  0
    6.0775   34.1229   -0.4153 C   0  0  1  0  0  0  0  0  0  0  0  0
    6.8097   34.9902    0.3969 O   0  0  0  0  0  0  0  0  0  0  0  0
    0.7354   35.2794   -2.3806 C   0  0  2  0  0  0  0  0  0  0  0  0
    0.3867   38.1395   -1.1001 C   0  0  1  0  0  0  0  0  0  0  0  0
    0.8091   38.2451   -2.4538 N   0  0  0  0  0  0  0  0  0  0  0  0
    4.8811   34.9118   -0.9641 C   0  0  2  0  0  0  0  0  0  0  0  0
    3.9467   35.3888    0.0835 N   0  0  0  0  0  0  0  0  0  0  0  0
    0.1956   34.4268   -3.4448 C   0  0  1  0  0  0  0  0  0  0  0  0
   -1.1387   34.0769   -3.0714 O   0  0  0  0  0  0  0  0  0  0  0  0
   -0.9438   38.5245   -1.0118 C   0  0  2  0  0  0  0  0  0  0  0  0
   -0.9933   39.9213   -1.1590 O   0  0  0  0  0  0  0  0  0  0  0  0
    4.1280   34.0129   -1.9320 C   0  0  1  0  0  0  0  0  0  0  0  0
    3.0253   34.7482   -2.4389 O   0  0  0  0  0  0  0  0  0  0  0  0
    0.9958   33.1978   -3.5146 C   0  0  1  0  0  0  0  0  0  0  0  0
    1.5152   33.0493   -2.1989 O   0  0  0  0  0  0  0  0  0  0  0  0
   -1.5130   38.1399    0.3285 C   0  0  1  0  0  0  0  0  0  0  0  0
   -2.8987   38.3177    0.3010 O   0  0  0  0  0  0  0  0  0  0  0  0
    5.0676   33.5588   -3.0851 C   0  0  2  0  0  0  0  0  0  0  0  0
    4.3410   32.7260   -3.9872 O   0  0  0  0  0  0  0  0  0  0  0  0
   -1.2308   36.7018    0.6020 C   0  0  1  0  0  0  0  0  0  0  0  0
    0.1574   36.5361    0.6310 O   0  0  0  0  0  0  0  0  0  0  0  0
    6.2497   32.7628   -2.4935 C   0  0  1  0  0  0  0  0  0  0  0  0
    7.1301   32.3330   -3.5447 O   0  0  0  0  0  0  0  0  0  0  0  0
   -1.7815   36.2741    1.9768 C   0  0  0  0  0  0  0  0  0  0  0  0
   -3.2014   36.2063    1.9116 O   0  0  0  0  0  0  0  0  0  0  0  0
    9.7864   34.4640   -1.0258 N   0  0  0  0  0  0  0  0  0  0  0  0
    4.3074   37.5241    0.0079 N   0  0  0  0  0  0  0  0  0  0  0  0
  1  2  1  0  0  0  0
  1 39  1  0  0  0  0
  3  4  1  0  0  0  0
  5  6  1  0  0  0  0
  5 40  1  0  0  0  0
  9 10  1  1  0  0  0
  9 14  1  0  0  0  0
  9 35  1  0  0  0  0
 10  1  1  0  0  0  0
 11 16  1  0  0  0  0
 11 28  1  0  0  0  0
 11 26  1  6  0  0  0
 12 17  1  0  0  0  0
 12 34  1  0  0  0  0
 12 13  1  6  0  0  0
 14 15  1  1  0  0  0
 14 19  1  0  0  0  0
 16 13  1  1  0  0  0
 16 21  1  0  0  0  0
 17 18  1  6  0  0  0
 17 23  1  0  0  0  0
 18  8  1  0  0  0  0
 19 20  1  1  0  0  0
 19 25  1  0  0  0  0
 20  5  1  0  0  0  0
 21  3  1  6  0  0  0
 21 22  1  0  0  0  0
 21 27  1  0  0  0  0
 23 24  1  1  0  0  0
 23 29  1  0  0  0  0
 25 26  1  6  0  0  0
 25 31  1  0  0  0  0
 27  7  1  1  0  0  0
 27 28  1  0  0  0  0
 29 30  1  6  0  0  0
 29 33  1  0  0  0  0
 31 32  1  6  0  0  0
 31 35  1  0  0  0  0
 33 34  1  0  0  0  0
 33 37  1  1  0  0  0
 35 36  1  6  0  0  0
 37 38  1  0  0  0  0
M  END
>  <CHROM.1>
-127.69341161,-114.90854573,177.26618892,92.05472750,72.67604601,-115.86282855
78.78132660,-105.83036034,-179.97631655,-101.64264956,72.06708376,2.56878140
35.29439644,-1.46831579,-0.33124597,-0.24207722,0.86535383

>  <Name>
1nta_lig

>  <RI>
0

>  <Rbt.Current_Directory>
/home/itssahil/PROJECTS/Mol_Feturizer/New_Systems/rnas/1nta

>  <Rbt.Executable>
rbdock ($Id: //depot/dev/client3/rdock/2013.1/src/exe/rbdock.cxx#4 $)

>  <Rbt.Library>
libRbt.so (2013.1, Build901 2013/11/27)

>  <Rbt.Parameter_File>
/export/apps/rDock/src/rDock_2013.1_src/data/scripts/dock_solv.prm

>  <Rbt.Receptor>
prm/pocket_docking_2.prm

>  <SCORE>
-27.2665

>  <SCORE.INTER>
-6.58368

>  <SCORE.INTER.CONST>
1

>  <SCORE.INTER.POLAR>
-0.889763

>  <SCORE.INTER.ROT>
11

>  <SCORE.INTER.SOLV>
21.5339

>  <SCORE.INTER.VDW>
-19.5345

>  <SCORE.INTER.norm>
-0.164592

>  <SCORE.INTRA>
-20.7183

>  <SCORE.INTRA.DIHEDRAL>
-4.47472

>  <SCORE.INTRA.DIHEDRAL.0>
19.0336

>  <SCORE.INTRA.POLAR>
0

>  <SCORE.INTRA.POLAR.0>
0

>  <SCORE.INTRA.REPUL>
0.00491471

>  <SCORE.INTRA.REPUL.0>
0

>  <SCORE.INTRA.SOLV>
-2.51436

>  <SCORE.INTRA.SOLV.lig_0>
-97.5861

>  <SCORE.INTRA.VDW>
-17.2484

>  <SCORE.INTRA.VDW.0>
11.7669

>  <SCORE.INTRA.norm>
-0.517959

>  <SCORE.RESTR>
0.0355567

>  <SCORE.RESTR.CAVITY>
0.0355567

>  <SCORE.RESTR.norm>
0.000888919

>  <SCORE.SYSTEM>
0

>  <SCORE.SYSTEM.CONST>
0

>  <SCORE.SYSTEM.DIHEDRAL>
0

>  <SCORE.SYSTEM.SOLV>
0

>  <SCORE.SYSTEM.norm>
0

>  <SCORE.heavy>
40

>  <SCORE.norm>
-0.681662

>  <RMSD>
0.975

$$$$
1nta_lig
 OpenBabel11021811403D
libRbt.so/2013.1/901 2013/11/27
 40 42  0  0  0  0  0  0  0  0999 V2000
    9.3544   33.4633   -0.9420 C   0  0  0  0  0  0  0  0  0  0  0  0
    9.9079   32.6919   -1.8014 N   0  0  0  0  0  0  0  0  0  0  0  0
    0.3311   35.1059   -4.4972 C   0  0  0  0  0  0  0  0  0  0  0  0
    0.0199   34.7431   -5.6102 O   0  0  0  0  0  0  0  0  0  0  0  0
    3.8452   36.3382    1.0480 C   0  0  0  0  0  0  0  0  0  0  0  0
    3.1206   37.3565    0.6637 N   0  0  0  0  0  0  0  0  0  0  0  0
    0.6816   31.8375   -3.9910 C   0  0  0  0  0  0  0  0  0  0  0  0
    1.6500   38.6141   -2.0014 C   0  0  0  0  0  0  0  0  0  0  0  0
    7.0160   33.8156   -1.0331 C   0  0  2  0  0  0  0  0  0  0  0  0
    8.1916   33.0449   -0.4649 N   0  0  0  0  0  0  0  0  0  0  0  0
    1.7729   34.1880   -1.5060 C   0  0  2  0  0  0  0  0  0  0  0  0
    0.2169   36.3826   -0.3400 C   0  0  1  0  0  0  0  0  0  0  0  0
   -0.2233   35.3686   -1.1741 O   0  0  0  0  0  0  0  0  0  0  0  0
    5.9820   34.0952    0.0739 C   0  0  1  0  0  0  0  0  0  0  0  0
    6.6031   34.9119    1.0201 O   0  0  0  0  0  0  0  0  0  0  0  0
    0.6644   35.0496   -2.1011 C   0  0  2  0  0  0  0  0  0  0  0  0
   -0.1346   37.7854   -0.7844 C   0  0  1  0  0  0  0  0  0  0  0  0
    0.3478   37.9777   -2.1082 N   0  0  0  0  0  0  0  0  0  0  0  0
    4.7559   34.8546   -0.4504 C   0  0  2  0  0  0  0  0  0  0  0  0
    3.7366   35.1370    0.5885 N   0  0  0  0  0  0  0  0  0  0  0  0
    0.2758   34.2447   -3.2639 C   0  0  1  0  0  0  0  0  0  0  0  0
   -1.0402   33.7470   -3.0137 O   0  0  0  0  0  0  0  0  0  0  0  0
   -1.5080   37.9842   -0.7719 C   0  0  2  0  0  0  0  0  0  0  0  0
   -1.7395   39.3643   -0.9020 O   0  0  0  0  0  0  0  0  0  0  0  0
    4.1241   34.0235   -1.5557 C   0  0  1  0  0  0  0  0  0  0  0  0
    2.9934   34.7317   -2.0392 O   0  0  0  0  0  0  0  0  0  0  0  0
    1.1915   33.1023   -3.3727 C   0  0  1  0  0  0  0  0  0  0  0  0
    1.6389   32.8906   -2.0393 O   0  0  0  0  0  0  0  0  0  0  0  0
   -2.0967   37.4959    0.5256 C   0  0  1  0  0  0  0  0  0  0  0  0
   -3.4897   37.4846    0.4162 O   0  0  0  0  0  0  0  0  0  0  0  0
    5.1519   33.7767   -2.6965 C   0  0  2  0  0  0  0  0  0  0  0  0
    4.5380   33.0051   -3.7276 O   0  0  0  0  0  0  0  0  0  0  0  0
   -1.6368   36.1037    0.7953 C   0  0  1  0  0  0  0  0  0  0  0  0
   -0.2431   36.1273    0.9065 O   0  0  0  0  0  0  0  0  0  0  0  0
    6.3622   33.0041   -2.1313 C   0  0  1  0  0  0  0  0  0  0  0  0
    7.3242   32.7651   -3.1717 O   0  0  0  0  0  0  0  0  0  0  0  0
   -2.2033   35.5746    2.1278 C   0  0  0  0  0  0  0  0  0  0  0  0
   -1.8000   36.4390    3.1838 O   0  0  0  0  0  0  0  0  0  0  0  0
    9.8869   34.5759   -0.5668 N   0  0  0  0  0  0  0  0  0  0  0  0
    4.7561   36.5044    1.9250 N   0  0  0  0  0  0  0  0  0  0  0  0
  1  2  1  0  0  0  0
  1 39  1  0  0  0  0
  3  4  1  0  0  0  0
  5  6  1  0  0  0  0
  5 40  1  0  0  0  0
  9 10  1  1  0  0  0
  9 14  1  0  0  0  0
  9 35  1  0  0  0  0
 10  1  1  0  0  0  0
 11 16  1  0  0  0  0
 11 28  1  0  0  0  0
 11 26  1  6  0  0  0
 12 17  1  0  0  0  0
 12 34  1  0  0  0  0
 12 13  1  6  0  0  0
 14 15  1  1  0  0  0
 14 19  1  0  0  0  0
 16 13  1  1  0  0  0
 16 21  1  0  0  0  0
 17 18  1  6  0  0  0
 17 23  1  0  0  0  0
 18  8  1  0  0  0  0
 19 20  1  1  0  0  0
 19 25  1  0  0  0  0
 20  5  1  0  0  0  0
 21  3  1  6  0  0  0
 21 22  1  0  0  0  0
 21 27  1  0  0  0  0
 23 24  1  1  0  0  0
 23 29  1  0  0  0  0
 25 26  1  6  0  0  0
 25 31  1  0  0  0  0
 27  7  1  1  0  0  0
 27 28  1  0  0  0  0
 29 30  1  6  0  0  0
 29 33  1  0  0  0  0
 31 32  1  6  0  0  0
 31 35  1  0  0  0  0
 33 34  1  0  0  0  0
 33 37  1  1  0  0  0
 35 36  1  6  0  0  0
 37 38  1  0  0  0  0
M  END
>  <CHROM.1>
-139.43638834,-105.59643909,179.58182850,90.59782154,77.45890100,-95.19350839
98.29701806,98.44764783,-177.22915501,-101.64883612,-58.08182778,2.44791557
35.14707845,-1.13299971,-0.25951097,-0.24160159,1.00824377

>  <Name>
1nta_lig

>  <RI>
0

>  <Rbt.Current_Directory>
/home/itssahil/PROJECTS/Mol_Feturizer/New_Systems/rnas/1nta

>  <Rbt.Executable>
rbdock ($Id: //depot/dev/client3/rdock/2013.1/src/exe/rbdock.cxx#4 $)

>  <Rbt.Library>
libRbt.so (2013.1, Build901 2013/11/27)

>  <Rbt.Parameter_File>
/export/apps/rDock/src/rDock_2013.1_src/data/scripts/dock_solv.prm

>  <Rbt.Receptor>
prm/pocket_docking_2.prm

>  <SCORE>
-25.7115

>  <SCORE.INTER>
-5.42661

>  <SCORE.INTER.CONST>
1

>  <SCORE.INTER.POLAR>
-0.753626

>  <SCORE.INTER.ROT>
11

>  <SCORE.INTER.SOLV>
20.9857

>  <SCORE.INTER.VDW>
-19.0342

>  <SCORE.INTER.norm>
-0.135665

>  <SCORE.INTRA>
-20.3044

>  <SCORE.INTRA.DIHEDRAL>
-4.59045

>  <SCORE.INTRA.DIHEDRAL.0>
19.0336

>  <SCORE.INTRA.POLAR>
0

>  <SCORE.INTRA.POLAR.0>
0

>  <SCORE.INTRA.REPUL>
0.00223693

>  <SCORE.INTRA.REPUL.0>
0

>  <SCORE.INTRA.SOLV>
-0.43244

>  <SCORE.INTRA.SOLV.lig_0>
-97.5861

>  <SCORE.INTRA.VDW>
-17.8041

>  <SCORE.INTRA.VDW.0>
11.7669

>  <SCORE.INTRA.norm>
-0.50761

>  <SCORE.RESTR>
0.0194812

>  <SCORE.RESTR.CAVITY>
0.0194812

>  <SCORE.RESTR.norm>
0.000487029

>  <SCORE.SYSTEM>
0

>  <SCORE.SYSTEM.CONST>
0

>  <SCORE.SYSTEM.DIHEDRAL>
0

>  <SCORE.SYSTEM.SOLV>
0

>  <SCORE.SYSTEM.norm>
0

>  <SCORE.heavy>
40

>  <SCORE.norm>
-0.642788

>  <RMSD>
0.980

$$$$
1nta_lig
 OpenBabel11021811403D
libRbt.so/2013.1/901 2013/11/27
 40 42  0  0  0  0  0  0  0  0999 V2000
    9.3695   33.3223   -1.2987 C   0  0  0  0  0  0  0  0  0  0  0  0
   10.1057   32.5570   -2.0145 N   0  0  0  0  0  0  0  0  0  0  0  0
    0.2590   35.2744   -4.7094 C   0  0  0  0  0  0  0  0  0  0  0  0
   -0.1634   34.9237   -5.7892 O   0  0  0  0  0  0  0  0  0  0  0  0
    4.3501   36.4140    0.6818 C   0  0  0  0  0  0  0  0  0  0  0  0
    4.2528   37.6025    0.1454 N   0  0  0  0  0  0  0  0  0  0  0  0
    0.3773   31.9986   -4.1469 C   0  0  0  0  0  0  0  0  0  0  0  0
    1.8908   39.1302   -2.4488 C   0  0  0  0  0  0  0  0  0  0  0  0
    7.0343   33.6249   -1.5358 C   0  0  2  0  0  0  0  0  0  0  0  0
    8.1883   32.8262   -0.9619 N   0  0  0  0  0  0  0  0  0  0  0  0
    1.8029   34.2995   -1.7881 C   0  0  2  0  0  0  0  0  0  0  0  0
    0.5047   36.6291   -0.5794 C   0  0  1  0  0  0  0  0  0  0  0  0
   -0.0685   35.6445   -1.3665 O   0  0  0  0  0  0  0  0  0  0  0  0
    6.0895   34.0759   -0.4058 C   0  0  1  0  0  0  0  0  0  0  0  0
    6.8191   34.9278    0.4248 O   0  0  0  0  0  0  0  0  0  0  0  0
    0.7325   35.2368   -2.3367 C   0  0  2  0  0  0  0  0  0  0  0  0
    0.3580   38.0419   -1.1002 C   0  0  1  0  0  0  0  0  0  0  0  0
    0.8718   38.0942   -2.4251 N   0  0  0  0  0  0  0  0  0  0  0  0
    4.8872   34.8708   -0.9324 C   0  0  2  0  0  0  0  0  0  0  0  0
    3.9531   35.3175    0.1288 N   0  0  0  0  0  0  0  0  0  0  0  0
    0.2104   34.4442   -3.4548 C   0  0  1  0  0  0  0  0  0  0  0  0
   -1.1233   34.0600   -3.1150 O   0  0  0  0  0  0  0  0  0  0  0  0
   -0.9737   38.4324   -1.1176 C   0  0  2  0  0  0  0  0  0  0  0  0
   -1.0070   39.8225   -1.3217 O   0  0  0  0  0  0  0  0  0  0  0  0
    4.1364   33.9911   -1.9194 C   0  0  1  0  0  0  0  0  0  0  0  0
    3.0281   34.7320   -2.4057 O   0  0  0  0  0  0  0  0  0  0  0  0
    1.0236   33.2293   -3.5904 C   0  0  1  0  0  0  0  0  0  0  0  0
    1.5332   33.0074   -2.2812 O   0  0  0  0  0  0  0  0  0  0  0  0
   -1.6344   38.1011    0.1947 C   0  0  1  0  0  0  0  0  0  0  0  0
   -3.0142   38.2801    0.0661 O   0  0  0  0  0  0  0  0  0  0  0  0
    5.0752   33.5700   -3.0856 C   0  0  2  0  0  0  0  0  0  0  0  0
    4.3507   32.7547   -4.0053 O   0  0  0  0  0  0  0  0  0  0  0  0
   -1.3776   36.6742    0.5421 C   0  0  1  0  0  0  0  0  0  0  0  0
    0.0046   36.5074    0.6719 O   0  0  0  0  0  0  0  0  0  0  0  0
    6.2634   32.7668   -2.5163 C   0  0  1  0  0  0  0  0  0  0  0  0
    7.1432   32.3672   -3.5799 O   0  0  0  0  0  0  0  0  0  0  0  0
   -2.0223   36.3012    1.8918 C   0  0  0  0  0  0  0  0  0  0  0  0
   -3.4378   36.2861    1.7459 O   0  0  0  0  0  0  0  0  0  0  0  0
    9.7463   34.4996   -0.9323 N   0  0  0  0  0  0  0  0  0  0  0  0
    4.8928   36.2792    1.8279 N   0  0  0  0  0  0  0  0  0  0  0  0
  1  2  1  0  0  0  0
  1 39  1  0  0  0  0
  3  4  1  0  0  0  0
  5  6  1  0  0  0  0
  5 40  1  0  0  0  0
  9 10  1  1  0  0  0
  9 14  1  0  0  0  0
  9 35  1  0  0  0  0
 10  1  1  0  0  0  0
 11 16  1  0  0  0  0
 11 28  1  0  0  0  0
 11 26  1  6  0  0  0
 12 17  1  0  0  0  0
 12 34  1  0  0  0  0
 12 13  1  6  0  0  0
 14 15  1  1  0  0  0
 14 19  1  0  0  0  0
 16 13  1  1  0  0  0
 16 21  1  0  0  0  0
 17 18  1  6  0  0  0
 17 23  1  0  0  0  0
 18  8  1  0  0  0  0
 19 20  1  1  0  0  0
 19 25  1  0  0  0  0
 20  5  1  0  0  0  0
 21  3  1  6  0  0  0
 21 22  1  0  0  0  0
 21 27  1  0  0  0  0
 23 24  1  1  0  0  0
 23 29  1  0  0  0  0
 25 26  1  6  0  0  0
 25 31  1  0  0  0  0
 27  7  1  1  0  0  0
 27 28  1  0  0  0  0
 29 30  1  6  0  0  0
 29 33  1  0  0  0  0
 31 32  1  6  0  0  0
 31 35  1  0  0  0  0
 33 34  1  0  0  0  0
 33 37  1  1  0  0  0
 35 36  1  6  0  0  0
 37 38  1  0  0  0  0
M  END
>  <CHROM.1>
-124.54563633,-116.74922548,176.43532168,85.11984018,77.07908898,-124.20457087
83.45265767,75.97525677,-176.21800457,-103.37489904,69.74129928,2.54292202
35.27897942,-1.48707391,-0.31207908,-0.24606363,0.88064620

>  <Name>
1nta_lig

>  <RI>
0

>  <Rbt.Current_Directory>
/home/itssahil/PROJECTS/Mol_Feturizer/New_Systems/rnas/1nta

>  <Rbt.Executable>
rbdock ($Id: //depot/dev/client3/rdock/2013.1/src/exe/rbdock.cxx#4 $)

>  <Rbt.Library>
libRbt.so (2013.1, Build901 2013/11/27)

>  <Rbt.Parameter_File>
/export/apps/rDock/src/rDock_2013.1_src/data/scripts/dock_solv.prm

>  <Rbt.Receptor>
prm/pocket_docking_2.prm

>  <SCORE>
-27.5041

>  <SCORE.INTER>
-6.57431

>  <SCORE.INTER.CONST>
1

>  <SCORE.INTER.POLAR>
-0.816266

>  <SCORE.INTER.ROT>
11

>  <SCORE.INTER.SOLV>
21.0819

>  <SCORE.INTER.VDW>
-19.6226

>  <SCORE.INTER.norm>
-0.164358

>  <SCORE.INTRA>
-20.9939

>  <SCORE.INTRA.DIHEDRAL>
-4.57225

>  <SCORE.INTRA.DIHEDRAL.0>
19.0336

>  <SCORE.INTRA.POLAR>
0

>  <SCORE.INTRA.POLAR.0>
0

>  <SCORE.INTRA.REPUL>
0

>  <SCORE.INTRA.REPUL.0>
0

>  <SCORE.INTRA.SOLV>
-2.58617

>  <SCORE.INTRA.SOLV.lig_0>
-97.5861

>  <SCORE.INTRA.VDW>
-17.4146

>  <SCORE.INTRA.VDW.0>
11.7669

>  <SCORE.INTRA.norm>
-0.524846

>  <SCORE.RESTR>
0.0640569

>  <SCORE.RESTR.CAVITY>
0.0640569

>  <SCORE.RESTR.norm>
0.00160142

>  <SCORE.SYSTEM>
0

>  <SCORE.SYSTEM.CONST>
0

>  <SCORE.SYSTEM.DIHEDRAL>
0

>  <SCORE.SYSTEM.SOLV>
0

>  <SCORE.SYSTEM.norm>
0

>  <SCORE.heavy>
40

>  <SCORE.norm>
-0.687603

>  <RMSD>
0.996

$$$$
1nta_lig
 OpenBabel11021811403D
libRbt.so/2013.1/901 2013/11/27
 40 42  0  0  0  0  0  0  0  0999 V2000
    8.2096   33.0942   -0.8036 C   0  0  0  0  0  0  0  0  0  0  0  0
    9.1320   33.8633   -0.3591 N   0  0  0  0  0  0  0  0  0  0  0  0
   -0.4939   36.1965   -3.9781 C   0  0  0  0  0  0  0  0  0  0  0  0
    0.5660   36.4791   -4.4920 O   0  0  0  0  0  0  0  0  0  0  0  0
    3.3696   36.3238    1.4960 C   0  0  0  0  0  0  0  0  0  0  0  0
    2.3444   35.5514    1.7452 N   0  0  0  0  0  0  0  0  0  0  0  0
   -0.5796   32.9158   -3.4386 C   0  0  0  0  0  0  0  0  0  0  0  0
    1.8189   39.1188   -1.2888 C   0  0  0  0  0  0  0  0  0  0  0  0
    5.9728   33.8672   -0.8197 C   0  0  2  0  0  0  0  0  0  0  0  0
    7.0777   33.1039   -0.1155 N   0  0  0  0  0  0  0  0  0  0  0  0
    0.8385   35.1233   -0.9879 C   0  0  2  0  0  0  0  0  0  0  0  0
   -0.3780   37.4637    0.2105 C   0  0  1  0  0  0  0  0  0  0  0  0
   -0.9786   36.5640   -0.6541 O   0  0  0  0  0  0  0  0  0  0  0  0
    5.4000   34.9502    0.1140 C   0  0  1  0  0  0  0  0  0  0  0  0
    6.4316   35.8520    0.3794 O   0  0  0  0  0  0  0  0  0  0  0  0
   -0.1499   36.1197   -1.5841 C   0  0  2  0  0  0  0  0  0  0  0  0
   -0.2624   38.8806   -0.3069 C   0  0  1  0  0  0  0  0  0  0  0  0
    0.4151   38.8549   -1.5569 N   0  0  0  0  0  0  0  0  0  0  0  0
    4.2590   35.7410   -0.5398 C   0  0  2  0  0  0  0  0  0  0  0  0
    3.6800   36.7900    0.3333 N   0  0  0  0  0  0  0  0  0  0  0  0
   -0.6531   35.3628   -2.7350 C   0  0  1  0  0  0  0  0  0  0  0  0
   -2.0216   35.0484   -2.4696 O   0  0  0  0  0  0  0  0  0  0  0  0
   -1.5149   39.4515   -0.4848 C   0  0  2  0  0  0  0  0  0  0  0  0
   -1.3305   40.8318   -0.6741 O   0  0  0  0  0  0  0  0  0  0  0  0
    3.1666   34.7575   -0.9290 C   0  0  1  0  0  0  0  0  0  0  0  0
    2.1161   35.4933   -1.5361 O   0  0  0  0  0  0  0  0  0  0  0  0
    0.1005   34.1069   -2.8381 C   0  0  1  0  0  0  0  0  0  0  0  0
    0.5273   33.8504   -1.5058 O   0  0  0  0  0  0  0  0  0  0  0  0
   -2.3735   39.2211    0.7309 C   0  0  1  0  0  0  0  0  0  0  0  0
   -3.6885   39.5885    0.4341 O   0  0  0  0  0  0  0  0  0  0  0  0
    3.7305   33.6880   -1.9072 C   0  0  2  0  0  0  0  0  0  0  0  0
    2.6895   32.7818   -2.2685 O   0  0  0  0  0  0  0  0  0  0  0  0
   -2.3613   37.7741    1.0897 C   0  0  1  0  0  0  0  0  0  0  0  0
   -1.0424   37.4183    1.3882 O   0  0  0  0  0  0  0  0  0  0  0  0
    4.8663   32.9104   -1.2098 C   0  0  1  0  0  0  0  0  0  0  0  0
    5.4005   31.9154   -2.0984 O   0  0  0  0  0  0  0  0  0  0  0  0
   -3.2147   37.5004    2.3440 C   0  0  0  0  0  0  0  0  0  0  0  0
   -3.0984   36.1272    2.6985 O   0  0  0  0  0  0  0  0  0  0  0  0
    8.3689   32.3545   -1.8474 N   0  0  0  0  0  0  0  0  0  0  0  0
    4.1346   36.6876    2.4494 N   0  0  0  0  0  0  0  0  0  0  0  0
  1  2  1  0  0  0  0
  1 39  1  0  0  0  0
  3  4  1  0  0  0  0
  5  6  1  0  0  0  0
  5 40  1  0  0  0  0
  9 10  1  1  0  0  0
  9 14  1  0  0  0  0
  9 35  1  0  0  0  0
 10  1  1  0  0  0  0
 11 16  1  0  0  0  0
 11 28  1  0  0  0  0
 11 26  1  6  0  0  0
 12 17  1  0  0  0  0
 12 34  1  0  0  0  0
 12 13  1  6  0  0  0
 14 15  1  6  0  0  0
 14 19  1  0  0  0  0
 16 13  1  1  0  0  0
 16 21  1  0  0  0  0
 17 18  1  6  0  0  0
 17 23  1  0  0  0  0
 18  8  1  0  0  0  0
 19 20  1  1  0  0  0
 19 25  1  0  0  0  0
 20  5  1  0  0  0  0
 21  3  1  6  0  0  0
 21 22  1  0  0  0  0
 21 27  1  0  0  0  0
 23 24  1  1  0  0  0
 23 29  1  0  0  0  0
 25 26  1  6  0  0  0
 25 31  1  0  0  0  0
 27  7  1  1  0  0  0
 27 28  1  0  0  0  0
 29 30  1  6  0  0  0
 29 33  1  0  0  0  0
 31 32  1  1  0  0  0
 31 35  1  0  0  0  0
 33 34  1  0  0  0  0
 33 37  1  1  0  0  0
 35 36  1  6  0  0  0
 37 38  1  0  0  0  0
M  END
>  <CHROM.1>
-125.67806789,105.16206527,172.25579616,80.42241241,74.15494889,-95.47935227
-50.54177248,-73.89983152,69.29324266,-132.19820739,-176.07596513,1.70322515
35.85191861,-0.71189601,-0.39930077,-0.30638432,0.80449140

>  <Name>
1nta_lig

>  <RI>
0

>  <Rbt.Current_Directory>
/home/itssahil/PROJECTS/Mol_Feturizer/New_Systems/rnas/1nta

>  <Rbt.Executable>
rbdock ($Id: //depot/dev/client3/rdock/2013.1/src/exe/rbdock.cxx#4 $)

>  <Rbt.Library>
libRbt.so (2013.1, Build901 2013/11/27)

>  <Rbt.Parameter_File>
/export/apps/rDock/src/rDock_2013.1_src/data/scripts/dock_solv.prm

>  <Rbt.Receptor>
prm/pocket_docking_2.prm

>  <SCORE>
-17.3663

>  <SCORE.INTER>
1.67199

>  <SCORE.INTER.CONST>
1

>  <SCORE.INTER.POLAR>
-0.795034

>  <SCORE.INTER.ROT>
11

>  <SCORE.INTER.SOLV>
20.5823

>  <SCORE.INTER.VDW>
-14.0293

>  <SCORE.INTER.norm>
0.0417996

>  <SCORE.INTRA>
-19.0644

>  <SCORE.INTRA.DIHEDRAL>
-5.71335

>  <SCORE.INTRA.DIHEDRAL.0>
19.0336

>  <SCORE.INTRA.POLAR>
0

>  <SCORE.INTRA.POLAR.0>
0

>  <SCORE.INTRA.REPUL>
0

>  <SCORE.INTRA.REPUL.0>
0

>  <SCORE.INTRA.SOLV>
0.188734

>  <SCORE.INTRA.SOLV.lig_0>
-97.5861

>  <SCORE.INTRA.VDW>
-16.3021

>  <SCORE.INTRA.VDW.0>
11.7669

>  <SCORE.INTRA.norm>
-0.476609

>  <SCORE.RESTR>
0.0260963

>  <SCORE.RESTR.CAVITY>
0.0260963

>  <SCORE.RESTR.norm>
0.000652407

>  <SCORE.SYSTEM>
0

>  <SCORE.SYSTEM.CONST>
0

>  <SCORE.SYSTEM.DIHEDRAL>
0

>  <SCORE.SYSTEM.SOLV>
0

>  <SCORE.SYSTEM.norm>
0

>  <SCORE.heavy>
40

>  <SCORE.norm>
-0.434157

>  <RMSD>
0.997

$$$$
1nta_lig
 OpenBabel11021811403D
libRbt.so/2013.1/901 2013/11/27
 40 42  0  0  0  0  0  0  0  0999 V2000
    9.3822   33.3151   -1.2582 C   0  0  0  0  0  0  0  0  0  0  0  0
   10.0613   32.5342   -2.0127 N   0  0  0  0  0  0  0  0  0  0  0  0
    0.2775   35.1212   -4.7435 C   0  0  0  0  0  0  0  0  0  0  0  0
   -0.3813   36.1064   -4.9937 O   0  0  0  0  0  0  0  0  0  0  0  0
    4.3375   36.4059    0.7089 C   0  0  0  0  0  0  0  0  0  0  0  0
    4.7998   36.4718    1.9303 N   0  0  0  0  0  0  0  0  0  0  0  0
    0.4022   31.8810   -4.0037 C   0  0  0  0  0  0  0  0  0  0  0  0
    1.8691   39.1876   -2.4489 C   0  0  0  0  0  0  0  0  0  0  0  0
    7.0483   33.6402   -1.4761 C   0  0  2  0  0  0  0  0  0  0  0  0
    8.1995   32.8553   -0.8781 N   0  0  0  0  0  0  0  0  0  0  0  0
    1.8227   34.3097   -1.7733 C   0  0  2  0  0  0  0  0  0  0  0  0
    0.5565   36.6251   -0.6261 C   0  0  1  0  0  0  0  0  0  0  0  0
   -0.0515   35.6719   -1.4257 O   0  0  0  0  0  0  0  0  0  0  0  0
    6.0844   34.0955   -0.3641 C   0  0  1  0  0  0  0  0  0  0  0  0
    6.7962   34.9605    0.4684 O   0  0  0  0  0  0  0  0  0  0  0  0
    0.7506   35.2136   -2.3721 C   0  0  2  0  0  0  0  0  0  0  0  0
    0.3841   38.0577   -1.0811 C   0  0  1  0  0  0  0  0  0  0  0  0
    0.8359   38.1658   -2.4251 N   0  0  0  0  0  0  0  0  0  0  0  0
    4.8841   34.8767   -0.9153 C   0  0  2  0  0  0  0  0  0  0  0  0
    3.9320   35.3270    0.1281 N   0  0  0  0  0  0  0  0  0  0  0  0
    0.2304   34.3604   -3.4456 C   0  0  1  0  0  0  0  0  0  0  0  0
   -1.1028   33.9925   -3.0856 O   0  0  0  0  0  0  0  0  0  0  0  0
   -0.9473   38.4445   -1.0207 C   0  0  2  0  0  0  0  0  0  0  0  0
   -0.9917   39.8416   -1.1657 O   0  0  0  0  0  0  0  0  0  0  0  0
    4.1536   33.9821   -1.9041 C   0  0  1  0  0  0  0  0  0  0  0  0
    3.0472   34.7104   -2.4133 O   0  0  0  0  0  0  0  0  0  0  0  0
    1.0459   33.1415   -3.5148 C   0  0  1  0  0  0  0  0  0  0  0  0
    1.5557   32.9921   -2.1955 O   0  0  0  0  0  0  0  0  0  0  0  0
   -1.5460   38.0575    0.3061 C   0  0  1  0  0  0  0  0  0  0  0  0
   -2.9305   38.2374    0.2490 O   0  0  0  0  0  0  0  0  0  0  0  0
    5.1118   33.5563   -3.0528 C   0  0  2  0  0  0  0  0  0  0  0  0
    4.4061   32.7271   -3.9746 O   0  0  0  0  0  0  0  0  0  0  0  0
   -1.2718   36.6184    0.5822 C   0  0  1  0  0  0  0  0  0  0  0  0
    0.1152   36.4506    0.6409 O   0  0  0  0  0  0  0  0  0  0  0  0
    6.2974   32.7671   -2.4589 C   0  0  1  0  0  0  0  0  0  0  0  0
    7.1949   32.3635   -3.5060 O   0  0  0  0  0  0  0  0  0  0  0  0
   -1.8527   36.1884    1.9438 C   0  0  0  0  0  0  0  0  0  0  0  0
   -3.2649   36.0557    1.8291 O   0  0  0  0  0  0  0  0  0  0  0  0
    9.8145   34.4740   -0.8945 N   0  0  0  0  0  0  0  0  0  0  0  0
    4.2410   37.4684    0.0103 N   0  0  0  0  0  0  0  0  0  0  0  0
  1  2  1  0  0  0  0
  1 39  1  0  0  0  0
  3  4  1  0  0  0  0
  5  6  1  0  0  0  0
  5 40  1  0  0  0  0
  9 10  1  1  0  0  0
  9 14  1  0  0  0  0
  9 35  1  0  0  0  0
 10  1  1  0  0  0  0
 11 16  1  0  0  0  0
 11 28  1  0  0  0  0
 11 26  1  6  0  0  0
 12 17  1  0  0  0  0
 12 34  1  0  0  0  0
 12 13  1  6  0  0  0
 14 15  1  1  0  0  0
 14 19  1  0  0  0  0
 16 13  1  1  0  0  0
 16 21  1  0  0  0  0
 17 18  1  6  0  0  0
 17 23  1  0  0  0  0
 18  8  1  0  0  0  0
 19 20  1  1  0  0  0
 19 25  1  0  0  0  0
 20  5  1  0  0  0  0
 21  3  1  6  0  0  0
 21 22  1  0  0  0  0
 21 27  1  0  0  0  0
 23 24  1  1  0  0  0
 23 29  1  0  0  0  0
 25 26  1  6  0  0  0
 25 31  1  0  0  0  0
 27  7  1  1  0  0  0
 27 28  1  0  0  0  0
 29 30  1  6  0  0  0
 29 33  1  0  0  0  0
 31 32  1  6  0  0  0
 31 35  1  0  0  0  0
 33 34  1  0  0  0  0
 33 37  1  1  0  0  0
 35 36  1  6  0  0  0
 37 38  1  0  0  0  0
M  END
>  <CHROM.1>
-127.78121064,-112.59232711,177.48404251,91.16666875,72.30876986,-123.17000234
81.14548025,-107.90219435,-65.98489945,-101.24151780,75.04599711,2.56452949
35.29046573,-1.42851289,-0.31981311,-0.24238114,0.85854327

>  <Name>
1nta_lig

>  <RI>
0

>  <Rbt.Current_Directory>
/home/itssahil/PROJECTS/Mol_Feturizer/New_Systems/rnas/1nta

>  <Rbt.Executable>
rbdock ($Id: //depot/dev/client3/rdock/2013.1/src/exe/rbdock.cxx#4 $)

>  <Rbt.Library>
libRbt.so (2013.1, Build901 2013/11/27)

>  <Rbt.Parameter_File>
/export/apps/rDock/src/rDock_2013.1_src/data/scripts/dock_solv.prm

>  <Rbt.Receptor>
prm/pocket_docking_2.prm

>  <SCORE>
-27.3568

>  <SCORE.INTER>
-6.81631

>  <SCORE.INTER.CONST>
1

>  <SCORE.INTER.POLAR>
-0.877678

>  <SCORE.INTER.ROT>
11

>  <SCORE.INTER.SOLV>
21.5228

>  <SCORE.INTER.VDW>
-19.7262

>  <SCORE.INTER.norm>
-0.170408

>  <SCORE.INTRA>
-20.6354

>  <SCORE.INTRA.DIHEDRAL>
-4.27582

>  <SCORE.INTRA.DIHEDRAL.0>
19.0336

>  <SCORE.INTRA.POLAR>
0

>  <SCORE.INTRA.POLAR.0>
0

>  <SCORE.INTRA.REPUL>
0

>  <SCORE.INTRA.REPUL.0>
0

>  <SCORE.INTRA.SOLV>
-2.09834

>  <SCORE.INTRA.SOLV.lig_0>
-97.5861

>  <SCORE.INTRA.VDW>
-17.4483

>  <SCORE.INTRA.VDW.0>
11.7669

>  <SCORE.INTRA.norm>
-0.515885

>  <SCORE.RESTR>
0.0948867

>  <SCORE.RESTR.CAVITY>
0.0948867

>  <SCORE.RESTR.norm>
0.00237217

>  <SCORE.SYSTEM>
0

>  <SCORE.SYSTEM.CONST>
0

>  <SCORE.SYSTEM.DIHEDRAL>
0

>  <SCORE.SYSTEM.SOLV>
0

>  <SCORE.SYSTEM.norm>
0

>  <SCORE.heavy>
40

>  <SCORE.norm>
-0.683921

>  <RMSD>
1.009

$$$$
1nta_lig
 OpenBabel11021811403D
libRbt.so/2013.1/901 2013/11/27
 40 42  0  0  0  0  0  0  0  0999 V2000
    9.3469   33.5017   -0.8644 C   0  0  0  0  0  0  0  0  0  0  0  0
    9.8606   32.6984   -1.7193 N   0  0  0  0  0  0  0  0  0  0  0  0
    0.2990   35.1340   -4.6721 C   0  0  0  0  0  0  0  0  0  0  0  0
   -0.1425   34.8544   -5.7649 O   0  0  0  0  0  0  0  0  0  0  0  0
    3.8073   36.2959    0.8622 C   0  0  0  0  0  0  0  0  0  0  0  0
    4.2290   36.4625    2.0887 N   0  0  0  0  0  0  0  0  0  0  0  0
    0.4778   31.8365   -4.2776 C   0  0  0  0  0  0  0  0  0  0  0  0
    1.7613   38.9279   -2.0608 C   0  0  0  0  0  0  0  0  0  0  0  0
    7.0097   33.8224   -1.0525 C   0  0  2  0  0  0  0  0  0  0  0  0
    8.1748   33.1342   -0.3685 N   0  0  0  0  0  0  0  0  0  0  0  0
    1.7922   34.0404   -1.7665 C   0  0  2  0  0  0  0  0  0  0  0  0
    0.4289   36.2407   -0.4457 C   0  0  1  0  0  0  0  0  0  0  0  0
   -0.1191   35.3211   -1.3240 O   0  0  0  0  0  0  0  0  0  0  0  0
    5.9106   34.1493   -0.0239 C   0  0  1  0  0  0  0  0  0  0  0  0
    6.4569   35.0534    0.8883 O   0  0  0  0  0  0  0  0  0  0  0  0
    0.7146   34.9820   -2.2931 C   0  0  2  0  0  0  0  0  0  0  0  0
    0.2424   37.6925   -0.8282 C   0  0  1  0  0  0  0  0  0  0  0  0
    0.7513   37.8861   -2.1419 N   0  0  0  0  0  0  0  0  0  0  0  0
    4.6931   34.8278   -0.6660 C   0  0  2  0  0  0  0  0  0  0  0  0
    3.6122   35.1530    0.2952 N   0  0  0  0  0  0  0  0  0  0  0  0
    0.2384   34.2383   -3.4639 C   0  0  1  0  0  0  0  0  0  0  0  0
   -1.0943   33.8083   -3.1791 O   0  0  0  0  0  0  0  0  0  0  0  0
   -1.0995   38.0462   -0.8082 C   0  0  2  0  0  0  0  0  0  0  0  0
   -1.1713   39.4480   -0.8775 O   0  0  0  0  0  0  0  0  0  0  0  0
    4.1450   33.8972   -1.7363 C   0  0  1  0  0  0  0  0  0  0  0  0
    3.0221   34.5308   -2.3289 O   0  0  0  0  0  0  0  0  0  0  0  0
    1.0820   33.0498   -3.6415 C   0  0  1  0  0  0  0  0  0  0  0  0
    1.5642   32.7704   -2.3329 O   0  0  0  0  0  0  0  0  0  0  0  0
   -1.7476   37.5721    0.4661 C   0  0  1  0  0  0  0  0  0  0  0  0
   -3.1321   37.7247    0.3552 O   0  0  0  0  0  0  0  0  0  0  0  0
    5.2389   33.6002   -2.8012 C   0  0  2  0  0  0  0  0  0  0  0  0
    4.7031   32.7351   -3.8011 O   0  0  0  0  0  0  0  0  0  0  0  0
   -1.4511   36.1261    0.6746 C   0  0  1  0  0  0  0  0  0  0  0  0
   -0.0645   35.9855    0.7880 O   0  0  0  0  0  0  0  0  0  0  0  0
    6.4388   32.9111   -2.1182 C   0  0  1  0  0  0  0  0  0  0  0  0
    7.4613   32.6272   -3.0871 O   0  0  0  0  0  0  0  0  0  0  0  0
   -2.0820   35.6074    1.9820 C   0  0  0  0  0  0  0  0  0  0  0  0
   -1.5356   36.3256    3.0823 O   0  0  0  0  0  0  0  0  0  0  0  0
    9.9255   34.5982   -0.5107 N   0  0  0  0  0  0  0  0  0  0  0  0
    3.5338   37.3130    0.1432 N   0  0  0  0  0  0  0  0  0  0  0  0
  1  2  1  0  0  0  0
  1 39  1  0  0  0  0
  3  4  1  0  0  0  0
  5  6  1  0  0  0  0
  5 40  1  0  0  0  0
  9 10  1  1  0  0  0
  9 14  1  0  0  0  0
  9 35  1  0  0  0  0
 10  1  1  0  0  0  0
 11 16  1  0  0  0  0
 11 28  1  0  0  0  0
 11 26  1  6  0  0  0
 12 17  1  0  0  0  0
 12 34  1  0  0  0  0
 12 13  1  6  0  0  0
 14 15  1  1  0  0  0
 14 19  1  0  0  0  0
 16 13  1  1  0  0  0
 16 21  1  0  0  0  0
 17 18  1  6  0  0  0
 17 23  1  0  0  0  0
 18  8  1  0  0  0  0
 19 20  1  1  0  0  0
 19 25  1  0  0  0  0
 20  5  1  0  0  0  0
 21  3  1  6  0  0  0
 21 22  1  0  0  0  0
 21 27  1  0  0  0  0
 23 24  1  1  0  0  0
 23 29  1  0  0  0  0
 25 26  1  6  0  0  0
 25 31  1  0  0  0  0
 27  7  1  1  0  0  0
 27 28  1  0  0  0  0
 29 30  1  6  0  0  0
 29 33  1  0  0  0  0
 31 32  1  6  0  0  0
 31 35  1  0  0  0  0
 33 34  1  0  0  0  0
 33 37  1  1  0  0  0
 35 36  1  6  0  0  0
 37 38  1  0  0  0  0
M  END
>  <CHROM.1>
-142.77562970,-98.69578990,169.51923848,88.17503041,74.99089759,-123.04967128
85.86920986,-104.40224502,-172.73986543,-98.49432595,-61.14412871,2.52292915
35.12837487,-1.24686261,-0.26070412,-0.24786465,0.97695137

>  <Name>
1nta_lig

>  <RI>
0

>  <Rbt.Current_Directory>
/home/itssahil/PROJECTS/Mol_Feturizer/New_Systems/rnas/1nta

>  <Rbt.Executable>
rbdock ($Id: //depot/dev/client3/rdock/2013.1/src/exe/rbdock.cxx#4 $)

>  <Rbt.Library>
libRbt.so (2013.1, Build901 2013/11/27)

>  <Rbt.Parameter_File>
/export/apps/rDock/src/rDock_2013.1_src/data/scripts/dock_solv.prm

>  <Rbt.Receptor>
prm/pocket_docking_2.prm

>  <SCORE>
-26.3802

>  <SCORE.INTER>
-5.85605

>  <SCORE.INTER.CONST>
1

>  <SCORE.INTER.POLAR>
-0.869412

>  <SCORE.INTER.ROT>
11

>  <SCORE.INTER.SOLV>
22.6319

>  <SCORE.INTER.VDW>
-19.4833

>  <SCORE.INTER.norm>
-0.146401

>  <SCORE.INTRA>
-20.5463

>  <SCORE.INTRA.DIHEDRAL>
-5.28994

>  <SCORE.INTRA.DIHEDRAL.0>
19.0336

>  <SCORE.INTRA.POLAR>
0

>  <SCORE.INTRA.POLAR.0>
0

>  <SCORE.INTRA.REPUL>
0

>  <SCORE.INTRA.REPUL.0>
0

>  <SCORE.INTRA.SOLV>
-0.048114

>  <SCORE.INTRA.SOLV.lig_0>
-97.5861

>  <SCORE.INTRA.VDW>
-17.8773

>  <SCORE.INTRA.VDW.0>
11.7669

>  <SCORE.INTRA.norm>
-0.513658

>  <SCORE.RESTR>
0.0221569

>  <SCORE.RESTR.CAVITY>
0.0221569

>  <SCORE.RESTR.norm>
0.000553922

>  <SCORE.SYSTEM>
0

>  <SCORE.SYSTEM.CONST>
0

>  <SCORE.SYSTEM.DIHEDRAL>
0

>  <SCORE.SYSTEM.SOLV>
0

>  <SCORE.SYSTEM.norm>
0

>  <SCORE.heavy>
40

>  <SCORE.norm>
-0.659506

>  <RMSD>
1.019

$$$$
1nta_lig
 OpenBabel11021811403D
libRbt.so/2013.1/901 2013/11/27
 40 42  0  0  0  0  0  0  0  0999 V2000
    9.3824   33.5037   -0.9218 C   0  0  0  0  0  0  0  0  0  0  0  0
    9.8753   34.6122   -0.5115 N   0  0  0  0  0  0  0  0  0  0  0  0
    0.3133   34.9296   -4.7311 C   0  0  0  0  0  0  0  0  0  0  0  0
   -0.0723   34.5274   -5.8066 O   0  0  0  0  0  0  0  0  0  0  0  0
    3.8740   36.3330    0.8234 C   0  0  0  0  0  0  0  0  0  0  0  0
    3.9213   37.4899    0.2158 N   0  0  0  0  0  0  0  0  0  0  0  0
    0.4938   31.6789   -4.0514 C   0  0  0  0  0  0  0  0  0  0  0  0
    1.8245   38.9857   -2.4641 C   0  0  0  0  0  0  0  0  0  0  0  0
    7.0465   33.8449   -1.0889 C   0  0  2  0  0  0  0  0  0  0  0  0
    8.2136   33.1693   -0.3957 N   0  0  0  0  0  0  0  0  0  0  0  0
    1.8297   34.0923   -1.7532 C   0  0  2  0  0  0  0  0  0  0  0  0
    0.4878   36.3821   -0.6019 C   0  0  1  0  0  0  0  0  0  0  0  0
   -0.0773   35.4090   -1.4088 O   0  0  0  0  0  0  0  0  0  0  0  0
    5.9505   34.1911   -0.0633 C   0  0  1  0  0  0  0  0  0  0  0  0
    6.4997   35.1119    0.8304 O   0  0  0  0  0  0  0  0  0  0  0  0
    0.7483   34.9856   -2.3513 C   0  0  2  0  0  0  0  0  0  0  0  0
    0.3661   37.8001   -1.1150 C   0  0  1  0  0  0  0  0  0  0  0  0
    0.9095   37.8572   -2.4279 N   0  0  0  0  0  0  0  0  0  0  0  0
    4.7313   34.8578   -0.7142 C   0  0  2  0  0  0  0  0  0  0  0  0
    3.6533   35.2010    0.2441 N   0  0  0  0  0  0  0  0  0  0  0  0
    0.2622   34.1429   -3.4488 C   0  0  1  0  0  0  0  0  0  0  0  0
   -1.0683   33.7410   -3.1167 O   0  0  0  0  0  0  0  0  0  0  0  0
   -0.9611   38.2037   -1.1586 C   0  0  2  0  0  0  0  0  0  0  0  0
   -0.9766   39.5955   -1.3528 O   0  0  0  0  0  0  0  0  0  0  0  0
    4.1798   33.9076   -1.7653 C   0  0  1  0  0  0  0  0  0  0  0  0
    3.0552   34.5302   -2.3663 O   0  0  0  0  0  0  0  0  0  0  0  0
    1.1037   32.9425   -3.5286 C   0  0  1  0  0  0  0  0  0  0  0  0
    1.5965   32.7780   -2.2045 O   0  0  0  0  0  0  0  0  0  0  0  0
   -1.6536   37.8690    0.1363 C   0  0  1  0  0  0  0  0  0  0  0  0
   -3.0285   38.0624   -0.0211 O   0  0  0  0  0  0  0  0  0  0  0  0
    5.2705   33.5906   -2.8278 C   0  0  2  0  0  0  0  0  0  0  0  0
    4.7316   32.7071   -3.8098 O   0  0  0  0  0  0  0  0  0  0  0  0
   -1.4182   36.4372    0.4784 C   0  0  1  0  0  0  0  0  0  0  0  0
   -0.0408   36.2560    0.6372 O   0  0  0  0  0  0  0  0  0  0  0  0
    6.4723   32.9141   -2.1357 C   0  0  1  0  0  0  0  0  0  0  0  0
    7.4919   32.6120   -3.1022 O   0  0  0  0  0  0  0  0  0  0  0  0
   -2.0960   36.0605    1.8107 C   0  0  0  0  0  0  0  0  0  0  0  0
   -1.5571   36.8648    2.8536 O   0  0  0  0  0  0  0  0  0  0  0  0
    9.9823   32.7573   -1.7851 N   0  0  0  0  0  0  0  0  0  0  0  0
    4.0785   36.2694    2.0806 N   0  0  0  0  0  0  0  0  0  0  0  0
  1  2  1  0  0  0  0
  1 39  1  0  0  0  0
  3  4  1  0  0  0  0
  5  6  1  0  0  0  0
  5 40  1  0  0  0  0
  9 10  1  1  0  0  0
  9 14  1  0  0  0  0
  9 35  1  0  0  0  0
 10  1  1  0  0  0  0
 11 16  1  0  0  0  0
 11 28  1  0  0  0  0
 11 26  1  6  0  0  0
 12 17  1  0  0  0  0
 12 34  1  0  0  0  0
 12 13  1  6  0  0  0
 14 15  1  1  0  0  0
 14 19  1  0  0  0  0
 16 13  1  1  0  0  0
 16 21  1  0  0  0  0
 17 18  1  6  0  0  0
 17 23  1  0  0  0  0
 18  8  1  0  0  0  0
 19 20  1  1  0  0  0
 19 25  1  0  0  0  0
 20  5  1  0  0  0  0
 21  3  1  6  0  0  0
 21 22  1  0  0  0  0
 21 27  1  0  0  0  0
 23 24  1  1  0  0  0
 23 29  1  0  0  0  0
 25 26  1  6  0  0  0
 25 31  1  0  0  0  0
 27  7  1  1  0  0  0
 27 28  1  0  0  0  0
 29 30  1  6  0  0  0
 29 33  1  0  0  0  0
 31 32  1  6  0  0  0
 31 35  1  0  0  0  0
 33 34  1  0  0  0  0
 33 37  1  1  0  0  0
 35 36  1  6  0  0  0
 37 38  1  0  0  0  0
M  END
>  <CHROM.1>
-144.22762638,82.48537078,171.90799936,86.11709374,73.76907366,-130.77606989
83.63383280,64.02622092,-176.92299888,-96.08266583,-60.40895396,2.57568787
35.18623320,-1.33749881,-0.27100373,-0.25840473,0.91446874

>  <Name>
1nta_lig

>  <RI>
0

>  <Rbt.Current_Directory>
/home/itssahil/PROJECTS/Mol_Feturizer/New_Systems/rnas/1nta

>  <Rbt.Executable>
rbdock ($Id: //depot/dev/client3/rdock/2013.1/src/exe/rbdock.cxx#4 $)

>  <Rbt.Library>
libRbt.so (2013.1, Build901 2013/11/27)

>  <Rbt.Parameter_File>
/export/apps/rDock/src/rDock_2013.1_src/data/scripts/dock_solv.prm

>  <Rbt.Receptor>
prm/pocket_docking_2.prm

>  <SCORE>
-26.9074

>  <SCORE.INTER>
-5.92304

>  <SCORE.INTER.CONST>
1

>  <SCORE.INTER.POLAR>
-0.864169

>  <SCORE.INTER.ROT>
11

>  <SCORE.INTER.SOLV>
22.9612

>  <SCORE.INTER.VDW>
-19.6552

>  <SCORE.INTER.norm>
-0.148076

>  <SCORE.INTRA>
-20.9856

>  <SCORE.INTRA.DIHEDRAL>
-6.28394

>  <SCORE.INTRA.DIHEDRAL.0>
19.0336

>  <SCORE.INTRA.POLAR>
0

>  <SCORE.INTRA.POLAR.0>
0

>  <SCORE.INTRA.REPUL>
0

>  <SCORE.INTRA.REPUL.0>
0

>  <SCORE.INTRA.SOLV>
-1.17169

>  <SCORE.INTRA.SOLV.lig_0>
-97.5861

>  <SCORE.INTRA.VDW>
-17.2578

>  <SCORE.INTRA.VDW.0>
11.7669

>  <SCORE.INTRA.norm>
-0.52464

>  <SCORE.RESTR>
0.00119609

>  <SCORE.RESTR.CAVITY>
0.00119609

>  <SCORE.RESTR.norm>
2.99021e-05

>  <SCORE.SYSTEM>
0

>  <SCORE.SYSTEM.CONST>
0

>  <SCORE.SYSTEM.DIHEDRAL>
0

>  <SCORE.SYSTEM.SOLV>
0

>  <SCORE.SYSTEM.norm>
0

>  <SCORE.heavy>
40

>  <SCORE.norm>
-0.672686

>  <RMSD>
1.054

$$$$
1nta_lig
 OpenBabel11021811403D
libRbt.so/2013.1/901 2013/11/27
 40 42  0  0  0  0  0  0  0  0999 V2000
    9.1778   33.2731   -1.4114 C   0  0  0  0  0  0  0  0  0  0  0  0
    9.8170   33.7957   -0.4324 N   0  0  0  0  0  0  0  0  0  0  0  0
   -0.3455   34.7402   -3.8589 C   0  0  0  0  0  0  0  0  0  0  0  0
    0.5674   35.0253   -4.6024 O   0  0  0  0  0  0  0  0  0  0  0  0
    4.1619   36.1394    1.0267 C   0  0  0  0  0  0  0  0  0  0  0  0
    4.9893   36.3681    2.0130 N   0  0  0  0  0  0  0  0  0  0  0  0
   -0.0256   31.5693   -2.9082 C   0  0  0  0  0  0  0  0  0  0  0  0
    1.6423   38.7331   -2.3737 C   0  0  0  0  0  0  0  0  0  0  0  0
    6.8228   33.4883   -1.5007 C   0  0  2  0  0  0  0  0  0  0  0  0
    8.0379   32.6770   -1.0954 N   0  0  0  0  0  0  0  0  0  0  0  0
    1.6250   34.1869   -1.0877 C   0  0  2  0  0  0  0  0  0  0  0  0
    0.4116   36.6384   -0.0217 C   0  0  1  0  0  0  0  0  0  0  0  0
   -0.2196   35.5383   -0.5776 O   0  0  0  0  0  0  0  0  0  0  0  0
    5.9757   33.8282   -0.2598 C   0  0  1  0  0  0  0  0  0  0  0  0
    6.7619   34.6320    0.5671 O   0  0  0  0  0  0  0  0  0  0  0  0
    0.4540   35.0230   -1.5924 C   0  0  2  0  0  0  0  0  0  0  0  0
    0.1942   37.9465   -0.7498 C   0  0  1  0  0  0  0  0  0  0  0  0
    0.5775   37.7800   -2.1090 N   0  0  0  0  0  0  0  0  0  0  0  0
    4.7168   34.6310   -0.6141 C   0  0  2  0  0  0  0  0  0  0  0  0
    3.8743   34.9721    0.5572 N   0  0  0  0  0  0  0  0  0  0  0  0
   -0.1877   34.0807   -2.5151 C   0  0  1  0  0  0  0  0  0  0  0  0
   -1.4458   33.7180   -1.9427 O   0  0  0  0  0  0  0  0  0  0  0  0
   -1.1387   38.3300   -0.7013 C   0  0  2  0  0  0  0  0  0  0  0  0
   -1.2126   39.6677   -1.1257 O   0  0  0  0  0  0  0  0  0  0  0  0
    3.8959   33.8107   -1.5966 C   0  0  1  0  0  0  0  0  0  0  0  0
    2.7353   34.5589   -1.9234 O   0  0  0  0  0  0  0  0  0  0  0  0
    0.6443   32.8747   -2.6101 C   0  0  1  0  0  0  0  0  0  0  0  0
    1.3389   32.8362   -1.3695 O   0  0  0  0  0  0  0  0  0  0  0  0
   -1.6652   38.2193    0.7055 C   0  0  1  0  0  0  0  0  0  0  0  0
   -3.0535   38.3759    0.6843 O   0  0  0  0  0  0  0  0  0  0  0  0
    4.7332   33.5032   -2.8706 C   0  0  2  0  0  0  0  0  0  0  0  0
    3.9434   32.7429   -3.7835 O   0  0  0  0  0  0  0  0  0  0  0  0
   -1.3547   36.8687    1.2550 C   0  0  1  0  0  0  0  0  0  0  0  0
    0.0360   36.7242    1.2753 O   0  0  0  0  0  0  0  0  0  0  0  0
    5.9821   32.6886   -2.4732 C   0  0  1  0  0  0  0  0  0  0  0  0
    6.7694   32.3933   -3.6385 O   0  0  0  0  0  0  0  0  0  0  0  0
   -1.8610   36.7230    2.7037 C   0  0  0  0  0  0  0  0  0  0  0  0
   -1.6478   35.3859    3.1416 O   0  0  0  0  0  0  0  0  0  0  0  0
    9.6131   33.3172   -2.6241 N   0  0  0  0  0  0  0  0  0  0  0  0
    3.5531   37.1133    0.4723 N   0  0  0  0  0  0  0  0  0  0  0  0
  1  2  1  0  0  0  0
  1 39  1  0  0  0  0
  3  4  1  0  0  0  0
  5  6  1  0  0  0  0
  5 40  1  0  0  0  0
  9 10  1  1  0  0  0
  9 14  1  0  0  0  0
  9 35  1  0  0  0  0
 10  1  1  0  0  0  0
 11 16  1  0  0  0  0
 11 28  1  0  0  0  0
 11 26  1  6  0  0  0
 12 17  1  0  0  0  0
 12 34  1  0  0  0  0
 12 13  1  6  0  0  0
 14 15  1  1  0  0  0
 14 19  1  0  0  0  0
 16 13  1  1  0  0  0
 16 21  1  0  0  0  0
 17 18  1  6  0  0  0
 17 23  1  0  0  0  0
 18  8  1  0  0  0  0
 19 20  1  1  0  0  0
 19 25  1  0  0  0  0
 20  5  1  0  0  0  0
 21  3  1  6  0  0  0
 21 22  1  0  0  0  0
 21 27  1  0  0  0  0
 23 24  1  1  0  0  0
 23 29  1  0  0  0  0
 25 26  1  6  0  0  0
 25 31  1  0  0  0  0
 27  7  1  1  0  0  0
 27 28  1  0  0  0  0
 29 30  1  6  0  0  0
 29 33  1  0  0  0  0
 31 32  1  6  0  0  0
 31 35  1  0  0  0  0
 33 34  1  0  0  0  0
 33 37  1  1  0  0  0
 35 36  1  6  0  0  0
 37 38  1  0  0  0  0
M  END
>  <CHROM.1>
-120.03328282,105.32305054,-177.69830310,81.43303812,77.80057059,-120.17621230
93.86479933,-94.90227701,68.73440465,-94.54303007,174.93199197,2.41368244
35.12809245,-1.00692813,-0.38645399,-0.20352801,0.86249312

>  <Name>
1nta_lig

>  <RI>
0

>  <Rbt.Current_Directory>
/home/itssahil/PROJECTS/Mol_Feturizer/New_Systems/rnas/1nta

>  <Rbt.Executable>
rbdock ($Id: //depot/dev/client3/rdock/2013.1/src/exe/rbdock.cxx#4 $)

>  <Rbt.Library>
libRbt.so (2013.1, Build901 2013/11/27)

>  <Rbt.Parameter_File>
/export/apps/rDock/src/rDock_2013.1_src/data/scripts/dock_solv.prm

>  <Rbt.Receptor>
prm/pocket_docking_2.prm

>  <SCORE>
-21.4141

>  <SCORE.INTER>
0.257967

>  <SCORE.INTER.CONST>
1

>  <SCORE.INTER.POLAR>
0

>  <SCORE.INTER.ROT>
11

>  <SCORE.INTER.SOLV>
21.7085

>  <SCORE.INTER.VDW>
-17.9975

>  <SCORE.INTER.norm>
0.00644916

>  <SCORE.INTRA>
-21.7062

>  <SCORE.INTRA.DIHEDRAL>
-6.43852

>  <SCORE.INTRA.DIHEDRAL.0>
19.0336

>  <SCORE.INTRA.POLAR>
0

>  <SCORE.INTRA.POLAR.0>
0

>  <SCORE.INTRA.REPUL>
0

>  <SCORE.INTRA.REPUL.0>
0

>  <SCORE.INTRA.SOLV>
-0.65184

>  <SCORE.INTRA.SOLV.lig_0>
-97.5861

>  <SCORE.INTRA.VDW>
-18.1611

>  <SCORE.INTRA.VDW.0>
11.7669

>  <SCORE.INTRA.norm>
-0.542656

>  <SCORE.RESTR>
0.0342155

>  <SCORE.RESTR.CAVITY>
0.0342155

>  <SCORE.RESTR.norm>
0.000855387

>  <SCORE.SYSTEM>
0

>  <SCORE.SYSTEM.CONST>
0

>  <SCORE.SYSTEM.DIHEDRAL>
0

>  <SCORE.SYSTEM.SOLV>
0

>  <SCORE.SYSTEM.norm>
0

>  <SCORE.heavy>
40

>  <SCORE.norm>
-0.535351

>  <RMSD>
1.131

$$$$
1nta_lig
 OpenBabel11021811403D
libRbt.so/2013.1/901 2013/11/27
 40 42  0  0  0  0  0  0  0  0999 V2000
    9.3963   33.4027   -0.9140 C   0  0  0  0  0  0  0  0  0  0  0  0
   10.1770   32.9381   -0.0114 N   0  0  0  0  0  0  0  0  0  0  0  0
    0.3063   35.0764   -4.5624 C   0  0  0  0  0  0  0  0  0  0  0  0
   -0.0869   34.6575   -5.6288 O   0  0  0  0  0  0  0  0  0  0  0  0
    4.5364   36.3182    0.7114 C   0  0  0  0  0  0  0  0  0  0  0  0
    5.1949   36.4822    1.8290 N   0  0  0  0  0  0  0  0  0  0  0  0
    0.5321   31.8302   -3.8747 C   0  0  0  0  0  0  0  0  0  0  0  0
    1.7948   39.0827   -2.6307 C   0  0  0  0  0  0  0  0  0  0  0  0
    7.1501   33.5126   -1.6509 C   0  0  2  0  0  0  0  0  0  0  0  0
    8.3175   32.6761   -1.1647 N   0  0  0  0  0  0  0  0  0  0  0  0
    1.9226   34.2636   -1.6306 C   0  0  2  0  0  0  0  0  0  0  0  0
    0.5506   36.6339   -0.5260 C   0  0  1  0  0  0  0  0  0  0  0  0
    0.0178   35.5682   -1.2315 O   0  0  0  0  0  0  0  0  0  0  0  0
    6.2666   33.9306   -0.4602 C   0  0  1  0  0  0  0  0  0  0  0  0
    7.0475   34.7385    0.3676 O   0  0  0  0  0  0  0  0  0  0  0  0
    0.8162   35.1464   -2.1979 C   0  0  2  0  0  0  0  0  0  0  0  0
    0.3712   37.9913   -1.1695 C   0  0  1  0  0  0  0  0  0  0  0  0
    0.9032   37.9440   -2.4875 N   0  0  0  0  0  0  0  0  0  0  0  0
    5.0531   34.7621   -0.8970 C   0  0  2  0  0  0  0  0  0  0  0  0
    4.1771   35.1783    0.2243 N   0  0  0  0  0  0  0  0  0  0  0  0
    0.3017   34.2953   -3.2757 C   0  0  1  0  0  0  0  0  0  0  0  0
   -1.0146   33.8853   -2.8998 O   0  0  0  0  0  0  0  0  0  0  0  0
   -0.9707   38.3388   -1.2375 C   0  0  2  0  0  0  0  0  0  0  0  0
   -1.0409   39.7043   -1.5622 O   0  0  0  0  0  0  0  0  0  0  0  0
    4.2432   33.9329   -1.8810 C   0  0  1  0  0  0  0  0  0  0  0  0
    3.1247   34.7076   -2.2843 O   0  0  0  0  0  0  0  0  0  0  0  0
    1.1491   33.1005   -3.3770 C   0  0  1  0  0  0  0  0  0  0  0  0
    1.6848   32.9456   -2.0686 O   0  0  0  0  0  0  0  0  0  0  0  0
   -1.6413   38.1027    0.0903 C   0  0  1  0  0  0  0  0  0  0  0  0
   -3.0236   38.2285   -0.0706 O   0  0  0  0  0  0  0  0  0  0  0  0
    5.1195   33.5464   -3.1064 C   0  0  2  0  0  0  0  0  0  0  0  0
    4.3400   32.7786   -4.0220 O   0  0  0  0  0  0  0  0  0  0  0  0
   -1.3489   36.7196    0.5637 C   0  0  1  0  0  0  0  0  0  0  0  0
    0.0355   36.6061    0.7248 O   0  0  0  0  0  0  0  0  0  0  0  0
    6.3207   32.7050   -2.6266 C   0  0  1  0  0  0  0  0  0  0  0  0
    7.1431   32.3367   -3.7459 O   0  0  0  0  0  0  0  0  0  0  0  0
   -2.0028   36.4458    1.9326 C   0  0  0  0  0  0  0  0  0  0  0  0
   -1.7778   35.0883    2.2954 O   0  0  0  0  0  0  0  0  0  0  0  0
    9.6422   34.5011   -1.5428 N   0  0  0  0  0  0  0  0  0  0  0  0
    4.1818   37.3364    0.0302 N   0  0  0  0  0  0  0  0  0  0  0  0
  1  2  1  0  0  0  0
  1 39  1  0  0  0  0
  3  4  1  0  0  0  0
  5  6  1  0  0  0  0
  5 40  1  0  0  0  0
  9 10  1  1  0  0  0
  9 14  1  0  0  0  0
  9 35  1  0  0  0  0
 10  1  1  0  0  0  0
 11 16  1  0  0  0  0
 11 28  1  0  0  0  0
 11 26  1  6  0  0  0
 12 17  1  0  0  0  0
 12 34  1  0  0  0  0
 12 13  1  6  0  0  0
 14 15  1  1  0  0  0
 14 19  1  0  0  0  0
 16 13  1  1  0  0  0
 16 21  1  0  0  0  0
 17 18  1  6  0  0  0
 17 23  1  0  0  0  0
 18  8  1  0  0  0  0
 19 20  1  1  0  0  0
 19 25  1  0  0  0  0
 20  5  1  0  0  0  0
 21  3  1  6  0  0  0
 21 22  1  0  0  0  0
 21 27  1  0  0  0  0
 23 24  1  1  0  0  0
 23 29  1  0  0  0  0
 25 26  1  6  0  0  0
 25 31  1  0  0  0  0
 27  7  1  1  0  0  0
 27 28  1  0  0  0  0
 29 30  1  6  0  0  0
 29 33  1  0  0  0  0
 31 32  1  6  0  0  0
 31 35  1  0  0  0  0
 33 34  1  0  0  0  0
 33 37  1  1  0  0  0
 35 36  1  6  0  0  0
 37 38  1  0  0  0  0
M  END
>  <CHROM.1>
-92.62672229,151.17245182,-177.97804455,81.85187058,79.44125411,-129.66088581
90.13286057,-103.09574228,-178.40361028,-103.60930764,175.82425274,2.65915445
35.18765438,-1.41463375,-0.28017075,-0.26185109,0.88794816

>  <Name>
1nta_lig

>  <RI>
0

>  <Rbt.Current_Directory>
/home/itssahil/PROJECTS/Mol_Feturizer/New_Systems/rnas/1nta

>  <Rbt.Executable>
rbdock ($Id: //depot/dev/client3/rdock/2013.1/src/exe/rbdock.cxx#4 $)

>  <Rbt.Library>
libRbt.so (2013.1, Build901 2013/11/27)

>  <Rbt.Parameter_File>
/export/apps/rDock/src/rDock_2013.1_src/data/scripts/dock_solv.prm

>  <Rbt.Receptor>
prm/pocket_docking_2.prm

>  <SCORE>
-25.3681

>  <SCORE.INTER>
-5.43985

>  <SCORE.INTER.CONST>
1

>  <SCORE.INTER.POLAR>
-0.591242

>  <SCORE.INTER.ROT>
11

>  <SCORE.INTER.SOLV>
24.549

>  <SCORE.INTER.VDW>
-20.7721

>  <SCORE.INTER.norm>
-0.135996

>  <SCORE.INTRA>
-20.6906

>  <SCORE.INTRA.DIHEDRAL>
-5.50369

>  <SCORE.INTRA.DIHEDRAL.0>
19.0336

>  <SCORE.INTRA.POLAR>
0

>  <SCORE.INTRA.POLAR.0>
0

>  <SCORE.INTRA.REPUL>
0

>  <SCORE.INTRA.REPUL.0>
0

>  <SCORE.INTRA.SOLV>
-2.47297

>  <SCORE.INTRA.SOLV.lig_0>
-97.5861

>  <SCORE.INTRA.VDW>
-16.7023

>  <SCORE.INTRA.VDW.0>
11.7669

>  <SCORE.INTRA.norm>
-0.517266

>  <SCORE.RESTR>
0.762354

>  <SCORE.RESTR.CAVITY>
0.762354

>  <SCORE.RESTR.norm>
0.0190588

>  <SCORE.SYSTEM>
0

>  <SCORE.SYSTEM.CONST>
0

>  <SCORE.SYSTEM.DIHEDRAL>
0

>  <SCORE.SYSTEM.SOLV>
0

>  <SCORE.SYSTEM.norm>
0

>  <SCORE.heavy>
40

>  <SCORE.norm>
-0.634203

>  <RMSD>
1.162

$$$$
1nta_lig
 OpenBabel11021811403D
libRbt.so/2013.1/901 2013/11/27
 40 42  0  0  0  0  0  0  0  0999 V2000
    9.0283   32.8033   -0.9433 C   0  0  0  0  0  0  0  0  0  0  0  0
    9.6876   31.7720   -0.5666 N   0  0  0  0  0  0  0  0  0  0  0  0
    0.5332   35.6057   -4.0050 C   0  0  0  0  0  0  0  0  0  0  0  0
    0.2693   35.2247   -5.1241 O   0  0  0  0  0  0  0  0  0  0  0  0
    4.1481   36.0238    1.7346 C   0  0  0  0  0  0  0  0  0  0  0  0
    2.9943   35.4646    1.9913 N   0  0  0  0  0  0  0  0  0  0  0  0
    0.9080   32.3571   -3.3985 C   0  0  0  0  0  0  0  0  0  0  0  0
    1.7630   38.8824   -2.1784 C   0  0  0  0  0  0  0  0  0  0  0  0
    6.9975   33.9976   -0.7196 C   0  0  2  0  0  0  0  0  0  0  0  0
    8.1597   33.2782   -0.0632 N   0  0  0  0  0  0  0  0  0  0  0  0
    1.7744   34.7837   -0.8982 C   0  0  2  0  0  0  0  0  0  0  0  0
   -0.1908   37.2510   -0.3266 C   0  0  1  0  0  0  0  0  0  0  0  0
   -0.2623   35.9303   -0.7367 O   0  0  0  0  0  0  0  0  0  0  0  0
    6.3280   34.9508    0.2884 C   0  0  1  0  0  0  0  0  0  0  0  0
    7.2767   35.9136    0.6365 O   0  0  0  0  0  0  0  0  0  0  0  0
    0.6952   35.6091   -1.5905 C   0  0  2  0  0  0  0  0  0  0  0  0
   -0.3401   38.2797   -1.4258 C   0  0  1  0  0  0  0  0  0  0  0  0
    0.6270   38.0126   -2.4335 N   0  0  0  0  0  0  0  0  0  0  0  0
    5.1271   35.6905   -0.3162 C   0  0  2  0  0  0  0  0  0  0  0  0
    4.4548   36.6142    0.6287 N   0  0  0  0  0  0  0  0  0  0  0  0
    0.4060   34.7710   -2.7588 C   0  0  1  0  0  0  0  0  0  0  0  0
   -0.9149   34.2522   -2.5912 O   0  0  0  0  0  0  0  0  0  0  0  0
   -1.6064   38.2267   -1.9912 C   0  0  2  0  0  0  0  0  0  0  0  0
   -1.7702   39.3800   -2.7774 O   0  0  0  0  0  0  0  0  0  0  0  0
    4.1258   34.6512   -0.7947 C   0  0  1  0  0  0  0  0  0  0  0  0
    3.0195   35.3403   -1.3559 O   0  0  0  0  0  0  0  0  0  0  0  0
    1.3485   33.6454   -2.7754 C   0  0  1  0  0  0  0  0  0  0  0  0
    1.7032   33.4723   -1.4090 O   0  0  0  0  0  0  0  0  0  0  0  0
   -2.6602   38.1980   -0.9154 C   0  0  1  0  0  0  0  0  0  0  0  0
   -3.8957   37.9039   -1.4979 O   0  0  0  0  0  0  0  0  0  0  0  0
    4.7854   33.7141   -1.8462 C   0  0  2  0  0  0  0  0  0  0  0  0
    3.8284   32.7538   -2.2903 O   0  0  0  0  0  0  0  0  0  0  0  0
   -2.3421   37.1285    0.0732 C   0  0  1  0  0  0  0  0  0  0  0  0
   -1.1066   37.4346    0.6523 O   0  0  0  0  0  0  0  0  0  0  0  0
    5.9797   32.9837   -1.1973 C   0  0  1  0  0  0  0  0  0  0  0  0
    6.6028   32.1111   -2.1539 O   0  0  0  0  0  0  0  0  0  0  0  0
   -3.3891   37.0806    1.2036 C   0  0  0  0  0  0  0  0  0  0  0  0
   -3.1378   38.1405    2.1194 O   0  0  0  0  0  0  0  0  0  0  0  0
    9.1920   33.3436   -2.1024 N   0  0  0  0  0  0  0  0  0  0  0  0
    5.0609   36.0295    2.6252 N   0  0  0  0  0  0  0  0  0  0  0  0
  1  2  1  0  0  0  0
  1 39  1  0  0  0  0
  3  4  1  0  0  0  0
  5  6  1  0  0  0  0
  5 40  1  0  0  0  0
  9 10  1  1  0  0  0
  9 14  1  0  0  0  0
  9 35  1  0  0  0  0
 10  1  1  0  0  0  0
 11 16  1  0  0  0  0
 11 28  1  0  0  0  0
 11 26  1  6  0  0  0
 12 17  1  0  0  0  0
 12 34  1  0  0  0  0
 12 13  1  6  0  0  0
 14 15  1  6  0  0  0
 14 19  1  0  0  0  0
 16 13  1  1  0  0  0
 16 21  1  0  0  0  0
 17 18  1  6  0  0  0
 17 23  1  0  0  0  0
 18  8  1  0  0  0  0
 19 20  1  1  0  0  0
 19 25  1  0  0  0  0
 20  5  1  0  0  0  0
 21  3  1  6  0  0  0
 21 22  1  0  0  0  0
 21 27  1  0  0  0  0
 23 24  1  6  0  0  0
 23 29  1  0  0  0  0
 25 26  1  6  0  0  0
 25 31  1  0  0  0  0
 27  7  1  1  0  0  0
 27 28  1  0  0  0  0
 29 30  1  6  0  0  0
 29 33  1  0  0  0  0
 31 32  1  1  0  0  0
 31 35  1  0  0  0  0
 33 34  1  0  0  0  0
 33 37  1  1  0  0  0
 35 36  1  6  0  0  0
 37 38  1  0  0  0  0
M  END
>  <CHROM.1>
-159.03749742,-152.39947530,-179.40609266,61.53345056,104.06251013,-96.84262119
-52.19425375,-93.55568940,-174.79372864,-134.64224244,-77.56803167,2.31477388
35.48517684,-1.05059938,0.20181182,0.35918421,-2.18179441

>  <Name>
1nta_lig

>  <RI>
0

>  <Rbt.Current_Directory>
/home/itssahil/PROJECTS/Mol_Feturizer/New_Systems/rnas/1nta

>  <Rbt.Executable>
rbdock ($Id: //depot/dev/client3/rdock/2013.1/src/exe/rbdock.cxx#4 $)

>  <Rbt.Library>
libRbt.so (2013.1, Build901 2013/11/27)

>  <Rbt.Parameter_File>
/export/apps/rDock/src/rDock_2013.1_src/data/scripts/dock_solv.prm

>  <Rbt.Receptor>
prm/pocket_docking_3.prm

>  <SCORE>
-11.0974

>  <SCORE.INTER>
1.58192

>  <SCORE.INTER.CONST>
1

>  <SCORE.INTER.POLAR>
-0.352661

>  <SCORE.INTER.ROT>
11

>  <SCORE.INTER.SOLV>
26.0361

>  <SCORE.INTER.VDW>
-17.3819

>  <SCORE.INTER.norm>
0.039548

>  <SCORE.INTRA>
-12.7292

>  <SCORE.INTRA.DIHEDRAL>
-3.12392

>  <SCORE.INTRA.DIHEDRAL.0>
19.0336

>  <SCORE.INTRA.POLAR>
0

>  <SCORE.INTRA.POLAR.0>
0

>  <SCORE.INTRA.REPUL>
0

>  <SCORE.INTRA.REPUL.0>
0

>  <SCORE.INTRA.SOLV>
0.406625

>  <SCORE.INTRA.SOLV.lig_0>
-97.5861

>  <SCORE.INTRA.VDW>
-11.3705

>  <SCORE.INTRA.VDW.0>
11.7669

>  <SCORE.INTRA.norm>
-0.31823

>  <SCORE.RESTR>
0.0499084

>  <SCORE.RESTR.CAVITY>
0.0499084

>  <SCORE.RESTR.norm>
0.00124771

>  <SCORE.SYSTEM>
0

>  <SCORE.SYSTEM.CONST>
0

>  <SCORE.SYSTEM.DIHEDRAL>
0

>  <SCORE.SYSTEM.SOLV>
0

>  <SCORE.SYSTEM.norm>
0

>  <SCORE.heavy>
40

>  <SCORE.norm>
-0.277434

>  <RMSD>
1.210

$$$$
1nta_lig
 OpenBabel11021811403D
libRbt.so/2013.1/901 2013/11/27
 40 42  0  0  0  0  0  0  0  0999 V2000
    9.3253   33.2531   -2.0840 C   0  0  0  0  0  0  0  0  0  0  0  0
    9.9516   34.2548   -1.5897 N   0  0  0  0  0  0  0  0  0  0  0  0
   -0.2161   34.7961   -3.7517 C   0  0  0  0  0  0  0  0  0  0  0  0
    0.6659   35.3896   -4.3324 O   0  0  0  0  0  0  0  0  0  0  0  0
    4.3320   36.2518    0.8723 C   0  0  0  0  0  0  0  0  0  0  0  0
    5.4143   36.9553    0.6636 N   0  0  0  0  0  0  0  0  0  0  0  0
    0.2829   31.5437   -3.2682 C   0  0  0  0  0  0  0  0  0  0  0  0
    1.6452   38.4795   -1.7581 C   0  0  0  0  0  0  0  0  0  0  0  0
    7.0128   33.5892   -1.7096 C   0  0  2  0  0  0  0  0  0  0  0  0
    8.2838   32.8291   -1.3839 N   0  0  0  0  0  0  0  0  0  0  0  0
    1.7814   33.9575   -1.0731 C   0  0  2  0  0  0  0  0  0  0  0  0
    0.3989   36.1933    0.2949 C   0  0  1  0  0  0  0  0  0  0  0  0
   -0.1372   35.1148   -0.3884 O   0  0  0  0  0  0  0  0  0  0  0  0
    6.2512   33.9261   -0.4137 C   0  0  1  0  0  0  0  0  0  0  0  0
    7.0686   34.7741    0.3351 O   0  0  0  0  0  0  0  0  0  0  0  0
    0.5649   34.7910   -1.4614 C   0  0  2  0  0  0  0  0  0  0  0  0
    0.1039   37.5510   -0.3037 C   0  0  1  0  0  0  0  0  0  0  0  0
    0.5301   37.5526   -1.6604 N   0  0  0  0  0  0  0  0  0  0  0  0
    4.9408   34.6772   -0.6850 C   0  0  2  0  0  0  0  0  0  0  0  0
    4.1784   35.0139    0.5411 N   0  0  0  0  0  0  0  0  0  0  0  0
   -0.0218   33.9583   -2.5164 C   0  0  1  0  0  0  0  0  0  0  0  0
   -1.2575   33.4462   -2.0137 O   0  0  0  0  0  0  0  0  0  0  0  0
   -1.2542   37.8331   -0.2578 C   0  0  2  0  0  0  0  0  0  0  0  0
   -1.4154   39.1989   -0.5471 O   0  0  0  0  0  0  0  0  0  0  0  0
    4.0775   33.8083   -1.5859 C   0  0  1  0  0  0  0  0  0  0  0  0
    2.8691   34.5088   -1.8363 O   0  0  0  0  0  0  0  0  0  0  0  0
    0.8774   32.8275   -2.7781 C   0  0  1  0  0  0  0  0  0  0  0  0
    1.5725   32.6482   -1.5502 O   0  0  0  0  0  0  0  0  0  0  0  0
   -1.8041   37.5415    1.1138 C   0  0  1  0  0  0  0  0  0  0  0  0
   -3.1992   37.6018    1.0657 O   0  0  0  0  0  0  0  0  0  0  0  0
    4.8257   33.5027   -2.9146 C   0  0  2  0  0  0  0  0  0  0  0  0
    3.9966   32.6961   -3.7497 O   0  0  0  0  0  0  0  0  0  0  0  0
   -1.4090   36.1667    1.5334 C   0  0  1  0  0  0  0  0  0  0  0  0
   -0.0123   36.1187    1.5818 O   0  0  0  0  0  0  0  0  0  0  0  0
    6.1298   32.7404   -2.5994 C   0  0  1  0  0  0  0  0  0  0  0  0
    6.8361   32.4475   -3.8161 O   0  0  0  0  0  0  0  0  0  0  0  0
   -1.9372   35.8375    2.9437 C   0  0  0  0  0  0  0  0  0  0  0  0
   -1.4615   36.8155    3.8615 O   0  0  0  0  0  0  0  0  0  0  0  0
    9.6837   32.6886   -3.1863 N   0  0  0  0  0  0  0  0  0  0  0  0
    3.3363   36.7832    1.4661 N   0  0  0  0  0  0  0  0  0  0  0  0
  1  2  1  0  0  0  0
  1 39  1  0  0  0  0
  3  4  1  0  0  0  0
  5  6  1  0  0  0  0
  5 40  1  0  0  0  0
  9 10  1  1  0  0  0
  9 14  1  0  0  0  0
  9 35  1  0  0  0  0
 10  1  1  0  0  0  0
 11 16  1  0  0  0  0
 11 28  1  0  0  0  0
 11 26  1  6  0  0  0
 12 17  1  0  0  0  0
 12 34  1  0  0  0  0
 12 13  1  6  0  0  0
 14 15  1  1  0  0  0
 14 19  1  0  0  0  0
 16 13  1  1  0  0  0
 16 21  1  0  0  0  0
 17 18  1  6  0  0  0
 17 23  1  0  0  0  0
 18  8  1  0  0  0  0
 19 20  1  1  0  0  0
 19 25  1  0  0  0  0
 20  5  1  0  0  0  0
 21  3  1  6  0  0  0
 21 22  1  0  0  0  0
 21 27  1  0  0  0  0
 23 24  1  1  0  0  0
 23 29  1  0  0  0  0
 25 26  1  6  0  0  0
 25 31  1  0  0  0  0
 27  7  1  1  0  0  0
 27 28  1  0  0  0  0
 29 30  1  6  0  0  0
 29 33  1  0  0  0  0
 31 32  1  6  0  0  0
 31 35  1  0  0  0  0
 33 34  1  0  0  0  0
 33 37  1  1  0  0  0
 35 36  1  6  0  0  0
 37 38  1  0  0  0  0
M  END
>  <CHROM.1>
-136.73183947,85.51348486,-179.15973577,78.74080731,80.40533638,-113.08515747
101.76344414,-31.80545847,57.98287231,-104.57603133,-56.68297657,2.51086734
35.01035966,-0.97527854,-0.43096497,-0.11766578,0.89302493

>  <Name>
1nta_lig

>  <RI>
0

>  <Rbt.Current_Directory>
/home/itssahil/PROJECTS/Mol_Feturizer/New_Systems/rnas/1nta

>  <Rbt.Executable>
rbdock ($Id: //depot/dev/client3/rdock/2013.1/src/exe/rbdock.cxx#4 $)

>  <Rbt.Library>
libRbt.so (2013.1, Build901 2013/11/27)

>  <Rbt.Parameter_File>
/export/apps/rDock/src/rDock_2013.1_src/data/scripts/dock_solv.prm

>  <Rbt.Receptor>
prm/pocket_docking_2.prm

>  <SCORE>
-26.7187

>  <SCORE.INTER>
-6.60871

>  <SCORE.INTER.CONST>
1

>  <SCORE.INTER.POLAR>
-1.35037

>  <SCORE.INTER.ROT>
11

>  <SCORE.INTER.SOLV>
21.8515

>  <SCORE.INTER.VDW>
-18.1217

>  <SCORE.INTER.norm>
-0.165218

>  <SCORE.INTRA>
-20.3502

>  <SCORE.INTRA.DIHEDRAL>
-4.87006

>  <SCORE.INTRA.DIHEDRAL.0>
19.0336

>  <SCORE.INTRA.POLAR>
0

>  <SCORE.INTRA.POLAR.0>
0

>  <SCORE.INTRA.REPUL>
0.0420314

>  <SCORE.INTRA.REPUL.0>
0

>  <SCORE.INTRA.SOLV>
-0.656312

>  <SCORE.INTRA.SOLV.lig_0>
-97.5861

>  <SCORE.INTRA.VDW>
-17.7971

>  <SCORE.INTRA.VDW.0>
11.7669

>  <SCORE.INTRA.norm>
-0.508754

>  <SCORE.RESTR>
0.240187

>  <SCORE.RESTR.CAVITY>
0.240187

>  <SCORE.RESTR.norm>
0.00600467

>  <SCORE.SYSTEM>
0

>  <SCORE.SYSTEM.CONST>
0

>  <SCORE.SYSTEM.DIHEDRAL>
0

>  <SCORE.SYSTEM.SOLV>
0

>  <SCORE.SYSTEM.norm>
0

>  <SCORE.heavy>
40

>  <SCORE.norm>
-0.667967

>  <RMSD>
1.235

$$$$
1nta_lig
 OpenBabel11021811403D
libRbt.so/2013.1/901 2013/11/27
 40 42  0  0  0  0  0  0  0  0999 V2000
    9.2883   33.2865   -2.0964 C   0  0  0  0  0  0  0  0  0  0  0  0
    9.6331   32.6977   -3.1801 N   0  0  0  0  0  0  0  0  0  0  0  0
   -0.2716   34.7938   -3.8427 C   0  0  0  0  0  0  0  0  0  0  0  0
    0.6212   35.3475   -4.4456 O   0  0  0  0  0  0  0  0  0  0  0  0
    4.4498   36.1619    0.8761 C   0  0  0  0  0  0  0  0  0  0  0  0
    4.0146   37.2912    0.3811 N   0  0  0  0  0  0  0  0  0  0  0  0
    0.2193   31.5314   -3.4218 C   0  0  0  0  0  0  0  0  0  0  0  0
    1.4669   38.3702   -1.8763 C   0  0  0  0  0  0  0  0  0  0  0  0
    6.9525   33.5413   -1.8135 C   0  0  2  0  0  0  0  0  0  0  0  0
    8.2248   32.7838   -1.4873 N   0  0  0  0  0  0  0  0  0  0  0  0
    1.7181   33.8985   -1.1766 C   0  0  2  0  0  0  0  0  0  0  0  0
    0.2941   36.1568    0.1904 C   0  0  1  0  0  0  0  0  0  0  0  0
   -0.1995   35.0464   -0.4736 O   0  0  0  0  0  0  0  0  0  0  0  0
    6.1983   33.8916   -0.5168 C   0  0  1  0  0  0  0  0  0  0  0  0
    7.0204   34.7465    0.2189 O   0  0  0  0  0  0  0  0  0  0  0  0
    0.5043   34.7421   -1.5512 C   0  0  2  0  0  0  0  0  0  0  0  0
   -0.0900   37.4926   -0.4071 C   0  0  1  0  0  0  0  0  0  0  0  0
    0.3009   37.5089   -1.7743 N   0  0  0  0  0  0  0  0  0  0  0  0
    4.8868   34.6407   -0.7884 C   0  0  2  0  0  0  0  0  0  0  0  0
    4.1314   34.9902    0.4385 N   0  0  0  0  0  0  0  0  0  0  0  0
   -0.0818   33.9315   -2.6236 C   0  0  1  0  0  0  0  0  0  0  0  0
   -1.3198   33.4124   -2.1337 O   0  0  0  0  0  0  0  0  0  0  0  0
   -1.4598   37.7004   -0.3275 C   0  0  2  0  0  0  0  0  0  0  0  0
   -1.7027   39.0536   -0.6192 O   0  0  0  0  0  0  0  0  0  0  0  0
    4.0181   33.7634   -1.6757 C   0  0  1  0  0  0  0  0  0  0  0  0
    2.8087   34.4621   -1.9265 O   0  0  0  0  0  0  0  0  0  0  0  0
    0.8155   32.8041   -2.9054 C   0  0  1  0  0  0  0  0  0  0  0  0
    1.5074   32.5992   -1.6797 O   0  0  0  0  0  0  0  0  0  0  0  0
   -1.9578   37.3880    1.0591 C   0  0  1  0  0  0  0  0  0  0  0  0
   -3.3550   37.3718    1.0467 O   0  0  0  0  0  0  0  0  0  0  0  0
    4.7587   33.4441   -3.0055 C   0  0  2  0  0  0  0  0  0  0  0  0
    3.9245   32.6298   -3.8278 O   0  0  0  0  0  0  0  0  0  0  0  0
   -1.4775   36.0393    1.4751 C   0  0  1  0  0  0  0  0  0  0  0  0
   -0.0796   36.0680    1.4877 O   0  0  0  0  0  0  0  0  0  0  0  0
    6.0641   32.6842   -2.6899 C   0  0  1  0  0  0  0  0  0  0  0  0
    6.7635   32.3787   -3.9075 O   0  0  0  0  0  0  0  0  0  0  0  0
   -1.9509   35.6908    2.9002 C   0  0  0  0  0  0  0  0  0  0  0  0
   -1.4750   36.6795    3.8063 O   0  0  0  0  0  0  0  0  0  0  0  0
    9.9271   34.3039   -1.6284 N   0  0  0  0  0  0  0  0  0  0  0  0
    5.2712   36.1730    1.8516 N   0  0  0  0  0  0  0  0  0  0  0  0
  1  2  1  0  0  0  0
  1 39  1  0  0  0  0
  3  4  1  0  0  0  0
  5  6  1  0  0  0  0
  5 40  1  0  0  0  0
  9 10  1  1  0  0  0
  9 14  1  0  0  0  0
  9 35  1  0  0  0  0
 10  1  1  0  0  0  0
 11 16  1  0  0  0  0
 11 28  1  0  0  0  0
 11 26  1  6  0  0  0
 12 17  1  0  0  0  0
 12 34  1  0  0  0  0
 12 13  1  6  0  0  0
 14 15  1  1  0  0  0
 14 19  1  0  0  0  0
 16 13  1  1  0  0  0
 16 21  1  0  0  0  0
 17 18  1  6  0  0  0
 17 23  1  0  0  0  0
 18  8  1  0  0  0  0
 19 20  1  1  0  0  0
 19 25  1  0  0  0  0
 20  5  1  0  0  0  0
 21  3  1  6  0  0  0
 21 22  1  0  0  0  0
 21 27  1  0  0  0  0
 23 24  1  1  0  0  0
 23 29  1  0  0  0  0
 25 26  1  6  0  0  0
 25 31  1  0  0  0  0
 27  7  1  1  0  0  0
 27 28  1  0  0  0  0
 29 30  1  6  0  0  0
 29 33  1  0  0  0  0
 31 32  1  6  0  0  0
 31 35  1  0  0  0  0
 33 34  1  0  0  0  0
 33 37  1  1  0  0  0
 35 36  1  6  0  0  0
 37 38  1  0  0  0  0
M  END
>  <CHROM.1>
-130.38639853,-97.43019707,-179.80845368,79.73566985,83.81520221,-106.22987379
91.56967237,78.50762454,61.52166273,-105.98879298,-58.26918191,2.44883560
34.94531481,-1.05395014,-0.40903091,-0.12972142,0.92724184

>  <Name>
1nta_lig

>  <RI>
0

>  <Rbt.Current_Directory>
/home/itssahil/PROJECTS/Mol_Feturizer/New_Systems/rnas/1nta

>  <Rbt.Executable>
rbdock ($Id: //depot/dev/client3/rdock/2013.1/src/exe/rbdock.cxx#4 $)

>  <Rbt.Library>
libRbt.so (2013.1, Build901 2013/11/27)

>  <Rbt.Parameter_File>
/export/apps/rDock/src/rDock_2013.1_src/data/scripts/dock_solv.prm

>  <Rbt.Receptor>
prm/pocket_docking_2.prm

>  <SCORE>
-27.2876

>  <SCORE.INTER>
-6.17283

>  <SCORE.INTER.CONST>
1

>  <SCORE.INTER.POLAR>
-1.30181

>  <SCORE.INTER.ROT>
11

>  <SCORE.INTER.SOLV>
21.7781

>  <SCORE.INTER.VDW>
-17.9686

>  <SCORE.INTER.norm>
-0.154321

>  <SCORE.INTRA>
-21.308

>  <SCORE.INTRA.DIHEDRAL>
-4.30182

>  <SCORE.INTRA.DIHEDRAL.0>
19.0336

>  <SCORE.INTRA.POLAR>
0

>  <SCORE.INTRA.POLAR.0>
0

>  <SCORE.INTRA.REPUL>
0

>  <SCORE.INTRA.REPUL.0>
0

>  <SCORE.INTRA.SOLV>
-1.77442

>  <SCORE.INTRA.SOLV.lig_0>
-97.5861

>  <SCORE.INTRA.VDW>
-18.2699

>  <SCORE.INTRA.VDW.0>
11.7669

>  <SCORE.INTRA.norm>
-0.532699

>  <SCORE.RESTR>
0.193216

>  <SCORE.RESTR.CAVITY>
0.193216

>  <SCORE.RESTR.norm>
0.00483041

>  <SCORE.SYSTEM>
0

>  <SCORE.SYSTEM.CONST>
0

>  <SCORE.SYSTEM.DIHEDRAL>
0

>  <SCORE.SYSTEM.SOLV>
0

>  <SCORE.SYSTEM.norm>
0

>  <SCORE.heavy>
40

>  <SCORE.norm>
-0.68219

>  <RMSD>
1.265

$$$$
1nta_lig
 OpenBabel11021811403D
libRbt.so/2013.1/901 2013/11/27
 40 42  0  0  0  0  0  0  0  0999 V2000
    8.6991   32.9929   -0.6244 C   0  0  0  0  0  0  0  0  0  0  0  0
    9.0539   32.1205   -1.4922 N   0  0  0  0  0  0  0  0  0  0  0  0
    0.4356   37.7978   -3.3368 C   0  0  0  0  0  0  0  0  0  0  0  0
    0.1504   38.0268   -4.4916 O   0  0  0  0  0  0  0  0  0  0  0  0
    4.2941   36.4585    1.6405 C   0  0  0  0  0  0  0  0  0  0  0  0
    3.2477   35.7439    1.9632 N   0  0  0  0  0  0  0  0  0  0  0  0
    0.0808   34.6494   -4.3481 C   0  0  0  0  0  0  0  0  0  0  0  0
    2.5088   39.5394    0.4695 C   0  0  0  0  0  0  0  0  0  0  0  0
    6.4611   33.7430   -0.7952 C   0  0  2  0  0  0  0  0  0  0  0  0
    7.4806   32.8409   -0.1275 N   0  0  0  0  0  0  0  0  0  0  0  0
    1.4765   35.3744   -1.1205 C   0  0  2  0  0  0  0  0  0  0  0  0
    0.3345   37.0945    0.9574 C   0  0  1  0  0  0  0  0  0  0  0  0
   -0.2533   36.6761   -0.2245 O   0  0  0  0  0  0  0  0  0  0  0  0
    6.0394   34.8686    0.1682 C   0  0  1  0  0  0  0  0  0  0  0  0
    7.1760   35.6364    0.4261 O   0  0  0  0  0  0  0  0  0  0  0  0
    0.6050   36.6210   -1.2292 C   0  0  2  0  0  0  0  0  0  0  0  0
    0.4966   38.5913    1.1058 C   0  0  1  0  0  0  0  0  0  0  0  0
    1.2169   39.0846   -0.0167 N   0  0  0  0  0  0  0  0  0  0  0  0
    4.9882   35.8014   -0.4480 C   0  0  2  0  0  0  0  0  0  0  0  0
    4.5552   36.8951    0.4544 N   0  0  0  0  0  0  0  0  0  0  0  0
    0.1314   36.5136   -2.6131 C   0  0  1  0  0  0  0  0  0  0  0  0
   -1.2711   36.2445   -2.5609 O   0  0  0  0  0  0  0  0  0  0  0  0
   -0.7371   39.2244    1.1631 C   0  0  2  0  0  0  0  0  0  0  0  0
   -0.5186   40.5444    1.5931 O   0  0  0  0  0  0  0  0  0  0  0  0
    3.7792   34.9620   -0.8297 C   0  0  1  0  0  0  0  0  0  0  0  0
    2.8122   35.8286   -1.4020 O   0  0  0  0  0  0  0  0  0  0  0  0
    0.7997   35.3731   -3.2520 C   0  0  1  0  0  0  0  0  0  0  0  0
    1.1131   34.5060   -2.1690 O   0  0  0  0  0  0  0  0  0  0  0  0
   -1.6424   38.5210    2.1399 C   0  0  1  0  0  0  0  0  0  0  0  0
   -2.9385   39.0240    2.0008 O   0  0  0  0  0  0  0  0  0  0  0  0
    4.1927   33.8517   -1.8372 C   0  0  2  0  0  0  0  0  0  0  0  0
    3.0445   33.0824   -2.1908 O   0  0  0  0  0  0  0  0  0  0  0  0
   -1.6718   37.0612    1.8386 C   0  0  1  0  0  0  0  0  0  0  0  0
   -0.3715   36.5678    1.9844 O   0  0  0  0  0  0  0  0  0  0  0  0
    5.2412   32.9318   -1.1771 C   0  0  1  0  0  0  0  0  0  0  0  0
    5.6358   31.8974   -2.0931 O   0  0  0  0  0  0  0  0  0  0  0  0
   -2.5740   36.3020    2.8315 C   0  0  0  0  0  0  0  0  0  0  0  0
   -2.0592   36.4626    4.1484 O   0  0  0  0  0  0  0  0  0  0  0  0
    9.4708   33.9591   -0.2594 N   0  0  0  0  0  0  0  0  0  0  0  0
    5.1349   36.7918    2.5397 N   0  0  0  0  0  0  0  0  0  0  0  0
  1  2  1  0  0  0  0
  1 39  1  0  0  0  0
  3  4  1  0  0  0  0
  5  6  1  0  0  0  0
  5 40  1  0  0  0  0
  9 10  1  1  0  0  0
  9 14  1  0  0  0  0
  9 35  1  0  0  0  0
 10  1  1  0  0  0  0
 11 16  1  0  0  0  0
 11 28  1  0  0  0  0
 11 26  1  6  0  0  0
 12 17  1  0  0  0  0
 12 34  1  0  0  0  0
 12 13  1  6  0  0  0
 14 15  1  6  0  0  0
 14 19  1  0  0  0  0
 16 13  1  1  0  0  0
 16 21  1  0  0  0  0
 17 18  1  6  0  0  0
 17 23  1  0  0  0  0
 18  8  1  0  0  0  0
 19 20  1  1  0  0  0
 19 25  1  0  0  0  0
 20  5  1  0  0  0  0
 21  3  1  6  0  0  0
 21 22  1  0  0  0  0
 21 27  1  0  0  0  0
 23 24  1  1  0  0  0
 23 29  1  0  0  0  0
 25 26  1  6  0  0  0
 25 31  1  0  0  0  0
 27  7  1  6  0  0  0
 27 28  1  0  0  0  0
 29 30  1  6  0  0  0
 29 33  1  0  0  0  0
 31 32  1  1  0  0  0
 31 35  1  0  0  0  0
 33 34  1  0  0  0  0
 33 37  1  1  0  0  0
 35 36  1  6  0  0  0
 37 38  1  0  0  0  0
M  END
>  <CHROM.1>
-108.17352878,-98.78945006,156.17771214,81.80384383,77.18626239,-112.28497704
-46.50563518,-72.35389669,-178.91630097,-148.00405585,-61.17014052,2.35327530
36.02045276,-0.28763117,-0.36521874,-0.38183070,1.13893121

>  <Name>
1nta_lig

>  <RI>
0

>  <Rbt.Current_Directory>
/home/itssahil/PROJECTS/Mol_Feturizer/New_Systems/rnas/1nta

>  <Rbt.Executable>
rbdock ($Id: //depot/dev/client3/rdock/2013.1/src/exe/rbdock.cxx#4 $)

>  <Rbt.Library>
libRbt.so (2013.1, Build901 2013/11/27)

>  <Rbt.Parameter_File>
/export/apps/rDock/src/rDock_2013.1_src/data/scripts/dock_solv.prm

>  <Rbt.Receptor>
prm/pocket_docking_3.prm

>  <SCORE>
-19.5526

>  <SCORE.INTER>
-1.71098

>  <SCORE.INTER.CONST>
1

>  <SCORE.INTER.POLAR>
-0.8

>  <SCORE.INTER.ROT>
11

>  <SCORE.INTER.SOLV>
23.5215

>  <SCORE.INTER.VDW>
-17.2478

>  <SCORE.INTER.norm>
-0.0427745

>  <SCORE.INTRA>
-17.8417

>  <SCORE.INTRA.DIHEDRAL>
-5.3774

>  <SCORE.INTRA.DIHEDRAL.0>
19.0336

>  <SCORE.INTRA.POLAR>
0

>  <SCORE.INTRA.POLAR.0>
0

>  <SCORE.INTRA.REPUL>
0

>  <SCORE.INTRA.REPUL.0>
0

>  <SCORE.INTRA.SOLV>
0.900367

>  <SCORE.INTRA.SOLV.lig_0>
-97.5861

>  <SCORE.INTRA.VDW>
-15.6031

>  <SCORE.INTRA.VDW.0>
11.7669

>  <SCORE.INTRA.norm>
-0.446041

>  <SCORE.RESTR>
0

>  <SCORE.RESTR.CAVITY>
0

>  <SCORE.RESTR.norm>
0

>  <SCORE.SYSTEM>
0

>  <SCORE.SYSTEM.CONST>
0

>  <SCORE.SYSTEM.DIHEDRAL>
0

>  <SCORE.SYSTEM.SOLV>
0

>  <SCORE.SYSTEM.norm>
0

>  <SCORE.heavy>
40

>  <SCORE.norm>
-0.488816

>  <RMSD>
1.278

$$$$
1nta_lig
 OpenBabel11021811403D
libRbt.so/2013.1/901 2013/11/27
 40 42  0  0  0  0  0  0  0  0999 V2000
    9.6090   33.0516   -2.1357 C   0  0  0  0  0  0  0  0  0  0  0  0
   10.1549   32.2932   -3.0114 N   0  0  0  0  0  0  0  0  0  0  0  0
    0.2664   34.8400   -4.7043 C   0  0  0  0  0  0  0  0  0  0  0  0
   -0.3246   35.8884   -4.8412 O   0  0  0  0  0  0  0  0  0  0  0  0
    4.5180   36.2941    0.1645 C   0  0  0  0  0  0  0  0  0  0  0  0
    5.6678   36.8377    0.4682 N   0  0  0  0  0  0  0  0  0  0  0  0
    0.5603   31.5912   -4.0560 C   0  0  0  0  0  0  0  0  0  0  0  0
    1.5432   38.8314   -2.8537 C   0  0  0  0  0  0  0  0  0  0  0  0
    7.2688   33.3987   -2.0753 C   0  0  2  0  0  0  0  0  0  0  0  0
    8.4754   32.6021   -1.6184 N   0  0  0  0  0  0  0  0  0  0  0  0
    2.0279   34.0221   -1.8589 C   0  0  2  0  0  0  0  0  0  0  0  0
    0.6510   36.4086   -0.7114 C   0  0  1  0  0  0  0  0  0  0  0  0
    0.1297   35.3014   -1.3595 O   0  0  0  0  0  0  0  0  0  0  0  0
    6.4274   33.8287   -0.8587 C   0  0  1  0  0  0  0  0  0  0  0  0
    7.2237   34.6761   -0.0868 O   0  0  0  0  0  0  0  0  0  0  0  0
    0.8863   34.8967   -2.3659 C   0  0  2  0  0  0  0  0  0  0  0  0
    0.2371   37.7474   -1.2816 C   0  0  1  0  0  0  0  0  0  0  0  0
    0.5646   37.7737   -2.6651 N   0  0  0  0  0  0  0  0  0  0  0  0
    5.1770   34.6206   -1.2640 C   0  0  2  0  0  0  0  0  0  0  0  0
    4.3401   35.0471   -0.1170 N   0  0  0  0  0  0  0  0  0  0  0  0
    0.3311   34.0484   -3.4257 C   0  0  1  0  0  0  0  0  0  0  0  0
   -0.9615   33.6204   -2.9918 O   0  0  0  0  0  0  0  0  0  0  0  0
   -1.1281   37.9514   -1.1377 C   0  0  2  0  0  0  0  0  0  0  0  0
   -1.3870   39.3058   -1.4088 O   0  0  0  0  0  0  0  0  0  0  0  0
    4.3456   33.7469   -2.1900 C   0  0  1  0  0  0  0  0  0  0  0  0
    3.1929   34.4850   -2.5644 O   0  0  0  0  0  0  0  0  0  0  0  0
    1.1859   32.8644   -3.5770 C   0  0  1  0  0  0  0  0  0  0  0  0
    1.7843   32.7050   -2.2966 O   0  0  0  0  0  0  0  0  0  0  0  0
   -1.5611   37.6285    0.2683 C   0  0  1  0  0  0  0  0  0  0  0  0
   -2.9573   37.6090    0.3200 O   0  0  0  0  0  0  0  0  0  0  0  0
    5.1776   33.3472   -3.4417 C   0  0  2  0  0  0  0  0  0  0  0  0
    4.3781   32.5375   -4.3023 O   0  0  0  0  0  0  0  0  0  0  0  0
   -1.0594   36.2783    0.6526 C   0  0  1  0  0  0  0  0  0  0  0  0
    0.3376   36.3102    0.6011 O   0  0  0  0  0  0  0  0  0  0  0  0
    6.4179   32.5464   -2.9927 C   0  0  1  0  0  0  0  0  0  0  0  0
    7.2002   32.1665   -4.1366 O   0  0  0  0  0  0  0  0  0  0  0  0
   -1.4659   35.9191    2.0955 C   0  0  0  0  0  0  0  0  0  0  0  0
   -0.8873   34.6674    2.4468 O   0  0  0  0  0  0  0  0  0  0  0  0
   10.1220   34.1802   -1.7817 N   0  0  0  0  0  0  0  0  0  0  0  0
    3.4621   37.0092    0.1561 N   0  0  0  0  0  0  0  0  0  0  0  0
  1  2  1  0  0  0  0
  1 39  1  0  0  0  0
  3  4  1  0  0  0  0
  5  6  1  0  0  0  0
  5 40  1  0  0  0  0
  9 10  1  1  0  0  0
  9 14  1  0  0  0  0
  9 35  1  0  0  0  0
 10  1  1  0  0  0  0
 11 16  1  0  0  0  0
 11 28  1  0  0  0  0
 11 26  1  6  0  0  0
 12 17  1  0  0  0  0
 12 34  1  0  0  0  0
 12 13  1  6  0  0  0
 14 15  1  1  0  0  0
 14 19  1  0  0  0  0
 16 13  1  1  0  0  0
 16 21  1  0  0  0  0
 17 18  1  6  0  0  0
 17 23  1  0  0  0  0
 18  8  1  0  0  0  0
 19 20  1  1  0  0  0
 19 25  1  0  0  0  0
 20  5  1  0  0  0  0
 21  3  1  6  0  0  0
 21 22  1  0  0  0  0
 21 27  1  0  0  0  0
 23 24  1  1  0  0  0
 23 29  1  0  0  0  0
 25 26  1  6  0  0  0
 25 31  1  0  0  0  0
 27  7  1  1  0  0  0
 27 28  1  0  0  0  0
 29 30  1  6  0  0  0
 29 33  1  0  0  0  0
 31 32  1  6  0  0  0
 31 35  1  0  0  0  0
 33 34  1  0  0  0  0
 33 37  1  1  0  0  0
 35 36  1  6  0  0  0
 37 38  1  0  0  0  0
M  END
>  <CHROM.1>
-129.28945153,-109.52740726,-179.78784095,88.31634479,82.41465369,-117.23990906
102.19087299,-57.54530294,-57.14083559,-104.25167222,-175.97662994,2.73542575
34.97630257,-1.67905114,-0.35922176,-0.19871072,0.88089554

>  <Name>
1nta_lig

>  <RI>
0

>  <Rbt.Current_Directory>
/home/itssahil/PROJECTS/Mol_Feturizer/New_Systems/rnas/1nta

>  <Rbt.Executable>
rbdock ($Id: //depot/dev/client3/rdock/2013.1/src/exe/rbdock.cxx#4 $)

>  <Rbt.Library>
libRbt.so (2013.1, Build901 2013/11/27)

>  <Rbt.Parameter_File>
/export/apps/rDock/src/rDock_2013.1_src/data/scripts/dock_solv.prm

>  <Rbt.Receptor>
prm/pocket_docking_3.prm

>  <SCORE>
-30.3659

>  <SCORE.INTER>
-10.3352

>  <SCORE.INTER.CONST>
1

>  <SCORE.INTER.POLAR>
-1.67363

>  <SCORE.INTER.ROT>
11

>  <SCORE.INTER.SOLV>
21.7062

>  <SCORE.INTER.VDW>
-19.4801

>  <SCORE.INTER.norm>
-0.25838

>  <SCORE.INTRA>
-20.0307

>  <SCORE.INTRA.DIHEDRAL>
-2.76937

>  <SCORE.INTRA.DIHEDRAL.0>
19.0336

>  <SCORE.INTRA.POLAR>
0

>  <SCORE.INTRA.POLAR.0>
0

>  <SCORE.INTRA.REPUL>
0.015505

>  <SCORE.INTRA.REPUL.0>
0

>  <SCORE.INTRA.SOLV>
-0.40928

>  <SCORE.INTRA.SOLV.lig_0>
-97.5861

>  <SCORE.INTRA.VDW>
-18.5189

>  <SCORE.INTRA.VDW.0>
11.7669

>  <SCORE.INTRA.norm>
-0.500767

>  <SCORE.RESTR>
0

>  <SCORE.RESTR.CAVITY>
0

>  <SCORE.RESTR.norm>
0

>  <SCORE.SYSTEM>
0

>  <SCORE.SYSTEM.CONST>
0

>  <SCORE.SYSTEM.DIHEDRAL>
0

>  <SCORE.SYSTEM.SOLV>
0

>  <SCORE.SYSTEM.norm>
0

>  <SCORE.heavy>
40

>  <SCORE.norm>
-0.759147

>  <RMSD>
1.407

$$$$
1nta_lig
 OpenBabel11021811403D
libRbt.so/2013.1/901 2013/11/27
 40 42  0  0  0  0  0  0  0  0999 V2000
    7.5547   32.3445   -0.7330 C   0  0  0  0  0  0  0  0  0  0  0  0
    8.6142   32.1357   -0.0446 N   0  0  0  0  0  0  0  0  0  0  0  0
   -0.9849   35.0326   -3.6908 C   0  0  0  0  0  0  0  0  0  0  0  0
   -1.4904   34.6274   -4.7144 O   0  0  0  0  0  0  0  0  0  0  0  0
    4.1558   36.5445    0.8157 C   0  0  0  0  0  0  0  0  0  0  0  0
    4.8764   36.5830    1.9061 N   0  0  0  0  0  0  0  0  0  0  0  0
   -0.4310   31.7835   -3.2459 C   0  0  0  0  0  0  0  0  0  0  0  0
    1.0682   38.3825   -1.6952 C   0  0  0  0  0  0  0  0  0  0  0  0
    6.3634   33.9478   -2.0021 C   0  0  2  0  0  0  0  0  0  0  0  0
    7.6706   33.2410   -1.7012 N   0  0  0  0  0  0  0  0  0  0  0  0
    1.1558   34.2044   -1.1219 C   0  0  2  0  0  0  0  0  0  0  0  0
   -0.1600   36.4058    0.3376 C   0  0  1  0  0  0  0  0  0  0  0  0
   -0.7357   35.3409   -0.3349 O   0  0  0  0  0  0  0  0  0  0  0  0
    5.6732   34.3648   -0.6896 C   0  0  1  0  0  0  0  0  0  0  0  0
    6.5126   35.2834   -0.0574 O   0  0  0  0  0  0  0  0  0  0  0  0
   -0.0868   35.0274   -1.4438 C   0  0  2  0  0  0  0  0  0  0  0  0
   -0.5557   37.7778   -0.1623 C   0  0  1  0  0  0  0  0  0  0  0  0
   -0.2777   37.8525   -1.5548 N   0  0  0  0  0  0  0  0  0  0  0  0
    4.3301   35.0659   -0.9333 C   0  0  2  0  0  0  0  0  0  0  0  0
    3.6349   35.4775    0.3098 N   0  0  0  0  0  0  0  0  0  0  0  0
   -0.7193   34.1925   -2.4704 C   0  0  1  0  0  0  0  0  0  0  0  0
   -1.9225   33.6669   -1.9065 O   0  0  0  0  0  0  0  0  0  0  0  0
   -1.9085   38.0125    0.0404 C   0  0  2  0  0  0  0  0  0  0  0  0
   -2.1381   39.3836   -0.1660 O   0  0  0  0  0  0  0  0  0  0  0  0
    3.4363   34.1142   -1.7125 C   0  0  1  0  0  0  0  0  0  0  0  0
    2.1975   34.7686   -1.9381 O   0  0  0  0  0  0  0  0  0  0  0  0
    0.1759   33.0714   -2.7823 C   0  0  1  0  0  0  0  0  0  0  0  0
    0.9350   32.8947   -1.5926 O   0  0  0  0  0  0  0  0  0  0  0  0
   -2.2996   37.6436    1.4473 C   0  0  1  0  0  0  0  0  0  0  0  0
   -3.6930   37.6598    1.5500 O   0  0  0  0  0  0  0  0  0  0  0  0
    4.1103   33.7257   -3.0592 C   0  0  2  0  0  0  0  0  0  0  0  0
    3.2530   32.8418   -3.7796 O   0  0  0  0  0  0  0  0  0  0  0  0
   -1.8231   36.2655    1.7579 C   0  0  1  0  0  0  0  0  0  0  0  0
   -0.4285   36.2617    1.6558 O   0  0  0  0  0  0  0  0  0  0  0  0
    5.4501   33.0165   -2.7706 C   0  0  1  0  0  0  0  0  0  0  0  0
    6.0887   32.6483   -4.0040 O   0  0  0  0  0  0  0  0  0  0  0  0
   -2.1875   35.8580    3.1992 C   0  0  0  0  0  0  0  0  0  0  0  0
   -3.6016   35.7426    3.3095 O   0  0  0  0  0  0  0  0  0  0  0  0
    6.4459   31.7295   -0.4998 N   0  0  0  0  0  0  0  0  0  0  0  0
    3.9046   37.6238    0.1845 N   0  0  0  0  0  0  0  0  0  0  0  0
  1  2  1  0  0  0  0
  1 39  1  0  0  0  0
  3  4  1  0  0  0  0
  5  6  1  0  0  0  0
  5 40  1  0  0  0  0
  9 10  1  1  0  0  0
  9 14  1  0  0  0  0
  9 35  1  0  0  0  0
 10  1  1  0  0  0  0
 11 16  1  0  0  0  0
 11 28  1  0  0  0  0
 11 26  1  6  0  0  0
 12 17  1  0  0  0  0
 12 34  1  0  0  0  0
 12 13  1  6  0  0  0
 14 15  1  6  0  0  0
 14 19  1  0  0  0  0
 16 13  1  1  0  0  0
 16 21  1  0  0  0  0
 17 18  1  6  0  0  0
 17 23  1  0  0  0  0
 18  8  1  0  0  0  0
 19 20  1  1  0  0  0
 19 25  1  0  0  0  0
 20  5  1  0  0  0  0
 21  3  1  6  0  0  0
 21 22  1  0  0  0  0
 21 27  1  0  0  0  0
 23 24  1  1  0  0  0
 23 29  1  0  0  0  0
 25 26  1  6  0  0  0
 25 31  1  0  0  0  0
 27  7  1  1  0  0  0
 27 28  1  0  0  0  0
 29 30  1  6  0  0  0
 29 33  1  0  0  0  0
 31 32  1  1  0  0  0
 31 35  1  0  0  0  0
 33 34  1  0  0  0  0
 33 37  1  1  0  0  0
 35 36  1  6  0  0  0
 37 38  1  0  0  0  0
M  END
>  <CHROM.1>
45.17547446,-151.23533448,178.45649960,83.19809103,79.22767094,-91.65075366
77.30384262,-108.17035524,179.38768807,-107.69751660,66.83812497,1.73722061
35.06711448,-0.86460644,-0.40706760,-0.17757411,0.91290806

>  <Name>
1nta_lig

>  <RI>
0

>  <Rbt.Current_Directory>
/home/itssahil/PROJECTS/Mol_Feturizer/New_Systems/rnas/1nta

>  <Rbt.Executable>
rbdock ($Id: //depot/dev/client3/rdock/2013.1/src/exe/rbdock.cxx#4 $)

>  <Rbt.Library>
libRbt.so (2013.1, Build901 2013/11/27)

>  <Rbt.Parameter_File>
/export/apps/rDock/src/rDock_2013.1_src/data/scripts/dock_solv.prm

>  <Rbt.Receptor>
prm/pocket_docking_2.prm

>  <SCORE>
-9.46391

>  <SCORE.INTER>
6.3262

>  <SCORE.INTER.CONST>
1

>  <SCORE.INTER.POLAR>
0

>  <SCORE.INTER.ROT>
11

>  <SCORE.INTER.SOLV>
22.2068

>  <SCORE.INTER.VDW>
-14.1181

>  <SCORE.INTER.norm>
0.158155

>  <SCORE.INTRA>
-16.5978

>  <SCORE.INTRA.DIHEDRAL>
-6.07509

>  <SCORE.INTRA.DIHEDRAL.0>
19.0336

>  <SCORE.INTRA.POLAR>
0

>  <SCORE.INTRA.POLAR.0>
0

>  <SCORE.INTRA.REPUL>
0

>  <SCORE.INTRA.REPUL.0>
0

>  <SCORE.INTRA.SOLV>
0.0526591

>  <SCORE.INTRA.SOLV.lig_0>
-97.5861

>  <SCORE.INTRA.VDW>
-13.5865

>  <SCORE.INTRA.VDW.0>
11.7669

>  <SCORE.INTRA.norm>
-0.414944

>  <SCORE.RESTR>
0.807657

>  <SCORE.RESTR.CAVITY>
0.807657

>  <SCORE.RESTR.norm>
0.0201914

>  <SCORE.SYSTEM>
0

>  <SCORE.SYSTEM.CONST>
0

>  <SCORE.SYSTEM.DIHEDRAL>
0

>  <SCORE.SYSTEM.SOLV>
0

>  <SCORE.SYSTEM.norm>
0

>  <SCORE.heavy>
40

>  <SCORE.norm>
-0.236598

>  <RMSD>
1.428

$$$$
1nta_lig
 OpenBabel11021811403D
libRbt.so/2013.1/901 2013/11/27
 40 42  0  0  0  0  0  0  0  0999 V2000
    9.8193   32.9901   -1.1354 C   0  0  0  0  0  0  0  0  0  0  0  0
   10.6207   32.0223   -1.3828 N   0  0  0  0  0  0  0  0  0  0  0  0
    0.6429   35.3340   -3.5405 C   0  0  0  0  0  0  0  0  0  0  0  0
    1.6261   35.8888   -3.9797 O   0  0  0  0  0  0  0  0  0  0  0  0
    5.1369   36.7403    1.0891 C   0  0  0  0  0  0  0  0  0  0  0  0
    6.2016   37.3012    0.5776 N   0  0  0  0  0  0  0  0  0  0  0  0
    0.9316   32.0250   -3.3698 C   0  0  0  0  0  0  0  0  0  0  0  0
    2.3881   38.6171   -0.8412 C   0  0  0  0  0  0  0  0  0  0  0  0
    7.5032   33.4480   -0.9716 C   0  0  2  0  0  0  0  0  0  0  0  0
    8.7080   32.6611   -0.4939 N   0  0  0  0  0  0  0  0  0  0  0  0
    2.2520   34.1010   -0.7550 C   0  0  2  0  0  0  0  0  0  0  0  0
    0.8328   36.2211    0.7072 C   0  0  1  0  0  0  0  0  0  0  0  0
    0.3169   35.2889   -0.1773 O   0  0  0  0  0  0  0  0  0  0  0  0
    6.7781   34.0857    0.2286 C   0  0  1  0  0  0  0  0  0  0  0  0
    7.6666   34.9896    0.8129 O   0  0  0  0  0  0  0  0  0  0  0  0
    1.1319   35.0404   -1.1888 C   0  0  2  0  0  0  0  0  0  0  0  0
    0.6248   37.6681    0.3176 C   0  0  1  0  0  0  0  0  0  0  0  0
    1.1514   37.8680   -0.9881 N   0  0  0  0  0  0  0  0  0  0  0  0
    5.5335   34.8774   -0.1946 C   0  0  2  0  0  0  0  0  0  0  0  0
    4.8072   35.5017    0.9372 N   0  0  0  0  0  0  0  0  0  0  0  0
    0.6443   34.3598   -2.3929 C   0  0  1  0  0  0  0  0  0  0  0  0
   -0.6661   33.8701   -2.1013 O   0  0  0  0  0  0  0  0  0  0  0  0
   -0.7238   37.9960    0.3146 C   0  0  2  0  0  0  0  0  0  0  0  0
   -0.8212   39.3960    0.2401 O   0  0  0  0  0  0  0  0  0  0  0  0
    4.5969   33.9280   -0.9248 C   0  0  1  0  0  0  0  0  0  0  0  0
    3.4498   34.6658   -1.3168 O   0  0  0  0  0  0  0  0  0  0  0  0
    1.5175   33.2128   -2.6714 C   0  0  1  0  0  0  0  0  0  0  0  0
    2.0456   32.8641   -1.3977 O   0  0  0  0  0  0  0  0  0  0  0  0
   -1.3835   37.5129    1.5794 C   0  0  1  0  0  0  0  0  0  0  0  0
   -2.7687   37.6386    1.4454 O   0  0  0  0  0  0  0  0  0  0  0  0
    5.3111   33.3160   -2.1634 C   0  0  2  0  0  0  0  0  0  0  0  0
    4.4140   32.4372   -2.8405 O   0  0  0  0  0  0  0  0  0  0  0  0
   -1.0629   36.0733    1.7970 C   0  0  1  0  0  0  0  0  0  0  0  0
    0.3241   35.9596    1.9334 O   0  0  0  0  0  0  0  0  0  0  0  0
    6.5487   32.5220   -1.6951 C   0  0  1  0  0  0  0  0  0  0  0  0
    7.2227   31.9471   -2.8265 O   0  0  0  0  0  0  0  0  0  0  0  0
   -1.7052   35.5460    3.0953 C   0  0  0  0  0  0  0  0  0  0  0  0
   -1.2137   36.2976    4.1992 O   0  0  0  0  0  0  0  0  0  0  0  0
   10.0706   34.2040   -1.4894 N   0  0  0  0  0  0  0  0  0  0  0  0
    4.3484   37.4269    1.8193 N   0  0  0  0  0  0  0  0  0  0  0  0
  1  2  1  0  0  0  0
  1 39  1  0  0  0  0
  3  4  1  0  0  0  0
  5  6  1  0  0  0  0
  5 40  1  0  0  0  0
  9 10  1  1  0  0  0
  9 14  1  0  0  0  0
  9 35  1  0  0  0  0
 10  1  1  0  0  0  0
 11 16  1  0  0  0  0
 11 28  1  0  0  0  0
 11 26  1  6  0  0  0
 12 17  1  0  0  0  0
 12 34  1  0  0  0  0
 12 13  1  6  0  0  0
 14 15  1  6  0  0  0
 14 19  1  0  0  0  0
 16 13  1  1  0  0  0
 16 21  1  0  0  0  0
 17 18  1  6  0  0  0
 17 23  1  0  0  0  0
 18  8  1  0  0  0  0
 19 20  1  1  0  0  0
 19 25  1  0  0  0  0
 20  5  1  0  0  0  0
 21  3  1  6  0  0  0
 21 22  1  0  0  0  0
 21 27  1  0  0  0  0
 23 24  1  1  0  0  0
 23 29  1  0  0  0  0
 25 26  1  6  0  0  0
 25 31  1  0  0  0  0
 27  7  1  1  0  0  0
 27 28  1  0  0  0  0
 29 30  1  6  0  0  0
 29 33  1  0  0  0  0
 31 32  1  1  0  0  0
 31 35  1  0  0  0  0
 33 34  1  0  0  0  0
 33 37  1  1  0  0  0
 35 36  1  6  0  0  0
 37 38  1  0  0  0  0
M  END
>  <CHROM.1>
-128.29890969,-142.71847583,176.61291058,83.27678337,78.25962443,-106.39835423
97.19196268,-16.93614529,61.39987957,-121.20645580,-59.83093245,3.06033887
35.10297023,-0.49692629,-0.40683683,-0.15227830,0.85809600

>  <Name>
1nta_lig

>  <RI>
0

>  <Rbt.Current_Directory>
/home/itssahil/PROJECTS/Mol_Feturizer/New_Systems/rnas/1nta

>  <Rbt.Executable>
rbdock ($Id: //depot/dev/client3/rdock/2013.1/src/exe/rbdock.cxx#4 $)

>  <Rbt.Library>
libRbt.so (2013.1, Build901 2013/11/27)

>  <Rbt.Parameter_File>
/export/apps/rDock/src/rDock_2013.1_src/data/scripts/dock_solv.prm

>  <Rbt.Receptor>
prm/pocket_docking_3.prm

>  <SCORE>
-30.3465

>  <SCORE.INTER>
-10.6544

>  <SCORE.INTER.CONST>
1

>  <SCORE.INTER.POLAR>
-1.99167

>  <SCORE.INTER.ROT>
11

>  <SCORE.INTER.SOLV>
25.572

>  <SCORE.INTER.VDW>
-19.9214

>  <SCORE.INTER.norm>
-0.26636

>  <SCORE.INTRA>
-19.6921

>  <SCORE.INTRA.DIHEDRAL>
-3.7127

>  <SCORE.INTRA.DIHEDRAL.0>
19.0336

>  <SCORE.INTRA.POLAR>
0

>  <SCORE.INTRA.POLAR.0>
0

>  <SCORE.INTRA.REPUL>
0

>  <SCORE.INTRA.REPUL.0>
0

>  <SCORE.INTRA.SOLV>
-1.86072

>  <SCORE.INTRA.SOLV.lig_0>
-97.5861

>  <SCORE.INTRA.VDW>
-16.9054

>  <SCORE.INTRA.VDW.0>
11.7669

>  <SCORE.INTRA.norm>
-0.492302

>  <SCORE.RESTR>
0

>  <SCORE.RESTR.CAVITY>
0

>  <SCORE.RESTR.norm>
0

>  <SCORE.SYSTEM>
0

>  <SCORE.SYSTEM.CONST>
0

>  <SCORE.SYSTEM.DIHEDRAL>
0

>  <SCORE.SYSTEM.SOLV>
0

>  <SCORE.SYSTEM.norm>
0

>  <SCORE.heavy>
40

>  <SCORE.norm>
-0.758663

>  <RMSD>
1.435

$$$$
1nta_lig
 OpenBabel11021811403D
libRbt.so/2013.1/901 2013/11/27
 40 42  0  0  0  0  0  0  0  0999 V2000
    9.6271   33.0981   -2.0775 C   0  0  0  0  0  0  0  0  0  0  0  0
   10.0592   34.2222   -1.6419 N   0  0  0  0  0  0  0  0  0  0  0  0
    0.1287   34.4376   -4.9000 C   0  0  0  0  0  0  0  0  0  0  0  0
   -0.4205   35.4573   -5.2548 O   0  0  0  0  0  0  0  0  0  0  0  0
    4.4943   36.0757    0.1153 C   0  0  0  0  0  0  0  0  0  0  0  0
    4.4858   37.2539   -0.4517 N   0  0  0  0  0  0  0  0  0  0  0  0
    0.2523   31.4397   -3.4650 C   0  0  0  0  0  0  0  0  0  0  0  0
    1.2369   38.8212   -4.1172 C   0  0  0  0  0  0  0  0  0  0  0  0
    7.2849   33.4321   -2.1311 C   0  0  2  0  0  0  0  0  0  0  0  0
    8.4777   32.6896   -1.5612 N   0  0  0  0  0  0  0  0  0  0  0  0
    2.1111   34.1883   -2.0936 C   0  0  2  0  0  0  0  0  0  0  0  0
    1.0265   36.9152   -1.5027 C   0  0  1  0  0  0  0  0  0  0  0  0
    0.3723   35.7281   -1.7864 O   0  0  0  0  0  0  0  0  0  0  0  0
    6.3236   33.8380   -0.9979 C   0  0  1  0  0  0  0  0  0  0  0  0
    7.0147   34.7239   -0.1700 O   0  0  0  0  0  0  0  0  0  0  0  0
    0.9895   35.0148   -2.7133 C   0  0  2  0  0  0  0  0  0  0  0  0
    0.3832   38.1611   -2.0707 C   0  0  1  0  0  0  0  0  0  0  0  0
    0.2293   37.9943   -3.4745 N   0  0  0  0  0  0  0  0  0  0  0  0
    5.0829   34.5745   -1.5204 C   0  0  2  0  0  0  0  0  0  0  0  0
    4.1323   34.9764   -0.4560 N   0  0  0  0  0  0  0  0  0  0  0  0
    0.2678   33.9869   -3.4706 C   0  0  1  0  0  0  0  0  0  0  0  0
   -1.0005   33.8067   -2.8373 O   0  0  0  0  0  0  0  0  0  0  0  0
   -0.8641   38.3824   -1.5038 C   0  0  2  0  0  0  0  0  0  0  0  0
   -1.2626   39.6856   -1.8471 O   0  0  0  0  0  0  0  0  0  0  0  0
    4.3714   33.6596   -2.5046 C   0  0  1  0  0  0  0  0  0  0  0  0
    3.2274   34.3467   -2.9871 O   0  0  0  0  0  0  0  0  0  0  0  0
    1.0145   32.7258   -3.3819 C   0  0  1  0  0  0  0  0  0  0  0  0
    1.7290   32.8335   -2.1568 O   0  0  0  0  0  0  0  0  0  0  0  0
   -0.7881   38.2585   -0.0047 C   0  0  1  0  0  0  0  0  0  0  0  0
   -2.0846   38.2456    0.5161 O   0  0  0  0  0  0  0  0  0  0  0  0
    5.3252   33.2834   -3.6740 C   0  0  2  0  0  0  0  0  0  0  0  0
    4.6372   32.4343   -4.5910 O   0  0  0  0  0  0  0  0  0  0  0  0
   -0.1234   36.9755    0.3620 C   0  0  1  0  0  0  0  0  0  0  0  0
    1.1735   37.0007   -0.1605 O   0  0  0  0  0  0  0  0  0  0  0  0
    6.5524   32.5379   -3.1088 C   0  0  1  0  0  0  0  0  0  0  0  0
    7.4464   32.1804   -4.1754 O   0  0  0  0  0  0  0  0  0  0  0  0
   -0.0083   36.8209    1.8914 C   0  0  0  0  0  0  0  0  0  0  0  0
   -1.3017   36.5860    2.4365 O   0  0  0  0  0  0  0  0  0  0  0  0
   10.2671   32.4044   -2.9558 N   0  0  0  0  0  0  0  0  0  0  0  0
    4.9059   35.9541    1.3163 N   0  0  0  0  0  0  0  0  0  0  0  0
  1  2  1  0  0  0  0
  1 39  1  0  0  0  0
  3  4  1  0  0  0  0
  5  6  1  0  0  0  0
  5 40  1  0  0  0  0
  9 10  1  1  0  0  0
  9 14  1  0  0  0  0
  9 35  1  0  0  0  0
 10  1  1  0  0  0  0
 11 16  1  0  0  0  0
 11 28  1  0  0  0  0
 11 26  1  6  0  0  0
 12 17  1  0  0  0  0
 12 34  1  0  0  0  0
 12 13  1  1  0  0  0
 14 15  1  1  0  0  0
 14 19  1  0  0  0  0
 16 13  1  1  0  0  0
 16 21  1  0  0  0  0
 17 18  1  6  0  0  0
 17 23  1  0  0  0  0
 18  8  1  0  0  0  0
 19 20  1  1  0  0  0
 19 25  1  0  0  0  0
 20  5  1  0  0  0  0
 21  3  1  6  0  0  0
 21 22  1  0  0  0  0
 21 27  1  0  0  0  0
 23 24  1  1  0  0  0
 23 29  1  0  0  0  0
 25 26  1  6  0  0  0
 25 31  1  0  0  0  0
 27  7  1  1  0  0  0
 27 28  1  0  0  0  0
 29 30  1  1  0  0  0
 29 33  1  0  0  0  0
 31 32  1  6  0  0  0
 31 35  1  0  0  0  0
 33 34  1  0  0  0  0
 33 37  1  1  0  0  0
 35 36  1  6  0  0  0
 37 38  1  0  0  0  0
M  END
>  <CHROM.1>
-135.17465572,75.92280051,177.96776772,104.90627018,83.26510750,-105.72593258
82.03733079,68.86972723,-58.75411401,-84.62532916,70.85317307,2.85570441
35.13966014,-1.88282909,-0.37914400,-0.27252648,0.86458469

>  <Name>
1nta_lig

>  <RI>
0

>  <Rbt.Current_Directory>
/home/itssahil/PROJECTS/Mol_Feturizer/New_Systems/rnas/1nta

>  <Rbt.Executable>
rbdock ($Id: //depot/dev/client3/rdock/2013.1/src/exe/rbdock.cxx#4 $)

>  <Rbt.Library>
libRbt.so (2013.1, Build901 2013/11/27)

>  <Rbt.Parameter_File>
/export/apps/rDock/src/rDock_2013.1_src/data/scripts/dock_solv.prm

>  <Rbt.Receptor>
prm/pocket_docking_3.prm

>  <SCORE>
-32.6361

>  <SCORE.INTER>
-12.3794

>  <SCORE.INTER.CONST>
1

>  <SCORE.INTER.POLAR>
-1.78434

>  <SCORE.INTER.ROT>
11

>  <SCORE.INTER.SOLV>
23.5396

>  <SCORE.INTER.VDW>
-21.085

>  <SCORE.INTER.norm>
-0.309486

>  <SCORE.INTRA>
-20.2567

>  <SCORE.INTRA.DIHEDRAL>
-3.508

>  <SCORE.INTRA.DIHEDRAL.0>
19.0336

>  <SCORE.INTRA.POLAR>
0

>  <SCORE.INTRA.POLAR.0>
0

>  <SCORE.INTRA.REPUL>
0

>  <SCORE.INTRA.REPUL.0>
0

>  <SCORE.INTRA.SOLV>
-1.79092

>  <SCORE.INTRA.SOLV.lig_0>
-97.5861

>  <SCORE.INTRA.VDW>
-17.6072

>  <SCORE.INTRA.VDW.0>
11.7669

>  <SCORE.INTRA.norm>
-0.506417

>  <SCORE.RESTR>
0

>  <SCORE.RESTR.CAVITY>
0

>  <SCORE.RESTR.norm>
0

>  <SCORE.SYSTEM>
0

>  <SCORE.SYSTEM.CONST>
0

>  <SCORE.SYSTEM.DIHEDRAL>
0

>  <SCORE.SYSTEM.SOLV>
0

>  <SCORE.SYSTEM.norm>
0

>  <SCORE.heavy>
40

>  <SCORE.norm>
-0.815903

>  <RMSD>
1.587

$$$$
1nta_lig
 OpenBabel11021811403D
libRbt.so/2013.1/901 2013/11/27
 40 42  0  0  0  0  0  0  0  0999 V2000
    9.6201   33.0975   -2.1107 C   0  0  0  0  0  0  0  0  0  0  0  0
   10.0489   34.2358   -1.7097 N   0  0  0  0  0  0  0  0  0  0  0  0
    0.1760   34.5251   -5.0467 C   0  0  0  0  0  0  0  0  0  0  0  0
   -0.4059   35.5458   -5.3413 O   0  0  0  0  0  0  0  0  0  0  0  0
    4.4214   36.0195    0.0711 C   0  0  0  0  0  0  0  0  0  0  0  0
    4.6578   37.1494   -0.5432 N   0  0  0  0  0  0  0  0  0  0  0  0
    0.2764   31.4227   -3.8523 C   0  0  0  0  0  0  0  0  0  0  0  0
    1.2829   38.6473   -4.0799 C   0  0  0  0  0  0  0  0  0  0  0  0
    7.2775   33.4299   -2.1581 C   0  0  2  0  0  0  0  0  0  0  0  0
    8.4738   32.7000   -1.5792 N   0  0  0  0  0  0  0  0  0  0  0  0
    2.0770   34.0601   -2.2115 C   0  0  2  0  0  0  0  0  0  0  0  0
    0.9097   36.7713   -1.4997 C   0  0  1  0  0  0  0  0  0  0  0  0
    0.3203   35.5637   -1.8342 O   0  0  0  0  0  0  0  0  0  0  0  0
    6.2972   33.8139   -1.0336 C   0  0  1  0  0  0  0  0  0  0  0  0
    6.9658   34.7033   -0.1911 O   0  0  0  0  0  0  0  0  0  0  0  0
    0.9689   34.9291   -2.7964 C   0  0  2  0  0  0  0  0  0  0  0  0
    0.2642   37.9974   -2.1070 C   0  0  1  0  0  0  0  0  0  0  0  0
    0.2167   37.8346   -3.5189 N   0  0  0  0  0  0  0  0  0  0  0  0
    5.0525   34.5368   -1.5655 C   0  0  2  0  0  0  0  0  0  0  0  0
    4.0838   34.9175   -0.5098 N   0  0  0  0  0  0  0  0  0  0  0  0
    0.2761   33.9622   -3.6542 C   0  0  1  0  0  0  0  0  0  0  0  0
   -1.0090   33.7270   -3.0753 O   0  0  0  0  0  0  0  0  0  0  0  0
   -1.0274   38.1705   -1.6297 C   0  0  2  0  0  0  0  0  0  0  0  0
   -1.4469   39.4610   -1.9952 O   0  0  0  0  0  0  0  0  0  0  0  0
    4.3658   33.6193   -2.5648 C   0  0  1  0  0  0  0  0  0  0  0  0
    3.2180   34.2938   -3.0560 O   0  0  0  0  0  0  0  0  0  0  0  0
    1.0278   32.7010   -3.6443 C   0  0  1  0  0  0  0  0  0  0  0  0
    1.7054   32.7132   -2.3939 O   0  0  0  0  0  0  0  0  0  0  0  0
   -1.0539   38.0394   -0.1295 C   0  0  1  0  0  0  0  0  0  0  0  0
   -2.3829   37.9771    0.2973 O   0  0  0  0  0  0  0  0  0  0  0  0
    5.3386   33.2651   -3.7253 C   0  0  2  0  0  0  0  0  0  0  0  0
    4.6735   32.4131   -4.6566 O   0  0  0  0  0  0  0  0  0  0  0  0
   -0.3714   36.7784    0.2784 C   0  0  1  0  0  0  0  0  0  0  0  0
    0.9576   36.8531   -0.1500 O   0  0  0  0  0  0  0  0  0  0  0  0
    6.5693   32.5327   -3.1508 C   0  0  1  0  0  0  0  0  0  0  0  0
    7.4809   32.1956   -4.2092 O   0  0  0  0  0  0  0  0  0  0  0  0
   -0.3601   36.6177    1.8115 C   0  0  0  0  0  0  0  0  0  0  0  0
   -1.6830   36.3529    2.2640 O   0  0  0  0  0  0  0  0  0  0  0  0
   10.2603   32.3808   -2.9701 N   0  0  0  0  0  0  0  0  0  0  0  0
    4.5444   35.9502    1.3386 N   0  0  0  0  0  0  0  0  0  0  0  0
  1  2  1  0  0  0  0
  1 39  1  0  0  0  0
  3  4  1  0  0  0  0
  5  6  1  0  0  0  0
  5 40  1  0  0  0  0
  9 10  1  1  0  0  0
  9 14  1  0  0  0  0
  9 35  1  0  0  0  0
 10  1  1  0  0  0  0
 11 16  1  0  0  0  0
 11 28  1  0  0  0  0
 11 26  1  6  0  0  0
 12 17  1  0  0  0  0
 12 34  1  0  0  0  0
 12 13  1  1  0  0  0
 14 15  1  1  0  0  0
 14 19  1  0  0  0  0
 16 13  1  1  0  0  0
 16 21  1  0  0  0  0
 17 18  1  6  0  0  0
 17 23  1  0  0  0  0
 18  8  1  0  0  0  0
 19 20  1  1  0  0  0
 19 25  1  0  0  0  0
 20  5  1  0  0  0  0
 21  3  1  6  0  0  0
 21 22  1  0  0  0  0
 21 27  1  0  0  0  0
 23 24  1  1  0  0  0
 23 29  1  0  0  0  0
 25 26  1  6  0  0  0
 25 31  1  0  0  0  0
 27  7  1  1  0  0  0
 27 28  1  0  0  0  0
 29 30  1  6  0  0  0
 29 33  1  0  0  0  0
 31 32  1  6  0  0  0
 31 35  1  0  0  0  0
 33 34  1  0  0  0  0
 33 37  1  1  0  0  0
 35 36  1  6  0  0  0
 37 38  1  0  0  0  0
M  END
>  <CHROM.1>
-137.26016690,75.38620537,175.53535178,99.73658540,87.33332673,-102.81292599
82.22255015,54.48114183,-61.26492979,-87.41657913,70.01079261,2.78693996
35.05746646,-1.97229489,-0.34884361,-0.26815401,0.90320573

>  <Name>
1nta_lig

>  <RI>
0

>  <Rbt.Current_Directory>
/home/itssahil/PROJECTS/Mol_Feturizer/New_Systems/rnas/1nta

>  <Rbt.Executable>
rbdock ($Id: //depot/dev/client3/rdock/2013.1/src/exe/rbdock.cxx#4 $)

>  <Rbt.Library>
libRbt.so (2013.1, Build901 2013/11/27)

>  <Rbt.Parameter_File>
/export/apps/rDock/src/rDock_2013.1_src/data/scripts/dock_solv.prm

>  <Rbt.Receptor>
prm/pocket_docking_3.prm

>  <SCORE>
-32.407

>  <SCORE.INTER>
-12.1235

>  <SCORE.INTER.CONST>
1

>  <SCORE.INTER.POLAR>
-1.75372

>  <SCORE.INTER.ROT>
11

>  <SCORE.INTER.SOLV>
23.9418

>  <SCORE.INTER.VDW>
-21.1505

>  <SCORE.INTER.norm>
-0.303086

>  <SCORE.INTRA>
-20.2835

>  <SCORE.INTRA.DIHEDRAL>
-3.08345

>  <SCORE.INTRA.DIHEDRAL.0>
19.0336

>  <SCORE.INTRA.POLAR>
0

>  <SCORE.INTRA.POLAR.0>
0

>  <SCORE.INTRA.REPUL>
0

>  <SCORE.INTRA.REPUL.0>
0

>  <SCORE.INTRA.SOLV>
-2.11555

>  <SCORE.INTRA.SOLV.lig_0>
-97.5861

>  <SCORE.INTRA.VDW>
-17.684

>  <SCORE.INTRA.VDW.0>
11.7669

>  <SCORE.INTRA.norm>
-0.507088

>  <SCORE.RESTR>
0

>  <SCORE.RESTR.CAVITY>
0

>  <SCORE.RESTR.norm>
0

>  <SCORE.SYSTEM>
0

>  <SCORE.SYSTEM.CONST>
0

>  <SCORE.SYSTEM.DIHEDRAL>
0

>  <SCORE.SYSTEM.SOLV>
0

>  <SCORE.SYSTEM.norm>
0

>  <SCORE.heavy>
40

>  <SCORE.norm>
-0.810174

>  <RMSD>
1.607

$$$$
1nta_lig
 OpenBabel11021811403D
libRbt.so/2013.1/901 2013/11/27
 40 42  0  0  0  0  0  0  0  0999 V2000
    9.7302   33.0377   -2.0910 C   0  0  0  0  0  0  0  0  0  0  0  0
   10.1113   34.1800   -1.6550 N   0  0  0  0  0  0  0  0  0  0  0  0
    0.2183   34.5668   -4.8218 C   0  0  0  0  0  0  0  0  0  0  0  0
   -0.3230   35.6063   -5.1280 O   0  0  0  0  0  0  0  0  0  0  0  0
    4.6409   35.9317    0.2297 C   0  0  0  0  0  0  0  0  0  0  0  0
    4.6262   37.1425   -0.2637 N   0  0  0  0  0  0  0  0  0  0  0  0
    0.3025   31.5087   -3.5171 C   0  0  0  0  0  0  0  0  0  0  0  0
    1.4374   38.8897   -4.1318 C   0  0  0  0  0  0  0  0  0  0  0  0
    7.3875   33.3687   -2.1441 C   0  0  2  0  0  0  0  0  0  0  0  0
    8.5780   32.5979   -1.6078 N   0  0  0  0  0  0  0  0  0  0  0  0
    2.2216   34.1639   -2.0482 C   0  0  2  0  0  0  0  0  0  0  0  0
    1.1507   36.9160   -1.3803 C   0  0  1  0  0  0  0  0  0  0  0  0
    0.5129   35.7187   -1.6586 O   0  0  0  0  0  0  0  0  0  0  0  0
    6.4347   33.7394   -0.9919 C   0  0  1  0  0  0  0  0  0  0  0  0
    7.1359   34.5899   -0.1358 O   0  0  0  0  0  0  0  0  0  0  0  0
    1.1090   35.0352   -2.6211 C   0  0  2  0  0  0  0  0  0  0  0  0
    0.6085   38.1240   -2.1121 C   0  0  1  0  0  0  0  0  0  0  0  0
    0.6273   37.8565   -3.5086 N   0  0  0  0  0  0  0  0  0  0  0  0
    5.1965   34.5028   -1.4807 C   0  0  2  0  0  0  0  0  0  0  0  0
    4.2540   34.8720   -0.3974 N   0  0  0  0  0  0  0  0  0  0  0  0
    0.3625   34.0531   -3.4143 C   0  0  1  0  0  0  0  0  0  0  0  0
   -0.9029   33.8678   -2.7768 O   0  0  0  0  0  0  0  0  0  0  0  0
   -0.6949   38.4003   -1.7237 C   0  0  2  0  0  0  0  0  0  0  0  0
   -1.0209   39.6792   -2.2065 O   0  0  0  0  0  0  0  0  0  0  0  0
    4.4739   33.6293   -2.4939 C   0  0  1  0  0  0  0  0  0  0  0  0
    3.3323   34.3412   -2.9451 O   0  0  0  0  0  0  0  0  0  0  0  0
    1.0878   32.7768   -3.3867 C   0  0  1  0  0  0  0  0  0  0  0  0
    1.8152   32.8197   -2.1653 O   0  0  0  0  0  0  0  0  0  0  0  0
   -0.8087   38.3858   -0.2219 C   0  0  1  0  0  0  0  0  0  0  0  0
   -2.1600   38.4257    0.1313 O   0  0  0  0  0  0  0  0  0  0  0  0
    5.4192   33.2896   -3.6812 C   0  0  2  0  0  0  0  0  0  0  0  0
    4.7208   32.4791   -4.6250 O   0  0  0  0  0  0  0  0  0  0  0  0
   -0.2211   37.1257    0.3159 C   0  0  1  0  0  0  0  0  0  0  0  0
    1.1310   37.0980   -0.0398 O   0  0  0  0  0  0  0  0  0  0  0  0
    6.6440   32.5158   -3.1499 C   0  0  1  0  0  0  0  0  0  0  0  0
    7.5303   32.1914   -4.2335 O   0  0  0  0  0  0  0  0  0  0  0  0
   -0.3006   37.0823    1.8548 C   0  0  0  0  0  0  0  0  0  0  0  0
   -1.6603   36.9383    2.2492 O   0  0  0  0  0  0  0  0  0  0  0  0
   10.4208   32.3556   -2.9395 N   0  0  0  0  0  0  0  0  0  0  0  0
    5.0850   35.7338    1.4086 N   0  0  0  0  0  0  0  0  0  0  0  0
  1  2  1  0  0  0  0
  1 39  1  0  0  0  0
  3  4  1  0  0  0  0
  5  6  1  0  0  0  0
  5 40  1  0  0  0  0
  9 10  1  1  0  0  0
  9 14  1  0  0  0  0
  9 35  1  0  0  0  0
 10  1  1  0  0  0  0
 11 16  1  0  0  0  0
 11 28  1  0  0  0  0
 11 26  1  6  0  0  0
 12 17  1  0  0  0  0
 12 34  1  0  0  0  0
 12 13  1  1  0  0  0
 14 15  1  1  0  0  0
 14 19  1  0  0  0  0
 16 13  1  1  0  0  0
 16 21  1  0  0  0  0
 17 18  1  6  0  0  0
 17 23  1  0  0  0  0
 18  8  1  0  0  0  0
 19 20  1  1  0  0  0
 19 25  1  0  0  0  0
 20  5  1  0  0  0  0
 21  3  1  6  0  0  0
 21 22  1  0  0  0  0
 21 27  1  0  0  0  0
 23 24  1  1  0  0  0
 23 29  1  0  0  0  0
 25 26  1  6  0  0  0
 25 31  1  0  0  0  0
 27  7  1  1  0  0  0
 27 28  1  0  0  0  0
 29 30  1  6  0  0  0
 29 33  1  0  0  0  0
 31 32  1  6  0  0  0
 31 35  1  0  0  0  0
 33 34  1  0  0  0  0
 33 37  1  1  0  0  0
 35 36  1  6  0  0  0
 37 38  1  0  0  0  0
M  END
>  <CHROM.1>
-133.69518849,71.42141507,177.17172003,93.93284291,86.50127551,-122.09769225
80.70911975,70.87445846,-59.21135766,-84.30077261,69.32416776,2.93982293
35.15205759,-1.89453347,-0.37894549,-0.28449897,0.86629036

>  <Name>
1nta_lig

>  <RI>
0

>  <Rbt.Current_Directory>
/home/itssahil/PROJECTS/Mol_Feturizer/New_Systems/rnas/1nta

>  <Rbt.Executable>
rbdock ($Id: //depot/dev/client3/rdock/2013.1/src/exe/rbdock.cxx#4 $)

>  <Rbt.Library>
libRbt.so (2013.1, Build901 2013/11/27)

>  <Rbt.Parameter_File>
/export/apps/rDock/src/rDock_2013.1_src/data/scripts/dock_solv.prm

>  <Rbt.Receptor>
prm/pocket_docking_3.prm

>  <SCORE>
-32.7439

>  <SCORE.INTER>
-12.3681

>  <SCORE.INTER.CONST>
1

>  <SCORE.INTER.POLAR>
-1.74087

>  <SCORE.INTER.ROT>
11

>  <SCORE.INTER.SOLV>
23.8959

>  <SCORE.INTER.VDW>
-21.3411

>  <SCORE.INTER.norm>
-0.309204

>  <SCORE.INTRA>
-20.404

>  <SCORE.INTRA.DIHEDRAL>
-4.65027

>  <SCORE.INTRA.DIHEDRAL.0>
19.0336

>  <SCORE.INTRA.POLAR>
0

>  <SCORE.INTRA.POLAR.0>
0

>  <SCORE.INTRA.REPUL>
0

>  <SCORE.INTRA.REPUL.0>
0

>  <SCORE.INTRA.SOLV>
-1.74284

>  <SCORE.INTRA.SOLV.lig_0>
-97.5861

>  <SCORE.INTRA.VDW>
-17.2074

>  <SCORE.INTRA.VDW.0>
11.7669

>  <SCORE.INTRA.norm>
-0.510099

>  <SCORE.RESTR>
0.0281785

>  <SCORE.RESTR.CAVITY>
0.0281785

>  <SCORE.RESTR.norm>
0.000704461

>  <SCORE.SYSTEM>
0

>  <SCORE.SYSTEM.CONST>
0

>  <SCORE.SYSTEM.DIHEDRAL>
0

>  <SCORE.SYSTEM.SOLV>
0

>  <SCORE.SYSTEM.norm>
0

>  <SCORE.heavy>
40

>  <SCORE.norm>
-0.818598

>  <RMSD>
1.619

$$$$
1nta_lig
 OpenBabel11021811403D
libRbt.so/2013.1/901 2013/11/27
 40 42  0  0  0  0  0  0  0  0999 V2000
    9.5352   32.3544   -2.1343 C   0  0  0  0  0  0  0  0  0  0  0  0
   10.4264   32.9137   -1.4043 N   0  0  0  0  0  0  0  0  0  0  0  0
    0.3395   34.8389   -4.7315 C   0  0  0  0  0  0  0  0  0  0  0  0
   -0.2036   34.3551   -5.7002 O   0  0  0  0  0  0  0  0  0  0  0  0
    4.5907   35.9022    0.3078 C   0  0  0  0  0  0  0  0  0  0  0  0
    5.3587   36.1744    1.3305 N   0  0  0  0  0  0  0  0  0  0  0  0
    0.3222   31.6819   -3.6853 C   0  0  0  0  0  0  0  0  0  0  0  0
    1.3996   38.7120   -4.1009 C   0  0  0  0  0  0  0  0  0  0  0  0
    7.2668   33.0163   -2.0040 C   0  0  2  0  0  0  0  0  0  0  0  0
    8.3816   32.1024   -1.5339 N   0  0  0  0  0  0  0  0  0  0  0  0
    2.1484   34.1862   -1.8731 C   0  0  2  0  0  0  0  0  0  0  0  0
    0.8805   37.0065   -1.2387 C   0  0  1  0  0  0  0  0  0  0  0  0
    0.4238   35.7199   -1.4702 O   0  0  0  0  0  0  0  0  0  0  0  0
    6.3694   33.4105   -0.8156 C   0  0  1  0  0  0  0  0  0  0  0  0
    7.1618   34.1366    0.0749 O   0  0  0  0  0  0  0  0  0  0  0  0
    1.0809   35.1132   -2.4444 C   0  0  2  0  0  0  0  0  0  0  0  0
    0.3195   38.0684   -2.1587 C   0  0  1  0  0  0  0  0  0  0  0  0
    0.5664   37.6813   -3.5046 N   0  0  0  0  0  0  0  0  0  0  0  0
    5.2070   34.3189   -1.2378 C   0  0  2  0  0  0  0  0  0  0  0  0
    4.3189   34.7147   -0.1185 N   0  0  0  0  0  0  0  0  0  0  0  0
    0.3858   34.2081   -3.3656 C   0  0  1  0  0  0  0  0  0  0  0  0
   -0.9207   33.9828   -2.8324 O   0  0  0  0  0  0  0  0  0  0  0  0
   -1.0484   38.2161   -1.9761 C   0  0  2  0  0  0  0  0  0  0  0  0
   -1.4401   39.3968   -2.6298 O   0  0  0  0  0  0  0  0  0  0  0  0
    4.3891   33.5812   -2.2860 C   0  0  1  0  0  0  0  0  0  0  0  0
    3.3181   34.4268   -2.6753 O   0  0  0  0  0  0  0  0  0  0  0  0
    1.1022   32.9269   -3.3965 C   0  0  1  0  0  0  0  0  0  0  0  0
    1.7453   32.8606   -2.1297 O   0  0  0  0  0  0  0  0  0  0  0  0
   -1.3729   38.3223   -0.5092 C   0  0  1  0  0  0  0  0  0  0  0  0
   -2.7569   38.2273   -0.3425 O   0  0  0  0  0  0  0  0  0  0  0  0
    5.2817   33.2205   -3.5075 C   0  0  2  0  0  0  0  0  0  0  0  0
    4.4951   32.5391   -4.4833 O   0  0  0  0  0  0  0  0  0  0  0  0
   -0.7337   37.1972    0.2312 C   0  0  1  0  0  0  0  0  0  0  0  0
    0.6501   37.3041    0.0608 O   0  0  0  0  0  0  0  0  0  0  0  0
    6.4303   32.3006   -3.0433 C   0  0  1  0  0  0  0  0  0  0  0  0
    7.2668   31.9549   -4.1593 O   0  0  0  0  0  0  0  0  0  0  0  0
   -1.0267   37.2824    1.7422 C   0  0  0  0  0  0  0  0  0  0  0  0
   -0.4968   36.1299    2.3873 O   0  0  0  0  0  0  0  0  0  0  0  0
    9.7438   32.0505   -3.3697 N   0  0  0  0  0  0  0  0  0  0  0  0
    4.0285   36.8514   -0.3320 N   0  0  0  0  0  0  0  0  0  0  0  0
  1  2  1  0  0  0  0
  1 39  1  0  0  0  0
  3  4  1  0  0  0  0
  5  6  1  0  0  0  0
  5 40  1  0  0  0  0
  9 10  1  1  0  0  0
  9 14  1  0  0  0  0
  9 35  1  0  0  0  0
 10  1  1  0  0  0  0
 11 16  1  0  0  0  0
 11 28  1  0  0  0  0
 11 26  1  6  0  0  0
 12 17  1  0  0  0  0
 12 34  1  0  0  0  0
 12 13  1  6  0  0  0
 14 15  1  1  0  0  0
 14 19  1  0  0  0  0
 16 13  1  1  0  0  0
 16 21  1  0  0  0  0
 17 18  1  6  0  0  0
 17 23  1  0  0  0  0
 18  8  1  0  0  0  0
 19 20  1  1  0  0  0
 19 25  1  0  0  0  0
 20  5  1  0  0  0  0
 21  3  1  6  0  0  0
 21 22  1  0  0  0  0
 21 27  1  0  0  0  0
 23 24  1  6  0  0  0
 23 29  1  0  0  0  0
 25 26  1  6  0  0  0
 25 31  1  0  0  0  0
 27  7  1  1  0  0  0
 27 28  1  0  0  0  0
 29 30  1  6  0  0  0
 29 33  1  0  0  0  0
 31 32  1  6  0  0  0
 31 35  1  0  0  0  0
 33 34  1  0  0  0  0
 33 37  1  1  0  0  0
 35 36  1  6  0  0  0
 37 38  1  0  0  0  0
M  END
>  <CHROM.1>
-141.25444758,108.13468543,-177.59222276,82.64743162,99.06103320,-119.10548138
99.83241488,-96.23261963,-177.70057155,-91.52205479,174.99208123,2.81165106
34.99357940,-1.88673411,-0.34528319,-0.35546939,0.94713417

>  <Name>
1nta_lig

>  <RI>
0

>  <Rbt.Current_Directory>
/home/itssahil/PROJECTS/Mol_Feturizer/New_Systems/rnas/1nta

>  <Rbt.Executable>
rbdock ($Id: //depot/dev/client3/rdock/2013.1/src/exe/rbdock.cxx#4 $)

>  <Rbt.Library>
libRbt.so (2013.1, Build901 2013/11/27)

>  <Rbt.Parameter_File>
/export/apps/rDock/src/rDock_2013.1_src/data/scripts/dock_solv.prm

>  <Rbt.Receptor>
prm/pocket_docking_3.prm

>  <SCORE>
-29.8324

>  <SCORE.INTER>
-9.52313

>  <SCORE.INTER.CONST>
1

>  <SCORE.INTER.POLAR>
-1.22054

>  <SCORE.INTER.ROT>
11

>  <SCORE.INTER.SOLV>
21.0272

>  <SCORE.INTER.VDW>
-20.2227

>  <SCORE.INTER.norm>
-0.238078

>  <SCORE.INTRA>
-20.3092

>  <SCORE.INTRA.DIHEDRAL>
-3.44393

>  <SCORE.INTRA.DIHEDRAL.0>
19.0336

>  <SCORE.INTRA.POLAR>
0

>  <SCORE.INTRA.POLAR.0>
0

>  <SCORE.INTRA.REPUL>
0

>  <SCORE.INTRA.REPUL.0>
0

>  <SCORE.INTRA.SOLV>
-1.57985

>  <SCORE.INTRA.SOLV.lig_0>
-97.5861

>  <SCORE.INTRA.VDW>
-17.7973

>  <SCORE.INTRA.VDW.0>
11.7669

>  <SCORE.INTRA.norm>
-0.507731

>  <SCORE.RESTR>
0

>  <SCORE.RESTR.CAVITY>
0

>  <SCORE.RESTR.norm>
0

>  <SCORE.SYSTEM>
0

>  <SCORE.SYSTEM.CONST>
0

>  <SCORE.SYSTEM.DIHEDRAL>
0

>  <SCORE.SYSTEM.SOLV>
0

>  <SCORE.SYSTEM.norm>
0

>  <SCORE.heavy>
40

>  <SCORE.norm>
-0.745809

>  <RMSD>
1.646

$$$$
1nta_lig
 OpenBabel11021811403D
libRbt.so/2013.1/901 2013/11/27
 40 42  0  0  0  0  0  0  0  0999 V2000
    9.7193   33.0368   -2.1872 C   0  0  0  0  0  0  0  0  0  0  0  0
   10.3805   32.2977   -2.9975 N   0  0  0  0  0  0  0  0  0  0  0  0
    0.1710   34.4968   -4.8620 C   0  0  0  0  0  0  0  0  0  0  0  0
   -0.4297   35.5027   -5.1697 O   0  0  0  0  0  0  0  0  0  0  0  0
    4.7095   35.9012    0.1270 C   0  0  0  0  0  0  0  0  0  0  0  0
    5.2705   35.8948    1.3082 N   0  0  0  0  0  0  0  0  0  0  0  0
    0.2840   31.4411   -3.5540 C   0  0  0  0  0  0  0  0  0  0  0  0
    1.5094   38.9546   -4.0370 C   0  0  0  0  0  0  0  0  0  0  0  0
    7.3702   33.3050   -2.2889 C   0  0  2  0  0  0  0  0  0  0  0  0
    8.5676   32.5349   -1.7672 N   0  0  0  0  0  0  0  0  0  0  0  0
    2.2029   34.1085   -2.1072 C   0  0  2  0  0  0  0  0  0  0  0  0
    1.1807   36.8055   -1.3627 C   0  0  1  0  0  0  0  0  0  0  0  0
    0.4897   35.6548   -1.7034 O   0  0  0  0  0  0  0  0  0  0  0  0
    6.4453   33.6989   -1.1217 C   0  0  1  0  0  0  0  0  0  0  0  0
    7.1703   34.5578   -0.2943 O   0  0  0  0  0  0  0  0  0  0  0  0
    1.0803   34.9731   -2.6706 C   0  0  2  0  0  0  0  0  0  0  0  0
    0.7153   38.0688   -2.0527 C   0  0  1  0  0  0  0  0  0  0  0  0
    0.7500   37.8587   -3.4587 N   0  0  0  0  0  0  0  0  0  0  0  0
    5.2011   34.4626   -1.5946 C   0  0  2  0  0  0  0  0  0  0  0  0
    4.2850   34.8540   -0.4966 N   0  0  0  0  0  0  0  0  0  0  0  0
    0.3315   33.9859   -3.4553 C   0  0  1  0  0  0  0  0  0  0  0  0
   -0.9268   33.7948   -2.8054 O   0  0  0  0  0  0  0  0  0  0  0  0
   -0.5806   38.3948   -1.6778 C   0  0  2  0  0  0  0  0  0  0  0  0
   -0.8319   39.7076   -2.1120 O   0  0  0  0  0  0  0  0  0  0  0  0
    4.4511   33.5784   -2.5782 C   0  0  1  0  0  0  0  0  0  0  0  0
    3.3040   34.2905   -3.0149 O   0  0  0  0  0  0  0  0  0  0  0  0
    1.0638   32.7136   -3.4329 C   0  0  1  0  0  0  0  0  0  0  0  0
    1.8026   32.7621   -2.2185 O   0  0  0  0  0  0  0  0  0  0  0  0
   -0.7265   38.3241   -0.1804 C   0  0  1  0  0  0  0  0  0  0  0  0
   -2.0813   38.4181    0.1486 O   0  0  0  0  0  0  0  0  0  0  0  0
    5.3679   33.2149   -3.7808 C   0  0  2  0  0  0  0  0  0  0  0  0
    4.6440   32.3947   -4.6965 O   0  0  0  0  0  0  0  0  0  0  0  0
   -0.2142   37.0146    0.3147 C   0  0  1  0  0  0  0  0  0  0  0  0
    1.1420   36.9328   -0.0162 O   0  0  0  0  0  0  0  0  0  0  0  0
    6.5995   32.4415   -3.2649 C   0  0  1  0  0  0  0  0  0  0  0  0
    7.4597   32.0953   -4.3627 O   0  0  0  0  0  0  0  0  0  0  0  0
   -0.3282   36.9117    1.8485 C   0  0  0  0  0  0  0  0  0  0  0  0
   -1.7013   36.8198    2.2106 O   0  0  0  0  0  0  0  0  0  0  0  0
   10.1399   34.1946   -1.8068 N   0  0  0  0  0  0  0  0  0  0  0  0
    4.5274   37.0072   -0.4813 N   0  0  0  0  0  0  0  0  0  0  0  0
  1  2  1  0  0  0  0
  1 39  1  0  0  0  0
  3  4  1  0  0  0  0
  5  6  1  0  0  0  0
  5 40  1  0  0  0  0
  9 10  1  1  0  0  0
  9 14  1  0  0  0  0
  9 35  1  0  0  0  0
 10  1  1  0  0  0  0
 11 16  1  0  0  0  0
 11 28  1  0  0  0  0
 11 26  1  6  0  0  0
 12 17  1  0  0  0  0
 12 34  1  0  0  0  0
 12 13  1  1  0  0  0
 14 15  1  1  0  0  0
 14 19  1  0  0  0  0
 16 13  1  1  0  0  0
 16 21  1  0  0  0  0
 17 18  1  6  0  0  0
 17 23  1  0  0  0  0
 18  8  1  0  0  0  0
 19 20  1  1  0  0  0
 19 25  1  0  0  0  0
 20  5  1  0  0  0  0
 21  3  1  6  0  0  0
 21 22  1  0  0  0  0
 21 27  1  0  0  0  0
 23 24  1  1  0  0  0
 23 29  1  0  0  0  0
 25 26  1  6  0  0  0
 25 31  1  0  0  0  0
 27  7  1  1  0  0  0
 27 28  1  0  0  0  0
 29 30  1  6  0  0  0
 29 33  1  0  0  0  0
 31 32  1  6  0  0  0
 31 35  1  0  0  0  0
 33 34  1  0  0  0  0
 33 37  1  1  0  0  0
 35 36  1  6  0  0  0
 37 38  1  0  0  0  0
M  END
>  <CHROM.1>
-127.95530306,-112.39337596,177.54763648,94.75944449,81.85943527,-127.90012772
79.09584581,-104.53164008,-62.64445016,-85.63754852,69.37188013,2.94685053
35.09843014,-1.94736992,-0.39986063,-0.26062231,0.83501973

>  <Name>
1nta_lig

>  <RI>
0

>  <Rbt.Current_Directory>
/home/itssahil/PROJECTS/Mol_Feturizer/New_Systems/rnas/1nta

>  <Rbt.Executable>
rbdock ($Id: //depot/dev/client3/rdock/2013.1/src/exe/rbdock.cxx#4 $)

>  <Rbt.Library>
libRbt.so (2013.1, Build901 2013/11/27)

>  <Rbt.Parameter_File>
/export/apps/rDock/src/rDock_2013.1_src/data/scripts/dock_solv.prm

>  <Rbt.Receptor>
prm/pocket_docking_3.prm

>  <SCORE>
-32.6286

>  <SCORE.INTER>
-11.9371

>  <SCORE.INTER.CONST>
1

>  <SCORE.INTER.POLAR>
-1.75718

>  <SCORE.INTER.ROT>
11

>  <SCORE.INTER.SOLV>
24.5521

>  <SCORE.INTER.VDW>
-21.2181

>  <SCORE.INTER.norm>
-0.298427

>  <SCORE.INTRA>
-20.6915

>  <SCORE.INTRA.DIHEDRAL>
-5.71055

>  <SCORE.INTRA.DIHEDRAL.0>
19.0336

>  <SCORE.INTRA.POLAR>
0

>  <SCORE.INTRA.POLAR.0>
0

>  <SCORE.INTRA.REPUL>
0.00420746

>  <SCORE.INTRA.REPUL.0>
0

>  <SCORE.INTRA.SOLV>
-1.60939

>  <SCORE.INTRA.SOLV.lig_0>
-97.5861

>  <SCORE.INTRA.VDW>
-17.0526

>  <SCORE.INTRA.VDW.0>
11.7669

>  <SCORE.INTRA.norm>
-0.517288

>  <SCORE.RESTR>
0

>  <SCORE.RESTR.CAVITY>
0

>  <SCORE.RESTR.norm>
0

>  <SCORE.SYSTEM>
0

>  <SCORE.SYSTEM.CONST>
0

>  <SCORE.SYSTEM.DIHEDRAL>
0

>  <SCORE.SYSTEM.SOLV>
0

>  <SCORE.SYSTEM.norm>
0

>  <SCORE.heavy>
40

>  <SCORE.norm>
-0.815715

>  <RMSD>
1.658

$$$$
1nta_lig
 OpenBabel11021811403D
libRbt.so/2013.1/901 2013/11/27
 40 42  0  0  0  0  0  0  0  0999 V2000
    9.6222   32.5988   -2.2093 C   0  0  0  0  0  0  0  0  0  0  0  0
   10.1951   33.5910   -1.6370 N   0  0  0  0  0  0  0  0  0  0  0  0
    0.2380   34.4367   -4.9291 C   0  0  0  0  0  0  0  0  0  0  0  0
   -0.2904   35.4513   -5.3276 O   0  0  0  0  0  0  0  0  0  0  0  0
    4.7554   35.8484    0.1669 C   0  0  0  0  0  0  0  0  0  0  0  0
    4.7585   37.0712   -0.2962 N   0  0  0  0  0  0  0  0  0  0  0  0
    0.3206   31.5029   -3.3648 C   0  0  0  0  0  0  0  0  0  0  0  0
    1.3953   39.0279   -4.0447 C   0  0  0  0  0  0  0  0  0  0  0  0
    7.3126   33.1143   -2.2342 C   0  0  2  0  0  0  0  0  0  0  0  0
    8.4451   32.2535   -1.7094 N   0  0  0  0  0  0  0  0  0  0  0  0
    2.2192   34.2821   -2.1150 C   0  0  2  0  0  0  0  0  0  0  0  0
    1.2324   36.9911   -1.5559 C   0  0  1  0  0  0  0  0  0  0  0  0
    0.5026   35.8583   -1.8749 O   0  0  0  0  0  0  0  0  0  0  0  0
    6.3906   33.5393   -1.0757 C   0  0  1  0  0  0  0  0  0  0  0  0
    7.1526   34.3271   -0.2116 O   0  0  0  0  0  0  0  0  0  0  0  0
    1.1089   35.0965   -2.7700 C   0  0  2  0  0  0  0  0  0  0  0  0
    0.6160   38.3025   -1.9907 C   0  0  1  0  0  0  0  0  0  0  0  0
    0.3618   38.2446   -3.3886 N   0  0  0  0  0  0  0  0  0  0  0  0
    5.2100   34.3956   -1.5530 C   0  0  2  0  0  0  0  0  0  0  0  0
    4.2981   34.8192   -0.4635 N   0  0  0  0  0  0  0  0  0  0  0  0
    0.3720   34.0469   -3.4815 C   0  0  1  0  0  0  0  0  0  0  0  0
   -0.8982   33.9125   -2.8406 O   0  0  0  0  0  0  0  0  0  0  0  0
   -0.5787   38.5382   -1.3249 C   0  0  2  0  0  0  0  0  0  0  0  0
   -0.9335   39.8795   -1.5491 O   0  0  0  0  0  0  0  0  0  0  0  0
    4.4248   33.5881   -2.5744 C   0  0  1  0  0  0  0  0  0  0  0  0
    3.3368   34.3856   -3.0149 O   0  0  0  0  0  0  0  0  0  0  0  0
    1.1009   32.7805   -3.3381 C   0  0  1  0  0  0  0  0  0  0  0  0
    1.8180   32.9313   -2.1190 O   0  0  0  0  0  0  0  0  0  0  0  0
   -0.4104   38.3032    0.1532 C   0  0  1  0  0  0  0  0  0  0  0  0
   -1.6689   38.3111    0.7603 O   0  0  0  0  0  0  0  0  0  0  0  0
    5.3415   33.1949   -3.7677 C   0  0  2  0  0  0  0  0  0  0  0  0
    4.5852   32.4478   -4.7191 O   0  0  0  0  0  0  0  0  0  0  0  0
    0.2122   36.9683    0.3836 C   0  0  1  0  0  0  0  0  0  0  0  0
    1.4715   36.9728   -0.2244 O   0  0  0  0  0  0  0  0  0  0  0  0
    6.5081   32.3287   -3.2480 C   0  0  1  0  0  0  0  0  0  0  0  0
    7.3672   31.9539   -4.3372 O   0  0  0  0  0  0  0  0  0  0  0  0
    0.4199   36.6986    1.8870 C   0  0  0  0  0  0  0  0  0  0  0  0
   -0.8446   36.4805    2.5023 O   0  0  0  0  0  0  0  0  0  0  0  0
   10.1539   31.9719   -3.2025 N   0  0  0  0  0  0  0  0  0  0  0  0
    5.2533   35.6052    1.3155 N   0  0  0  0  0  0  0  0  0  0  0  0
  1  2  1  0  0  0  0
  1 39  1  0  0  0  0
  3  4  1  0  0  0  0
  5  6  1  0  0  0  0
  5 40  1  0  0  0  0
  9 10  1  1  0  0  0
  9 14  1  0  0  0  0
  9 35  1  0  0  0  0
 10  1  1  0  0  0  0
 11 16  1  0  0  0  0
 11 28  1  0  0  0  0
 11 26  1  6  0  0  0
 12 17  1  0  0  0  0
 12 34  1  0  0  0  0
 12 13  1  1  0  0  0
 14 15  1  1  0  0  0
 14 19  1  0  0  0  0
 16 13  1  1  0  0  0
 16 21  1  0  0  0  0
 17 18  1  6  0  0  0
 17 23  1  0  0  0  0
 18  8  1  0  0  0  0
 19 20  1  1  0  0  0
 19 25  1  0  0  0  0
 20  5  1  0  0  0  0
 21  3  1  6  0  0  0
 21 22  1  0  0  0  0
 21 27  1  0  0  0  0
 23 24  1  1  0  0  0
 23 29  1  0  0  0  0
 25 26  1  6  0  0  0
 25 31  1  0  0  0  0
 27  7  1  1  0  0  0
 27 28  1  0  0  0  0
 29 30  1  1  0  0  0
 29 33  1  0  0  0  0
 31 32  1  6  0  0  0
 31 35  1  0  0  0  0
 33 34  1  0  0  0  0
 33 37  1  1  0  0  0
 35 36  1  6  0  0  0
 37 38  1  0  0  0  0
M  END
>  <CHROM.1>
-134.86989391,81.93184446,-175.79942160,113.05477868,77.91056042,-103.59658016
81.29934388,74.29493928,-58.32341094,-84.09651752,70.98493229,3.00937827
35.06533371,-1.88717279,-0.42030245,-0.32067953,0.88889049

>  <Name>
1nta_lig

>  <RI>
0

>  <Rbt.Current_Directory>
/home/itssahil/PROJECTS/Mol_Feturizer/New_Systems/rnas/1nta

>  <Rbt.Executable>
rbdock ($Id: //depot/dev/client3/rdock/2013.1/src/exe/rbdock.cxx#4 $)

>  <Rbt.Library>
libRbt.so (2013.1, Build901 2013/11/27)

>  <Rbt.Parameter_File>
/export/apps/rDock/src/rDock_2013.1_src/data/scripts/dock_solv.prm

>  <Rbt.Receptor>
prm/pocket_docking_3.prm

>  <SCORE>
-30.9416

>  <SCORE.INTER>
-10.8705

>  <SCORE.INTER.CONST>
1

>  <SCORE.INTER.POLAR>
-1.3618

>  <SCORE.INTER.ROT>
11

>  <SCORE.INTER.SOLV>
23.3325

>  <SCORE.INTER.VDW>
-21.4185

>  <SCORE.INTER.norm>
-0.271764

>  <SCORE.INTRA>
-20.071

>  <SCORE.INTRA.DIHEDRAL>
-3.74482

>  <SCORE.INTRA.DIHEDRAL.0>
19.0336

>  <SCORE.INTRA.POLAR>
0

>  <SCORE.INTRA.POLAR.0>
0

>  <SCORE.INTRA.REPUL>
0

>  <SCORE.INTRA.REPUL.0>
0

>  <SCORE.INTRA.SOLV>
-2.2914

>  <SCORE.INTRA.SOLV.lig_0>
-97.5861

>  <SCORE.INTRA.VDW>
-17.0529

>  <SCORE.INTRA.VDW.0>
11.7669

>  <SCORE.INTRA.norm>
-0.501776

>  <SCORE.RESTR>
0

>  <SCORE.RESTR.CAVITY>
0

>  <SCORE.RESTR.norm>
0

>  <SCORE.SYSTEM>
0

>  <SCORE.SYSTEM.CONST>
0

>  <SCORE.SYSTEM.DIHEDRAL>
0

>  <SCORE.SYSTEM.SOLV>
0

>  <SCORE.SYSTEM.norm>
0

>  <SCORE.heavy>
40

>  <SCORE.norm>
-0.773539

>  <RMSD>
1.693

$$$$
1nta_lig
 OpenBabel11021811403D
libRbt.so/2013.1/901 2013/11/27
 40 42  0  0  0  0  0  0  0  0999 V2000
    8.8034   32.6579   -1.6138 C   0  0  0  0  0  0  0  0  0  0  0  0
    9.4155   33.2488   -0.6566 N   0  0  0  0  0  0  0  0  0  0  0  0
    0.6836   38.2059   -2.5940 C   0  0  0  0  0  0  0  0  0  0  0  0
    0.2996   38.8879   -3.5185 O   0  0  0  0  0  0  0  0  0  0  0  0
    3.8724   36.6150    0.9201 C   0  0  0  0  0  0  0  0  0  0  0  0
    2.6588   36.9333    1.2883 N   0  0  0  0  0  0  0  0  0  0  0  0
    0.3763   35.6243   -4.6682 C   0  0  0  0  0  0  0  0  0  0  0  0
   -1.0279   40.1369   -0.5710 C   0  0  0  0  0  0  0  0  0  0  0  0
    6.5765   33.4553   -1.5402 C   0  0  2  0  0  0  0  0  0  0  0  0
    7.5512   32.3079   -1.3606 N   0  0  0  0  0  0  0  0  0  0  0  0
    1.5767   35.1320   -1.3205 C   0  0  2  0  0  0  0  0  0  0  0  0
   -0.3223   37.0738    0.8357 C   0  0  1  0  0  0  0  0  0  0  0  0
   -0.1982   36.0794   -0.1201 O   0  0  0  0  0  0  0  0  0  0  0  0
    5.9867   33.8666   -0.1779 C   0  0  1  0  0  0  0  0  0  0  0  0
    7.0447   34.3316    0.6047 O   0  0  0  0  0  0  0  0  0  0  0  0
    0.7192   36.3592   -1.0307 C   0  0  2  0  0  0  0  0  0  0  0  0
   -1.3601   38.1333    0.5372 C   0  0  1  0  0  0  0  0  0  0  0  0
   -1.0833   38.6945   -0.7398 N   0  0  0  0  0  0  0  0  0  0  0  0
    4.9729   35.0118   -0.3022 C   0  0  2  0  0  0  0  0  0  0  0  0
    4.3809   35.4309    0.9908 N   0  0  0  0  0  0  0  0  0  0  0  0
    0.3300   36.7574   -2.3874 C   0  0  1  0  0  0  0  0  0  0  0  0
   -1.0743   36.5234   -2.5110 O   0  0  0  0  0  0  0  0  0  0  0  0
   -2.6378   37.5918    0.5241 C   0  0  2  0  0  0  0  0  0  0  0  0
   -3.5525   38.6586    0.5394 O   0  0  0  0  0  0  0  0  0  0  0  0
    3.8616   34.5580   -1.2354 C   0  0  1  0  0  0  0  0  0  0  0  0
    2.9291   35.6216   -1.3496 O   0  0  0  0  0  0  0  0  0  0  0  0
    1.0306   35.8976   -3.3495 C   0  0  1  0  0  0  0  0  0  0  0  0
    1.2736   34.6973   -2.6262 O   0  0  0  0  0  0  0  0  0  0  0  0
   -2.8533   36.7274    1.7385 C   0  0  1  0  0  0  0  0  0  0  0  0
   -4.0425   36.0110    1.5805 O   0  0  0  0  0  0  0  0  0  0  0  0
    4.4477   34.1841   -2.6266 C   0  0  2  0  0  0  0  0  0  0  0  0
    3.3898   33.7714   -3.4902 O   0  0  0  0  0  0  0  0  0  0  0  0
   -1.7331   35.7524    1.8684 C   0  0  1  0  0  0  0  0  0  0  0  0
   -0.5495   36.4794    2.0297 O   0  0  0  0  0  0  0  0  0  0  0  0
    5.4530   33.0254   -2.4595 C   0  0  1  0  0  0  0  0  0  0  0  0
    6.0057   32.6641   -3.7357 O   0  0  0  0  0  0  0  0  0  0  0  0
   -1.9075   34.8609    3.1139 C   0  0  0  0  0  0  0  0  0  0  0  0
   -1.9895   35.6848    4.2713 O   0  0  0  0  0  0  0  0  0  0  0  0
    9.3657   32.4135   -2.7480 N   0  0  0  0  0  0  0  0  0  0  0  0
    4.6386   37.5070    0.4264 N   0  0  0  0  0  0  0  0  0  0  0  0
  1  2  1  0  0  0  0
  1 39  1  0  0  0  0
  3  4  1  0  0  0  0
  5  6  1  0  0  0  0
  5 40  1  0  0  0  0
  9 10  1  1  0  0  0
  9 14  1  0  0  0  0
  9 35  1  0  0  0  0
 10  1  1  0  0  0  0
 11 16  1  0  0  0  0
 11 28  1  0  0  0  0
 11 26  1  6  0  0  0
 12 17  1  0  0  0  0
 12 34  1  0  0  0  0
 12 13  1  6  0  0  0
 14 15  1  1  0  0  0
 14 19  1  0  0  0  0
 16 13  1  1  0  0  0
 16 21  1  0  0  0  0
 17 18  1  6  0  0  0
 17 23  1  0  0  0  0
 18  8  1  0  0  0  0
 19 20  1  1  0  0  0
 19 25  1  0  0  0  0
 20  5  1  0  0  0  0
 21  3  1  6  0  0  0
 21 22  1  0  0  0  0
 21 27  1  0  0  0  0
 23 24  1  1  0  0  0
 23 29  1  0  0  0  0
 25 26  1  6  0  0  0
 25 31  1  0  0  0  0
 27  7  1  6  0  0  0
 27 28  1  0  0  0  0
 29 30  1  6  0  0  0
 29 33  1  0  0  0  0
 31 32  1  6  0  0  0
 31 35  1  0  0  0  0
 33 34  1  0  0  0  0
 33 37  1  1  0  0  0
 35 36  1  6  0  0  0
 37 38  1  0  0  0  0
M  END
>  <CHROM.1>
-112.24877660,81.76993915,163.56476740,91.84622697,136.25227172,-127.54361788
160.28654014,128.45296899,-167.36521926,-138.58338003,-57.65882554,2.01704677
35.70623543,-0.69091624,-0.18064651,-0.42929086,1.69102614

>  <Name>
1nta_lig

>  <RI>
0

>  <Rbt.Current_Directory>
/home/itssahil/PROJECTS/Mol_Feturizer/New_Systems/rnas/1nta

>  <Rbt.Executable>
rbdock ($Id: //depot/dev/client3/rdock/2013.1/src/exe/rbdock.cxx#4 $)

>  <Rbt.Library>
libRbt.so (2013.1, Build901 2013/11/27)

>  <Rbt.Parameter_File>
/export/apps/rDock/src/rDock_2013.1_src/data/scripts/dock_solv.prm

>  <Rbt.Receptor>
prm/pocket_docking_2.prm

>  <SCORE>
-8.14757

>  <SCORE.INTER>
2.48939

>  <SCORE.INTER.CONST>
1

>  <SCORE.INTER.POLAR>
0

>  <SCORE.INTER.ROT>
11

>  <SCORE.INTER.SOLV>
16.4493

>  <SCORE.INTER.VDW>
-14.7568

>  <SCORE.INTER.norm>
0.0622348

>  <SCORE.INTRA>
-12.5172

>  <SCORE.INTRA.DIHEDRAL>
2.04669

>  <SCORE.INTRA.DIHEDRAL.0>
19.0336

>  <SCORE.INTRA.POLAR>
0

>  <SCORE.INTRA.POLAR.0>
0

>  <SCORE.INTRA.REPUL>
0

>  <SCORE.INTRA.REPUL.0>
0

>  <SCORE.INTRA.SOLV>
2.25192

>  <SCORE.INTRA.SOLV.lig_0>
-97.5861

>  <SCORE.INTRA.VDW>
-14.6665

>  <SCORE.INTRA.VDW.0>
11.7669

>  <SCORE.INTRA.norm>
-0.312929

>  <SCORE.RESTR>
1.8802

>  <SCORE.RESTR.CAVITY>
1.8802

>  <SCORE.RESTR.norm>
0.0470051

>  <SCORE.SYSTEM>
0

>  <SCORE.SYSTEM.CONST>
0

>  <SCORE.SYSTEM.DIHEDRAL>
0

>  <SCORE.SYSTEM.SOLV>
0

>  <SCORE.SYSTEM.norm>
0

>  <SCORE.heavy>
40

>  <SCORE.norm>
-0.203689

>  <RMSD>
1.815

$$$$
1nta_lig
 OpenBabel11021811403D
libRbt.so/2013.1/901 2013/11/27
 40 42  0  0  0  0  0  0  0  0999 V2000
    9.5051   33.2259   -1.4403 C   0  0  0  0  0  0  0  0  0  0  0  0
   10.2600   32.4636   -2.1397 N   0  0  0  0  0  0  0  0  0  0  0  0
    0.2634   34.2910   -5.1722 C   0  0  0  0  0  0  0  0  0  0  0  0
   -0.2937   33.6184   -6.0116 O   0  0  0  0  0  0  0  0  0  0  0  0
    4.1651   36.0531    0.2063 C   0  0  0  0  0  0  0  0  0  0  0  0
    4.6990   36.0937    1.3992 N   0  0  0  0  0  0  0  0  0  0  0  0
    0.3039   31.4331   -3.4715 C   0  0  0  0  0  0  0  0  0  0  0  0
    1.2471   38.6458   -5.1269 C   0  0  0  0  0  0  0  0  0  0  0  0
    7.1819   33.4812   -1.8116 C   0  0  2  0  0  0  0  0  0  0  0  0
    8.3144   32.7297   -1.1395 N   0  0  0  0  0  0  0  0  0  0  0  0
    2.0555   34.3108   -2.2301 C   0  0  2  0  0  0  0  0  0  0  0  0
    0.8542   37.1148   -2.0585 C   0  0  1  0  0  0  0  0  0  0  0  0
    0.2936   35.8541   -2.1763 O   0  0  0  0  0  0  0  0  0  0  0  0
    6.1068   33.8563   -0.7740 C   0  0  1  0  0  0  0  0  0  0  0  0
    6.7038   34.7248    0.1411 O   0  0  0  0  0  0  0  0  0  0  0  0
    0.9742   35.0678   -2.9935 C   0  0  2  0  0  0  0  0  0  0  0  0
    0.3561   38.1408   -3.0524 C   0  0  1  0  0  0  0  0  0  0  0  0
    0.5407   37.6288   -4.3661 N   0  0  0  0  0  0  0  0  0  0  0  0
    4.9218   34.6005   -1.4039 C   0  0  2  0  0  0  0  0  0  0  0  0
    3.8645   34.9734   -0.4338 N   0  0  0  0  0  0  0  0  0  0  0  0
    0.3089   33.9698   -3.7024 C   0  0  1  0  0  0  0  0  0  0  0  0
   -0.9980   33.8335   -3.1407 O   0  0  0  0  0  0  0  0  0  0  0  0
   -0.9915   38.4106   -2.8592 C   0  0  2  0  0  0  0  0  0  0  0  0
   -1.3055   39.5626   -3.6004 O   0  0  0  0  0  0  0  0  0  0  0  0
    4.3208   33.7068   -2.4772 C   0  0  1  0  0  0  0  0  0  0  0  0
    3.2282   34.4009   -3.0585 O   0  0  0  0  0  0  0  0  0  0  0  0
    1.0534   32.7292   -3.4529 C   0  0  1  0  0  0  0  0  0  0  0  0
    1.6842   32.9519   -2.1978 O   0  0  0  0  0  0  0  0  0  0  0  0
   -1.2725   38.6593   -1.4005 C   0  0  1  0  0  0  0  0  0  0  0  0
   -2.6555   38.6880   -1.2032 O   0  0  0  0  0  0  0  0  0  0  0  0
    5.3919   33.3621   -3.5508 C   0  0  2  0  0  0  0  0  0  0  0  0
    4.8069   32.5325   -4.5533 O   0  0  0  0  0  0  0  0  0  0  0  0
   -0.7056   37.5499   -0.5818 C   0  0  1  0  0  0  0  0  0  0  0  0
    0.6780   37.5327   -0.7838 O   0  0  0  0  0  0  0  0  0  0  0  0
    6.5591   32.6079   -2.8800 C   0  0  1  0  0  0  0  0  0  0  0  0
    7.5602   32.2793   -3.8571 O   0  0  0  0  0  0  0  0  0  0  0  0
   -0.9557   37.7787    0.9220 C   0  0  0  0  0  0  0  0  0  0  0  0
   -2.3415   37.6085    1.1971 O   0  0  0  0  0  0  0  0  0  0  0  0
    9.8732   34.4005   -1.0566 N   0  0  0  0  0  0  0  0  0  0  0  0
    3.8819   37.1398   -0.3980 N   0  0  0  0  0  0  0  0  0  0  0  0
  1  2  1  0  0  0  0
  1 39  1  0  0  0  0
  3  4  1  0  0  0  0
  5  6  1  0  0  0  0
  5 40  1  0  0  0  0
  9 10  1  1  0  0  0
  9 14  1  0  0  0  0
  9 35  1  0  0  0  0
 10  1  1  0  0  0  0
 11 16  1  0  0  0  0
 11 28  1  0  0  0  0
 11 26  1  6  0  0  0
 12 17  1  0  0  0  0
 12 34  1  0  0  0  0
 12 13  1  1  0  0  0
 14 15  1  1  0  0  0
 14 19  1  0  0  0  0
 16 13  1  1  0  0  0
 16 21  1  0  0  0  0
 17 18  1  6  0  0  0
 17 23  1  0  0  0  0
 18  8  1  0  0  0  0
 19 20  1  1  0  0  0
 19 25  1  0  0  0  0
 20  5  1  0  0  0  0
 21  3  1  6  0  0  0
 21 22  1  0  0  0  0
 21 27  1  0  0  0  0
 23 24  1  6  0  0  0
 23 29  1  0  0  0  0
 25 26  1  6  0  0  0
 25 31  1  0  0  0  0
 27  7  1  1  0  0  0
 27 28  1  0  0  0  0
 29 30  1  6  0  0  0
 29 33  1  0  0  0  0
 31 32  1  6  0  0  0
 31 35  1  0  0  0  0
 33 34  1  0  0  0  0
 33 37  1  1  0  0  0
 35 36  1  6  0  0  0
 37 38  1  0  0  0  0
M  END
>  <CHROM.1>
-129.97432455,-113.14221329,-178.76611810,90.11418759,89.14289875,-128.54059260
81.42471048,-97.69905889,-175.33530612,-79.75357696,70.42599866,2.69593339
35.20881536,-2.18425225,-0.28283784,-0.35420973,0.80465742

>  <Name>
1nta_lig

>  <RI>
0

>  <Rbt.Current_Directory>
/home/itssahil/PROJECTS/Mol_Feturizer/New_Systems/rnas/1nta

>  <Rbt.Executable>
rbdock ($Id: //depot/dev/client3/rdock/2013.1/src/exe/rbdock.cxx#4 $)

>  <Rbt.Library>
libRbt.so (2013.1, Build901 2013/11/27)

>  <Rbt.Parameter_File>
/export/apps/rDock/src/rDock_2013.1_src/data/scripts/dock_solv.prm

>  <Rbt.Receptor>
prm/pocket_docking_4.prm

>  <SCORE>
-30.6705

>  <SCORE.INTER>
-10.4472

>  <SCORE.INTER.CONST>
1

>  <SCORE.INTER.POLAR>
-1.09702

>  <SCORE.INTER.ROT>
11

>  <SCORE.INTER.SOLV>
22.5846

>  <SCORE.INTER.VDW>
-21.7696

>  <SCORE.INTER.norm>
-0.26118

>  <SCORE.INTRA>
-20.2233

>  <SCORE.INTRA.DIHEDRAL>
-6.09484

>  <SCORE.INTRA.DIHEDRAL.0>
19.0336

>  <SCORE.INTRA.POLAR>
0

>  <SCORE.INTRA.POLAR.0>
0

>  <SCORE.INTRA.REPUL>
0

>  <SCORE.INTRA.REPUL.0>
0

>  <SCORE.INTRA.SOLV>
-1.91054

>  <SCORE.INTRA.SOLV.lig_0>
-97.5861

>  <SCORE.INTRA.VDW>
-16.2206

>  <SCORE.INTRA.VDW.0>
11.7669

>  <SCORE.INTRA.norm>
-0.505582

>  <SCORE.RESTR>
0

>  <SCORE.RESTR.CAVITY>
0

>  <SCORE.RESTR.norm>
0

>  <SCORE.SYSTEM>
0

>  <SCORE.SYSTEM.CONST>
0

>  <SCORE.SYSTEM.DIHEDRAL>
0

>  <SCORE.SYSTEM.SOLV>
0

>  <SCORE.SYSTEM.norm>
0

>  <SCORE.heavy>
40

>  <SCORE.norm>
-0.766762

>  <RMSD>
1.863

$$$$
1nta_lig
 OpenBabel11021811403D
libRbt.so/2013.1/901 2013/11/27
 40 42  0  0  0  0  0  0  0  0999 V2000
    9.3115   33.4910   -0.9395 C   0  0  0  0  0  0  0  0  0  0  0  0
    9.8666   32.7062   -1.7856 N   0  0  0  0  0  0  0  0  0  0  0  0
    0.0253   34.4824   -4.6089 C   0  0  0  0  0  0  0  0  0  0  0  0
    0.6330   35.5119   -4.8041 O   0  0  0  0  0  0  0  0  0  0  0  0
    3.5191   35.8421    0.6633 C   0  0  0  0  0  0  0  0  0  0  0  0
    3.6701   36.9663    0.0129 N   0  0  0  0  0  0  0  0  0  0  0  0
    0.0981   31.2262   -3.9355 C   0  0  0  0  0  0  0  0  0  0  0  0
   -1.6563   37.3585   -4.0879 C   0  0  0  0  0  0  0  0  0  0  0  0
    6.9577   33.6247   -1.1460 C   0  0  2  0  0  0  0  0  0  0  0  0
    8.1680   33.0612   -0.4272 N   0  0  0  0  0  0  0  0  0  0  0  0
    1.7588   33.5653   -1.7765 C   0  0  2  0  0  0  0  0  0  0  0  0
   -0.1898   36.3548   -1.3081 C   0  0  1  0  0  0  0  0  0  0  0  0
   -0.0388   34.9789   -1.2670 O   0  0  0  0  0  0  0  0  0  0  0  0
    5.8163   33.8763   -0.1426 C   0  0  1  0  0  0  0  0  0  0  0  0
    6.2636   34.8479    0.7540 O   0  0  0  0  0  0  0  0  0  0  0  0
    0.6755   34.5140   -2.2783 C   0  0  2  0  0  0  0  0  0  0  0  0
   -1.5201   36.8449   -1.8362 C   0  0  1  0  0  0  0  0  0  0  0  0
   -1.7370   36.2762   -3.1213 N   0  0  0  0  0  0  0  0  0  0  0  0
    4.5540   34.4265   -0.8200 C   0  0  2  0  0  0  0  0  0  0  0  0
    3.4321   34.6763    0.1164 N   0  0  0  0  0  0  0  0  0  0  0  0
    0.0495   33.6985   -3.3242 C   0  0  1  0  0  0  0  0  0  0  0  0
   -1.2647   33.3658   -2.8720 O   0  0  0  0  0  0  0  0  0  0  0  0
   -2.5597   36.4706   -0.9965 C   0  0  2  0  0  0  0  0  0  0  0  0
   -3.6994   37.1982   -1.3796 O   0  0  0  0  0  0  0  0  0  0  0  0
    4.1100   33.4244   -1.8739 C   0  0  1  0  0  0  0  0  0  0  0  0
    2.9450   33.9396   -2.4993 O   0  0  0  0  0  0  0  0  0  0  0  0
    0.8172   32.4561   -3.4747 C   0  0  1  0  0  0  0  0  0  0  0  0
    1.4182   32.2652   -2.1998 O   0  0  0  0  0  0  0  0  0  0  0  0
   -2.2178   36.7894    0.4353 C   0  0  1  0  0  0  0  0  0  0  0  0
   -3.1632   36.1903    1.2719 O   0  0  0  0  0  0  0  0  0  0  0  0
    5.2441   33.2013   -2.9144 C   0  0  2  0  0  0  0  0  0  0  0  0
    4.8052   32.2672   -3.8994 O   0  0  0  0  0  0  0  0  0  0  0  0
   -0.8764   36.2312    0.7694 C   0  0  1  0  0  0  0  0  0  0  0  0
    0.0616   36.8398   -0.0703 O   0  0  0  0  0  0  0  0  0  0  0  0
    6.4891   32.6400   -2.1961 C   0  0  1  0  0  0  0  0  0  0  0  0
    7.5494   32.4257   -3.1421 O   0  0  0  0  0  0  0  0  0  0  0  0
   -0.4812   36.5547    2.2239 C   0  0  0  0  0  0  0  0  0  0  0  0
   -1.4115   35.9415    3.1090 O   0  0  0  0  0  0  0  0  0  0  0  0
    9.8247   34.6266   -0.6091 N   0  0  0  0  0  0  0  0  0  0  0  0
    3.4723   35.8494    1.9378 N   0  0  0  0  0  0  0  0  0  0  0  0
  1  2  1  0  0  0  0
  1 39  1  0  0  0  0
  3  4  1  0  0  0  0
  5  6  1  0  0  0  0
  5 40  1  0  0  0  0
  9 10  1  1  0  0  0
  9 14  1  0  0  0  0
  9 35  1  0  0  0  0
 10  1  1  0  0  0  0
 11 16  1  0  0  0  0
 11 28  1  0  0  0  0
 11 26  1  6  0  0  0
 12 17  1  0  0  0  0
 12 34  1  0  0  0  0
 12 13  1  1  0  0  0
 14 15  1  1  0  0  0
 14 19  1  0  0  0  0
 16 13  1  1  0  0  0
 16 21  1  0  0  0  0
 17 18  1  6  0  0  0
 17 23  1  0  0  0  0
 18  8  1  0  0  0  0
 19 20  1  1  0  0  0
 19 25  1  0  0  0  0
 20  5  1  0  0  0  0
 21  3  1  6  0  0  0
 21 22  1  0  0  0  0
 21 27  1  0  0  0  0
 23 24  1  6  0  0  0
 23 29  1  0  0  0  0
 25 26  1  6  0  0  0
 25 31  1  0  0  0  0
 27  7  1  1  0  0  0
 27 28  1  0  0  0  0
 29 30  1  1  0  0  0
 29 33  1  0  0  0  0
 31 32  1  6  0  0  0
 31 35  1  0  0  0  0
 33 34  1  0  0  0  0
 33 37  1  1  0  0  0
 35 36  1  6  0  0  0
 37 38  1  0  0  0  0
M  END
>  <CHROM.1>
-144.57208613,-96.53048797,162.83950125,100.84100120,131.28917381,-111.39268274
85.43051901,52.04546556,12.03554062,-87.00248802,62.43409749,2.20887309,34.67795625
-1.36944615,-0.16534796,-0.23247156,1.06886321

>  <Name>
1nta_lig

>  <RI>
0

>  <Rbt.Current_Directory>
/home/itssahil/PROJECTS/Mol_Feturizer/New_Systems/rnas/1nta

>  <Rbt.Executable>
rbdock ($Id: //depot/dev/client3/rdock/2013.1/src/exe/rbdock.cxx#4 $)

>  <Rbt.Library>
libRbt.so (2013.1, Build901 2013/11/27)

>  <Rbt.Parameter_File>
/export/apps/rDock/src/rDock_2013.1_src/data/scripts/dock_solv.prm

>  <Rbt.Receptor>
prm/pocket_docking_2.prm

>  <SCORE>
-17.9028

>  <SCORE.INTER>
-5.63979

>  <SCORE.INTER.CONST>
1

>  <SCORE.INTER.POLAR>
-0.870061

>  <SCORE.INTER.ROT>
11

>  <SCORE.INTER.SOLV>
22.4711

>  <SCORE.INTER.VDW>
-19.2833

>  <SCORE.INTER.norm>
-0.140995

>  <SCORE.INTRA>
-14.5034

>  <SCORE.INTRA.DIHEDRAL>
5.786

>  <SCORE.INTRA.DIHEDRAL.0>
19.0336

>  <SCORE.INTRA.POLAR>
0

>  <SCORE.INTRA.POLAR.0>
0

>  <SCORE.INTRA.REPUL>
0

>  <SCORE.INTRA.REPUL.0>
0

>  <SCORE.INTRA.SOLV>
-0.574911

>  <SCORE.INTRA.SOLV.lig_0>
-97.5861

>  <SCORE.INTRA.VDW>
-17.109

>  <SCORE.INTRA.VDW.0>
11.7669

>  <SCORE.INTRA.norm>
-0.362586

>  <SCORE.RESTR>
2.24045

>  <SCORE.RESTR.CAVITY>
2.24045

>  <SCORE.RESTR.norm>
0.0560112

>  <SCORE.SYSTEM>
0

>  <SCORE.SYSTEM.CONST>
0

>  <SCORE.SYSTEM.DIHEDRAL>
0

>  <SCORE.SYSTEM.SOLV>
0

>  <SCORE.SYSTEM.norm>
0

>  <SCORE.heavy>
40

>  <SCORE.norm>
-0.44757

>  <RMSD>
1.905

$$$$
1nta_lig
 OpenBabel11021811403D
libRbt.so/2013.1/901 2013/11/27
 40 42  0  0  0  0  0  0  0  0999 V2000
    9.8164   33.1153   -0.8751 C   0  0  0  0  0  0  0  0  0  0  0  0
    9.9632   34.2848   -1.3760 N   0  0  0  0  0  0  0  0  0  0  0  0
    0.5298   35.2181   -3.9090 C   0  0  0  0  0  0  0  0  0  0  0  0
   -0.0274   35.1736   -4.9837 O   0  0  0  0  0  0  0  0  0  0  0  0
    4.6399   35.6650    0.7971 C   0  0  0  0  0  0  0  0  0  0  0  0
    5.2196   36.6374    0.1428 N   0  0  0  0  0  0  0  0  0  0  0  0
    0.7745   31.9228   -4.2863 C   0  0  0  0  0  0  0  0  0  0  0  0
    2.2051   38.1891   -0.7817 C   0  0  0  0  0  0  0  0  0  0  0  0
    7.6169   33.1943   -1.7448 C   0  0  2  0  0  0  0  0  0  0  0  0
    8.8528   32.3816   -1.4114 N   0  0  0  0  0  0  0  0  0  0  0  0
    2.3477   33.5543   -1.5017 C   0  0  2  0  0  0  0  0  0  0  0  0
    1.1051   35.4025    0.4013 C   0  0  1  0  0  0  0  0  0  0  0  0
    0.4894   34.6430   -0.5793 O   0  0  0  0  0  0  0  0  0  0  0  0
    6.7663   33.4072   -0.4783 C   0  0  1  0  0  0  0  0  0  0  0  0
    7.5357   34.1571    0.4126 O   0  0  0  0  0  0  0  0  0  0  0  0
    1.2113   34.5546   -1.6840 C   0  0  2  0  0  0  0  0  0  0  0  0
    0.7307   36.8682    0.4159 C   0  0  1  0  0  0  0  0  0  0  0  0
    0.9790   37.4142   -0.8735 N   0  0  0  0  0  0  0  0  0  0  0  0
    5.4870   34.2059   -0.7615 C   0  0  2  0  0  0  0  0  0  0  0  0
    4.6407   34.4259    0.4358 N   0  0  0  0  0  0  0  0  0  0  0  0
    0.6116   34.0748   -2.9334 C   0  0  1  0  0  0  0  0  0  0  0  0
   -0.6776   33.5500   -2.6102 O   0  0  0  0  0  0  0  0  0  0  0  0
   -0.6112   37.0383    0.7264 C   0  0  2  0  0  0  0  0  0  0  0  0
   -0.8130   38.3996    1.0112 O   0  0  0  0  0  0  0  0  0  0  0  0
    4.6828   33.4519   -1.8086 C   0  0  1  0  0  0  0  0  0  0  0  0
    3.5031   34.1964   -2.0692 O   0  0  0  0  0  0  0  0  0  0  0  0
    1.4380   32.9831   -3.4632 C   0  0  1  0  0  0  0  0  0  0  0  0
    2.0662   32.4354   -2.3106 O   0  0  0  0  0  0  0  0  0  0  0  0
   -0.9791   36.2128    1.9313 C   0  0  1  0  0  0  0  0  0  0  0  0
   -2.3691   36.2126    2.0741 O   0  0  0  0  0  0  0  0  0  0  0  0
    5.5227   33.2739   -3.1054 C   0  0  2  0  0  0  0  0  0  0  0  0
    4.7484   32.5744   -4.0782 O   0  0  0  0  0  0  0  0  0  0  0  0
   -0.5285   34.8054    1.7346 C   0  0  1  0  0  0  0  0  0  0  0  0
    0.8630   34.8169    1.5967 O   0  0  0  0  0  0  0  0  0  0  0  0
    6.7924   32.4595   -2.7803 C   0  0  1  0  0  0  0  0  0  0  0  0
    7.5825   32.2831   -3.9675 O   0  0  0  0  0  0  0  0  0  0  0  0
   -0.8698   33.9315    2.9578 C   0  0  0  0  0  0  0  0  0  0  0  0
   -0.4194   32.6021    2.7234 O   0  0  0  0  0  0  0  0  0  0  0  0
   10.5515   32.6789    0.0900 N   0  0  0  0  0  0  0  0  0  0  0  0
    4.0357   35.9112    1.8929 N   0  0  0  0  0  0  0  0  0  0  0  0
  1  2  1  0  0  0  0
  1 39  1  0  0  0  0
  3  4  1  0  0  0  0
  5  6  1  0  0  0  0
  5 40  1  0  0  0  0
  9 10  1  1  0  0  0
  9 14  1  0  0  0  0
  9 35  1  0  0  0  0
 10  1  1  0  0  0  0
 11 16  1  0  0  0  0
 11 28  1  0  0  0  0
 11 26  1  6  0  0  0
 12 17  1  0  0  0  0
 12 34  1  0  0  0  0
 12 13  1  6  0  0  0
 14 15  1  1  0  0  0
 14 19  1  0  0  0  0
 16 13  1  1  0  0  0
 16 21  1  0  0  0  0
 17 18  1  6  0  0  0
 17 23  1  0  0  0  0
 18  8  1  0  0  0  0
 19 20  1  1  0  0  0
 19 25  1  0  0  0  0
 20  5  1  0  0  0  0
 21  3  1  6  0  0  0
 21 22  1  0  0  0  0
 21 27  1  0  0  0  0
 23 24  1  1  0  0  0
 23 29  1  0  0  0  0
 25 26  1  6  0  0  0
 25 31  1  0  0  0  0
 27  7  1  1  0  0  0
 27 28  1  0  0  0  0
 29 30  1  6  0  0  0
 29 33  1  0  0  0  0
 31 32  1  6  0  0  0
 31 35  1  0  0  0  0
 33 34  1  0  0  0  0
 33 37  1  1  0  0  0
 35 36  1  6  0  0  0
 37 38  1  0  0  0  0
M  END
>  <CHROM.1>
-80.70481478,-38.92732051,172.08750133,92.94364464,77.20192486,-103.67535991
110.62767192,5.07302554,-172.90004534,-107.30130139,-179.91464267,3.08951565
34.45456472,-0.88559234,-0.31102483,-0.15993902,1.13340696

>  <Name>
1nta_lig

>  <RI>
0

>  <Rbt.Current_Directory>
/home/itssahil/PROJECTS/Mol_Feturizer/New_Systems/rnas/1nta

>  <Rbt.Executable>
rbdock ($Id: //depot/dev/client3/rdock/2013.1/src/exe/rbdock.cxx#4 $)

>  <Rbt.Library>
libRbt.so (2013.1, Build901 2013/11/27)

>  <Rbt.Parameter_File>
/export/apps/rDock/src/rDock_2013.1_src/data/scripts/dock_solv.prm

>  <Rbt.Receptor>
prm/pocket_docking_5.prm

>  <SCORE>
-26.666

>  <SCORE.INTER>
-8.1702

>  <SCORE.INTER.CONST>
1

>  <SCORE.INTER.POLAR>
-0.789533

>  <SCORE.INTER.ROT>
11

>  <SCORE.INTER.SOLV>
26.8851

>  <SCORE.INTER.VDW>
-22.71

>  <SCORE.INTER.norm>
-0.204255

>  <SCORE.INTRA>
-18.5023

>  <SCORE.INTRA.DIHEDRAL>
-2.97428

>  <SCORE.INTRA.DIHEDRAL.0>
19.0336

>  <SCORE.INTRA.POLAR>
0

>  <SCORE.INTRA.POLAR.0>
0

>  <SCORE.INTRA.REPUL>
0.0015742

>  <SCORE.INTRA.REPUL.0>
0

>  <SCORE.INTRA.SOLV>
-0.733508

>  <SCORE.INTRA.SOLV.lig_0>
-97.5861

>  <SCORE.INTRA.VDW>
-16.6563

>  <SCORE.INTRA.VDW.0>
11.7669

>  <SCORE.INTRA.norm>
-0.462557

>  <SCORE.RESTR>
0.00648108

>  <SCORE.RESTR.CAVITY>
0.00648108

>  <SCORE.RESTR.norm>
0.000162027

>  <SCORE.SYSTEM>
0

>  <SCORE.SYSTEM.CONST>
0

>  <SCORE.SYSTEM.DIHEDRAL>
0

>  <SCORE.SYSTEM.SOLV>
0

>  <SCORE.SYSTEM.norm>
0

>  <SCORE.heavy>
40

>  <SCORE.norm>
-0.66665

>  <RMSD>
1.955

$$$$
1nta_lig
 OpenBabel11021811403D
libRbt.so/2013.1/901 2013/11/27
 40 42  0  0  0  0  0  0  0  0999 V2000
    8.5959   32.5842   -0.8973 C   0  0  0  0  0  0  0  0  0  0  0  0
    8.4389   32.0961   -2.0709 N   0  0  0  0  0  0  0  0  0  0  0  0
    0.3698   38.0053   -2.3899 C   0  0  0  0  0  0  0  0  0  0  0  0
    1.4572   38.5378   -2.4256 O   0  0  0  0  0  0  0  0  0  0  0  0
    5.1873   37.6925    0.7994 C   0  0  0  0  0  0  0  0  0  0  0  0
    6.4428   37.9102    1.0928 N   0  0  0  0  0  0  0  0  0  0  0  0
    0.3709   35.3228   -4.3560 C   0  0  0  0  0  0  0  0  0  0  0  0
    1.6490   39.0826    1.6913 C   0  0  0  0  0  0  0  0  0  0  0  0
    6.4604   33.5812   -0.6819 C   0  0  2  0  0  0  0  0  0  0  0  0
    7.5062   32.6235   -0.1451 N   0  0  0  0  0  0  0  0  0  0  0  0
    1.4767   35.0784   -0.9489 C   0  0  2  0  0  0  0  0  0  0  0  0
   -0.0274   36.1830    1.4441 C   0  0  1  0  0  0  0  0  0  0  0  0
   -0.4200   35.9134    0.1438 O   0  0  0  0  0  0  0  0  0  0  0  0
    6.0627   34.5951    0.4076 C   0  0  1  0  0  0  0  0  0  0  0  0
    7.2022   35.3421    0.7098 O   0  0  0  0  0  0  0  0  0  0  0  0
    0.5047   36.2355   -0.7451 C   0  0  2  0  0  0  0  0  0  0  0  0
   -0.1433   37.6304    1.8689 C   0  0  1  0  0  0  0  0  0  0  0  0
    0.5820   38.4346    0.9472 N   0  0  0  0  0  0  0  0  0  0  0  0
    4.9868   35.5776   -0.0738 C   0  0  2  0  0  0  0  0  0  0  0  0
    4.5760   36.5660    0.9520 N   0  0  0  0  0  0  0  0  0  0  0  0
    0.1361   36.5410   -2.1313 C   0  0  1  0  0  0  0  0  0  0  0  0
   -1.2365   36.1782   -2.2942 O   0  0  0  0  0  0  0  0  0  0  0  0
   -1.4683   38.0431    1.8815 C   0  0  2  0  0  0  0  0  0  0  0  0
   -1.5244   39.2738    2.5577 O   0  0  0  0  0  0  0  0  0  0  0  0
    3.7714   34.7717   -0.5043 C   0  0  1  0  0  0  0  0  0  0  0  0
    2.7814   35.6846   -0.9517 O   0  0  0  0  0  0  0  0  0  0  0  0
    0.9464   35.7076   -3.0283 C   0  0  1  0  0  0  0  0  0  0  0  0
    1.2644   34.5647   -2.2437 O   0  0  0  0  0  0  0  0  0  0  0  0
   -2.3246   37.0346    2.6014 C   0  0  1  0  0  0  0  0  0  0  0  0
   -3.6697   37.3493    2.3918 O   0  0  0  0  0  0  0  0  0  0  0  0
    4.1594   33.7777   -1.6358 C   0  0  2  0  0  0  0  0  0  0  0  0
    3.0053   33.0391   -2.0329 O   0  0  0  0  0  0  0  0  0  0  0  0
   -2.0708   35.6729    2.0502 C   0  0  1  0  0  0  0  0  0  0  0  0
   -0.7239   35.3670    2.2684 O   0  0  0  0  0  0  0  0  0  0  0  0
    5.2340   32.8033   -1.1094 C   0  0  1  0  0  0  0  0  0  0  0  0
    5.6056   31.8749   -2.1412 O   0  0  0  0  0  0  0  0  0  0  0  0
   -2.9158   34.6077    2.7765 C   0  0  0  0  0  0  0  0  0  0  0  0
   -4.2702   34.7167    2.3537 O   0  0  0  0  0  0  0  0  0  0  0  0
    9.7350   33.0143   -0.4737 N   0  0  0  0  0  0  0  0  0  0  0  0
    4.4687   38.6439    0.3469 N   0  0  0  0  0  0  0  0  0  0  0  0
  1  2  1  0  0  0  0
  1 39  1  0  0  0  0
  3  4  1  0  0  0  0
  5  6  1  0  0  0  0
  5 40  1  0  0  0  0
  9 10  1  1  0  0  0
  9 14  1  0  0  0  0
  9 35  1  0  0  0  0
 10  1  1  0  0  0  0
 11 16  1  0  0  0  0
 11 28  1  0  0  0  0
 11 26  1  6  0  0  0
 12 17  1  0  0  0  0
 12 34  1  0  0  0  0
 12 13  1  6  0  0  0
 14 15  1  6  0  0  0
 14 19  1  0  0  0  0
 16 13  1  1  0  0  0
 16 21  1  0  0  0  0
 17 18  1  6  0  0  0
 17 23  1  0  0  0  0
 18  8  1  0  0  0  0
 19 20  1  1  0  0  0
 19 25  1  0  0  0  0
 20  5  1  0  0  0  0
 21  3  1  6  0  0  0
 21 22  1  0  0  0  0
 21 27  1  0  0  0  0
 23 24  1  1  0  0  0
 23 29  1  0  0  0  0
 25 26  1  6  0  0  0
 25 31  1  0  0  0  0
 27  7  1  6  0  0  0
 27 28  1  0  0  0  0
 29 30  1  6  0  0  0
 29 33  1  0  0  0  0
 31 32  1  1  0  0  0
 31 35  1  0  0  0  0
 33 34  1  0  0  0  0
 33 37  1  1  0  0  0
 35 36  1  6  0  0  0
 37 38  1  0  0  0  0
M  END
>  <CHROM.1>
-125.33591611,-66.34595979,152.27206509,79.23383970,87.16566163,-117.62312255
97.75555649,-73.88495851,67.81752258,-160.55824227,74.05600579,2.23570640
35.69949859,-0.10410356,0.40328477,0.08237842,-2.35806303

>  <Name>
1nta_lig

>  <RI>
0

>  <Rbt.Current_Directory>
/home/itssahil/PROJECTS/Mol_Feturizer/New_Systems/rnas/1nta

>  <Rbt.Executable>
rbdock ($Id: //depot/dev/client3/rdock/2013.1/src/exe/rbdock.cxx#4 $)

>  <Rbt.Library>
libRbt.so (2013.1, Build901 2013/11/27)

>  <Rbt.Parameter_File>
/export/apps/rDock/src/rDock_2013.1_src/data/scripts/dock_solv.prm

>  <Rbt.Receptor>
prm/pocket_docking_3.prm

>  <SCORE>
-21.2658

>  <SCORE.INTER>
-3.14695

>  <SCORE.INTER.CONST>
1

>  <SCORE.INTER.POLAR>
-0.8

>  <SCORE.INTER.ROT>
11

>  <SCORE.INTER.SOLV>
20.8155

>  <SCORE.INTER.VDW>
-17.3031

>  <SCORE.INTER.norm>
-0.0786738

>  <SCORE.INTRA>
-18.162

>  <SCORE.INTRA.DIHEDRAL>
-3.70338

>  <SCORE.INTRA.DIHEDRAL.0>
19.0336

>  <SCORE.INTRA.POLAR>
0

>  <SCORE.INTRA.POLAR.0>
0

>  <SCORE.INTRA.REPUL>
0.0467943

>  <SCORE.INTRA.REPUL.0>
0

>  <SCORE.INTRA.SOLV>
-2.20927

>  <SCORE.INTRA.SOLV.lig_0>
-97.5861

>  <SCORE.INTRA.VDW>
-15.4397

>  <SCORE.INTRA.VDW.0>
11.7669

>  <SCORE.INTRA.norm>
-0.454051

>  <SCORE.RESTR>
0.0431955

>  <SCORE.RESTR.CAVITY>
0.0431955

>  <SCORE.RESTR.norm>
0.00107989

>  <SCORE.SYSTEM>
0

>  <SCORE.SYSTEM.CONST>
0

>  <SCORE.SYSTEM.DIHEDRAL>
0

>  <SCORE.SYSTEM.SOLV>
0

>  <SCORE.SYSTEM.norm>
0

>  <SCORE.heavy>
40

>  <SCORE.norm>
-0.531645

>  <RMSD>
2.024

$$$$
1nta_lig
 OpenBabel11021811403D
libRbt.so/2013.1/901 2013/11/27
 40 42  0  0  0  0  0  0  0  0999 V2000
    9.8859   32.3424   -1.9366 C   0  0  0  0  0  0  0  0  0  0  0  0
   10.1984   31.1011   -1.8946 N   0  0  0  0  0  0  0  0  0  0  0  0
    0.9026   35.4822   -2.9770 C   0  0  0  0  0  0  0  0  0  0  0  0
    1.8219   36.0279   -3.5466 O   0  0  0  0  0  0  0  0  0  0  0  0
    5.7098   36.8017    1.0028 C   0  0  0  0  0  0  0  0  0  0  0  0
    6.8899   37.3296    0.8071 N   0  0  0  0  0  0  0  0  0  0  0  0
    1.4645   32.2733   -3.6467 C   0  0  0  0  0  0  0  0  0  0  0  0
    2.0025   38.3269   -0.2308 C   0  0  0  0  0  0  0  0  0  0  0  0
    7.9661   33.5189   -1.2080 C   0  0  2  0  0  0  0  0  0  0  0  0
    9.2622   32.8104   -0.8658 N   0  0  0  0  0  0  0  0  0  0  0  0
    2.7230   33.7456   -0.6236 C   0  0  2  0  0  0  0  0  0  0  0  0
    0.9637   35.5799    1.1978 C   0  0  1  0  0  0  0  0  0  0  0  0
    0.7247   34.5766    0.2738 O   0  0  0  0  0  0  0  0  0  0  0  0
    7.3760   34.1800    0.0519 C   0  0  1  0  0  0  0  0  0  0  0  0
    8.2874   35.1496    0.4728 O   0  0  0  0  0  0  0  0  0  0  0  0
    1.5133   34.6599   -0.7847 C   0  0  2  0  0  0  0  0  0  0  0  0
    0.4592   36.9522    0.8091 C   0  0  1  0  0  0  0  0  0  0  0  0
    1.0045   37.2953   -0.4587 N   0  0  0  0  0  0  0  0  0  0  0  0
    6.0475   34.8941   -0.2311 C   0  0  2  0  0  0  0  0  0  0  0  0
    5.4478   35.5386    0.9618 N   0  0  0  0  0  0  0  0  0  0  0  0
    1.0314   34.2583   -2.1103 C   0  0  1  0  0  0  0  0  0  0  0  0
   -0.2216   33.5972   -1.9231 O   0  0  0  0  0  0  0  0  0  0  0  0
   -0.9259   36.9698    0.7235 C   0  0  2  0  0  0  0  0  0  0  0  0
   -1.3312   38.3137    0.6559 O   0  0  0  0  0  0  0  0  0  0  0  0
    5.0713   33.8700   -0.7880 C   0  0  1  0  0  0  0  0  0  0  0  0
    3.8463   34.5361   -1.0511 O   0  0  0  0  0  0  0  0  0  0  0  0
    1.9818   33.2983   -2.6855 C   0  0  1  0  0  0  0  0  0  0  0  0
    2.5900   32.6932   -1.5511 O   0  0  0  0  0  0  0  0  0  0  0  0
   -1.5345   36.3219    1.9394 C   0  0  1  0  0  0  0  0  0  0  0  0
   -2.9018   36.1373    1.7189 O   0  0  0  0  0  0  0  0  0  0  0  0
    5.6443   33.2321   -2.0855 C   0  0  2  0  0  0  0  0  0  0  0  0
    4.7108   32.2828   -2.5980 O   0  0  0  0  0  0  0  0  0  0  0  0
   -0.9118   34.9860    2.1636 C   0  0  1  0  0  0  0  0  0  0  0  0
    0.4546   35.1827    2.3867 O   0  0  0  0  0  0  0  0  0  0  0  0
    6.9719   32.5176   -1.7568 C   0  0  1  0  0  0  0  0  0  0  0  0
    7.5175   31.9201   -2.9443 O   0  0  0  0  0  0  0  0  0  0  0  0
   -1.4953   34.2982    3.4137 C   0  0  0  0  0  0  0  0  0  0  0  0
   -2.7842   33.7804    3.1041 O   0  0  0  0  0  0  0  0  0  0  0  0
   10.1539   33.0892   -2.9527 N   0  0  0  0  0  0  0  0  0  0  0  0
    4.7180   37.5537    1.2807 N   0  0  0  0  0  0  0  0  0  0  0  0
  1  2  1  0  0  0  0
  1 39  1  0  0  0  0
  3  4  1  0  0  0  0
  5  6  1  0  0  0  0
  5 40  1  0  0  0  0
  9 10  1  1  0  0  0
  9 14  1  0  0  0  0
  9 35  1  0  0  0  0
 10  1  1  0  0  0  0
 11 16  1  0  0  0  0
 11 28  1  0  0  0  0
 11 26  1  6  0  0  0
 12 17  1  0  0  0  0
 12 34  1  0  0  0  0
 12 13  1  6  0  0  0
 14 15  1  6  0  0  0
 14 19  1  0  0  0  0
 16 13  1  1  0  0  0
 16 21  1  0  0  0  0
 17 18  1  6  0  0  0
 17 23  1  0  0  0  0
 18  8  1  0  0  0  0
 19 20  1  1  0  0  0
 19 25  1  0  0  0  0
 20  5  1  0  0  0  0
 21  3  1  6  0  0  0
 21 22  1  0  0  0  0
 21 27  1  0  0  0  0
 23 24  1  1  0  0  0
 23 29  1  0  0  0  0
 25 26  1  6  0  0  0
 25 31  1  0  0  0  0
 27  7  1  1  0  0  0
 27 28  1  0  0  0  0
 29 30  1  6  0  0  0
 29 33  1  0  0  0  0
 31 32  1  1  0  0  0
 31 35  1  0  0  0  0
 33 34  1  0  0  0  0
 33 37  1  1  0  0  0
 35 36  1  6  0  0  0
 37 38  1  0  0  0  0
M  END
>  <CHROM.1>
-173.38483012,-127.14708189,172.21785973,74.06615000,96.09522816,-108.02902746
98.44009856,-46.76619760,80.04074425,-137.26400835,76.55672993,3.26263828
34.68415478,-0.45051724,0.38460829,0.00440752,-2.34561058

>  <Name>
1nta_lig

>  <RI>
0

>  <Rbt.Current_Directory>
/home/itssahil/PROJECTS/Mol_Feturizer/New_Systems/rnas/1nta

>  <Rbt.Executable>
rbdock ($Id: //depot/dev/client3/rdock/2013.1/src/exe/rbdock.cxx#4 $)

>  <Rbt.Library>
libRbt.so (2013.1, Build901 2013/11/27)

>  <Rbt.Parameter_File>
/export/apps/rDock/src/rDock_2013.1_src/data/scripts/dock_solv.prm

>  <Rbt.Receptor>
prm/pocket_docking_4.prm

>  <SCORE>
-26.2387

>  <SCORE.INTER>
-10.4185

>  <SCORE.INTER.CONST>
1

>  <SCORE.INTER.POLAR>
-1.92993

>  <SCORE.INTER.ROT>
11

>  <SCORE.INTER.SOLV>
25.2544

>  <SCORE.INTER.VDW>
-19.864

>  <SCORE.INTER.norm>
-0.260461

>  <SCORE.INTRA>
-15.8202

>  <SCORE.INTRA.DIHEDRAL>
-1.77062

>  <SCORE.INTRA.DIHEDRAL.0>
19.0336

>  <SCORE.INTRA.POLAR>
0

>  <SCORE.INTRA.POLAR.0>
0

>  <SCORE.INTRA.REPUL>
0

>  <SCORE.INTRA.REPUL.0>
0

>  <SCORE.INTRA.SOLV>
-1.00448

>  <SCORE.INTRA.SOLV.lig_0>
-97.5861

>  <SCORE.INTRA.VDW>
-14.4326

>  <SCORE.INTRA.VDW.0>
11.7669

>  <SCORE.INTRA.norm>
-0.395505

>  <SCORE.RESTR>
0

>  <SCORE.RESTR.CAVITY>
0

>  <SCORE.RESTR.norm>
0

>  <SCORE.SYSTEM>
0

>  <SCORE.SYSTEM.CONST>
0

>  <SCORE.SYSTEM.DIHEDRAL>
0

>  <SCORE.SYSTEM.SOLV>
0

>  <SCORE.SYSTEM.norm>
0

>  <SCORE.heavy>
40

>  <SCORE.norm>
-0.655966

>  <RMSD>
2.079

$$$$
1nta_lig
 OpenBabel11021811403D
libRbt.so/2013.1/901 2013/11/27
 40 42  0  0  0  0  0  0  0  0999 V2000
    8.5201   32.7552   -1.1455 C   0  0  0  0  0  0  0  0  0  0  0  0
    8.4663   32.2006   -2.2986 N   0  0  0  0  0  0  0  0  0  0  0  0
    0.5796   38.7562   -2.1331 C   0  0  0  0  0  0  0  0  0  0  0  0
    1.6756   39.2016   -2.3932 O   0  0  0  0  0  0  0  0  0  0  0  0
    4.3585   37.9232    0.4775 C   0  0  0  0  0  0  0  0  0  0  0  0
    4.9441   38.5382   -0.5167 N   0  0  0  0  0  0  0  0  0  0  0  0
    0.3213   36.3037   -4.3646 C   0  0  0  0  0  0  0  0  0  0  0  0
    0.8559   40.1761    1.5894 C   0  0  0  0  0  0  0  0  0  0  0  0
    6.4092   33.8009   -0.9198 C   0  0  2  0  0  0  0  0  0  0  0  0
    7.3907   32.7436   -0.4534 N   0  0  0  0  0  0  0  0  0  0  0  0
    1.5216   35.6246   -1.0498 C   0  0  2  0  0  0  0  0  0  0  0  0
    0.0390   36.8873    1.4827 C   0  0  1  0  0  0  0  0  0  0  0  0
   -0.2721   36.4657    0.2009 O   0  0  0  0  0  0  0  0  0  0  0  0
    6.0634   34.7512    0.2423 C   0  0  1  0  0  0  0  0  0  0  0  0
    7.2430   35.4027    0.6056 O   0  0  0  0  0  0  0  0  0  0  0  0
    0.6427   36.8168   -0.6873 C   0  0  2  0  0  0  0  0  0  0  0  0
   -0.4404   38.2765    1.8419 C   0  0  1  0  0  0  0  0  0  0  0  0
    0.0574   39.1937    0.8758 N   0  0  0  0  0  0  0  0  0  0  0  0
    5.0527   35.8308   -0.1671 C   0  0  2  0  0  0  0  0  0  0  0  0
    4.6930   36.7615    0.9295 N   0  0  0  0  0  0  0  0  0  0  0  0
    0.2502   37.2920   -2.0181 C   0  0  1  0  0  0  0  0  0  0  0  0
   -1.1497   37.0426   -2.1609 O   0  0  0  0  0  0  0  0  0  0  0  0
   -1.8267   38.3401    1.8512 C   0  0  2  0  0  0  0  0  0  0  0  0
   -2.1934   39.5470    2.4707 O   0  0  0  0  0  0  0  0  0  0  0  0
    3.7950   35.1351   -0.6632 C   0  0  1  0  0  0  0  0  0  0  0  0
    2.8656   36.1376   -1.0436 O   0  0  0  0  0  0  0  0  0  0  0  0
    0.9676   36.5055   -3.0292 C   0  0  1  0  0  0  0  0  0  0  0  0
    1.2292   35.2668   -2.3809 O   0  0  0  0  0  0  0  0  0  0  0  0
   -2.3994   37.1828    2.6267 C   0  0  1  0  0  0  0  0  0  0  0  0
   -3.7803   37.1360    2.4187 O   0  0  0  0  0  0  0  0  0  0  0  0
    4.1327   34.2084   -1.8656 C   0  0  2  0  0  0  0  0  0  0  0  0
    2.9398   33.5734   -2.3230 O   0  0  0  0  0  0  0  0  0  0  0  0
   -1.8083   35.9053    2.1356 C   0  0  1  0  0  0  0  0  0  0  0  0
   -0.4279   35.9614    2.3518 O   0  0  0  0  0  0  0  0  0  0  0  0
    5.1421   33.1335   -1.4107 C   0  0  1  0  0  0  0  0  0  0  0  0
    5.4664   32.2654   -2.5089 O   0  0  0  0  0  0  0  0  0  0  0  0
   -2.3557   34.6964    2.9200 C   0  0  0  0  0  0  0  0  0  0  0  0
   -3.6965   34.4444    2.5154 O   0  0  0  0  0  0  0  0  0  0  0  0
    9.5976   33.2945   -0.6868 N   0  0  0  0  0  0  0  0  0  0  0  0
    3.3934   38.4878    1.0909 N   0  0  0  0  0  0  0  0  0  0  0  0
  1  2  1  0  0  0  0
  1 39  1  0  0  0  0
  3  4  1  0  0  0  0
  5  6  1  0  0  0  0
  5 40  1  0  0  0  0
  9 10  1  1  0  0  0
  9 14  1  0  0  0  0
  9 35  1  0  0  0  0
 10  1  1  0  0  0  0
 11 16  1  0  0  0  0
 11 28  1  0  0  0  0
 11 26  1  6  0  0  0
 12 17  1  0  0  0  0
 12 34  1  0  0  0  0
 12 13  1  6  0  0  0
 14 15  1  6  0  0  0
 14 19  1  0  0  0  0
 16 13  1  1  0  0  0
 16 21  1  0  0  0  0
 17 18  1  6  0  0  0
 17 23  1  0  0  0  0
 18  8  1  0  0  0  0
 19 20  1  1  0  0  0
 19 25  1  0  0  0  0
 20  5  1  0  0  0  0
 21  3  1  6  0  0  0
 21 22  1  0  0  0  0
 21 27  1  0  0  0  0
 23 24  1  1  0  0  0
 23 29  1  0  0  0  0
 25 26  1  6  0  0  0
 25 31  1  0  0  0  0
 27  7  1  6  0  0  0
 27 28  1  0  0  0  0
 29 30  1  6  0  0  0
 29 33  1  0  0  0  0
 31 32  1  1  0  0  0
 31 35  1  0  0  0  0
 33 34  1  0  0  0  0
 33 37  1  1  0  0  0
 35 36  1  6  0  0  0
 37 38  1  0  0  0  0
M  END
>  <CHROM.1>
-121.11238058,-78.35577386,149.07710124,87.92396026,102.93156175,-121.19458615
151.66996335,-39.51396225,81.49399224,-158.64472761,73.64879226,2.14080796
36.10797528,-0.19238443,0.46488930,-0.12359621,-2.77206056

>  <Name>
1nta_lig

>  <RI>
0

>  <Rbt.Current_Directory>
/home/itssahil/PROJECTS/Mol_Feturizer/New_Systems/rnas/1nta

>  <Rbt.Executable>
rbdock ($Id: //depot/dev/client3/rdock/2013.1/src/exe/rbdock.cxx#4 $)

>  <Rbt.Library>
libRbt.so (2013.1, Build901 2013/11/27)

>  <Rbt.Parameter_File>
/export/apps/rDock/src/rDock_2013.1_src/data/scripts/dock_solv.prm

>  <Rbt.Receptor>
prm/pocket_docking_3.prm

>  <SCORE>
-16.3316

>  <SCORE.INTER>
-1.08464

>  <SCORE.INTER.CONST>
1

>  <SCORE.INTER.POLAR>
-0.8

>  <SCORE.INTER.ROT>
11

>  <SCORE.INTER.SOLV>
19.5912

>  <SCORE.INTER.VDW>
-15.5202

>  <SCORE.INTER.norm>
-0.0271161

>  <SCORE.INTRA>
-15.247

>  <SCORE.INTRA.DIHEDRAL>
2.22575

>  <SCORE.INTRA.DIHEDRAL.0>
19.0336

>  <SCORE.INTRA.POLAR>
0

>  <SCORE.INTRA.POLAR.0>
0

>  <SCORE.INTRA.REPUL>
0

>  <SCORE.INTRA.REPUL.0>
0

>  <SCORE.INTRA.SOLV>
0.546185

>  <SCORE.INTRA.SOLV.lig_0>
-97.5861

>  <SCORE.INTRA.VDW>
-16.6329

>  <SCORE.INTRA.VDW.0>
11.7669

>  <SCORE.INTRA.norm>
-0.381174

>  <SCORE.RESTR>
0

>  <SCORE.RESTR.CAVITY>
0

>  <SCORE.RESTR.norm>
0

>  <SCORE.SYSTEM>
0

>  <SCORE.SYSTEM.CONST>
0

>  <SCORE.SYSTEM.DIHEDRAL>
0

>  <SCORE.SYSTEM.SOLV>
0

>  <SCORE.SYSTEM.norm>
0

>  <SCORE.heavy>
40

>  <SCORE.norm>
-0.40829

>  <RMSD>
2.162

$$$$
1nta_lig
 OpenBabel11021811403D
libRbt.so/2013.1/901 2013/11/27
 40 42  0  0  0  0  0  0  0  0999 V2000
    8.6112   32.8237   -0.6947 C   0  0  0  0  0  0  0  0  0  0  0  0
    8.5837   32.1643   -1.7922 N   0  0  0  0  0  0  0  0  0  0  0  0
    0.4198   37.1848   -3.8173 C   0  0  0  0  0  0  0  0  0  0  0  0
    0.0603   38.3415   -3.8242 O   0  0  0  0  0  0  0  0  0  0  0  0
    4.1306   36.4893    1.6366 C   0  0  0  0  0  0  0  0  0  0  0  0
    4.9180   36.2120    2.6430 N   0  0  0  0  0  0  0  0  0  0  0  0
    0.0177   33.8835   -3.7848 C   0  0  0  0  0  0  0  0  0  0  0  0
   -4.0049   37.9637   -1.5463 C   0  0  0  0  0  0  0  0  0  0  0  0
    6.4553   33.7990   -0.7278 C   0  0  2  0  0  0  0  0  0  0  0  0
    7.4605   32.8943   -0.0424 N   0  0  0  0  0  0  0  0  0  0  0  0
    1.4861   35.5625   -0.9714 C   0  0  2  0  0  0  0  0  0  0  0  0
   -0.8201   38.3181   -0.7743 C   0  0  1  0  0  0  0  0  0  0  0  0
   -0.2136   37.1041   -0.4989 O   0  0  0  0  0  0  0  0  0  0  0  0
    6.0125   34.9203    0.2312 C   0  0  1  0  0  0  0  0  0  0  0  0
    7.1431   35.6873    0.5168 O   0  0  0  0  0  0  0  0  0  0  0  0
    0.6231   36.7248   -1.4503 C   0  0  2  0  0  0  0  0  0  0  0  0
   -2.2055   38.4967   -0.1932 C   0  0  1  0  0  0  0  0  0  0  0  0
   -3.0230   37.4163   -0.6252 N   0  0  0  0  0  0  0  0  0  0  0  0
    4.9745   35.8555   -0.4034 C   0  0  2  0  0  0  0  0  0  0  0  0
    4.5218   36.9451    0.4943 N   0  0  0  0  0  0  0  0  0  0  0  0
    0.1199   36.1963   -2.7225 C   0  0  1  0  0  0  0  0  0  0  0  0
   -1.2834   35.9774   -2.5647 O   0  0  0  0  0  0  0  0  0  0  0  0
   -2.1681   38.5067    1.1941 C   0  0  2  0  0  0  0  0  0  0  0  0
   -3.4154   38.9664    1.6502 O   0  0  0  0  0  0  0  0  0  0  0  0
    3.7743   35.0174   -0.8146 C   0  0  1  0  0  0  0  0  0  0  0  0
    2.8195   35.8862   -1.4038 O   0  0  0  0  0  0  0  0  0  0  0  0
    0.7652   34.9035   -2.9831 C   0  0  1  0  0  0  0  0  0  0  0  0
    1.0938   34.4147   -1.6885 O   0  0  0  0  0  0  0  0  0  0  0  0
   -1.0829   39.4299    1.6826 C   0  0  1  0  0  0  0  0  0  0  0  0
   -0.9086   39.2388    3.0557 O   0  0  0  0  0  0  0  0  0  0  0  0
    4.2097   33.9117   -1.8178 C   0  0  2  0  0  0  0  0  0  0  0  0
    3.0696   33.1436   -2.1994 O   0  0  0  0  0  0  0  0  0  0  0  0
    0.2010   39.1052    0.9979 C   0  0  1  0  0  0  0  0  0  0  0  0
    0.0164   39.3033   -0.3740 O   0  0  0  0  0  0  0  0  0  0  0  0
    5.2441   32.9892   -1.1394 C   0  0  1  0  0  0  0  0  0  0  0  0
    5.6587   31.9588   -2.0512 O   0  0  0  0  0  0  0  0  0  0  0  0
    1.3342   40.0437    1.4575 C   0  0  0  0  0  0  0  0  0  0  0  0
    0.9589   41.3919    1.1993 O   0  0  0  0  0  0  0  0  0  0  0  0
    9.6834   33.3871   -0.2529 N   0  0  0  0  0  0  0  0  0  0  0  0
    2.8756   36.2874    1.7403 N   0  0  0  0  0  0  0  0  0  0  0  0
  1  2  1  0  0  0  0
  1 39  1  0  0  0  0
  3  4  1  0  0  0  0
  5  6  1  0  0  0  0
  5 40  1  0  0  0  0
  9 10  1  1  0  0  0
  9 14  1  0  0  0  0
  9 35  1  0  0  0  0
 10  1  1  0  0  0  0
 11 16  1  0  0  0  0
 11 28  1  0  0  0  0
 11 26  1  6  0  0  0
 12 17  1  0  0  0  0
 12 34  1  0  0  0  0
 12 13  1  1  0  0  0
 14 15  1  6  0  0  0
 14 19  1  0  0  0  0
 16 13  1  1  0  0  0
 16 21  1  0  0  0  0
 17 18  1  1  0  0  0
 17 23  1  0  0  0  0
 18  8  1  0  0  0  0
 19 20  1  1  0  0  0
 19 25  1  0  0  0  0
 20  5  1  0  0  0  0
 21  3  1  6  0  0  0
 21 22  1  0  0  0  0
 21 27  1  0  0  0  0
 23 24  1  1  0  0  0
 23 29  1  0  0  0  0
 25 26  1  6  0  0  0
 25 31  1  0  0  0  0
 27  7  1  1  0  0  0
 27 28  1  0  0  0  0
 29 30  1  1  0  0  0
 29 33  1  0  0  0  0
 31 32  1  1  0  0  0
 31 35  1  0  0  0  0
 33 34  1  0  0  0  0
 33 37  1  1  0  0  0
 35 36  1  6  0  0  0
 37 38  1  0  0  0  0
M  END
>  <CHROM.1>
-122.27268767,-71.78490039,169.09444788,150.31974711,167.43831762,-111.06369124
-51.84712494,83.56474179,-56.86600213,-138.39706123,-57.73366944,2.14625682
36.24869836,-0.57631431,-0.40261100,-0.37270624,0.83271032

>  <Name>
1nta_lig

>  <RI>
0

>  <Rbt.Current_Directory>
/home/itssahil/PROJECTS/Mol_Feturizer/New_Systems/rnas/1nta

>  <Rbt.Executable>
rbdock ($Id: //depot/dev/client3/rdock/2013.1/src/exe/rbdock.cxx#4 $)

>  <Rbt.Library>
libRbt.so (2013.1, Build901 2013/11/27)

>  <Rbt.Parameter_File>
/export/apps/rDock/src/rDock_2013.1_src/data/scripts/dock_solv.prm

>  <Rbt.Receptor>
prm/pocket_docking_3.prm

>  <SCORE>
-18.5363

>  <SCORE.INTER>
-0.402828

>  <SCORE.INTER.CONST>
1

>  <SCORE.INTER.POLAR>
-0.8

>  <SCORE.INTER.ROT>
11

>  <SCORE.INTER.SOLV>
22.4834

>  <SCORE.INTER.VDW>
-16.0297

>  <SCORE.INTER.norm>
-0.0100707

>  <SCORE.INTRA>
-18.1747

>  <SCORE.INTRA.DIHEDRAL>
-4.53281

>  <SCORE.INTRA.DIHEDRAL.0>
19.0336

>  <SCORE.INTRA.POLAR>
0

>  <SCORE.INTRA.POLAR.0>
0

>  <SCORE.INTRA.REPUL>
0

>  <SCORE.INTRA.REPUL.0>
0

>  <SCORE.INTRA.SOLV>
0.0432859

>  <SCORE.INTRA.SOLV.lig_0>
-97.5861

>  <SCORE.INTRA.VDW>
-15.9299

>  <SCORE.INTRA.VDW.0>
11.7669

>  <SCORE.INTRA.norm>
-0.454367

>  <SCORE.RESTR>
0.0412134

>  <SCORE.RESTR.CAVITY>
0.0412134

>  <SCORE.RESTR.norm>
0.00103034

>  <SCORE.SYSTEM>
0

>  <SCORE.SYSTEM.CONST>
0

>  <SCORE.SYSTEM.DIHEDRAL>
0

>  <SCORE.SYSTEM.SOLV>
0

>  <SCORE.SYSTEM.norm>
0

>  <SCORE.heavy>
40

>  <SCORE.norm>
-0.463407

>  <RMSD>
2.276

$$$$
1nta_lig
 OpenBabel11021811403D
libRbt.so/2013.1/901 2013/11/27
 40 42  0  0  0  0  0  0  0  0999 V2000
    9.2086   32.6248   -1.8380 C   0  0  0  0  0  0  0  0  0  0  0  0
    9.2867   31.6628   -2.6798 N   0  0  0  0  0  0  0  0  0  0  0  0
    0.5038   35.5361   -4.5014 C   0  0  0  0  0  0  0  0  0  0  0  0
   -0.1623   36.5437   -4.5923 O   0  0  0  0  0  0  0  0  0  0  0  0
    4.7554   36.6760    0.6800 C   0  0  0  0  0  0  0  0  0  0  0  0
    5.5680   36.9381    1.6704 N   0  0  0  0  0  0  0  0  0  0  0  0
    0.8335   32.2277   -4.4155 C   0  0  0  0  0  0  0  0  0  0  0  0
   -3.7123   35.4673   -2.9745 C   0  0  0  0  0  0  0  0  0  0  0  0
    7.0110   33.4402   -1.5124 C   0  0  2  0  0  0  0  0  0  0  0  0
    8.1649   32.5869   -1.0232 N   0  0  0  0  0  0  0  0  0  0  0  0
    1.7750   34.2213   -1.5818 C   0  0  2  0  0  0  0  0  0  0  0  0
   -1.0588   36.4319   -1.5132 C   0  0  1  0  0  0  0  0  0  0  0  0
   -0.2400   35.3572   -1.2098 O   0  0  0  0  0  0  0  0  0  0  0  0
    6.2575   34.0481   -0.3142 C   0  0  1  0  0  0  0  0  0  0  0  0
    7.1514   34.8895    0.3498 O   0  0  0  0  0  0  0  0  0  0  0  0
    0.7000   35.1599   -2.1190 C   0  0  2  0  0  0  0  0  0  0  0  0
   -2.5183   36.2553   -1.1562 C   0  0  1  0  0  0  0  0  0  0  0  0
   -2.9974   35.0675   -1.7740 N   0  0  0  0  0  0  0  0  0  0  0  0
    5.0616   34.9051   -0.7503 C   0  0  2  0  0  0  0  0  0  0  0  0
    4.3095   35.5029    0.3789 N   0  0  0  0  0  0  0  0  0  0  0  0
    0.3805   34.5188   -3.3988 C   0  0  1  0  0  0  0  0  0  0  0  0
   -0.9463   33.9989   -3.2923 O   0  0  0  0  0  0  0  0  0  0  0  0
   -2.6876   36.1488    0.2171 C   0  0  2  0  0  0  0  0  0  0  0  0
   -4.0595   36.2865    0.4889 O   0  0  0  0  0  0  0  0  0  0  0  0
    4.1244   34.0269   -1.5641 C   0  0  1  0  0  0  0  0  0  0  0  0
    3.0226   34.8250   -1.9676 O   0  0  0  0  0  0  0  0  0  0  0  0
    1.3039   33.3964   -3.6064 C   0  0  1  0  0  0  0  0  0  0  0  0
    1.6751   33.0070   -2.2897 O   0  0  0  0  0  0  0  0  0  0  0  0
   -1.9233   37.2363    0.9255 C   0  0  1  0  0  0  0  0  0  0  0  0
   -1.9130   36.9649    2.2961 O   0  0  0  0  0  0  0  0  0  0  0  0
    4.8696   33.4468   -2.7998 C   0  0  2  0  0  0  0  0  0  0  0  0
    3.9720   32.6352   -3.5554 O   0  0  0  0  0  0  0  0  0  0  0  0
   -0.5133   37.2583    0.4419 C   0  0  1  0  0  0  0  0  0  0  0  0
   -0.5351   37.5341   -0.9288 O   0  0  0  0  0  0  0  0  0  0  0  0
    6.0564   32.5858   -2.3190 C   0  0  1  0  0  0  0  0  0  0  0  0
    6.7581   32.0393   -3.4477 O   0  0  0  0  0  0  0  0  0  0  0  0
    0.2981   38.3737    1.1304 C   0  0  0  0  0  0  0  0  0  0  0  0
    1.6509   38.3054    0.6943 O   0  0  0  0  0  0  0  0  0  0  0  0
   10.0822   33.5716   -1.7867 N   0  0  0  0  0  0  0  0  0  0  0  0
    4.3277   37.6255   -0.0562 N   0  0  0  0  0  0  0  0  0  0  0  0
  1  2  1  0  0  0  0
  1 39  1  0  0  0  0
  3  4  1  0  0  0  0
  5  6  1  0  0  0  0
  5 40  1  0  0  0  0
  9 10  1  1  0  0  0
  9 14  1  0  0  0  0
  9 35  1  0  0  0  0
 10  1  1  0  0  0  0
 11 16  1  0  0  0  0
 11 28  1  0  0  0  0
 11 26  1  6  0  0  0
 12 17  1  0  0  0  0
 12 34  1  0  0  0  0
 12 13  1  1  0  0  0
 14 15  1  6  0  0  0
 14 19  1  0  0  0  0
 16 13  1  1  0  0  0
 16 21  1  0  0  0  0
 17 18  1  6  0  0  0
 17 23  1  0  0  0  0
 18  8  1  0  0  0  0
 19 20  1  1  0  0  0
 19 25  1  0  0  0  0
 20  5  1  0  0  0  0
 21  3  1  6  0  0  0
 21 22  1  0  0  0  0
 21 27  1  0  0  0  0
 23 24  1  6  0  0  0
 23 29  1  0  0  0  0
 25 26  1  6  0  0  0
 25 31  1  0  0  0  0
 27  7  1  1  0  0  0
 27 28  1  0  0  0  0
 29 30  1  1  0  0  0
 29 33  1  0  0  0  0
 31 32  1  1  0  0  0
 31 35  1  0  0  0  0
 33 34  1  0  0  0  0
 33 37  1  1  0  0  0
 35 36  1  6  0  0  0
 37 38  1  0  0  0  0
M  END
>  <CHROM.1>
-146.21103631,-96.28519244,-178.16510237,142.93848160,165.49875214,-99.74019905
91.55078574,-99.89624009,-61.93492488,-126.08373451,176.70767353,2.33859362
34.99317100,-1.40231496,0.25394251,0.19480587,-2.25368322

>  <Name>
1nta_lig

>  <RI>
0

>  <Rbt.Current_Directory>
/home/itssahil/PROJECTS/Mol_Feturizer/New_Systems/rnas/1nta

>  <Rbt.Executable>
rbdock ($Id: //depot/dev/client3/rdock/2013.1/src/exe/rbdock.cxx#4 $)

>  <Rbt.Library>
libRbt.so (2013.1, Build901 2013/11/27)

>  <Rbt.Parameter_File>
/export/apps/rDock/src/rDock_2013.1_src/data/scripts/dock_solv.prm

>  <Rbt.Receptor>
prm/pocket_docking_3.prm

>  <SCORE>
-21.4514

>  <SCORE.INTER>
-1.28673

>  <SCORE.INTER.CONST>
1

>  <SCORE.INTER.POLAR>
-0.117716

>  <SCORE.INTER.ROT>
11

>  <SCORE.INTER.SOLV>
19.6627

>  <SCORE.INTER.VDW>
-17.953

>  <SCORE.INTER.norm>
-0.0321682

>  <SCORE.INTRA>
-20.1646

>  <SCORE.INTRA.DIHEDRAL>
-2.65335

>  <SCORE.INTRA.DIHEDRAL.0>
19.0336

>  <SCORE.INTRA.POLAR>
0

>  <SCORE.INTRA.POLAR.0>
0

>  <SCORE.INTRA.REPUL>
0

>  <SCORE.INTRA.REPUL.0>
0

>  <SCORE.INTRA.SOLV>
-1.99049

>  <SCORE.INTRA.SOLV.lig_0>
-97.5861

>  <SCORE.INTRA.VDW>
-17.8427

>  <SCORE.INTRA.VDW.0>
11.7669

>  <SCORE.INTRA.norm>
-0.504116

>  <SCORE.RESTR>
0

>  <SCORE.RESTR.CAVITY>
0

>  <SCORE.RESTR.norm>
0

>  <SCORE.SYSTEM>
0

>  <SCORE.SYSTEM.CONST>
0

>  <SCORE.SYSTEM.DIHEDRAL>
0

>  <SCORE.SYSTEM.SOLV>
0

>  <SCORE.SYSTEM.norm>
0

>  <SCORE.heavy>
40

>  <SCORE.norm>
-0.536284

>  <RMSD>
2.337

$$$$
1nta_lig
 OpenBabel11021811403D
libRbt.so/2013.1/901 2013/11/27
 40 42  0  0  0  0  0  0  0  0999 V2000
    8.4604   32.6494   -0.8525 C   0  0  0  0  0  0  0  0  0  0  0  0
    9.5414   33.0385   -0.2868 N   0  0  0  0  0  0  0  0  0  0  0  0
    0.3267   37.7539   -3.4279 C   0  0  0  0  0  0  0  0  0  0  0  0
    1.4376   38.1990   -3.6153 O   0  0  0  0  0  0  0  0  0  0  0  0
    4.1064   36.4239    1.5412 C   0  0  0  0  0  0  0  0  0  0  0  0
    4.9253   36.4153    2.5606 N   0  0  0  0  0  0  0  0  0  0  0  0
    0.0703   34.6449   -4.5809 C   0  0  0  0  0  0  0  0  0  0  0  0
   -4.1771   37.0838   -0.7993 C   0  0  0  0  0  0  0  0  0  0  0  0
    6.3376   33.6951   -0.8302 C   0  0  2  0  0  0  0  0  0  0  0  0
    7.3547   32.8073   -0.1403 N   0  0  0  0  0  0  0  0  0  0  0  0
    1.3501   35.2596   -1.2832 C   0  0  2  0  0  0  0  0  0  0  0  0
   -1.1601   37.6642   -0.3218 C   0  0  1  0  0  0  0  0  0  0  0  0
   -0.4338   36.4871   -0.3887 O   0  0  0  0  0  0  0  0  0  0  0  0
    5.8988   34.8300    0.1145 C   0  0  1  0  0  0  0  0  0  0  0  0
    7.0281   35.6075    0.3755 O   0  0  0  0  0  0  0  0  0  0  0  0
    0.4561   36.4920   -1.3671 C   0  0  2  0  0  0  0  0  0  0  0  0
   -2.3860   37.6195    0.5636 C   0  0  1  0  0  0  0  0  0  0  0  0
   -3.2124   36.5415    0.1426 N   0  0  0  0  0  0  0  0  0  0  0  0
    4.8492   35.7490   -0.5247 C   0  0  2  0  0  0  0  0  0  0  0  0
    4.4000   36.8512    0.3593 N   0  0  0  0  0  0  0  0  0  0  0  0
    0.0277   36.4342   -2.7686 C   0  0  1  0  0  0  0  0  0  0  0  0
   -1.3697   36.1353   -2.7722 O   0  0  0  0  0  0  0  0  0  0  0  0
   -2.0359   37.4265    1.8926 C   0  0  2  0  0  0  0  0  0  0  0  0
   -3.1731   37.6904    2.6750 O   0  0  0  0  0  0  0  0  0  0  0  0
    3.6494   34.8980   -0.9093 C   0  0  1  0  0  0  0  0  0  0  0  0
    2.6838   35.7518   -1.5029 O   0  0  0  0  0  0  0  0  0  0  0  0
    0.7395   35.3355   -3.4332 C   0  0  1  0  0  0  0  0  0  0  0  0
    1.0377   34.4295   -2.3782 O   0  0  0  0  0  0  0  0  0  0  0  0
   -0.9268   38.3672    2.2845 C   0  0  1  0  0  0  0  0  0  0  0  0
   -0.4345   37.9917    3.5371 O   0  0  0  0  0  0  0  0  0  0  0  0
    4.0803   33.7779   -1.8985 C   0  0  2  0  0  0  0  0  0  0  0  0
    2.9405   32.9976   -2.2553 O   0  0  0  0  0  0  0  0  0  0  0  0
    0.1859   38.2738    1.2967 C   0  0  1  0  0  0  0  0  0  0  0  0
   -0.3165   38.6550    0.0487 O   0  0  0  0  0  0  0  0  0  0  0  0
    5.1266   32.8723   -1.2156 C   0  0  1  0  0  0  0  0  0  0  0  0
    5.5373   31.8290   -2.1144 O   0  0  0  0  0  0  0  0  0  0  0  0
    1.3341   39.2386    1.6530 C   0  0  0  0  0  0  0  0  0  0  0  0
    0.8611   40.5784    1.5739 O   0  0  0  0  0  0  0  0  0  0  0  0
    8.4449   32.1332   -2.0338 N   0  0  0  0  0  0  0  0  0  0  0  0
    2.9248   35.9630    1.6746 N   0  0  0  0  0  0  0  0  0  0  0  0
  1  2  1  0  0  0  0
  1 39  1  0  0  0  0
  3  4  1  0  0  0  0
  5  6  1  0  0  0  0
  5 40  1  0  0  0  0
  9 10  1  1  0  0  0
  9 14  1  0  0  0  0
  9 35  1  0  0  0  0
 10  1  1  0  0  0  0
 11 16  1  0  0  0  0
 11 28  1  0  0  0  0
 11 26  1  6  0  0  0
 12 17  1  0  0  0  0
 12 34  1  0  0  0  0
 12 13  1  1  0  0  0
 14 15  1  6  0  0  0
 14 19  1  0  0  0  0
 16 13  1  1  0  0  0
 16 21  1  0  0  0  0
 17 18  1  6  0  0  0
 17 23  1  0  0  0  0
 18  8  1  0  0  0  0
 19 20  1  1  0  0  0
 19 25  1  0  0  0  0
 20  5  1  0  0  0  0
 21  3  1  6  0  0  0
 21 22  1  0  0  0  0
 21 27  1  0  0  0  0
 23 24  1  1  0  0  0
 23 29  1  0  0  0  0
 25 26  1  6  0  0  0
 25 31  1  0  0  0  0
 27  7  1  6  0  0  0
 27 28  1  0  0  0  0
 29 30  1  1  0  0  0
 29 33  1  0  0  0  0
 31 32  1  1  0  0  0
 31 35  1  0  0  0  0
 33 34  1  0  0  0  0
 33 37  1  1  0  0  0
 35 36  1  6  0  0  0
 37 38  1  0  0  0  0
M  END
>  <CHROM.1>
-127.12004820,120.55730397,154.77019493,167.22552319,172.48367556,-93.37159650
-47.60917207,94.41190566,65.54460095,-150.67505990,-63.69985184,2.11165313
35.93754714,-0.49355686,-0.35502981,-0.34620299,1.01840960

>  <Name>
1nta_lig

>  <RI>
0

>  <Rbt.Current_Directory>
/home/itssahil/PROJECTS/Mol_Feturizer/New_Systems/rnas/1nta

>  <Rbt.Executable>
rbdock ($Id: //depot/dev/client3/rdock/2013.1/src/exe/rbdock.cxx#4 $)

>  <Rbt.Library>
libRbt.so (2013.1, Build901 2013/11/27)

>  <Rbt.Parameter_File>
/export/apps/rDock/src/rDock_2013.1_src/data/scripts/dock_solv.prm

>  <Rbt.Receptor>
prm/pocket_docking_3.prm

>  <SCORE>
-20.2638

>  <SCORE.INTER>
-1.11089

>  <SCORE.INTER.CONST>
1

>  <SCORE.INTER.POLAR>
-0.8

>  <SCORE.INTER.ROT>
11

>  <SCORE.INTER.SOLV>
23.453

>  <SCORE.INTER.VDW>
-16.8249

>  <SCORE.INTER.norm>
-0.0277722

>  <SCORE.INTRA>
-19.1589

>  <SCORE.INTRA.DIHEDRAL>
-8.58531

>  <SCORE.INTRA.DIHEDRAL.0>
19.0336

>  <SCORE.INTRA.POLAR>
0

>  <SCORE.INTRA.POLAR.0>
0

>  <SCORE.INTRA.REPUL>
0

>  <SCORE.INTRA.REPUL.0>
0

>  <SCORE.INTRA.SOLV>
-0.287736

>  <SCORE.INTRA.SOLV.lig_0>
-97.5861

>  <SCORE.INTRA.VDW>
-14.7224

>  <SCORE.INTRA.VDW.0>
11.7669

>  <SCORE.INTRA.norm>
-0.478973

>  <SCORE.RESTR>
0.00603567

>  <SCORE.RESTR.CAVITY>
0.00603567

>  <SCORE.RESTR.norm>
0.000150892

>  <SCORE.SYSTEM>
0

>  <SCORE.SYSTEM.CONST>
0

>  <SCORE.SYSTEM.DIHEDRAL>
0

>  <SCORE.SYSTEM.SOLV>
0

>  <SCORE.SYSTEM.norm>
0

>  <SCORE.heavy>
40

>  <SCORE.norm>
-0.506594

>  <RMSD>
2.396

$$$$
1nta_lig
 OpenBabel11021811403D
libRbt.so/2013.1/901 2013/11/27
 40 42  0  0  0  0  0  0  0  0999 V2000
    9.4918   33.3087   -1.0802 C   0  0  0  0  0  0  0  0  0  0  0  0
   10.2628   32.7876   -0.2004 N   0  0  0  0  0  0  0  0  0  0  0  0
    0.2046   34.9827   -4.2227 C   0  0  0  0  0  0  0  0  0  0  0  0
   -0.2248   34.4721   -5.2337 O   0  0  0  0  0  0  0  0  0  0  0  0
    4.5670   36.3473    0.6057 C   0  0  0  0  0  0  0  0  0  0  0  0
    3.9248   37.3534    0.0719 N   0  0  0  0  0  0  0  0  0  0  0  0
    0.4592   31.7917   -3.3203 C   0  0  0  0  0  0  0  0  0  0  0  0
   -1.3351   35.3442    1.4706 C   0  0  0  0  0  0  0  0  0  0  0  0
    7.2385   33.4674   -1.7859 C   0  0  2  0  0  0  0  0  0  0  0  0
    8.4165   32.5993   -1.3887 N   0  0  0  0  0  0  0  0  0  0  0  0
    2.0588   34.3596   -1.3868 C   0  0  2  0  0  0  0  0  0  0  0  0
   -0.9199   36.3956   -1.3591 C   0  0  1  0  0  0  0  0  0  0  0  0
    0.2071   35.7185   -0.9245 O   0  0  0  0  0  0  0  0  0  0  0  0
    6.4232   33.8561   -0.5380 C   0  0  1  0  0  0  0  0  0  0  0  0
    7.2574   34.6247    0.2752 O   0  0  0  0  0  0  0  0  0  0  0  0
    0.9159   35.2158   -1.9215 C   0  0  2  0  0  0  0  0  0  0  0  0
   -1.9287   36.7318   -0.2830 C   0  0  1  0  0  0  0  0  0  0  0  0
   -2.2905   35.5336    0.3920 N   0  0  0  0  0  0  0  0  0  0  0  0
    5.2017   34.7181   -0.8837 C   0  0  2  0  0  0  0  0  0  0  0  0
    4.3903   35.1072    0.2946 N   0  0  0  0  0  0  0  0  0  0  0  0
    0.3033   34.2969   -2.8865 C   0  0  1  0  0  0  0  0  0  0  0  0
   -0.9797   33.9354   -2.3712 O   0  0  0  0  0  0  0  0  0  0  0  0
   -1.3987   37.6250    0.6375 C   0  0  2  0  0  0  0  0  0  0  0  0
   -2.4611   38.1131    1.4174 O   0  0  0  0  0  0  0  0  0  0  0  0
    4.3303   33.9338   -1.8519 C   0  0  1  0  0  0  0  0  0  0  0  0
    3.2045   34.7366   -2.1709 O   0  0  0  0  0  0  0  0  0  0  0  0
    1.1280   33.0851   -2.9713 C   0  0  1  0  0  0  0  0  0  0  0  0
    1.7724   33.0171   -1.7052 O   0  0  0  0  0  0  0  0  0  0  0  0
   -0.7274   38.7718   -0.0715 C   0  0  1  0  0  0  0  0  0  0  0  0
   -0.0023   39.5194    0.8601 O   0  0  0  0  0  0  0  0  0  0  0  0
    5.1370   33.5779   -3.1330 C   0  0  2  0  0  0  0  0  0  0  0  0
    4.3005   32.8523   -4.0325 O   0  0  0  0  0  0  0  0  0  0  0  0
    0.2235   38.2461   -1.0921 C   0  0  1  0  0  0  0  0  0  0  0  0
   -0.5126   37.5034   -2.0205 O   0  0  0  0  0  0  0  0  0  0  0  0
    6.3485   32.7048   -2.7442 C   0  0  1  0  0  0  0  0  0  0  0  0
    7.1071   32.3641   -3.9160 O   0  0  0  0  0  0  0  0  0  0  0  0
    0.9172   39.3921   -1.8548 C   0  0  0  0  0  0  0  0  0  0  0  0
   -0.0248   40.4310   -2.0962 O   0  0  0  0  0  0  0  0  0  0  0  0
    9.7437   34.4449   -1.6349 N   0  0  0  0  0  0  0  0  0  0  0  0
    5.4613   36.5639    1.4888 N   0  0  0  0  0  0  0  0  0  0  0  0
  1  2  1  0  0  0  0
  1 39  1  0  0  0  0
  3  4  1  0  0  0  0
  5  6  1  0  0  0  0
  5 40  1  0  0  0  0
  9 10  1  1  0  0  0
  9 14  1  0  0  0  0
  9 35  1  0  0  0  0
 10  1  1  0  0  0  0
 11 16  1  0  0  0  0
 11 28  1  0  0  0  0
 11 26  1  6  0  0  0
 12 17  1  0  0  0  0
 12 34  1  0  0  0  0
 12 13  1  1  0  0  0
 14 15  1  1  0  0  0
 14 19  1  0  0  0  0
 16 13  1  1  0  0  0
 16 21  1  0  0  0  0
 17 18  1  1  0  0  0
 17 23  1  0  0  0  0
 18  8  1  0  0  0  0
 19 20  1  1  0  0  0
 19 25  1  0  0  0  0
 20  5  1  0  0  0  0
 21  3  1  6  0  0  0
 21 22  1  0  0  0  0
 21 27  1  0  0  0  0
 23 24  1  1  0  0  0
 23 29  1  0  0  0  0
 25 26  1  6  0  0  0
 25 31  1  0  0  0  0
 27  7  1  1  0  0  0
 27 28  1  0  0  0  0
 29 30  1  1  0  0  0
 29 33  1  0  0  0  0
 31 32  1  6  0  0  0
 31 35  1  0  0  0  0
 33 34  1  0  0  0  0
 33 37  1  6  0  0  0
 35 36  1  6  0  0  0
 37 38  1  0  0  0  0
M  END
>  <CHROM.1>
-88.25432055,149.12042894,-175.25319118,167.16101939,-174.02798809,87.86308284
105.50852340,85.08498674,177.94642104,-98.68592973,-39.05882396,2.64841273
35.26112019,-1.35560479,-0.36332383,-0.21006016,0.70252849

>  <Name>
1nta_lig

>  <RI>
0

>  <Rbt.Current_Directory>
/home/itssahil/PROJECTS/Mol_Feturizer/New_Systems/rnas/1nta

>  <Rbt.Executable>
rbdock ($Id: //depot/dev/client3/rdock/2013.1/src/exe/rbdock.cxx#4 $)

>  <Rbt.Library>
libRbt.so (2013.1, Build901 2013/11/27)

>  <Rbt.Parameter_File>
/export/apps/rDock/src/rDock_2013.1_src/data/scripts/dock_solv.prm

>  <Rbt.Receptor>
prm/pocket_docking_2.prm

>  <SCORE>
-9.50244

>  <SCORE.INTER>
-4.27761

>  <SCORE.INTER.CONST>
1

>  <SCORE.INTER.POLAR>
-0.602694

>  <SCORE.INTER.ROT>
11

>  <SCORE.INTER.SOLV>
22.4064

>  <SCORE.INTER.VDW>
-19.2449

>  <SCORE.INTER.norm>
-0.10694

>  <SCORE.INTRA>
-6.21406

>  <SCORE.INTRA.DIHEDRAL>
-7.7502

>  <SCORE.INTRA.DIHEDRAL.0>
19.0336

>  <SCORE.INTRA.POLAR>
0

>  <SCORE.INTRA.POLAR.0>
0

>  <SCORE.INTRA.REPUL>
0

>  <SCORE.INTRA.REPUL.0>
0

>  <SCORE.INTRA.SOLV>
-2.69805

>  <SCORE.INTRA.SOLV.lig_0>
-97.5861

>  <SCORE.INTRA.VDW>
-0.989933

>  <SCORE.INTRA.VDW.0>
11.7669

>  <SCORE.INTRA.norm>
-0.155352

>  <SCORE.RESTR>
0.989228

>  <SCORE.RESTR.CAVITY>
0.989228

>  <SCORE.RESTR.norm>
0.0247307

>  <SCORE.SYSTEM>
0

>  <SCORE.SYSTEM.CONST>
0

>  <SCORE.SYSTEM.DIHEDRAL>
0

>  <SCORE.SYSTEM.SOLV>
0

>  <SCORE.SYSTEM.norm>
0

>  <SCORE.heavy>
40

>  <SCORE.norm>
-0.237561

>  <RMSD>
2.440

$$$$
1nta_lig
 OpenBabel11021811403D
libRbt.so/2013.1/901 2013/11/27
 40 42  0  0  0  0  0  0  0  0999 V2000
    9.7983   33.0599   -1.1504 C   0  0  0  0  0  0  0  0  0  0  0  0
   10.5228   32.0165   -1.3133 N   0  0  0  0  0  0  0  0  0  0  0  0
    0.6401   35.3501   -3.8802 C   0  0  0  0  0  0  0  0  0  0  0  0
    1.5902   36.0450   -4.1657 O   0  0  0  0  0  0  0  0  0  0  0  0
    4.8584   36.7311    0.9088 C   0  0  0  0  0  0  0  0  0  0  0  0
    5.6719   37.1371    1.8485 N   0  0  0  0  0  0  0  0  0  0  0  0
    0.9619   32.0401   -3.9244 C   0  0  0  0  0  0  0  0  0  0  0  0
   -3.3733   35.1467   -1.8174 C   0  0  0  0  0  0  0  0  0  0  0  0
    7.4989   33.5973   -0.9935 C   0  0  2  0  0  0  0  0  0  0  0  0
    8.7091   32.8893   -0.4161 N   0  0  0  0  0  0  0  0  0  0  0  0
    2.2170   33.9505   -1.1557 C   0  0  2  0  0  0  0  0  0  0  0  0
   -0.5999   36.1463   -0.7267 C   0  0  1  0  0  0  0  0  0  0  0  0
    0.2601   35.0784   -0.5334 O   0  0  0  0  0  0  0  0  0  0  0  0
    6.6478   34.2000    0.1403 C   0  0  1  0  0  0  0  0  0  0  0  0
    7.4336   35.1613    0.7778 O   0  0  0  0  0  0  0  0  0  0  0  0
    1.0940   34.9056   -1.5452 C   0  0  2  0  0  0  0  0  0  0  0  0
   -1.9899   35.9703   -0.1560 C   0  0  1  0  0  0  0  0  0  0  0  0
   -2.5490   34.7726   -0.6805 N   0  0  0  0  0  0  0  0  0  0  0  0
    5.3937   34.9108   -0.3857 C   0  0  2  0  0  0  0  0  0  0  0  0
    4.5475   35.4996    0.6799 N   0  0  0  0  0  0  0  0  0  0  0  0
    0.6334   34.3019   -2.7999 C   0  0  1  0  0  0  0  0  0  0  0  0
   -0.6761   33.7811   -2.5635 O   0  0  0  0  0  0  0  0  0  0  0  0
   -1.9542   35.8822    1.2286 C   0  0  2  0  0  0  0  0  0  0  0  0
   -3.2717   36.0195    1.6980 O   0  0  0  0  0  0  0  0  0  0  0  0
    4.5738   33.9000   -1.1717 C   0  0  1  0  0  0  0  0  0  0  0  0
    3.4176   34.5631   -1.6585 O   0  0  0  0  0  0  0  0  0  0  0  0
    1.5235   33.1845   -3.1390 C   0  0  1  0  0  0  0  0  0  0  0  0
    2.0346   32.7571   -1.8824 O   0  0  0  0  0  0  0  0  0  0  0  0
   -1.0992   36.9816    1.8020 C   0  0  1  0  0  0  0  0  0  0  0  0
   -0.8855   36.7292    3.1596 O   0  0  0  0  0  0  0  0  0  0  0  0
    5.4154   33.3218   -2.3448 C   0  0  2  0  0  0  0  0  0  0  0  0
    4.6267   32.3843   -3.0758 O   0  0  0  0  0  0  0  0  0  0  0  0
    0.2239   37.0012    1.1154 C   0  0  1  0  0  0  0  0  0  0  0  0
   -0.0013   37.2580   -0.2406 O   0  0  0  0  0  0  0  0  0  0  0  0
    6.6593   32.6088   -1.7744 C   0  0  1  0  0  0  0  0  0  0  0  0
    7.4505   32.0661   -2.8442 O   0  0  0  0  0  0  0  0  0  0  0  0
    1.1223   38.1284    1.6618 C   0  0  0  0  0  0  0  0  0  0  0  0
    0.5243   39.3863    1.3701 O   0  0  0  0  0  0  0  0  0  0  0  0
   10.1020   34.2008   -1.6684 N   0  0  0  0  0  0  0  0  0  0  0  0
    4.2887   37.5851    0.1521 N   0  0  0  0  0  0  0  0  0  0  0  0
  1  2  1  0  0  0  0
  1 39  1  0  0  0  0
  3  4  1  0  0  0  0
  5  6  1  0  0  0  0
  5 40  1  0  0  0  0
  9 10  1  1  0  0  0
  9 14  1  0  0  0  0
  9 35  1  0  0  0  0
 10  1  1  0  0  0  0
 11 16  1  0  0  0  0
 11 28  1  0  0  0  0
 11 26  1  6  0  0  0
 12 17  1  0  0  0  0
 12 34  1  0  0  0  0
 12 13  1  1  0  0  0
 14 15  1  6  0  0  0
 14 19  1  0  0  0  0
 16 13  1  1  0  0  0
 16 21  1  0  0  0  0
 17 18  1  6  0  0  0
 17 23  1  0  0  0  0
 18  8  1  0  0  0  0
 19 20  1  1  0  0  0
 19 25  1  0  0  0  0
 20  5  1  0  0  0  0
 21  3  1  6  0  0  0
 21 22  1  0  0  0  0
 21 27  1  0  0  0  0
 23 24  1  1  0  0  0
 23 29  1  0  0  0  0
 25 26  1  6  0  0  0
 25 31  1  0  0  0  0
 27  7  1  1  0  0  0
 27 28  1  0  0  0  0
 29 30  1  1  0  0  0
 29 33  1  0  0  0  0
 31 32  1  1  0  0  0
 31 35  1  0  0  0  0
 33 34  1  0  0  0  0
 33 37  1  1  0  0  0
 35 36  1  6  0  0  0
 37 38  1  0  0  0  0
M  END
>  <CHROM.1>
-141.64070033,-137.85984542,169.97897790,145.56409701,166.70377522,-96.45071028
92.37740963,-95.51592140,52.93322879,-119.85253478,-63.93880232,2.79488268
34.92558006,-0.79454948,-0.28050280,-0.13188356,0.85971907

>  <Name>
1nta_lig

>  <RI>
0

>  <Rbt.Current_Directory>
/home/itssahil/PROJECTS/Mol_Feturizer/New_Systems/rnas/1nta

>  <Rbt.Executable>
rbdock ($Id: //depot/dev/client3/rdock/2013.1/src/exe/rbdock.cxx#4 $)

>  <Rbt.Library>
libRbt.so (2013.1, Build901 2013/11/27)

>  <Rbt.Parameter_File>
/export/apps/rDock/src/rDock_2013.1_src/data/scripts/dock_solv.prm

>  <Rbt.Receptor>
prm/pocket_docking_3.prm

>  <SCORE>
-31.4601

>  <SCORE.INTER>
-10.9088

>  <SCORE.INTER.CONST>
1

>  <SCORE.INTER.POLAR>
-1.96655

>  <SCORE.INTER.ROT>
11

>  <SCORE.INTER.SOLV>
23.0737

>  <SCORE.INTER.VDW>
-19.3419

>  <SCORE.INTER.norm>
-0.272719

>  <SCORE.INTRA>
-20.5514

>  <SCORE.INTRA.DIHEDRAL>
-2.38534

>  <SCORE.INTRA.DIHEDRAL.0>
19.0336

>  <SCORE.INTRA.POLAR>
0

>  <SCORE.INTRA.POLAR.0>
0

>  <SCORE.INTRA.REPUL>
0

>  <SCORE.INTRA.REPUL.0>
0

>  <SCORE.INTRA.SOLV>
-2.71143

>  <SCORE.INTRA.SOLV.lig_0>
-97.5861

>  <SCORE.INTRA.VDW>
-18.003

>  <SCORE.INTRA.VDW.0>
11.7669

>  <SCORE.INTRA.norm>
-0.513784

>  <SCORE.RESTR>
0

>  <SCORE.RESTR.CAVITY>
0

>  <SCORE.RESTR.norm>
0

>  <SCORE.SYSTEM>
0

>  <SCORE.SYSTEM.CONST>
0

>  <SCORE.SYSTEM.DIHEDRAL>
0

>  <SCORE.SYSTEM.SOLV>
0

>  <SCORE.SYSTEM.norm>
0

>  <SCORE.heavy>
40

>  <SCORE.norm>
-0.786503

>  <RMSD>
2.448

$$$$
1nta_lig
 OpenBabel11021811403D
libRbt.so/2013.1/901 2013/11/27
 40 42  0  0  0  0  0  0  0  0999 V2000
    8.8998   34.8482    0.0364 C   0  0  0  0  0  0  0  0  0  0  0  0
    8.8968   35.9800    0.6355 N   0  0  0  0  0  0  0  0  0  0  0  0
   -0.0772   34.8830   -4.0051 C   0  0  0  0  0  0  0  0  0  0  0  0
   -0.1657   34.5322   -5.1611 O   0  0  0  0  0  0  0  0  0  0  0  0
    2.8702   37.2972    0.4995 C   0  0  0  0  0  0  0  0  0  0  0  0
    3.2862   38.4483    0.9595 N   0  0  0  0  0  0  0  0  0  0  0  0
    0.8482   31.7086   -3.6468 C   0  0  0  0  0  0  0  0  0  0  0  0
   -2.4977   38.3832   -0.6773 C   0  0  0  0  0  0  0  0  0  0  0  0
    6.6000   34.5439   -0.4314 C   0  0  2  0  0  0  0  0  0  0  0  0
    7.8541   34.0718    0.2781 N   0  0  0  0  0  0  0  0  0  0  0  0
    1.3553   34.0605   -0.9819 C   0  0  2  0  0  0  0  0  0  0  0  0
   -0.6703   35.8964    0.1585 C   0  0  1  0  0  0  0  0  0  0  0  0
   -0.8398   34.8340   -0.7133 O   0  0  0  0  0  0  0  0  0  0  0  0
    5.5989   35.1175    0.5893 C   0  0  1  0  0  0  0  0  0  0  0  0
    6.1995   36.2350    1.1710 O   0  0  0  0  0  0  0  0  0  0  0  0
    0.1379   34.7403   -1.5990 C   0  0  2  0  0  0  0  0  0  0  0  0
   -1.9469   36.5564    0.6312 C   0  0  1  0  0  0  0  0  0  0  0  0
   -2.7017   36.9545   -0.5064 N   0  0  0  0  0  0  0  0  0  0  0  0
    4.2974   35.5906   -0.0718 C   0  0  2  0  0  0  0  0  0  0  0  0
    3.3077   36.1450    0.8828 N   0  0  0  0  0  0  0  0  0  0  0  0
   -0.0345   33.9516   -2.8234 C   0  0  1  0  0  0  0  0  0  0  0  0
   -1.2461   33.2075   -2.6807 O   0  0  0  0  0  0  0  0  0  0  0  0
   -2.7087   35.6825    1.3940 C   0  0  2  0  0  0  0  0  0  0  0  0
   -3.7077   36.4358    2.0339 O   0  0  0  0  0  0  0  0  0  0  0  0
    3.6800   34.4060   -0.7980 C   0  0  1  0  0  0  0  0  0  0  0  0
    2.4792   34.8498   -1.4101 O   0  0  0  0  0  0  0  0  0  0  0  0
    1.0819   33.0045   -2.9341 C   0  0  1  0  0  0  0  0  0  0  0  0
    1.4921   32.7959   -1.5883 O   0  0  0  0  0  0  0  0  0  0  0  0
   -1.8497   35.0047    2.4291 C   0  0  1  0  0  0  0  0  0  0  0  0
   -2.5788   33.9665    3.0148 O   0  0  0  0  0  0  0  0  0  0  0  0
    4.6710   33.8517   -1.8607 C   0  0  2  0  0  0  0  0  0  0  0  0
    4.0704   32.7488   -2.5378 O   0  0  0  0  0  0  0  0  0  0  0  0
   -0.6428   34.4200    1.7780 C   0  0  1  0  0  0  0  0  0  0  0  0
    0.0807   35.4672    1.1989 O   0  0  0  0  0  0  0  0  0  0  0  0
    5.9596   33.3789   -1.1558 C   0  0  1  0  0  0  0  0  0  0  0  0
    6.8889   32.8616   -2.1221 O   0  0  0  0  0  0  0  0  0  0  0  0
    0.2736   33.7333    2.8100 C   0  0  0  0  0  0  0  0  0  0  0  0
   -0.4012   32.6070    3.3587 O   0  0  0  0  0  0  0  0  0  0  0  0
    9.8566   34.4823   -0.7464 N   0  0  0  0  0  0  0  0  0  0  0  0
    1.9467   37.2629   -0.3794 N   0  0  0  0  0  0  0  0  0  0  0  0
  1  2  1  0  0  0  0
  1 39  1  0  0  0  0
  3  4  1  0  0  0  0
  5  6  1  0  0  0  0
  5 40  1  0  0  0  0
  9 10  1  1  0  0  0
  9 14  1  0  0  0  0
  9 35  1  0  0  0  0
 10  1  1  0  0  0  0
 11 16  1  0  0  0  0
 11 28  1  0  0  0  0
 11 26  1  6  0  0  0
 12 17  1  0  0  0  0
 12 34  1  0  0  0  0
 12 13  1  6  0  0  0
 14 15  1  6  0  0  0
 14 19  1  0  0  0  0
 16 13  1  1  0  0  0
 16 21  1  0  0  0  0
 17 18  1  6  0  0  0
 17 23  1  0  0  0  0
 18  8  1  0  0  0  0
 19 20  1  1  0  0  0
 19 25  1  0  0  0  0
 20  5  1  0  0  0  0
 21  3  1  6  0  0  0
 21 22  1  0  0  0  0
 21 27  1  0  0  0  0
 23 24  1  1  0  0  0
 23 29  1  0  0  0  0
 25 26  1  6  0  0  0
 25 31  1  0  0  0  0
 27  7  1  1  0  0  0
 27 28  1  0  0  0  0
 29 30  1  6  0  0  0
 29 33  1  0  0  0  0
 31 32  1  1  0  0  0
 31 35  1  0  0  0  0
 33 34  1  0  0  0  0
 33 37  1  1  0  0  0
 35 36  1  6  0  0  0
 37 38  1  0  0  0  0
M  END
>  <CHROM.1>
-109.08582277,74.38769910,174.24042926,146.94345850,80.29124385,-101.42932763
129.57352711,-99.96765713,177.39426367,-123.65582244,65.73848535,1.96029704
34.84887230,-0.38186928,-0.12197685,-0.02800021,1.10615786

>  <Name>
1nta_lig

>  <RI>
0

>  <Rbt.Current_Directory>
/home/itssahil/PROJECTS/Mol_Feturizer/New_Systems/rnas/1nta

>  <Rbt.Executable>
rbdock ($Id: //depot/dev/client3/rdock/2013.1/src/exe/rbdock.cxx#4 $)

>  <Rbt.Library>
libRbt.so (2013.1, Build901 2013/11/27)

>  <Rbt.Parameter_File>
/export/apps/rDock/src/rDock_2013.1_src/data/scripts/dock_solv.prm

>  <Rbt.Receptor>
prm/pocket_docking_5.prm

>  <SCORE>
-23.9899

>  <SCORE.INTER>
-4.76642

>  <SCORE.INTER.CONST>
1

>  <SCORE.INTER.POLAR>
-1.87462

>  <SCORE.INTER.ROT>
11

>  <SCORE.INTER.SOLV>
24.2348

>  <SCORE.INTER.VDW>
-15.9405

>  <SCORE.INTER.norm>
-0.119161

>  <SCORE.INTRA>
-19.2235

>  <SCORE.INTRA.DIHEDRAL>
-1.03483

>  <SCORE.INTRA.DIHEDRAL.0>
19.0336

>  <SCORE.INTRA.POLAR>
0

>  <SCORE.INTRA.POLAR.0>
0

>  <SCORE.INTRA.REPUL>
0.00690901

>  <SCORE.INTRA.REPUL.0>
0

>  <SCORE.INTRA.SOLV>
-0.981665

>  <SCORE.INTRA.SOLV.lig_0>
-97.5861

>  <SCORE.INTRA.VDW>
-18.2498

>  <SCORE.INTRA.VDW.0>
11.7669

>  <SCORE.INTRA.norm>
-0.480587

>  <SCORE.RESTR>
0

>  <SCORE.RESTR.CAVITY>
0

>  <SCORE.RESTR.norm>
0

>  <SCORE.SYSTEM>
0

>  <SCORE.SYSTEM.CONST>
0

>  <SCORE.SYSTEM.DIHEDRAL>
0

>  <SCORE.SYSTEM.SOLV>
0

>  <SCORE.SYSTEM.norm>
0

>  <SCORE.heavy>
40

>  <SCORE.norm>
-0.599748

>  <RMSD>
2.483

$$$$
1nta_lig
 OpenBabel11021811403D
libRbt.so/2013.1/901 2013/11/27
 40 42  0  0  0  0  0  0  0  0999 V2000
    9.4577   33.2833   -1.2089 C   0  0  0  0  0  0  0  0  0  0  0  0
   10.1112   32.5153   -1.9984 N   0  0  0  0  0  0  0  0  0  0  0  0
    0.3444   34.8022   -5.0583 C   0  0  0  0  0  0  0  0  0  0  0  0
   -0.1840   34.4672   -6.0956 O   0  0  0  0  0  0  0  0  0  0  0  0
    3.7581   35.7119    0.5692 C   0  0  0  0  0  0  0  0  0  0  0  0
    4.1785   35.7824    1.8054 N   0  0  0  0  0  0  0  0  0  0  0  0
    0.4135   31.5421   -4.4038 C   0  0  0  0  0  0  0  0  0  0  0  0
   -3.4677   35.0652   -2.9138 C   0  0  0  0  0  0  0  0  0  0  0  0
    7.1192   33.5466   -1.4593 C   0  0  2  0  0  0  0  0  0  0  0  0
    8.2819   32.8229   -0.8086 N   0  0  0  0  0  0  0  0  0  0  0  0
    1.9398   33.8808   -2.1473 C   0  0  2  0  0  0  0  0  0  0  0  0
   -0.7499   36.2809   -2.1366 C   0  0  1  0  0  0  0  0  0  0  0  0
    0.1053   35.2743   -1.7208 O   0  0  0  0  0  0  0  0  0  0  0  0
    5.9739   33.7268   -0.4450 C   0  0  1  0  0  0  0  0  0  0  0  0
    6.4568   34.5420    0.5799 O   0  0  0  0  0  0  0  0  0  0  0  0
    0.8746   34.8231   -2.6974 C   0  0  2  0  0  0  0  0  0  0  0  0
   -2.1150   36.2817   -1.4844 C   0  0  1  0  0  0  0  0  0  0  0  0
   -2.7109   35.0046   -1.6746 N   0  0  0  0  0  0  0  0  0  0  0  0
    4.7578   34.4347   -1.0571 C   0  0  2  0  0  0  0  0  0  0  0  0
    3.6332   34.6210   -0.1092 N   0  0  0  0  0  0  0  0  0  0  0  0
    0.3104   34.0094   -3.7793 C   0  0  1  0  0  0  0  0  0  0  0  0
   -1.0219   33.6616   -3.3970 O   0  0  0  0  0  0  0  0  0  0  0  0
   -2.0186   36.5358   -0.1235 C   0  0  2  0  0  0  0  0  0  0  0  0
   -3.3122   36.8136    0.3503 O   0  0  0  0  0  0  0  0  0  0  0  0
    4.2797   33.6103   -2.2418 C   0  0  1  0  0  0  0  0  0  0  0  0
    3.1577   34.2710   -2.8060 O   0  0  0  0  0  0  0  0  0  0  0  0
    1.0965   32.7751   -3.8987 C   0  0  1  0  0  0  0  0  0  0  0  0
    1.6334   32.5807   -2.5961 O   0  0  0  0  0  0  0  0  0  0  0  0
   -1.1261   37.7230    0.1262 C   0  0  1  0  0  0  0  0  0  0  0  0
   -0.8550   37.8073    1.4944 O   0  0  0  0  0  0  0  0  0  0  0  0
    5.4200   33.4636   -3.2892 C   0  0  2  0  0  0  0  0  0  0  0  0
    4.9494   32.6969   -4.3965 O   0  0  0  0  0  0  0  0  0  0  0  0
    0.1653   37.5437   -0.5968 C   0  0  1  0  0  0  0  0  0  0  0  0
   -0.1172   37.4644   -1.9640 O   0  0  0  0  0  0  0  0  0  0  0  0
    6.6175   32.7402   -2.6383 C   0  0  1  0  0  0  0  0  0  0  0  0
    7.6827   32.5939   -3.5916 O   0  0  0  0  0  0  0  0  0  0  0  0
    1.1003   38.7502   -0.3818 C   0  0  0  0  0  0  0  0  0  0  0  0
    0.4472   39.9335   -0.8273 O   0  0  0  0  0  0  0  0  0  0  0  0
    9.9078   34.4306   -0.8303 N   0  0  0  0  0  0  0  0  0  0  0  0
    3.4128   36.7756   -0.0436 N   0  0  0  0  0  0  0  0  0  0  0  0
  1  2  1  0  0  0  0
  1 39  1  0  0  0  0
  3  4  1  0  0  0  0
  5  6  1  0  0  0  0
  5 40  1  0  0  0  0
  9 10  1  1  0  0  0
  9 14  1  0  0  0  0
  9 35  1  0  0  0  0
 10  1  1  0  0  0  0
 11 16  1  0  0  0  0
 11 28  1  0  0  0  0
 11 26  1  6  0  0  0
 12 17  1  0  0  0  0
 12 34  1  0  0  0  0
 12 13  1  1  0  0  0
 14 15  1  1  0  0  0
 14 19  1  0  0  0  0
 16 13  1  1  0  0  0
 16 21  1  0  0  0  0
 17 18  1  1  0  0  0
 17 23  1  0  0  0  0
 18  8  1  0  0  0  0
 19 20  1  1  0  0  0
 19 25  1  0  0  0  0
 20  5  1  0  0  0  0
 21  3  1  6  0  0  0
 21 22  1  0  0  0  0
 21 27  1  0  0  0  0
 23 24  1  6  0  0  0
 23 29  1  0  0  0  0
 25 26  1  6  0  0  0
 25 31  1  0  0  0  0
 27  7  1  1  0  0  0
 27 28  1  0  0  0  0
 29 30  1  1  0  0  0
 29 33  1  0  0  0  0
 31 32  1  6  0  0  0
 31 35  1  0  0  0  0
 33 34  1  0  0  0  0
 33 37  1  6  0  0  0
 35 36  1  6  0  0  0
 37 38  1  0  0  0  0
M  END
>  <CHROM.1>
-142.32516150,-107.25095785,171.14923119,144.43059954,171.12536317,-90.50785708
86.92837639,-101.80640369,-171.29189373,-86.51349581,-58.07072847,2.44249752
34.87786700,-1.76686996,-0.21614897,-0.23407818,0.84870174

>  <Name>
1nta_lig

>  <RI>
0

>  <Rbt.Current_Directory>
/home/itssahil/PROJECTS/Mol_Feturizer/New_Systems/rnas/1nta

>  <Rbt.Executable>
rbdock ($Id: //depot/dev/client3/rdock/2013.1/src/exe/rbdock.cxx#4 $)

>  <Rbt.Library>
libRbt.so (2013.1, Build901 2013/11/27)

>  <Rbt.Parameter_File>
/export/apps/rDock/src/rDock_2013.1_src/data/scripts/dock_solv.prm

>  <Rbt.Receptor>
prm/pocket_docking_2.prm

>  <SCORE>
-25.5213

>  <SCORE.INTER>
-6.01039

>  <SCORE.INTER.CONST>
1

>  <SCORE.INTER.POLAR>
-0.880844

>  <SCORE.INTER.ROT>
11

>  <SCORE.INTER.SOLV>
21.5296

>  <SCORE.INTER.VDW>
-19.1807

>  <SCORE.INTER.norm>
-0.15026

>  <SCORE.INTRA>
-20.9819

>  <SCORE.INTRA.DIHEDRAL>
-7.45562

>  <SCORE.INTRA.DIHEDRAL.0>
19.0336

>  <SCORE.INTRA.POLAR>
0

>  <SCORE.INTRA.POLAR.0>
0

>  <SCORE.INTRA.REPUL>
0

>  <SCORE.INTRA.REPUL.0>
0

>  <SCORE.INTRA.SOLV>
-1.03814

>  <SCORE.INTRA.SOLV.lig_0>
-97.5861

>  <SCORE.INTRA.VDW>
-16.735

>  <SCORE.INTRA.VDW.0>
11.7669

>  <SCORE.INTRA.norm>
-0.524547

>  <SCORE.RESTR>
1.47101

>  <SCORE.RESTR.CAVITY>
1.47101

>  <SCORE.RESTR.norm>
0.0367752

>  <SCORE.SYSTEM>
0

>  <SCORE.SYSTEM.CONST>
0

>  <SCORE.SYSTEM.DIHEDRAL>
0

>  <SCORE.SYSTEM.SOLV>
0

>  <SCORE.SYSTEM.norm>
0

>  <SCORE.heavy>
40

>  <SCORE.norm>
-0.638032

>  <RMSD>
2.488

$$$$
1nta_lig
 OpenBabel11021811403D
libRbt.so/2013.1/901 2013/11/27
 40 42  0  0  0  0  0  0  0  0999 V2000
    9.4581   33.2547   -1.1854 C   0  0  0  0  0  0  0  0  0  0  0  0
   10.0505   32.4619   -1.9982 N   0  0  0  0  0  0  0  0  0  0  0  0
    0.4594   35.5428   -3.7217 C   0  0  0  0  0  0  0  0  0  0  0  0
    1.4488   36.0625   -4.1888 O   0  0  0  0  0  0  0  0  0  0  0  0
    4.1326   36.7931    1.0443 C   0  0  0  0  0  0  0  0  0  0  0  0
    4.3387   37.5753    0.0169 N   0  0  0  0  0  0  0  0  0  0  0  0
    0.7618   32.3048   -3.0250 C   0  0  0  0  0  0  0  0  0  0  0  0
   -3.8063   35.4141    0.4893 C   0  0  0  0  0  0  0  0  0  0  0  0
    7.1503   33.7677   -1.0776 C   0  0  2  0  0  0  0  0  0  0  0  0
    8.2901   32.8320   -0.7251 N   0  0  0  0  0  0  0  0  0  0  0  0
    1.9687   34.7793   -0.7205 C   0  0  2  0  0  0  0  0  0  0  0  0
   -1.1446   36.5758   -0.9406 C   0  0  1  0  0  0  0  0  0  0  0  0
    0.0057   36.0193   -0.4071 O   0  0  0  0  0  0  0  0  0  0  0  0
    6.4001   34.1920    0.1992 C   0  0  1  0  0  0  0  0  0  0  0  0
    7.3028   34.9065    0.9883 O   0  0  0  0  0  0  0  0  0  0  0  0
    0.8602   35.6258   -1.3367 C   0  0  2  0  0  0  0  0  0  0  0  0
   -2.1835   37.0091    0.0702 C   0  0  1  0  0  0  0  0  0  0  0  0
   -2.5000   35.8997    0.9017 N   0  0  0  0  0  0  0  0  0  0  0  0
    5.2182   35.1237   -0.1003 C   0  0  2  0  0  0  0  0  0  0  0  0
    4.4696   35.5488    1.1068 N   0  0  0  0  0  0  0  0  0  0  0  0
    0.4230   34.7598   -2.4367 C   0  0  1  0  0  0  0  0  0  0  0  0
   -0.8945   34.3058   -2.1202 O   0  0  0  0  0  0  0  0  0  0  0  0
   -1.7086   38.0449    0.8625 C   0  0  2  0  0  0  0  0  0  0  0  0
   -2.8036   38.5850    1.5584 O   0  0  0  0  0  0  0  0  0  0  0  0
    4.2724   34.3969   -1.0431 C   0  0  1  0  0  0  0  0  0  0  0  0
    3.1835   35.2639   -1.3195 O   0  0  0  0  0  0  0  0  0  0  0  0
    1.3133   33.5940   -2.5000 C   0  0  1  0  0  0  0  0  0  0  0  0
    1.7946   33.4548   -1.1689 O   0  0  0  0  0  0  0  0  0  0  0  0
   -1.0801   39.1134    0.0070 C   0  0  1  0  0  0  0  0  0  0  0  0
   -0.4038   40.0158    0.8320 O   0  0  0  0  0  0  0  0  0  0  0  0
    5.0148   34.0059   -2.3526 C   0  0  2  0  0  0  0  0  0  0  0  0
    4.1093   33.3352   -3.2275 O   0  0  0  0  0  0  0  0  0  0  0  0
   -0.0912   38.4975   -0.9231 C   0  0  1  0  0  0  0  0  0  0  0  0
   -0.7787   37.5997   -1.7457 O   0  0  0  0  0  0  0  0  0  0  0  0
    6.1874   33.0634   -2.0097 C   0  0  1  0  0  0  0  0  0  0  0  0
    6.8863   32.6896   -3.2083 O   0  0  0  0  0  0  0  0  0  0  0  0
    0.5605   39.5588   -1.8314 C   0  0  0  0  0  0  0  0  0  0  0  0
    1.4679   38.9193   -2.7218 O   0  0  0  0  0  0  0  0  0  0  0  0
    9.9586   34.3914   -0.8393 N   0  0  0  0  0  0  0  0  0  0  0  0
    3.5802   37.2600    2.0946 N   0  0  0  0  0  0  0  0  0  0  0  0
  1  2  1  0  0  0  0
  1 39  1  0  0  0  0
  3  4  1  0  0  0  0
  5  6  1  0  0  0  0
  5 40  1  0  0  0  0
  9 10  1  1  0  0  0
  9 14  1  0  0  0  0
  9 35  1  0  0  0  0
 10  1  1  0  0  0  0
 11 16  1  0  0  0  0
 11 28  1  0  0  0  0
 11 26  1  6  0  0  0
 12 17  1  0  0  0  0
 12 34  1  0  0  0  0
 12 13  1  1  0  0  0
 14 15  1  1  0  0  0
 14 19  1  0  0  0  0
 16 13  1  1  0  0  0
 16 21  1  0  0  0  0
 17 18  1  1  0  0  0
 17 23  1  0  0  0  0
 18  8  1  0  0  0  0
 19 20  1  1  0  0  0
 19 25  1  0  0  0  0
 20  5  1  0  0  0  0
 21  3  1  6  0  0  0
 21 22  1  0  0  0  0
 21 27  1  0  0  0  0
 23 24  1  6  0  0  0
 23 29  1  0  0  0  0
 25 26  1  6  0  0  0
 25 31  1  0  0  0  0
 27  7  1  1  0  0  0
 27 28  1  0  0  0  0
 29 30  1  1  0  0  0
 29 33  1  0  0  0  0
 31 32  1  6  0  0  0
 31 35  1  0  0  0  0
 33 34  1  0  0  0  0
 33 37  1  6  0  0  0
 35 36  1  6  0  0  0
 37 38  1  0  0  0  0
M  END
>  <CHROM.1>
-125.00798309,-119.99388592,-168.37183937,178.22439291,-168.74615180,-105.21886467
139.53582215,4.21945201,59.45210256,-110.96726529,-178.49537067,2.54263113
35.57785382,-0.98763039,-0.36119185,-0.19165949,0.69143505

>  <Name>
1nta_lig

>  <RI>
0

>  <Rbt.Current_Directory>
/home/itssahil/PROJECTS/Mol_Feturizer/New_Systems/rnas/1nta

>  <Rbt.Executable>
rbdock ($Id: //depot/dev/client3/rdock/2013.1/src/exe/rbdock.cxx#4 $)

>  <Rbt.Library>
libRbt.so (2013.1, Build901 2013/11/27)

>  <Rbt.Parameter_File>
/export/apps/rDock/src/rDock_2013.1_src/data/scripts/dock_solv.prm

>  <Rbt.Receptor>
prm/pocket_docking_2.prm

>  <SCORE>
-24.4041

>  <SCORE.INTER>
-5.84669

>  <SCORE.INTER.CONST>
1

>  <SCORE.INTER.POLAR>
-1.59356

>  <SCORE.INTER.ROT>
11

>  <SCORE.INTER.SOLV>
22.8223

>  <SCORE.INTER.VDW>
-17.1267

>  <SCORE.INTER.norm>
-0.146167

>  <SCORE.INTRA>
-19.3693

>  <SCORE.INTRA.DIHEDRAL>
-6.80251

>  <SCORE.INTRA.DIHEDRAL.0>
19.0336

>  <SCORE.INTRA.POLAR>
0

>  <SCORE.INTRA.POLAR.0>
0

>  <SCORE.INTRA.REPUL>
0

>  <SCORE.INTRA.REPUL.0>
0

>  <SCORE.INTRA.SOLV>
-3.02354

>  <SCORE.INTRA.SOLV.lig_0>
-97.5861

>  <SCORE.INTRA.VDW>
-14.4563

>  <SCORE.INTRA.VDW.0>
11.7669

>  <SCORE.INTRA.norm>
-0.484233

>  <SCORE.RESTR>
0.81185

>  <SCORE.RESTR.CAVITY>
0.81185

>  <SCORE.RESTR.norm>
0.0202963

>  <SCORE.SYSTEM>
0

>  <SCORE.SYSTEM.CONST>
0

>  <SCORE.SYSTEM.DIHEDRAL>
0

>  <SCORE.SYSTEM.SOLV>
0

>  <SCORE.SYSTEM.norm>
0

>  <SCORE.heavy>
40

>  <SCORE.norm>
-0.610104

>  <RMSD>
2.519

$$$$
1nta_lig
 OpenBabel11021811403D
libRbt.so/2013.1/901 2013/11/27
 40 42  0  0  0  0  0  0  0  0999 V2000
    9.4122   33.5372   -0.5968 C   0  0  0  0  0  0  0  0  0  0  0  0
   10.0596   32.6323   -1.2311 N   0  0  0  0  0  0  0  0  0  0  0  0
    0.4387   35.0490   -4.5901 C   0  0  0  0  0  0  0  0  0  0  0  0
   -0.1048   36.0436   -5.0176 O   0  0  0  0  0  0  0  0  0  0  0  0
    3.9576   35.6276    1.1880 C   0  0  0  0  0  0  0  0  0  0  0  0
    4.7058   35.7777    2.2498 N   0  0  0  0  0  0  0  0  0  0  0  0
    0.3336   32.0044   -3.2557 C   0  0  0  0  0  0  0  0  0  0  0  0
   -3.8457   37.1877   -1.0537 C   0  0  0  0  0  0  0  0  0  0  0  0
    7.0973   33.8428   -0.9816 C   0  0  2  0  0  0  0  0  0  0  0  0
    8.2047   33.1881   -0.1790 N   0  0  0  0  0  0  0  0  0  0  0  0
    1.9074   34.7072   -1.4927 C   0  0  2  0  0  0  0  0  0  0  0  0
   -0.6295   37.1939   -2.0863 C   0  0  1  0  0  0  0  0  0  0  0  0
    0.1307   36.2335   -1.4403 O   0  0  0  0  0  0  0  0  0  0  0  0
    6.2071   34.6952   -0.0575 C   0  0  1  0  0  0  0  0  0  0  0  0
    7.0089   35.7128    0.4617 O   0  0  0  0  0  0  0  0  0  0  0  0
    0.9041   35.5528   -2.2695 C   0  0  2  0  0  0  0  0  0  0  0  0
   -1.6511   37.9002   -1.2226 C   0  0  1  0  0  0  0  0  0  0  0  0
   -2.4860   36.9232   -0.6139 N   0  0  0  0  0  0  0  0  0  0  0  0
    5.0522   35.3648   -0.8141 C   0  0  2  0  0  0  0  0  0  0  0  0
    4.1712   36.1904    0.0463 N   0  0  0  0  0  0  0  0  0  0  0  0
    0.3316   34.5502   -3.1740 C   0  0  1  0  0  0  0  0  0  0  0  0
   -1.0258   34.3471   -2.7763 O   0  0  0  0  0  0  0  0  0  0  0  0
   -1.0344   38.6479   -0.2292 C   0  0  2  0  0  0  0  0  0  0  0  0
   -2.0061   39.4941    0.3319 O   0  0  0  0  0  0  0  0  0  0  0  0
    4.2244   34.2726   -1.4727 C   0  0  1  0  0  0  0  0  0  0  0  0
    3.1603   34.8973   -2.1736 O   0  0  0  0  0  0  0  0  0  0  0  0
    1.0607   33.2879   -2.9993 C   0  0  1  0  0  0  0  0  0  0  0  0
    1.5517   33.3548   -1.6661 O   0  0  0  0  0  0  0  0  0  0  0  0
    0.0787   39.4780   -0.8125 C   0  0  1  0  0  0  0  0  0  0  0  0
    0.8291   40.0280    0.2300 O   0  0  0  0  0  0  0  0  0  0  0  0
    5.1099   33.4375   -2.4407 C   0  0  2  0  0  0  0  0  0  0  0  0
    4.3140   32.4258   -3.0560 O   0  0  0  0  0  0  0  0  0  0  0  0
    0.9766   38.6137   -1.6305 C   0  0  1  0  0  0  0  0  0  0  0  0
    0.2169   38.0720   -2.6721 O   0  0  0  0  0  0  0  0  0  0  0  0
    6.2510   32.7746   -1.6410 C   0  0  1  0  0  0  0  0  0  0  0  0
    7.0810   31.9966   -2.5188 O   0  0  0  0  0  0  0  0  0  0  0  0
    2.1197   39.4324   -2.2624 C   0  0  0  0  0  0  0  0  0  0  0  0
    1.5652   40.4555   -3.0815 O   0  0  0  0  0  0  0  0  0  0  0  0
    9.8972   34.7121   -0.3814 N   0  0  0  0  0  0  0  0  0  0  0  0
    2.9422   34.8573    1.2327 N   0  0  0  0  0  0  0  0  0  0  0  0
  1  2  1  0  0  0  0
  1 39  1  0  0  0  0
  3  4  1  0  0  0  0
  5  6  1  0  0  0  0
  5 40  1  0  0  0  0
  9 10  1  1  0  0  0
  9 14  1  0  0  0  0
  9 35  1  0  0  0  0
 10  1  1  0  0  0  0
 11 16  1  0  0  0  0
 11 28  1  0  0  0  0
 11 26  1  6  0  0  0
 12 17  1  0  0  0  0
 12 34  1  0  0  0  0
 12 13  1  1  0  0  0
 14 15  1  6  0  0  0
 14 19  1  0  0  0  0
 16 13  1  1  0  0  0
 16 21  1  0  0  0  0
 17 18  1  1  0  0  0
 17 23  1  0  0  0  0
 18  8  1  0  0  0  0
 19 20  1  1  0  0  0
 19 25  1  0  0  0  0
 20  5  1  0  0  0  0
 21  3  1  6  0  0  0
 21 22  1  0  0  0  0
 21 27  1  0  0  0  0
 23 24  1  6  0  0  0
 23 29  1  0  0  0  0
 25 26  1  6  0  0  0
 25 31  1  0  0  0  0
 27  7  1  1  0  0  0
 27 28  1  0  0  0  0
 29 30  1  1  0  0  0
 29 33  1  0  0  0  0
 31 32  1  1  0  0  0
 31 35  1  0  0  0  0
 33 34  1  0  0  0  0
 33 37  1  6  0  0  0
 35 36  1  6  0  0  0
 37 38  1  0  0  0  0
M  END
>  <CHROM.1>
-120.35162421,-107.19280583,173.91979571,173.28553977,169.01725851,-119.78152765
-40.03640673,88.76317326,-62.75370527,-106.59679659,-58.83303948,2.66098502
35.63418557,-1.42834476,-0.34528403,-0.31135876,0.52246628

>  <Name>
1nta_lig

>  <RI>
0

>  <Rbt.Current_Directory>
/home/itssahil/PROJECTS/Mol_Feturizer/New_Systems/rnas/1nta

>  <Rbt.Executable>
rbdock ($Id: //depot/dev/client3/rdock/2013.1/src/exe/rbdock.cxx#4 $)

>  <Rbt.Library>
libRbt.so (2013.1, Build901 2013/11/27)

>  <Rbt.Parameter_File>
/export/apps/rDock/src/rDock_2013.1_src/data/scripts/dock_solv.prm

>  <Rbt.Receptor>
prm/pocket_docking_3.prm

>  <SCORE>
-23.8392

>  <SCORE.INTER>
-4.02435

>  <SCORE.INTER.CONST>
1

>  <SCORE.INTER.POLAR>
-1.10622

>  <SCORE.INTER.ROT>
11

>  <SCORE.INTER.SOLV>
24.9411

>  <SCORE.INTER.VDW>
-18.2425

>  <SCORE.INTER.norm>
-0.100609

>  <SCORE.INTRA>
-19.8148

>  <SCORE.INTRA.DIHEDRAL>
-7.68185

>  <SCORE.INTRA.DIHEDRAL.0>
19.0336

>  <SCORE.INTRA.POLAR>
0

>  <SCORE.INTRA.POLAR.0>
0

>  <SCORE.INTRA.REPUL>
0

>  <SCORE.INTRA.REPUL.0>
0

>  <SCORE.INTRA.SOLV>
-0.710177

>  <SCORE.INTRA.SOLV.lig_0>
-97.5861

>  <SCORE.INTRA.VDW>
-15.6188

>  <SCORE.INTRA.VDW.0>
11.7669

>  <SCORE.INTRA.norm>
-0.495371

>  <SCORE.RESTR>
0

>  <SCORE.RESTR.CAVITY>
0

>  <SCORE.RESTR.norm>
0

>  <SCORE.SYSTEM>
0

>  <SCORE.SYSTEM.CONST>
0

>  <SCORE.SYSTEM.DIHEDRAL>
0

>  <SCORE.SYSTEM.SOLV>
0

>  <SCORE.SYSTEM.norm>
0

>  <SCORE.heavy>
40

>  <SCORE.norm>
-0.59598

>  <RMSD>
2.526

$$$$
1nta_lig
 OpenBabel11021811403D
libRbt.so/2013.1/901 2013/11/27
 40 42  0  0  0  0  0  0  0  0999 V2000
    9.4113   33.3038   -1.2631 C   0  0  0  0  0  0  0  0  0  0  0  0
   10.0858   32.5146   -2.0130 N   0  0  0  0  0  0  0  0  0  0  0  0
    0.0246   35.1102   -4.2402 C   0  0  0  0  0  0  0  0  0  0  0  0
   -0.4994   36.1697   -4.5053 O   0  0  0  0  0  0  0  0  0  0  0  0
    4.3058   36.4565    0.7358 C   0  0  0  0  0  0  0  0  0  0  0  0
    4.1970   37.5785    0.0732 N   0  0  0  0  0  0  0  0  0  0  0  0
   -0.0011   31.9755   -3.1291 C   0  0  0  0  0  0  0  0  0  0  0  0
   -3.5674   36.6897    0.5171 C   0  0  0  0  0  0  0  0  0  0  0  0
    7.0727   33.6313   -1.4185 C   0  0  2  0  0  0  0  0  0  0  0  0
    8.2385   32.8412   -0.8567 N   0  0  0  0  0  0  0  0  0  0  0  0
    1.8981   34.4948   -1.4153 C   0  0  2  0  0  0  0  0  0  0  0  0
   -0.8275   36.8619   -1.4592 C   0  0  1  0  0  0  0  0  0  0  0  0
    0.2013   36.0562   -1.0008 O   0  0  0  0  0  0  0  0  0  0  0  0
    6.1335   34.0709   -0.2794 C   0  0  1  0  0  0  0  0  0  0  0  0
    6.8627   34.9268    0.5475 O   0  0  0  0  0  0  0  0  0  0  0  0
    0.8268   35.4223   -1.9786 C   0  0  2  0  0  0  0  0  0  0  0  0
   -1.6259   37.5670   -0.3850 C   0  0  1  0  0  0  0  0  0  0  0  0
   -2.1172   36.5947    0.5290 N   0  0  0  0  0  0  0  0  0  0  0  0
    4.9199   34.8566   -0.7935 C   0  0  2  0  0  0  0  0  0  0  0  0
    3.9909   35.2921    0.2768 N   0  0  0  0  0  0  0  0  0  0  0  0
    0.0986   34.5069   -2.8631 C   0  0  1  0  0  0  0  0  0  0  0  0
   -1.1964   34.3075   -2.2928 O   0  0  0  0  0  0  0  0  0  0  0  0
   -0.8390   38.4778    0.3059 C   0  0  2  0  0  0  0  0  0  0  0  0
   -1.6969   39.2908    1.0663 O   0  0  0  0  0  0  0  0  0  0  0  0
    4.1685   33.9730   -1.7766 C   0  0  1  0  0  0  0  0  0  0  0  0
    3.0497   34.7055   -2.2514 O   0  0  0  0  0  0  0  0  0  0  0  0
    0.7997   33.2171   -2.8857 C   0  0  1  0  0  0  0  0  0  0  0  0
    1.4739   33.1690   -1.6343 O   0  0  0  0  0  0  0  0  0  0  0  0
   -0.0587   39.3332   -0.6573 C   0  0  1  0  0  0  0  0  0  0  0  0
    0.8936   40.0663    0.0554 O   0  0  0  0  0  0  0  0  0  0  0  0
    5.1011   33.5634   -2.9519 C   0  0  2  0  0  0  0  0  0  0  0  0
    4.3760   32.7444   -3.8678 O   0  0  0  0  0  0  0  0  0  0  0  0
    0.6554   38.4657   -1.6372 C   0  0  1  0  0  0  0  0  0  0  0  0
   -0.3064   37.7401   -2.3469 O   0  0  0  0  0  0  0  0  0  0  0  0
    6.3011   32.7692   -2.3949 C   0  0  1  0  0  0  0  0  0  0  0  0
    7.1753   32.3803   -3.4670 O   0  0  0  0  0  0  0  0  0  0  0  0
    1.4512   39.3070   -2.6547 C   0  0  0  0  0  0  0  0  0  0  0  0
    2.6033   39.8462   -2.0168 O   0  0  0  0  0  0  0  0  0  0  0  0
    9.8387   34.4730   -0.9278 N   0  0  0  0  0  0  0  0  0  0  0  0
    4.7759   36.4644    1.9213 N   0  0  0  0  0  0  0  0  0  0  0  0
  1  2  1  0  0  0  0
  1 39  1  0  0  0  0
  3  4  1  0  0  0  0
  5  6  1  0  0  0  0
  5 40  1  0  0  0  0
  9 10  1  1  0  0  0
  9 14  1  0  0  0  0
  9 35  1  0  0  0  0
 10  1  1  0  0  0  0
 11 16  1  0  0  0  0
 11 28  1  0  0  0  0
 11 26  1  6  0  0  0
 12 17  1  0  0  0  0
 12 34  1  0  0  0  0
 12 13  1  1  0  0  0
 14 15  1  1  0  0  0
 14 19  1  0  0  0  0
 16 13  1  1  0  0  0
 16 21  1  0  0  0  0
 17 18  1  1  0  0  0
 17 23  1  0  0  0  0
 18  8  1  0  0  0  0
 19 20  1  1  0  0  0
 19 25  1  0  0  0  0
 20  5  1  0  0  0  0
 21  3  1  6  0  0  0
 21 22  1  0  0  0  0
 21 27  1  0  0  0  0
 23 24  1  6  0  0  0
 23 29  1  0  0  0  0
 25 26  1  6  0  0  0
 25 31  1  0  0  0  0
 27  7  1  1  0  0  0
 27 28  1  0  0  0  0
 29 30  1  1  0  0  0
 29 33  1  0  0  0  0
 31 32  1  6  0  0  0
 31 35  1  0  0  0  0
 33 34  1  0  0  0  0
 33 37  1  6  0  0  0
 35 36  1  6  0  0  0
 37 38  1  0  0  0  0
M  END
>  <CHROM.1>
-128.10166838,-114.33311496,175.54141727,177.30103667,-176.97685937,-120.31383597
90.05146064,68.96641524,-60.18096177,-89.64105816,73.70185062,2.65564000
35.55092807,-1.39925509,-0.39978987,-0.20402343,0.57140202

>  <Name>
1nta_lig

>  <RI>
0

>  <Rbt.Current_Directory>
/home/itssahil/PROJECTS/Mol_Feturizer/New_Systems/rnas/1nta

>  <Rbt.Executable>
rbdock ($Id: //depot/dev/client3/rdock/2013.1/src/exe/rbdock.cxx#4 $)

>  <Rbt.Library>
libRbt.so (2013.1, Build901 2013/11/27)

>  <Rbt.Parameter_File>
/export/apps/rDock/src/rDock_2013.1_src/data/scripts/dock_solv.prm

>  <Rbt.Receptor>
prm/pocket_docking_2.prm

>  <SCORE>
-27.2822

>  <SCORE.INTER>
-5.10184

>  <SCORE.INTER.CONST>
1

>  <SCORE.INTER.POLAR>
-0.814378

>  <SCORE.INTER.ROT>
11

>  <SCORE.INTER.SOLV>
20.7552

>  <SCORE.INTER.VDW>
-18.5384

>  <SCORE.INTER.norm>
-0.127546

>  <SCORE.INTRA>
-22.4075

>  <SCORE.INTRA.DIHEDRAL>
-10.2911

>  <SCORE.INTRA.DIHEDRAL.0>
19.0336

>  <SCORE.INTRA.POLAR>
0

>  <SCORE.INTRA.POLAR.0>
0

>  <SCORE.INTRA.REPUL>
0.0047342

>  <SCORE.INTRA.REPUL.0>
0

>  <SCORE.INTRA.SOLV>
-2.51479

>  <SCORE.INTRA.SOLV.lig_0>
-97.5861

>  <SCORE.INTRA.VDW>
-16.0282

>  <SCORE.INTRA.VDW.0>
11.7669

>  <SCORE.INTRA.norm>
-0.560187

>  <SCORE.RESTR>
0.227102

>  <SCORE.RESTR.CAVITY>
0.227102

>  <SCORE.RESTR.norm>
0.00567756

>  <SCORE.SYSTEM>
0

>  <SCORE.SYSTEM.CONST>
0

>  <SCORE.SYSTEM.DIHEDRAL>
0

>  <SCORE.SYSTEM.SOLV>
0

>  <SCORE.SYSTEM.norm>
0

>  <SCORE.heavy>
40

>  <SCORE.norm>
-0.682055

>  <RMSD>
2.532

$$$$
1nta_lig
 OpenBabel11021811403D
libRbt.so/2013.1/901 2013/11/27
 40 42  0  0  0  0  0  0  0  0999 V2000
    9.4659   33.2609   -1.1659 C   0  0  0  0  0  0  0  0  0  0  0  0
    9.9294   34.4137   -0.8557 N   0  0  0  0  0  0  0  0  0  0  0  0
    0.0555   34.8505   -4.0608 C   0  0  0  0  0  0  0  0  0  0  0  0
   -0.5678   34.3719   -4.9827 O   0  0  0  0  0  0  0  0  0  0  0  0
    4.0760   36.4196    0.8192 C   0  0  0  0  0  0  0  0  0  0  0  0
    4.2903   37.3976   -0.0218 N   0  0  0  0  0  0  0  0  0  0  0  0
    0.1326   31.7227   -2.9327 C   0  0  0  0  0  0  0  0  0  0  0  0
   -3.5384   36.1201    0.4320 C   0  0  0  0  0  0  0  0  0  0  0  0
    7.1345   33.6671   -1.1576 C   0  0  2  0  0  0  0  0  0  0  0  0
    8.3256   32.9277   -0.5800 N   0  0  0  0  0  0  0  0  0  0  0  0
    1.9327   34.3158   -1.2221 C   0  0  2  0  0  0  0  0  0  0  0  0
   -0.8688   36.5919   -1.2951 C   0  0  1  0  0  0  0  0  0  0  0  0
    0.1801   35.8192   -0.8258 O   0  0  0  0  0  0  0  0  0  0  0  0
    6.1576   34.0572   -0.0323 C   0  0  1  0  0  0  0  0  0  0  0  0
    6.8332   34.9408    0.8108 O   0  0  0  0  0  0  0  0  0  0  0  0
    0.8331   35.2023   -1.7965 C   0  0  2  0  0  0  0  0  0  0  0  0
   -1.6695   37.3114   -0.2321 C   0  0  1  0  0  0  0  0  0  0  0  0
   -2.1323   36.3559    0.7139 N   0  0  0  0  0  0  0  0  0  0  0  0
    4.9181   34.7899   -0.5630 C   0  0  2  0  0  0  0  0  0  0  0  0
    3.9527   35.1768    0.4936 N   0  0  0  0  0  0  0  0  0  0  0  0
    0.1424   34.2574   -2.6801 C   0  0  1  0  0  0  0  0  0  0  0  0
   -1.1482   34.0159   -2.1160 O   0  0  0  0  0  0  0  0  0  0  0  0
   -0.8933   38.2561    0.4245 C   0  0  2  0  0  0  0  0  0  0  0  0
   -1.7588   39.0735    1.1713 O   0  0  0  0  0  0  0  0  0  0  0  0
    4.2241   33.8786   -1.5628 C   0  0  1  0  0  0  0  0  0  0  0  0
    3.0811   34.5621   -2.0528 O   0  0  0  0  0  0  0  0  0  0  0  0
    0.8882   32.9927   -2.6916 C   0  0  1  0  0  0  0  0  0  0  0  0
    1.5564   32.9749   -1.4362 O   0  0  0  0  0  0  0  0  0  0  0  0
   -0.1399   39.0989   -0.5708 C   0  0  1  0  0  0  0  0  0  0  0  0
    0.8054   39.8698    0.1108 O   0  0  0  0  0  0  0  0  0  0  0  0
    5.1937   33.5183   -2.7242 C   0  0  2  0  0  0  0  0  0  0  0  0
    4.5219   32.6723   -3.6560 O   0  0  0  0  0  0  0  0  0  0  0  0
    0.5806   38.2182   -1.5339 C   0  0  1  0  0  0  0  0  0  0  0  0
   -0.3743   37.4546   -2.2125 O   0  0  0  0  0  0  0  0  0  0  0  0
    6.4192   32.7762   -2.1510 C   0  0  1  0  0  0  0  0  0  0  0  0
    7.3278   32.4334   -3.2101 O   0  0  0  0  0  0  0  0  0  0  0  0
    1.3492   39.0456   -2.5832 C   0  0  0  0  0  0  0  0  0  0  0  0
    2.4298   39.7193   -1.9479 O   0  0  0  0  0  0  0  0  0  0  0  0
   10.0679   32.4719   -1.9889 N   0  0  0  0  0  0  0  0  0  0  0  0
    3.9990   36.6644    2.0685 N   0  0  0  0  0  0  0  0  0  0  0  0
  1  2  1  0  0  0  0
  1 39  1  0  0  0  0
  3  4  1  0  0  0  0
  5  6  1  0  0  0  0
  5 40  1  0  0  0  0
  9 10  1  1  0  0  0
  9 14  1  0  0  0  0
  9 35  1  0  0  0  0
 10  1  1  0  0  0  0
 11 16  1  0  0  0  0
 11 28  1  0  0  0  0
 11 26  1  6  0  0  0
 12 17  1  0  0  0  0
 12 34  1  0  0  0  0
 12 13  1  1  0  0  0
 14 15  1  1  0  0  0
 14 19  1  0  0  0  0
 16 13  1  1  0  0  0
 16 21  1  0  0  0  0
 17 18  1  1  0  0  0
 17 23  1  0  0  0  0
 18  8  1  0  0  0  0
 19 20  1  1  0  0  0
 19 25  1  0  0  0  0
 20  5  1  0  0  0  0
 21  3  1  6  0  0  0
 21 22  1  0  0  0  0
 21 27  1  0  0  0  0
 23 24  1  6  0  0  0
 23 29  1  0  0  0  0
 25 26  1  6  0  0  0
 25 31  1  0  0  0  0
 27  7  1  1  0  0  0
 27 28  1  0  0  0  0
 29 30  1  1  0  0  0
 29 33  1  0  0  0  0
 31 32  1  6  0  0  0
 31 35  1  0  0  0  0
 33 34  1  0  0  0  0
 33 37  1  6  0  0  0
 35 36  1  6  0  0  0
 37 38  1  0  0  0  0
M  END
>  <CHROM.1>
-140.94760769,74.08630354,175.16523300,179.23652474,-177.31122841,-103.03891094
99.90660328,40.20563946,-172.60519400,-88.50377299,68.62431749,2.64369821
35.35574509,-1.26330291,-0.36950030,-0.18738464,0.57821583

>  <Name>
1nta_lig

>  <RI>
0

>  <Rbt.Current_Directory>
/home/itssahil/PROJECTS/Mol_Feturizer/New_Systems/rnas/1nta

>  <Rbt.Executable>
rbdock ($Id: //depot/dev/client3/rdock/2013.1/src/exe/rbdock.cxx#4 $)

>  <Rbt.Library>
libRbt.so (2013.1, Build901 2013/11/27)

>  <Rbt.Parameter_File>
/export/apps/rDock/src/rDock_2013.1_src/data/scripts/dock_solv.prm

>  <Rbt.Receptor>
prm/pocket_docking_2.prm

>  <SCORE>
-25.7137

>  <SCORE.INTER>
-3.64434

>  <SCORE.INTER.CONST>
1

>  <SCORE.INTER.POLAR>
-0.790283

>  <SCORE.INTER.ROT>
11

>  <SCORE.INTER.SOLV>
22.1902

>  <SCORE.INTER.VDW>
-18.1253

>  <SCORE.INTER.norm>
-0.0911085

>  <SCORE.INTRA>
-22.256

>  <SCORE.INTRA.DIHEDRAL>
-10.6876

>  <SCORE.INTRA.DIHEDRAL.0>
19.0336

>  <SCORE.INTRA.POLAR>
0

>  <SCORE.INTRA.POLAR.0>
0

>  <SCORE.INTRA.REPUL>
0

>  <SCORE.INTRA.REPUL.0>
0

>  <SCORE.INTRA.SOLV>
-3.12501

>  <SCORE.INTRA.SOLV.lig_0>
-97.5861

>  <SCORE.INTRA.VDW>
-15.3497

>  <SCORE.INTRA.VDW.0>
11.7669

>  <SCORE.INTRA.norm>
-0.5564

>  <SCORE.RESTR>
0.186603

>  <SCORE.RESTR.CAVITY>
0.186603

>  <SCORE.RESTR.norm>
0.00466507

>  <SCORE.SYSTEM>
0

>  <SCORE.SYSTEM.CONST>
0

>  <SCORE.SYSTEM.DIHEDRAL>
0

>  <SCORE.SYSTEM.SOLV>
0

>  <SCORE.SYSTEM.norm>
0

>  <SCORE.heavy>
40

>  <SCORE.norm>
-0.642843

>  <RMSD>
2.546

$$$$
1nta_lig
 OpenBabel11021811403D
libRbt.so/2013.1/901 2013/11/27
 40 42  0  0  0  0  0  0  0  0999 V2000
    9.4364   33.1397   -2.1513 C   0  0  0  0  0  0  0  0  0  0  0  0
   10.0127   34.2116   -1.7526 N   0  0  0  0  0  0  0  0  0  0  0  0
   -0.1677   34.7175   -4.1198 C   0  0  0  0  0  0  0  0  0  0  0  0
    0.7117   35.1089   -4.8551 O   0  0  0  0  0  0  0  0  0  0  0  0
    4.4149   36.4238    0.3702 C   0  0  0  0  0  0  0  0  0  0  0  0
    5.5144   36.8789    0.9121 N   0  0  0  0  0  0  0  0  0  0  0  0
    0.0925   31.6314   -2.9074 C   0  0  0  0  0  0  0  0  0  0  0  0
   -3.6257   35.4566    0.7368 C   0  0  0  0  0  0  0  0  0  0  0  0
    7.1192   33.5647   -1.9272 C   0  0  2  0  0  0  0  0  0  0  0  0
    8.3469   32.7946   -1.4816 N   0  0  0  0  0  0  0  0  0  0  0  0
    1.9479   34.3264   -1.4291 C   0  0  2  0  0  0  0  0  0  0  0  0
   -0.9995   36.3968   -1.3117 C   0  0  1  0  0  0  0  0  0  0  0  0
    0.1895   35.7942   -0.9366 O   0  0  0  0  0  0  0  0  0  0  0  0
    6.2920   33.9966   -0.7015 C   0  0  1  0  0  0  0  0  0  0  0  0
    7.0872   34.8673    0.0452 O   0  0  0  0  0  0  0  0  0  0  0  0
    0.7797   35.1638   -1.9383 C   0  0  2  0  0  0  0  0  0  0  0  0
   -1.9353   36.7462   -0.1754 C   0  0  1  0  0  0  0  0  0  0  0  0
   -2.1848   35.5716    0.5863 N   0  0  0  0  0  0  0  0  0  0  0  0
    5.0215   34.7621   -1.0948 C   0  0  2  0  0  0  0  0  0  0  0  0
    4.1976   35.1896    0.0613 N   0  0  0  0  0  0  0  0  0  0  0  0
    0.0480   34.1722   -2.7334 C   0  0  1  0  0  0  0  0  0  0  0  0
   -1.1851   33.9147   -2.0586 O   0  0  0  0  0  0  0  0  0  0  0  0
   -1.3777   37.7103    0.6528 C   0  0  2  0  0  0  0  0  0  0  0  0
   -2.3975   38.1929    1.4908 O   0  0  0  0  0  0  0  0  0  0  0  0
    4.1889   33.8626   -1.9946 C   0  0  1  0  0  0  0  0  0  0  0  0
    3.0175   34.5763   -2.3580 O   0  0  0  0  0  0  0  0  0  0  0  0
    0.8274   32.9285   -2.7676 C   0  0  1  0  0  0  0  0  0  0  0  0
    1.5951   32.9695   -1.5710 O   0  0  0  0  0  0  0  0  0  0  0  0
   -0.8202   38.8454   -0.1654 C   0  0  1  0  0  0  0  0  0  0  0  0
   -0.0606   39.6732    0.6653 O   0  0  0  0  0  0  0  0  0  0  0  0
    5.0056   33.4604   -3.2556 C   0  0  2  0  0  0  0  0  0  0  0  0
    4.2050   32.6262   -4.0914 O   0  0  0  0  0  0  0  0  0  0  0  0
    0.0713   38.3073   -1.2322 C   0  0  1  0  0  0  0  0  0  0  0  0
   -0.6993   37.4840   -2.0590 O   0  0  0  0  0  0  0  0  0  0  0  0
    6.2669   32.6864   -2.8184 C   0  0  1  0  0  0  0  0  0  0  0  0
    7.0354   32.3046   -3.9710 O   0  0  0  0  0  0  0  0  0  0  0  0
    0.6469   39.4397   -2.1055 C   0  0  0  0  0  0  0  0  0  0  0  0
    1.5024   38.8788   -3.0948 O   0  0  0  0  0  0  0  0  0  0  0  0
    9.8857   32.4374   -3.1347 N   0  0  0  0  0  0  0  0  0  0  0  0
    3.4488   37.2217    0.1327 N   0  0  0  0  0  0  0  0  0  0  0  0
  1  2  1  0  0  0  0
  1 39  1  0  0  0  0
  3  4  1  0  0  0  0
  5  6  1  0  0  0  0
  5 40  1  0  0  0  0
  9 10  1  1  0  0  0
  9 14  1  0  0  0  0
  9 35  1  0  0  0  0
 10  1  1  0  0  0  0
 11 16  1  0  0  0  0
 11 28  1  0  0  0  0
 11 26  1  6  0  0  0
 12 17  1  0  0  0  0
 12 34  1  0  0  0  0
 12 13  1  1  0  0  0
 14 15  1  1  0  0  0
 14 19  1  0  0  0  0
 16 13  1  1  0  0  0
 16 21  1  0  0  0  0
 17 18  1  1  0  0  0
 17 23  1  0  0  0  0
 18  8  1  0  0  0  0
 19 20  1  1  0  0  0
 19 25  1  0  0  0  0
 20  5  1  0  0  0  0
 21  3  1  6  0  0  0
 21 22  1  0  0  0  0
 21 27  1  0  0  0  0
 23 24  1  1  0  0  0
 23 29  1  0  0  0  0
 25 26  1  6  0  0  0
 25 31  1  0  0  0  0
 27  7  1  1  0  0  0
 27 28  1  0  0  0  0
 29 30  1  1  0  0  0
 29 33  1  0  0  0  0
 31 32  1  6  0  0  0
 31 35  1  0  0  0  0
 33 34  1  0  0  0  0
 33 37  1  6  0  0  0
 35 36  1  6  0  0  0
 37 38  1  0  0  0  0
M  END
>  <CHROM.1>
-137.45897318,80.65310999,179.37564251,161.31382043,-170.41082469,-129.70974961
98.60376352,-70.41031039,55.60139698,-91.11766321,179.24324086,2.53576955
35.22397730,-1.52796908,-0.40961786,-0.09562793,0.61318706

>  <Name>
1nta_lig

>  <RI>
0

>  <Rbt.Current_Directory>
/home/itssahil/PROJECTS/Mol_Feturizer/New_Systems/rnas/1nta

>  <Rbt.Executable>
rbdock ($Id: //depot/dev/client3/rdock/2013.1/src/exe/rbdock.cxx#4 $)

>  <Rbt.Library>
libRbt.so (2013.1, Build901 2013/11/27)

>  <Rbt.Parameter_File>
/export/apps/rDock/src/rDock_2013.1_src/data/scripts/dock_solv.prm

>  <Rbt.Receptor>
prm/pocket_docking_2.prm

>  <SCORE>
-27.4054

>  <SCORE.INTER>
-6.79718

>  <SCORE.INTER.CONST>
1

>  <SCORE.INTER.POLAR>
-1.53761

>  <SCORE.INTER.ROT>
11

>  <SCORE.INTER.SOLV>
21.1033

>  <SCORE.INTER.VDW>
-17.3739

>  <SCORE.INTER.norm>
-0.169929

>  <SCORE.INTRA>
-21.389

>  <SCORE.INTRA.DIHEDRAL>
-8.49265

>  <SCORE.INTRA.DIHEDRAL.0>
19.0336

>  <SCORE.INTRA.POLAR>
0

>  <SCORE.INTRA.POLAR.0>
0

>  <SCORE.INTRA.REPUL>
0

>  <SCORE.INTRA.REPUL.0>
0

>  <SCORE.INTRA.SOLV>
-1.98869

>  <SCORE.INTRA.SOLV.lig_0>
-97.5861

>  <SCORE.INTRA.VDW>
-16.1484

>  <SCORE.INTRA.VDW.0>
11.7669

>  <SCORE.INTRA.norm>
-0.534726

>  <SCORE.RESTR>
0.780833

>  <SCORE.RESTR.CAVITY>
0.780833

>  <SCORE.RESTR.norm>
0.0195208

>  <SCORE.SYSTEM>
0

>  <SCORE.SYSTEM.CONST>
0

>  <SCORE.SYSTEM.DIHEDRAL>
0

>  <SCORE.SYSTEM.SOLV>
0

>  <SCORE.SYSTEM.norm>
0

>  <SCORE.heavy>
40

>  <SCORE.norm>
-0.685134

>  <RMSD>
2.593

$$$$
1nta_lig
 OpenBabel11021811403D
libRbt.so/2013.1/901 2013/11/27
 40 42  0  0  0  0  0  0  0  0999 V2000
    9.6961   33.1730   -1.1023 C   0  0  0  0  0  0  0  0  0  0  0  0
   10.5940   32.4120   -1.6071 N   0  0  0  0  0  0  0  0  0  0  0  0
    0.4625   35.0582   -4.3804 C   0  0  0  0  0  0  0  0  0  0  0  0
   -0.1382   36.1093   -4.4192 O   0  0  0  0  0  0  0  0  0  0  0  0
    4.3841   35.8106    0.9845 C   0  0  0  0  0  0  0  0  0  0  0  0
    4.1290   36.9981    0.5002 N   0  0  0  0  0  0  0  0  0  0  0  0
    0.6299   31.7446   -4.1484 C   0  0  0  0  0  0  0  0  0  0  0  0
   -3.5769   34.6709   -0.9830 C   0  0  0  0  0  0  0  0  0  0  0  0
    7.3515   33.3731   -1.3539 C   0  0  2  0  0  0  0  0  0  0  0  0
    8.5389   32.5882   -0.8312 N   0  0  0  0  0  0  0  0  0  0  0  0
    2.1046   33.8198   -1.6166 C   0  0  2  0  0  0  0  0  0  0  0  0
   -0.7656   35.9928   -1.3380 C   0  0  1  0  0  0  0  0  0  0  0  0
    0.2340   35.0928   -1.0090 O   0  0  0  0  0  0  0  0  0  0  0  0
    6.3541   33.6463   -0.2122 C   0  0  1  0  0  0  0  0  0  0  0  0
    7.0097   34.4479    0.7236 O   0  0  0  0  0  0  0  0  0  0  0  0
    1.0088   34.7929   -2.0380 C   0  0  2  0  0  0  0  0  0  0  0  0
   -1.8880   36.1112   -0.3305 C   0  0  1  0  0  0  0  0  0  0  0  0
   -2.4315   34.8174   -0.1005 N   0  0  0  0  0  0  0  0  0  0  0  0
    5.1176   34.4197   -0.6895 C   0  0  2  0  0  0  0  0  0  0  0  0
    4.1328   34.6964    0.3837 N   0  0  0  0  0  0  0  0  0  0  0  0
    0.4605   34.1078   -3.2131 C   0  0  1  0  0  0  0  0  0  0  0  0
   -0.8584   33.6750   -2.8738 O   0  0  0  0  0  0  0  0  0  0  0  0
   -1.4272   36.6267    0.8728 C   0  0  2  0  0  0  0  0  0  0  0  0
   -2.5490   36.9826    1.6409 O   0  0  0  0  0  0  0  0  0  0  0  0
    4.4463   33.6055   -1.7842 C   0  0  1  0  0  0  0  0  0  0  0  0
    3.3060   34.3266   -2.2243 O   0  0  0  0  0  0  0  0  0  0  0  0
    1.2809   32.9226   -3.4922 C   0  0  1  0  0  0  0  0  0  0  0  0
    1.8325   32.5792   -2.2270 O   0  0  0  0  0  0  0  0  0  0  0  0
   -0.5773   37.8461    0.6295 C   0  0  1  0  0  0  0  0  0  0  0  0
    0.0635   38.1978    1.8204 O   0  0  0  0  0  0  0  0  0  0  0  0
    5.4367   33.3654   -2.9590 C   0  0  2  0  0  0  0  0  0  0  0  0
    4.7860   32.6099   -3.9794 O   0  0  0  0  0  0  0  0  0  0  0  0
    0.4657   37.5383   -0.3902 C   0  0  1  0  0  0  0  0  0  0  0  0
   -0.1860   37.1916   -1.5778 O   0  0  0  0  0  0  0  0  0  0  0  0
    6.6586   32.5786   -2.4405 C   0  0  1  0  0  0  0  0  0  0  0  0
    7.5863   32.3456   -3.5128 O   0  0  0  0  0  0  0  0  0  0  0  0
    1.3453   38.7702   -0.6819 C   0  0  0  0  0  0  0  0  0  0  0  0
    2.3045   38.4348   -1.6782 O   0  0  0  0  0  0  0  0  0  0  0  0
    9.8986   34.4260   -0.8761 N   0  0  0  0  0  0  0  0  0  0  0  0
    4.9444   35.6990    2.1247 N   0  0  0  0  0  0  0  0  0  0  0  0
  1  2  1  0  0  0  0
  1 39  1  0  0  0  0
  3  4  1  0  0  0  0
  5  6  1  0  0  0  0
  5 40  1  0  0  0  0
  9 10  1  1  0  0  0
  9 14  1  0  0  0  0
  9 35  1  0  0  0  0
 10  1  1  0  0  0  0
 11 16  1  0  0  0  0
 11 28  1  0  0  0  0
 11 26  1  6  0  0  0
 12 17  1  0  0  0  0
 12 34  1  0  0  0  0
 12 13  1  1  0  0  0
 14 15  1  1  0  0  0
 14 19  1  0  0  0  0
 16 13  1  1  0  0  0
 16 21  1  0  0  0  0
 17 18  1  1  0  0  0
 17 23  1  0  0  0  0
 18  8  1  0  0  0  0
 19 20  1  1  0  0  0
 19 25  1  0  0  0  0
 20  5  1  0  0  0  0
 21  3  1  6  0  0  0
 21 22  1  0  0  0  0
 21 27  1  0  0  0  0
 23 24  1  1  0  0  0
 23 29  1  0  0  0  0
 25 26  1  6  0  0  0
 25 31  1  0  0  0  0
 27  7  1  1  0  0  0
 27 28  1  0  0  0  0
 29 30  1  1  0  0  0
 29 33  1  0  0  0  0
 31 32  1  6  0  0  0
 31 35  1  0  0  0  0
 33 34  1  0  0  0  0
 33 37  1  6  0  0  0
 35 36  1  6  0  0  0
 37 38  1  0  0  0  0
M  END
>  <CHROM.1>
-125.78170991,-131.77745079,172.94153824,165.00716014,179.01627026,-94.94919371
88.94392301,76.27486471,-60.59528927,-99.25546745,-178.80738907,2.75248962
34.85379404,-1.27745172,-0.25454610,-0.19188292,0.84475117

>  <Name>
1nta_lig

>  <RI>
0

>  <Rbt.Current_Directory>
/home/itssahil/PROJECTS/Mol_Feturizer/New_Systems/rnas/1nta

>  <Rbt.Executable>
rbdock ($Id: //depot/dev/client3/rdock/2013.1/src/exe/rbdock.cxx#4 $)

>  <Rbt.Library>
libRbt.so (2013.1, Build901 2013/11/27)

>  <Rbt.Parameter_File>
/export/apps/rDock/src/rDock_2013.1_src/data/scripts/dock_solv.prm

>  <Rbt.Receptor>
prm/pocket_docking_5.prm

>  <SCORE>
-29.4353

>  <SCORE.INTER>
-6.4408

>  <SCORE.INTER.CONST>
1

>  <SCORE.INTER.POLAR>
-0.820694

>  <SCORE.INTER.ROT>
11

>  <SCORE.INTER.SOLV>
22.3923

>  <SCORE.INTER.VDW>
-19.9556

>  <SCORE.INTER.norm>
-0.16102

>  <SCORE.INTRA>
-22.9946

>  <SCORE.INTRA.DIHEDRAL>
-8.57755

>  <SCORE.INTRA.DIHEDRAL.0>
19.0336

>  <SCORE.INTRA.POLAR>
0

>  <SCORE.INTRA.POLAR.0>
0

>  <SCORE.INTRA.REPUL>
0

>  <SCORE.INTRA.REPUL.0>
0

>  <SCORE.INTRA.SOLV>
-2.17855

>  <SCORE.INTRA.SOLV.lig_0>
-97.5861

>  <SCORE.INTRA.VDW>
-17.6165

>  <SCORE.INTRA.VDW.0>
11.7669

>  <SCORE.INTRA.norm>
-0.574864

>  <SCORE.RESTR>
0

>  <SCORE.RESTR.CAVITY>
0

>  <SCORE.RESTR.norm>
0

>  <SCORE.SYSTEM>
0

>  <SCORE.SYSTEM.CONST>
0

>  <SCORE.SYSTEM.DIHEDRAL>
0

>  <SCORE.SYSTEM.SOLV>
0

>  <SCORE.SYSTEM.norm>
0

>  <SCORE.heavy>
40

>  <SCORE.norm>
-0.735884

>  <RMSD>
2.594

$$$$
1nta_lig
 OpenBabel11021811403D
libRbt.so/2013.1/901 2013/11/27
 40 42  0  0  0  0  0  0  0  0999 V2000
    9.6208   33.0422   -1.1560 C   0  0  0  0  0  0  0  0  0  0  0  0
   10.0541   34.2253   -1.3850 N   0  0  0  0  0  0  0  0  0  0  0  0
    0.3470   34.7845   -4.2902 C   0  0  0  0  0  0  0  0  0  0  0  0
   -0.2610   34.3760   -5.2550 O   0  0  0  0  0  0  0  0  0  0  0  0
    4.2114   36.3422    0.7354 C   0  0  0  0  0  0  0  0  0  0  0  0
    4.0699   37.3972   -0.0241 N   0  0  0  0  0  0  0  0  0  0  0  0
    0.3455   31.5978   -3.3382 C   0  0  0  0  0  0  0  0  0  0  0  0
   -3.4321   35.9485    0.4062 C   0  0  0  0  0  0  0  0  0  0  0  0
    7.3309   33.6357   -1.0878 C   0  0  2  0  0  0  0  0  0  0  0  0
    8.5197   32.9694   -0.4232 N   0  0  0  0  0  0  0  0  0  0  0  0
    2.1105   34.0661   -1.4192 C   0  0  2  0  0  0  0  0  0  0  0  0
   -0.6985   36.3309   -1.4642 C   0  0  1  0  0  0  0  0  0  0  0  0
    0.3619   35.5689   -1.0033 O   0  0  0  0  0  0  0  0  0  0  0  0
    6.2960   34.0525   -0.0257 C   0  0  1  0  0  0  0  0  0  0  0  0
    6.9075   35.0027    0.7936 O   0  0  0  0  0  0  0  0  0  0  0  0
    1.0435   34.9984   -1.9826 C   0  0  2  0  0  0  0  0  0  0  0  0
   -1.5310   36.9983   -0.3918 C   0  0  1  0  0  0  0  0  0  0  0  0
   -1.9841   36.0034    0.5177 N   0  0  0  0  0  0  0  0  0  0  0  0
    5.0570   34.7129   -0.6450 C   0  0  2  0  0  0  0  0  0  0  0  0
    4.0366   35.1232    0.3492 N   0  0  0  0  0  0  0  0  0  0  0  0
    0.3753   34.1139   -2.9429 C   0  0  1  0  0  0  0  0  0  0  0  0
   -0.9381   33.8590   -2.4410 O   0  0  0  0  0  0  0  0  0  0  0  0
   -0.7869   37.9402    0.3048 C   0  0  2  0  0  0  0  0  0  0  0  0
   -1.6821   38.7136    1.0634 O   0  0  0  0  0  0  0  0  0  0  0  0
    4.4346   33.7259   -1.6198 C   0  0  1  0  0  0  0  0  0  0  0  0
    3.2919   34.3428   -2.1921 O   0  0  0  0  0  0  0  0  0  0  0  0
    1.1063   32.8418   -2.9984 C   0  0  1  0  0  0  0  0  0  0  0  0
    1.7268   32.7446   -1.7223 O   0  0  0  0  0  0  0  0  0  0  0  0
   -0.0399   38.8308   -0.6530 C   0  0  1  0  0  0  0  0  0  0  0  0
    0.8770   39.6022    0.0657 O   0  0  0  0  0  0  0  0  0  0  0  0
    5.4627   33.3367   -2.7199 C   0  0  2  0  0  0  0  0  0  0  0  0
    4.8576   32.4193   -3.6296 O   0  0  0  0  0  0  0  0  0  0  0  0
    0.7149   37.9974   -1.6318 C   0  0  1  0  0  0  0  0  0  0  0  0
   -0.2119   37.2329   -2.3475 O   0  0  0  0  0  0  0  0  0  0  0  0
    6.6863   32.6687   -2.0581 C   0  0  1  0  0  0  0  0  0  0  0  0
    7.6487   32.3004   -3.0596 O   0  0  0  0  0  0  0  0  0  0  0  0
    1.4781   38.8746   -2.6439 C   0  0  0  0  0  0  0  0  0  0  0  0
    2.5938   39.4743   -1.9953 O   0  0  0  0  0  0  0  0  0  0  0  0
   10.2157   31.9891   -1.6026 N   0  0  0  0  0  0  0  0  0  0  0  0
    4.5706   36.4810    1.9512 N   0  0  0  0  0  0  0  0  0  0  0  0
  1  2  1  0  0  0  0
  1 39  1  0  0  0  0
  3  4  1  0  0  0  0
  5  6  1  0  0  0  0
  5 40  1  0  0  0  0
  9 10  1  1  0  0  0
  9 14  1  0  0  0  0
  9 35  1  0  0  0  0
 10  1  1  0  0  0  0
 11 16  1  0  0  0  0
 11 28  1  0  0  0  0
 11 26  1  6  0  0  0
 12 17  1  0  0  0  0
 12 34  1  0  0  0  0
 12 13  1  1  0  0  0
 14 15  1  1  0  0  0
 14 19  1  0  0  0  0
 16 13  1  1  0  0  0
 16 21  1  0  0  0  0
 17 18  1  1  0  0  0
 17 23  1  0  0  0  0
 18  8  1  0  0  0  0
 19 20  1  1  0  0  0
 19 25  1  0  0  0  0
 20  5  1  0  0  0  0
 21  3  1  6  0  0  0
 21 22  1  0  0  0  0
 21 27  1  0  0  0  0
 23 24  1  6  0  0  0
 23 29  1  0  0  0  0
 25 26  1  6  0  0  0
 25 31  1  0  0  0  0
 27  7  1  1  0  0  0
 27 28  1  0  0  0  0
 29 30  1  1  0  0  0
 29 33  1  0  0  0  0
 31 32  1  6  0  0  0
 31 35  1  0  0  0  0
 33 34  1  0  0  0  0
 33 37  1  6  0  0  0
 35 36  1  6  0  0  0
 37 38  1  0  0  0  0
M  END
>  <CHROM.1>
-156.15833140,62.46810519,169.20621232,179.27338245,-174.46923122,-115.01990109
91.84494475,66.51455155,-171.59508820,-90.39629467,72.98378053,2.82099344
35.18014789,-1.36824169,-0.34402115,-0.20894094,0.61030461

>  <Name>
1nta_lig

>  <RI>
0

>  <Rbt.Current_Directory>
/home/itssahil/PROJECTS/Mol_Feturizer/New_Systems/rnas/1nta

>  <Rbt.Executable>
rbdock ($Id: //depot/dev/client3/rdock/2013.1/src/exe/rbdock.cxx#4 $)

>  <Rbt.Library>
libRbt.so (2013.1, Build901 2013/11/27)

>  <Rbt.Parameter_File>
/export/apps/rDock/src/rDock_2013.1_src/data/scripts/dock_solv.prm

>  <Rbt.Receptor>
prm/pocket_docking_2.prm

>  <SCORE>
-26.9013

>  <SCORE.INTER>
-6.74544

>  <SCORE.INTER.CONST>
1

>  <SCORE.INTER.POLAR>
-1.03499

>  <SCORE.INTER.ROT>
11

>  <SCORE.INTER.SOLV>
21.7494

>  <SCORE.INTER.VDW>
-19.2301

>  <SCORE.INTER.norm>
-0.168636

>  <SCORE.INTRA>
-20.8418

>  <SCORE.INTRA.DIHEDRAL>
-9.7784

>  <SCORE.INTRA.DIHEDRAL.0>
19.0336

>  <SCORE.INTRA.POLAR>
0

>  <SCORE.INTRA.POLAR.0>
0

>  <SCORE.INTRA.REPUL>
0.00474915

>  <SCORE.INTRA.REPUL.0>
0

>  <SCORE.INTRA.SOLV>
-1.52158

>  <SCORE.INTRA.SOLV.lig_0>
-97.5861

>  <SCORE.INTRA.VDW>
-15.2155

>  <SCORE.INTRA.VDW.0>
11.7669

>  <SCORE.INTRA.norm>
-0.521045

>  <SCORE.RESTR>
0.685945

>  <SCORE.RESTR.CAVITY>
0.685945

>  <SCORE.RESTR.norm>
0.0171486

>  <SCORE.SYSTEM>
0

>  <SCORE.SYSTEM.CONST>
0

>  <SCORE.SYSTEM.DIHEDRAL>
0

>  <SCORE.SYSTEM.SOLV>
0

>  <SCORE.SYSTEM.norm>
0

>  <SCORE.heavy>
40

>  <SCORE.norm>
-0.672532

>  <RMSD>
2.597

$$$$
1nta_lig
 OpenBabel11021811403D
libRbt.so/2013.1/901 2013/11/27
 40 42  0  0  0  0  0  0  0  0999 V2000
    9.3956   33.2222   -2.0678 C   0  0  0  0  0  0  0  0  0  0  0  0
    9.9715   34.2754   -1.6215 N   0  0  0  0  0  0  0  0  0  0  0  0
   -0.2846   34.5990   -4.0080 C   0  0  0  0  0  0  0  0  0  0  0  0
    0.5905   35.0200   -4.7321 O   0  0  0  0  0  0  0  0  0  0  0  0
    4.2692   35.9885    0.7129 C   0  0  0  0  0  0  0  0  0  0  0  0
    3.8994   37.1410    0.2184 N   0  0  0  0  0  0  0  0  0  0  0  0
    0.0056   31.4109   -3.1063 C   0  0  0  0  0  0  0  0  0  0  0  0
   -3.4416   35.6617    0.9778 C   0  0  0  0  0  0  0  0  0  0  0  0
    7.0639   33.5399   -1.8172 C   0  0  2  0  0  0  0  0  0  0  0  0
    8.3300   32.8235   -1.3896 N   0  0  0  0  0  0  0  0  0  0  0  0
    1.8536   33.9615   -1.3831 C   0  0  2  0  0  0  0  0  0  0  0  0
   -1.0063   36.1425   -1.0637 C   0  0  1  0  0  0  0  0  0  0  0  0
    0.0891   35.3608   -0.7370 O   0  0  0  0  0  0  0  0  0  0  0  0
    6.1831   33.8363   -0.5887 C   0  0  1  0  0  0  0  0  0  0  0  0
    6.9021   34.7061    0.2326 O   0  0  0  0  0  0  0  0  0  0  0  0
    0.6761   34.8361   -1.7997 C   0  0  2  0  0  0  0  0  0  0  0  0
   -1.6643   36.8535    0.0984 C   0  0  1  0  0  0  0  0  0  0  0  0
   -2.0102   35.8894    1.0848 N   0  0  0  0  0  0  0  0  0  0  0  0
    4.8736   34.5418   -0.9656 C   0  0  2  0  0  0  0  0  0  0  0  0
    3.9979   34.8386    0.1934 N   0  0  0  0  0  0  0  0  0  0  0  0
   -0.0548   33.9220   -2.6834 C   0  0  1  0  0  0  0  0  0  0  0  0
   -1.2810   33.5903   -2.0289 O   0  0  0  0  0  0  0  0  0  0  0  0
   -0.8073   37.7879    0.6627 C   0  0  2  0  0  0  0  0  0  0  0  0
   -1.5685   38.6005    1.5202 O   0  0  0  0  0  0  0  0  0  0  0  0
    4.1226   33.6509   -1.9424 C   0  0  1  0  0  0  0  0  0  0  0  0
    2.9147   34.3094   -2.2902 O   0  0  0  0  0  0  0  0  0  0  0  0
    0.7327   32.6934   -2.8448 C   0  0  1  0  0  0  0  0  0  0  0  0
    1.5090   32.6226   -1.6552 O   0  0  0  0  0  0  0  0  0  0  0  0
   -0.1797   38.6387   -0.4101 C   0  0  1  0  0  0  0  0  0  0  0  0
    0.8473   39.3985    0.1560 O   0  0  0  0  0  0  0  0  0  0  0  0
    4.9916   33.3857   -3.2046 C   0  0  2  0  0  0  0  0  0  0  0  0
    4.2668   32.5578   -4.1126 O   0  0  0  0  0  0  0  0  0  0  0  0
    0.4104   37.7658   -1.4648 C   0  0  1  0  0  0  0  0  0  0  0  0
   -0.6257   37.0134   -2.0267 O   0  0  0  0  0  0  0  0  0  0  0  0
    6.2917   32.6683   -2.7846 C   0  0  1  0  0  0  0  0  0  0  0  0
    7.1090   32.4132   -3.9387 O   0  0  0  0  0  0  0  0  0  0  0  0
    1.0462   38.6017   -2.5932 C   0  0  0  0  0  0  0  0  0  0  0  0
    0.1160   39.5877   -3.0261 O   0  0  0  0  0  0  0  0  0  0  0  0
    9.8237   32.5864   -3.1045 N   0  0  0  0  0  0  0  0  0  0  0  0
    4.9727   35.9522    1.7760 N   0  0  0  0  0  0  0  0  0  0  0  0
  1  2  1  0  0  0  0
  1 39  1  0  0  0  0
  3  4  1  0  0  0  0
  5  6  1  0  0  0  0
  5 40  1  0  0  0  0
  9 10  1  1  0  0  0
  9 14  1  0  0  0  0
  9 35  1  0  0  0  0
 10  1  1  0  0  0  0
 11 16  1  0  0  0  0
 11 28  1  0  0  0  0
 11 26  1  6  0  0  0
 12 17  1  0  0  0  0
 12 34  1  0  0  0  0
 12 13  1  1  0  0  0
 14 15  1  1  0  0  0
 14 19  1  0  0  0  0
 16 13  1  1  0  0  0
 16 21  1  0  0  0  0
 17 18  1  1  0  0  0
 17 23  1  0  0  0  0
 18  8  1  0  0  0  0
 19 20  1  1  0  0  0
 19 25  1  0  0  0  0
 20  5  1  0  0  0  0
 21  3  1  6  0  0  0
 21 22  1  0  0  0  0
 21 27  1  0  0  0  0
 23 24  1  1  0  0  0
 23 29  1  0  0  0  0
 25 26  1  6  0  0  0
 25 31  1  0  0  0  0
 27  7  1  1  0  0  0
 27 28  1  0  0  0  0
 29 30  1  1  0  0  0
 29 33  1  0  0  0  0
 31 32  1  6  0  0  0
 31 35  1  0  0  0  0
 33 34  1  0  0  0  0
 33 37  1  6  0  0  0
 35 36  1  6  0  0  0
 37 38  1  0  0  0  0
M  END
>  <CHROM.1>
-141.48532483,84.43583877,174.80260896,-175.78365441,-178.71803772,-103.01330222
88.80503831,77.58497140,58.68664319,-89.37949687,-49.72118047,2.55575945
35.07661916,-1.46086844,-0.39848252,-0.12762943,0.65564541

>  <Name>
1nta_lig

>  <RI>
0

>  <Rbt.Current_Directory>
/home/itssahil/PROJECTS/Mol_Feturizer/New_Systems/rnas/1nta

>  <Rbt.Executable>
rbdock ($Id: //depot/dev/client3/rdock/2013.1/src/exe/rbdock.cxx#4 $)

>  <Rbt.Library>
libRbt.so (2013.1, Build901 2013/11/27)

>  <Rbt.Parameter_File>
/export/apps/rDock/src/rDock_2013.1_src/data/scripts/dock_solv.prm

>  <Rbt.Receptor>
prm/pocket_docking_2.prm

>  <SCORE>
-27.8034

>  <SCORE.INTER>
-6.64704

>  <SCORE.INTER.CONST>
1

>  <SCORE.INTER.POLAR>
-1.4278

>  <SCORE.INTER.ROT>
11

>  <SCORE.INTER.SOLV>
21.2816

>  <SCORE.INTER.VDW>
-17.6992

>  <SCORE.INTER.norm>
-0.166176

>  <SCORE.INTRA>
-21.9764

>  <SCORE.INTRA.DIHEDRAL>
-10.9199

>  <SCORE.INTRA.DIHEDRAL.0>
19.0336

>  <SCORE.INTRA.POLAR>
0

>  <SCORE.INTRA.POLAR.0>
0

>  <SCORE.INTRA.REPUL>
0.0061632

>  <SCORE.INTRA.REPUL.0>
0

>  <SCORE.INTRA.SOLV>
-2.38715

>  <SCORE.INTRA.SOLV.lig_0>
-97.5861

>  <SCORE.INTRA.VDW>
-15.3537

>  <SCORE.INTRA.VDW.0>
11.7669

>  <SCORE.INTRA.norm>
-0.54941

>  <SCORE.RESTR>
0.820019

>  <SCORE.RESTR.CAVITY>
0.820019

>  <SCORE.RESTR.norm>
0.0205005

>  <SCORE.SYSTEM>
0

>  <SCORE.SYSTEM.CONST>
0

>  <SCORE.SYSTEM.DIHEDRAL>
0

>  <SCORE.SYSTEM.SOLV>
0

>  <SCORE.SYSTEM.norm>
0

>  <SCORE.heavy>
40

>  <SCORE.norm>
-0.695085

>  <RMSD>
2.597

$$$$
1nta_lig
 OpenBabel11021811403D
libRbt.so/2013.1/901 2013/11/27
 40 42  0  0  0  0  0  0  0  0999 V2000
    9.5159   33.1003   -2.1267 C   0  0  0  0  0  0  0  0  0  0  0  0
    9.9510   32.3752   -3.0885 N   0  0  0  0  0  0  0  0  0  0  0  0
   -0.0460   34.8197   -4.2523 C   0  0  0  0  0  0  0  0  0  0  0  0
   -0.7466   34.3957   -5.1448 O   0  0  0  0  0  0  0  0  0  0  0  0
    4.4461   36.3758    0.2386 C   0  0  0  0  0  0  0  0  0  0  0  0
    3.6811   37.3358   -0.2119 N   0  0  0  0  0  0  0  0  0  0  0  0
    0.1506   31.6459   -3.2779 C   0  0  0  0  0  0  0  0  0  0  0  0
   -3.4097   35.7898    0.4659 C   0  0  0  0  0  0  0  0  0  0  0  0
    7.1798   33.4552   -1.9968 C   0  0  2  0  0  0  0  0  0  0  0  0
    8.4012   32.6755   -1.5508 N   0  0  0  0  0  0  0  0  0  0  0  0
    1.9891   34.1959   -1.5435 C   0  0  2  0  0  0  0  0  0  0  0  0
   -0.8561   36.4110   -1.3634 C   0  0  1  0  0  0  0  0  0  0  0  0
    0.2317   35.6415   -0.9863 O   0  0  0  0  0  0  0  0  0  0  0  0
    6.3607   33.9020   -0.7710 C   0  0  1  0  0  0  0  0  0  0  0  0
    7.1668   34.7690   -0.0317 O   0  0  0  0  0  0  0  0  0  0  0  0
    0.8438   35.0840   -2.0176 C   0  0  2  0  0  0  0  0  0  0  0  0
   -1.6100   37.0674   -0.2278 C   0  0  1  0  0  0  0  0  0  0  0  0
   -2.0015   36.0628    0.6993 N   0  0  0  0  0  0  0  0  0  0  0  0
    5.0966   34.6778   -1.1646 C   0  0  2  0  0  0  0  0  0  0  0  0
    4.2806   35.1198   -0.0083 N   0  0  0  0  0  0  0  0  0  0  0  0
    0.1254   34.1659   -2.9074 C   0  0  1  0  0  0  0  0  0  0  0  0
   -1.1286   33.8711   -2.2887 O   0  0  0  0  0  0  0  0  0  0  0  0
   -0.8165   37.9995    0.4262 C   0  0  2  0  0  0  0  0  0  0  0  0
   -1.6544   38.7658    1.2542 O   0  0  0  0  0  0  0  0  0  0  0  0
    4.2524   33.7815   -2.0568 C   0  0  1  0  0  0  0  0  0  0  0  0
    3.0869   34.5047   -2.4205 O   0  0  0  0  0  0  0  0  0  0  0  0
    0.8935   32.9195   -3.0171 C   0  0  1  0  0  0  0  0  0  0  0  0
    1.6276   32.8584   -1.8005 O   0  0  0  0  0  0  0  0  0  0  0  0
   -0.1354   38.8998   -0.5709 C   0  0  1  0  0  0  0  0  0  0  0  0
    0.8316   39.6608    0.0912 O   0  0  0  0  0  0  0  0  0  0  0  0
    5.0610   33.3643   -3.3181 C   0  0  2  0  0  0  0  0  0  0  0  0
    4.2496   32.5334   -4.1467 O   0  0  0  0  0  0  0  0  0  0  0  0
    0.5470   38.0764   -1.6095 C   0  0  1  0  0  0  0  0  0  0  0  0
   -0.4295   37.3224   -2.2677 O   0  0  0  0  0  0  0  0  0  0  0  0
    6.3160   32.5804   -2.8804 C   0  0  1  0  0  0  0  0  0  0  0  0
    7.0771   32.1847   -4.0333 O   0  0  0  0  0  0  0  0  0  0  0  0
    1.2405   38.9640   -2.6620 C   0  0  0  0  0  0  0  0  0  0  0  0
    2.4460   39.4848   -2.1137 O   0  0  0  0  0  0  0  0  0  0  0  0
   10.1164   34.1752   -1.7443 N   0  0  0  0  0  0  0  0  0  0  0  0
    5.4574   36.6588    0.9621 N   0  0  0  0  0  0  0  0  0  0  0  0
  1  2  1  0  0  0  0
  1 39  1  0  0  0  0
  3  4  1  0  0  0  0
  5  6  1  0  0  0  0
  5 40  1  0  0  0  0
  9 10  1  1  0  0  0
  9 14  1  0  0  0  0
  9 35  1  0  0  0  0
 10  1  1  0  0  0  0
 11 16  1  0  0  0  0
 11 28  1  0  0  0  0
 11 26  1  6  0  0  0
 12 17  1  0  0  0  0
 12 34  1  0  0  0  0
 12 13  1  1  0  0  0
 14 15  1  1  0  0  0
 14 19  1  0  0  0  0
 16 13  1  1  0  0  0
 16 21  1  0  0  0  0
 17 18  1  1  0  0  0
 17 23  1  0  0  0  0
 18  8  1  0  0  0  0
 19 20  1  1  0  0  0
 19 25  1  0  0  0  0
 20  5  1  0  0  0  0
 21  3  1  6  0  0  0
 21 22  1  0  0  0  0
 21 27  1  0  0  0  0
 23 24  1  1  0  0  0
 23 29  1  0  0  0  0
 25 26  1  6  0  0  0
 25 31  1  0  0  0  0
 27  7  1  1  0  0  0
 27 28  1  0  0  0  0
 29 30  1  1  0  0  0
 29 33  1  0  0  0  0
 31 32  1  6  0  0  0
 31 35  1  0  0  0  0
 33 34  1  0  0  0  0
 33 37  1  6  0  0  0
 35 36  1  6  0  0  0
 37 38  1  0  0  0  0
M  END
>  <CHROM.1>
-130.95291521,-102.34225471,177.59651741,179.43828127,-177.25175533,-101.88739828
102.78906994,94.56494666,-169.77448024,-95.30310707,76.70389338,2.69328763
35.20516022,-1.65012515,-0.40942902,-0.11843077,0.59057506

>  <Name>
1nta_lig

>  <RI>
0

>  <Rbt.Current_Directory>
/home/itssahil/PROJECTS/Mol_Feturizer/New_Systems/rnas/1nta

>  <Rbt.Executable>
rbdock ($Id: //depot/dev/client3/rdock/2013.1/src/exe/rbdock.cxx#4 $)

>  <Rbt.Library>
libRbt.so (2013.1, Build901 2013/11/27)

>  <Rbt.Parameter_File>
/export/apps/rDock/src/rDock_2013.1_src/data/scripts/dock_solv.prm

>  <Rbt.Receptor>
prm/pocket_docking_2.prm

>  <SCORE>
-29.1998

>  <SCORE.INTER>
-8.25261

>  <SCORE.INTER.CONST>
1

>  <SCORE.INTER.POLAR>
-1.64068

>  <SCORE.INTER.ROT>
11

>  <SCORE.INTER.SOLV>
20.8836

>  <SCORE.INTER.VDW>
-17.9273

>  <SCORE.INTER.norm>
-0.206315

>  <SCORE.INTRA>
-21.5059

>  <SCORE.INTRA.DIHEDRAL>
-8.80076

>  <SCORE.INTRA.DIHEDRAL.0>
19.0336

>  <SCORE.INTRA.POLAR>
0

>  <SCORE.INTRA.POLAR.0>
0

>  <SCORE.INTRA.REPUL>
0

>  <SCORE.INTRA.REPUL.0>
0

>  <SCORE.INTRA.SOLV>
-1.11303

>  <SCORE.INTRA.SOLV.lig_0>
-97.5861

>  <SCORE.INTRA.VDW>
-16.5491

>  <SCORE.INTRA.VDW.0>
11.7669

>  <SCORE.INTRA.norm>
-0.537649

>  <SCORE.RESTR>
0.558722

>  <SCORE.RESTR.CAVITY>
0.558722

>  <SCORE.RESTR.norm>
0.0139681

>  <SCORE.SYSTEM>
0

>  <SCORE.SYSTEM.CONST>
0

>  <SCORE.SYSTEM.DIHEDRAL>
0

>  <SCORE.SYSTEM.SOLV>
0

>  <SCORE.SYSTEM.norm>
0

>  <SCORE.heavy>
40

>  <SCORE.norm>
-0.729996

>  <RMSD>
2.621

$$$$
1nta_lig
 OpenBabel11021811403D
libRbt.so/2013.1/901 2013/11/27
 40 42  0  0  0  0  0  0  0  0999 V2000
    9.5058   33.0401   -2.1755 C   0  0  0  0  0  0  0  0  0  0  0  0
    9.9151   32.2935   -3.1322 N   0  0  0  0  0  0  0  0  0  0  0  0
   -0.0746   34.5802   -4.1359 C   0  0  0  0  0  0  0  0  0  0  0  0
    0.0353   35.7495   -4.4323 O   0  0  0  0  0  0  0  0  0  0  0  0
    4.4560   36.2734    0.3804 C   0  0  0  0  0  0  0  0  0  0  0  0
    3.6322   37.2297    0.0385 N   0  0  0  0  0  0  0  0  0  0  0  0
    0.2589   31.4830   -2.9707 C   0  0  0  0  0  0  0  0  0  0  0  0
   -3.6121   35.4440    0.7860 C   0  0  0  0  0  0  0  0  0  0  0  0
    7.1805   33.4305   -1.9727 C   0  0  2  0  0  0  0  0  0  0  0  0
    8.4034   32.6322   -1.5648 N   0  0  0  0  0  0  0  0  0  0  0  0
    2.0117   34.2059   -1.4201 C   0  0  2  0  0  0  0  0  0  0  0  0
   -0.9714   36.2311   -1.3239 C   0  0  1  0  0  0  0  0  0  0  0  0
    0.2036   35.6130   -0.9303 O   0  0  0  0  0  0  0  0  0  0  0  0
    6.3708   33.8322   -0.7253 C   0  0  1  0  0  0  0  0  0  0  0  0
    7.1837   34.6692    0.0406 O   0  0  0  0  0  0  0  0  0  0  0  0
    0.8269   35.0171   -1.9331 C   0  0  2  0  0  0  0  0  0  0  0  0
   -1.8954   36.6422   -0.1988 C   0  0  1  0  0  0  0  0  0  0  0  0
   -2.1715   35.5010    0.6035 N   0  0  0  0  0  0  0  0  0  0  0  0
    5.1056   34.6246   -1.0806 C   0  0  2  0  0  0  0  0  0  0  0  0
    4.2985   35.0242    0.0971 N   0  0  0  0  0  0  0  0  0  0  0  0
    0.1366   34.0181   -2.7556 C   0  0  1  0  0  0  0  0  0  0  0  0
   -1.0981   33.7132   -2.1040 O   0  0  0  0  0  0  0  0  0  0  0  0
   -1.3125   37.6204    0.5946 C   0  0  2  0  0  0  0  0  0  0  0  0
   -2.3180   38.1564    1.4172 O   0  0  0  0  0  0  0  0  0  0  0  0
    4.2535   33.7642   -2.0002 C   0  0  1  0  0  0  0  0  0  0  0  0
    3.0871   34.5027   -2.3283 O   0  0  0  0  0  0  0  0  0  0  0  0
    0.9529   32.7985   -2.7983 C   0  0  1  0  0  0  0  0  0  0  0  0
    1.7014   32.8419   -1.5896 O   0  0  0  0  0  0  0  0  0  0  0  0
   -0.7297   38.7126   -0.2633 C   0  0  1  0  0  0  0  0  0  0  0  0
    0.0520   39.5499    0.5369 O   0  0  0  0  0  0  0  0  0  0  0  0
    5.0526   33.3934   -3.2818 C   0  0  2  0  0  0  0  0  0  0  0  0
    4.2339   32.5958   -4.1356 O   0  0  0  0  0  0  0  0  0  0  0  0
    0.1458   38.1165   -1.3124 C   0  0  1  0  0  0  0  0  0  0  0  0
   -0.6467   37.2841   -2.1090 O   0  0  0  0  0  0  0  0  0  0  0  0
    6.3090   32.5913   -2.8827 C   0  0  1  0  0  0  0  0  0  0  0  0
    7.0613   32.2379   -4.0549 O   0  0  0  0  0  0  0  0  0  0  0  0
    0.7465   39.2036   -2.2254 C   0  0  0  0  0  0  0  0  0  0  0  0
    2.0567   38.8123   -2.6193 O   0  0  0  0  0  0  0  0  0  0  0  0
   10.1195   34.1199   -1.8297 N   0  0  0  0  0  0  0  0  0  0  0  0
    5.5205   36.5548    1.0239 N   0  0  0  0  0  0  0  0  0  0  0  0
  1  2  1  0  0  0  0
  1 39  1  0  0  0  0
  3  4  1  0  0  0  0
  5  6  1  0  0  0  0
  5 40  1  0  0  0  0
  9 10  1  1  0  0  0
  9 14  1  0  0  0  0
  9 35  1  0  0  0  0
 10  1  1  0  0  0  0
 11 16  1  0  0  0  0
 11 28  1  0  0  0  0
 11 26  1  6  0  0  0
 12 17  1  0  0  0  0
 12 34  1  0  0  0  0
 12 13  1  1  0  0  0
 14 15  1  1  0  0  0
 14 19  1  0  0  0  0
 16 13  1  1  0  0  0
 16 21  1  0  0  0  0
 17 18  1  1  0  0  0
 17 23  1  0  0  0  0
 18  8  1  0  0  0  0
 19 20  1  1  0  0  0
 19 25  1  0  0  0  0
 20  5  1  0  0  0  0
 21  3  1  6  0  0  0
 21 22  1  0  0  0  0
 21 27  1  0  0  0  0
 23 24  1  1  0  0  0
 23 29  1  0  0  0  0
 25 26  1  6  0  0  0
 25 31  1  0  0  0  0
 27  7  1  1  0  0  0
 27 28  1  0  0  0  0
 29 30  1  1  0  0  0
 29 33  1  0  0  0  0
 31 32  1  6  0  0  0
 31 35  1  0  0  0  0
 33 34  1  0  0  0  0
 33 37  1  6  0  0  0
 35 36  1  6  0  0  0
 37 38  1  0  0  0  0
M  END
>  <CHROM.1>
-133.64676133,-103.73935978,-177.57311929,166.01439172,-172.75786816,-130.99518047
103.55753908,99.12862399,-14.83940581,-92.80391411,145.60277122,2.59832917
35.11870952,-1.53104220,-0.40695876,-0.09083722,0.59670129

>  <Name>
1nta_lig

>  <RI>
0

>  <Rbt.Current_Directory>
/home/itssahil/PROJECTS/Mol_Feturizer/New_Systems/rnas/1nta

>  <Rbt.Executable>
rbdock ($Id: //depot/dev/client3/rdock/2013.1/src/exe/rbdock.cxx#4 $)

>  <Rbt.Library>
libRbt.so (2013.1, Build901 2013/11/27)

>  <Rbt.Parameter_File>
/export/apps/rDock/src/rDock_2013.1_src/data/scripts/dock_solv.prm

>  <Rbt.Receptor>
prm/pocket_docking_2.prm

>  <SCORE>
-24.9396

>  <SCORE.INTER>
-7.55492

>  <SCORE.INTER.CONST>
1

>  <SCORE.INTER.POLAR>
-1.52235

>  <SCORE.INTER.ROT>
11

>  <SCORE.INTER.SOLV>
20.8856

>  <SCORE.INTER.VDW>
-17.8573

>  <SCORE.INTER.norm>
-0.188873

>  <SCORE.INTRA>
-17.8693

>  <SCORE.INTRA.DIHEDRAL>
-1.86669

>  <SCORE.INTRA.DIHEDRAL.0>
19.0336

>  <SCORE.INTRA.POLAR>
0

>  <SCORE.INTRA.POLAR.0>
0

>  <SCORE.INTRA.REPUL>
0

>  <SCORE.INTRA.REPUL.0>
0

>  <SCORE.INTRA.SOLV>
-1.63931

>  <SCORE.INTRA.SOLV.lig_0>
-97.5861

>  <SCORE.INTRA.VDW>
-16.1163

>  <SCORE.INTRA.VDW.0>
11.7669

>  <SCORE.INTRA.norm>
-0.446733

>  <SCORE.RESTR>
0.484671

>  <SCORE.RESTR.CAVITY>
0.484671

>  <SCORE.RESTR.norm>
0.0121168

>  <SCORE.SYSTEM>
0

>  <SCORE.SYSTEM.CONST>
0

>  <SCORE.SYSTEM.DIHEDRAL>
0

>  <SCORE.SYSTEM.SOLV>
0

>  <SCORE.SYSTEM.norm>
0

>  <SCORE.heavy>
40

>  <SCORE.norm>
-0.623489

>  <RMSD>
2.628

$$$$
1nta_lig
 OpenBabel11021811403D
libRbt.so/2013.1/901 2013/11/27
 40 42  0  0  0  0  0  0  0  0999 V2000
    9.6597   33.0426   -2.1240 C   0  0  0  0  0  0  0  0  0  0  0  0
   10.2324   32.2937   -2.9908 N   0  0  0  0  0  0  0  0  0  0  0  0
    0.2194   34.8607   -4.7144 C   0  0  0  0  0  0  0  0  0  0  0  0
   -0.3250   34.4794   -5.7270 O   0  0  0  0  0  0  0  0  0  0  0  0
    4.6553   35.9102    0.3926 C   0  0  0  0  0  0  0  0  0  0  0  0
    5.1097   35.9487    1.6181 N   0  0  0  0  0  0  0  0  0  0  0  0
    0.3718   31.6030   -4.0620 C   0  0  0  0  0  0  0  0  0  0  0  0
   -3.7076   35.0407   -1.2958 C   0  0  0  0  0  0  0  0  0  0  0  0
    7.3145   33.3590   -2.1071 C   0  0  2  0  0  0  0  0  0  0  0  0
    8.5225   32.5768   -1.6297 N   0  0  0  0  0  0  0  0  0  0  0  0
    2.0857   33.9582   -1.9629 C   0  0  2  0  0  0  0  0  0  0  0  0
   -0.6902   36.2535   -1.7227 C   0  0  1  0  0  0  0  0  0  0  0  0
    0.2895   35.3406   -1.3701 O   0  0  0  0  0  0  0  0  0  0  0  0
    6.4088   33.7147   -0.9129 C   0  0  1  0  0  0  0  0  0  0  0  0
    7.1460   34.5501   -0.0722 O   0  0  0  0  0  0  0  0  0  0  0  0
    0.9674   34.8918   -2.4132 C   0  0  2  0  0  0  0  0  0  0  0  0
   -1.8660   36.3405   -0.7746 C   0  0  1  0  0  0  0  0  0  0  0  0
   -2.4218   35.0409   -0.6184 N   0  0  0  0  0  0  0  0  0  0  0  0
    5.1550   34.4889   -1.3410 C   0  0  2  0  0  0  0  0  0  0  0  0
    4.2570   34.8441   -0.2161 N   0  0  0  0  0  0  0  0  0  0  0  0
    0.3104   34.0713   -3.4360 C   0  0  1  0  0  0  0  0  0  0  0  0
   -0.9780   33.7157   -2.9303 O   0  0  0  0  0  0  0  0  0  0  0  0
   -1.4714   36.8142    0.4687 C   0  0  2  0  0  0  0  0  0  0  0  0
   -2.6334   37.1466    1.1859 O   0  0  0  0  0  0  0  0  0  0  0  0
    4.3902   33.6328   -2.3381 C   0  0  1  0  0  0  0  0  0  0  0  0
    3.2342   34.3546   -2.7333 O   0  0  0  0  0  0  0  0  0  0  0  0
    1.0904   32.8420   -3.6256 C   0  0  1  0  0  0  0  0  0  0  0  0
    1.7479   32.6548   -2.3784 O   0  0  0  0  0  0  0  0  0  0  0  0
   -0.6089   38.0392    0.3135 C   0  0  1  0  0  0  0  0  0  0  0  0
   -0.0341   38.3491    1.5487 O   0  0  0  0  0  0  0  0  0  0  0  0
    5.2871   33.3086   -3.5667 C   0  0  2  0  0  0  0  0  0  0  0  0
    4.5495   32.5145   -4.4944 O   0  0  0  0  0  0  0  0  0  0  0  0
    0.4881   37.7633   -0.6575 C   0  0  1  0  0  0  0  0  0  0  0  0
   -0.0978   37.4583   -1.8900 O   0  0  0  0  0  0  0  0  0  0  0  0
    6.5292   32.5235   -3.0957 C   0  0  1  0  0  0  0  0  0  0  0  0
    7.3712   32.2132   -4.2180 O   0  0  0  0  0  0  0  0  0  0  0  0
    1.3829   39.0023   -0.8592 C   0  0  0  0  0  0  0  0  0  0  0  0
    2.3810   38.7058   -1.8291 O   0  0  0  0  0  0  0  0  0  0  0  0
   10.1508   34.1770   -1.7576 N   0  0  0  0  0  0  0  0  0  0  0  0
    4.5598   36.9887   -0.2813 N   0  0  0  0  0  0  0  0  0  0  0  0
  1  2  1  0  0  0  0
  1 39  1  0  0  0  0
  3  4  1  0  0  0  0
  5  6  1  0  0  0  0
  5 40  1  0  0  0  0
  9 10  1  1  0  0  0
  9 14  1  0  0  0  0
  9 35  1  0  0  0  0
 10  1  1  0  0  0  0
 11 16  1  0  0  0  0
 11 28  1  0  0  0  0
 11 26  1  6  0  0  0
 12 17  1  0  0  0  0
 12 34  1  0  0  0  0
 12 13  1  1  0  0  0
 14 15  1  1  0  0  0
 14 19  1  0  0  0  0
 16 13  1  1  0  0  0
 16 21  1  0  0  0  0
 17 18  1  1  0  0  0
 17 23  1  0  0  0  0
 18  8  1  0  0  0  0
 19 20  1  1  0  0  0
 19 25  1  0  0  0  0
 20  5  1  0  0  0  0
 21  3  1  6  0  0  0
 21 22  1  0  0  0  0
 21 27  1  0  0  0  0
 23 24  1  1  0  0  0
 23 29  1  0  0  0  0
 25 26  1  6  0  0  0
 25 31  1  0  0  0  0
 27  7  1  1  0  0  0
 27 28  1  0  0  0  0
 29 30  1  1  0  0  0
 29 33  1  0  0  0  0
 31 32  1  6  0  0  0
 31 35  1  0  0  0  0
 33 34  1  0  0  0  0
 33 37  1  6  0  0  0
 35 36  1  6  0  0  0
 37 38  1  0  0  0  0
M  END
>  <CHROM.1>
-132.05626562,-109.56330594,175.31981853,153.63211067,176.54821713,-109.42910377
82.14984670,-112.88511347,-176.54281809,-96.14524124,-177.81851377,2.72224543
34.88016134,-1.78085820,-0.31838551,-0.15034901,0.79132504

>  <Name>
1nta_lig

>  <RI>
0

>  <Rbt.Current_Directory>
/home/itssahil/PROJECTS/Mol_Feturizer/New_Systems/rnas/1nta

>  <Rbt.Executable>
rbdock ($Id: //depot/dev/client3/rdock/2013.1/src/exe/rbdock.cxx#4 $)

>  <Rbt.Library>
libRbt.so (2013.1, Build901 2013/11/27)

>  <Rbt.Parameter_File>
/export/apps/rDock/src/rDock_2013.1_src/data/scripts/dock_solv.prm

>  <Rbt.Receptor>
prm/pocket_docking_4.prm

>  <SCORE>
-32.3819

>  <SCORE.INTER>
-9.80025

>  <SCORE.INTER.CONST>
1

>  <SCORE.INTER.POLAR>
-1.71838

>  <SCORE.INTER.ROT>
11

>  <SCORE.INTER.SOLV>
23.2558

>  <SCORE.INTER.VDW>
-19.4908

>  <SCORE.INTER.norm>
-0.245006

>  <SCORE.INTRA>
-22.5817

>  <SCORE.INTRA.DIHEDRAL>
-7.60011

>  <SCORE.INTRA.DIHEDRAL.0>
19.0336

>  <SCORE.INTRA.POLAR>
0

>  <SCORE.INTRA.POLAR.0>
0

>  <SCORE.INTRA.REPUL>
0

>  <SCORE.INTRA.REPUL.0>
0

>  <SCORE.INTRA.SOLV>
-2.53753

>  <SCORE.INTRA.SOLV.lig_0>
-97.5861

>  <SCORE.INTRA.VDW>
-17.5128

>  <SCORE.INTRA.VDW.0>
11.7669

>  <SCORE.INTRA.norm>
-0.564541

>  <SCORE.RESTR>
0

>  <SCORE.RESTR.CAVITY>
0

>  <SCORE.RESTR.norm>
0

>  <SCORE.SYSTEM>
0

>  <SCORE.SYSTEM.CONST>
0

>  <SCORE.SYSTEM.DIHEDRAL>
0

>  <SCORE.SYSTEM.SOLV>
0

>  <SCORE.SYSTEM.norm>
0

>  <SCORE.heavy>
40

>  <SCORE.norm>
-0.809548

>  <RMSD>
2.635

$$$$
1nta_lig
 OpenBabel11021811403D
libRbt.so/2013.1/901 2013/11/27
 40 42  0  0  0  0  0  0  0  0999 V2000
    9.7300   33.0194   -2.1397 C   0  0  0  0  0  0  0  0  0  0  0  0
   10.1734   32.2258   -3.0417 N   0  0  0  0  0  0  0  0  0  0  0  0
    0.3736   35.5506   -2.7040 C   0  0  0  0  0  0  0  0  0  0  0  0
   -0.2919   36.5001   -2.3534 O   0  0  0  0  0  0  0  0  0  0  0  0
    4.7887   36.1464    1.1802 C   0  0  0  0  0  0  0  0  0  0  0  0
    3.6732   36.6830    0.7588 N   0  0  0  0  0  0  0  0  0  0  0  0
    0.8147   32.3846   -3.6221 C   0  0  0  0  0  0  0  0  0  0  0  0
    1.0965   38.3209    1.3007 C   0  0  0  0  0  0  0  0  0  0  0  0
    7.4677   33.3414   -1.5240 C   0  0  2  0  0  0  0  0  0  0  0  0
    8.7481   32.5403   -1.3906 N   0  0  0  0  0  0  0  0  0  0  0  0
    2.2693   33.6128   -0.5781 C   0  0  2  0  0  0  0  0  0  0  0  0
    0.9212   35.0166    1.5922 C   0  0  1  0  0  0  0  0  0  0  0  0
    0.3437   34.4239    0.4818 O   0  0  0  0  0  0  0  0  0  0  0  0
    6.9320   33.7186   -0.1298 C   0  0  1  0  0  0  0  0  0  0  0  0
    7.8853   34.5448    0.4673 O   0  0  0  0  0  0  0  0  0  0  0  0
    1.0773   34.5632   -0.6098 C   0  0  2  0  0  0  0  0  0  0  0  0
    0.2656   36.2984    2.0568 C   0  0  1  0  0  0  0  0  0  0  0  0
    0.2226   37.2091    0.9655 N   0  0  0  0  0  0  0  0  0  0  0  0
    5.6210   34.5127   -0.2031 C   0  0  2  0  0  0  0  0  0  0  0  0
    5.0735   34.8889    1.1223 N   0  0  0  0  0  0  0  0  0  0  0  0
    0.5157   34.2665   -1.9317 C   0  0  1  0  0  0  0  0  0  0  0  0
   -0.7426   33.6224   -1.7224 O   0  0  0  0  0  0  0  0  0  0  0  0
   -1.0286   36.0655    2.5006 C   0  0  2  0  0  0  0  0  0  0  0  0
   -1.4593   37.2177    3.1804 O   0  0  0  0  0  0  0  0  0  0  0  0
    4.5977   33.6655   -0.9428 C   0  0  1  0  0  0  0  0  0  0  0  0
    3.3889   34.4057   -1.0108 O   0  0  0  0  0  0  0  0  0  0  0  0
    1.4088   33.3278   -2.6224 C   0  0  1  0  0  0  0  0  0  0  0  0
    2.0599   32.6312   -1.5671 O   0  0  0  0  0  0  0  0  0  0  0  0
   -1.0571   34.8880    3.4392 C   0  0  1  0  0  0  0  0  0  0  0  0
   -2.3864   34.5293    3.6773 O   0  0  0  0  0  0  0  0  0  0  0  0
    5.1160   33.3198   -2.3678 C   0  0  2  0  0  0  0  0  0  0  0  0
    4.1389   32.5345   -3.0489 O   0  0  0  0  0  0  0  0  0  0  0  0
   -0.3638   33.7267    2.8121 C   0  0  1  0  0  0  0  0  0  0  0  0
    0.9654   34.0951    2.5819 O   0  0  0  0  0  0  0  0  0  0  0  0
    6.4274   32.5152   -2.2500 C   0  0  1  0  0  0  0  0  0  0  0  0
    6.9224   32.1849   -3.5579 O   0  0  0  0  0  0  0  0  0  0  0  0
   -0.3542   32.5051    3.7523 C   0  0  0  0  0  0  0  0  0  0  0  0
   -1.6546   31.9279    3.7827 O   0  0  0  0  0  0  0  0  0  0  0  0
   10.2009   34.2078   -1.9715 N   0  0  0  0  0  0  0  0  0  0  0  0
    5.7019   36.8885    1.6720 N   0  0  0  0  0  0  0  0  0  0  0  0
  1  2  1  0  0  0  0
  1 39  1  0  0  0  0
  3  4  1  0  0  0  0
  5  6  1  0  0  0  0
  5 40  1  0  0  0  0
  9 10  1  1  0  0  0
  9 14  1  0  0  0  0
  9 35  1  0  0  0  0
 10  1  1  0  0  0  0
 11 16  1  0  0  0  0
 11 28  1  0  0  0  0
 11 26  1  6  0  0  0
 12 17  1  0  0  0  0
 12 34  1  0  0  0  0
 12 13  1  6  0  0  0
 14 15  1  6  0  0  0
 14 19  1  0  0  0  0
 16 13  1  1  0  0  0
 16 21  1  0  0  0  0
 17 18  1  6  0  0  0
 17 23  1  0  0  0  0
 18  8  1  0  0  0  0
 19 20  1  1  0  0  0
 19 25  1  0  0  0  0
 20  5  1  0  0  0  0
 21  3  1  6  0  0  0
 21 22  1  0  0  0  0
 21 27  1  0  0  0  0
 23 24  1  1  0  0  0
 23 29  1  0  0  0  0
 25 26  1  6  0  0  0
 25 31  1  0  0  0  0
 27  7  1  6  0  0  0
 27 28  1  0  0  0  0
 29 30  1  6  0  0  0
 29 33  1  0  0  0  0
 31 32  1  1  0  0  0
 31 35  1  0  0  0  0
 33 34  1  0  0  0  0
 33 37  1  1  0  0  0
 35 36  1  6  0  0  0
 37 38  1  0  0  0  0
M  END
>  <CHROM.1>
-129.28130439,-118.07622696,176.00579860,106.69539093,75.85708546,-113.71332353
129.56359427,83.92789004,-59.32407829,-130.28137279,74.33249740,2.92110827
34.34523178,-0.09225836,-0.45606601,0.02267859,1.10358370

>  <Name>
1nta_lig

>  <RI>
0

>  <Rbt.Current_Directory>
/home/itssahil/PROJECTS/Mol_Feturizer/New_Systems/rnas/1nta

>  <Rbt.Executable>
rbdock ($Id: //depot/dev/client3/rdock/2013.1/src/exe/rbdock.cxx#4 $)

>  <Rbt.Library>
libRbt.so (2013.1, Build901 2013/11/27)

>  <Rbt.Parameter_File>
/export/apps/rDock/src/rDock_2013.1_src/data/scripts/dock_solv.prm

>  <Rbt.Receptor>
prm/pocket_docking_7.prm

>  <SCORE>
-30.1927

>  <SCORE.INTER>
-12.1321

>  <SCORE.INTER.CONST>
1

>  <SCORE.INTER.POLAR>
-1.61113

>  <SCORE.INTER.ROT>
11

>  <SCORE.INTER.SOLV>
21.7485

>  <SCORE.INTER.VDW>
-20.9005

>  <SCORE.INTER.norm>
-0.303302

>  <SCORE.INTRA>
-18.0606

>  <SCORE.INTRA.DIHEDRAL>
0.530917

>  <SCORE.INTRA.DIHEDRAL.0>
19.0336

>  <SCORE.INTRA.POLAR>
0

>  <SCORE.INTRA.POLAR.0>
0

>  <SCORE.INTRA.REPUL>
0.000138337

>  <SCORE.INTRA.REPUL.0>
0

>  <SCORE.INTRA.SOLV>
-0.313953

>  <SCORE.INTRA.SOLV.lig_0>
-97.5861

>  <SCORE.INTRA.VDW>
-18.1698

>  <SCORE.INTRA.VDW.0>
11.7669

>  <SCORE.INTRA.norm>
-0.451515

>  <SCORE.RESTR>
0

>  <SCORE.RESTR.CAVITY>
0

>  <SCORE.RESTR.norm>
0

>  <SCORE.SYSTEM>
0

>  <SCORE.SYSTEM.CONST>
0

>  <SCORE.SYSTEM.DIHEDRAL>
0

>  <SCORE.SYSTEM.SOLV>
0

>  <SCORE.SYSTEM.norm>
0

>  <SCORE.heavy>
40

>  <SCORE.norm>
-0.754817

>  <RMSD>
2.640

$$$$
1nta_lig
 OpenBabel11021811403D
libRbt.so/2013.1/901 2013/11/27
 40 42  0  0  0  0  0  0  0  0999 V2000
    9.6341   33.1001   -1.4598 C   0  0  0  0  0  0  0  0  0  0  0  0
   10.5157   32.2907   -1.9156 N   0  0  0  0  0  0  0  0  0  0  0  0
    0.3255   34.7961   -4.7862 C   0  0  0  0  0  0  0  0  0  0  0  0
   -0.1650   34.2507   -5.7502 O   0  0  0  0  0  0  0  0  0  0  0  0
    4.5131   36.0077    0.4848 C   0  0  0  0  0  0  0  0  0  0  0  0
    5.0851   36.0275    1.6605 N   0  0  0  0  0  0  0  0  0  0  0  0
    0.2988   31.6781   -3.6290 C   0  0  0  0  0  0  0  0  0  0  0  0
   -3.3919   36.0307   -1.1180 C   0  0  0  0  0  0  0  0  0  0  0  0
    7.3034   33.3680   -1.7704 C   0  0  2  0  0  0  0  0  0  0  0  0
    8.4523   32.5652   -1.1920 N   0  0  0  0  0  0  0  0  0  0  0  0
    2.1398   34.2376   -1.9114 C   0  0  2  0  0  0  0  0  0  0  0  0
   -0.4785   36.7168   -2.0581 C   0  0  1  0  0  0  0  0  0  0  0  0
    0.4223   35.7914   -1.5583 O   0  0  0  0  0  0  0  0  0  0  0  0
    6.3154   33.7571   -0.6545 C   0  0  1  0  0  0  0  0  0  0  0  0
    7.0032   34.5859    0.2332 O   0  0  0  0  0  0  0  0  0  0  0  0
    1.0744   35.1480   -2.5122 C   0  0  2  0  0  0  0  0  0  0  0  0
   -1.4499   37.2863   -1.0477 C   0  0  1  0  0  0  0  0  0  0  0  0
   -2.1322   36.2104   -0.4159 N   0  0  0  0  0  0  0  0  0  0  0  0
    5.1167   34.5534   -1.1873 C   0  0  2  0  0  0  0  0  0  0  0  0
    4.1417   34.9412   -0.1399 N   0  0  0  0  0  0  0  0  0  0  0  0
    0.3732   34.2138   -3.3990 C   0  0  1  0  0  0  0  0  0  0  0  0
   -0.9327   34.0126   -2.8547 O   0  0  0  0  0  0  0  0  0  0  0  0
   -0.7871   38.0293   -0.0809 C   0  0  2  0  0  0  0  0  0  0  0  0
   -1.7539   38.7584    0.6325 O   0  0  0  0  0  0  0  0  0  0  0  0
    4.4132   33.7028   -2.2329 C   0  0  1  0  0  0  0  0  0  0  0  0
    3.3082   34.4450   -2.7247 O   0  0  0  0  0  0  0  0  0  0  0  0
    1.0845   32.9294   -3.3865 C   0  0  1  0  0  0  0  0  0  0  0  0
    1.7309   32.9053   -2.1198 O   0  0  0  0  0  0  0  0  0  0  0  0
    0.1851   38.9814   -0.7265 C   0  0  1  0  0  0  0  0  0  0  0  0
    1.0014   39.5365    0.2624 O   0  0  0  0  0  0  0  0  0  0  0  0
    5.3958   33.3449   -3.3840 C   0  0  2  0  0  0  0  0  0  0  0  0
    4.7153   32.5565   -4.3590 O   0  0  0  0  0  0  0  0  0  0  0  0
    1.0515   38.2417   -1.6882 C   0  0  1  0  0  0  0  0  0  0  0  0
    0.2255   37.6940   -2.6746 O   0  0  0  0  0  0  0  0  0  0  0  0
    6.5792   32.5384   -2.8093 C   0  0  1  0  0  0  0  0  0  0  0  0
    7.4992   32.1969   -3.8590 O   0  0  0  0  0  0  0  0  0  0  0  0
    2.0489   39.1876   -2.3859 C   0  0  0  0  0  0  0  0  0  0  0  0
    1.3271   40.1648   -3.1269 O   0  0  0  0  0  0  0  0  0  0  0  0
    9.8746   34.3535   -1.2770 N   0  0  0  0  0  0  0  0  0  0  0  0
    4.2635   37.1044   -0.1163 N   0  0  0  0  0  0  0  0  0  0  0  0
  1  2  1  0  0  0  0
  1 39  1  0  0  0  0
  3  4  1  0  0  0  0
  5  6  1  0  0  0  0
  5 40  1  0  0  0  0
  9 10  1  1  0  0  0
  9 14  1  0  0  0  0
  9 35  1  0  0  0  0
 10  1  1  0  0  0  0
 11 16  1  0  0  0  0
 11 28  1  0  0  0  0
 11 26  1  6  0  0  0
 12 17  1  0  0  0  0
 12 34  1  0  0  0  0
 12 13  1  1  0  0  0
 14 15  1  1  0  0  0
 14 19  1  0  0  0  0
 16 13  1  1  0  0  0
 16 21  1  0  0  0  0
 17 18  1  1  0  0  0
 17 23  1  0  0  0  0
 18  8  1  0  0  0  0
 19 20  1  1  0  0  0
 19 25  1  0  0  0  0
 20  5  1  0  0  0  0
 21  3  1  6  0  0  0
 21 22  1  0  0  0  0
 21 27  1  0  0  0  0
 23 24  1  6  0  0  0
 23 29  1  0  0  0  0
 25 26  1  6  0  0  0
 25 31  1  0  0  0  0
 27  7  1  1  0  0  0
 27 28  1  0  0  0  0
 29 30  1  1  0  0  0
 29 33  1  0  0  0  0
 31 32  1  6  0  0  0
 31 35  1  0  0  0  0
 33 34  1  0  0  0  0
 33 37  1  6  0  0  0
 35 36  1  6  0  0  0
 37 38  1  0  0  0  0
M  END
>  <CHROM.1>
-123.98308623,-131.74857981,176.97362966,168.23963961,174.80515523,-95.89821254
82.35725194,-100.58519900,178.47968620,-87.23971452,-61.54636376,2.85432065
35.22259445,-1.84837353,-0.36023293,-0.24679300,0.62405223

>  <Name>
1nta_lig

>  <RI>
0

>  <Rbt.Current_Directory>
/home/itssahil/PROJECTS/Mol_Feturizer/New_Systems/rnas/1nta

>  <Rbt.Executable>
rbdock ($Id: //depot/dev/client3/rdock/2013.1/src/exe/rbdock.cxx#4 $)

>  <Rbt.Library>
libRbt.so (2013.1, Build901 2013/11/27)

>  <Rbt.Parameter_File>
/export/apps/rDock/src/rDock_2013.1_src/data/scripts/dock_solv.prm

>  <Rbt.Receptor>
prm/pocket_docking_3.prm

>  <SCORE>
-31.9021

>  <SCORE.INTER>
-8.55536

>  <SCORE.INTER.CONST>
1

>  <SCORE.INTER.POLAR>
-0.906903

>  <SCORE.INTER.ROT>
11

>  <SCORE.INTER.SOLV>
21.6812

>  <SCORE.INTER.VDW>
-20.841

>  <SCORE.INTER.norm>
-0.213884

>  <SCORE.INTRA>
-23.3467

>  <SCORE.INTRA.DIHEDRAL>
-11.6014

>  <SCORE.INTRA.DIHEDRAL.0>
19.0336

>  <SCORE.INTRA.POLAR>
0

>  <SCORE.INTRA.POLAR.0>
0

>  <SCORE.INTRA.REPUL>
0.0064253

>  <SCORE.INTRA.REPUL.0>
0

>  <SCORE.INTRA.SOLV>
-2.79353

>  <SCORE.INTRA.SOLV.lig_0>
-97.5861

>  <SCORE.INTRA.VDW>
-16.1814

>  <SCORE.INTRA.VDW.0>
11.7669

>  <SCORE.INTRA.norm>
-0.583668

>  <SCORE.RESTR>
0

>  <SCORE.RESTR.CAVITY>
0

>  <SCORE.RESTR.norm>
0

>  <SCORE.SYSTEM>
0

>  <SCORE.SYSTEM.CONST>
0

>  <SCORE.SYSTEM.DIHEDRAL>
0

>  <SCORE.SYSTEM.SOLV>
0

>  <SCORE.SYSTEM.norm>
0

>  <SCORE.heavy>
40

>  <SCORE.norm>
-0.797552

>  <RMSD>
2.665

$$$$
1nta_lig
 OpenBabel11021811403D
libRbt.so/2013.1/901 2013/11/27
 40 42  0  0  0  0  0  0  0  0999 V2000
    9.7161   33.0185   -2.1852 C   0  0  0  0  0  0  0  0  0  0  0  0
   10.2522   32.2069   -3.0182 N   0  0  0  0  0  0  0  0  0  0  0  0
    0.2607   34.7364   -4.8187 C   0  0  0  0  0  0  0  0  0  0  0  0
   -0.3566   35.7555   -5.0370 O   0  0  0  0  0  0  0  0  0  0  0  0
    4.6796   36.0435    0.2021 C   0  0  0  0  0  0  0  0  0  0  0  0
    4.5170   37.2310   -0.3205 N   0  0  0  0  0  0  0  0  0  0  0  0
    0.3804   31.5486   -3.8779 C   0  0  0  0  0  0  0  0  0  0  0  0
   -3.5201   35.7862   -0.8289 C   0  0  0  0  0  0  0  0  0  0  0  0
    7.3774   33.3792   -2.1573 C   0  0  2  0  0  0  0  0  0  0  0  0
    8.5787   32.6106   -1.6424 N   0  0  0  0  0  0  0  0  0  0  0  0
    2.1670   34.0560   -2.0309 C   0  0  2  0  0  0  0  0  0  0  0  0
   -0.5252   36.4560   -1.9460 C   0  0  1  0  0  0  0  0  0  0  0  0
    0.4019   35.5139   -1.5331 O   0  0  0  0  0  0  0  0  0  0  0  0
    6.4620   33.7779   -0.9842 C   0  0  1  0  0  0  0  0  0  0  0  0
    7.1940   34.6396   -0.1659 O   0  0  0  0  0  0  0  0  0  0  0  0
    1.0533   34.9626   -2.5435 C   0  0  2  0  0  0  0  0  0  0  0  0
   -1.5006   36.9137   -0.8841 C   0  0  1  0  0  0  0  0  0  0  0  0
   -2.1512   35.7718   -0.3410 N   0  0  0  0  0  0  0  0  0  0  0  0
    5.2143   34.5402   -1.4500 C   0  0  2  0  0  0  0  0  0  0  0  0
    4.3072   34.9361   -0.3462 N   0  0  0  0  0  0  0  0  0  0  0  0
    0.3654   34.0638   -3.4761 C   0  0  1  0  0  0  0  0  0  0  0  0
   -0.9178   33.7753   -2.9174 O   0  0  0  0  0  0  0  0  0  0  0  0
   -0.8469   37.5882    0.1376 C   0  0  2  0  0  0  0  0  0  0  0  0
   -1.8242   38.2303    0.9172 O   0  0  0  0  0  0  0  0  0  0  0  0
    4.4561   33.6527   -2.4243 C   0  0  1  0  0  0  0  0  0  0  0  0
    3.3058   34.3636   -2.8544 O   0  0  0  0  0  0  0  0  0  0  0  0
    1.1244   32.8104   -3.5680 C   0  0  1  0  0  0  0  0  0  0  0  0
    1.8031   32.7259   -2.3210 O   0  0  0  0  0  0  0  0  0  0  0  0
    0.0964   38.6151   -0.4318 C   0  0  1  0  0  0  0  0  0  0  0  0
    0.9082   39.1043    0.5949 O   0  0  0  0  0  0  0  0  0  0  0  0
    5.3631   33.2844   -3.6328 C   0  0  2  0  0  0  0  0  0  0  0  0
    4.6316   32.4610   -4.5396 O   0  0  0  0  0  0  0  0  0  0  0  0
    0.9713   37.9812   -1.4589 C   0  0  1  0  0  0  0  0  0  0  0  0
    0.1495   37.4989   -2.4824 O   0  0  0  0  0  0  0  0  0  0  0  0
    6.5986   32.5125   -3.1239 C   0  0  1  0  0  0  0  0  0  0  0  0
    7.4498   32.1618   -4.2273 O   0  0  0  0  0  0  0  0  0  0  0  0
    1.9394   39.0069   -2.0809 C   0  0  0  0  0  0  0  0  0  0  0  0
    1.1893   40.0799   -2.6387 O   0  0  0  0  0  0  0  0  0  0  0  0
   10.2418   34.1594   -1.8948 N   0  0  0  0  0  0  0  0  0  0  0  0
    5.2667   35.9222    1.3277 N   0  0  0  0  0  0  0  0  0  0  0  0
  1  2  1  0  0  0  0
  1 39  1  0  0  0  0
  3  4  1  0  0  0  0
  5  6  1  0  0  0  0
  5 40  1  0  0  0  0
  9 10  1  1  0  0  0
  9 14  1  0  0  0  0
  9 35  1  0  0  0  0
 10  1  1  0  0  0  0
 11 16  1  0  0  0  0
 11 28  1  0  0  0  0
 11 26  1  6  0  0  0
 12 17  1  0  0  0  0
 12 34  1  0  0  0  0
 12 13  1  1  0  0  0
 14 15  1  1  0  0  0
 14 19  1  0  0  0  0
 16 13  1  1  0  0  0
 16 21  1  0  0  0  0
 17 18  1  1  0  0  0
 17 23  1  0  0  0  0
 18  8  1  0  0  0  0
 19 20  1  1  0  0  0
 19 25  1  0  0  0  0
 20  5  1  0  0  0  0
 21  3  1  6  0  0  0
 21 22  1  0  0  0  0
 21 27  1  0  0  0  0
 23 24  1  1  0  0  0
 23 29  1  0  0  0  0
 25 26  1  6  0  0  0
 25 31  1  0  0  0  0
 27  7  1  1  0  0  0
 27 28  1  0  0  0  0
 29 30  1  1  0  0  0
 29 33  1  0  0  0  0
 31 32  1  6  0  0  0
 31 35  1  0  0  0  0
 33 34  1  0  0  0  0
 33 37  1  6  0  0  0
 35 36  1  6  0  0  0
 37 38  1  0  0  0  0
M  END
>  <CHROM.1>
-134.76045056,-108.63574246,175.87051106,167.76189567,173.50495698,-108.03831403
84.17553285,75.49853530,-63.30023830,-92.73120875,-56.97345466,2.86329514
35.11708089,-1.93972120,-0.38374411,-0.17406642,0.64526558

>  <Name>
1nta_lig

>  <RI>
0

>  <Rbt.Current_Directory>
/home/itssahil/PROJECTS/Mol_Feturizer/New_Systems/rnas/1nta

>  <Rbt.Executable>
rbdock ($Id: //depot/dev/client3/rdock/2013.1/src/exe/rbdock.cxx#4 $)

>  <Rbt.Library>
libRbt.so (2013.1, Build901 2013/11/27)

>  <Rbt.Parameter_File>
/export/apps/rDock/src/rDock_2013.1_src/data/scripts/dock_solv.prm

>  <Rbt.Receptor>
prm/pocket_docking_4.prm

>  <SCORE>
-34.1109

>  <SCORE.INTER>
-10.5851

>  <SCORE.INTER.CONST>
1

>  <SCORE.INTER.POLAR>
-1.82527

>  <SCORE.INTER.ROT>
11

>  <SCORE.INTER.SOLV>
23.1811

>  <SCORE.INTER.VDW>
-19.6329

>  <SCORE.INTER.norm>
-0.264627

>  <SCORE.INTRA>
-23.5258

>  <SCORE.INTRA.DIHEDRAL>
-9.90694

>  <SCORE.INTRA.DIHEDRAL.0>
19.0336

>  <SCORE.INTRA.POLAR>
0

>  <SCORE.INTRA.POLAR.0>
0

>  <SCORE.INTRA.REPUL>
0

>  <SCORE.INTRA.REPUL.0>
0

>  <SCORE.INTRA.SOLV>
-2.53227

>  <SCORE.INTRA.SOLV.lig_0>
-97.5861

>  <SCORE.INTRA.VDW>
-17.3062

>  <SCORE.INTRA.VDW.0>
11.7669

>  <SCORE.INTRA.norm>
-0.588145

>  <SCORE.RESTR>
0

>  <SCORE.RESTR.CAVITY>
0

>  <SCORE.RESTR.norm>
0

>  <SCORE.SYSTEM>
0

>  <SCORE.SYSTEM.CONST>
0

>  <SCORE.SYSTEM.DIHEDRAL>
0

>  <SCORE.SYSTEM.SOLV>
0

>  <SCORE.SYSTEM.norm>
0

>  <SCORE.heavy>
40

>  <SCORE.norm>
-0.852773

>  <RMSD>
2.693

$$$$
1nta_lig
 OpenBabel11021811403D
libRbt.so/2013.1/901 2013/11/27
 40 42  0  0  0  0  0  0  0  0999 V2000
    9.6398   33.0524   -2.1541 C   0  0  0  0  0  0  0  0  0  0  0  0
   10.0838   34.1972   -1.7902 N   0  0  0  0  0  0  0  0  0  0  0  0
   -0.0652   34.5905   -4.1393 C   0  0  0  0  0  0  0  0  0  0  0  0
    0.7746   34.6980   -5.0056 O   0  0  0  0  0  0  0  0  0  0  0  0
    4.7113   36.0869    0.4555 C   0  0  0  0  0  0  0  0  0  0  0  0
    4.7142   37.2588   -0.1244 N   0  0  0  0  0  0  0  0  0  0  0  0
    0.1029   31.6494   -2.5956 C   0  0  0  0  0  0  0  0  0  0  0  0
   -3.1935   36.4517    0.0030 C   0  0  0  0  0  0  0  0  0  0  0  0
    7.3082   33.4368   -2.0258 C   0  0  2  0  0  0  0  0  0  0  0  0
    8.5232   32.6582   -1.5603 N   0  0  0  0  0  0  0  0  0  0  0  0
    2.2030   34.3695   -1.5557 C   0  0  2  0  0  0  0  0  0  0  0  0
   -0.4122   36.8566   -1.5889 C   0  0  1  0  0  0  0  0  0  0  0  0
    0.5674   35.9921   -1.1301 O   0  0  0  0  0  0  0  0  0  0  0  0
    6.4363   33.8285   -0.8177 C   0  0  1  0  0  0  0  0  0  0  0  0
    7.2005   34.6793   -0.0177 O   0  0  0  0  0  0  0  0  0  0  0  0
    1.0518   35.2172   -2.0862 C   0  0  2  0  0  0  0  0  0  0  0  0
   -1.2221   37.5470   -0.5136 C   0  0  1  0  0  0  0  0  0  0  0  0
   -1.7836   36.5573    0.3393 N   0  0  0  0  0  0  0  0  0  0  0  0
    5.1767   34.6005   -1.2326 C   0  0  2  0  0  0  0  0  0  0  0  0
    4.3106   34.9900   -0.0940 N   0  0  0  0  0  0  0  0  0  0  0  0
    0.2132   34.1914   -2.7149 C   0  0  1  0  0  0  0  0  0  0  0  0
   -0.9837   34.0900   -1.9408 O   0  0  0  0  0  0  0  0  0  0  0  0
   -0.4269   38.3958    0.2436 C   0  0  2  0  0  0  0  0  0  0  0  0
   -1.2805   39.2095    1.0081 O   0  0  0  0  0  0  0  0  0  0  0  0
    4.3808   33.7253   -2.1878 C   0  0  1  0  0  0  0  0  0  0  0  0
    3.2194   34.4452   -2.5708 O   0  0  0  0  0  0  0  0  0  0  0  0
    0.9173   32.9046   -2.6521 C   0  0  1  0  0  0  0  0  0  0  0  0
    1.7657   33.0305   -1.5175 O   0  0  0  0  0  0  0  0  0  0  0  0
    0.4204   39.2594   -0.6534 C   0  0  1  0  0  0  0  0  0  0  0  0
    1.3732   39.9233    0.1236 O   0  0  0  0  0  0  0  0  0  0  0  0
    5.2432   33.3644   -3.4306 C   0  0  2  0  0  0  0  0  0  0  0  0
    4.4767   32.5527   -4.3188 O   0  0  0  0  0  0  0  0  0  0  0  0
    1.1364   38.4064   -1.6445 C   0  0  1  0  0  0  0  0  0  0  0  0
    0.1743   37.7501   -2.4185 O   0  0  0  0  0  0  0  0  0  0  0  0
    6.4922   32.5825   -2.9724 C   0  0  1  0  0  0  0  0  0  0  0  0
    7.3026   32.2385   -4.1080 O   0  0  0  0  0  0  0  0  0  0  0  0
    2.0006   39.2575   -2.5959 C   0  0  0  0  0  0  0  0  0  0  0  0
    3.0970   39.8024   -1.8705 O   0  0  0  0  0  0  0  0  0  0  0  0
   10.2388   32.3263   -3.0351 N   0  0  0  0  0  0  0  0  0  0  0  0
    5.1507   35.9690    1.6469 N   0  0  0  0  0  0  0  0  0  0  0  0
  1  2  1  0  0  0  0
  1 39  1  0  0  0  0
  3  4  1  0  0  0  0
  5  6  1  0  0  0  0
  5 40  1  0  0  0  0
  9 10  1  1  0  0  0
  9 14  1  0  0  0  0
  9 35  1  0  0  0  0
 10  1  1  0  0  0  0
 11 16  1  0  0  0  0
 11 28  1  0  0  0  0
 11 26  1  6  0  0  0
 12 17  1  0  0  0  0
 12 34  1  0  0  0  0
 12 13  1  1  0  0  0
 14 15  1  1  0  0  0
 14 19  1  0  0  0  0
 16 13  1  1  0  0  0
 16 21  1  0  0  0  0
 17 18  1  1  0  0  0
 17 23  1  0  0  0  0
 18  8  1  0  0  0  0
 19 20  1  1  0  0  0
 19 25  1  0  0  0  0
 20  5  1  0  0  0  0
 21  3  1  6  0  0  0
 21 22  1  0  0  0  0
 21 27  1  0  0  0  0
 23 24  1  6  0  0  0
 23 29  1  0  0  0  0
 25 26  1  6  0  0  0
 25 31  1  0  0  0  0
 27  7  1  1  0  0  0
 27 28  1  0  0  0  0
 29 30  1  1  0  0  0
 29 33  1  0  0  0  0
 31 32  1  6  0  0  0
 31 35  1  0  0  0  0
 33 34  1  0  0  0  0
 33 37  1  6  0  0  0
 35 36  1  6  0  0  0
 37 38  1  0  0  0  0
M  END
>  <CHROM.1>
-135.73852112,71.81465768,178.22616309,166.90954728,175.30074868,-104.54646502
83.83020491,65.31052108,64.12455349,-80.03681212,69.53968049,2.98087653,35.32189254
-1.64311324,-0.46860158,-0.11574794,0.52419215

>  <Name>
1nta_lig

>  <RI>
0

>  <Rbt.Current_Directory>
/home/itssahil/PROJECTS/Mol_Feturizer/New_Systems/rnas/1nta

>  <Rbt.Executable>
rbdock ($Id: //depot/dev/client3/rdock/2013.1/src/exe/rbdock.cxx#4 $)

>  <Rbt.Library>
libRbt.so (2013.1, Build901 2013/11/27)

>  <Rbt.Parameter_File>
/export/apps/rDock/src/rDock_2013.1_src/data/scripts/dock_solv.prm

>  <Rbt.Receptor>
prm/pocket_docking_3.prm

>  <SCORE>
-31.8795

>  <SCORE.INTER>
-8.94967

>  <SCORE.INTER.CONST>
1

>  <SCORE.INTER.POLAR>
-1.62656

>  <SCORE.INTER.ROT>
11

>  <SCORE.INTER.SOLV>
23.6876

>  <SCORE.INTER.VDW>
-19.3738

>  <SCORE.INTER.norm>
-0.223742

>  <SCORE.INTRA>
-22.9299

>  <SCORE.INTRA.DIHEDRAL>
-11.709

>  <SCORE.INTRA.DIHEDRAL.0>
19.0336

>  <SCORE.INTRA.POLAR>
0

>  <SCORE.INTRA.POLAR.0>
0

>  <SCORE.INTRA.REPUL>
0.00774821

>  <SCORE.INTRA.REPUL.0>
0

>  <SCORE.INTRA.SOLV>
-2.46322

>  <SCORE.INTRA.SOLV.lig_0>
-97.5861

>  <SCORE.INTRA.VDW>
-15.8825

>  <SCORE.INTRA.VDW.0>
11.7669

>  <SCORE.INTRA.norm>
-0.573247

>  <SCORE.RESTR>
0

>  <SCORE.RESTR.CAVITY>
0

>  <SCORE.RESTR.norm>
0

>  <SCORE.SYSTEM>
0

>  <SCORE.SYSTEM.CONST>
0

>  <SCORE.SYSTEM.DIHEDRAL>
0

>  <SCORE.SYSTEM.SOLV>
0

>  <SCORE.SYSTEM.norm>
0

>  <SCORE.heavy>
40

>  <SCORE.norm>
-0.796989

>  <RMSD>
2.695

$$$$
1nta_lig
 OpenBabel11021811403D
libRbt.so/2013.1/901 2013/11/27
 40 42  0  0  0  0  0  0  0  0999 V2000
    8.0740   34.8036    0.3403 C   0  0  0  0  0  0  0  0  0  0  0  0
    8.3239   36.0420    0.5504 N   0  0  0  0  0  0  0  0  0  0  0  0
   -0.5639   34.6785   -3.9203 C   0  0  0  0  0  0  0  0  0  0  0  0
    0.2409   35.1679   -4.6819 O   0  0  0  0  0  0  0  0  0  0  0  0
    5.4884   32.8366   -3.3508 C   0  0  0  0  0  0  0  0  0  0  0  0
    6.2268   33.9134   -3.4221 N   0  0  0  0  0  0  0  0  0  0  0  0
    0.2090   31.5685   -3.0305 C   0  0  0  0  0  0  0  0  0  0  0  0
    1.6335   38.7029   -2.3485 C   0  0  0  0  0  0  0  0  0  0  0  0
    5.7873   34.2389    0.5689 C   0  0  2  0  0  0  0  0  0  0  0  0
    7.1856   34.2545    1.1550 N   0  0  0  0  0  0  0  0  0  0  0  0
    1.6702   34.3646   -1.3167 C   0  0  2  0  0  0  0  0  0  0  0  0
    0.3296   36.5790   -0.0617 C   0  0  1  0  0  0  0  0  0  0  0  0
   -0.2779   35.4828   -0.6506 O   0  0  0  0  0  0  0  0  0  0  0  0
    5.7861   33.4895   -0.7770 C   0  0  1  0  0  0  0  0  0  0  0  0
    6.1462   32.1674   -0.5118 O   0  0  0  0  0  0  0  0  0  0  0  0
    0.3710   35.0536   -1.7201 C   0  0  2  0  0  0  0  0  0  0  0  0
    0.1335   37.8938   -0.7839 C   0  0  1  0  0  0  0  0  0  0  0  0
    0.5650   37.7423   -2.1304 N   0  0  0  0  0  0  0  0  0  0  0  0
    4.3973   33.4626   -1.4291 C   0  0  2  0  0  0  0  0  0  0  0  0
    4.3600   32.7525   -2.7301 N   0  0  0  0  0  0  0  0  0  0  0  0
   -0.2229   34.0416   -2.5998 C   0  0  1  0  0  0  0  0  0  0  0  0
   -1.3794   33.5289   -1.9351 O   0  0  0  0  0  0  0  0  0  0  0  0
   -1.2016   38.2728   -0.7785 C   0  0  2  0  0  0  0  0  0  0  0  0
   -1.2649   39.6145   -1.1918 O   0  0  0  0  0  0  0  0  0  0  0  0
    3.9443   34.8997   -1.6325 C   0  0  1  0  0  0  0  0  0  0  0  0
    2.6586   34.8689   -2.2323 O   0  0  0  0  0  0  0  0  0  0  0  0
    0.7382   32.9451   -2.7718 C   0  0  1  0  0  0  0  0  0  0  0  0
    1.5275   32.9896   -1.5894 O   0  0  0  0  0  0  0  0  0  0  0  0
   -1.7768   38.1462    0.6078 C   0  0  1  0  0  0  0  0  0  0  0  0
   -3.1641   38.2988    0.5392 O   0  0  0  0  0  0  0  0  0  0  0  0
    3.9013   35.6473   -0.2694 C   0  0  2  0  0  0  0  0  0  0  0  0
    3.4646   36.9891   -0.4793 O   0  0  0  0  0  0  0  0  0  0  0  0
   -1.4813   36.7910    1.1542 C   0  0  1  0  0  0  0  0  0  0  0  0
   -0.0917   36.6505    1.2220 O   0  0  0  0  0  0  0  0  0  0  0  0
    5.3157   35.6603    0.3475 C   0  0  1  0  0  0  0  0  0  0  0  0
    5.2971   36.3484    1.6088 O   0  0  0  0  0  0  0  0  0  0  0  0
   -2.0378   36.6291    2.5827 C   0  0  0  0  0  0  0  0  0  0  0  0
   -1.5750   35.3990    3.1285 O   0  0  0  0  0  0  0  0  0  0  0  0
    8.6498   34.1311   -0.5970 N   0  0  0  0  0  0  0  0  0  0  0  0
    5.8626   31.7719   -3.9448 N   0  0  0  0  0  0  0  0  0  0  0  0
  1  2  1  0  0  0  0
  1 39  1  0  0  0  0
  3  4  1  0  0  0  0
  5  6  1  0  0  0  0
  5 40  1  0  0  0  0
  9 10  1  6  0  0  0
  9 14  1  0  0  0  0
  9 35  1  0  0  0  0
 10  1  1  0  0  0  0
 11 16  1  0  0  0  0
 11 28  1  0  0  0  0
 11 26  1  6  0  0  0
 12 17  1  0  0  0  0
 12 34  1  0  0  0  0
 12 13  1  6  0  0  0
 14 15  1  1  0  0  0
 14 19  1  0  0  0  0
 16 13  1  1  0  0  0
 16 21  1  0  0  0  0
 17 18  1  6  0  0  0
 17 23  1  0  0  0  0
 18  8  1  0  0  0  0
 19 20  1  6  0  0  0
 19 25  1  0  0  0  0
 20  5  1  0  0  0  0
 21  3  1  6  0  0  0
 21 22  1  0  0  0  0
 21 27  1  0  0  0  0
 23 24  1  1  0  0  0
 23 29  1  0  0  0  0
 25 26  1  1  0  0  0
 25 31  1  0  0  0  0
 27  7  1  1  0  0  0
 27 28  1  0  0  0  0
 29 30  1  6  0  0  0
 29 33  1  0  0  0  0
 31 32  1  6  0  0  0
 31 35  1  0  0  0  0
 33 34  1  0  0  0  0
 33 37  1  1  0  0  0
 35 36  1  1  0  0  0
 37 38  1  0  0  0  0
M  END
>  <CHROM.1>
57.36570215,96.02409422,150.05448487,75.74010621,72.22221415,-120.27816714
-29.89872877,-41.25785936,62.57445092,68.71956381,-172.02226962,2.27015294
35.23866003,-0.96670010,-0.31828039,-0.22063051,0.82500338

>  <Name>
1nta_lig

>  <RI>
0

>  <Rbt.Current_Directory>
/home/itssahil/PROJECTS/Mol_Feturizer/New_Systems/rnas/1nta

>  <Rbt.Executable>
rbdock ($Id: //depot/dev/client3/rdock/2013.1/src/exe/rbdock.cxx#4 $)

>  <Rbt.Library>
libRbt.so (2013.1, Build901 2013/11/27)

>  <Rbt.Parameter_File>
/export/apps/rDock/src/rDock_2013.1_src/data/scripts/dock_solv.prm

>  <Rbt.Receptor>
prm/pocket_docking_2.prm

>  <SCORE>
-16.4295

>  <SCORE.INTER>
-2.87619

>  <SCORE.INTER.CONST>
1

>  <SCORE.INTER.POLAR>
-2.15939

>  <SCORE.INTER.ROT>
11

>  <SCORE.INTER.SOLV>
30.5537

>  <SCORE.INTER.VDW>
-15.8374

>  <SCORE.INTER.norm>
-0.0719048

>  <SCORE.INTRA>
-14.4961

>  <SCORE.INTRA.DIHEDRAL>
-9.80626

>  <SCORE.INTRA.DIHEDRAL.0>
19.0336

>  <SCORE.INTRA.POLAR>
0

>  <SCORE.INTRA.POLAR.0>
0

>  <SCORE.INTRA.REPUL>
0

>  <SCORE.INTRA.REPUL.0>
0

>  <SCORE.INTRA.SOLV>
2.55973

>  <SCORE.INTRA.SOLV.lig_0>
-97.5861

>  <SCORE.INTRA.VDW>
-10.8728

>  <SCORE.INTRA.VDW.0>
11.7669

>  <SCORE.INTRA.norm>
-0.362402

>  <SCORE.RESTR>
0.942748

>  <SCORE.RESTR.CAVITY>
0.942748

>  <SCORE.RESTR.norm>
0.0235687

>  <SCORE.SYSTEM>
0

>  <SCORE.SYSTEM.CONST>
0

>  <SCORE.SYSTEM.DIHEDRAL>
0

>  <SCORE.SYSTEM.SOLV>
0

>  <SCORE.SYSTEM.norm>
0

>  <SCORE.heavy>
40

>  <SCORE.norm>
-0.410738

>  <RMSD>
2.771

$$$$
1nta_lig
 OpenBabel11021811403D
libRbt.so/2013.1/901 2013/11/27
 40 42  0  0  0  0  0  0  0  0999 V2000
    9.5985   32.4365   -2.2714 C   0  0  0  0  0  0  0  0  0  0  0  0
    9.8639   31.8337   -3.3697 N   0  0  0  0  0  0  0  0  0  0  0  0
    0.2670   34.5852   -4.7614 C   0  0  0  0  0  0  0  0  0  0  0  0
   -0.2350   35.6415   -5.0767 O   0  0  0  0  0  0  0  0  0  0  0  0
    4.7535   35.8552    0.2324 C   0  0  0  0  0  0  0  0  0  0  0  0
    4.4519   37.0325   -0.2500 N   0  0  0  0  0  0  0  0  0  0  0  0
    0.3452   31.5280   -3.4541 C   0  0  0  0  0  0  0  0  0  0  0  0
   -3.3924   35.9145   -0.7549 C   0  0  0  0  0  0  0  0  0  0  0  0
    7.3069   33.0205   -2.1817 C   0  0  2  0  0  0  0  0  0  0  0  0
    8.4375   32.1244   -1.7152 N   0  0  0  0  0  0  0  0  0  0  0  0
    2.2042   34.1998   -1.9387 C   0  0  2  0  0  0  0  0  0  0  0  0
   -0.5211   36.5634   -2.0934 C   0  0  1  0  0  0  0  0  0  0  0  0
    0.4729   35.7398   -1.5921 O   0  0  0  0  0  0  0  0  0  0  0  0
    6.4274   33.4291   -0.9848 C   0  0  1  0  0  0  0  0  0  0  0  0
    7.2293   34.1776   -0.1219 O   0  0  0  0  0  0  0  0  0  0  0  0
    1.0987   35.0614   -2.5394 C   0  0  2  0  0  0  0  0  0  0  0  0
   -1.4594   37.1484   -1.0609 C   0  0  1  0  0  0  0  0  0  0  0  0
   -2.0218   36.0850   -0.3026 N   0  0  0  0  0  0  0  0  0  0  0  0
    5.2501   34.3202   -1.4025 C   0  0  2  0  0  0  0  0  0  0  0  0
    4.3787   34.7291   -0.2749 N   0  0  0  0  0  0  0  0  0  0  0  0
    0.3807   34.0728   -3.3506 C   0  0  1  0  0  0  0  0  0  0  0  0
   -0.8986   33.8766   -2.7447 O   0  0  0  0  0  0  0  0  0  0  0  0
   -0.7861   38.0066   -0.2029 C   0  0  2  0  0  0  0  0  0  0  0  0
   -1.7507   38.7272    0.5219 O   0  0  0  0  0  0  0  0  0  0  0  0
    4.4201   33.5570   -2.4225 C   0  0  1  0  0  0  0  0  0  0  0  0
    3.3352   34.3867   -2.8078 O   0  0  0  0  0  0  0  0  0  0  0  0
    1.1161   32.8029   -3.3047 C   0  0  1  0  0  0  0  0  0  0  0  0
    1.8125   32.8521   -2.0656 O   0  0  0  0  0  0  0  0  0  0  0  0
    0.0726   38.9642   -0.9866 C   0  0  1  0  0  0  0  0  0  0  0  0
    0.9132   39.6470   -0.1037 O   0  0  0  0  0  0  0  0  0  0  0  0
    5.2938   33.1814   -3.6530 C   0  0  2  0  0  0  0  0  0  0  0  0
    4.4958   32.4760   -4.6022 O   0  0  0  0  0  0  0  0  0  0  0  0
    0.9214   38.2071   -1.9503 C   0  0  1  0  0  0  0  0  0  0  0  0
    0.0707   37.5312   -2.8307 O   0  0  0  0  0  0  0  0  0  0  0  0
    6.4582   32.2794   -3.1929 C   0  0  1  0  0  0  0  0  0  0  0  0
    7.2777   31.9202   -4.3172 O   0  0  0  0  0  0  0  0  0  0  0  0
    1.8020   39.1559   -2.7872 C   0  0  0  0  0  0  0  0  0  0  0  0
    0.9665   40.0323   -3.5347 O   0  0  0  0  0  0  0  0  0  0  0  0
   10.4020   33.2942   -1.7413 N   0  0  0  0  0  0  0  0  0  0  0  0
    5.4913   35.7657    1.2688 N   0  0  0  0  0  0  0  0  0  0  0  0
  1  2  1  0  0  0  0
  1 39  1  0  0  0  0
  3  4  1  0  0  0  0
  5  6  1  0  0  0  0
  5 40  1  0  0  0  0
  9 10  1  1  0  0  0
  9 14  1  0  0  0  0
  9 35  1  0  0  0  0
 10  1  1  0  0  0  0
 11 16  1  0  0  0  0
 11 28  1  0  0  0  0
 11 26  1  6  0  0  0
 12 17  1  0  0  0  0
 12 34  1  0  0  0  0
 12 13  1  1  0  0  0
 14 15  1  1  0  0  0
 14 19  1  0  0  0  0
 16 13  1  1  0  0  0
 16 21  1  0  0  0  0
 17 18  1  1  0  0  0
 17 23  1  0  0  0  0
 18  8  1  0  0  0  0
 19 20  1  1  0  0  0
 19 25  1  0  0  0  0
 20  5  1  0  0  0  0
 21  3  1  6  0  0  0
 21 22  1  0  0  0  0
 21 27  1  0  0  0  0
 23 24  1  6  0  0  0
 23 29  1  0  0  0  0
 25 26  1  6  0  0  0
 25 31  1  0  0  0  0
 27  7  1  1  0  0  0
 27 28  1  0  0  0  0
 29 30  1  1  0  0  0
 29 33  1  0  0  0  0
 31 32  1  6  0  0  0
 31 35  1  0  0  0  0
 33 34  1  0  0  0  0
 33 37  1  6  0  0  0
 35 36  1  6  0  0  0
 37 38  1  0  0  0  0
M  END
>  <CHROM.1>
-136.80549984,-90.20703225,-175.60019304,167.98596352,178.54439685,-104.90252901
91.87486074,81.82709680,-56.55328556,-88.62412929,-60.95841867,2.84992773
35.07828073,-2.03559736,-0.44158793,-0.21809742,0.58365263

>  <Name>
1nta_lig

>  <RI>
0

>  <Rbt.Current_Directory>
/home/itssahil/PROJECTS/Mol_Feturizer/New_Systems/rnas/1nta

>  <Rbt.Executable>
rbdock ($Id: //depot/dev/client3/rdock/2013.1/src/exe/rbdock.cxx#4 $)

>  <Rbt.Library>
libRbt.so (2013.1, Build901 2013/11/27)

>  <Rbt.Parameter_File>
/export/apps/rDock/src/rDock_2013.1_src/data/scripts/dock_solv.prm

>  <Rbt.Receptor>
prm/pocket_docking_3.prm

>  <SCORE>
-31.8722

>  <SCORE.INTER>
-8.49512

>  <SCORE.INTER.CONST>
1

>  <SCORE.INTER.POLAR>
-1.2572

>  <SCORE.INTER.ROT>
11

>  <SCORE.INTER.SOLV>
21.7363

>  <SCORE.INTER.VDW>
-19.6515

>  <SCORE.INTER.norm>
-0.212378

>  <SCORE.INTRA>
-23.3771

>  <SCORE.INTRA.DIHEDRAL>
-10.6981

>  <SCORE.INTRA.DIHEDRAL.0>
19.0336

>  <SCORE.INTRA.POLAR>
0

>  <SCORE.INTRA.POLAR.0>
0

>  <SCORE.INTRA.REPUL>
2.2645e-05

>  <SCORE.INTRA.REPUL.0>
0

>  <SCORE.INTRA.SOLV>
-2.91552

>  <SCORE.INTRA.SOLV.lig_0>
-97.5861

>  <SCORE.INTRA.VDW>
-16.5704

>  <SCORE.INTRA.VDW.0>
11.7669

>  <SCORE.INTRA.norm>
-0.584426

>  <SCORE.RESTR>
0

>  <SCORE.RESTR.CAVITY>
0

>  <SCORE.RESTR.norm>
0

>  <SCORE.SYSTEM>
0

>  <SCORE.SYSTEM.CONST>
0

>  <SCORE.SYSTEM.DIHEDRAL>
0

>  <SCORE.SYSTEM.SOLV>
0

>  <SCORE.SYSTEM.norm>
0

>  <SCORE.heavy>
40

>  <SCORE.norm>
-0.796804

>  <RMSD>
2.797

$$$$
1nta_lig
 OpenBabel11021811403D
libRbt.so/2013.1/901 2013/11/27
 40 42  0  0  0  0  0  0  0  0999 V2000
    9.5783   33.0890   -2.1011 C   0  0  0  0  0  0  0  0  0  0  0  0
   10.0628   34.1930   -1.6691 N   0  0  0  0  0  0  0  0  0  0  0  0
    0.1933   34.4365   -5.1148 C   0  0  0  0  0  0  0  0  0  0  0  0
   -0.3151   35.4875   -5.4378 O   0  0  0  0  0  0  0  0  0  0  0  0
    4.3771   36.0498    0.0970 C   0  0  0  0  0  0  0  0  0  0  0  0
    4.0588   37.2482   -0.3180 N   0  0  0  0  0  0  0  0  0  0  0  0
    0.3679   31.3768   -3.8228 C   0  0  0  0  0  0  0  0  0  0  0  0
   -3.5179   35.5999   -1.5748 C   0  0  0  0  0  0  0  0  0  0  0  0
    7.2420   33.4643   -2.1351 C   0  0  2  0  0  0  0  0  0  0  0  0
    8.4288   32.7185   -1.5570 N   0  0  0  0  0  0  0  0  0  0  0  0
    2.0438   34.1214   -2.2261 C   0  0  2  0  0  0  0  0  0  0  0  0
   -0.7039   36.4460   -2.4699 C   0  0  1  0  0  0  0  0  0  0  0  0
    0.2309   35.5763   -1.9338 O   0  0  0  0  0  0  0  0  0  0  0  0
    6.2553   33.8392   -1.0131 C   0  0  1  0  0  0  0  0  0  0  0  0
    6.9230   34.7125   -0.1531 O   0  0  0  0  0  0  0  0  0  0  0  0
    0.9214   34.9348   -2.8615 C   0  0  2  0  0  0  0  0  0  0  0  0
   -1.6948   37.0213   -1.4821 C   0  0  1  0  0  0  0  0  0  0  0  0
   -2.3363   35.9487   -0.8038 N   0  0  0  0  0  0  0  0  0  0  0  0
    5.0196   34.5776   -1.5447 C   0  0  2  0  0  0  0  0  0  0  0  0
    4.0450   34.9501   -0.4913 N   0  0  0  0  0  0  0  0  0  0  0  0
    0.2802   33.9197   -3.7037 C   0  0  1  0  0  0  0  0  0  0  0  0
   -1.0094   33.6595   -3.1457 O   0  0  0  0  0  0  0  0  0  0  0  0
   -1.0591   37.8284   -0.5490 C   0  0  2  0  0  0  0  0  0  0  0  0
   -2.0515   38.5508    0.1354 O   0  0  0  0  0  0  0  0  0  0  0  0
    4.3348   33.6785   -2.5618 C   0  0  1  0  0  0  0  0  0  0  0  0
    3.1953   34.3673   -3.0526 O   0  0  0  0  0  0  0  0  0  0  0  0
    1.0722   32.6852   -3.6384 C   0  0  1  0  0  0  0  0  0  0  0  0
    1.7207   32.7579   -2.3746 O   0  0  0  0  0  0  0  0  0  0  0  0
   -0.1232   38.7876   -1.2365 C   0  0  1  0  0  0  0  0  0  0  0  0
    0.6729   39.4136   -0.2739 O   0  0  0  0  0  0  0  0  0  0  0  0
    5.3144   33.3339   -3.7196 C   0  0  2  0  0  0  0  0  0  0  0  0
    4.6512   32.4993   -4.6677 O   0  0  0  0  0  0  0  0  0  0  0  0
    0.7691   38.0405   -2.1683 C   0  0  1  0  0  0  0  0  0  0  0  0
   -0.0370   37.4216   -3.1288 O   0  0  0  0  0  0  0  0  0  0  0  0
    6.5358   32.5856   -3.1456 C   0  0  1  0  0  0  0  0  0  0  0  0
    7.4536   32.2570   -4.2014 O   0  0  0  0  0  0  0  0  0  0  0  0
    1.7303   38.9921   -2.9076 C   0  0  0  0  0  0  0  0  0  0  0  0
    0.9727   39.9827   -3.5932 O   0  0  0  0  0  0  0  0  0  0  0  0
   10.1686   32.3798   -3.0016 N   0  0  0  0  0  0  0  0  0  0  0  0
    5.0885   35.9114    1.1464 N   0  0  0  0  0  0  0  0  0  0  0  0
  1  2  1  0  0  0  0
  1 39  1  0  0  0  0
  3  4  1  0  0  0  0
  5  6  1  0  0  0  0
  5 40  1  0  0  0  0
  9 10  1  1  0  0  0
  9 14  1  0  0  0  0
  9 35  1  0  0  0  0
 10  1  1  0  0  0  0
 11 16  1  0  0  0  0
 11 28  1  0  0  0  0
 11 26  1  6  0  0  0
 12 17  1  0  0  0  0
 12 34  1  0  0  0  0
 12 13  1  1  0  0  0
 14 15  1  1  0  0  0
 14 19  1  0  0  0  0
 16 13  1  1  0  0  0
 16 21  1  0  0  0  0
 17 18  1  1  0  0  0
 17 23  1  0  0  0  0
 18  8  1  0  0  0  0
 19 20  1  1  0  0  0
 19 25  1  0  0  0  0
 20  5  1  0  0  0  0
 21  3  1  6  0  0  0
 21 22  1  0  0  0  0
 21 27  1  0  0  0  0
 23 24  1  6  0  0  0
 23 29  1  0  0  0  0
 25 26  1  6  0  0  0
 25 31  1  0  0  0  0
 27  7  1  1  0  0  0
 27 28  1  0  0  0  0
 29 30  1  1  0  0  0
 29 33  1  0  0  0  0
 31 32  1  6  0  0  0
 31 35  1  0  0  0  0
 33 34  1  0  0  0  0
 33 37  1  6  0  0  0
 35 36  1  6  0  0  0
 37 38  1  0  0  0  0
M  END
>  <CHROM.1>
-139.05402086,78.56439065,179.17969225,169.33703246,173.19947281,-90.03138439
82.96111371,86.47647484,-54.49664091,-87.85455822,-56.47130080,2.71674428
35.14038467,-2.22981461,-0.35104981,-0.20978140,0.58203646

>  <Name>
1nta_lig

>  <RI>
0

>  <Rbt.Current_Directory>
/home/itssahil/PROJECTS/Mol_Feturizer/New_Systems/rnas/1nta

>  <Rbt.Executable>
rbdock ($Id: //depot/dev/client3/rdock/2013.1/src/exe/rbdock.cxx#4 $)

>  <Rbt.Library>
libRbt.so (2013.1, Build901 2013/11/27)

>  <Rbt.Parameter_File>
/export/apps/rDock/src/rDock_2013.1_src/data/scripts/dock_solv.prm

>  <Rbt.Receptor>
prm/pocket_docking_3.prm

>  <SCORE>
-34.0022

>  <SCORE.INTER>
-11.1403

>  <SCORE.INTER.CONST>
1

>  <SCORE.INTER.POLAR>
-1.82624

>  <SCORE.INTER.ROT>
11

>  <SCORE.INTER.SOLV>
22.3267

>  <SCORE.INTER.VDW>
-19.715

>  <SCORE.INTER.norm>
-0.278509

>  <SCORE.INTRA>
-22.8628

>  <SCORE.INTRA.DIHEDRAL>
-11.4378

>  <SCORE.INTRA.DIHEDRAL.0>
19.0336

>  <SCORE.INTRA.POLAR>
0

>  <SCORE.INTRA.POLAR.0>
0

>  <SCORE.INTRA.REPUL>
0.00268155

>  <SCORE.INTRA.REPUL.0>
0

>  <SCORE.INTRA.SOLV>
-2.2637

>  <SCORE.INTRA.SOLV.lig_0>
-97.5861

>  <SCORE.INTRA.VDW>
-16.0255

>  <SCORE.INTRA.VDW.0>
11.7669

>  <SCORE.INTRA.norm>
-0.571571

>  <SCORE.RESTR>
0.00102615

>  <SCORE.RESTR.CAVITY>
0.00102615

>  <SCORE.RESTR.norm>
2.56538e-05

>  <SCORE.SYSTEM>
0

>  <SCORE.SYSTEM.CONST>
0

>  <SCORE.SYSTEM.DIHEDRAL>
0

>  <SCORE.SYSTEM.SOLV>
0

>  <SCORE.SYSTEM.norm>
0

>  <SCORE.heavy>
40

>  <SCORE.norm>
-0.850054

>  <RMSD>
2.799

$$$$
1nta_lig
 OpenBabel11021811403D
libRbt.so/2013.1/901 2013/11/27
 40 42  0  0  0  0  0  0  0  0999 V2000
    9.5132   33.2475   -1.4731 C   0  0  0  0  0  0  0  0  0  0  0  0
   10.3090   32.5290   -2.1736 N   0  0  0  0  0  0  0  0  0  0  0  0
    0.2059   34.4379   -4.9833 C   0  0  0  0  0  0  0  0  0  0  0  0
   -0.3315   33.7938   -5.8571 O   0  0  0  0  0  0  0  0  0  0  0  0
    4.2702   36.1700    0.2299 C   0  0  0  0  0  0  0  0  0  0  0  0
    4.0548   37.3428   -0.3066 N   0  0  0  0  0  0  0  0  0  0  0  0
    0.2845   31.4917   -3.4421 C   0  0  0  0  0  0  0  0  0  0  0  0
   -3.5525   35.4812   -1.5080 C   0  0  0  0  0  0  0  0  0  0  0  0
    7.1851   33.4697   -1.8352 C   0  0  2  0  0  0  0  0  0  0  0  0
    8.3345   32.7031   -1.2105 N   0  0  0  0  0  0  0  0  0  0  0  0
    2.0311   34.3098   -2.0642 C   0  0  2  0  0  0  0  0  0  0  0  0
   -0.7706   36.5455   -2.4996 C   0  0  1  0  0  0  0  0  0  0  0  0
    0.2597   35.8351   -1.9068 O   0  0  0  0  0  0  0  0  0  0  0  0
    6.1690   33.8760   -0.7510 C   0  0  1  0  0  0  0  0  0  0  0  0
    6.8261   34.7418    0.1246 O   0  0  0  0  0  0  0  0  0  0  0  0
    0.9362   35.0997   -2.7732 C   0  0  2  0  0  0  0  0  0  0  0  0
   -1.8437   37.0402   -1.5548 C   0  0  1  0  0  0  0  0  0  0  0  0
   -2.3523   35.9318   -0.8234 N   0  0  0  0  0  0  0  0  0  0  0  0
    4.9691   34.6368   -1.3309 C   0  0  2  0  0  0  0  0  0  0  0  0
    3.9675   35.0398   -0.3149 N   0  0  0  0  0  0  0  0  0  0  0  0
    0.2701   34.0372   -3.5338 C   0  0  1  0  0  0  0  0  0  0  0  0
   -1.0294   33.8610   -2.9661 O   0  0  0  0  0  0  0  0  0  0  0  0
   -1.3330   37.9727   -0.6627 C   0  0  2  0  0  0  0  0  0  0  0  0
   -2.4215   38.5962   -0.0291 O   0  0  0  0  0  0  0  0  0  0  0  0
    4.2999   33.7442   -2.3639 C   0  0  1  0  0  0  0  0  0  0  0  0
    3.1936   34.4536   -2.8993 O   0  0  0  0  0  0  0  0  0  0  0  0
    1.0256   32.7902   -3.3607 C   0  0  1  0  0  0  0  0  0  0  0  0
    1.6691   32.9486   -2.1023 O   0  0  0  0  0  0  0  0  0  0  0  0
   -0.5177   39.0064   -1.3943 C   0  0  1  0  0  0  0  0  0  0  0  0
    0.1749   39.7820   -0.4609 O   0  0  0  0  0  0  0  0  0  0  0  0
    5.3108   33.3680   -3.4843 C   0  0  2  0  0  0  0  0  0  0  0  0
    4.6622   32.5400   -4.4482 O   0  0  0  0  0  0  0  0  0  0  0  0
    0.4788   38.3319   -2.2743 C   0  0  1  0  0  0  0  0  0  0  0  0
   -0.2247   37.5622   -3.2060 O   0  0  0  0  0  0  0  0  0  0  0  0
    6.4947   32.5980   -2.8626 C   0  0  1  0  0  0  0  0  0  0  0  0
    7.4407   32.2402   -3.8834 O   0  0  0  0  0  0  0  0  0  0  0  0
    1.3211   39.3587   -3.0570 C   0  0  0  0  0  0  0  0  0  0  0  0
    2.0411   38.6873   -4.0845 O   0  0  0  0  0  0  0  0  0  0  0  0
    9.8316   34.4243   -1.0536 N   0  0  0  0  0  0  0  0  0  0  0  0
    4.8415   36.0894    1.3672 N   0  0  0  0  0  0  0  0  0  0  0  0
  1  2  1  0  0  0  0
  1 39  1  0  0  0  0
  3  4  1  0  0  0  0
  5  6  1  0  0  0  0
  5 40  1  0  0  0  0
  9 10  1  1  0  0  0
  9 14  1  0  0  0  0
  9 35  1  0  0  0  0
 10  1  1  0  0  0  0
 11 16  1  0  0  0  0
 11 28  1  0  0  0  0
 11 26  1  6  0  0  0
 12 17  1  0  0  0  0
 12 34  1  0  0  0  0
 12 13  1  1  0  0  0
 14 15  1  1  0  0  0
 14 19  1  0  0  0  0
 16 13  1  1  0  0  0
 16 21  1  0  0  0  0
 17 18  1  1  0  0  0
 17 23  1  0  0  0  0
 18  8  1  0  0  0  0
 19 20  1  1  0  0  0
 19 25  1  0  0  0  0
 20  5  1  0  0  0  0
 21  3  1  6  0  0  0
 21 22  1  0  0  0  0
 21 27  1  0  0  0  0
 23 24  1  6  0  0  0
 23 29  1  0  0  0  0
 25 26  1  6  0  0  0
 25 31  1  0  0  0  0
 27  7  1  1  0  0  0
 27 28  1  0  0  0  0
 29 30  1  1  0  0  0
 29 33  1  0  0  0  0
 31 32  1  6  0  0  0
 31 35  1  0  0  0  0
 33 34  1  0  0  0  0
 33 37  1  6  0  0  0
 35 36  1  6  0  0  0
 37 38  1  0  0  0  0
M  END
>  <CHROM.1>
-124.09065807,-115.87573877,-179.17077442,161.05319108,-178.40634522,-96.07707738
86.09700075,79.58421159,-177.01199784,-84.14971918,-167.34586454,2.64832220
35.16256192,-2.10540334,-0.30840484,-0.23954109,0.58407997

>  <Name>
1nta_lig

>  <RI>
0

>  <Rbt.Current_Directory>
/home/itssahil/PROJECTS/Mol_Feturizer/New_Systems/rnas/1nta

>  <Rbt.Executable>
rbdock ($Id: //depot/dev/client3/rdock/2013.1/src/exe/rbdock.cxx#4 $)

>  <Rbt.Library>
libRbt.so (2013.1, Build901 2013/11/27)

>  <Rbt.Parameter_File>
/export/apps/rDock/src/rDock_2013.1_src/data/scripts/dock_solv.prm

>  <Rbt.Receptor>
prm/pocket_docking_3.prm

>  <SCORE>
-31.5023

>  <SCORE.INTER>
-8.30688

>  <SCORE.INTER.CONST>
1

>  <SCORE.INTER.POLAR>
-1.03377

>  <SCORE.INTER.ROT>
11

>  <SCORE.INTER.SOLV>
22.6975

>  <SCORE.INTER.VDW>
-20.5912

>  <SCORE.INTER.norm>
-0.207672

>  <SCORE.INTRA>
-23.1954

>  <SCORE.INTRA.DIHEDRAL>
-10.5251

>  <SCORE.INTRA.DIHEDRAL.0>
19.0336

>  <SCORE.INTRA.POLAR>
0

>  <SCORE.INTRA.POLAR.0>
0

>  <SCORE.INTRA.REPUL>
0.00771349

>  <SCORE.INTRA.REPUL.0>
0

>  <SCORE.INTRA.SOLV>
-3.68948

>  <SCORE.INTRA.SOLV.lig_0>
-97.5861

>  <SCORE.INTRA.VDW>
-16.1267

>  <SCORE.INTRA.VDW.0>
11.7669

>  <SCORE.INTRA.norm>
-0.579886

>  <SCORE.RESTR>
0

>  <SCORE.RESTR.CAVITY>
0

>  <SCORE.RESTR.norm>
0

>  <SCORE.SYSTEM>
0

>  <SCORE.SYSTEM.CONST>
0

>  <SCORE.SYSTEM.DIHEDRAL>
0

>  <SCORE.SYSTEM.SOLV>
0

>  <SCORE.SYSTEM.norm>
0

>  <SCORE.heavy>
40

>  <SCORE.norm>
-0.787558

>  <RMSD>
2.799

$$$$
1nta_lig
 OpenBabel11021811403D
libRbt.so/2013.1/901 2013/11/27
 40 42  0  0  0  0  0  0  0  0999 V2000
    9.8051   32.2132   -2.7245 C   0  0  0  0  0  0  0  0  0  0  0  0
   10.0446   31.8207   -3.9198 N   0  0  0  0  0  0  0  0  0  0  0  0
    0.6171   35.3483   -3.8150 C   0  0  0  0  0  0  0  0  0  0  0  0
    1.5660   35.9631   -4.2497 O   0  0  0  0  0  0  0  0  0  0  0  0
    5.2773   35.5569    0.6451 C   0  0  0  0  0  0  0  0  0  0  0  0
    4.3013   36.4139    0.7960 N   0  0  0  0  0  0  0  0  0  0  0  0
    0.6756   32.0230   -3.8344 C   0  0  0  0  0  0  0  0  0  0  0  0
   -3.1312   34.9948    0.3310 C   0  0  0  0  0  0  0  0  0  0  0  0
    7.5401   32.7668   -2.3198 C   0  0  2  0  0  0  0  0  0  0  0  0
    8.6754   31.7697   -2.1938 N   0  0  0  0  0  0  0  0  0  0  0  0
    2.4621   33.8566   -1.3172 C   0  0  2  0  0  0  0  0  0  0  0  0
   -0.2792   36.0975   -0.6090 C   0  0  1  0  0  0  0  0  0  0  0  0
    0.7083   35.1410   -0.4433 O   0  0  0  0  0  0  0  0  0  0  0  0
    6.9239   33.0446   -0.9356 C   0  0  1  0  0  0  0  0  0  0  0  0
    7.9181   33.6351   -0.1539 O   0  0  0  0  0  0  0  0  0  0  0  0
    1.3706   34.8931   -1.5609 C   0  0  2  0  0  0  0  0  0  0  0  0
   -1.2162   36.2715    0.5660 C   0  0  1  0  0  0  0  0  0  0  0  0
   -1.7872   35.0085    0.8836 N   0  0  0  0  0  0  0  0  0  0  0  0
    5.7514   34.0321   -1.0058 C   0  0  2  0  0  0  0  0  0  0  0  0
    5.1305   34.3194    0.3095 N   0  0  0  0  0  0  0  0  0  0  0  0
    0.6877   34.3149   -2.7229 C   0  0  1  0  0  0  0  0  0  0  0  0
   -0.6095   33.9010   -2.2891 O   0  0  0  0  0  0  0  0  0  0  0  0
   -0.5393   36.7524    1.6781 C   0  0  2  0  0  0  0  0  0  0  0  0
   -1.5010   37.1650    2.6162 O   0  0  0  0  0  0  0  0  0  0  0  0
    4.6999   33.4495   -1.9368 C   0  0  1  0  0  0  0  0  0  0  0  0
    3.6200   34.3679   -2.0009 O   0  0  0  0  0  0  0  0  0  0  0  0
    1.4310   33.1276   -3.1628 C   0  0  1  0  0  0  0  0  0  0  0  0
    2.0854   32.6740   -1.9843 O   0  0  0  0  0  0  0  0  0  0  0  0
    0.3273   37.9242    1.2981 C   0  0  1  0  0  0  0  0  0  0  0  0
    1.1702   38.2315    2.3693 O   0  0  0  0  0  0  0  0  0  0  0  0
    5.3064   33.2091   -3.3486 C   0  0  2  0  0  0  0  0  0  0  0  0
    4.3031   32.6728   -4.2094 O   0  0  0  0  0  0  0  0  0  0  0  0
    1.1735   37.5655    0.1243 C   0  0  1  0  0  0  0  0  0  0  0  0
    0.3206   37.2637   -0.9419 O   0  0  0  0  0  0  0  0  0  0  0  0
    6.4733   32.2057   -3.2358 C   0  0  1  0  0  0  0  0  0  0  0  0
    7.0472   31.9693   -4.5318 O   0  0  0  0  0  0  0  0  0  0  0  0
    2.0622   38.7484   -0.3083 C   0  0  0  0  0  0  0  0  0  0  0  0
    3.0255   39.0058    0.7069 O   0  0  0  0  0  0  0  0  0  0  0  0
   10.6045   32.9919   -2.0789 N   0  0  0  0  0  0  0  0  0  0  0  0
    6.4837   35.9360    0.8099 N   0  0  0  0  0  0  0  0  0  0  0  0
  1  2  1  0  0  0  0
  1 39  1  0  0  0  0
  3  4  1  0  0  0  0
  5  6  1  0  0  0  0
  5 40  1  0  0  0  0
  9 10  1  1  0  0  0
  9 14  1  0  0  0  0
  9 35  1  0  0  0  0
 10  1  1  0  0  0  0
 11 16  1  0  0  0  0
 11 28  1  0  0  0  0
 11 26  1  6  0  0  0
 12 17  1  0  0  0  0
 12 34  1  0  0  0  0
 12 13  1  1  0  0  0
 14 15  1  1  0  0  0
 14 19  1  0  0  0  0
 16 13  1  1  0  0  0
 16 21  1  0  0  0  0
 17 18  1  1  0  0  0
 17 23  1  0  0  0  0
 18  8  1  0  0  0  0
 19 20  1  1  0  0  0
 19 25  1  0  0  0  0
 20  5  1  0  0  0  0
 21  3  1  6  0  0  0
 21 22  1  0  0  0  0
 21 27  1  0  0  0  0
 23 24  1  1  0  0  0
 23 29  1  0  0  0  0
 25 26  1  6  0  0  0
 25 31  1  0  0  0  0
 27  7  1  1  0  0  0
 27 28  1  0  0  0  0
 29 30  1  1  0  0  0
 29 33  1  0  0  0  0
 31 32  1  6  0  0  0
 31 35  1  0  0  0  0
 33 34  1  0  0  0  0
 33 37  1  6  0  0  0
 35 36  1  6  0  0  0
 37 38  1  0  0  0  0
M  END
>  <CHROM.1>
-125.92478719,-96.76436691,-175.88334375,170.72444188,178.83995788,-101.59572023
115.73692624,115.71842366,52.97083249,-109.15527276,67.22389633,3.21501668
34.73661813,-1.21881316,-0.50674789,-0.11655807,0.84180155

>  <Name>
1nta_lig

>  <RI>
0

>  <Rbt.Current_Directory>
/home/itssahil/PROJECTS/Mol_Feturizer/New_Systems/rnas/1nta

>  <Rbt.Executable>
rbdock ($Id: //depot/dev/client3/rdock/2013.1/src/exe/rbdock.cxx#4 $)

>  <Rbt.Library>
libRbt.so (2013.1, Build901 2013/11/27)

>  <Rbt.Parameter_File>
/export/apps/rDock/src/rDock_2013.1_src/data/scripts/dock_solv.prm

>  <Rbt.Receptor>
prm/pocket_docking_7.prm

>  <SCORE>
-31.8056

>  <SCORE.INTER>
-10.824

>  <SCORE.INTER.CONST>
1

>  <SCORE.INTER.POLAR>
-1.86782

>  <SCORE.INTER.ROT>
11

>  <SCORE.INTER.SOLV>
23.3812

>  <SCORE.INTER.VDW>
-19.717

>  <SCORE.INTER.norm>
-0.270601

>  <SCORE.INTRA>
-20.9815

>  <SCORE.INTRA.DIHEDRAL>
-7.04977

>  <SCORE.INTRA.DIHEDRAL.0>
19.0336

>  <SCORE.INTRA.POLAR>
0

>  <SCORE.INTRA.POLAR.0>
0

>  <SCORE.INTRA.REPUL>
0

>  <SCORE.INTRA.REPUL.0>
0

>  <SCORE.INTRA.SOLV>
-0.467051

>  <SCORE.INTRA.SOLV.lig_0>
-97.5861

>  <SCORE.INTRA.VDW>
-17.2231

>  <SCORE.INTRA.VDW.0>
11.7669

>  <SCORE.INTRA.norm>
-0.524538

>  <SCORE.RESTR>
0

>  <SCORE.RESTR.CAVITY>
0

>  <SCORE.RESTR.norm>
0

>  <SCORE.SYSTEM>
0

>  <SCORE.SYSTEM.CONST>
0

>  <SCORE.SYSTEM.DIHEDRAL>
0

>  <SCORE.SYSTEM.SOLV>
0

>  <SCORE.SYSTEM.norm>
0

>  <SCORE.heavy>
40

>  <SCORE.norm>
-0.795139

>  <RMSD>
2.834

$$$$
1nta_lig
 OpenBabel11021811403D
libRbt.so/2013.1/901 2013/11/27
 40 42  0  0  0  0  0  0  0  0999 V2000
    9.8044   33.0877   -2.2391 C   0  0  0  0  0  0  0  0  0  0  0  0
   10.0634   32.2078   -3.1327 N   0  0  0  0  0  0  0  0  0  0  0  0
    0.3438   35.4805   -2.5996 C   0  0  0  0  0  0  0  0  0  0  0  0
   -0.2744   36.3626   -2.0455 O   0  0  0  0  0  0  0  0  0  0  0  0
    4.8191   36.0400    1.2271 C   0  0  0  0  0  0  0  0  0  0  0  0
    5.2974   36.7445    2.2194 N   0  0  0  0  0  0  0  0  0  0  0  0
    0.9038   32.5284   -4.0254 C   0  0  0  0  0  0  0  0  0  0  0  0
    1.5193   37.6270    1.5730 C   0  0  0  0  0  0  0  0  0  0  0  0
    7.5843   33.4402   -1.4994 C   0  0  2  0  0  0  0  0  0  0  0  0
    8.9127   32.7299   -1.3272 N   0  0  0  0  0  0  0  0  0  0  0  0
    2.3423   33.3039   -0.8285 C   0  0  2  0  0  0  0  0  0  0  0  0
    0.9624   34.2772    1.5485 C   0  0  1  0  0  0  0  0  0  0  0  0
    0.3976   33.8486    0.3591 O   0  0  0  0  0  0  0  0  0  0  0  0
    6.9704   33.7551   -0.1220 C   0  0  1  0  0  0  0  0  0  0  0  0
    7.8388   34.6369    0.5232 O   0  0  0  0  0  0  0  0  0  0  0  0
    1.1119   34.1952   -0.6986 C   0  0  2  0  0  0  0  0  0  0  0  0
    0.4750   35.6185    2.0507 C   0  0  1  0  0  0  0  0  0  0  0  0
    0.6665   36.5853    1.0256 N   0  0  0  0  0  0  0  0  0  0  0  0
    5.6097   34.4552   -0.2355 C   0  0  2  0  0  0  0  0  0  0  0  0
    4.9868   34.7696    1.0727 N   0  0  0  0  0  0  0  0  0  0  0  0
    0.5476   34.0947   -2.0485 C   0  0  1  0  0  0  0  0  0  0  0  0
   -0.6806   33.3722   -1.9412 O   0  0  0  0  0  0  0  0  0  0  0  0
   -0.8728   35.5700    2.3782 C   0  0  2  0  0  0  0  0  0  0  0  0
   -1.1771   36.7353    3.1023 O   0  0  0  0  0  0  0  0  0  0  0  0
    4.6785   33.5500   -1.0263 C   0  0  1  0  0  0  0  0  0  0  0  0
    3.4233   34.2036   -1.1312 O   0  0  0  0  0  0  0  0  0  0  0  0
    1.4703   33.3201   -2.8877 C   0  0  1  0  0  0  0  0  0  0  0  0
    2.1619   32.4889   -1.9637 O   0  0  0  0  0  0  0  0  0  0  0  0
   -1.1627   34.3604    3.2275 C   0  0  1  0  0  0  0  0  0  0  0  0
   -2.5468   34.2051    3.3388 O   0  0  0  0  0  0  0  0  0  0  0  0
    5.2739   33.2658   -2.4346 C   0  0  2  0  0  0  0  0  0  0  0  0
    4.3821   32.4245   -3.1642 O   0  0  0  0  0  0  0  0  0  0  0  0
   -0.6057   33.1412    2.5749 C   0  0  1  0  0  0  0  0  0  0  0  0
    0.7791   33.3055    2.4720 O   0  0  0  0  0  0  0  0  0  0  0  0
    6.6341   32.5544   -2.2769 C   0  0  1  0  0  0  0  0  0  0  0  0
    7.2007   32.2818   -3.5689 O   0  0  0  0  0  0  0  0  0  0  0  0
   -0.8651   31.8820    3.4255 C   0  0  0  0  0  0  0  0  0  0  0  0
   -0.4066   32.1114    4.7530 O   0  0  0  0  0  0  0  0  0  0  0  0
   10.3676   34.2475   -2.2265 N   0  0  0  0  0  0  0  0  0  0  0  0
    4.1077   36.6069    0.3333 N   0  0  0  0  0  0  0  0  0  0  0  0
  1  2  1  0  0  0  0
  1 39  1  0  0  0  0
  3  4  1  0  0  0  0
  5  6  1  0  0  0  0
  5 40  1  0  0  0  0
  9 10  1  1  0  0  0
  9 14  1  0  0  0  0
  9 35  1  0  0  0  0
 10  1  1  0  0  0  0
 11 16  1  0  0  0  0
 11 28  1  0  0  0  0
 11 26  1  6  0  0  0
 12 17  1  0  0  0  0
 12 34  1  0  0  0  0
 12 13  1  6  0  0  0
 14 15  1  1  0  0  0
 14 19  1  0  0  0  0
 16 13  1  1  0  0  0
 16 21  1  0  0  0  0
 17 18  1  6  0  0  0
 17 23  1  0  0  0  0
 18  8  1  0  0  0  0
 19 20  1  1  0  0  0
 19 25  1  0  0  0  0
 20  5  1  0  0  0  0
 21  3  1  6  0  0  0
 21 22  1  0  0  0  0
 21 27  1  0  0  0  0
 23 24  1  1  0  0  0
 23 29  1  0  0  0  0
 25 26  1  6  0  0  0
 25 31  1  0  0  0  0
 27  7  1  6  0  0  0
 27 28  1  0  0  0  0
 29 30  1  6  0  0  0
 29 33  1  0  0  0  0
 31 32  1  6  0  0  0
 31 35  1  0  0  0  0
 33 34  1  0  0  0  0
 33 37  1  1  0  0  0
 35 36  1  6  0  0  0
 37 38  1  0  0  0  0
M  END
>  <CHROM.1>
-143.44303241,-107.75208842,168.66860863,92.88899428,75.92235628,-121.80917832
118.55357795,-123.35114700,-53.51516235,-133.63218929,-52.18725068,3.01234993
34.12998757,-0.14569953,-0.44522868,0.03031144,1.21339433

>  <Name>
1nta_lig

>  <RI>
0

>  <Rbt.Current_Directory>
/home/itssahil/PROJECTS/Mol_Feturizer/New_Systems/rnas/1nta

>  <Rbt.Executable>
rbdock ($Id: //depot/dev/client3/rdock/2013.1/src/exe/rbdock.cxx#4 $)

>  <Rbt.Library>
libRbt.so (2013.1, Build901 2013/11/27)

>  <Rbt.Parameter_File>
/export/apps/rDock/src/rDock_2013.1_src/data/scripts/dock_solv.prm

>  <Rbt.Receptor>
prm/pocket_docking_8.prm

>  <SCORE>
-33.8021

>  <SCORE.INTER>
-15.3083

>  <SCORE.INTER.CONST>
1

>  <SCORE.INTER.POLAR>
-2.32179

>  <SCORE.INTER.ROT>
11

>  <SCORE.INTER.SOLV>
25.746

>  <SCORE.INTER.VDW>
-21.9815

>  <SCORE.INTER.norm>
-0.382706

>  <SCORE.INTRA>
-18.4938

>  <SCORE.INTRA.DIHEDRAL>
-2.28189

>  <SCORE.INTRA.DIHEDRAL.0>
19.0336

>  <SCORE.INTRA.POLAR>
0

>  <SCORE.INTRA.POLAR.0>
0

>  <SCORE.INTRA.REPUL>
0

>  <SCORE.INTRA.REPUL.0>
0

>  <SCORE.INTRA.SOLV>
-0.298536

>  <SCORE.INTRA.SOLV.lig_0>
-97.5861

>  <SCORE.INTRA.VDW>
-17.2036

>  <SCORE.INTRA.VDW.0>
11.7669

>  <SCORE.INTRA.norm>
-0.462345

>  <SCORE.RESTR>
0

>  <SCORE.RESTR.CAVITY>
0

>  <SCORE.RESTR.norm>
0

>  <SCORE.SYSTEM>
0

>  <SCORE.SYSTEM.CONST>
0

>  <SCORE.SYSTEM.DIHEDRAL>
0

>  <SCORE.SYSTEM.SOLV>
0

>  <SCORE.SYSTEM.norm>
0

>  <SCORE.heavy>
40

>  <SCORE.norm>
-0.845051

>  <RMSD>
2.843

$$$$
1nta_lig
 OpenBabel11021811403D
libRbt.so/2013.1/901 2013/11/27
 40 42  0  0  0  0  0  0  0  0999 V2000
    8.6957   35.0485    0.2941 C   0  0  0  0  0  0  0  0  0  0  0  0
    9.2186   36.1716    0.6186 N   0  0  0  0  0  0  0  0  0  0  0  0
   -0.1879   35.0669   -3.8512 C   0  0  0  0  0  0  0  0  0  0  0  0
    0.7657   35.6693   -4.2928 O   0  0  0  0  0  0  0  0  0  0  0  0
    3.5571   38.6120   -0.1344 C   0  0  0  0  0  0  0  0  0  0  0  0
    4.4012   39.4718    0.3737 N   0  0  0  0  0  0  0  0  0  0  0  0
    0.5956   31.9732   -2.9147 C   0  0  0  0  0  0  0  0  0  0  0  0
   -4.5568   34.5559   -1.2496 C   0  0  0  0  0  0  0  0  0  0  0  0
    6.3493   35.0363   -0.0135 C   0  0  2  0  0  0  0  0  0  0  0  0
    7.5428   34.7648    0.8814 N   0  0  0  0  0  0  0  0  0  0  0  0
    1.1205   34.7351   -0.6815 C   0  0  2  0  0  0  0  0  0  0  0  0
   -2.0765   36.3047   -1.2565 C   0  0  1  0  0  0  0  0  0  0  0  0
   -1.0480   35.6206   -0.6304 O   0  0  0  0  0  0  0  0  0  0  0  0
    5.4471   36.1122    0.6199 C   0  0  1  0  0  0  0  0  0  0  0  0
    6.1963   37.2876    0.6905 O   0  0  0  0  0  0  0  0  0  0  0  0
   -0.0495   35.3392   -1.4507 C   0  0  2  0  0  0  0  0  0  0  0  0
   -3.3701   36.3852   -0.4762 C   0  0  1  0  0  0  0  0  0  0  0  0
   -3.7779   35.0666   -0.1339 N   0  0  0  0  0  0  0  0  0  0  0  0
    4.2075   36.4114   -0.2337 C   0  0  2  0  0  0  0  0  0  0  0  0
    3.3130   37.4403    0.3487 N   0  0  0  0  0  0  0  0  0  0  0  0
   -0.2181   34.3553   -2.5251 C   0  0  1  0  0  0  0  0  0  0  0  0
   -1.4629   33.6908   -2.2992 O   0  0  0  0  0  0  0  0  0  0  0  0
   -3.2065   37.1227    0.6880 C   0  0  2  0  0  0  0  0  0  0  0  0
   -4.4859   37.4035    1.1973 O   0  0  0  0  0  0  0  0  0  0  0  0
    3.4306   35.1158   -0.4067 C   0  0  1  0  0  0  0  0  0  0  0  0
    2.2878   35.3973   -1.1995 O   0  0  0  0  0  0  0  0  0  0  0  0
    0.8613   33.3646   -2.4296 C   0  0  1  0  0  0  0  0  0  0  0  0
    1.2230   33.3801   -1.0541 O   0  0  0  0  0  0  0  0  0  0  0  0
   -2.4881   38.4135    0.3942 C   0  0  1  0  0  0  0  0  0  0  0  0
   -2.1261   39.0164    1.6017 O   0  0  0  0  0  0  0  0  0  0  0  0
    4.3247   34.0402   -1.0868 C   0  0  2  0  0  0  0  0  0  0  0  0
    3.5759   32.8369   -1.2498 O   0  0  0  0  0  0  0  0  0  0  0  0
   -1.2456   38.1337   -0.3805 C   0  0  1  0  0  0  0  0  0  0  0  0
   -1.6195   37.5344   -1.5874 O   0  0  0  0  0  0  0  0  0  0  0  0
    5.5523   33.7619   -0.1943 C   0  0  1  0  0  0  0  0  0  0  0  0
    6.3915   32.7686   -0.8058 O   0  0  0  0  0  0  0  0  0  0  0  0
   -0.4909   39.4346   -0.7187 C   0  0  0  0  0  0  0  0  0  0  0  0
   -1.3465   40.2909   -1.4668 O   0  0  0  0  0  0  0  0  0  0  0  0
    9.2529   34.2425   -0.5438 N   0  0  0  0  0  0  0  0  0  0  0  0
    2.8855   38.9223   -1.1731 N   0  0  0  0  0  0  0  0  0  0  0  0
  1  2  1  0  0  0  0
  1 39  1  0  0  0  0
  3  4  1  0  0  0  0
  5  6  1  0  0  0  0
  5 40  1  0  0  0  0
  9 10  1  1  0  0  0
  9 14  1  0  0  0  0
  9 35  1  0  0  0  0
 10  1  1  0  0  0  0
 11 16  1  0  0  0  0
 11 28  1  0  0  0  0
 11 26  1  6  0  0  0
 12 17  1  0  0  0  0
 12 34  1  0  0  0  0
 12 13  1  1  0  0  0
 14 15  1  6  0  0  0
 14 19  1  0  0  0  0
 16 13  1  1  0  0  0
 16 21  1  0  0  0  0
 17 18  1  1  0  0  0
 17 23  1  0  0  0  0
 18  8  1  0  0  0  0
 19 20  1  1  0  0  0
 19 25  1  0  0  0  0
 20  5  1  0  0  0  0
 21  3  1  6  0  0  0
 21 22  1  0  0  0  0
 21 27  1  0  0  0  0
 23 24  1  6  0  0  0
 23 29  1  0  0  0  0
 25 26  1  6  0  0  0
 25 31  1  0  0  0  0
 27  7  1  1  0  0  0
 27 28  1  0  0  0  0
 29 30  1  1  0  0  0
 29 33  1  0  0  0  0
 31 32  1  1  0  0  0
 31 35  1  0  0  0  0
 33 34  1  0  0  0  0
 33 37  1  6  0  0  0
 35 36  1  6  0  0  0
 37 38  1  0  0  0  0
M  END
>  <CHROM.1>
-118.24862883,100.23566148,169.20209729,166.78058117,173.38293235,-86.78966803
95.62565077,-90.60118572,63.70035331,-137.57652738,-58.44691660,1.63041904
35.90450120,-0.73393559,-0.12823546,-0.12337185,0.38719468

>  <Name>
1nta_lig

>  <RI>
0

>  <Rbt.Current_Directory>
/home/itssahil/PROJECTS/Mol_Feturizer/New_Systems/rnas/1nta

>  <Rbt.Executable>
rbdock ($Id: //depot/dev/client3/rdock/2013.1/src/exe/rbdock.cxx#4 $)

>  <Rbt.Library>
libRbt.so (2013.1, Build901 2013/11/27)

>  <Rbt.Parameter_File>
/export/apps/rDock/src/rDock_2013.1_src/data/scripts/dock_solv.prm

>  <Rbt.Receptor>
prm/pocket_docking_4.prm

>  <SCORE>
-21.2485

>  <SCORE.INTER>
0.853847

>  <SCORE.INTER.CONST>
1

>  <SCORE.INTER.POLAR>
-1

>  <SCORE.INTER.ROT>
11

>  <SCORE.INTER.SOLV>
23.8961

>  <SCORE.INTER.VDW>
-14.9961

>  <SCORE.INTER.norm>
0.0213462

>  <SCORE.INTRA>
-22.1023

>  <SCORE.INTRA.DIHEDRAL>
-7.83922

>  <SCORE.INTRA.DIHEDRAL.0>
19.0336

>  <SCORE.INTRA.POLAR>
0

>  <SCORE.INTRA.POLAR.0>
0

>  <SCORE.INTRA.REPUL>
0

>  <SCORE.INTRA.REPUL.0>
0

>  <SCORE.INTRA.SOLV>
-3.30038

>  <SCORE.INTRA.SOLV.lig_0>
-97.5861

>  <SCORE.INTRA.VDW>
-16.5325

>  <SCORE.INTRA.VDW.0>
11.7669

>  <SCORE.INTRA.norm>
-0.552558

>  <SCORE.RESTR>
0

>  <SCORE.RESTR.CAVITY>
0

>  <SCORE.RESTR.norm>
0

>  <SCORE.SYSTEM>
0

>  <SCORE.SYSTEM.CONST>
0

>  <SCORE.SYSTEM.DIHEDRAL>
0

>  <SCORE.SYSTEM.SOLV>
0

>  <SCORE.SYSTEM.norm>
0

>  <SCORE.heavy>
40

>  <SCORE.norm>
-0.531212

>  <RMSD>
2.874

$$$$
1nta_lig
 OpenBabel11021811403D
libRbt.so/2013.1/901 2013/11/27
 40 42  0  0  0  0  0  0  0  0999 V2000
   10.0445   31.9598   -2.5551 C   0  0  0  0  0  0  0  0  0  0  0  0
   10.1537   31.7801   -3.8184 N   0  0  0  0  0  0  0  0  0  0  0  0
    0.8888   35.2686   -4.0415 C   0  0  0  0  0  0  0  0  0  0  0  0
    0.2876   34.9787   -5.0523 O   0  0  0  0  0  0  0  0  0  0  0  0
    5.5177   35.2420    0.7950 C   0  0  0  0  0  0  0  0  0  0  0  0
    6.6130   35.9068    0.5343 N   0  0  0  0  0  0  0  0  0  0  0  0
    0.7999   31.9778   -3.5681 C   0  0  0  0  0  0  0  0  0  0  0  0
   -2.6805   35.6472   -0.6868 C   0  0  0  0  0  0  0  0  0  0  0  0
    7.8090   32.6580   -2.2154 C   0  0  2  0  0  0  0  0  0  0  0  0
    8.8831   31.6046   -2.0265 N   0  0  0  0  0  0  0  0  0  0  0  0
    2.8015   34.0657   -1.4409 C   0  0  2  0  0  0  0  0  0  0  0  0
    0.2898   36.6046   -0.9302 C   0  0  1  0  0  0  0  0  0  0  0  0
    1.1568   35.5531   -0.6849 O   0  0  0  0  0  0  0  0  0  0  0  0
    7.0421   32.8740   -0.8970 C   0  0  1  0  0  0  0  0  0  0  0  0
    7.9566   33.3676    0.0346 O   0  0  0  0  0  0  0  0  0  0  0  0
    1.7448   35.1102   -1.7836 C   0  0  2  0  0  0  0  0  0  0  0  0
   -0.8177   36.7814    0.0852 C   0  0  1  0  0  0  0  0  0  0  0  0
   -1.5313   35.5566    0.1982 N   0  0  0  0  0  0  0  0  0  0  0  0
    5.9240   33.9158   -1.0357 C   0  0  2  0  0  0  0  0  0  0  0  0
    5.1610   34.1459    0.2145 N   0  0  0  0  0  0  0  0  0  0  0  0
    0.9741   34.4040   -2.8123 C   0  0  1  0  0  0  0  0  0  0  0  0
   -0.3141   34.1258   -2.2598 O   0  0  0  0  0  0  0  0  0  0  0  0
   -0.3053   37.1208    1.3296 C   0  0  2  0  0  0  0  0  0  0  0  0
   -1.3779   37.5533    2.1280 O   0  0  0  0  0  0  0  0  0  0  0  0
    4.9708   33.4423   -2.1215 C   0  0  1  0  0  0  0  0  0  0  0  0
    3.9413   34.4107   -2.2480 O   0  0  0  0  0  0  0  0  0  0  0  0
    1.6391   33.1284   -3.1056 C   0  0  1  0  0  0  0  0  0  0  0  0
    2.3369   32.8191   -1.9055 O   0  0  0  0  0  0  0  0  0  0  0  0
    0.7022   38.2323    1.1963 C   0  0  1  0  0  0  0  0  0  0  0  0
    1.3712   38.3870    2.4133 O   0  0  0  0  0  0  0  0  0  0  0  0
    5.7328   33.2658   -3.4657 C   0  0  2  0  0  0  0  0  0  0  0  0
    4.8207   32.8318   -4.4731 O   0  0  0  0  0  0  0  0  0  0  0  0
    1.7059   37.8802    0.1517 C   0  0  1  0  0  0  0  0  0  0  0  0
    1.0267   37.7316   -1.0616 O   0  0  0  0  0  0  0  0  0  0  0  0
    6.8396   32.2056   -3.2867 C   0  0  1  0  0  0  0  0  0  0  0  0
    7.5555   32.0272   -4.5197 O   0  0  0  0  0  0  0  0  0  0  0  0
    2.7450   39.0044   -0.0288 C   0  0  0  0  0  0  0  0  0  0  0  0
    3.7246   38.5889   -0.9737 O   0  0  0  0  0  0  0  0  0  0  0  0
   10.9966   32.4574   -1.8423 N   0  0  0  0  0  0  0  0  0  0  0  0
    4.7236   35.6605    1.7010 N   0  0  0  0  0  0  0  0  0  0  0  0
  1  2  1  0  0  0  0
  1 39  1  0  0  0  0
  3  4  1  0  0  0  0
  5  6  1  0  0  0  0
  5 40  1  0  0  0  0
  9 10  1  1  0  0  0
  9 14  1  0  0  0  0
  9 35  1  0  0  0  0
 10  1  1  0  0  0  0
 11 16  1  0  0  0  0
 11 28  1  0  0  0  0
 11 26  1  6  0  0  0
 12 17  1  0  0  0  0
 12 34  1  0  0  0  0
 12 13  1  1  0  0  0
 14 15  1  1  0  0  0
 14 19  1  0  0  0  0
 16 13  1  1  0  0  0
 16 21  1  0  0  0  0
 17 18  1  1  0  0  0
 17 23  1  0  0  0  0
 18  8  1  0  0  0  0
 19 20  1  1  0  0  0
 19 25  1  0  0  0  0
 20  5  1  0  0  0  0
 21  3  1  6  0  0  0
 21 22  1  0  0  0  0
 21 27  1  0  0  0  0
 23 24  1  1  0  0  0
 23 29  1  0  0  0  0
 25 26  1  6  0  0  0
 25 31  1  0  0  0  0
 27  7  1  1  0  0  0
 27 28  1  0  0  0  0
 29 30  1  1  0  0  0
 29 33  1  0  0  0  0
 31 32  1  6  0  0  0
 31 35  1  0  0  0  0
 33 34  1  0  0  0  0
 33 37  1  6  0  0  0
 35 36  1  6  0  0  0
 37 38  1  0  0  0  0
M  END
>  <CHROM.1>
-134.56934846,-80.95284015,-174.65385502,155.23317668,173.56987113,-95.26285651
102.60645029,-15.97711182,-177.98511296,-93.89499060,176.47984670,3.49521022
34.77626353,-1.36163562,-0.48371876,-0.20658733,0.86741936

>  <Name>
1nta_lig

>  <RI>
0

>  <Rbt.Current_Directory>
/home/itssahil/PROJECTS/Mol_Feturizer/New_Systems/rnas/1nta

>  <Rbt.Executable>
rbdock ($Id: //depot/dev/client3/rdock/2013.1/src/exe/rbdock.cxx#4 $)

>  <Rbt.Library>
libRbt.so (2013.1, Build901 2013/11/27)

>  <Rbt.Parameter_File>
/export/apps/rDock/src/rDock_2013.1_src/data/scripts/dock_solv.prm

>  <Rbt.Receptor>
prm/pocket_docking_4.prm

>  <SCORE>
-29.8607

>  <SCORE.INTER>
-7.54847

>  <SCORE.INTER.CONST>
1

>  <SCORE.INTER.POLAR>
-1.0583

>  <SCORE.INTER.ROT>
11

>  <SCORE.INTER.SOLV>
25.3894

>  <SCORE.INTER.VDW>
-20.9011

>  <SCORE.INTER.norm>
-0.188712

>  <SCORE.INTRA>
-22.3122

>  <SCORE.INTRA.DIHEDRAL>
-7.59617

>  <SCORE.INTRA.DIHEDRAL.0>
19.0336

>  <SCORE.INTRA.POLAR>
0

>  <SCORE.INTRA.POLAR.0>
0

>  <SCORE.INTRA.REPUL>
0.00010872

>  <SCORE.INTRA.REPUL.0>
0

>  <SCORE.INTRA.SOLV>
-3.60017

>  <SCORE.INTRA.SOLV.lig_0>
-97.5861

>  <SCORE.INTRA.VDW>
-16.7146

>  <SCORE.INTRA.VDW.0>
11.7669

>  <SCORE.INTRA.norm>
-0.557806

>  <SCORE.RESTR>
0

>  <SCORE.RESTR.CAVITY>
0

>  <SCORE.RESTR.norm>
0

>  <SCORE.SYSTEM>
0

>  <SCORE.SYSTEM.CONST>
0

>  <SCORE.SYSTEM.DIHEDRAL>
0

>  <SCORE.SYSTEM.SOLV>
0

>  <SCORE.SYSTEM.norm>
0

>  <SCORE.heavy>
40

>  <SCORE.norm>
-0.746517

>  <RMSD>
2.900

$$$$
1nta_lig
 OpenBabel11021811403D
libRbt.so/2013.1/901 2013/11/27
 40 42  0  0  0  0  0  0  0  0999 V2000
    9.0654   31.5602   -3.4061 C   0  0  0  0  0  0  0  0  0  0  0  0
    8.5670   30.8474   -4.3461 N   0  0  0  0  0  0  0  0  0  0  0  0
    0.7972   35.7446   -3.2258 C   0  0  0  0  0  0  0  0  0  0  0  0
    0.2216   35.3642   -4.2214 O   0  0  0  0  0  0  0  0  0  0  0  0
    5.6633   35.9645    0.8296 C   0  0  0  0  0  0  0  0  0  0  0  0
    4.6069   36.6880    1.0950 N   0  0  0  0  0  0  0  0  0  0  0  0
    0.7684   32.4885   -2.5486 C   0  0  0  0  0  0  0  0  0  0  0  0
   -2.6175   36.3290    0.7311 C   0  0  0  0  0  0  0  0  0  0  0  0
    7.3993   32.7979   -2.2691 C   0  0  2  0  0  0  0  0  0  0  0  0
    8.3503   31.6172   -2.2926 N   0  0  0  0  0  0  0  0  0  0  0  0
    2.7728   34.7335   -0.5908 C   0  0  2  0  0  0  0  0  0  0  0  0
    0.1907   37.2249   -0.1965 C   0  0  1  0  0  0  0  0  0  0  0  0
    1.1179   36.2405    0.1015 O   0  0  0  0  0  0  0  0  0  0  0  0
    7.0263   33.1479   -0.8161 C   0  0  1  0  0  0  0  0  0  0  0  0
    8.2012   33.5408   -0.1732 O   0  0  0  0  0  0  0  0  0  0  0  0
    1.6940   35.7391   -0.9782 C   0  0  2  0  0  0  0  0  0  0  0  0
   -0.7154   37.6284    0.9458 C   0  0  1  0  0  0  0  0  0  0  0  0
   -1.3606   36.4649    1.4479 N   0  0  0  0  0  0  0  0  0  0  0  0
    6.0446   34.3243   -0.7324 C   0  0  2  0  0  0  0  0  0  0  0  0
    5.6596   34.6860    0.6529 N   0  0  0  0  0  0  0  0  0  0  0  0
    0.9171   34.9592   -1.9473 C   0  0  1  0  0  0  0  0  0  0  0  0
   -0.3569   34.6968   -1.3555 O   0  0  0  0  0  0  0  0  0  0  0  0
    0.0074   38.2210    1.9718 C   0  0  2  0  0  0  0  0  0  0  0  0
   -0.9118   38.8273    2.8450 O   0  0  0  0  0  0  0  0  0  0  0  0
    4.7956   33.9524   -1.5157 C   0  0  1  0  0  0  0  0  0  0  0  0
    3.8930   35.0446   -1.4381 O   0  0  0  0  0  0  0  0  0  0  0  0
    1.5971   33.6778   -2.1733 C   0  0  1  0  0  0  0  0  0  0  0  0
    2.3201   33.4538   -0.9691 O   0  0  0  0  0  0  0  0  0  0  0  0
    0.9408   39.2662    1.4197 C   0  0  1  0  0  0  0  0  0  0  0  0
    1.8176   39.6707    2.4296 O   0  0  0  0  0  0  0  0  0  0  0  0
    5.1621   33.6414   -2.9948 C   0  0  2  0  0  0  0  0  0  0  0  0
    3.9774   33.3052   -3.7151 O   0  0  0  0  0  0  0  0  0  0  0  0
    1.7446   38.6864    0.3060 C   0  0  1  0  0  0  0  0  0  0  0  0
    0.8582   38.2888   -0.6997 O   0  0  0  0  0  0  0  0  0  0  0  0
    6.1411   32.4493   -3.0356 C   0  0  1  0  0  0  0  0  0  0  0  0
    6.4915   32.1454   -4.3957 O   0  0  0  0  0  0  0  0  0  0  0  0
    2.7000   39.7335   -0.2999 C   0  0  0  0  0  0  0  0  0  0  0  0
    3.3870   39.1563   -1.4044 O   0  0  0  0  0  0  0  0  0  0  0  0
   10.1853   32.1864   -3.5323 N   0  0  0  0  0  0  0  0  0  0  0  0
    6.8008   36.5273    0.7044 N   0  0  0  0  0  0  0  0  0  0  0  0
  1  2  1  0  0  0  0
  1 39  1  0  0  0  0
  3  4  1  0  0  0  0
  5  6  1  0  0  0  0
  5 40  1  0  0  0  0
  9 10  1  1  0  0  0
  9 14  1  0  0  0  0
  9 35  1  0  0  0  0
 10  1  1  0  0  0  0
 11 16  1  0  0  0  0
 11 28  1  0  0  0  0
 11 26  1  6  0  0  0
 12 17  1  0  0  0  0
 12 34  1  0  0  0  0
 12 13  1  1  0  0  0
 14 15  1  1  0  0  0
 14 19  1  0  0  0  0
 16 13  1  1  0  0  0
 16 21  1  0  0  0  0
 17 18  1  1  0  0  0
 17 23  1  0  0  0  0
 18  8  1  0  0  0  0
 19 20  1  1  0  0  0
 19 25  1  0  0  0  0
 20  5  1  0  0  0  0
 21  3  1  6  0  0  0
 21 22  1  0  0  0  0
 21 27  1  0  0  0  0
 23 24  1  1  0  0  0
 23 29  1  0  0  0  0
 25 26  1  6  0  0  0
 25 31  1  0  0  0  0
 27  7  1  1  0  0  0
 27 28  1  0  0  0  0
 29 30  1  1  0  0  0
 29 33  1  0  0  0  0
 31 32  1  6  0  0  0
 31 35  1  0  0  0  0
 33 34  1  0  0  0  0
 33 37  1  6  0  0  0
 35 36  1  6  0  0  0
 37 38  1  0  0  0  0
M  END
>  <CHROM.1>
-157.57113606,-92.39303359,-160.72383691,167.28742351,176.00708250,-91.66525753
136.42926319,115.08572073,179.38364063,-108.28973273,-176.69143248,3.34780405
35.29864735,-0.99960338,-0.68591764,-0.13810075,0.73158618

>  <Name>
1nta_lig

>  <RI>
0

>  <Rbt.Current_Directory>
/home/itssahil/PROJECTS/Mol_Feturizer/New_Systems/rnas/1nta

>  <Rbt.Executable>
rbdock ($Id: //depot/dev/client3/rdock/2013.1/src/exe/rbdock.cxx#4 $)

>  <Rbt.Library>
libRbt.so (2013.1, Build901 2013/11/27)

>  <Rbt.Parameter_File>
/export/apps/rDock/src/rDock_2013.1_src/data/scripts/dock_solv.prm

>  <Rbt.Receptor>
prm/pocket_docking_4.prm

>  <SCORE>
-26.9568

>  <SCORE.INTER>
-8.05633

>  <SCORE.INTER.CONST>
1

>  <SCORE.INTER.POLAR>
-1.75202

>  <SCORE.INTER.ROT>
11

>  <SCORE.INTER.SOLV>
26.7016

>  <SCORE.INTER.VDW>
-19.3647

>  <SCORE.INTER.norm>
-0.201408

>  <SCORE.INTRA>
-18.9004

>  <SCORE.INTRA.DIHEDRAL>
-6.75136

>  <SCORE.INTRA.DIHEDRAL.0>
19.0336

>  <SCORE.INTRA.POLAR>
0

>  <SCORE.INTRA.POLAR.0>
0

>  <SCORE.INTRA.REPUL>
0

>  <SCORE.INTRA.REPUL.0>
0

>  <SCORE.INTRA.SOLV>
-0.48688

>  <SCORE.INTRA.SOLV.lig_0>
-97.5861

>  <SCORE.INTRA.VDW>
-15.2813

>  <SCORE.INTRA.VDW.0>
11.7669

>  <SCORE.INTRA.norm>
-0.472511

>  <SCORE.RESTR>
0

>  <SCORE.RESTR.CAVITY>
0

>  <SCORE.RESTR.norm>
0

>  <SCORE.SYSTEM>
0

>  <SCORE.SYSTEM.CONST>
0

>  <SCORE.SYSTEM.DIHEDRAL>
0

>  <SCORE.SYSTEM.SOLV>
0

>  <SCORE.SYSTEM.norm>
0

>  <SCORE.heavy>
40

>  <SCORE.norm>
-0.673919

>  <RMSD>
2.983

$$$$
1nta_lig
 OpenBabel11021811403D
libRbt.so/2013.1/901 2013/11/27
 40 42  0  0  0  0  0  0  0  0999 V2000
   10.1995   32.0205   -2.0298 C   0  0  0  0  0  0  0  0  0  0  0  0
   10.7463   30.8625   -2.0454 N   0  0  0  0  0  0  0  0  0  0  0  0
    0.8804   34.9137   -3.9211 C   0  0  0  0  0  0  0  0  0  0  0  0
    0.4839   36.0526   -4.0352 O   0  0  0  0  0  0  0  0  0  0  0  0
    5.2435   35.8212    0.5224 C   0  0  0  0  0  0  0  0  0  0  0  0
    5.3978   36.8084   -0.3211 N   0  0  0  0  0  0  0  0  0  0  0  0
    0.5709   31.7068   -3.0959 C   0  0  0  0  0  0  0  0  0  0  0  0
   -2.3180   35.8231    0.1577 C   0  0  0  0  0  0  0  0  0  0  0  0
    8.0700   32.9681   -1.6200 C   0  0  2  0  0  0  0  0  0  0  0  0
    9.2709   32.2007   -1.1025 N   0  0  0  0  0  0  0  0  0  0  0  0
    2.9095   33.8104   -1.3650 C   0  0  2  0  0  0  0  0  0  0  0  0
    0.5667   36.5233   -0.9297 C   0  0  1  0  0  0  0  0  0  0  0  0
    1.4603   35.5046   -0.6448 O   0  0  0  0  0  0  0  0  0  0  0  0
    7.1722   33.4005   -0.4454 C   0  0  1  0  0  0  0  0  0  0  0  0
    7.9211   34.2737    0.3449 O   0  0  0  0  0  0  0  0  0  0  0  0
    1.9137   34.9050   -1.7329 C   0  0  2  0  0  0  0  0  0  0  0  0
   -0.3054   36.9620    0.2261 C   0  0  1  0  0  0  0  0  0  0  0  0
   -0.9864   35.8243    0.7398 N   0  0  0  0  0  0  0  0  0  0  0  0
    5.9255   34.1631   -0.9132 C   0  0  2  0  0  0  0  0  0  0  0  0
    5.0350   34.5911    0.1922 N   0  0  0  0  0  0  0  0  0  0  0  0
    1.0028   34.1711   -2.6175 C   0  0  1  0  0  0  0  0  0  0  0  0
   -0.2507   34.0636   -1.9397 O   0  0  0  0  0  0  0  0  0  0  0  0
    0.4554   37.5275    1.2397 C   0  0  2  0  0  0  0  0  0  0  0  0
   -0.4263   38.1691    2.1263 O   0  0  0  0  0  0  0  0  0  0  0  0
    5.1482   33.2608   -1.8585 C   0  0  1  0  0  0  0  0  0  0  0  0
    3.9988   33.9719   -2.2907 O   0  0  0  0  0  0  0  0  0  0  0  0
    1.5360   32.8189   -2.8250 C   0  0  1  0  0  0  0  0  0  0  0  0
    2.3085   32.5698   -1.6570 O   0  0  0  0  0  0  0  0  0  0  0  0
    1.4191   38.5360    0.6716 C   0  0  1  0  0  0  0  0  0  0  0  0
    2.3265   38.9076    1.6671 O   0  0  0  0  0  0  0  0  0  0  0  0
    6.0375   32.8580   -3.0691 C   0  0  2  0  0  0  0  0  0  0  0  0
    5.2883   32.0211   -3.9487 O   0  0  0  0  0  0  0  0  0  0  0  0
    2.1827   37.9250   -0.4536 C   0  0  1  0  0  0  0  0  0  0  0  0
    1.2662   37.5606   -1.4448 O   0  0  0  0  0  0  0  0  0  0  0  0
    7.2725   32.0869   -2.5579 C   0  0  1  0  0  0  0  0  0  0  0  0
    8.1074   31.7046   -3.6631 O   0  0  0  0  0  0  0  0  0  0  0  0
    3.1676   38.9345   -1.0759 C   0  0  0  0  0  0  0  0  0  0  0  0
    2.4365   40.0294   -1.6161 O   0  0  0  0  0  0  0  0  0  0  0  0
   10.5242   32.9501   -2.8620 N   0  0  0  0  0  0  0  0  0  0  0  0
    5.3203   36.0419    1.7761 N   0  0  0  0  0  0  0  0  0  0  0  0
  1  2  1  0  0  0  0
  1 39  1  0  0  0  0
  3  4  1  0  0  0  0
  5  6  1  0  0  0  0
  5 40  1  0  0  0  0
  9 10  1  1  0  0  0
  9 14  1  0  0  0  0
  9 35  1  0  0  0  0
 10  1  1  0  0  0  0
 11 16  1  0  0  0  0
 11 28  1  0  0  0  0
 11 26  1  6  0  0  0
 12 17  1  0  0  0  0
 12 34  1  0  0  0  0
 12 13  1  1  0  0  0
 14 15  1  1  0  0  0
 14 19  1  0  0  0  0
 16 13  1  1  0  0  0
 16 21  1  0  0  0  0
 17 18  1  1  0  0  0
 17 23  1  0  0  0  0
 18  8  1  0  0  0  0
 19 20  1  1  0  0  0
 19 25  1  0  0  0  0
 20  5  1  0  0  0  0
 21  3  1  6  0  0  0
 21 22  1  0  0  0  0
 21 27  1  0  0  0  0
 23 24  1  1  0  0  0
 23 29  1  0  0  0  0
 25 26  1  6  0  0  0
 25 31  1  0  0  0  0
 27  7  1  1  0  0  0
 27 28  1  0  0  0  0
 29 30  1  1  0  0  0
 29 33  1  0  0  0  0
 31 32  1  6  0  0  0
 31 35  1  0  0  0  0
 33 34  1  0  0  0  0
 33 37  1  6  0  0  0
 35 36  1  6  0  0  0
 37 38  1  0  0  0  0
M  END
>  <CHROM.1>
-168.17469200,-138.70074235,164.68834604,161.89248906,179.02446603,-98.10274015
97.79894862,44.23774001,-59.21736808,-86.33227645,-62.10907815,3.67971135
34.90600114,-1.21943323,-0.52155959,-0.16143428,0.63365632

>  <Name>
1nta_lig

>  <RI>
0

>  <Rbt.Current_Directory>
/home/itssahil/PROJECTS/Mol_Feturizer/New_Systems/rnas/1nta

>  <Rbt.Executable>
rbdock ($Id: //depot/dev/client3/rdock/2013.1/src/exe/rbdock.cxx#4 $)

>  <Rbt.Library>
libRbt.so (2013.1, Build901 2013/11/27)

>  <Rbt.Parameter_File>
/export/apps/rDock/src/rDock_2013.1_src/data/scripts/dock_solv.prm

>  <Rbt.Receptor>
prm/pocket_docking_3.prm

>  <SCORE>
-30.5244

>  <SCORE.INTER>
-9.2082

>  <SCORE.INTER.CONST>
1

>  <SCORE.INTER.POLAR>
-0.918153

>  <SCORE.INTER.ROT>
11

>  <SCORE.INTER.SOLV>
25.0657

>  <SCORE.INTER.VDW>
-22.3668

>  <SCORE.INTER.norm>
-0.230205

>  <SCORE.INTRA>
-21.3162

>  <SCORE.INTRA.DIHEDRAL>
-10.3152

>  <SCORE.INTRA.DIHEDRAL.0>
19.0336

>  <SCORE.INTRA.POLAR>
0

>  <SCORE.INTRA.POLAR.0>
0

>  <SCORE.INTRA.REPUL>
0

>  <SCORE.INTRA.REPUL.0>
0

>  <SCORE.INTRA.SOLV>
-0.558917

>  <SCORE.INTRA.SOLV.lig_0>
-97.5861

>  <SCORE.INTRA.VDW>
-15.8792

>  <SCORE.INTRA.VDW.0>
11.7669

>  <SCORE.INTRA.norm>
-0.532905

>  <SCORE.RESTR>
0

>  <SCORE.RESTR.CAVITY>
0

>  <SCORE.RESTR.norm>
0

>  <SCORE.SYSTEM>
0

>  <SCORE.SYSTEM.CONST>
0

>  <SCORE.SYSTEM.DIHEDRAL>
0

>  <SCORE.SYSTEM.SOLV>
0

>  <SCORE.SYSTEM.norm>
0

>  <SCORE.heavy>
40

>  <SCORE.norm>
-0.76311

>  <RMSD>
2.985

$$$$
1nta_lig
 OpenBabel11021811403D
libRbt.so/2013.1/901 2013/11/27
 40 42  0  0  0  0  0  0  0  0999 V2000
    9.5690   33.1657   -0.8355 C   0  0  0  0  0  0  0  0  0  0  0  0
   10.3100   32.2183   -1.2755 N   0  0  0  0  0  0  0  0  0  0  0  0
   -0.0993   35.1540   -2.2751 C   0  0  0  0  0  0  0  0  0  0  0  0
   -0.9208   34.4002   -2.7486 O   0  0  0  0  0  0  0  0  0  0  0  0
    5.4196   37.4622    0.8422 C   0  0  0  0  0  0  0  0  0  0  0  0
    6.6487   37.8241    1.1029 N   0  0  0  0  0  0  0  0  0  0  0  0
    0.1796   32.7679    0.0249 C   0  0  0  0  0  0  0  0  0  0  0  0
   -2.6827   37.8666    1.6840 C   0  0  0  0  0  0  0  0  0  0  0  0
    7.2512   33.6432   -0.8430 C   0  0  2  0  0  0  0  0  0  0  0  0
    8.3996   32.7916   -0.3382 N   0  0  0  0  0  0  0  0  0  0  0  0
    2.4466   35.5520    0.0115 C   0  0  2  0  0  0  0  0  0  0  0  0
   -0.2021   37.9736   -0.3833 C   0  0  1  0  0  0  0  0  0  0  0  0
    0.9081   37.3158    0.1190 O   0  0  0  0  0  0  0  0  0  0  0  0
    6.7066   34.5258    0.2961 C   0  0  1  0  0  0  0  0  0  0  0  0
    7.7357   35.3889    0.6755 O   0  0  0  0  0  0  0  0  0  0  0  0
    1.2613   36.2759   -0.6180 C   0  0  2  0  0  0  0  0  0  0  0  0
   -0.9131   38.8834    0.5942 C   0  0  1  0  0  0  0  0  0  0  0  0
   -1.2550   38.1302    1.7509 N   0  0  0  0  0  0  0  0  0  0  0  0
    5.5240   35.3946   -0.1526 C   0  0  2  0  0  0  0  0  0  0  0  0
    4.9710   36.2546    0.9210 N   0  0  0  0  0  0  0  0  0  0  0  0
    0.3327   35.1613   -0.8332 C   0  0  1  0  0  0  0  0  0  0  0  0
   -0.7687   35.3497    0.0576 O   0  0  0  0  0  0  0  0  0  0  0  0
   -0.1014   39.9442    0.9710 C   0  0  2  0  0  0  0  0  0  0  0  0
   -0.9106   40.8871    1.6275 O   0  0  0  0  0  0  0  0  0  0  0  0
    4.4296   34.4721   -0.6658 C   0  0  1  0  0  0  0  0  0  0  0  0
    3.3404   35.2805   -1.0825 O   0  0  0  0  0  0  0  0  0  0  0  0
    1.0101   33.9087   -0.4757 C   0  0  1  0  0  0  0  0  0  0  0  0
    1.9865   34.3051    0.4795 O   0  0  0  0  0  0  0  0  0  0  0  0
    0.5278   40.5791   -0.2413 C   0  0  1  0  0  0  0  0  0  0  0  0
    1.5148   41.4756    0.1766 O   0  0  0  0  0  0  0  0  0  0  0  0
    4.9628   33.6107   -1.8457 C   0  0  2  0  0  0  0  0  0  0  0  0
    3.9199   32.7603   -2.3197 O   0  0  0  0  0  0  0  0  0  0  0  0
    1.1732   39.5305   -1.0817 C   0  0  1  0  0  0  0  0  0  0  0  0
    0.1767   38.6417   -1.4971 O   0  0  0  0  0  0  0  0  0  0  0  0
    6.1422   32.7469   -1.3516 C   0  0  1  0  0  0  0  0  0  0  0  0
    6.6489   31.9418   -2.4286 O   0  0  0  0  0  0  0  0  0  0  0  0
    1.8125   40.1397   -2.3452 C   0  0  0  0  0  0  0  0  0  0  0  0
    2.2873   39.0909   -3.1816 O   0  0  0  0  0  0  0  0  0  0  0  0
    9.9306   34.4025   -0.8763 N   0  0  0  0  0  0  0  0  0  0  0  0
    4.5594   38.3404    0.5028 N   0  0  0  0  0  0  0  0  0  0  0  0
  1  2  1  0  0  0  0
  1 39  1  0  0  0  0
  3  4  1  0  0  0  0
  5  6  1  0  0  0  0
  5 40  1  0  0  0  0
  9 10  1  1  0  0  0
  9 14  1  0  0  0  0
  9 35  1  0  0  0  0
 10  1  1  0  0  0  0
 11 16  1  0  0  0  0
 11 28  1  0  0  0  0
 11 26  1  6  0  0  0
 12 17  1  0  0  0  0
 12 34  1  0  0  0  0
 12 13  1  1  0  0  0
 14 15  1  6  0  0  0
 14 19  1  0  0  0  0
 16 13  1  1  0  0  0
 16 21  1  0  0  0  0
 17 18  1  1  0  0  0
 17 23  1  0  0  0  0
 18  8  1  0  0  0  0
 19 20  1  1  0  0  0
 19 25  1  0  0  0  0
 20  5  1  0  0  0  0
 21  3  1  6  0  0  0
 21 22  1  0  0  0  0
 21 27  1  0  0  0  0
 23 24  1  6  0  0  0
 23 29  1  0  0  0  0
 25 26  1  6  0  0  0
 25 31  1  0  0  0  0
 27  7  1  1  0  0  0
 27 28  1  0  0  0  0
 29 30  1  1  0  0  0
 29 33  1  0  0  0  0
 31 32  1  1  0  0  0
 31 35  1  0  0  0  0
 33 34  1  0  0  0  0
 33 37  1  6  0  0  0
 35 36  1  6  0  0  0
 37 38  1  0  0  0  0
M  END
>  <CHROM.1>
-109.94378184,-133.51440253,-173.47197231,162.05572306,-177.44862282,-104.62162765
98.83833902,-70.25168147,-175.71781831,-87.77684960,-173.83294298,3.05026383
36.15158183,-0.45959994,-0.56843245,-0.04690025,0.23683141

>  <Name>
1nta_lig

>  <RI>
0

>  <Rbt.Current_Directory>
/home/itssahil/PROJECTS/Mol_Feturizer/New_Systems/rnas/1nta

>  <Rbt.Executable>
rbdock ($Id: //depot/dev/client3/rdock/2013.1/src/exe/rbdock.cxx#4 $)

>  <Rbt.Library>
libRbt.so (2013.1, Build901 2013/11/27)

>  <Rbt.Parameter_File>
/export/apps/rDock/src/rDock_2013.1_src/data/scripts/dock_solv.prm

>  <Rbt.Receptor>
prm/pocket_docking_3.prm

>  <SCORE>
-24.6646

>  <SCORE.INTER>
-1.97385

>  <SCORE.INTER.CONST>
1

>  <SCORE.INTER.POLAR>
-1.09957

>  <SCORE.INTER.ROT>
11

>  <SCORE.INTER.SOLV>
23.5908

>  <SCORE.INTER.VDW>
-16.4476

>  <SCORE.INTER.norm>
-0.0493463

>  <SCORE.INTRA>
-22.6908

>  <SCORE.INTRA.DIHEDRAL>
-9.52603

>  <SCORE.INTRA.DIHEDRAL.0>
19.0336

>  <SCORE.INTRA.POLAR>
0

>  <SCORE.INTRA.POLAR.0>
0

>  <SCORE.INTRA.REPUL>
0

>  <SCORE.INTRA.REPUL.0>
0

>  <SCORE.INTRA.SOLV>
-2.98535

>  <SCORE.INTRA.SOLV.lig_0>
-97.5861

>  <SCORE.INTRA.VDW>
-16.4351

>  <SCORE.INTRA.VDW.0>
11.7669

>  <SCORE.INTRA.norm>
-0.567269

>  <SCORE.RESTR>
0

>  <SCORE.RESTR.CAVITY>
0

>  <SCORE.RESTR.norm>
0

>  <SCORE.SYSTEM>
0

>  <SCORE.SYSTEM.CONST>
0

>  <SCORE.SYSTEM.DIHEDRAL>
0

>  <SCORE.SYSTEM.SOLV>
0

>  <SCORE.SYSTEM.norm>
0

>  <SCORE.heavy>
40

>  <SCORE.norm>
-0.616615

>  <RMSD>
3.015

$$$$
1nta_lig
 OpenBabel11021811403D
libRbt.so/2013.1/901 2013/11/27
 40 42  0  0  0  0  0  0  0  0999 V2000
    9.6334   33.1103   -2.0634 C   0  0  0  0  0  0  0  0  0  0  0  0
   10.0838   34.2094   -1.5846 N   0  0  0  0  0  0  0  0  0  0  0  0
    0.1644   34.1806   -5.1285 C   0  0  0  0  0  0  0  0  0  0  0  0
   -0.4205   33.4616   -5.9084 O   0  0  0  0  0  0  0  0  0  0  0  0
    4.3859   36.0441   -0.0580 C   0  0  0  0  0  0  0  0  0  0  0  0
    4.2150   37.2484   -0.5378 N   0  0  0  0  0  0  0  0  0  0  0  0
    0.2989   31.3867   -3.3293 C   0  0  0  0  0  0  0  0  0  0  0  0
   -3.2582   35.9585   -1.2912 C   0  0  0  0  0  0  0  0  0  0  0  0
    7.2950   33.4478   -2.1985 C   0  0  2  0  0  0  0  0  0  0  0  0
    8.4668   32.7120   -1.5785 N   0  0  0  0  0  0  0  0  0  0  0  0
    2.1619   34.2865   -2.3237 C   0  0  2  0  0  0  0  0  0  0  0  0
   -0.6206   36.5377   -2.8014 C   0  0  1  0  0  0  0  0  0  0  0  0
    0.4230   35.8520   -2.2029 O   0  0  0  0  0  0  0  0  0  0  0  0
    6.2785   33.8374   -1.1086 C   0  0  1  0  0  0  0  0  0  0  0  0
    6.9223   34.7239   -0.2439 O   0  0  0  0  0  0  0  0  0  0  0  0
    1.0361   35.0281   -3.0363 C   0  0  2  0  0  0  0  0  0  0  0  0
   -1.4922   37.3403   -1.8607 C   0  0  1  0  0  0  0  0  0  0  0  0
   -1.9771   36.4763   -0.8408 N   0  0  0  0  0  0  0  0  0  0  0  0
    5.0566   34.5664   -1.6834 C   0  0  2  0  0  0  0  0  0  0  0  0
    4.0541   34.9527   -0.6618 N   0  0  0  0  0  0  0  0  0  0  0  0
    0.3115   33.9130   -3.6546 C   0  0  1  0  0  0  0  0  0  0  0  0
   -0.9532   33.8132   -2.9969 O   0  0  0  0  0  0  0  0  0  0  0  0
   -0.7747   38.3728   -1.2731 C   0  0  2  0  0  0  0  0  0  0  0  0
   -1.6975   39.2373   -0.6599 O   0  0  0  0  0  0  0  0  0  0  0  0
    4.4000   33.6518   -2.7053 C   0  0  1  0  0  0  0  0  0  0  0  0
    3.2733   34.3320   -3.2360 O   0  0  0  0  0  0  0  0  0  0  0  0
    1.0601   32.6734   -3.4123 C   0  0  1  0  0  0  0  0  0  0  0  0
    1.7809   32.9343   -2.2143 O   0  0  0  0  0  0  0  0  0  0  0  0
    0.0059   39.1287   -2.3161 C   0  0  1  0  0  0  0  0  0  0  0  0
    0.8954   39.9963   -1.6771 O   0  0  0  0  0  0  0  0  0  0  0  0
    5.4103   33.2920   -3.8316 C   0  0  2  0  0  0  0  0  0  0  0  0
    4.7733   32.4429   -4.7849 O   0  0  0  0  0  0  0  0  0  0  0  0
    0.7965   38.1739   -3.1442 C   0  0  1  0  0  0  0  0  0  0  0  0
   -0.1030   37.3136   -3.7815 O   0  0  0  0  0  0  0  0  0  0  0  0
    6.6168   32.5537   -3.2147 C   0  0  1  0  0  0  0  0  0  0  0  0
    7.5625   32.2113   -4.2409 O   0  0  0  0  0  0  0  0  0  0  0  0
    1.5953   38.9092   -4.2385 C   0  0  0  0  0  0  0  0  0  0  0  0
    2.5909   39.7206   -3.6257 O   0  0  0  0  0  0  0  0  0  0  0  0
   10.2716   32.4308   -2.9541 N   0  0  0  0  0  0  0  0  0  0  0  0
    4.9399   35.8888    1.0802 N   0  0  0  0  0  0  0  0  0  0  0  0
  1  2  1  0  0  0  0
  1 39  1  0  0  0  0
  3  4  1  0  0  0  0
  5  6  1  0  0  0  0
  5 40  1  0  0  0  0
  9 10  1  1  0  0  0
  9 14  1  0  0  0  0
  9 35  1  0  0  0  0
 10  1  1  0  0  0  0
 11 16  1  0  0  0  0
 11 28  1  0  0  0  0
 11 26  1  6  0  0  0
 12 17  1  0  0  0  0
 12 34  1  0  0  0  0
 12 13  1  1  0  0  0
 14 15  1  1  0  0  0
 14 19  1  0  0  0  0
 16 13  1  1  0  0  0
 16 21  1  0  0  0  0
 17 18  1  1  0  0  0
 17 23  1  0  0  0  0
 18  8  1  0  0  0  0
 19 20  1  1  0  0  0
 19 25  1  0  0  0  0
 20  5  1  0  0  0  0
 21  3  1  6  0  0  0
 21 22  1  0  0  0  0
 21 27  1  0  0  0  0
 23 24  1  6  0  0  0
 23 29  1  0  0  0  0
 25 26  1  6  0  0  0
 25 31  1  0  0  0  0
 27  7  1  1  0  0  0
 27 28  1  0  0  0  0
 29 30  1  1  0  0  0
 29 33  1  0  0  0  0
 31 32  1  6  0  0  0
 31 35  1  0  0  0  0
 33 34  1  0  0  0  0
 33 37  1  6  0  0  0
 35 36  1  6  0  0  0
 37 38  1  0  0  0  0
M  END
>  <CHROM.1>
-136.79944526,79.08207668,-179.04641519,171.32572862,-179.24272263,-92.00940695
81.39050224,79.70644426,-177.89073976,-78.03695175,66.35228035,2.83725966
35.17320752,-2.45415218,-0.37095410,-0.21029099,0.45488023

>  <Name>
1nta_lig

>  <RI>
0

>  <Rbt.Current_Directory>
/home/itssahil/PROJECTS/Mol_Feturizer/New_Systems/rnas/1nta

>  <Rbt.Executable>
rbdock ($Id: //depot/dev/client3/rdock/2013.1/src/exe/rbdock.cxx#4 $)

>  <Rbt.Library>
libRbt.so (2013.1, Build901 2013/11/27)

>  <Rbt.Parameter_File>
/export/apps/rDock/src/rDock_2013.1_src/data/scripts/dock_solv.prm

>  <Rbt.Receptor>
prm/pocket_docking_5.prm

>  <SCORE>
-34.82

>  <SCORE.INTER>
-12.1991

>  <SCORE.INTER.CONST>
1

>  <SCORE.INTER.POLAR>
-1.8986

>  <SCORE.INTER.ROT>
11

>  <SCORE.INTER.SOLV>
24.2952

>  <SCORE.INTER.VDW>
-20.8358

>  <SCORE.INTER.norm>
-0.304977

>  <SCORE.INTRA>
-22.6209

>  <SCORE.INTRA.DIHEDRAL>
-13.384

>  <SCORE.INTRA.DIHEDRAL.0>
19.0336

>  <SCORE.INTRA.POLAR>
0

>  <SCORE.INTRA.POLAR.0>
0

>  <SCORE.INTRA.REPUL>
0.015497

>  <SCORE.INTRA.REPUL.0>
0

>  <SCORE.INTRA.SOLV>
-3.59514

>  <SCORE.INTRA.SOLV.lig_0>
-97.5861

>  <SCORE.INTRA.VDW>
-14.2088

>  <SCORE.INTRA.VDW.0>
11.7669

>  <SCORE.INTRA.norm>
-0.565523

>  <SCORE.RESTR>
0

>  <SCORE.RESTR.CAVITY>
0

>  <SCORE.RESTR.norm>
0

>  <SCORE.SYSTEM>
0

>  <SCORE.SYSTEM.CONST>
0

>  <SCORE.SYSTEM.DIHEDRAL>
0

>  <SCORE.SYSTEM.SOLV>
0

>  <SCORE.SYSTEM.norm>
0

>  <SCORE.heavy>
40

>  <SCORE.norm>
-0.8705

>  <RMSD>
3.020

$$$$
1nta_lig
 OpenBabel11021811403D
libRbt.so/2013.1/901 2013/11/27
 40 42  0  0  0  0  0  0  0  0999 V2000
    9.6801   32.3970   -2.3386 C   0  0  0  0  0  0  0  0  0  0  0  0
   10.1294   31.7927   -3.3744 N   0  0  0  0  0  0  0  0  0  0  0  0
    0.8166   36.6288   -4.2343 C   0  0  0  0  0  0  0  0  0  0  0  0
    0.7053   37.7772   -3.8654 O   0  0  0  0  0  0  0  0  0  0  0  0
    4.1167   33.6546    0.1731 C   0  0  0  0  0  0  0  0  0  0  0  0
    4.9825   32.9963    0.8988 N   0  0  0  0  0  0  0  0  0  0  0  0
   -0.3339   33.5619   -4.8103 C   0  0  0  0  0  0  0  0  0  0  0  0
   -2.1270   37.2160    0.3444 C   0  0  0  0  0  0  0  0  0  0  0  0
    7.3747   32.9244   -2.4251 C   0  0  2  0  0  0  0  0  0  0  0  0
    8.4803   32.0129   -1.9293 N   0  0  0  0  0  0  0  0  0  0  0  0
    2.2569   34.1045   -2.3846 C   0  0  2  0  0  0  0  0  0  0  0  0
    0.8452   36.9973   -0.7764 C   0  0  1  0  0  0  0  0  0  0  0  0
    1.1923   35.6779   -1.0134 O   0  0  0  0  0  0  0  0  0  0  0  0
    6.4603   33.3320   -1.2543 C   0  0  1  0  0  0  0  0  0  0  0  0
    7.2406   34.0651   -0.3589 O   0  0  0  0  0  0  0  0  0  0  0  0
    1.5945   35.4720   -2.2564 C   0  0  2  0  0  0  0  0  0  0  0  0
    0.1765   37.2621    0.5546 C   0  0  1  0  0  0  0  0  0  0  0  0
   -0.9594   36.4144    0.6700 N   0  0  0  0  0  0  0  0  0  0  0  0
    5.3063   34.2386   -1.7029 C   0  0  2  0  0  0  0  0  0  0  0  0
    4.4022   34.6470   -0.6012 N   0  0  0  0  0  0  0  0  0  0  0  0
    0.6268   35.4203   -3.3572 C   0  0  1  0  0  0  0  0  0  0  0  0
   -0.6768   35.3785   -2.7735 O   0  0  0  0  0  0  0  0  0  0  0  0
    1.0412   37.0027    1.6087 C   0  0  2  0  0  0  0  0  0  0  0  0
    0.4684   37.5441    2.7723 O   0  0  0  0  0  0  0  0  0  0  0  0
    4.5029   33.4923   -2.7563 C   0  0  1  0  0  0  0  0  0  0  0  0
    3.4397   34.3362   -3.1700 O   0  0  0  0  0  0  0  0  0  0  0  0
    0.8381   34.1786   -4.1116 C   0  0  1  0  0  0  0  0  0  0  0  0
    1.4080   33.2891   -3.1592 O   0  0  0  0  0  0  0  0  0  0  0  0
    2.3792   37.6480    1.3601 C   0  0  1  0  0  0  0  0  0  0  0  0
    3.2934   37.1761    2.3056 O   0  0  0  0  0  0  0  0  0  0  0  0
    5.4131   33.1180   -3.9605 C   0  0  2  0  0  0  0  0  0  0  0  0
    4.6399   32.4287   -4.9415 O   0  0  0  0  0  0  0  0  0  0  0  0
    2.8741   37.2759    0.0040 C   0  0  1  0  0  0  0  0  0  0  0  0
    1.9544   37.7558   -0.9338 O   0  0  0  0  0  0  0  0  0  0  0  0
    6.5526   32.2004   -3.4700 C   0  0  1  0  0  0  0  0  0  0  0  0
    7.4052   31.8421   -4.5697 O   0  0  0  0  0  0  0  0  0  0  0  0
    4.2350   37.9346   -0.2964 C   0  0  0  0  0  0  0  0  0  0  0  0
    5.2391   37.3194    0.5026 O   0  0  0  0  0  0  0  0  0  0  0  0
   10.3452   33.3215   -1.7342 N   0  0  0  0  0  0  0  0  0  0  0  0
    2.8892   33.3087    0.1831 N   0  0  0  0  0  0  0  0  0  0  0  0
  1  2  1  0  0  0  0
  1 39  1  0  0  0  0
  3  4  1  0  0  0  0
  5  6  1  0  0  0  0
  5 40  1  0  0  0  0
  9 10  1  1  0  0  0
  9 14  1  0  0  0  0
  9 35  1  0  0  0  0
 10  1  1  0  0  0  0
 11 16  1  0  0  0  0
 11 28  1  0  0  0  0
 11 26  1  6  0  0  0
 12 17  1  0  0  0  0
 12 34  1  0  0  0  0
 12 13  1  1  0  0  0
 14 15  1  1  0  0  0
 14 19  1  0  0  0  0
 16 13  1  1  0  0  0
 16 21  1  0  0  0  0
 17 18  1  1  0  0  0
 17 23  1  0  0  0  0
 18  8  1  0  0  0  0
 19 20  1  1  0  0  0
 19 25  1  0  0  0  0
 20  5  1  0  0  0  0
 21  3  1  6  0  0  0
 21 22  1  0  0  0  0
 21 27  1  0  0  0  0
 23 24  1  1  0  0  0
 23 29  1  0  0  0  0
 25 26  1  6  0  0  0
 25 31  1  0  0  0  0
 27  7  1  1  0  0  0
 27 28  1  0  0  0  0
 29 30  1  1  0  0  0
 29 33  1  0  0  0  0
 31 32  1  6  0  0  0
 31 35  1  0  0  0  0
 33 34  1  0  0  0  0
 33 37  1  6  0  0  0
 35 36  1  6  0  0  0
 37 38  1  0  0  0  0
M  END
>  <CHROM.1>
-130.55690263,-97.52968993,145.33284089,170.94164078,167.17915198,-100.19272118
-43.92851761,63.34241744,-59.98911643,-91.59927981,70.87646552,3.49334227
34.90470071,-1.52998649,-0.46548138,-0.32402113,1.04211485

>  <Name>
1nta_lig

>  <RI>
0

>  <Rbt.Current_Directory>
/home/itssahil/PROJECTS/Mol_Feturizer/New_Systems/rnas/1nta

>  <Rbt.Executable>
rbdock ($Id: //depot/dev/client3/rdock/2013.1/src/exe/rbdock.cxx#4 $)

>  <Rbt.Library>
libRbt.so (2013.1, Build901 2013/11/27)

>  <Rbt.Parameter_File>
/export/apps/rDock/src/rDock_2013.1_src/data/scripts/dock_solv.prm

>  <Rbt.Receptor>
prm/pocket_docking_4.prm

>  <SCORE>
-25.7392

>  <SCORE.INTER>
-8.58352

>  <SCORE.INTER.CONST>
1

>  <SCORE.INTER.POLAR>
-1.36674

>  <SCORE.INTER.ROT>
11

>  <SCORE.INTER.SOLV>
26.6536

>  <SCORE.INTER.VDW>
-20.9844

>  <SCORE.INTER.norm>
-0.214588

>  <SCORE.INTRA>
-17.1556

>  <SCORE.INTRA.DIHEDRAL>
-5.43687

>  <SCORE.INTRA.DIHEDRAL.0>
19.0336

>  <SCORE.INTRA.POLAR>
0

>  <SCORE.INTRA.POLAR.0>
0

>  <SCORE.INTRA.REPUL>
0

>  <SCORE.INTRA.REPUL.0>
0

>  <SCORE.INTRA.SOLV>
2.87017

>  <SCORE.INTRA.SOLV.lig_0>
-97.5861

>  <SCORE.INTRA.VDW>
-15.8723

>  <SCORE.INTRA.VDW.0>
11.7669

>  <SCORE.INTRA.norm>
-0.428891

>  <SCORE.RESTR>
0

>  <SCORE.RESTR.CAVITY>
0

>  <SCORE.RESTR.norm>
0

>  <SCORE.SYSTEM>
0

>  <SCORE.SYSTEM.CONST>
0

>  <SCORE.SYSTEM.DIHEDRAL>
0

>  <SCORE.SYSTEM.SOLV>
0

>  <SCORE.SYSTEM.norm>
0

>  <SCORE.heavy>
40

>  <SCORE.norm>
-0.643479

>  <RMSD>
3.144

$$$$
1nta_lig
 OpenBabel11021811403D
libRbt.so/2013.1/901 2013/11/27
 40 42  0  0  0  0  0  0  0  0999 V2000
    6.5164   32.6224   -2.3116 C   0  0  0  0  0  0  0  0  0  0  0  0
    6.1214   31.8517   -3.2551 N   0  0  0  0  0  0  0  0  0  0  0  0
   -0.5573   39.5849   -1.3591 C   0  0  0  0  0  0  0  0  0  0  0  0
    0.5902   39.9042   -1.5794 O   0  0  0  0  0  0  0  0  0  0  0  0
    4.5609   37.8867    0.8235 C   0  0  0  0  0  0  0  0  0  0  0  0
    4.2702   39.0432    0.2872 N   0  0  0  0  0  0  0  0  0  0  0  0
   -1.6023   37.2247   -3.4564 C   0  0  0  0  0  0  0  0  0  0  0  0
    0.3714   39.9681    3.4431 C   0  0  0  0  0  0  0  0  0  0  0  0
    4.7599   33.9813   -1.4940 C   0  0  2  0  0  0  0  0  0  0  0  0
    5.6653   32.7793   -1.3088 N   0  0  0  0  0  0  0  0  0  0  0  0
    0.1976   36.3411   -0.4781 C   0  0  2  0  0  0  0  0  0  0  0  0
   -0.3977   37.2062    2.2702 C   0  0  1  0  0  0  0  0  0  0  0  0
   -1.1598   37.3764    1.1266 O   0  0  0  0  0  0  0  0  0  0  0  0
    4.7320   34.8260   -0.2061 C   0  0  1  0  0  0  0  0  0  0  0  0
    6.0273   35.3025    0.0013 O   0  0  0  0  0  0  0  0  0  0  0  0
   -0.4242   37.6268    0.0564 C   0  0  2  0  0  0  0  0  0  0  0  0
   -0.8495   38.0032    3.4742 C   0  0  1  0  0  0  0  0  0  0  0  0
   -0.9143   39.3769    3.1124 N   0  0  0  0  0  0  0  0  0  0  0  0
    3.8102   36.0467   -0.3282 C   0  0  2  0  0  0  0  0  0  0  0  0
    3.7554   36.8809    0.8962 N   0  0  0  0  0  0  0  0  0  0  0  0
   -1.0349   38.1713   -1.1608 C   0  0  1  0  0  0  0  0  0  0  0  0
   -2.4521   38.1009   -0.9914 O   0  0  0  0  0  0  0  0  0  0  0  0
   -2.1028   37.5910    3.9047 C   0  0  2  0  0  0  0  0  0  0  0  0
   -2.3226   38.1522    5.1743 O   0  0  0  0  0  0  0  0  0  0  0  0
    2.4111   35.5498   -0.6559 C   0  0  1  0  0  0  0  0  0  0  0  0
    1.5640   36.6825   -0.7711 O   0  0  0  0  0  0  0  0  0  0  0  0
   -0.6600   37.3200   -2.2967 C   0  0  1  0  0  0  0  0  0  0  0  0
   -0.4209   36.0468   -1.7095 O   0  0  0  0  0  0  0  0  0  0  0  0
   -2.1555   36.0890    4.0032 C   0  0  1  0  0  0  0  0  0  0  0  0
   -3.4808   35.6933    4.2016 O   0  0  0  0  0  0  0  0  0  0  0  0
    2.4273   34.7338   -1.9797 C   0  0  2  0  0  0  0  0  0  0  0  0
    1.1055   34.2856   -2.2753 O   0  0  0  0  0  0  0  0  0  0  0  0
   -1.6715   35.4831    2.7299 C   0  0  1  0  0  0  0  0  0  0  0  0
   -0.3443   35.8822    2.5434 O   0  0  0  0  0  0  0  0  0  0  0  0
    3.3559   33.5128   -1.8123 C   0  0  1  0  0  0  0  0  0  0  0  0
    3.3836   32.7444   -3.0262 O   0  0  0  0  0  0  0  0  0  0  0  0
   -1.6914   33.9433    2.7988 C   0  0  0  0  0  0  0  0  0  0  0  0
   -0.9175   33.5147    3.9135 O   0  0  0  0  0  0  0  0  0  0  0  0
    7.6626   33.2122   -2.3343 N   0  0  0  0  0  0  0  0  0  0  0  0
    5.7256   37.6860    1.3029 N   0  0  0  0  0  0  0  0  0  0  0  0
  1  2  1  0  0  0  0
  1 39  1  0  0  0  0
  3  4  1  0  0  0  0
  5  6  1  0  0  0  0
  5 40  1  0  0  0  0
  9 10  1  1  0  0  0
  9 14  1  0  0  0  0
  9 35  1  0  0  0  0
 10  1  1  0  0  0  0
 11 16  1  0  0  0  0
 11 28  1  0  0  0  0
 11 26  1  6  0  0  0
 12 17  1  0  0  0  0
 12 34  1  0  0  0  0
 12 13  1  6  0  0  0
 14 15  1  6  0  0  0
 14 19  1  0  0  0  0
 16 13  1  1  0  0  0
 16 21  1  0  0  0  0
 17 18  1  6  0  0  0
 17 23  1  0  0  0  0
 18  8  1  0  0  0  0
 19 20  1  1  0  0  0
 19 25  1  0  0  0  0
 20  5  1  0  0  0  0
 21  3  1  6  0  0  0
 21 22  1  0  0  0  0
 21 27  1  0  0  0  0
 23 24  1  1  0  0  0
 23 29  1  0  0  0  0
 25 26  1  6  0  0  0
 25 31  1  0  0  0  0
 27  7  1  6  0  0  0
 27 28  1  0  0  0  0
 29 30  1  6  0  0  0
 29 33  1  0  0  0  0
 31 32  1  1  0  0  0
 31 35  1  0  0  0  0
 33 34  1  0  0  0  0
 33 37  1  1  0  0  0
 35 36  1  6  0  0  0
 37 38  1  0  0  0  0
M  END
>  <CHROM.1>
-131.76239144,-92.54555150,151.88283943,130.83847098,78.40231265,-92.33079658
96.78622937,86.65360656,64.63543266,-153.88932298,-56.18250115,1.29116674
36.21251297,0.29512171,-0.36381977,-0.58700401,1.87654051

>  <Name>
1nta_lig

>  <RI>
0

>  <Rbt.Current_Directory>
/home/itssahil/PROJECTS/Mol_Feturizer/New_Systems/rnas/1nta

>  <Rbt.Executable>
rbdock ($Id: //depot/dev/client3/rdock/2013.1/src/exe/rbdock.cxx#4 $)

>  <Rbt.Library>
libRbt.so (2013.1, Build901 2013/11/27)

>  <Rbt.Parameter_File>
/export/apps/rDock/src/rDock_2013.1_src/data/scripts/dock_solv.prm

>  <Rbt.Receptor>
prm/pocket_docking_4.prm

>  <SCORE>
-18.0683

>  <SCORE.INTER>
0.96583

>  <SCORE.INTER.CONST>
1

>  <SCORE.INTER.POLAR>
-1.1632

>  <SCORE.INTER.ROT>
11

>  <SCORE.INTER.SOLV>
17.9222

>  <SCORE.INTER.VDW>
-12.3862

>  <SCORE.INTER.norm>
0.0241458

>  <SCORE.INTRA>
-19.0341

>  <SCORE.INTRA.DIHEDRAL>
-0.885448

>  <SCORE.INTRA.DIHEDRAL.0>
19.0336

>  <SCORE.INTRA.POLAR>
0

>  <SCORE.INTRA.POLAR.0>
0

>  <SCORE.INTRA.REPUL>
0.0161845

>  <SCORE.INTRA.REPUL.0>
0

>  <SCORE.INTRA.SOLV>
-4.96389

>  <SCORE.INTRA.SOLV.lig_0>
-97.5861

>  <SCORE.INTRA.VDW>
-16.1904

>  <SCORE.INTRA.VDW.0>
11.7669

>  <SCORE.INTRA.norm>
-0.475853

>  <SCORE.RESTR>
0

>  <SCORE.RESTR.CAVITY>
0

>  <SCORE.RESTR.norm>
0

>  <SCORE.SYSTEM>
0

>  <SCORE.SYSTEM.CONST>
0

>  <SCORE.SYSTEM.DIHEDRAL>
0

>  <SCORE.SYSTEM.SOLV>
0

>  <SCORE.SYSTEM.norm>
0

>  <SCORE.heavy>
40

>  <SCORE.norm>
-0.451707

>  <RMSD>
3.361

$$$$
1nta_lig
 OpenBabel11021811403D
libRbt.so/2013.1/901 2013/11/27
 40 42  0  0  0  0  0  0  0  0999 V2000
    8.5739   35.0593    0.3784 C   0  0  0  0  0  0  0  0  0  0  0  0
    9.1633   36.1634    0.6499 N   0  0  0  0  0  0  0  0  0  0  0  0
   -0.6107   38.6597   -1.8769 C   0  0  0  0  0  0  0  0  0  0  0  0
   -1.5165   39.0329   -1.1645 O   0  0  0  0  0  0  0  0  0  0  0  0
    3.2843   39.2421    0.8402 C   0  0  0  0  0  0  0  0  0  0  0  0
    3.9946   39.8046   -0.1025 N   0  0  0  0  0  0  0  0  0  0  0  0
    0.6566   37.1236   -4.5407 C   0  0  0  0  0  0  0  0  0  0  0  0
   -4.2928   34.9181   -1.8430 C   0  0  0  0  0  0  0  0  0  0  0  0
    6.2723   35.5874    0.2222 C   0  0  2  0  0  0  0  0  0  0  0  0
    7.3958   34.8837    0.9580 N   0  0  0  0  0  0  0  0  0  0  0  0
    1.3660   35.9119   -1.2363 C   0  0  2  0  0  0  0  0  0  0  0  0
   -2.0461   36.1266   -0.0772 C   0  0  1  0  0  0  0  0  0  0  0  0
   -0.8193   35.6035   -0.4500 O   0  0  0  0  0  0  0  0  0  0  0  0
    5.4997   36.5047    1.1890 C   0  0  1  0  0  0  0  0  0  0  0  0
    6.3924   37.4831    1.6293 O   0  0  0  0  0  0  0  0  0  0  0  0
    0.0056   36.5240   -0.9205 C   0  0  2  0  0  0  0  0  0  0  0  0
   -3.1409   35.1085    0.1543 C   0  0  1  0  0  0  0  0  0  0  0  0
   -3.2698   34.3056   -1.0122 N   0  0  0  0  0  0  0  0  0  0  0  0
    4.3329   37.2268    0.5020 C   0  0  2  0  0  0  0  0  0  0  0  0
    3.5634   38.1157    1.4052 N   0  0  0  0  0  0  0  0  0  0  0  0
   -0.2884   37.2204   -2.1773 C   0  0  1  0  0  0  0  0  0  0  0  0
   -1.3847   36.5403   -2.7918 O   0  0  0  0  0  0  0  0  0  0  0  0
   -2.8419   34.2897    1.2342 C   0  0  2  0  0  0  0  0  0  0  0  0
   -4.0100   33.5839    1.5697 O   0  0  0  0  0  0  0  0  0  0  0  0
    3.4002   36.1731   -0.0739 C   0  0  1  0  0  0  0  0  0  0  0  0
    2.3254   36.8461   -0.7108 O   0  0  0  0  0  0  0  0  0  0  0  0
    0.8796   37.1111   -3.0602 C   0  0  1  0  0  0  0  0  0  0  0  0
    1.5213   35.9144   -2.6368 O   0  0  0  0  0  0  0  0  0  0  0  0
   -2.3985   35.1167    2.4123 C   0  0  1  0  0  0  0  0  0  0  0  0
   -1.8788   34.2678    3.3930 O   0  0  0  0  0  0  0  0  0  0  0  0
    4.1660   35.2727   -1.0846 C   0  0  2  0  0  0  0  0  0  0  0  0
    3.2727   34.2983   -1.6212 O   0  0  0  0  0  0  0  0  0  0  0  0
   -1.3228   36.0587    1.9905 C   0  0  1  0  0  0  0  0  0  0  0  0
   -1.8543   36.9052    1.0126 O   0  0  0  0  0  0  0  0  0  0  0  0
    5.3225   34.5588   -0.3538 C   0  0  1  0  0  0  0  0  0  0  0  0
    6.0426   33.7200   -1.2717 O   0  0  0  0  0  0  0  0  0  0  0  0
   -0.8554   36.9388    3.1667 C   0  0  0  0  0  0  0  0  0  0  0  0
   -1.9532   37.7124    3.6373 O   0  0  0  0  0  0  0  0  0  0  0  0
    9.0908   34.1729   -0.4023 N   0  0  0  0  0  0  0  0  0  0  0  0
    2.2407   39.8275    1.2813 N   0  0  0  0  0  0  0  0  0  0  0  0
  1  2  1  0  0  0  0
  1 39  1  0  0  0  0
  3  4  1  0  0  0  0
  5  6  1  0  0  0  0
  5 40  1  0  0  0  0
  9 10  1  1  0  0  0
  9 14  1  0  0  0  0
  9 35  1  0  0  0  0
 10  1  1  0  0  0  0
 11 16  1  0  0  0  0
 11 28  1  0  0  0  0
 11 26  1  1  0  0  0
 12 17  1  0  0  0  0
 12 34  1  0  0  0  0
 12 13  1  1  0  0  0
 14 15  1  6  0  0  0
 14 19  1  0  0  0  0
 16 13  1  6  0  0  0
 16 21  1  0  0  0  0
 17 18  1  6  0  0  0
 17 23  1  0  0  0  0
 18  8  1  0  0  0  0
 19 20  1  1  0  0  0
 19 25  1  0  0  0  0
 20  5  1  0  0  0  0
 21  3  1  1  0  0  0
 21 22  1  0  0  0  0
 21 27  1  0  0  0  0
 23 24  1  1  0  0  0
 23 29  1  0  0  0  0
 25 26  1  6  0  0  0
 25 31  1  0  0  0  0
 27  7  1  6  0  0  0
 27 28  1  0  0  0  0
 29 30  1  1  0  0  0
 29 33  1  0  0  0  0
 31 32  1  1  0  0  0
 31 35  1  0  0  0  0
 33 34  1  0  0  0  0
 33 37  1  1  0  0  0
 35 36  1  6  0  0  0
 37 38  1  0  0  0  0
M  END
>  <CHROM.1>
-126.00237520,81.56777454,138.99094012,166.01537711,176.58411287,-92.78300661
137.02052839,-27.59066209,-59.43573738,-177.62846588,-61.01762113,1.54517124
36.24008193,-0.04935766,-0.01468072,0.00656613,1.60371597

>  <Name>
1nta_lig

>  <RI>
0

>  <Rbt.Current_Directory>
/home/itssahil/PROJECTS/Mol_Feturizer/New_Systems/rnas/1nta

>  <Rbt.Executable>
rbdock ($Id: //depot/dev/client3/rdock/2013.1/src/exe/rbdock.cxx#4 $)

>  <Rbt.Library>
libRbt.so (2013.1, Build901 2013/11/27)

>  <Rbt.Parameter_File>
/export/apps/rDock/src/rDock_2013.1_src/data/scripts/dock_solv.prm

>  <Rbt.Receptor>
prm/pocket_docking_4.prm

>  <SCORE>
-19.0898

>  <SCORE.INTER>
1.33168

>  <SCORE.INTER.CONST>
1

>  <SCORE.INTER.POLAR>
-1.24809

>  <SCORE.INTER.ROT>
11

>  <SCORE.INTER.SOLV>
23.1725

>  <SCORE.INTER.VDW>
-13.6094

>  <SCORE.INTER.norm>
0.0332921

>  <SCORE.INTRA>
-20.4215

>  <SCORE.INTRA.DIHEDRAL>
-8.31947

>  <SCORE.INTRA.DIHEDRAL.0>
19.0336

>  <SCORE.INTRA.POLAR>
0

>  <SCORE.INTRA.POLAR.0>
0

>  <SCORE.INTRA.REPUL>
0

>  <SCORE.INTRA.REPUL.0>
0

>  <SCORE.INTRA.SOLV>
-4.55724

>  <SCORE.INTRA.SOLV.lig_0>
-97.5861

>  <SCORE.INTRA.VDW>
-13.9832

>  <SCORE.INTRA.VDW.0>
11.7669

>  <SCORE.INTRA.norm>
-0.510538

>  <SCORE.RESTR>
0

>  <SCORE.RESTR.CAVITY>
0

>  <SCORE.RESTR.norm>
0

>  <SCORE.SYSTEM>
0

>  <SCORE.SYSTEM.CONST>
0

>  <SCORE.SYSTEM.DIHEDRAL>
0

>  <SCORE.SYSTEM.SOLV>
0

>  <SCORE.SYSTEM.norm>
0

>  <SCORE.heavy>
40

>  <SCORE.norm>
-0.477246

>  <RMSD>
3.451

$$$$
1nta_lig
 OpenBabel11021811403D
libRbt.so/2013.1/901 2013/11/27
 40 42  0  0  0  0  0  0  0  0999 V2000
    6.2620   32.3881   -2.2132 C   0  0  0  0  0  0  0  0  0  0  0  0
    7.1205   32.9100   -1.4189 N   0  0  0  0  0  0  0  0  0  0  0  0
   -0.2784   39.8875   -1.9692 C   0  0  0  0  0  0  0  0  0  0  0  0
    0.9080   40.0996   -2.0912 O   0  0  0  0  0  0  0  0  0  0  0  0
    3.6857   37.7704    0.3516 C   0  0  0  0  0  0  0  0  0  0  0  0
    2.8534   38.6910   -0.0602 N   0  0  0  0  0  0  0  0  0  0  0  0
   -1.0889   37.9119   -4.5190 C   0  0  0  0  0  0  0  0  0  0  0  0
   -2.7459   39.2026    3.5937 C   0  0  0  0  0  0  0  0  0  0  0  0
    4.2862   33.6641   -1.9515 C   0  0  2  0  0  0  0  0  0  0  0  0
    5.0171   32.3492   -1.7623 N   0  0  0  0  0  0  0  0  0  0  0  0
   -0.0474   36.4999   -1.3866 C   0  0  2  0  0  0  0  0  0  0  0  0
   -1.1261   37.3159    1.3271 C   0  0  1  0  0  0  0  0  0  0  0  0
   -1.6016   37.5161    0.0421 O   0  0  0  0  0  0  0  0  0  0  0  0
    4.2232   34.4311   -0.6170 C   0  0  1  0  0  0  0  0  0  0  0  0
    5.5369   34.7284   -0.2512 O   0  0  0  0  0  0  0  0  0  0  0  0
   -0.6375   37.7875   -0.8217 C   0  0  2  0  0  0  0  0  0  0  0  0
   -2.1804   37.2956    2.4120 C   0  0  1  0  0  0  0  0  0  0  0  0
   -2.9346   38.4988    2.3363 N   0  0  0  0  0  0  0  0  0  0  0  0
    3.4718   35.7630   -0.7439 C   0  0  2  0  0  0  0  0  0  0  0  0
    3.3876   36.5266    0.5242 N   0  0  0  0  0  0  0  0  0  0  0  0
   -0.9236   38.5302   -2.0535 C   0  0  1  0  0  0  0  0  0  0  0  0
   -2.3448   38.6167   -2.1754 O   0  0  0  0  0  0  0  0  0  0  0  0
   -3.0379   36.2157    2.2556 C   0  0  2  0  0  0  0  0  0  0  0  0
   -3.7866   36.0918    3.4384 O   0  0  0  0  0  0  0  0  0  0  0  0
    2.0659   35.4654   -1.2407 C   0  0  1  0  0  0  0  0  0  0  0  0
    1.3769   36.7003   -1.3596 O   0  0  0  0  0  0  0  0  0  0  0  0
   -0.4052   37.7660   -3.1949 C   0  0  1  0  0  0  0  0  0  0  0  0
   -0.4206   36.4175   -2.7428 O   0  0  0  0  0  0  0  0  0  0  0  0
   -2.2523   34.9518    2.0232 C   0  0  1  0  0  0  0  0  0  0  0  0
   -3.1300   33.9371    1.6328 O   0  0  0  0  0  0  0  0  0  0  0  0
    2.1246   34.7303   -2.6100 C   0  0  2  0  0  0  0  0  0  0  0  0
    0.7975   34.4695   -3.0641 O   0  0  0  0  0  0  0  0  0  0  0  0
   -1.2662   35.1659    0.9259 C   0  0  1  0  0  0  0  0  0  0  0  0
   -0.3913   36.1798    1.3284 O   0  0  0  0  0  0  0  0  0  0  0  0
    2.8780   33.3947   -2.4376 C   0  0  1  0  0  0  0  0  0  0  0  0
    2.9421   32.6991   -3.6933 O   0  0  0  0  0  0  0  0  0  0  0  0
   -0.4270   33.8981    0.6712 C   0  0  0  0  0  0  0  0  0  0  0  0
    0.5005   33.7290    1.7371 O   0  0  0  0  0  0  0  0  0  0  0  0
    6.5840   31.9258   -3.3728 N   0  0  0  0  0  0  0  0  0  0  0  0
    4.9004   38.0764    0.5907 N   0  0  0  0  0  0  0  0  0  0  0  0
  1  2  1  0  0  0  0
  1 39  1  0  0  0  0
  3  4  1  0  0  0  0
  5  6  1  0  0  0  0
  5 40  1  0  0  0  0
  9 10  1  1  0  0  0
  9 14  1  0  0  0  0
  9 35  1  0  0  0  0
 10  1  1  0  0  0  0
 11 16  1  0  0  0  0
 11 28  1  0  0  0  0
 11 26  1  6  0  0  0
 12 17  1  0  0  0  0
 12 34  1  0  0  0  0
 12 13  1  6  0  0  0
 14 15  1  6  0  0  0
 14 19  1  0  0  0  0
 16 13  1  6  0  0  0
 16 21  1  0  0  0  0
 17 18  1  6  0  0  0
 17 23  1  0  0  0  0
 18  8  1  0  0  0  0
 19 20  1  1  0  0  0
 19 25  1  0  0  0  0
 20  5  1  0  0  0  0
 21  3  1  1  0  0  0
 21 22  1  0  0  0  0
 21 27  1  0  0  0  0
 23 24  1  1  0  0  0
 23 29  1  0  0  0  0
 25 26  1  6  0  0  0
 25 31  1  0  0  0  0
 27  7  1  6  0  0  0
 27 28  1  0  0  0  0
 29 30  1  6  0  0  0
 29 33  1  0  0  0  0
 31 32  1  1  0  0  0
 31 35  1  0  0  0  0
 33 34  1  0  0  0  0
 33 37  1  1  0  0  0
 35 36  1  6  0  0  0
 37 38  1  0  0  0  0
M  END
>  <CHROM.1>
-102.42128996,81.80085016,152.39661311,167.46523636,86.92245397,-118.29782964
133.51438825,83.79997557,74.72539125,-160.78388030,-73.02421392,0.94926935
36.01183785,-0.56183592,0.08274959,-0.58797009,2.40662224

>  <Name>
1nta_lig

>  <RI>
0

>  <Rbt.Current_Directory>
/home/itssahil/PROJECTS/Mol_Feturizer/New_Systems/rnas/1nta

>  <Rbt.Executable>
rbdock ($Id: //depot/dev/client3/rdock/2013.1/src/exe/rbdock.cxx#4 $)

>  <Rbt.Library>
libRbt.so (2013.1, Build901 2013/11/27)

>  <Rbt.Parameter_File>
/export/apps/rDock/src/rDock_2013.1_src/data/scripts/dock_solv.prm

>  <Rbt.Receptor>
prm/pocket_docking_3.prm

>  <SCORE>
-14.5273

>  <SCORE.INTER>
3.6636

>  <SCORE.INTER.CONST>
1

>  <SCORE.INTER.POLAR>
-1.10422

>  <SCORE.INTER.ROT>
11

>  <SCORE.INTER.SOLV>
15.1651

>  <SCORE.INTER.VDW>
-9.86524

>  <SCORE.INTER.norm>
0.0915901

>  <SCORE.INTRA>
-18.5457

>  <SCORE.INTRA.DIHEDRAL>
-4.51501

>  <SCORE.INTRA.DIHEDRAL.0>
19.0336

>  <SCORE.INTRA.POLAR>
0

>  <SCORE.INTRA.POLAR.0>
0

>  <SCORE.INTRA.REPUL>
0

>  <SCORE.INTRA.REPUL.0>
0

>  <SCORE.INTRA.SOLV>
-2.05744

>  <SCORE.INTRA.SOLV.lig_0>
-97.5861

>  <SCORE.INTRA.VDW>
-15.2594

>  <SCORE.INTRA.VDW.0>
11.7669

>  <SCORE.INTRA.norm>
-0.463641

>  <SCORE.RESTR>
0.354722

>  <SCORE.RESTR.CAVITY>
0.354722

>  <SCORE.RESTR.norm>
0.00886804

>  <SCORE.SYSTEM>
0

>  <SCORE.SYSTEM.CONST>
0

>  <SCORE.SYSTEM.DIHEDRAL>
0

>  <SCORE.SYSTEM.SOLV>
0

>  <SCORE.SYSTEM.norm>
0

>  <SCORE.heavy>
40

>  <SCORE.norm>
-0.363183

>  <RMSD>
3.537

$$$$
1nta_lig
 OpenBabel11021811403D
libRbt.so/2013.1/901 2013/11/27
 40 42  0  0  0  0  0  0  0  0999 V2000
    6.5328   32.6405   -2.7799 C   0  0  0  0  0  0  0  0  0  0  0  0
    6.0607   31.8010   -3.6239 N   0  0  0  0  0  0  0  0  0  0  0  0
   -2.1223   37.2834   -1.5109 C   0  0  0  0  0  0  0  0  0  0  0  0
   -1.6180   37.1248   -2.6008 O   0  0  0  0  0  0  0  0  0  0  0  0
    4.3595   37.3901    0.9477 C   0  0  0  0  0  0  0  0  0  0  0  0
    4.4226   38.5513    0.3497 N   0  0  0  0  0  0  0  0  0  0  0  0
   -2.2427   34.4175    0.1724 C   0  0  0  0  0  0  0  0  0  0  0  0
   -2.8810   39.9402    3.3370 C   0  0  0  0  0  0  0  0  0  0  0  0
    4.8031   33.9300   -1.8072 C   0  0  2  0  0  0  0  0  0  0  0  0
    5.8151   32.8082   -1.6792 N   0  0  0  0  0  0  0  0  0  0  0  0
    0.7102   36.4577    0.2677 C   0  0  2  0  0  0  0  0  0  0  0  0
   -1.0766   39.5445    0.8288 C   0  0  1  0  0  0  0  0  0  0  0  0
   -0.2235   38.4706    1.0198 O   0  0  0  0  0  0  0  0  0  0  0  0
    4.6463   34.6573   -0.4584 C   0  0  1  0  0  0  0  0  0  0  0  0
    5.8802   35.2357   -0.1571 O   0  0  0  0  0  0  0  0  0  0  0  0
   -0.2876   37.5875    0.0373 C   0  0  2  0  0  0  0  0  0  0  0  0
   -1.1215   40.5456    1.9621 C   0  0  1  0  0  0  0  0  0  0  0  0
   -1.4403   39.8574    3.1650 N   0  0  0  0  0  0  0  0  0  0  0  0
    3.6140   35.7909   -0.5228 C   0  0  2  0  0  0  0  0  0  0  0  0
    3.4336   36.5106    0.7608 N   0  0  0  0  0  0  0  0  0  0  0  0
   -1.5190   36.8298   -0.2086 C   0  0  1  0  0  0  0  0  0  0  0  0
   -2.3901   37.0663    0.8992 O   0  0  0  0  0  0  0  0  0  0  0  0
    0.1029   41.1804    2.1172 C   0  0  2  0  0  0  0  0  0  0  0  0
   -0.0935   42.2825    2.9667 O   0  0  0  0  0  0  0  0  0  0  0  0
    2.2831   35.1925   -0.9500 C   0  0  1  0  0  0  0  0  0  0  0  0
    1.3334   36.2452   -1.0113 O   0  0  0  0  0  0  0  0  0  0  0  0
   -1.1918   35.3990   -0.2450 C   0  0  1  0  0  0  0  0  0  0  0  0
   -0.0246   35.2915    0.5605 O   0  0  0  0  0  0  0  0  0  0  0  0
    0.6181   41.6581    0.7849 C   0  0  1  0  0  0  0  0  0  0  0  0
    1.9445   42.0717    0.9330 O   0  0  0  0  0  0  0  0  0  0  0  0
    2.4268   34.4955   -2.3328 C   0  0  2  0  0  0  0  0  0  0  0  0
    1.1669   33.9501   -2.7209 O   0  0  0  0  0  0  0  0  0  0  0  0
    0.5836   40.5392   -0.1995 C   0  0  1  0  0  0  0  0  0  0  0  0
   -0.7477   40.1360   -0.3428 O   0  0  0  0  0  0  0  0  0  0  0  0
    3.4643   33.3585   -2.2231 C   0  0  1  0  0  0  0  0  0  0  0  0
    3.6109   32.7006   -3.4922 O   0  0  0  0  0  0  0  0  0  0  0  0
    1.0856   40.9949   -1.5839 C   0  0  0  0  0  0  0  0  0  0  0  0
    2.4672   41.3242   -1.4956 O   0  0  0  0  0  0  0  0  0  0  0  0
    7.6300   33.2855   -2.9856 N   0  0  0  0  0  0  0  0  0  0  0  0
    5.2742   37.0503    1.7687 N   0  0  0  0  0  0  0  0  0  0  0  0
  1  2  1  0  0  0  0
  1 39  1  0  0  0  0
  3  4  1  0  0  0  0
  5  6  1  0  0  0  0
  5 40  1  0  0  0  0
  9 10  1  1  0  0  0
  9 14  1  0  0  0  0
  9 35  1  0  0  0  0
 10  1  1  0  0  0  0
 11 16  1  0  0  0  0
 11 28  1  0  0  0  0
 11 26  1  6  0  0  0
 12 17  1  0  0  0  0
 12 34  1  0  0  0  0
 12 13  1  1  0  0  0
 14 15  1  6  0  0  0
 14 19  1  0  0  0  0
 16 13  1  1  0  0  0
 16 21  1  0  0  0  0
 17 18  1  1  0  0  0
 17 23  1  0  0  0  0
 18  8  1  0  0  0  0
 19 20  1  1  0  0  0
 19 25  1  0  0  0  0
 20  5  1  0  0  0  0
 21  3  1  6  0  0  0
 21 22  1  0  0  0  0
 21 27  1  0  0  0  0
 23 24  1  1  0  0  0
 23 29  1  0  0  0  0
 25 26  1  6  0  0  0
 25 31  1  0  0  0  0
 27  7  1  1  0  0  0
 27 28  1  0  0  0  0
 29 30  1  1  0  0  0
 29 33  1  0  0  0  0
 31 32  1  1  0  0  0
 31 35  1  0  0  0  0
 33 34  1  0  0  0  0
 33 37  1  6  0  0  0
 35 36  1  6  0  0  0
 37 38  1  0  0  0  0
M  END
>  <CHROM.1>
-145.02940555,-91.20177075,-179.06863354,176.02648693,177.66246898,-93.89366451
80.91125552,76.14804970,65.82264721,-87.46957600,66.07658210,1.59138520,37.07126467
-0.30113463,-0.91159022,0.06605817,0.41627177

>  <Name>
1nta_lig

>  <RI>
0

>  <Rbt.Current_Directory>
/home/itssahil/PROJECTS/Mol_Feturizer/New_Systems/rnas/1nta

>  <Rbt.Executable>
rbdock ($Id: //depot/dev/client3/rdock/2013.1/src/exe/rbdock.cxx#4 $)

>  <Rbt.Library>
libRbt.so (2013.1, Build901 2013/11/27)

>  <Rbt.Parameter_File>
/export/apps/rDock/src/rDock_2013.1_src/data/scripts/dock_solv.prm

>  <Rbt.Receptor>
prm/pocket_docking_4.prm

>  <SCORE>
-20.286

>  <SCORE.INTER>
2.36063

>  <SCORE.INTER.CONST>
1

>  <SCORE.INTER.POLAR>
-1.25513

>  <SCORE.INTER.ROT>
11

>  <SCORE.INTER.SOLV>
17.6537

>  <SCORE.INTER.VDW>
-11.0604

>  <SCORE.INTER.norm>
0.0590159

>  <SCORE.INTRA>
-22.6466

>  <SCORE.INTRA.DIHEDRAL>
-12.2016

>  <SCORE.INTRA.DIHEDRAL.0>
19.0336

>  <SCORE.INTRA.POLAR>
0

>  <SCORE.INTRA.POLAR.0>
0

>  <SCORE.INTRA.REPUL>
0.0101364

>  <SCORE.INTRA.REPUL.0>
0

>  <SCORE.INTRA.SOLV>
-3.14316

>  <SCORE.INTRA.SOLV.lig_0>
-97.5861

>  <SCORE.INTRA.VDW>
-15.0249

>  <SCORE.INTRA.VDW.0>
11.7669

>  <SCORE.INTRA.norm>
-0.566165

>  <SCORE.RESTR>
0

>  <SCORE.RESTR.CAVITY>
0

>  <SCORE.RESTR.norm>
0

>  <SCORE.SYSTEM>
0

>  <SCORE.SYSTEM.CONST>
0

>  <SCORE.SYSTEM.DIHEDRAL>
0

>  <SCORE.SYSTEM.SOLV>
0

>  <SCORE.SYSTEM.norm>
0

>  <SCORE.heavy>
40

>  <SCORE.norm>
-0.507149

>  <RMSD>
3.735

$$$$
1nta_lig
 OpenBabel11021811403D
libRbt.so/2013.1/901 2013/11/27
 40 42  0  0  0  0  0  0  0  0999 V2000
    7.2769   32.5377   -2.5765 C   0  0  0  0  0  0  0  0  0  0  0  0
    8.1325   32.2850   -1.6577 N   0  0  0  0  0  0  0  0  0  0  0  0
   -0.4571   35.8596   -3.3831 C   0  0  0  0  0  0  0  0  0  0  0  0
    0.6384   35.6614   -3.8605 O   0  0  0  0  0  0  0  0  0  0  0  0
    0.9075   32.2062   -4.1160 C   0  0  0  0  0  0  0  0  0  0  0  0
    0.3268   31.4730   -3.2023 N   0  0  0  0  0  0  0  0  0  0  0  0
   -3.0783   34.4560   -1.8929 C   0  0  0  0  0  0  0  0  0  0  0  0
   -0.9001   39.9763   -0.9498 C   0  0  0  0  0  0  0  0  0  0  0  0
    5.0521   33.0622   -1.9637 C   0  0  2  0  0  0  0  0  0  0  0  0
    6.4461   33.5379   -2.3233 N   0  0  0  0  0  0  0  0  0  0  0  0
    0.1904   34.2121   -0.4276 C   0  0  2  0  0  0  0  0  0  0  0  0
    1.2449   37.6168   -0.8956 C   0  0  1  0  0  0  0  0  0  0  0  0
    0.7297   36.4874   -0.2820 O   0  0  0  0  0  0  0  0  0  0  0  0
    4.0745   33.3723   -3.1131 C   0  0  1  0  0  0  0  0  0  0  0  0
    4.4971   32.6376   -4.2219 O   0  0  0  0  0  0  0  0  0  0  0  0
    0.4086   35.5392   -1.1462 C   0  0  2  0  0  0  0  0  0  0  0  0
    1.0020   38.9190   -0.1647 C   0  0  1  0  0  0  0  0  0  0  0  0
   -0.3949   39.0612    0.0598 N   0  0  0  0  0  0  0  0  0  0  0  0
    2.6394   32.9326   -2.7937 C   0  0  2  0  0  0  0  0  0  0  0  0
    1.6694   33.2203   -3.8775 N   0  0  0  0  0  0  0  0  0  0  0  0
   -0.8210   35.6351   -1.9398 C   0  0  1  0  0  0  0  0  0  0  0  0
   -1.5877   36.7154   -1.4039 O   0  0  0  0  0  0  0  0  0  0  0  0
    1.6589   38.9360    1.0577 C   0  0  2  0  0  0  0  0  0  0  0  0
    1.6368   40.2578    1.5344 O   0  0  0  0  0  0  0  0  0  0  0  0
    2.1981   33.6484   -1.5269 C   0  0  1  0  0  0  0  0  0  0  0  0
    0.8723   33.2356   -1.2344 O   0  0  0  0  0  0  0  0  0  0  0  0
   -1.5871   34.3939   -1.7724 C   0  0  1  0  0  0  0  0  0  0  0  0
   -1.1840   33.9090   -0.4976 O   0  0  0  0  0  0  0  0  0  0  0  0
    3.0865   38.4852    0.8920 C   0  0  1  0  0  0  0  0  0  0  0  0
    3.6477   38.2819    2.1554 O   0  0  0  0  0  0  0  0  0  0  0  0
    3.1573   33.3024   -0.3527 C   0  0  2  0  0  0  0  0  0  0  0  0
    2.7214   33.9742    0.8280 O   0  0  0  0  0  0  0  0  0  0  0  0
    3.1240   37.1931    0.1494 C   0  0  1  0  0  0  0  0  0  0  0  0
    2.5639   37.4089   -1.1136 O   0  0  0  0  0  0  0  0  0  0  0  0
    4.5847   33.7683   -0.7087 C   0  0  1  0  0  0  0  0  0  0  0  0
    5.4870   33.4580    0.3657 O   0  0  0  0  0  0  0  0  0  0  0  0
    4.5724   36.7079   -0.0582 C   0  0  0  0  0  0  0  0  0  0  0  0
    5.2998   37.6992   -0.7747 O   0  0  0  0  0  0  0  0  0  0  0  0
    7.2208   31.8633   -3.6739 N   0  0  0  0  0  0  0  0  0  0  0  0
    0.7551   31.9191   -5.3492 N   0  0  0  0  0  0  0  0  0  0  0  0
  1  2  1  0  0  0  0
  1 39  1  0  0  0  0
  3  4  1  0  0  0  0
  5  6  1  0  0  0  0
  5 40  1  0  0  0  0
  9 10  1  6  0  0  0
  9 14  1  0  0  0  0
  9 35  1  0  0  0  0
 10  1  1  0  0  0  0
 11 16  1  0  0  0  0
 11 28  1  0  0  0  0
 11 26  1  6  0  0  0
 12 17  1  0  0  0  0
 12 34  1  0  0  0  0
 12 13  1  1  0  0  0
 14 15  1  6  0  0  0
 14 19  1  0  0  0  0
 16 13  1  1  0  0  0
 16 21  1  0  0  0  0
 17 18  1  1  0  0  0
 17 23  1  0  0  0  0
 18  8  1  0  0  0  0
 19 20  1  6  0  0  0
 19 25  1  0  0  0  0
 20  5  1  0  0  0  0
 21  3  1  6  0  0  0
 21 22  1  0  0  0  0
 21 27  1  0  0  0  0
 23 24  1  6  0  0  0
 23 29  1  0  0  0  0
 25 26  1  1  0  0  0
 25 31  1  0  0  0  0
 27  7  1  1  0  0  0
 27 28  1  0  0  0  0
 29 30  1  1  0  0  0
 29 33  1  0  0  0  0
 31 32  1  1  0  0  0
 31 35  1  0  0  0  0
 33 34  1  0  0  0  0
 33 37  1  6  0  0  0
 35 36  1  1  0  0  0
 37 38  1  0  0  0  0
M  END
>  <CHROM.1>
-108.50899878,-105.05135385,50.13457956,150.92562836,165.53514580,-100.68132179
133.91453163,44.75663989,16.84726574,-156.45431591,-58.50308325,2.18041820
35.18380574,-1.37945108,-0.86894280,-0.17439136,0.56965461

>  <Name>
1nta_lig

>  <RI>
0

>  <Rbt.Current_Directory>
/home/itssahil/PROJECTS/Mol_Feturizer/New_Systems/rnas/1nta

>  <Rbt.Executable>
rbdock ($Id: //depot/dev/client3/rdock/2013.1/src/exe/rbdock.cxx#4 $)

>  <Rbt.Library>
libRbt.so (2013.1, Build901 2013/11/27)

>  <Rbt.Parameter_File>
/export/apps/rDock/src/rDock_2013.1_src/data/scripts/dock_solv.prm

>  <Rbt.Receptor>
prm/pocket_docking_3.prm

>  <SCORE>
-19.3397

>  <SCORE.INTER>
-1.00889

>  <SCORE.INTER.CONST>
1

>  <SCORE.INTER.POLAR>
-0.622813

>  <SCORE.INTER.ROT>
11

>  <SCORE.INTER.SOLV>
25.1549

>  <SCORE.INTER.VDW>
-17.9148

>  <SCORE.INTER.norm>
-0.0252223

>  <SCORE.INTRA>
-18.3716

>  <SCORE.INTRA.DIHEDRAL>
-3.19035

>  <SCORE.INTRA.DIHEDRAL.0>
19.0336

>  <SCORE.INTRA.POLAR>
0

>  <SCORE.INTRA.POLAR.0>
0

>  <SCORE.INTRA.REPUL>
0.00929825

>  <SCORE.INTRA.REPUL.0>
0

>  <SCORE.INTRA.SOLV>
-0.469863

>  <SCORE.INTRA.SOLV.lig_0>
-97.5861

>  <SCORE.INTRA.VDW>
-16.588

>  <SCORE.INTRA.VDW.0>
11.7669

>  <SCORE.INTRA.norm>
-0.459291

>  <SCORE.RESTR>
0.0408286

>  <SCORE.RESTR.CAVITY>
0.0408286

>  <SCORE.RESTR.norm>
0.00102071

>  <SCORE.SYSTEM>
0

>  <SCORE.SYSTEM.CONST>
0

>  <SCORE.SYSTEM.DIHEDRAL>
0

>  <SCORE.SYSTEM.SOLV>
0

>  <SCORE.SYSTEM.norm>
0

>  <SCORE.heavy>
40

>  <SCORE.norm>
-0.483493

>  <RMSD>
4.202

$$$$
1nta_lig
 OpenBabel11021811403D
libRbt.so/2013.1/901 2013/11/27
 40 42  0  0  0  0  0  0  0  0999 V2000
    7.8240   32.4150   -3.1800 C   0  0  0  0  0  0  0  0  0  0  0  0
    7.5026   31.6461   -4.1524 N   0  0  0  0  0  0  0  0  0  0  0  0
   -1.5736   34.2489   -0.0112 C   0  0  0  0  0  0  0  0  0  0  0  0
   -1.3276   33.3174   -0.7453 O   0  0  0  0  0  0  0  0  0  0  0  0
    1.4440   32.5118   -3.5457 C   0  0  0  0  0  0  0  0  0  0  0  0
    1.1537   32.0838   -4.7466 N   0  0  0  0  0  0  0  0  0  0  0  0
   -0.1689   33.9550    2.9891 C   0  0  0  0  0  0  0  0  0  0  0  0
    0.0481   35.5708   -4.3386 C   0  0  0  0  0  0  0  0  0  0  0  0
    5.8186   33.2946   -2.2825 C   0  0  2  0  0  0  0  0  0  0  0  0
    7.1002   33.5181   -3.0614 N   0  0  0  0  0  0  0  0  0  0  0  0
    1.7026   35.2866    0.2296 C   0  0  2  0  0  0  0  0  0  0  0  0
    0.9508   37.4729   -1.5347 C   0  0  1  0  0  0  0  0  0  0  0  0
    0.2860   37.0438   -0.3983 O   0  0  0  0  0  0  0  0  0  0  0  0
    4.5984   33.5521   -3.1868 C   0  0  1  0  0  0  0  0  0  0  0  0
    4.6389   32.6053   -4.2115 O   0  0  0  0  0  0  0  0  0  0  0  0
    0.3249   35.7302   -0.2503 C   0  0  2  0  0  0  0  0  0  0  0  0
    0.1845   37.3198   -2.8301 C   0  0  1  0  0  0  0  0  0  0  0  0
   -0.2162   35.9619   -2.9640 N   0  0  0  0  0  0  0  0  0  0  0  0
    3.2698   33.3631   -2.4425 C   0  0  2  0  0  0  0  0  0  0  0  0
    2.0727   33.6077   -3.2822 N   0  0  0  0  0  0  0  0  0  0  0  0
   -0.5420   35.0609    0.7251 C   0  0  1  0  0  0  0  0  0  0  0  0
   -1.1352   36.0793    1.5332 O   0  0  0  0  0  0  0  0  0  0  0  0
   -0.9451   38.1261   -2.8410 C   0  0  2  0  0  0  0  0  0  0  0  0
   -1.4314   38.1595   -4.1591 O   0  0  0  0  0  0  0  0  0  0  0  0
    3.2524   34.3181   -1.2595 C   0  0  1  0  0  0  0  0  0  0  0  0
    2.0238   34.1368   -0.5731 O   0  0  0  0  0  0  0  0  0  0  0  0
    0.2881   34.2094    1.5862 C   0  0  1  0  0  0  0  0  0  0  0  0
    1.5670   34.8311    1.5562 O   0  0  0  0  0  0  0  0  0  0  0  0
   -0.5964   39.5228   -2.3983 C   0  0  1  0  0  0  0  0  0  0  0  0
   -1.7769   40.2403   -2.1880 O   0  0  0  0  0  0  0  0  0  0  0  0
    4.4586   34.0318   -0.3204 C   0  0  2  0  0  0  0  0  0  0  0  0
    4.4191   34.9298    0.7875 O   0  0  0  0  0  0  0  0  0  0  0  0
    0.1554   39.4709   -1.1120 C   0  0  1  0  0  0  0  0  0  0  0  0
    1.3356   38.7545   -1.3347 O   0  0  0  0  0  0  0  0  0  0  0  0
    5.7722   34.2418   -1.1024 C   0  0  1  0  0  0  0  0  0  0  0  0
    6.9000   33.9827   -0.2505 O   0  0  0  0  0  0  0  0  0  0  0  0
    0.5487   40.8831   -0.6352 C   0  0  0  0  0  0  0  0  0  0  0  0
    1.1889   40.7877    0.6321 O   0  0  0  0  0  0  0  0  0  0  0  0
    8.7897   32.1405   -2.3711 N   0  0  0  0  0  0  0  0  0  0  0  0
    1.0767   31.8376   -2.5273 N   0  0  0  0  0  0  0  0  0  0  0  0
  1  2  1  0  0  0  0
  1 39  1  0  0  0  0
  3  4  1  0  0  0  0
  5  6  1  0  0  0  0
  5 40  1  0  0  0  0
  9 10  1  6  0  0  0
  9 14  1  0  0  0  0
  9 35  1  0  0  0  0
 10  1  1  0  0  0  0
 11 16  1  0  0  0  0
 11 28  1  0  0  0  0
 11 26  1  6  0  0  0
 12 17  1  0  0  0  0
 12 34  1  0  0  0  0
 12 13  1  1  0  0  0
 14 15  1  6  0  0  0
 14 19  1  0  0  0  0
 16 13  1  1  0  0  0
 16 21  1  0  0  0  0
 17 18  1  1  0  0  0
 17 23  1  0  0  0  0
 18  8  1  0  0  0  0
 19 20  1  6  0  0  0
 19 25  1  0  0  0  0
 20  5  1  0  0  0  0
 21  3  1  6  0  0  0
 21 22  1  0  0  0  0
 21 27  1  0  0  0  0
 23 24  1  6  0  0  0
 23 29  1  0  0  0  0
 25 26  1  1  0  0  0
 25 31  1  0  0  0  0
 27  7  1  1  0  0  0
 27 28  1  0  0  0  0
 29 30  1  1  0  0  0
 29 33  1  0  0  0  0
 31 32  1  1  0  0  0
 31 35  1  0  0  0  0
 33 34  1  0  0  0  0
 33 37  1  6  0  0  0
 35 36  1  1  0  0  0
 37 38  1  0  0  0  0
M  END
>  <CHROM.1>
-116.53102753,84.73020211,123.67231665,79.29244513,75.21555829,-135.94612052
109.10317482,-124.73999632,62.44514428,-158.88661385,176.44002221,1.98856700
35.29532615,-1.47499998,-0.26633272,0.65855339,-0.86921249

>  <Name>
1nta_lig

>  <RI>
0

>  <Rbt.Current_Directory>
/home/itssahil/PROJECTS/Mol_Feturizer/New_Systems/rnas/1nta

>  <Rbt.Executable>
rbdock ($Id: //depot/dev/client3/rdock/2013.1/src/exe/rbdock.cxx#4 $)

>  <Rbt.Library>
libRbt.so (2013.1, Build901 2013/11/27)

>  <Rbt.Parameter_File>
/export/apps/rDock/src/rDock_2013.1_src/data/scripts/dock_solv.prm

>  <Rbt.Receptor>
prm/pocket_docking_4.prm

>  <SCORE>
-21.6884

>  <SCORE.INTER>
-2.93433

>  <SCORE.INTER.CONST>
1

>  <SCORE.INTER.POLAR>
-0.766638

>  <SCORE.INTER.ROT>
11

>  <SCORE.INTER.SOLV>
24.6377

>  <SCORE.INTER.VDW>
-18.5467

>  <SCORE.INTER.norm>
-0.0733582

>  <SCORE.INTRA>
-18.7541

>  <SCORE.INTRA.DIHEDRAL>
-2.76117

>  <SCORE.INTRA.DIHEDRAL.0>
19.0336

>  <SCORE.INTRA.POLAR>
0

>  <SCORE.INTRA.POLAR.0>
0

>  <SCORE.INTRA.REPUL>
0

>  <SCORE.INTRA.REPUL.0>
0

>  <SCORE.INTRA.SOLV>
-1.07362

>  <SCORE.INTRA.SOLV.lig_0>
-97.5861

>  <SCORE.INTRA.VDW>
-16.8367

>  <SCORE.INTRA.VDW.0>
11.7669

>  <SCORE.INTRA.norm>
-0.468852

>  <SCORE.RESTR>
0

>  <SCORE.RESTR.CAVITY>
0

>  <SCORE.RESTR.norm>
0

>  <SCORE.SYSTEM>
0

>  <SCORE.SYSTEM.CONST>
0

>  <SCORE.SYSTEM.DIHEDRAL>
0

>  <SCORE.SYSTEM.SOLV>
0

>  <SCORE.SYSTEM.norm>
0

>  <SCORE.heavy>
40

>  <SCORE.norm>
-0.54221

>  <RMSD>
4.228

$$$$
1nta_lig
 OpenBabel11021811403D
libRbt.so/2013.1/901 2013/11/27
 40 42  0  0  0  0  0  0  0  0999 V2000
    7.9244   32.2874   -3.4341 C   0  0  0  0  0  0  0  0  0  0  0  0
    9.0510   32.1134   -2.8504 N   0  0  0  0  0  0  0  0  0  0  0  0
   -1.2315   34.4470    0.0819 C   0  0  0  0  0  0  0  0  0  0  0  0
   -1.9479   35.1141   -0.6316 O   0  0  0  0  0  0  0  0  0  0  0  0
    1.3910   32.7996   -3.1261 C   0  0  0  0  0  0  0  0  0  0  0  0
    0.4482   32.6115   -2.2398 N   0  0  0  0  0  0  0  0  0  0  0  0
   -0.0636   33.5317    3.0584 C   0  0  0  0  0  0  0  0  0  0  0  0
   -0.8489   40.0332    1.6190 C   0  0  0  0  0  0  0  0  0  0  0  0
    6.0252   33.1441   -2.3118 C   0  0  2  0  0  0  0  0  0  0  0  0
    7.2837   33.4026   -3.1170 N   0  0  0  0  0  0  0  0  0  0  0  0
    2.1271   34.9945    0.6188 C   0  0  2  0  0  0  0  0  0  0  0  0
   -0.1305   37.6676   -0.2704 C   0  0  1  0  0  0  0  0  0  0  0  0
    0.9822   36.9971    0.2089 O   0  0  0  0  0  0  0  0  0  0  0  0
    4.7839   33.5672   -3.1199 C   0  0  1  0  0  0  0  0  0  0  0  0
    4.7335   32.7534   -4.2526 O   0  0  0  0  0  0  0  0  0  0  0  0
    0.8479   35.6825    0.1545 C   0  0  2  0  0  0  0  0  0  0  0  0
    0.0049   39.1722   -0.3514 C   0  0  1  0  0  0  0  0  0  0  0  0
    0.3764   39.6653    0.9297 N   0  0  0  0  0  0  0  0  0  0  0  0
    3.4788   33.3493   -2.3426 C   0  0  2  0  0  0  0  0  0  0  0  0
    2.2626   33.7507   -3.0893 N   0  0  0  0  0  0  0  0  0  0  0  0
   -0.1545   34.9980    0.9776 C   0  0  1  0  0  0  0  0  0  0  0  0
   -0.6653   35.9561    1.9067 O   0  0  0  0  0  0  0  0  0  0  0  0
    0.9753   39.5378   -1.2737 C   0  0  2  0  0  0  0  0  0  0  0  0
    0.8395   40.9164   -1.5106 O   0  0  0  0  0  0  0  0  0  0  0  0
    3.5591   34.1507   -1.0529 C   0  0  1  0  0  0  0  0  0  0  0  0
    2.3518   33.9429   -0.3367 O   0  0  0  0  0  0  0  0  0  0  0  0
    0.5080   33.9268    1.7321 C   0  0  1  0  0  0  0  0  0  0  0  0
    1.8537   34.3711    1.8526 O   0  0  0  0  0  0  0  0  0  0  0  0
    0.7825   38.7848   -2.5638 C   0  0  1  0  0  0  0  0  0  0  0  0
    1.8991   38.9876   -3.3790 O   0  0  0  0  0  0  0  0  0  0  0  0
    4.7863   33.6953   -0.2131 C   0  0  2  0  0  0  0  0  0  0  0  0
    4.8385   34.4505    0.9962 O   0  0  0  0  0  0  0  0  0  0  0  0
    0.6665   37.3253   -2.2830 C   0  0  1  0  0  0  0  0  0  0  0  0
   -0.4552   37.1336   -1.4704 O   0  0  0  0  0  0  0  0  0  0  0  0
    6.0759   33.9394   -1.0246 C   0  0  1  0  0  0  0  0  0  0  0  0
    7.2227   33.5253   -0.2642 O   0  0  0  0  0  0  0  0  0  0  0  0
    0.4476   36.5207   -3.5796 C   0  0  0  0  0  0  0  0  0  0  0  0
    1.7114   36.1904   -4.1442 O   0  0  0  0  0  0  0  0  0  0  0  0
    7.4400   31.4349   -4.2711 N   0  0  0  0  0  0  0  0  0  0  0  0
    1.5090   31.9918   -4.1059 N   0  0  0  0  0  0  0  0  0  0  0  0
  1  2  1  0  0  0  0
  1 39  1  0  0  0  0
  3  4  1  0  0  0  0
  5  6  1  0  0  0  0
  5 40  1  0  0  0  0
  9 10  1  6  0  0  0
  9 14  1  0  0  0  0
  9 35  1  0  0  0  0
 10  1  1  0  0  0  0
 11 16  1  0  0  0  0
 11 28  1  0  0  0  0
 11 26  1  6  0  0  0
 12 17  1  0  0  0  0
 12 34  1  0  0  0  0
 12 13  1  6  0  0  0
 14 15  1  6  0  0  0
 14 19  1  0  0  0  0
 16 13  1  1  0  0  0
 16 21  1  0  0  0  0
 17 18  1  1  0  0  0
 17 23  1  0  0  0  0
 18  8  1  0  0  0  0
 19 20  1  6  0  0  0
 19 25  1  0  0  0  0
 20  5  1  0  0  0  0
 21  3  1  6  0  0  0
 21 22  1  0  0  0  0
 21 27  1  0  0  0  0
 23 24  1  6  0  0  0
 23 29  1  0  0  0  0
 25 26  1  1  0  0  0
 25 31  1  0  0  0  0
 27  7  1  1  0  0  0
 27 28  1  0  0  0  0
 29 30  1  6  0  0  0
 29 33  1  0  0  0  0
 31 32  1  1  0  0  0
 31 35  1  0  0  0  0
 33 34  1  0  0  0  0
 33 37  1  6  0  0  0
 35 36  1  1  0  0  0
 37 38  1  0  0  0  0
M  END
>  <CHROM.1>
-114.77685756,-111.04020689,116.40149487,-174.78555898,176.80973683,-93.58302369
127.32161736,89.96580057,-61.51649402,-159.20159006,87.64853971,2.31308067
35.25412898,-1.19182873,-0.27730032,0.68042166,-0.67036103

>  <Name>
1nta_lig

>  <RI>
0

>  <Rbt.Current_Directory>
/home/itssahil/PROJECTS/Mol_Feturizer/New_Systems/rnas/1nta

>  <Rbt.Executable>
rbdock ($Id: //depot/dev/client3/rdock/2013.1/src/exe/rbdock.cxx#4 $)

>  <Rbt.Library>
libRbt.so (2013.1, Build901 2013/11/27)

>  <Rbt.Parameter_File>
/export/apps/rDock/src/rDock_2013.1_src/data/scripts/dock_solv.prm

>  <Rbt.Receptor>
prm/pocket_docking_4.prm

>  <SCORE>
-27.5067

>  <SCORE.INTER>
-8.64786

>  <SCORE.INTER.CONST>
1

>  <SCORE.INTER.POLAR>
-1.6777

>  <SCORE.INTER.ROT>
11

>  <SCORE.INTER.SOLV>
25.4782

>  <SCORE.INTER.VDW>
-19.599

>  <SCORE.INTER.norm>
-0.216197

>  <SCORE.INTRA>
-18.8588

>  <SCORE.INTRA.DIHEDRAL>
-3.36466

>  <SCORE.INTRA.DIHEDRAL.0>
19.0336

>  <SCORE.INTRA.POLAR>
0

>  <SCORE.INTRA.POLAR.0>
0

>  <SCORE.INTRA.REPUL>
0

>  <SCORE.INTRA.REPUL.0>
0

>  <SCORE.INTRA.SOLV>
-0.71827

>  <SCORE.INTRA.SOLV.lig_0>
-97.5861

>  <SCORE.INTRA.VDW>
-16.8174

>  <SCORE.INTRA.VDW.0>
11.7669

>  <SCORE.INTRA.norm>
-0.471471

>  <SCORE.RESTR>
0

>  <SCORE.RESTR.CAVITY>
0

>  <SCORE.RESTR.norm>
0

>  <SCORE.SYSTEM>
0

>  <SCORE.SYSTEM.CONST>
0

>  <SCORE.SYSTEM.DIHEDRAL>
0

>  <SCORE.SYSTEM.SOLV>
0

>  <SCORE.SYSTEM.norm>
0

>  <SCORE.heavy>
40

>  <SCORE.norm>
-0.687667

>  <RMSD>
4.280

$$$$
1nta_lig
 OpenBabel11021811403D
libRbt.so/2013.1/901 2013/11/27
 40 42  0  0  0  0  0  0  0  0999 V2000
    8.0530   32.2696   -3.4383 C   0  0  0  0  0  0  0  0  0  0  0  0
    9.1859   31.9579   -2.9291 N   0  0  0  0  0  0  0  0  0  0  0  0
   -0.9738   35.0919    0.1750 C   0  0  0  0  0  0  0  0  0  0  0  0
   -1.6435   35.9582   -0.3429 O   0  0  0  0  0  0  0  0  0  0  0  0
    1.5923   33.7558   -3.3862 C   0  0  0  0  0  0  0  0  0  0  0  0
    1.3205   32.7590   -2.5847 N   0  0  0  0  0  0  0  0  0  0  0  0
    0.2135   33.4467    2.8103 C   0  0  0  0  0  0  0  0  0  0  0  0
   -0.3494   39.9418    3.0807 C   0  0  0  0  0  0  0  0  0  0  0  0
    6.2035   33.2738   -2.3559 C   0  0  2  0  0  0  0  0  0  0  0  0
    7.5476   33.4276   -3.0405 N   0  0  0  0  0  0  0  0  0  0  0  0
    2.4395   35.2219    0.6231 C   0  0  2  0  0  0  0  0  0  0  0  0
    0.4106   38.2045    0.4741 C   0  0  1  0  0  0  0  0  0  0  0  0
    1.4753   37.3548    0.7231 O   0  0  0  0  0  0  0  0  0  0  0  0
    5.1038   33.9582   -3.1897 C   0  0  1  0  0  0  0  0  0  0  0  0
    5.0341   33.2849   -4.4102 O   0  0  0  0  0  0  0  0  0  0  0  0
    1.2148   36.1008    0.3933 C   0  0  2  0  0  0  0  0  0  0  0  0
    0.5770   39.6185    0.9855 C   0  0  1  0  0  0  0  0  0  0  0  0
    0.8660   39.5683    2.3769 N   0  0  0  0  0  0  0  0  0  0  0  0
    3.7217   33.8541   -2.5311 C   0  0  2  0  0  0  0  0  0  0  0  0
    2.6386   34.5069   -3.3049 N   0  0  0  0  0  0  0  0  0  0  0  0
    0.1837   35.3386    1.1051 C   0  0  1  0  0  0  0  0  0  0  0  0
   -0.1983   36.1074    2.2474 O   0  0  0  0  0  0  0  0  0  0  0  0
    1.6158   40.2671    0.3326 C   0  0  2  0  0  0  0  0  0  0  0  0
    1.5205   41.6360    0.6361 O   0  0  0  0  0  0  0  0  0  0  0  0
    3.8063   34.4942   -1.1545 C   0  0  1  0  0  0  0  0  0  0  0  0
    2.5271   34.3921   -0.5488 O   0  0  0  0  0  0  0  0  0  0  0  0
    0.7695   34.0752    1.5703 C   0  0  1  0  0  0  0  0  0  0  0  0
    2.1549   34.3668    1.7063 O   0  0  0  0  0  0  0  0  0  0  0  0
    1.5012   40.0733   -1.1566 C   0  0  1  0  0  0  0  0  0  0  0  0
    2.6756   40.5243   -1.7647 O   0  0  0  0  0  0  0  0  0  0  0  0
    4.8850   33.7769   -0.2940 C   0  0  2  0  0  0  0  0  0  0  0  0
    4.9421   34.3841    0.9957 O   0  0  0  0  0  0  0  0  0  0  0  0
    1.3410   38.6236   -1.4653 C   0  0  1  0  0  0  0  0  0  0  0  0
    0.1619   38.1840   -0.8556 O   0  0  0  0  0  0  0  0  0  0  0  0
    6.2583   33.9126   -0.9844 C   0  0  1  0  0  0  0  0  0  0  0  0
    7.2700   33.2561   -0.2032 O   0  0  0  0  0  0  0  0  0  0  0  0
    1.2000   38.3857   -2.9818 C   0  0  0  0  0  0  0  0  0  0  0  0
    0.0929   39.1336   -3.4718 O   0  0  0  0  0  0  0  0  0  0  0  0
    7.4392   31.5082   -4.2785 N   0  0  0  0  0  0  0  0  0  0  0  0
    0.8019   34.0271   -4.3495 N   0  0  0  0  0  0  0  0  0  0  0  0
  1  2  1  0  0  0  0
  1 39  1  0  0  0  0
  3  4  1  0  0  0  0
  5  6  1  0  0  0  0
  5 40  1  0  0  0  0
  9 10  1  6  0  0  0
  9 14  1  0  0  0  0
  9 35  1  0  0  0  0
 10  1  1  0  0  0  0
 11 16  1  0  0  0  0
 11 28  1  0  0  0  0
 11 26  1  6  0  0  0
 12 17  1  0  0  0  0
 12 34  1  0  0  0  0
 12 13  1  6  0  0  0
 14 15  1  6  0  0  0
 14 19  1  0  0  0  0
 16 13  1  1  0  0  0
 16 21  1  0  0  0  0
 17 18  1  1  0  0  0
 17 23  1  0  0  0  0
 18  8  1  0  0  0  0
 19 20  1  6  0  0  0
 19 25  1  0  0  0  0
 20  5  1  0  0  0  0
 21  3  1  6  0  0  0
 21 22  1  0  0  0  0
 21 27  1  0  0  0  0
 23 24  1  6  0  0  0
 23 29  1  0  0  0  0
 25 26  1  1  0  0  0
 25 31  1  0  0  0  0
 27  7  1  1  0  0  0
 27 28  1  0  0  0  0
 29 30  1  6  0  0  0
 29 33  1  0  0  0  0
 31 32  1  1  0  0  0
 31 35  1  0  0  0  0
 33 34  1  0  0  0  0
 33 37  1  6  0  0  0
 35 36  1  1  0  0  0
 37 38  1  0  0  0  0
M  END
>  <CHROM.1>
-114.97482713,-119.81385155,125.63334383,172.72522555,177.24253486,-103.90851531
134.27912082,20.03688867,-60.91212209,-167.41240493,-57.26674116,2.60568133
35.78998120,-0.84190804,-0.42805620,0.75279482,-0.47269390

>  <Name>
1nta_lig

>  <RI>
0

>  <Rbt.Current_Directory>
/home/itssahil/PROJECTS/Mol_Feturizer/New_Systems/rnas/1nta

>  <Rbt.Executable>
rbdock ($Id: //depot/dev/client3/rdock/2013.1/src/exe/rbdock.cxx#4 $)

>  <Rbt.Library>
libRbt.so (2013.1, Build901 2013/11/27)

>  <Rbt.Parameter_File>
/export/apps/rDock/src/rDock_2013.1_src/data/scripts/dock_solv.prm

>  <Rbt.Receptor>
prm/pocket_docking_8.prm

>  <SCORE>
-29.1456

>  <SCORE.INTER>
-8.13753

>  <SCORE.INTER.CONST>
1

>  <SCORE.INTER.POLAR>
-1.52907

>  <SCORE.INTER.ROT>
11

>  <SCORE.INTER.SOLV>
24.3327

>  <SCORE.INTER.VDW>
-19.3724

>  <SCORE.INTER.norm>
-0.203438

>  <SCORE.INTRA>
-21.008

>  <SCORE.INTRA.DIHEDRAL>
-6.76865

>  <SCORE.INTRA.DIHEDRAL.0>
19.0336

>  <SCORE.INTRA.POLAR>
0

>  <SCORE.INTRA.POLAR.0>
0

>  <SCORE.INTRA.REPUL>
0

>  <SCORE.INTRA.REPUL.0>
0

>  <SCORE.INTRA.SOLV>
-4.34821

>  <SCORE.INTRA.SOLV.lig_0>
-97.5861

>  <SCORE.INTRA.VDW>
-15.4496

>  <SCORE.INTRA.VDW.0>
11.7669

>  <SCORE.INTRA.norm>
-0.525201

>  <SCORE.RESTR>
0

>  <SCORE.RESTR.CAVITY>
0

>  <SCORE.RESTR.norm>
0

>  <SCORE.SYSTEM>
0

>  <SCORE.SYSTEM.CONST>
0

>  <SCORE.SYSTEM.DIHEDRAL>
0

>  <SCORE.SYSTEM.SOLV>
0

>  <SCORE.SYSTEM.norm>
0

>  <SCORE.heavy>
40

>  <SCORE.norm>
-0.728639

>  <RMSD>
4.284

$$$$
1nta_lig
 OpenBabel11021811403D
libRbt.so/2013.1/901 2013/11/27
 40 42  0  0  0  0  0  0  0  0999 V2000
    8.2098   32.1883   -3.7110 C   0  0  0  0  0  0  0  0  0  0  0  0
    9.4747   32.0349   -3.5821 N   0  0  0  0  0  0  0  0  0  0  0  0
   -0.8066   34.4614   -0.1551 C   0  0  0  0  0  0  0  0  0  0  0  0
   -1.8633   33.9568    0.1548 O   0  0  0  0  0  0  0  0  0  0  0  0
    1.8166   32.7826   -3.2563 C   0  0  0  0  0  0  0  0  0  0  0  0
    1.5285   32.1470   -4.3622 N   0  0  0  0  0  0  0  0  0  0  0  0
    0.1437   33.3940    2.8481 C   0  0  0  0  0  0  0  0  0  0  0  0
    0.6857   36.4452   -3.8763 C   0  0  0  0  0  0  0  0  0  0  0  0
    6.4395   33.0130   -2.3744 C   0  0  2  0  0  0  0  0  0  0  0  0
    7.7086   33.2832   -3.1589 N   0  0  0  0  0  0  0  0  0  0  0  0
    2.5382   34.8230    0.5865 C   0  0  2  0  0  0  0  0  0  0  0  0
    2.1579   37.4292   -0.9199 C   0  0  1  0  0  0  0  0  0  0  0  0
    1.5162   36.8923    0.1834 O   0  0  0  0  0  0  0  0  0  0  0  0
    5.2123   33.4940   -3.1715 C   0  0  1  0  0  0  0  0  0  0  0  0
    5.1557   32.7315   -4.3392 O   0  0  0  0  0  0  0  0  0  0  0  0
    1.3222   35.5885    0.0760 C   0  0  2  0  0  0  0  0  0  0  0  0
    1.2578   37.7885   -2.0816 C   0  0  1  0  0  0  0  0  0  0  0  0
    0.5056   36.6384   -2.4472 N   0  0  0  0  0  0  0  0  0  0  0  0
    3.8977   33.2666   -2.4134 C   0  0  2  0  0  0  0  0  0  0  0  0
    2.6946   33.7226   -3.1500 N   0  0  0  0  0  0  0  0  0  0  0  0
    0.2426   34.9289    0.8177 C   0  0  1  0  0  0  0  0  0  0  0  0
   -0.2740   35.8810    1.7498 O   0  0  0  0  0  0  0  0  0  0  0  0
    0.3823   38.8092   -1.7384 C   0  0  2  0  0  0  0  0  0  0  0  0
   -0.2024   39.2852   -2.9244 O   0  0  0  0  0  0  0  0  0  0  0  0
    3.9827   34.0092   -1.0893 C   0  0  1  0  0  0  0  0  0  0  0  0
    2.7665   33.7926   -0.3911 O   0  0  0  0  0  0  0  0  0  0  0  0
    0.8085   33.8023    1.5701 C   0  0  1  0  0  0  0  0  0  0  0  0
    2.1650   34.1748    1.7807 O   0  0  0  0  0  0  0  0  0  0  0  0
    1.1242   39.9300   -1.0588 C   0  0  1  0  0  0  0  0  0  0  0  0
    0.1978   40.8230   -0.5143 O   0  0  0  0  0  0  0  0  0  0  0  0
    5.1951   33.4949   -0.2620 C   0  0  2  0  0  0  0  0  0  0  0  0
    5.2518   34.1954    0.9796 O   0  0  0  0  0  0  0  0  0  0  0  0
    1.9561   39.3835    0.0511 C   0  0  1  0  0  0  0  0  0  0  0  0
    2.8813   38.4947   -0.5050 O   0  0  0  0  0  0  0  0  0  0  0  0
    6.4950   33.7503   -1.0532 C   0  0  1  0  0  0  0  0  0  0  0  0
    7.6283   33.2822   -0.3040 O   0  0  0  0  0  0  0  0  0  0  0  0
    2.7481   40.4999    0.7600 C   0  0  0  0  0  0  0  0  0  0  0  0
    3.7245   41.0212   -0.1344 O   0  0  0  0  0  0  0  0  0  0  0  0
    7.4690   31.3346   -4.3312 N   0  0  0  0  0  0  0  0  0  0  0  0
    1.1903   32.4998   -2.1820 N   0  0  0  0  0  0  0  0  0  0  0  0
  1  2  1  0  0  0  0
  1 39  1  0  0  0  0
  3  4  1  0  0  0  0
  5  6  1  0  0  0  0
  5 40  1  0  0  0  0
  9 10  1  6  0  0  0
  9 14  1  0  0  0  0
  9 35  1  0  0  0  0
 10  1  1  0  0  0  0
 11 16  1  0  0  0  0
 11 28  1  0  0  0  0
 11 26  1  6  0  0  0
 12 17  1  0  0  0  0
 12 34  1  0  0  0  0
 12 13  1  1  0  0  0
 14 15  1  6  0  0  0
 14 19  1  0  0  0  0
 16 13  1  1  0  0  0
 16 21  1  0  0  0  0
 17 18  1  1  0  0  0
 17 23  1  0  0  0  0
 18  8  1  0  0  0  0
 19 20  1  6  0  0  0
 19 25  1  0  0  0  0
 20  5  1  0  0  0  0
 21  3  1  6  0  0  0
 21 22  1  0  0  0  0
 21 27  1  0  0  0  0
 23 24  1  6  0  0  0
 23 29  1  0  0  0  0
 25 26  1  1  0  0  0
 25 31  1  0  0  0  0
 27  7  1  1  0  0  0
 27 28  1  0  0  0  0
 29 30  1  1  0  0  0
 29 33  1  0  0  0  0
 31 32  1  1  0  0  0
 31 35  1  0  0  0  0
 33 34  1  0  0  0  0
 33 37  1  6  0  0  0
 35 36  1  1  0  0  0
 37 38  1  0  0  0  0
M  END
>  <CHROM.1>
-104.13372381,-134.84778671,112.77708937,84.45699701,87.12207187,-127.84354524
126.10013625,-108.20950624,-175.02352640,-157.84096443,-67.34267885,2.85201382
35.27832928,-1.16435528,-0.71772476,0.39459292,0.00823691

>  <Name>
1nta_lig

>  <RI>
0

>  <Rbt.Current_Directory>
/home/itssahil/PROJECTS/Mol_Feturizer/New_Systems/rnas/1nta

>  <Rbt.Executable>
rbdock ($Id: //depot/dev/client3/rdock/2013.1/src/exe/rbdock.cxx#4 $)

>  <Rbt.Library>
libRbt.so (2013.1, Build901 2013/11/27)

>  <Rbt.Parameter_File>
/export/apps/rDock/src/rDock_2013.1_src/data/scripts/dock_solv.prm

>  <Rbt.Receptor>
prm/pocket_docking_4.prm

>  <SCORE>
-29.2903

>  <SCORE.INTER>
-11.108

>  <SCORE.INTER.CONST>
1

>  <SCORE.INTER.POLAR>
-1.98856

>  <SCORE.INTER.ROT>
11

>  <SCORE.INTER.SOLV>
27.724

>  <SCORE.INTER.VDW>
-20.9515

>  <SCORE.INTER.norm>
-0.277699

>  <SCORE.INTRA>
-18.1884

>  <SCORE.INTRA.DIHEDRAL>
0.120714

>  <SCORE.INTRA.DIHEDRAL.0>
19.0336

>  <SCORE.INTRA.POLAR>
0

>  <SCORE.INTRA.POLAR.0>
0

>  <SCORE.INTRA.REPUL>
0

>  <SCORE.INTRA.REPUL.0>
0

>  <SCORE.INTRA.SOLV>
-1.25831

>  <SCORE.INTRA.SOLV.lig_0>
-97.5861

>  <SCORE.INTRA.VDW>
-17.6196

>  <SCORE.INTRA.VDW.0>
11.7669

>  <SCORE.INTRA.norm>
-0.454709

>  <SCORE.RESTR>
0.00600903

>  <SCORE.RESTR.CAVITY>
0.00600903

>  <SCORE.RESTR.norm>
0.000150226

>  <SCORE.SYSTEM>
0

>  <SCORE.SYSTEM.CONST>
0

>  <SCORE.SYSTEM.DIHEDRAL>
0

>  <SCORE.SYSTEM.SOLV>
0

>  <SCORE.SYSTEM.norm>
0

>  <SCORE.heavy>
40

>  <SCORE.norm>
-0.732258

>  <RMSD>
4.286

$$$$
1nta_lig
 OpenBabel11021811403D
libRbt.so/2013.1/901 2013/11/27
 40 42  0  0  0  0  0  0  0  0999 V2000
    6.7450   32.2178   -1.9773 C   0  0  0  0  0  0  0  0  0  0  0  0
    8.0076   32.4168   -1.8979 N   0  0  0  0  0  0  0  0  0  0  0  0
    0.5305   39.7350    0.8718 C   0  0  0  0  0  0  0  0  0  0  0  0
    0.3464   40.9151    0.6699 O   0  0  0  0  0  0  0  0  0  0  0  0
    5.1395   38.0119    0.9879 C   0  0  0  0  0  0  0  0  0  0  0  0
    4.5507   39.0774    0.5105 N   0  0  0  0  0  0  0  0  0  0  0  0
   -0.3323   39.4846   -2.3304 C   0  0  0  0  0  0  0  0  0  0  0  0
   -1.9254   37.0387    4.8988 C   0  0  0  0  0  0  0  0  0  0  0  0
    5.2672   33.8556   -1.1206 C   0  0  2  0  0  0  0  0  0  0  0  0
    6.0435   32.5703   -0.9104 N   0  0  0  0  0  0  0  0  0  0  0  0
    0.9502   36.6327   -0.5661 C   0  0  2  0  0  0  0  0  0  0  0  0
   -0.1207   36.0296    2.4198 C   0  0  1  0  0  0  0  0  0  0  0  0
   -0.5651   36.5572    1.2191 O   0  0  0  0  0  0  0  0  0  0  0  0
    5.3210   34.7204    0.1531 C   0  0  1  0  0  0  0  0  0  0  0  0
    6.6576   35.0649    0.3600 O   0  0  0  0  0  0  0  0  0  0  0  0
    0.3346   37.3343    0.6396 C   0  0  2  0  0  0  0  0  0  0  0  0
   -1.2026   35.4964    3.3330 C   0  0  1  0  0  0  0  0  0  0  0  0
   -2.1565   36.5266    3.5585 N   0  0  0  0  0  0  0  0  0  0  0  0
    4.5302   36.0272    0.0056 C   0  0  2  0  0  0  0  0  0  0  0  0
    4.5564   36.8832    1.2157 N   0  0  0  0  0  0  0  0  0  0  0  0
   -0.0553   38.6189    0.0491 C   0  0  1  0  0  0  0  0  0  0  0  0
   -1.4836   38.6589    0.0274 O   0  0  0  0  0  0  0  0  0  0  0  0
   -1.8440   34.4051    2.7640 C   0  0  2  0  0  0  0  0  0  0  0  0
   -2.6115   33.7911    3.7685 O   0  0  0  0  0  0  0  0  0  0  0  0
    3.0887   35.6711   -0.3219 C   0  0  1  0  0  0  0  0  0  0  0  0
    2.3630   36.8826   -0.4607 O   0  0  0  0  0  0  0  0  0  0  0  0
    0.4318   38.6677   -1.3350 C   0  0  1  0  0  0  0  0  0  0  0  0
    0.5044   37.3014   -1.7236 O   0  0  0  0  0  0  0  0  0  0  0  0
   -0.8342   33.4225    2.2317 C   0  0  1  0  0  0  0  0  0  0  0  0
   -1.4964   32.4645    1.4596 O   0  0  0  0  0  0  0  0  0  0  0  0
    3.0263   34.8353   -1.6320 C   0  0  2  0  0  0  0  0  0  0  0  0
    1.6666   34.5204   -1.9278 O   0  0  0  0  0  0  0  0  0  0  0  0
    0.1465   34.1301    1.3599 C   0  0  1  0  0  0  0  0  0  0  0  0
    0.8055   35.0830    2.1428 O   0  0  0  0  0  0  0  0  0  0  0  0
    3.8237   33.5285   -1.4392 C   0  0  1  0  0  0  0  0  0  0  0  0
    3.7772   32.7408   -2.6402 O   0  0  0  0  0  0  0  0  0  0  0  0
    1.2106   33.1595    0.8106 C   0  0  0  0  0  0  0  0  0  0  0  0
    0.6346   32.3704   -0.2241 O   0  0  0  0  0  0  0  0  0  0  0  0
    6.1900   31.7044   -3.0216 N   0  0  0  0  0  0  0  0  0  0  0  0
    6.3893   38.0387    1.2403 N   0  0  0  0  0  0  0  0  0  0  0  0
  1  2  1  0  0  0  0
  1 39  1  0  0  0  0
  3  4  1  0  0  0  0
  5  6  1  0  0  0  0
  5 40  1  0  0  0  0
  9 10  1  1  0  0  0
  9 14  1  0  0  0  0
  9 35  1  0  0  0  0
 10  1  1  0  0  0  0
 11 16  1  0  0  0  0
 11 28  1  0  0  0  0
 11 26  1  1  0  0  0
 12 17  1  0  0  0  0
 12 34  1  0  0  0  0
 12 13  1  6  0  0  0
 14 15  1  6  0  0  0
 14 19  1  0  0  0  0
 16 13  1  6  0  0  0
 16 21  1  0  0  0  0
 17 18  1  6  0  0  0
 17 23  1  0  0  0  0
 18  8  1  0  0  0  0
 19 20  1  1  0  0  0
 19 25  1  0  0  0  0
 20  5  1  0  0  0  0
 21  3  1  1  0  0  0
 21 22  1  0  0  0  0
 21 27  1  0  0  0  0
 23 24  1  1  0  0  0
 23 29  1  0  0  0  0
 25 26  1  6  0  0  0
 25 31  1  0  0  0  0
 27  7  1  6  0  0  0
 27 28  1  0  0  0  0
 29 30  1  6  0  0  0
 29 33  1  0  0  0  0
 31 32  1  1  0  0  0
 31 35  1  0  0  0  0
 33 34  1  0  0  0  0
 33 37  1  1  0  0  0
 35 36  1  6  0  0  0
 37 38  1  0  0  0  0
M  END
>  <CHROM.1>
-140.05991079,105.01171052,118.40944282,161.99217432,106.50937339,-104.35440660
116.52888401,86.45460828,-177.07155767,-171.05531080,75.26031705,1.90481802
35.66795077,0.32879244,0.35800833,-0.44905754,3.09348580

>  <Name>
1nta_lig

>  <RI>
0

>  <Rbt.Current_Directory>
/home/itssahil/PROJECTS/Mol_Feturizer/New_Systems/rnas/1nta

>  <Rbt.Executable>
rbdock ($Id: //depot/dev/client3/rdock/2013.1/src/exe/rbdock.cxx#4 $)

>  <Rbt.Library>
libRbt.so (2013.1, Build901 2013/11/27)

>  <Rbt.Parameter_File>
/export/apps/rDock/src/rDock_2013.1_src/data/scripts/dock_solv.prm

>  <Rbt.Receptor>
prm/pocket_docking_4.prm

>  <SCORE>
-19.6829

>  <SCORE.INTER>
-0.721648

>  <SCORE.INTER.CONST>
1

>  <SCORE.INTER.POLAR>
-1.1835

>  <SCORE.INTER.ROT>
11

>  <SCORE.INTER.SOLV>
21.735

>  <SCORE.INTER.VDW>
-14.7144

>  <SCORE.INTER.norm>
-0.0180412

>  <SCORE.INTRA>
-18.9612

>  <SCORE.INTRA.DIHEDRAL>
1.32645

>  <SCORE.INTRA.DIHEDRAL.0>
19.0336

>  <SCORE.INTRA.POLAR>
0

>  <SCORE.INTRA.POLAR.0>
0

>  <SCORE.INTRA.REPUL>
0.0298315

>  <SCORE.INTRA.REPUL.0>
0

>  <SCORE.INTRA.SOLV>
-3.90346

>  <SCORE.INTRA.SOLV.lig_0>
-97.5861

>  <SCORE.INTRA.VDW>
-17.8219

>  <SCORE.INTRA.VDW.0>
11.7669

>  <SCORE.INTRA.norm>
-0.47403

>  <SCORE.RESTR>
0

>  <SCORE.RESTR.CAVITY>
0

>  <SCORE.RESTR.norm>
0

>  <SCORE.SYSTEM>
0

>  <SCORE.SYSTEM.CONST>
0

>  <SCORE.SYSTEM.DIHEDRAL>
0

>  <SCORE.SYSTEM.SOLV>
0

>  <SCORE.SYSTEM.norm>
0

>  <SCORE.heavy>
40

>  <SCORE.norm>
-0.492071

>  <RMSD>
4.309

$$$$
1nta_lig
 OpenBabel11021811403D
libRbt.so/2013.1/901 2013/11/27
 40 42  0  0  0  0  0  0  0  0999 V2000
    8.9479   32.8700   -1.1374 C   0  0  0  0  0  0  0  0  0  0  0  0
    9.9562   33.1690   -0.4067 N   0  0  0  0  0  0  0  0  0  0  0  0
   -0.0148   37.2259    0.2887 C   0  0  0  0  0  0  0  0  0  0  0  0
   -0.5513   38.1074    0.9230 O   0  0  0  0  0  0  0  0  0  0  0  0
    5.3704   37.0723    1.8036 C   0  0  0  0  0  0  0  0  0  0  0  0
    6.3685   37.5426    1.1019 N   0  0  0  0  0  0  0  0  0  0  0  0
    2.5940   39.2816    0.4624 C   0  0  0  0  0  0  0  0  0  0  0  0
   -0.4934   38.1026   -5.1103 C   0  0  0  0  0  0  0  0  0  0  0  0
    6.6956   33.3483   -0.5908 C   0  0  2  0  0  0  0  0  0  0  0  0
    7.8867   32.4159   -0.4875 N   0  0  0  0  0  0  0  0  0  0  0  0
    2.9894   35.9483   -0.8118 C   0  0  2  0  0  0  0  0  0  0  0  0
    0.0632   35.9426   -2.9167 C   0  0  1  0  0  0  0  0  0  0  0  0
    1.3903   35.9865   -2.5236 O   0  0  0  0  0  0  0  0  0  0  0  0
    6.5115   34.1197    0.7298 C   0  0  1  0  0  0  0  0  0  0  0  0
    7.6493   34.9082    0.9075 O   0  0  0  0  0  0  0  0  0  0  0  0
    1.5303   36.1288   -1.2162 C   0  0  2  0  0  0  0  0  0  0  0  0
   -0.1692   35.9210   -4.4115 C   0  0  1  0  0  0  0  0  0  0  0  0
    0.4905   37.0396   -4.9908 N   0  0  0  0  0  0  0  0  0  0  0  0
    5.3027   35.0642    0.6908 C   0  0  2  0  0  0  0  0  0  0  0  0
    5.0924   35.8203    1.9486 N   0  0  0  0  0  0  0  0  0  0  0  0
    1.2129   37.4034   -0.5639 C   0  0  1  0  0  0  0  0  0  0  0  0
    1.0151   38.3703   -1.5974 O   0  0  0  0  0  0  0  0  0  0  0  0
    0.3331   34.7582   -4.9786 C   0  0  2  0  0  0  0  0  0  0  0  0
   -0.1724   34.6700   -6.2870 O   0  0  0  0  0  0  0  0  0  0  0  0
    4.0643   34.2327    0.3960 C   0  0  1  0  0  0  0  0  0  0  0  0
    2.9505   35.1112    0.3575 O   0  0  0  0  0  0  0  0  0  0  0  0
    2.3658   37.8178    0.2453 C   0  0  1  0  0  0  0  0  0  0  0  0
    3.4765   37.2038   -0.3968 O   0  0  0  0  0  0  0  0  0  0  0  0
   -0.1088   33.5555   -4.1870 C   0  0  1  0  0  0  0  0  0  0  0  0
    0.5990   32.4353   -4.6302 O   0  0  0  0  0  0  0  0  0  0  0  0
    4.2281   33.4870   -0.9589 C   0  0  2  0  0  0  0  0  0  0  0  0
    3.0534   32.7216   -1.2226 O   0  0  0  0  0  0  0  0  0  0  0  0
    0.1983   33.7621   -2.7428 C   0  0  1  0  0  0  0  0  0  0  0  0
   -0.5175   34.8823   -2.3091 O   0  0  0  0  0  0  0  0  0  0  0  0
    5.4457   32.5427   -0.8750 C   0  0  1  0  0  0  0  0  0  0  0  0
    5.6134   31.8428   -2.1187 O   0  0  0  0  0  0  0  0  0  0  0  0
   -0.2584   32.5585   -1.8949 C   0  0  0  0  0  0  0  0  0  0  0  0
    0.5403   31.4267   -2.2208 O   0  0  0  0  0  0  0  0  0  0  0  0
    8.9617   32.9959   -2.4204 N   0  0  0  0  0  0  0  0  0  0  0  0
    4.6013   37.8757    2.4277 N   0  0  0  0  0  0  0  0  0  0  0  0
  1  2  1  0  0  0  0
  1 39  1  0  0  0  0
  3  4  1  0  0  0  0
  5  6  1  0  0  0  0
  5 40  1  0  0  0  0
  9 10  1  1  0  0  0
  9 14  1  0  0  0  0
  9 35  1  0  0  0  0
 10  1  1  0  0  0  0
 11 16  1  0  0  0  0
 11 28  1  0  0  0  0
 11 26  1  1  0  0  0
 12 17  1  0  0  0  0
 12 34  1  0  0  0  0
 12 13  1  6  0  0  0
 14 15  1  6  0  0  0
 14 19  1  0  0  0  0
 16 13  1  6  0  0  0
 16 21  1  0  0  0  0
 17 18  1  6  0  0  0
 17 23  1  0  0  0  0
 18  8  1  0  0  0  0
 19 20  1  1  0  0  0
 19 25  1  0  0  0  0
 20  5  1  0  0  0  0
 21  3  1  1  0  0  0
 21 22  1  0  0  0  0
 21 27  1  0  0  0  0
 23 24  1  6  0  0  0
 23 29  1  0  0  0  0
 25 26  1  6  0  0  0
 25 31  1  0  0  0  0
 27  7  1  6  0  0  0
 27 28  1  0  0  0  0
 29 30  1  6  0  0  0
 29 33  1  0  0  0  0
 31 32  1  1  0  0  0
 31 35  1  0  0  0  0
 33 34  1  0  0  0  0
 33 37  1  1  0  0  0
 35 36  1  6  0  0  0
 37 38  1  0  0  0  0
M  END
>  <CHROM.1>
-104.18989091,114.69225365,145.02466647,174.10981595,170.95709281,-95.09696159
109.31147412,-38.99329112,-177.66884755,70.72168881,67.54337101,3.07900275
35.14234593,-1.31852970,-0.11172351,0.46214697,-2.46973830

>  <Name>
1nta_lig

>  <RI>
0

>  <Rbt.Current_Directory>
/home/itssahil/PROJECTS/Mol_Feturizer/New_Systems/rnas/1nta

>  <Rbt.Executable>
rbdock ($Id: //depot/dev/client3/rdock/2013.1/src/exe/rbdock.cxx#4 $)

>  <Rbt.Library>
libRbt.so (2013.1, Build901 2013/11/27)

>  <Rbt.Parameter_File>
/export/apps/rDock/src/rDock_2013.1_src/data/scripts/dock_solv.prm

>  <Rbt.Receptor>
prm/pocket_docking_3.prm

>  <SCORE>
-27.3939

>  <SCORE.INTER>
-7.39611

>  <SCORE.INTER.CONST>
1

>  <SCORE.INTER.POLAR>
-0.902962

>  <SCORE.INTER.ROT>
11

>  <SCORE.INTER.SOLV>
29.557

>  <SCORE.INTER.VDW>
-22.7065

>  <SCORE.INTER.norm>
-0.184903

>  <SCORE.INTRA>
-19.9991

>  <SCORE.INTRA.DIHEDRAL>
-9.10101

>  <SCORE.INTRA.DIHEDRAL.0>
19.0336

>  <SCORE.INTRA.POLAR>
0

>  <SCORE.INTRA.POLAR.0>
0

>  <SCORE.INTRA.REPUL>
0

>  <SCORE.INTRA.REPUL.0>
0

>  <SCORE.INTRA.SOLV>
0.352243

>  <SCORE.INTRA.SOLV.lig_0>
-97.5861

>  <SCORE.INTRA.VDW>
-15.6247

>  <SCORE.INTRA.VDW.0>
11.7669

>  <SCORE.INTRA.norm>
-0.499977

>  <SCORE.RESTR>
0.00131337

>  <SCORE.RESTR.CAVITY>
0.00131337

>  <SCORE.RESTR.norm>
3.28342e-05

>  <SCORE.SYSTEM>
0

>  <SCORE.SYSTEM.CONST>
0

>  <SCORE.SYSTEM.DIHEDRAL>
0

>  <SCORE.SYSTEM.SOLV>
0

>  <SCORE.SYSTEM.norm>
0

>  <SCORE.heavy>
40

>  <SCORE.norm>
-0.684847

>  <RMSD>
4.351

$$$$
1nta_lig
 OpenBabel11021811403D
libRbt.so/2013.1/901 2013/11/27
 40 42  0  0  0  0  0  0  0  0999 V2000
    8.6393   32.8606   -2.0061 C   0  0  0  0  0  0  0  0  0  0  0  0
    9.6485   33.5547   -1.6321 N   0  0  0  0  0  0  0  0  0  0  0  0
   -0.1893   36.9808    0.4146 C   0  0  0  0  0  0  0  0  0  0  0  0
   -0.7743   37.8868    0.9663 O   0  0  0  0  0  0  0  0  0  0  0  0
    4.9689   36.6015    1.8349 C   0  0  0  0  0  0  0  0  0  0  0  0
    6.0568   37.1630    1.3758 N   0  0  0  0  0  0  0  0  0  0  0  0
    2.5198   38.9095    0.3725 C   0  0  0  0  0  0  0  0  0  0  0  0
   -1.9021   38.3239   -2.8998 C   0  0  0  0  0  0  0  0  0  0  0  0
    6.5371   33.3877   -1.0557 C   0  0  2  0  0  0  0  0  0  0  0  0
    7.7872   32.5298   -1.0473 N   0  0  0  0  0  0  0  0  0  0  0  0
    2.5922   35.6428   -1.1154 C   0  0  2  0  0  0  0  0  0  0  0  0
   -0.5504   35.6438   -2.8313 C   0  0  1  0  0  0  0  0  0  0  0  0
    0.8012   35.8495   -2.6117 O   0  0  0  0  0  0  0  0  0  0  0  0
    6.2642   33.9390    0.3566 C   0  0  1  0  0  0  0  0  0  0  0  0
    7.3390   34.7644    0.6905 O   0  0  0  0  0  0  0  0  0  0  0  0
    1.1056   35.9088   -1.3260 C   0  0  2  0  0  0  0  0  0  0  0  0
   -1.1458   36.4243   -3.9824 C   0  0  1  0  0  0  0  0  0  0  0  0
   -0.8726   37.8058   -3.7851 N   0  0  0  0  0  0  0  0  0  0  0  0
    4.9939   34.7979    0.4129 C   0  0  2  0  0  0  0  0  0  0  0  0
    4.6977   35.3419    1.7599 N   0  0  0  0  0  0  0  0  0  0  0  0
    0.9332   37.1554   -0.5729 C   0  0  1  0  0  0  0  0  0  0  0  0
    0.6597   38.1887   -1.5213 O   0  0  0  0  0  0  0  0  0  0  0  0
   -0.5979   36.0251   -5.1934 C   0  0  2  0  0  0  0  0  0  0  0  0
   -1.3930   36.5647   -6.2189 O   0  0  0  0  0  0  0  0  0  0  0  0
    3.8250   33.9411   -0.0468 C   0  0  1  0  0  0  0  0  0  0  0  0
    2.6540   34.7411    0.0037 O   0  0  0  0  0  0  0  0  0  0  0  0
    2.1948   37.4720    0.1081 C   0  0  1  0  0  0  0  0  0  0  0  0
    3.1876   36.8499   -0.6982 O   0  0  0  0  0  0  0  0  0  0  0  0
   -0.5949   34.5225   -5.2975 C   0  0  1  0  0  0  0  0  0  0  0  0
    0.1718   34.1457   -6.4033 O   0  0  0  0  0  0  0  0  0  0  0  0
    4.0767   33.4190   -1.4900 C   0  0  2  0  0  0  0  0  0  0  0  0
    2.9658   32.6269   -1.9069 O   0  0  0  0  0  0  0  0  0  0  0  0
    0.0243   33.9339   -4.0758 C   0  0  1  0  0  0  0  0  0  0  0  0
   -0.7523   34.3139   -2.9768 O   0  0  0  0  0  0  0  0  0  0  0  0
    5.3545   32.5541   -1.5015 C   0  0  1  0  0  0  0  0  0  0  0  0
    5.6040   32.0607   -2.8279 O   0  0  0  0  0  0  0  0  0  0  0  0
    0.0277   32.3935   -4.1358 C   0  0  0  0  0  0  0  0  0  0  0  0
    1.0394   31.9626   -5.0389 O   0  0  0  0  0  0  0  0  0  0  0  0
    8.4629   32.5011   -3.2316 N   0  0  0  0  0  0  0  0  0  0  0  0
    4.0924   37.3117    2.4298 N   0  0  0  0  0  0  0  0  0  0  0  0
  1  2  1  0  0  0  0
  1 39  1  0  0  0  0
  3  4  1  0  0  0  0
  5  6  1  0  0  0  0
  5 40  1  0  0  0  0
  9 10  1  1  0  0  0
  9 14  1  0  0  0  0
  9 35  1  0  0  0  0
 10  1  1  0  0  0  0
 11 16  1  0  0  0  0
 11 28  1  0  0  0  0
 11 26  1  1  0  0  0
 12 17  1  0  0  0  0
 12 34  1  0  0  0  0
 12 13  1  6  0  0  0
 14 15  1  6  0  0  0
 14 19  1  0  0  0  0
 16 13  1  6  0  0  0
 16 21  1  0  0  0  0
 17 18  1  1  0  0  0
 17 23  1  0  0  0  0
 18  8  1  0  0  0  0
 19 20  1  1  0  0  0
 19 25  1  0  0  0  0
 20  5  1  0  0  0  0
 21  3  1  1  0  0  0
 21 22  1  0  0  0  0
 21 27  1  0  0  0  0
 23 24  1  6  0  0  0
 23 29  1  0  0  0  0
 25 26  1  6  0  0  0
 25 31  1  0  0  0  0
 27  7  1  6  0  0  0
 27 28  1  0  0  0  0
 29 30  1  6  0  0  0
 29 33  1  0  0  0  0
 31 32  1  1  0  0  0
 31 35  1  0  0  0  0
 33 34  1  0  0  0  0
 33 37  1  6  0  0  0
 35 36  1  6  0  0  0
 37 38  1  0  0  0  0
M  END
>  <CHROM.1>
-129.89555111,102.39679947,153.27113150,140.35214299,160.08368373,-83.96789917
105.37470871,-44.90705469,-162.59685842,77.27905987,75.19596682,2.71178719
35.18289056,-1.69901254,-0.12092269,0.44999358,-2.26663009

>  <Name>
1nta_lig

>  <RI>
0

>  <Rbt.Current_Directory>
/home/itssahil/PROJECTS/Mol_Feturizer/New_Systems/rnas/1nta

>  <Rbt.Executable>
rbdock ($Id: //depot/dev/client3/rdock/2013.1/src/exe/rbdock.cxx#4 $)

>  <Rbt.Library>
libRbt.so (2013.1, Build901 2013/11/27)

>  <Rbt.Parameter_File>
/export/apps/rDock/src/rDock_2013.1_src/data/scripts/dock_solv.prm

>  <Rbt.Receptor>
prm/pocket_docking_2.prm

>  <SCORE>
-12.8076

>  <SCORE.INTER>
0.810751

>  <SCORE.INTER.CONST>
1

>  <SCORE.INTER.POLAR>
0

>  <SCORE.INTER.ROT>
11

>  <SCORE.INTER.SOLV>
24.809

>  <SCORE.INTER.VDW>
-18.6625

>  <SCORE.INTER.norm>
0.0202688

>  <SCORE.INTRA>
-16.5272

>  <SCORE.INTRA.DIHEDRAL>
-2.02946

>  <SCORE.INTRA.DIHEDRAL.0>
19.0336

>  <SCORE.INTRA.POLAR>
0

>  <SCORE.INTRA.POLAR.0>
0

>  <SCORE.INTRA.REPUL>
0

>  <SCORE.INTRA.REPUL.0>
0

>  <SCORE.INTRA.SOLV>
0.613974

>  <SCORE.INTRA.SOLV.lig_0>
-97.5861

>  <SCORE.INTRA.VDW>
-15.8195

>  <SCORE.INTRA.VDW.0>
11.7669

>  <SCORE.INTRA.norm>
-0.413181

>  <SCORE.RESTR>
2.90894

>  <SCORE.RESTR.CAVITY>
2.90894

>  <SCORE.RESTR.norm>
0.0727235

>  <SCORE.SYSTEM>
0

>  <SCORE.SYSTEM.CONST>
0

>  <SCORE.SYSTEM.DIHEDRAL>
0

>  <SCORE.SYSTEM.SOLV>
0

>  <SCORE.SYSTEM.norm>
0

>  <SCORE.heavy>
40

>  <SCORE.norm>
-0.320189

>  <RMSD>
4.355

$$$$
1nta_lig
 OpenBabel11021811403D
libRbt.so/2013.1/901 2013/11/27
 40 42  0  0  0  0  0  0  0  0999 V2000
    8.1667   32.0146   -3.2504 C   0  0  0  0  0  0  0  0  0  0  0  0
    7.6553   31.2443   -4.1366 N   0  0  0  0  0  0  0  0  0  0  0  0
    0.7368   35.2441    2.2023 C   0  0  0  0  0  0  0  0  0  0  0  0
   -0.3839   34.9026    2.5100 O   0  0  0  0  0  0  0  0  0  0  0  0
    1.6244   33.7638   -3.5470 C   0  0  0  0  0  0  0  0  0  0  0  0
    1.4914   32.5420   -3.1007 N   0  0  0  0  0  0  0  0  0  0  0  0
    3.0607   37.6078    1.9307 C   0  0  0  0  0  0  0  0  0  0  0  0
   -2.4835   38.8928    1.3659 C   0  0  0  0  0  0  0  0  0  0  0  0
    6.2419   33.1554   -2.4795 C   0  0  2  0  0  0  0  0  0  0  0  0
    7.6055   33.2094   -3.1404 N   0  0  0  0  0  0  0  0  0  0  0  0
    1.9350   35.8247   -0.9751 C   0  0  2  0  0  0  0  0  0  0  0  0
   -1.5728   36.1050   -0.1680 C   0  0  1  0  0  0  0  0  0  0  0  0
   -0.3653   36.2453   -0.8312 O   0  0  0  0  0  0  0  0  0  0  0  0
    5.1838   33.7976   -3.3965 C   0  0  1  0  0  0  0  0  0  0  0  0
    5.1206   33.0237   -4.5563 O   0  0  0  0  0  0  0  0  0  0  0  0
    0.6446   35.7025   -0.1719 C   0  0  2  0  0  0  0  0  0  0  0  0
   -2.5196   37.2785   -0.2910 C   0  0  1  0  0  0  0  0  0  0  0  0
   -1.8444   38.4548    0.1364 N   0  0  0  0  0  0  0  0  0  0  0  0
    3.7845   33.7921   -2.7668 C   0  0  2  0  0  0  0  0  0  0  0  0
    2.7407   34.4075   -3.6210 N   0  0  0  0  0  0  0  0  0  0  0  0
    1.0678   36.2415    1.1247 C   0  0  1  0  0  0  0  0  0  0  0  0
    0.3837   37.4821    1.3112 O   0  0  0  0  0  0  0  0  0  0  0  0
   -2.9355   37.4497   -1.6040 C   0  0  2  0  0  0  0  0  0  0  0  0
   -4.0187   38.3450   -1.5941 O   0  0  0  0  0  0  0  0  0  0  0  0
    3.8581   34.5459   -1.4484 C   0  0  1  0  0  0  0  0  0  0  0  0
    2.5628   34.5346   -0.8689 O   0  0  0  0  0  0  0  0  0  0  0  0
    2.5105   36.5096    1.0745 C   0  0  1  0  0  0  0  0  0  0  0  0
    2.7708   36.7398   -0.3047 O   0  0  0  0  0  0  0  0  0  0  0  0
   -3.3761   36.1340   -2.1900 C   0  0  1  0  0  0  0  0  0  0  0  0
   -3.5575   36.2884   -3.5668 O   0  0  0  0  0  0  0  0  0  0  0  0
    4.8935   33.8738   -0.5025 C   0  0  2  0  0  0  0  0  0  0  0  0
    4.9405   34.5883    0.7315 O   0  0  0  0  0  0  0  0  0  0  0  0
   -2.3202   35.1051   -1.9692 C   0  0  1  0  0  0  0  0  0  0  0  0
   -2.1497   34.9560   -0.5894 O   0  0  0  0  0  0  0  0  0  0  0  0
    6.2858   33.9084   -1.1669 C   0  0  1  0  0  0  0  0  0  0  0  0
    7.2580   33.2920   -0.3068 O   0  0  0  0  0  0  0  0  0  0  0  0
   -2.7435   33.7365   -2.5385 C   0  0  0  0  0  0  0  0  0  0  0  0
   -1.7024   32.7932   -2.3118 O   0  0  0  0  0  0  0  0  0  0  0  0
    9.1642   31.6574   -2.5158 N   0  0  0  0  0  0  0  0  0  0  0  0
    0.6027   34.3968   -3.9733 N   0  0  0  0  0  0  0  0  0  0  0  0
  1  2  1  0  0  0  0
  1 39  1  0  0  0  0
  3  4  1  0  0  0  0
  5  6  1  0  0  0  0
  5 40  1  0  0  0  0
  9 10  1  6  0  0  0
  9 14  1  0  0  0  0
  9 35  1  0  0  0  0
 10  1  1  0  0  0  0
 11 16  1  0  0  0  0
 11 28  1  0  0  0  0
 11 26  1  1  0  0  0
 12 17  1  0  0  0  0
 12 34  1  0  0  0  0
 12 13  1  6  0  0  0
 14 15  1  6  0  0  0
 14 19  1  0  0  0  0
 16 13  1  6  0  0  0
 16 21  1  0  0  0  0
 17 18  1  6  0  0  0
 17 23  1  0  0  0  0
 18  8  1  0  0  0  0
 19 20  1  6  0  0  0
 19 25  1  0  0  0  0
 20  5  1  0  0  0  0
 21  3  1  1  0  0  0
 21 22  1  0  0  0  0
 21 27  1  0  0  0  0
 23 24  1  1  0  0  0
 23 29  1  0  0  0  0
 25 26  1  1  0  0  0
 25 31  1  0  0  0  0
 27  7  1  1  0  0  0
 27 28  1  0  0  0  0
 29 30  1  6  0  0  0
 29 33  1  0  0  0  0
 31 32  1  1  0  0  0
 31 35  1  0  0  0  0
 33 34  1  0  0  0  0
 33 37  1  1  0  0  0
 35 36  1  1  0  0  0
 37 38  1  0  0  0  0
M  END
>  <CHROM.1>
-124.05414027,72.90174255,-173.38046099,143.66409366,177.24609247,-112.46214084
141.45077465,-17.90596869,-64.60718380,-106.28931314,179.61940013,1.71153298
35.01509628,-1.26000656,0.36608217,0.24849376,-2.12442893

>  <Name>
1nta_lig

>  <RI>
0

>  <Rbt.Current_Directory>
/home/itssahil/PROJECTS/Mol_Feturizer/New_Systems/rnas/1nta

>  <Rbt.Executable>
rbdock ($Id: //depot/dev/client3/rdock/2013.1/src/exe/rbdock.cxx#4 $)

>  <Rbt.Library>
libRbt.so (2013.1, Build901 2013/11/27)

>  <Rbt.Parameter_File>
/export/apps/rDock/src/rDock_2013.1_src/data/scripts/dock_solv.prm

>  <Rbt.Receptor>
prm/pocket_docking_3.prm

>  <SCORE>
-22.0795

>  <SCORE.INTER>
-2.9588

>  <SCORE.INTER.CONST>
1

>  <SCORE.INTER.POLAR>
-1.48517

>  <SCORE.INTER.ROT>
11

>  <SCORE.INTER.SOLV>
24.1723

>  <SCORE.INTER.VDW>
-16.0127

>  <SCORE.INTER.norm>
-0.07397

>  <SCORE.INTRA>
-19.1243

>  <SCORE.INTRA.DIHEDRAL>
-3.06756

>  <SCORE.INTRA.DIHEDRAL.0>
19.0336

>  <SCORE.INTRA.POLAR>
0

>  <SCORE.INTRA.POLAR.0>
0

>  <SCORE.INTRA.REPUL>
0

>  <SCORE.INTRA.REPUL.0>
0

>  <SCORE.INTRA.SOLV>
0.571959

>  <SCORE.INTRA.SOLV.lig_0>
-97.5861

>  <SCORE.INTRA.VDW>
-17.8765

>  <SCORE.INTRA.VDW.0>
11.7669

>  <SCORE.INTRA.norm>
-0.478108

>  <SCORE.RESTR>
0.00356417

>  <SCORE.RESTR.CAVITY>
0.00356417

>  <SCORE.RESTR.norm>
8.91043e-05

>  <SCORE.SYSTEM>
0

>  <SCORE.SYSTEM.CONST>
0

>  <SCORE.SYSTEM.DIHEDRAL>
0

>  <SCORE.SYSTEM.SOLV>
0

>  <SCORE.SYSTEM.norm>
0

>  <SCORE.heavy>
40

>  <SCORE.norm>
-0.551988

>  <RMSD>
4.370

$$$$
1nta_lig
 OpenBabel11021811403D
libRbt.so/2013.1/901 2013/11/27
 40 42  0  0  0  0  0  0  0  0999 V2000
    8.8664   32.9533   -2.0223 C   0  0  0  0  0  0  0  0  0  0  0  0
    9.9216   33.6021   -1.6974 N   0  0  0  0  0  0  0  0  0  0  0  0
    0.1079   37.0644    0.3693 C   0  0  0  0  0  0  0  0  0  0  0  0
   -1.0500   36.8178    0.1126 O   0  0  0  0  0  0  0  0  0  0  0  0
    4.9591   36.5162    1.8428 C   0  0  0  0  0  0  0  0  0  0  0  0
    6.0277   37.1155    1.3859 N   0  0  0  0  0  0  0  0  0  0  0  0
    2.9413   38.8042    0.2886 C   0  0  0  0  0  0  0  0  0  0  0  0
    0.4945   32.5070   -0.8969 C   0  0  0  0  0  0  0  0  0  0  0  0
    6.7614   33.4793   -1.0772 C   0  0  2  0  0  0  0  0  0  0  0  0
    8.0418   32.6687   -1.0254 N   0  0  0  0  0  0  0  0  0  0  0  0
    2.7402   35.5857   -1.2899 C   0  0  2  0  0  0  0  0  0  0  0  0
    0.7828   34.6805   -3.2339 C   0  0  1  0  0  0  0  0  0  0  0  0
    0.9211   35.9584   -2.7186 O   0  0  0  0  0  0  0  0  0  0  0  0
    6.3882   33.9696    0.3346 C   0  0  1  0  0  0  0  0  0  0  0  0
    7.4094   34.8220    0.7572 O   0  0  0  0  0  0  0  0  0  0  0  0
    1.2695   35.9586   -1.4428 C   0  0  2  0  0  0  0  0  0  0  0  0
   -0.3096   33.8434   -2.6057 C   0  0  1  0  0  0  0  0  0  0  0  0
   -0.0976   33.7991   -1.2002 N   0  0  0  0  0  0  0  0  0  0  0  0
    5.0841   34.7783    0.3463 C   0  0  2  0  0  0  0  0  0  0  0  0
    4.6915   35.2627    1.6914 N   0  0  0  0  0  0  0  0  0  0  0  0
    1.2078   37.1912   -0.6504 C   0  0  1  0  0  0  0  0  0  0  0  0
    0.9764   38.2685   -1.5604 O   0  0  0  0  0  0  0  0  0  0  0  0
   -1.5619   34.3869   -2.8555 C   0  0  2  0  0  0  0  0  0  0  0  0
   -2.5220   33.4207   -2.5093 O   0  0  0  0  0  0  0  0  0  0  0  0
    3.9773   33.8955   -0.2082 C   0  0  1  0  0  0  0  0  0  0  0  0
    2.7749   34.6490   -0.1986 O   0  0  0  0  0  0  0  0  0  0  0  0
    2.5093   37.4007   -0.0040 C   0  0  1  0  0  0  0  0  0  0  0  0
    3.4306   36.7364   -0.8600 O   0  0  0  0  0  0  0  0  0  0  0  0
   -1.7013   34.7337   -4.3146 C   0  0  1  0  0  0  0  0  0  0  0  0
   -2.8619   35.4911   -4.4922 O   0  0  0  0  0  0  0  0  0  0  0  0
    4.3300   33.4346   -1.6511 C   0  0  2  0  0  0  0  0  0  0  0  0
    3.2762   32.6170   -2.1574 O   0  0  0  0  0  0  0  0  0  0  0  0
   -0.5355   35.5539   -4.7512 C   0  0  1  0  0  0  0  0  0  0  0  0
    0.6192   34.7856   -4.5728 O   0  0  0  0  0  0  0  0  0  0  0  0
    5.6394   32.6187   -1.6179 C   0  0  1  0  0  0  0  0  0  0  0  0
    5.9822   32.1823   -2.9433 O   0  0  0  0  0  0  0  0  0  0  0  0
   -0.6316   35.9129   -6.2473 C   0  0  0  0  0  0  0  0  0  0  0  0
   -0.6976   34.7150   -7.0126 O   0  0  0  0  0  0  0  0  0  0  0  0
    8.6212   32.5945   -3.2361 N   0  0  0  0  0  0  0  0  0  0  0  0
    4.1006   37.1779    2.5146 N   0  0  0  0  0  0  0  0  0  0  0  0
  1  2  1  0  0  0  0
  1 39  1  0  0  0  0
  3  4  1  0  0  0  0
  5  6  1  0  0  0  0
  5 40  1  0  0  0  0
  9 10  1  1  0  0  0
  9 14  1  0  0  0  0
  9 35  1  0  0  0  0
 10  1  1  0  0  0  0
 11 16  1  0  0  0  0
 11 28  1  0  0  0  0
 11 26  1  1  0  0  0
 12 17  1  0  0  0  0
 12 34  1  0  0  0  0
 12 13  1  1  0  0  0
 14 15  1  6  0  0  0
 14 19  1  0  0  0  0
 16 13  1  6  0  0  0
 16 21  1  0  0  0  0
 17 18  1  1  0  0  0
 17 23  1  0  0  0  0
 18  8  1  0  0  0  0
 19 20  1  1  0  0  0
 19 25  1  0  0  0  0
 20  5  1  0  0  0  0
 21  3  1  1  0  0  0
 21 22  1  0  0  0  0
 21 27  1  0  0  0  0
 23 24  1  6  0  0  0
 23 29  1  0  0  0  0
 25 26  1  6  0  0  0
 25 31  1  0  0  0  0
 27  7  1  6  0  0  0
 27 28  1  0  0  0  0
 29 30  1  1  0  0  0
 29 33  1  0  0  0  0
 31 32  1  1  0  0  0
 31 35  1  0  0  0  0
 33 34  1  0  0  0  0
 33 37  1  6  0  0  0
 35 36  1  6  0  0  0
 37 38  1  0  0  0  0
M  END
>  <CHROM.1>
-137.58679988,108.74736816,161.24819288,63.25209618,74.74929368,-102.12004401
102.73540596,-38.57599758,-56.15207840,77.36091271,-58.36709845,2.76183404
34.95676481,-1.56814135,-0.19258735,0.32398320,-2.22375933

>  <Name>
1nta_lig

>  <RI>
0

>  <Rbt.Current_Directory>
/home/itssahil/PROJECTS/Mol_Feturizer/New_Systems/rnas/1nta

>  <Rbt.Executable>
rbdock ($Id: //depot/dev/client3/rdock/2013.1/src/exe/rbdock.cxx#4 $)

>  <Rbt.Library>
libRbt.so (2013.1, Build901 2013/11/27)

>  <Rbt.Parameter_File>
/export/apps/rDock/src/rDock_2013.1_src/data/scripts/dock_solv.prm

>  <Rbt.Receptor>
prm/pocket_docking_2.prm

>  <SCORE>
-13.907

>  <SCORE.INTER>
2.57006

>  <SCORE.INTER.CONST>
1

>  <SCORE.INTER.POLAR>
-0.0233482

>  <SCORE.INTER.ROT>
11

>  <SCORE.INTER.SOLV>
25.3176

>  <SCORE.INTER.VDW>
-17.5813

>  <SCORE.INTER.norm>
0.0642516

>  <SCORE.INTRA>
-18.0253

>  <SCORE.INTRA.DIHEDRAL>
-10.7242

>  <SCORE.INTRA.DIHEDRAL.0>
19.0336

>  <SCORE.INTRA.POLAR>
0

>  <SCORE.INTRA.POLAR.0>
0

>  <SCORE.INTRA.REPUL>
0

>  <SCORE.INTRA.REPUL.0>
0

>  <SCORE.INTRA.SOLV>
2.50407

>  <SCORE.INTRA.SOLV.lig_0>
-97.5861

>  <SCORE.INTRA.VDW>
-13.9152

>  <SCORE.INTRA.VDW.0>
11.7669

>  <SCORE.INTRA.norm>
-0.450632

>  <SCORE.RESTR>
1.54819

>  <SCORE.RESTR.CAVITY>
1.54819

>  <SCORE.RESTR.norm>
0.0387048

>  <SCORE.SYSTEM>
0

>  <SCORE.SYSTEM.CONST>
0

>  <SCORE.SYSTEM.DIHEDRAL>
0

>  <SCORE.SYSTEM.SOLV>
0

>  <SCORE.SYSTEM.norm>
0

>  <SCORE.heavy>
40

>  <SCORE.norm>
-0.347675

>  <RMSD>
4.412

$$$$
1nta_lig
 OpenBabel11021811403D
libRbt.so/2013.1/901 2013/11/27
 40 42  0  0  0  0  0  0  0  0999 V2000
    9.2969   33.3196   -2.0020 C   0  0  0  0  0  0  0  0  0  0  0  0
    9.9300   34.3219   -1.5177 N   0  0  0  0  0  0  0  0  0  0  0  0
    0.1957   36.7368    0.4065 C   0  0  0  0  0  0  0  0  0  0  0  0
    0.2578   35.9332    1.3107 O   0  0  0  0  0  0  0  0  0  0  0  0
    5.0868   36.4937    1.8426 C   0  0  0  0  0  0  0  0  0  0  0  0
    4.1536   37.1863    2.4420 N   0  0  0  0  0  0  0  0  0  0  0  0
    2.8095   38.7885    0.2648 C   0  0  0  0  0  0  0  0  0  0  0  0
    1.1181   32.3339   -0.6666 C   0  0  0  0  0  0  0  0  0  0  0  0
    7.0923   33.5678   -1.1781 C   0  0  2  0  0  0  0  0  0  0  0  0
    8.3873   32.7796   -1.2047 N   0  0  0  0  0  0  0  0  0  0  0  0
    2.9781   35.5260   -1.2246 C   0  0  2  0  0  0  0  0  0  0  0  0
    0.9841   34.3412   -3.0921 C   0  0  1  0  0  0  0  0  0  0  0  0
    1.1258   35.6471   -2.6540 O   0  0  0  0  0  0  0  0  0  0  0  0
    6.7644   33.9980    0.2642 C   0  0  1  0  0  0  0  0  0  0  0  0
    7.7861   34.8528    0.6807 O   0  0  0  0  0  0  0  0  0  0  0  0
    1.4740   35.7227   -1.3804 C   0  0  2  0  0  0  0  0  0  0  0  0
   -0.0073   33.5018   -2.3166 C   0  0  1  0  0  0  0  0  0  0  0  0
    0.3470   33.5351   -0.9398 N   0  0  0  0  0  0  0  0  0  0  0  0
    5.4481   34.7814    0.3550 C   0  0  2  0  0  0  0  0  0  0  0  0
    5.0983   35.2079    1.7311 N   0  0  0  0  0  0  0  0  0  0  0  0
    1.2720   36.9613   -0.6215 C   0  0  1  0  0  0  0  0  0  0  0  0
    0.9164   37.9793   -1.5593 O   0  0  0  0  0  0  0  0  0  0  0  0
   -1.2979   33.9910   -2.4617 C   0  0  2  0  0  0  0  0  0  0  0  0
   -2.1813   33.0129   -1.9740 O   0  0  0  0  0  0  0  0  0  0  0  0
    4.3363   33.8997   -0.1913 C   0  0  1  0  0  0  0  0  0  0  0  0
    3.1225   34.6300   -0.1084 O   0  0  0  0  0  0  0  0  0  0  0  0
    2.5417   37.3371    0.0126 C   0  0  1  0  0  0  0  0  0  0  0  0
    3.5320   36.7600   -0.8295 O   0  0  0  0  0  0  0  0  0  0  0  0
   -1.5966   34.2592   -3.9134 C   0  0  1  0  0  0  0  0  0  0  0  0
   -2.7968   34.9687   -4.0062 O   0  0  0  0  0  0  0  0  0  0  0  0
    4.6421   33.4996   -1.6627 C   0  0  2  0  0  0  0  0  0  0  0  0
    3.5840   32.6822   -2.1603 O   0  0  0  0  0  0  0  0  0  0  0  0
   -0.5124   35.0937   -4.5053 C   0  0  1  0  0  0  0  0  0  0  0  0
    0.6823   34.3733   -4.4106 O   0  0  0  0  0  0  0  0  0  0  0  0
    5.9655   32.7074   -1.7091 C   0  0  1  0  0  0  0  0  0  0  0  0
    6.2654   32.3272   -3.0620 O   0  0  0  0  0  0  0  0  0  0  0  0
   -0.7724   35.3736   -5.9987 C   0  0  0  0  0  0  0  0  0  0  0  0
   -0.1758   36.6161   -6.3527 O   0  0  0  0  0  0  0  0  0  0  0  0
    9.5292   32.8601   -3.1840 N   0  0  0  0  0  0  0  0  0  0  0  0
    6.0672   37.0958    1.2923 N   0  0  0  0  0  0  0  0  0  0  0  0
  1  2  1  0  0  0  0
  1 39  1  0  0  0  0
  3  4  1  0  0  0  0
  5  6  1  0  0  0  0
  5 40  1  0  0  0  0
  9 10  1  1  0  0  0
  9 14  1  0  0  0  0
  9 35  1  0  0  0  0
 10  1  1  0  0  0  0
 11 16  1  0  0  0  0
 11 28  1  0  0  0  0
 11 26  1  1  0  0  0
 12 17  1  0  0  0  0
 12 34  1  0  0  0  0
 12 13  1  1  0  0  0
 14 15  1  6  0  0  0
 14 19  1  0  0  0  0
 16 13  1  6  0  0  0
 16 21  1  0  0  0  0
 17 18  1  1  0  0  0
 17 23  1  0  0  0  0
 18  8  1  0  0  0  0
 19 20  1  1  0  0  0
 19 25  1  0  0  0  0
 20  5  1  0  0  0  0
 21  3  1  1  0  0  0
 21 22  1  0  0  0  0
 21 27  1  0  0  0  0
 23 24  1  6  0  0  0
 23 29  1  0  0  0  0
 25 26  1  6  0  0  0
 25 31  1  0  0  0  0
 27  7  1  6  0  0  0
 27 28  1  0  0  0  0
 29 30  1  1  0  0  0
 29 33  1  0  0  0  0
 31 32  1  1  0  0  0
 31 35  1  0  0  0  0
 33 34  1  0  0  0  0
 33 37  1  6  0  0  0
 35 36  1  6  0  0  0
 37 38  1  0  0  0  0
M  END
>  <CHROM.1>
-122.34186229,79.12311311,154.16302475,56.97673592,81.77472529,-97.16548535
115.97157298,134.60198057,61.69313120,82.26255774,151.46764521,3.02939572
34.88517966,-1.43337560,-0.17924982,0.25924299,-2.19666438

>  <Name>
1nta_lig

>  <RI>
0

>  <Rbt.Current_Directory>
/home/itssahil/PROJECTS/Mol_Feturizer/New_Systems/rnas/1nta

>  <Rbt.Executable>
rbdock ($Id: //depot/dev/client3/rdock/2013.1/src/exe/rbdock.cxx#4 $)

>  <Rbt.Library>
libRbt.so (2013.1, Build901 2013/11/27)

>  <Rbt.Parameter_File>
/export/apps/rDock/src/rDock_2013.1_src/data/scripts/dock_solv.prm

>  <Rbt.Receptor>
prm/pocket_docking_2.prm

>  <SCORE>
-14.9487

>  <SCORE.INTER>
-3.55423

>  <SCORE.INTER.CONST>
1

>  <SCORE.INTER.POLAR>
-1.23975

>  <SCORE.INTER.ROT>
11

>  <SCORE.INTER.SOLV>
27.4195

>  <SCORE.INTER.VDW>
-18.3101

>  <SCORE.INTER.norm>
-0.0888558

>  <SCORE.INTRA>
-13.3136

>  <SCORE.INTRA.DIHEDRAL>
-4.96003

>  <SCORE.INTRA.DIHEDRAL.0>
19.0336

>  <SCORE.INTRA.POLAR>
0

>  <SCORE.INTRA.POLAR.0>
0

>  <SCORE.INTRA.REPUL>
0

>  <SCORE.INTRA.REPUL.0>
0

>  <SCORE.INTRA.SOLV>
3.02966

>  <SCORE.INTRA.SOLV.lig_0>
-97.5861

>  <SCORE.INTRA.VDW>
-12.3484

>  <SCORE.INTRA.VDW.0>
11.7669

>  <SCORE.INTRA.norm>
-0.33284

>  <SCORE.RESTR>
1.91908

>  <SCORE.RESTR.CAVITY>
1.91908

>  <SCORE.RESTR.norm>
0.047977

>  <SCORE.SYSTEM>
0

>  <SCORE.SYSTEM.CONST>
0

>  <SCORE.SYSTEM.DIHEDRAL>
0

>  <SCORE.SYSTEM.SOLV>
0

>  <SCORE.SYSTEM.norm>
0

>  <SCORE.heavy>
40

>  <SCORE.norm>
-0.373719

>  <RMSD>
4.420

$$$$
1nta_lig
 OpenBabel11021811403D
libRbt.so/2013.1/901 2013/11/27
 40 42  0  0  0  0  0  0  0  0999 V2000
    7.2902   32.5964   -3.0583 C   0  0  0  0  0  0  0  0  0  0  0  0
    8.1372   32.3904   -2.1201 N   0  0  0  0  0  0  0  0  0  0  0  0
   -1.8813   35.0526   -0.0027 C   0  0  0  0  0  0  0  0  0  0  0  0
   -2.9349   34.6137    0.4029 O   0  0  0  0  0  0  0  0  0  0  0  0
    0.9091   32.7108   -2.9511 C   0  0  0  0  0  0  0  0  0  0  0  0
    1.0951   31.8926   -3.9539 N   0  0  0  0  0  0  0  0  0  0  0  0
   -0.9106   34.6823    3.1567 C   0  0  0  0  0  0  0  0  0  0  0  0
   -1.1229   39.3345   -3.3816 C   0  0  0  0  0  0  0  0  0  0  0  0
    5.3595   33.5315   -2.0591 C   0  0  2  0  0  0  0  0  0  0  0  0
    6.5752   33.7061   -2.9482 N   0  0  0  0  0  0  0  0  0  0  0  0
    1.4427   35.6904    0.6395 C   0  0  2  0  0  0  0  0  0  0  0  0
    0.9448   37.9035   -1.3987 C   0  0  1  0  0  0  0  0  0  0  0  0
    0.3461   37.5870   -0.1909 O   0  0  0  0  0  0  0  0  0  0  0  0
    4.0715   33.7507   -2.8752 C   0  0  1  0  0  0  0  0  0  0  0  0
    4.0272   32.7526   -3.8497 O   0  0  0  0  0  0  0  0  0  0  0  0
    0.2021   36.2835   -0.0194 C   0  0  2  0  0  0  0  0  0  0  0  0
    0.6655   39.2981   -1.9143 C   0  0  1  0  0  0  0  0  0  0  0  0
   -0.7426   39.4830   -1.9869 N   0  0  0  0  0  0  0  0  0  0  0  0
    2.8062   33.6092   -2.0186 C   0  0  2  0  0  0  0  0  0  0  0  0
    1.5463   33.8187   -2.7716 N   0  0  0  0  0  0  0  0  0  0  0  0
   -0.8567   35.7552    0.8471 C   0  0  1  0  0  0  0  0  0  0  0  0
   -1.4147   36.8626    1.5573 O   0  0  0  0  0  0  0  0  0  0  0  0
    1.2033   40.2599   -1.0707 C   0  0  2  0  0  0  0  0  0  0  0  0
    1.1684   41.4896   -1.7501 O   0  0  0  0  0  0  0  0  0  0  0  0
    2.8861   34.6235   -0.8887 C   0  0  1  0  0  0  0  0  0  0  0  0
    1.7159   34.4859   -0.0980 O   0  0  0  0  0  0  0  0  0  0  0  0
   -0.2535   34.8359    1.8201 C   0  0  1  0  0  0  0  0  0  0  0  0
    1.0866   35.2960    1.9446 O   0  0  0  0  0  0  0  0  0  0  0  0
    2.6287   39.9167   -0.7257 C   0  0  1  0  0  0  0  0  0  0  0  0
    3.0621   40.7580    0.3022 O   0  0  0  0  0  0  0  0  0  0  0  0
    4.1628   34.3774   -0.0354 C   0  0  2  0  0  0  0  0  0  0  0  0
    4.2146   35.3311    1.0244 O   0  0  0  0  0  0  0  0  0  0  0  0
    2.7051   38.5086   -0.2420 C   0  0  1  0  0  0  0  0  0  0  0  0
    2.2731   37.6758   -1.2789 O   0  0  0  0  0  0  0  0  0  0  0  0
    5.4102   34.5381   -0.9294 C   0  0  1  0  0  0  0  0  0  0  0  0
    6.6018   34.3152   -0.1580 O   0  0  0  0  0  0  0  0  0  0  0  0
    4.1543   38.1122    0.1029 C   0  0  0  0  0  0  0  0  0  0  0  0
    4.5496   38.7771    1.2974 O   0  0  0  0  0  0  0  0  0  0  0  0
    7.1366   31.7789   -4.0434 N   0  0  0  0  0  0  0  0  0  0  0  0
    0.0244   32.4441   -2.0722 N   0  0  0  0  0  0  0  0  0  0  0  0
  1  2  1  0  0  0  0
  1 39  1  0  0  0  0
  3  4  1  0  0  0  0
  5  6  1  0  0  0  0
  5 40  1  0  0  0  0
  9 10  1  6  0  0  0
  9 14  1  0  0  0  0
  9 35  1  0  0  0  0
 10  1  1  0  0  0  0
 11 16  1  0  0  0  0
 11 28  1  0  0  0  0
 11 26  1  6  0  0  0
 12 17  1  0  0  0  0
 12 34  1  0  0  0  0
 12 13  1  1  0  0  0
 14 15  1  6  0  0  0
 14 19  1  0  0  0  0
 16 13  1  1  0  0  0
 16 21  1  0  0  0  0
 17 18  1  1  0  0  0
 17 23  1  0  0  0  0
 18  8  1  0  0  0  0
 19 20  1  6  0  0  0
 19 25  1  0  0  0  0
 20  5  1  0  0  0  0
 21  3  1  6  0  0  0
 21 22  1  0  0  0  0
 21 27  1  0  0  0  0
 23 24  1  6  0  0  0
 23 29  1  0  0  0  0
 25 26  1  1  0  0  0
 25 31  1  0  0  0  0
 27  7  1  1  0  0  0
 27 28  1  0  0  0  0
 29 30  1  1  0  0  0
 29 33  1  0  0  0  0
 31 32  1  1  0  0  0
 31 35  1  0  0  0  0
 33 34  1  0  0  0  0
 33 37  1  6  0  0  0
 35 36  1  1  0  0  0
 37 38  1  0  0  0  0
M  END
>  <CHROM.1>
-117.05538074,-84.23290378,109.39377830,156.99829391,88.59704150,-101.91113088
107.77844968,-87.64116678,-173.13912376,-157.31106150,71.83267943,2.23677650
35.81265146,-0.90420348,-0.76543274,0.24662882,0.15998480

>  <Name>
1nta_lig

>  <RI>
0

>  <Rbt.Current_Directory>
/home/itssahil/PROJECTS/Mol_Feturizer/New_Systems/rnas/1nta

>  <Rbt.Executable>
rbdock ($Id: //depot/dev/client3/rdock/2013.1/src/exe/rbdock.cxx#4 $)

>  <Rbt.Library>
libRbt.so (2013.1, Build901 2013/11/27)

>  <Rbt.Parameter_File>
/export/apps/rDock/src/rDock_2013.1_src/data/scripts/dock_solv.prm

>  <Rbt.Receptor>
prm/pocket_docking_3.prm

>  <SCORE>
-21.989

>  <SCORE.INTER>
-1.82972

>  <SCORE.INTER.CONST>
1

>  <SCORE.INTER.POLAR>
-0.94127

>  <SCORE.INTER.ROT>
11

>  <SCORE.INTER.SOLV>
21.3633

>  <SCORE.INTER.VDW>
-16.1367

>  <SCORE.INTER.norm>
-0.045743

>  <SCORE.INTRA>
-20.1644

>  <SCORE.INTRA.DIHEDRAL>
0.626211

>  <SCORE.INTRA.DIHEDRAL.0>
19.0336

>  <SCORE.INTRA.POLAR>
0

>  <SCORE.INTRA.POLAR.0>
0

>  <SCORE.INTRA.REPUL>
0.0221539

>  <SCORE.INTRA.REPUL.0>
0

>  <SCORE.INTRA.SOLV>
-4.04728

>  <SCORE.INTRA.SOLV.lig_0>
-97.5861

>  <SCORE.INTRA.VDW>
-18.5646

>  <SCORE.INTRA.VDW.0>
11.7669

>  <SCORE.INTRA.norm>
-0.50411

>  <SCORE.RESTR>
0.00506045

>  <SCORE.RESTR.CAVITY>
0.00506045

>  <SCORE.RESTR.norm>
0.000126511

>  <SCORE.SYSTEM>
0

>  <SCORE.SYSTEM.CONST>
0

>  <SCORE.SYSTEM.DIHEDRAL>
0

>  <SCORE.SYSTEM.SOLV>
0

>  <SCORE.SYSTEM.norm>
0

>  <SCORE.heavy>
40

>  <SCORE.norm>
-0.549726

>  <RMSD>
4.436

$$$$
1nta_lig
 OpenBabel11021811403D
libRbt.so/2013.1/901 2013/11/27
 40 42  0  0  0  0  0  0  0  0999 V2000
    8.1424   33.1657   -1.6425 C   0  0  0  0  0  0  0  0  0  0  0  0
    7.8507   32.8003   -2.8348 N   0  0  0  0  0  0  0  0  0  0  0  0
   -1.2499   36.6291   -0.5350 C   0  0  0  0  0  0  0  0  0  0  0  0
   -1.9283   37.3988    0.1090 O   0  0  0  0  0  0  0  0  0  0  0  0
    4.1014   37.0770    1.3992 C   0  0  0  0  0  0  0  0  0  0  0  0
    4.5212   37.7109    0.3354 N   0  0  0  0  0  0  0  0  0  0  0  0
    1.1027   38.9078    0.0432 C   0  0  0  0  0  0  0  0  0  0  0  0
   -1.3448   37.1298   -6.7562 C   0  0  0  0  0  0  0  0  0  0  0  0
    5.9323   33.6271   -0.9332 C   0  0  2  0  0  0  0  0  0  0  0  0
    7.2351   32.8812   -0.7203 N   0  0  0  0  0  0  0  0  0  0  0  0
    1.9597   35.7426   -1.4188 C   0  0  2  0  0  0  0  0  0  0  0  0
   -0.7146   35.4459   -3.7933 C   0  0  1  0  0  0  0  0  0  0  0  0
    0.5294   35.7634   -3.2744 O   0  0  0  0  0  0  0  0  0  0  0  0
    5.5251   34.3602    0.3589 C   0  0  1  0  0  0  0  0  0  0  0  0
    6.5148   35.3083    0.6232 O   0  0  0  0  0  0  0  0  0  0  0  0
    0.5330   35.8125   -1.9527 C   0  0  2  0  0  0  0  0  0  0  0  0
   -0.7976   35.4143   -5.3035 C   0  0  1  0  0  0  0  0  0  0  0  0
   -0.3447   36.6633   -5.8105 N   0  0  0  0  0  0  0  0  0  0  0  0
    4.1978   35.1153    0.2085 C   0  0  2  0  0  0  0  0  0  0  0  0
    3.7723   35.8296    1.4360 N   0  0  0  0  0  0  0  0  0  0  0  0
    0.0256   36.9934   -1.2464 C   0  0  1  0  0  0  0  0  0  0  0  0
   -0.1763   38.0168   -2.2231 O   0  0  0  0  0  0  0  0  0  0  0  0
   -0.0055   34.4018   -5.8266 C   0  0  2  0  0  0  0  0  0  0  0  0
   -0.3566   34.2416   -7.1779 O   0  0  0  0  0  0  0  0  0  0  0  0
    3.1253   34.1101   -0.1804 C   0  0  1  0  0  0  0  0  0  0  0  0
    1.9012   34.8140   -0.3217 O   0  0  0  0  0  0  0  0  0  0  0  0
    1.0497   37.4511   -0.2990 C   0  0  1  0  0  0  0  0  0  0  0  0
    2.2727   37.0018   -0.8693 O   0  0  0  0  0  0  0  0  0  0  0  0
   -0.2480   33.1118   -5.0879 C   0  0  1  0  0  0  0  0  0  0  0  0
    0.7232   32.1818   -5.4676 O   0  0  0  0  0  0  0  0  0  0  0  0
    3.5116   33.3995   -1.5088 C   0  0  2  0  0  0  0  0  0  0  0  0
    2.4894   32.4690   -1.8620 O   0  0  0  0  0  0  0  0  0  0  0  0
   -0.1279   33.3415   -3.6198 C   0  0  1  0  0  0  0  0  0  0  0  0
   -1.1059   34.2700   -3.2503 O   0  0  0  0  0  0  0  0  0  0  0  0
    4.8438   32.6458   -1.3128 C   0  0  1  0  0  0  0  0  0  0  0  0
    5.2178   31.9809   -2.5305 O   0  0  0  0  0  0  0  0  0  0  0  0
   -0.3898   32.0459   -2.8265 C   0  0  0  0  0  0  0  0  0  0  0  0
   -0.1008   32.2726   -1.4517 O   0  0  0  0  0  0  0  0  0  0  0  0
    9.2420   33.7744   -1.3550 N   0  0  0  0  0  0  0  0  0  0  0  0
    4.0173   37.6943    2.5120 N   0  0  0  0  0  0  0  0  0  0  0  0
  1  2  1  0  0  0  0
  1 39  1  0  0  0  0
  3  4  1  0  0  0  0
  5  6  1  0  0  0  0
  5 40  1  0  0  0  0
  9 10  1  1  0  0  0
  9 14  1  0  0  0  0
  9 35  1  0  0  0  0
 10  1  1  0  0  0  0
 11 16  1  0  0  0  0
 11 28  1  0  0  0  0
 11 26  1  1  0  0  0
 12 17  1  0  0  0  0
 12 34  1  0  0  0  0
 12 13  1  6  0  0  0
 14 15  1  6  0  0  0
 14 19  1  0  0  0  0
 16 13  1  6  0  0  0
 16 21  1  0  0  0  0
 17 18  1  6  0  0  0
 17 23  1  0  0  0  0
 18  8  1  0  0  0  0
 19 20  1  1  0  0  0
 19 25  1  0  0  0  0
 20  5  1  0  0  0  0
 21  3  1  1  0  0  0
 21 22  1  0  0  0  0
 21 27  1  0  0  0  0
 23 24  1  6  0  0  0
 23 29  1  0  0  0  0
 25 26  1  6  0  0  0
 25 31  1  0  0  0  0
 27  7  1  6  0  0  0
 27 28  1  0  0  0  0
 29 30  1  6  0  0  0
 29 33  1  0  0  0  0
 31 32  1  1  0  0  0
 31 35  1  0  0  0  0
 33 34  1  0  0  0  0
 33 37  1  1  0  0  0
 35 36  1  6  0  0  0
 37 38  1  0  0  0  0
M  END
>  <CHROM.1>
-127.74776077,-64.99319296,148.88738204,178.22980055,162.91291416,-130.36564183
97.35333263,12.33038355,-178.03625361,65.31183412,172.76775694,2.23729692
34.97429594,-1.93285968,-0.28721572,0.44257530,-2.28894577

>  <Name>
1nta_lig

>  <RI>
0

>  <Rbt.Current_Directory>
/home/itssahil/PROJECTS/Mol_Feturizer/New_Systems/rnas/1nta

>  <Rbt.Executable>
rbdock ($Id: //depot/dev/client3/rdock/2013.1/src/exe/rbdock.cxx#4 $)

>  <Rbt.Library>
libRbt.so (2013.1, Build901 2013/11/27)

>  <Rbt.Parameter_File>
/export/apps/rDock/src/rDock_2013.1_src/data/scripts/dock_solv.prm

>  <Rbt.Receptor>
prm/pocket_docking_2.prm

>  <SCORE>
-17.7748

>  <SCORE.INTER>
-0.360103

>  <SCORE.INTER.CONST>
1

>  <SCORE.INTER.POLAR>
-0.615258

>  <SCORE.INTER.ROT>
11

>  <SCORE.INTER.SOLV>
23.2295

>  <SCORE.INTER.VDW>
-16.8657

>  <SCORE.INTER.norm>
-0.00900258

>  <SCORE.INTRA>
-19.3701

>  <SCORE.INTRA.DIHEDRAL>
-9.09158

>  <SCORE.INTRA.DIHEDRAL.0>
19.0336

>  <SCORE.INTRA.POLAR>
0

>  <SCORE.INTRA.POLAR.0>
0

>  <SCORE.INTRA.REPUL>
0

>  <SCORE.INTRA.REPUL.0>
0

>  <SCORE.INTRA.SOLV>
0.202542

>  <SCORE.INTRA.SOLV.lig_0>
-97.5861

>  <SCORE.INTRA.VDW>
-14.9256

>  <SCORE.INTRA.VDW.0>
11.7669

>  <SCORE.INTRA.norm>
-0.484254

>  <SCORE.RESTR>
1.95546

>  <SCORE.RESTR.CAVITY>
1.95546

>  <SCORE.RESTR.norm>
0.0488865

>  <SCORE.SYSTEM>
0

>  <SCORE.SYSTEM.CONST>
0

>  <SCORE.SYSTEM.DIHEDRAL>
0

>  <SCORE.SYSTEM.SOLV>
0

>  <SCORE.SYSTEM.norm>
0

>  <SCORE.heavy>
40

>  <SCORE.norm>
-0.44437

>  <RMSD>
4.457

$$$$
1nta_lig
 OpenBabel11021811403D
libRbt.so/2013.1/901 2013/11/27
 40 42  0  0  0  0  0  0  0  0999 V2000
   11.4433   31.4777   -2.4238 C   0  0  0  0  0  0  0  0  0  0  0  0
   12.1990   30.4489   -2.5265 N   0  0  0  0  0  0  0  0  0  0  0  0
    1.9008   34.5792   -1.8727 C   0  0  0  0  0  0  0  0  0  0  0  0
    2.3352   34.2430   -2.9523 O   0  0  0  0  0  0  0  0  0  0  0  0
    7.7398   35.8511    0.6389 C   0  0  0  0  0  0  0  0  0  0  0  0
    8.9867   36.1808    0.4239 N   0  0  0  0  0  0  0  0  0  0  0  0
    2.4330   32.2852    0.4759 C   0  0  0  0  0  0  0  0  0  0  0  0
    0.2759   37.2191    2.0280 C   0  0  0  0  0  0  0  0  0  0  0  0
    9.3232   32.3594   -1.8507 C   0  0  2  0  0  0  0  0  0  0  0  0
   10.4302   31.3596   -1.5786 N   0  0  0  0  0  0  0  0  0  0  0  0
    4.9834   34.6777   -0.3377 C   0  0  2  0  0  0  0  0  0  0  0  0
    2.7038   37.4774   -0.2813 C   0  0  1  0  0  0  0  0  0  0  0  0
    3.7870   36.6631    0.0032 O   0  0  0  0  0  0  0  0  0  0  0  0
    8.8639   33.0117   -0.5329 C   0  0  1  0  0  0  0  0  0  0  0  0
    9.9536   33.7187   -0.0224 O   0  0  0  0  0  0  0  0  0  0  0  0
    3.7880   35.5486   -0.7088 C   0  0  2  0  0  0  0  0  0  0  0  0
    2.0732   38.1577    0.9138 C   0  0  1  0  0  0  0  0  0  0  0  0
    1.7194   37.1649    1.8684 N   0  0  0  0  0  0  0  0  0  0  0  0
    7.7254   34.0183   -0.7454 C   0  0  2  0  0  0  0  0  0  0  0  0
    7.2545   34.6628    0.5040 N   0  0  0  0  0  0  0  0  0  0  0  0
    2.6895   34.5841   -0.5906 C   0  0  1  0  0  0  0  0  0  0  0  0
    1.8950   34.9822    0.5284 O   0  0  0  0  0  0  0  0  0  0  0  0
    2.9550   39.0540    1.5015 C   0  0  2  0  0  0  0  0  0  0  0  0
    2.2198   39.8490    2.3973 O   0  0  0  0  0  0  0  0  0  0  0  0
    6.5634   33.2849   -1.3965 C   0  0  1  0  0  0  0  0  0  0  0  0
    5.5152   34.2208   -1.5939 O   0  0  0  0  0  0  0  0  0  0  0  0
    3.2553   33.2585   -0.3104 C   0  0  1  0  0  0  0  0  0  0  0  0
    4.4918   33.5404    0.3334 O   0  0  0  0  0  0  0  0  0  0  0  0
    3.5871   39.9313    0.4531 C   0  0  1  0  0  0  0  0  0  0  0  0
    4.6353   40.6497    1.0342 O   0  0  0  0  0  0  0  0  0  0  0  0
    7.0116   32.6624   -2.7494 C   0  0  2  0  0  0  0  0  0  0  0  0
    5.9065   31.9884   -3.3491 O   0  0  0  0  0  0  0  0  0  0  0  0
    4.1477   39.0866   -0.6398 C   0  0  1  0  0  0  0  0  0  0  0  0
    3.0906   38.3756   -1.2163 O   0  0  0  0  0  0  0  0  0  0  0  0
    8.1484   31.6513   -2.4914 C   0  0  1  0  0  0  0  0  0  0  0  0
    8.5763   31.0637   -3.7309 O   0  0  0  0  0  0  0  0  0  0  0  0
    4.7872   39.9509   -1.7445 C   0  0  0  0  0  0  0  0  0  0  0  0
    3.8995   41.0108   -2.0819 O   0  0  0  0  0  0  0  0  0  0  0  0
   11.6479   32.5565   -3.0994 N   0  0  0  0  0  0  0  0  0  0  0  0
    6.9105   36.7351    1.0355 N   0  0  0  0  0  0  0  0  0  0  0  0
  1  2  1  0  0  0  0
  1 39  1  0  0  0  0
  3  4  1  0  0  0  0
  5  6  1  0  0  0  0
  5 40  1  0  0  0  0
  9 10  1  1  0  0  0
  9 14  1  0  0  0  0
  9 35  1  0  0  0  0
 10  1  1  0  0  0  0
 11 16  1  0  0  0  0
 11 28  1  0  0  0  0
 11 26  1  6  0  0  0
 12 17  1  0  0  0  0
 12 34  1  0  0  0  0
 12 13  1  1  0  0  0
 14 15  1  6  0  0  0
 14 19  1  0  0  0  0
 16 13  1  1  0  0  0
 16 21  1  0  0  0  0
 17 18  1  1  0  0  0
 17 23  1  0  0  0  0
 18  8  1  0  0  0  0
 19 20  1  1  0  0  0
 19 25  1  0  0  0  0
 20  5  1  0  0  0  0
 21  3  1  6  0  0  0
 21 22  1  0  0  0  0
 21 27  1  0  0  0  0
 23 24  1  1  0  0  0
 23 29  1  0  0  0  0
 25 26  1  6  0  0  0
 25 31  1  0  0  0  0
 27  7  1  1  0  0  0
 27 28  1  0  0  0  0
 29 30  1  1  0  0  0
 29 33  1  0  0  0  0
 31 32  1  1  0  0  0
 31 35  1  0  0  0  0
 33 34  1  0  0  0  0
 33 37  1  6  0  0  0
 35 36  1  6  0  0  0
 37 38  1  0  0  0  0
M  END
>  <CHROM.1>
-134.16240739,-159.52465446,-174.22867483,140.08059347,-178.87077894,-117.86680174
100.94576252,-44.46553168,63.63034608,-66.42370693,-46.79307808,5.49542210
35.26931121,-0.66936689,-0.77170030,0.09889206,0.27661768

>  <Name>
1nta_lig

>  <RI>
2.40834e+07

>  <Rbt.Current_Directory>
/home/itssahil/PROJECTS/Mol_Feturizer/New_Systems/rnas/1nta

>  <Rbt.Executable>
rbdock ($Id: //depot/dev/client3/rdock/2013.1/src/exe/rbdock.cxx#4 $)

>  <Rbt.Library>
libRbt.so (2013.1, Build901 2013/11/27)

>  <Rbt.Parameter_File>
/export/apps/rDock/src/rDock_2013.1_src/data/scripts/dock_solv.prm

>  <Rbt.Receptor>
prm/blind_docking_80.prm

>  <SCORE>
-16.1765

>  <SCORE.INTER>
-3.1114

>  <SCORE.INTER.CONST>
1

>  <SCORE.INTER.POLAR>
-1.69065

>  <SCORE.INTER.ROT>
11

>  <SCORE.INTER.SOLV>
38.6569

>  <SCORE.INTER.VDW>
-20.2577

>  <SCORE.INTER.norm>
-0.0777849

>  <SCORE.INTRA>
-15.7301

>  <SCORE.INTRA.DIHEDRAL>
-7.93785

>  <SCORE.INTRA.DIHEDRAL.0>
19.0336

>  <SCORE.INTRA.POLAR>
0

>  <SCORE.INTRA.POLAR.0>
0

>  <SCORE.INTRA.REPUL>
0.0100226

>  <SCORE.INTRA.REPUL.0>
0

>  <SCORE.INTRA.SOLV>
-0.898614

>  <SCORE.INTRA.SOLV.lig_0>
-97.5861

>  <SCORE.INTRA.VDW>
-11.362

>  <SCORE.INTRA.VDW.0>
11.7669

>  <SCORE.INTRA.norm>
-0.393252

>  <SCORE.RESTR>
2.66499

>  <SCORE.RESTR.CAVITY>
2.66499

>  <SCORE.RESTR.norm>
0.0666247

>  <SCORE.SYSTEM>
0

>  <SCORE.SYSTEM.CONST>
0

>  <SCORE.SYSTEM.DIHEDRAL>
0

>  <SCORE.SYSTEM.SOLV>
0

>  <SCORE.SYSTEM.norm>
0

>  <SCORE.heavy>
40

>  <SCORE.norm>
-0.404412

>  <RMSD>
4.461

$$$$
1nta_lig
 OpenBabel11021811403D
libRbt.so/2013.1/901 2013/11/27
 40 42  0  0  0  0  0  0  0  0999 V2000
    6.8377   32.0687   -2.1368 C   0  0  0  0  0  0  0  0  0  0  0  0
    7.7689   31.7736   -2.9649 N   0  0  0  0  0  0  0  0  0  0  0  0
    0.1176   38.4214    1.7947 C   0  0  0  0  0  0  0  0  0  0  0  0
   -1.0041   38.1373    2.1530 O   0  0  0  0  0  0  0  0  0  0  0  0
    1.3596   33.9826   -2.8881 C   0  0  0  0  0  0  0  0  0  0  0  0
    1.1462   33.4208   -4.0494 N   0  0  0  0  0  0  0  0  0  0  0  0
    2.4616   40.3124    0.3835 C   0  0  0  0  0  0  0  0  0  0  0  0
   -3.6615   40.0762   -1.9495 C   0  0  0  0  0  0  0  0  0  0  0  0
    5.5372   33.7294   -1.0637 C   0  0  2  0  0  0  0  0  0  0  0  0
    6.8622   33.3074   -1.6680 N   0  0  0  0  0  0  0  0  0  0  0  0
    1.5606   37.1532   -1.0650 C   0  0  2  0  0  0  0  0  0  0  0  0
   -2.0103   37.5609   -0.7834 C   0  0  1  0  0  0  0  0  0  0  0  0
   -0.7429   37.4844   -1.3360 O   0  0  0  0  0  0  0  0  0  0  0  0
    4.5421   34.1024   -2.1788 C   0  0  1  0  0  0  0  0  0  0  0  0
    4.3139   32.9480   -2.9294 O   0  0  0  0  0  0  0  0  0  0  0  0
    0.2113   37.4525   -0.4208 C   0  0  2  0  0  0  0  0  0  0  0  0
   -3.1294   37.8322   -1.7645 C   0  0  1  0  0  0  0  0  0  0  0  0
   -2.8234   39.0178   -2.4876 N   0  0  0  0  0  0  0  0  0  0  0  0
    3.1873   34.5611   -1.6230 C   0  0  2  0  0  0  0  0  0  0  0  0
    2.2052   34.9329   -2.6697 N   0  0  0  0  0  0  0  0  0  0  0  0
    0.5339   38.6475    0.3659 C   0  0  1  0  0  0  0  0  0  0  0  0
   -0.1595   39.7462   -0.2291 O   0  0  0  0  0  0  0  0  0  0  0  0
   -3.2739   36.7825   -2.6607 C   0  0  2  0  0  0  0  0  0  0  0  0
   -4.4945   36.9621   -3.3336 O   0  0  0  0  0  0  0  0  0  0  0  0
    3.4300   35.7593   -0.7191 C   0  0  1  0  0  0  0  0  0  0  0  0
    2.1750   36.1770   -0.2053 O   0  0  0  0  0  0  0  0  0  0  0  0
    1.9768   38.9005    0.2672 C   0  0  1  0  0  0  0  0  0  0  0  0
    2.3441   38.3212   -0.9788 O   0  0  0  0  0  0  0  0  0  0  0  0
   -3.2927   35.4666   -1.9282 C   0  0  1  0  0  0  0  0  0  0  0  0
   -3.1959   34.4281   -2.8580 O   0  0  0  0  0  0  0  0  0  0  0  0
    4.3998   35.3743    0.4342 C   0  0  2  0  0  0  0  0  0  0  0  0
    4.6067   36.5072    1.2763 O   0  0  0  0  0  0  0  0  0  0  0  0
   -2.1208   35.3840   -1.0103 C   0  0  1  0  0  0  0  0  0  0  0  0
   -2.2296   36.4245   -0.0826 O   0  0  0  0  0  0  0  0  0  0  0  0
    5.7503   34.9291   -0.1651 C   0  0  1  0  0  0  0  0  0  0  0  0
    6.6616   34.5696    0.8861 O   0  0  0  0  0  0  0  0  0  0  0  0
   -2.1157   34.0569   -0.2259 C   0  0  0  0  0  0  0  0  0  0  0  0
   -3.2949   33.9773    0.5666 O   0  0  0  0  0  0  0  0  0  0  0  0
    5.9374   31.2190   -1.7765 N   0  0  0  0  0  0  0  0  0  0  0  0
    0.6864   33.6097   -1.8712 N   0  0  0  0  0  0  0  0  0  0  0  0
  1  2  1  0  0  0  0
  1 39  1  0  0  0  0
  3  4  1  0  0  0  0
  5  6  1  0  0  0  0
  5 40  1  0  0  0  0
  9 10  1  6  0  0  0
  9 14  1  0  0  0  0
  9 35  1  0  0  0  0
 10  1  1  0  0  0  0
 11 16  1  0  0  0  0
 11 28  1  0  0  0  0
 11 26  1  1  0  0  0
 12 17  1  0  0  0  0
 12 34  1  0  0  0  0
 12 13  1  6  0  0  0
 14 15  1  6  0  0  0
 14 19  1  0  0  0  0
 16 13  1  6  0  0  0
 16 21  1  0  0  0  0
 17 18  1  6  0  0  0
 17 23  1  0  0  0  0
 18  8  1  0  0  0  0
 19 20  1  6  0  0  0
 19 25  1  0  0  0  0
 20  5  1  0  0  0  0
 21  3  1  1  0  0  0
 21 22  1  0  0  0  0
 21 27  1  0  0  0  0
 23 24  1  1  0  0  0
 23 29  1  0  0  0  0
 25 26  1  1  0  0  0
 25 31  1  0  0  0  0
 27  7  1  6  0  0  0
 27 28  1  0  0  0  0
 29 30  1  6  0  0  0
 29 33  1  0  0  0  0
 31 32  1  1  0  0  0
 31 35  1  0  0  0  0
 33 34  1  0  0  0  0
 33 37  1  1  0  0  0
 35 36  1  1  0  0  0
 37 38  1  0  0  0  0
M  END
>  <CHROM.1>
-78.42349026,161.85214289,177.55333880,170.24068823,171.27843824,-104.24599163
100.02718643,-123.09435700,-56.97832840,-90.05239139,-61.11938455,1.17884775
35.91698517,-1.07615271,0.39499319,0.21053585,-2.62524108

>  <Name>
1nta_lig

>  <RI>
0

>  <Rbt.Current_Directory>
/home/itssahil/PROJECTS/Mol_Feturizer/New_Systems/rnas/1nta

>  <Rbt.Executable>
rbdock ($Id: //depot/dev/client3/rdock/2013.1/src/exe/rbdock.cxx#4 $)

>  <Rbt.Library>
libRbt.so (2013.1, Build901 2013/11/27)

>  <Rbt.Parameter_File>
/export/apps/rDock/src/rDock_2013.1_src/data/scripts/dock_solv.prm

>  <Rbt.Receptor>
prm/pocket_docking_4.prm

>  <SCORE>
-20.8353

>  <SCORE.INTER>
0.772542

>  <SCORE.INTER.CONST>
1

>  <SCORE.INTER.POLAR>
-1.60762

>  <SCORE.INTER.ROT>
11

>  <SCORE.INTER.SOLV>
19.6565

>  <SCORE.INTER.VDW>
-11.6117

>  <SCORE.INTER.norm>
0.0193136

>  <SCORE.INTRA>
-21.6078

>  <SCORE.INTRA.DIHEDRAL>
-11.0246

>  <SCORE.INTRA.DIHEDRAL.0>
19.0336

>  <SCORE.INTRA.POLAR>
0

>  <SCORE.INTRA.POLAR.0>
0

>  <SCORE.INTRA.REPUL>
0

>  <SCORE.INTRA.REPUL.0>
0

>  <SCORE.INTRA.SOLV>
-1.25202

>  <SCORE.INTRA.SOLV.lig_0>
-97.5861

>  <SCORE.INTRA.VDW>
-15.4695

>  <SCORE.INTRA.VDW.0>
11.7669

>  <SCORE.INTRA.norm>
-0.540196

>  <SCORE.RESTR>
0

>  <SCORE.RESTR.CAVITY>
0

>  <SCORE.RESTR.norm>
0

>  <SCORE.SYSTEM>
0

>  <SCORE.SYSTEM.CONST>
0

>  <SCORE.SYSTEM.DIHEDRAL>
0

>  <SCORE.SYSTEM.SOLV>
0

>  <SCORE.SYSTEM.norm>
0

>  <SCORE.heavy>
40

>  <SCORE.norm>
-0.520883

>  <RMSD>
4.485

$$$$
1nta_lig
 OpenBabel11021811403D
libRbt.so/2013.1/901 2013/11/27
 40 42  0  0  0  0  0  0  0  0999 V2000
    7.1089   32.4808   -3.0876 C   0  0  0  0  0  0  0  0  0  0  0  0
    6.8664   31.6547   -4.0357 N   0  0  0  0  0  0  0  0  0  0  0  0
   -1.5072   36.3141   -0.4765 C   0  0  0  0  0  0  0  0  0  0  0  0
   -1.8797   36.9490   -1.4384 O   0  0  0  0  0  0  0  0  0  0  0  0
    0.6562   32.9918   -2.4791 C   0  0  0  0  0  0  0  0  0  0  0  0
   -0.0516   32.6716   -1.4274 N   0  0  0  0  0  0  0  0  0  0  0  0
   -1.1557   35.8298    2.7951 C   0  0  0  0  0  0  0  0  0  0  0  0
    0.7616   36.9978   -4.2269 C   0  0  0  0  0  0  0  0  0  0  0  0
    5.2525   33.5849   -2.1206 C   0  0  2  0  0  0  0  0  0  0  0  0
    6.4007   33.6000   -3.1107 N   0  0  0  0  0  0  0  0  0  0  0  0
    1.7313   36.1977    0.6927 C   0  0  2  0  0  0  0  0  0  0  0  0
    2.0905   38.3995   -1.3784 C   0  0  1  0  0  0  0  0  0  0  0  0
    1.2439   38.2677   -0.2905 O   0  0  0  0  0  0  0  0  0  0  0  0
    3.9166   33.8021   -2.8563 C   0  0  1  0  0  0  0  0  0  0  0  0
    3.7421   32.7196   -3.7199 O   0  0  0  0  0  0  0  0  0  0  0  0
    0.7792   37.0372   -0.1523 C   0  0  2  0  0  0  0  0  0  0  0  0
    1.4057   38.6208   -2.7091 C   0  0  1  0  0  0  0  0  0  0  0  0
    0.4733   37.5684   -2.9217 N   0  0  0  0  0  0  0  0  0  0  0  0
    2.7183   33.8197   -1.8980 C   0  0  2  0  0  0  0  0  0  0  0  0
    1.4150   34.0316   -2.5723 N   0  0  0  0  0  0  0  0  0  0  0  0
   -0.4951   36.7907    0.5306 C   0  0  1  0  0  0  0  0  0  0  0  0
   -0.8881   38.0174    1.1492 O   0  0  0  0  0  0  0  0  0  0  0  0
    0.7294   39.8326   -2.7278 C   0  0  2  0  0  0  0  0  0  0  0  0
    0.3781   40.1035   -4.0613 O   0  0  0  0  0  0  0  0  0  0  0  0
    2.9416   34.9310   -0.8846 C   0  0  1  0  0  0  0  0  0  0  0  0
    1.8328   34.9405    0.0008 O   0  0  0  0  0  0  0  0  0  0  0  0
   -0.2795   35.7886    1.5817 C   0  0  1  0  0  0  0  0  0  0  0  0
    1.0938   35.9351    1.9216 O   0  0  0  0  0  0  0  0  0  0  0  0
    1.6141   40.9348   -2.2072 C   0  0  1  0  0  0  0  0  0  0  0  0
    0.8416   42.0825   -2.0113 O   0  0  0  0  0  0  0  0  0  0  0  0
    4.2678   34.6914   -0.1083 C   0  0  2  0  0  0  0  0  0  0  0  0
    4.4543   35.7374    0.8437 O   0  0  0  0  0  0  0  0  0  0  0  0
    2.1990   40.5345   -0.8957 C   0  0  1  0  0  0  0  0  0  0  0  0
    2.9724   39.3882   -1.1039 O   0  0  0  0  0  0  0  0  0  0  0  0
    5.4463   34.6903   -1.1044 C   0  0  1  0  0  0  0  0  0  0  0  0
    6.6825   34.4710   -0.4054 O   0  0  0  0  0  0  0  0  0  0  0  0
    3.1286   41.6308   -0.3386 C   0  0  0  0  0  0  0  0  0  0  0  0
    3.6695   41.1983    0.9046 O   0  0  0  0  0  0  0  0  0  0  0  0
    7.9860   32.2454   -2.1725 N   0  0  0  0  0  0  0  0  0  0  0  0
    0.6432   32.2347   -3.5054 N   0  0  0  0  0  0  0  0  0  0  0  0
  1  2  1  0  0  0  0
  1 39  1  0  0  0  0
  3  4  1  0  0  0  0
  5  6  1  0  0  0  0
  5 40  1  0  0  0  0
  9 10  1  6  0  0  0
  9 14  1  0  0  0  0
  9 35  1  0  0  0  0
 10  1  1  0  0  0  0
 11 16  1  0  0  0  0
 11 28  1  0  0  0  0
 11 26  1  6  0  0  0
 12 17  1  0  0  0  0
 12 34  1  0  0  0  0
 12 13  1  1  0  0  0
 14 15  1  6  0  0  0
 14 19  1  0  0  0  0
 16 13  1  1  0  0  0
 16 21  1  0  0  0  0
 17 18  1  1  0  0  0
 17 23  1  0  0  0  0
 18  8  1  0  0  0  0
 19 20  1  6  0  0  0
 19 25  1  0  0  0  0
 20  5  1  0  0  0  0
 21  3  1  6  0  0  0
 21 22  1  0  0  0  0
 21 27  1  0  0  0  0
 23 24  1  6  0  0  0
 23 29  1  0  0  0  0
 25 26  1  1  0  0  0
 25 31  1  0  0  0  0
 27  7  1  1  0  0  0
 27 28  1  0  0  0  0
 29 30  1  1  0  0  0
 29 33  1  0  0  0  0
 31 32  1  1  0  0  0
 31 35  1  0  0  0  0
 33 34  1  0  0  0  0
 33 37  1  6  0  0  0
 35 36  1  1  0  0  0
 37 38  1  0  0  0  0
M  END
>  <CHROM.1>
-121.96171117,101.62505722,93.33538082,83.38589904,88.06311219,-127.28400386
114.00616943,79.66866026,-60.90077324,-160.80126449,-179.50715896,2.25846803
36.29673765,-1.27586179,-0.94178005,0.28230645,0.04304632

>  <Name>
1nta_lig

>  <RI>
0

>  <Rbt.Current_Directory>
/home/itssahil/PROJECTS/Mol_Feturizer/New_Systems/rnas/1nta

>  <Rbt.Executable>
rbdock ($Id: //depot/dev/client3/rdock/2013.1/src/exe/rbdock.cxx#4 $)

>  <Rbt.Library>
libRbt.so (2013.1, Build901 2013/11/27)

>  <Rbt.Parameter_File>
/export/apps/rDock/src/rDock_2013.1_src/data/scripts/dock_solv.prm

>  <Rbt.Receptor>
prm/pocket_docking_4.prm

>  <SCORE>
-23.1236

>  <SCORE.INTER>
-1.57996

>  <SCORE.INTER.CONST>
1

>  <SCORE.INTER.POLAR>
-1.03282

>  <SCORE.INTER.ROT>
11

>  <SCORE.INTER.SOLV>
19.9185

>  <SCORE.INTER.VDW>
-15.1834

>  <SCORE.INTER.norm>
-0.0394991

>  <SCORE.INTRA>
-21.5436

>  <SCORE.INTRA.DIHEDRAL>
-2.77644

>  <SCORE.INTRA.DIHEDRAL.0>
19.0336

>  <SCORE.INTRA.POLAR>
0

>  <SCORE.INTRA.POLAR.0>
0

>  <SCORE.INTRA.REPUL>
0

>  <SCORE.INTRA.REPUL.0>
0

>  <SCORE.INTRA.SOLV>
-2.85835

>  <SCORE.INTRA.SOLV.lig_0>
-97.5861

>  <SCORE.INTRA.VDW>
-18.7262

>  <SCORE.INTRA.VDW.0>
11.7669

>  <SCORE.INTRA.norm>
-0.538591

>  <SCORE.RESTR>
0

>  <SCORE.RESTR.CAVITY>
0

>  <SCORE.RESTR.norm>
0

>  <SCORE.SYSTEM>
0

>  <SCORE.SYSTEM.CONST>
0

>  <SCORE.SYSTEM.DIHEDRAL>
0

>  <SCORE.SYSTEM.SOLV>
0

>  <SCORE.SYSTEM.norm>
0

>  <SCORE.heavy>
40

>  <SCORE.norm>
-0.57809

>  <RMSD>
4.519

$$$$
1nta_lig
 OpenBabel11021811403D
libRbt.so/2013.1/901 2013/11/27
 40 42  0  0  0  0  0  0  0  0999 V2000
    8.5179   32.7225   -1.7330 C   0  0  0  0  0  0  0  0  0  0  0  0
    9.6768   32.9348   -1.2310 N   0  0  0  0  0  0  0  0  0  0  0  0
   -0.7200   36.4352   -0.1376 C   0  0  0  0  0  0  0  0  0  0  0  0
   -0.7144   35.6959    0.8219 O   0  0  0  0  0  0  0  0  0  0  0  0
    4.8203   36.7517    1.7179 C   0  0  0  0  0  0  0  0  0  0  0  0
    3.9001   37.6549    1.9352 N   0  0  0  0  0  0  0  0  0  0  0  0
    1.5124   38.8927    0.0575 C   0  0  0  0  0  0  0  0  0  0  0  0
   -1.2991   37.2128   -5.8367 C   0  0  0  0  0  0  0  0  0  0  0  0
    6.3615   33.2667   -0.9242 C   0  0  2  0  0  0  0  0  0  0  0  0
    7.5790   32.3646   -0.8700 N   0  0  0  0  0  0  0  0  0  0  0  0
    2.4880   35.6408   -1.1104 C   0  0  2  0  0  0  0  0  0  0  0  0
   -0.3243   35.1111   -3.3023 C   0  0  1  0  0  0  0  0  0  0  0  0
    0.9639   35.3785   -2.8703 O   0  0  0  0  0  0  0  0  0  0  0  0
    6.1275   33.9225    0.4499 C   0  0  1  0  0  0  0  0  0  0  0  0
    7.2364   34.7273    0.7157 O   0  0  0  0  0  0  0  0  0  0  0  0
    1.0337   35.5714   -1.5638 C   0  0  2  0  0  0  0  0  0  0  0  0
   -0.5599   35.2886   -4.7861 C   0  0  1  0  0  0  0  0  0  0  0  0
   -0.1688   36.6052   -5.1547 N   0  0  0  0  0  0  0  0  0  0  0  0
    4.8909   34.8310    0.4604 C   0  0  2  0  0  0  0  0  0  0  0  0
    4.6323   35.4759    1.7701 N   0  0  0  0  0  0  0  0  0  0  0  0
    0.4912   36.7915   -0.9573 C   0  0  1  0  0  0  0  0  0  0  0  0
    0.1746   37.6894   -2.0229 O   0  0  0  0  0  0  0  0  0  0  0  0
    0.1814   34.3755   -5.5227 C   0  0  2  0  0  0  0  0  0  0  0  0
   -0.3040   34.3981   -6.8414 O   0  0  0  0  0  0  0  0  0  0  0  0
    3.6851   33.9899    0.0724 C   0  0  1  0  0  0  0  0  0  0  0  0
    2.5454   34.8353    0.0802 O   0  0  0  0  0  0  0  0  0  0  0  0
    1.5328   37.4068   -0.1254 C   0  0  1  0  0  0  0  0  0  0  0  0
    2.7500   36.9680   -0.7161 O   0  0  0  0  0  0  0  0  0  0  0  0
    0.0232   32.9904   -4.9526 C   0  0  1  0  0  0  0  0  0  0  0  0
    0.9568   32.1425   -5.5543 O   0  0  0  0  0  0  0  0  0  0  0  0
    3.8986   33.3619   -1.3343 C   0  0  2  0  0  0  0  0  0  0  0  0
    2.7538   32.5860   -1.6847 O   0  0  0  0  0  0  0  0  0  0  0  0
    0.2903   33.0155   -3.4861 C   0  0  1  0  0  0  0  0  0  0  0  0
   -0.6511   33.8632   -2.8941 O   0  0  0  0  0  0  0  0  0  0  0  0
    5.1432   32.4503   -1.2998 C   0  0  1  0  0  0  0  0  0  0  0  0
    5.3572   31.8589   -2.5919 O   0  0  0  0  0  0  0  0  0  0  0  0
    0.1184   31.6169   -2.8611 C   0  0  0  0  0  0  0  0  0  0  0  0
   -1.1497   31.0901   -3.2346 O   0  0  0  0  0  0  0  0  0  0  0  0
    8.2777   32.8429   -2.9940 N   0  0  0  0  0  0  0  0  0  0  0  0
    6.0021   37.1146    1.4048 N   0  0  0  0  0  0  0  0  0  0  0  0
  1  2  1  0  0  0  0
  1 39  1  0  0  0  0
  3  4  1  0  0  0  0
  5  6  1  0  0  0  0
  5 40  1  0  0  0  0
  9 10  1  1  0  0  0
  9 14  1  0  0  0  0
  9 35  1  0  0  0  0
 10  1  1  0  0  0  0
 11 16  1  0  0  0  0
 11 28  1  0  0  0  0
 11 26  1  1  0  0  0
 12 17  1  0  0  0  0
 12 34  1  0  0  0  0
 12 13  1  6  0  0  0
 14 15  1  6  0  0  0
 14 19  1  0  0  0  0
 16 13  1  6  0  0  0
 16 21  1  0  0  0  0
 17 18  1  6  0  0  0
 17 23  1  0  0  0  0
 18  8  1  0  0  0  0
 19 20  1  1  0  0  0
 19 25  1  0  0  0  0
 20  5  1  0  0  0  0
 21  3  1  1  0  0  0
 21 22  1  0  0  0  0
 21 27  1  0  0  0  0
 23 24  1  6  0  0  0
 23 29  1  0  0  0  0
 25 26  1  6  0  0  0
 25 31  1  0  0  0  0
 27  7  1  6  0  0  0
 27 28  1  0  0  0  0
 29 30  1  6  0  0  0
 29 33  1  0  0  0  0
 31 32  1  1  0  0  0
 31 35  1  0  0  0  0
 33 34  1  0  0  0  0
 33 37  1  1  0  0  0
 35 36  1  6  0  0  0
 37 38  1  0  0  0  0
M  END
>  <CHROM.1>
-120.62752944,124.85890613,135.61680592,162.43936182,171.02575775,-126.31744825
112.00105547,118.08644842,61.63449104,78.47891516,-51.83573382,2.64664114
34.69129603,-1.75617101,-0.27759249,0.41934434,-2.34675974

>  <Name>
1nta_lig

>  <RI>
0

>  <Rbt.Current_Directory>
/home/itssahil/PROJECTS/Mol_Feturizer/New_Systems/rnas/1nta

>  <Rbt.Executable>
rbdock ($Id: //depot/dev/client3/rdock/2013.1/src/exe/rbdock.cxx#4 $)

>  <Rbt.Library>
libRbt.so (2013.1, Build901 2013/11/27)

>  <Rbt.Parameter_File>
/export/apps/rDock/src/rDock_2013.1_src/data/scripts/dock_solv.prm

>  <Rbt.Receptor>
prm/pocket_docking_2.prm

>  <SCORE>
-20.4633

>  <SCORE.INTER>
-4.00093

>  <SCORE.INTER.CONST>
1

>  <SCORE.INTER.POLAR>
-0.527004

>  <SCORE.INTER.ROT>
11

>  <SCORE.INTER.SOLV>
23.5867

>  <SCORE.INTER.VDW>
-19.7062

>  <SCORE.INTER.norm>
-0.100023

>  <SCORE.INTRA>
-18.4955

>  <SCORE.INTRA.DIHEDRAL>
-5.0222

>  <SCORE.INTRA.DIHEDRAL.0>
19.0336

>  <SCORE.INTRA.POLAR>
0

>  <SCORE.INTRA.POLAR.0>
0

>  <SCORE.INTRA.REPUL>
0

>  <SCORE.INTRA.REPUL.0>
0

>  <SCORE.INTRA.SOLV>
-0.489429

>  <SCORE.INTRA.SOLV.lig_0>
-97.5861

>  <SCORE.INTRA.VDW>
-15.7397

>  <SCORE.INTRA.VDW.0>
11.7669

>  <SCORE.INTRA.norm>
-0.462388

>  <SCORE.RESTR>
2.0332

>  <SCORE.RESTR.CAVITY>
2.0332

>  <SCORE.RESTR.norm>
0.0508299

>  <SCORE.SYSTEM>
0

>  <SCORE.SYSTEM.CONST>
0

>  <SCORE.SYSTEM.DIHEDRAL>
0

>  <SCORE.SYSTEM.SOLV>
0

>  <SCORE.SYSTEM.norm>
0

>  <SCORE.heavy>
40

>  <SCORE.norm>
-0.511581

>  <RMSD>
4.526

$$$$
1nta_lig
 OpenBabel11021811403D
libRbt.so/2013.1/901 2013/11/27
 40 42  0  0  0  0  0  0  0  0999 V2000
    8.9632   33.5644   -1.0323 C   0  0  0  0  0  0  0  0  0  0  0  0
    9.4001   32.8007   -1.9630 N   0  0  0  0  0  0  0  0  0  0  0  0
   -0.8185   36.2186   -1.7962 C   0  0  0  0  0  0  0  0  0  0  0  0
   -0.3093   36.6718   -0.7949 O   0  0  0  0  0  0  0  0  0  0  0  0
    2.9683   35.8361    1.4479 C   0  0  0  0  0  0  0  0  0  0  0  0
    3.8184   36.8167    1.6077 N   0  0  0  0  0  0  0  0  0  0  0  0
    0.7253   37.4888   -4.4541 C   0  0  0  0  0  0  0  0  0  0  0  0
    0.1251   33.3871    0.7829 C   0  0  0  0  0  0  0  0  0  0  0  0
    6.6492   34.0077   -0.8103 C   0  0  2  0  0  0  0  0  0  0  0  0
    7.8504   33.1606   -0.4380 N   0  0  0  0  0  0  0  0  0  0  0  0
    1.9769   34.5178   -2.8738 C   0  0  2  0  0  0  0  0  0  0  0  0
    0.0718   32.1624   -2.0342 C   0  0  1  0  0  0  0  0  0  0  0  0
    0.0589   33.1764   -2.9772 O   0  0  0  0  0  0  0  0  0  0  0  0
    5.5750   33.9149    0.2898 C   0  0  1  0  0  0  0  0  0  0  0  0
    6.1281   34.4561    1.4513 O   0  0  0  0  0  0  0  0  0  0  0  0
    0.5117   34.3232   -2.4989 C   0  0  2  0  0  0  0  0  0  0  0  0
   -0.9622   32.2854   -0.9366 C   0  0  1  0  0  0  0  0  0  0  0  0
   -0.8148   33.5548   -0.3128 N   0  0  0  0  0  0  0  0  0  0  0  0
    4.3230   34.7364   -0.0456 C   0  0  2  0  0  0  0  0  0  0  0  0
    3.2650   34.6662    0.9906 N   0  0  0  0  0  0  0  0  0  0  0  0
   -0.0637   35.5978   -2.9409 C   0  0  1  0  0  0  0  0  0  0  0  0
   -0.9127   35.3153   -4.0552 O   0  0  0  0  0  0  0  0  0  0  0  0
   -2.2483   32.1810   -1.4475 C   0  0  2  0  0  0  0  0  0  0  0  0
   -3.1244   32.0063   -0.3627 O   0  0  0  0  0  0  0  0  0  0  0  0
    3.7639   34.2260   -1.3643 C   0  0  1  0  0  0  0  0  0  0  0  0
    2.6089   34.9912   -1.6713 O   0  0  0  0  0  0  0  0  0  0  0  0
    1.0242   36.4725   -3.3959 C   0  0  1  0  0  0  0  0  0  0  0  0
    2.0429   35.5699   -3.8089 O   0  0  0  0  0  0  0  0  0  0  0  0
   -2.3506   30.9964   -2.3720 C   0  0  1  0  0  0  0  0  0  0  0  0
   -3.5701   31.0549   -3.0515 O   0  0  0  0  0  0  0  0  0  0  0  0
    4.8310   34.3595   -2.4877 C   0  0  2  0  0  0  0  0  0  0  0  0
    4.2849   33.8859   -3.7176 O   0  0  0  0  0  0  0  0  0  0  0  0
   -1.2513   31.0456   -3.3778 C   0  0  1  0  0  0  0  0  0  0  0  0
   -0.0367   30.9827   -2.6877 O   0  0  0  0  0  0  0  0  0  0  0  0
    6.0670   33.5131   -2.1174 C   0  0  1  0  0  0  0  0  0  0  0  0
    7.0655   33.6226   -3.1449 O   0  0  0  0  0  0  0  0  0  0  0  0
   -1.3100   29.8364   -4.3320 C   0  0  0  0  0  0  0  0  0  0  0  0
   -1.3023   28.6362   -3.5674 O   0  0  0  0  0  0  0  0  0  0  0  0
    9.5604   34.6565   -0.6963 N   0  0  0  0  0  0  0  0  0  0  0  0
    1.7470   35.9969    1.7780 N   0  0  0  0  0  0  0  0  0  0  0  0
  1  2  1  0  0  0  0
  1 39  1  0  0  0  0
  3  4  1  0  0  0  0
  5  6  1  0  0  0  0
  5 40  1  0  0  0  0
  9 10  1  1  0  0  0
  9 14  1  0  0  0  0
  9 35  1  0  0  0  0
 10  1  1  0  0  0  0
 11 16  1  0  0  0  0
 11 28  1  0  0  0  0
 11 26  1  1  0  0  0
 12 17  1  0  0  0  0
 12 34  1  0  0  0  0
 12 13  1  6  0  0  0
 14 15  1  1  0  0  0
 14 19  1  0  0  0  0
 16 13  1  6  0  0  0
 16 21  1  0  0  0  0
 17 18  1  6  0  0  0
 17 23  1  0  0  0  0
 18  8  1  0  0  0  0
 19 20  1  1  0  0  0
 19 25  1  0  0  0  0
 20  5  1  0  0  0  0
 21  3  1  1  0  0  0
 21 22  1  0  0  0  0
 21 27  1  0  0  0  0
 23 24  1  1  0  0  0
 23 29  1  0  0  0  0
 25 26  1  6  0  0  0
 25 31  1  0  0  0  0
 27  7  1  6  0  0  0
 27 28  1  0  0  0  0
 29 30  1  6  0  0  0
 29 33  1  0  0  0  0
 31 32  1  6  0  0  0
 31 35  1  0  0  0  0
 33 34  1  0  0  0  0
 33 37  1  6  0  0  0
 35 36  1  6  0  0  0
 37 38  1  0  0  0  0
M  END
>  <CHROM.1>
-156.09702431,-108.11833984,128.98073561,71.54976087,97.76289539,-90.07935608
121.66132888,-34.74362015,69.19924161,-176.81677089,-54.89421703,2.10477991
33.80292366,-1.65943387,-0.28593067,0.06549925,-2.66059025

>  <Name>
1nta_lig

>  <RI>
0

>  <Rbt.Current_Directory>
/home/itssahil/PROJECTS/Mol_Feturizer/New_Systems/rnas/1nta

>  <Rbt.Executable>
rbdock ($Id: //depot/dev/client3/rdock/2013.1/src/exe/rbdock.cxx#4 $)

>  <Rbt.Library>
libRbt.so (2013.1, Build901 2013/11/27)

>  <Rbt.Parameter_File>
/export/apps/rDock/src/rDock_2013.1_src/data/scripts/dock_solv.prm

>  <Rbt.Receptor>
prm/pocket_docking_8.prm

>  <SCORE>
-25.7913

>  <SCORE.INTER>
-9.36157

>  <SCORE.INTER.CONST>
1

>  <SCORE.INTER.POLAR>
-1.17744

>  <SCORE.INTER.ROT>
11

>  <SCORE.INTER.SOLV>
25.4446

>  <SCORE.INTER.VDW>
-21.7311

>  <SCORE.INTER.norm>
-0.234039

>  <SCORE.INTRA>
-16.4297

>  <SCORE.INTRA.DIHEDRAL>
-2.87124

>  <SCORE.INTRA.DIHEDRAL.0>
19.0336

>  <SCORE.INTRA.POLAR>
0

>  <SCORE.INTRA.POLAR.0>
0

>  <SCORE.INTRA.REPUL>
0

>  <SCORE.INTRA.REPUL.0>
0

>  <SCORE.INTRA.SOLV>
-1.04949

>  <SCORE.INTRA.SOLV.lig_0>
-97.5861

>  <SCORE.INTRA.VDW>
-14.4694

>  <SCORE.INTRA.VDW.0>
11.7669

>  <SCORE.INTRA.norm>
-0.410744

>  <SCORE.RESTR>
0

>  <SCORE.RESTR.CAVITY>
0

>  <SCORE.RESTR.norm>
0

>  <SCORE.SYSTEM>
0

>  <SCORE.SYSTEM.CONST>
0

>  <SCORE.SYSTEM.DIHEDRAL>
0

>  <SCORE.SYSTEM.SOLV>
0

>  <SCORE.SYSTEM.norm>
0

>  <SCORE.heavy>
40

>  <SCORE.norm>
-0.644783

>  <RMSD>
4.527

$$$$
1nta_lig
 OpenBabel11021811403D
libRbt.so/2013.1/901 2013/11/27
 40 42  0  0  0  0  0  0  0  0999 V2000
    6.6770   32.5612   -3.1838 C   0  0  0  0  0  0  0  0  0  0  0  0
    7.8478   32.3774   -2.6986 N   0  0  0  0  0  0  0  0  0  0  0  0
   -1.8134   36.1943   -0.7225 C   0  0  0  0  0  0  0  0  0  0  0  0
   -2.9945   35.9526   -0.6045 O   0  0  0  0  0  0  0  0  0  0  0  0
    0.5660   32.7956   -2.6767 C   0  0  0  0  0  0  0  0  0  0  0  0
    0.7140   32.0702   -3.7545 N   0  0  0  0  0  0  0  0  0  0  0  0
   -1.8084   35.7185    2.5691 C   0  0  0  0  0  0  0  0  0  0  0  0
    0.7498   36.8117   -4.1419 C   0  0  0  0  0  0  0  0  0  0  0  0
    4.9789   33.6731   -1.9668 C   0  0  2  0  0  0  0  0  0  0  0  0
    6.1383   33.7468   -2.9412 N   0  0  0  0  0  0  0  0  0  0  0  0
    1.2828   36.1125    0.7859 C   0  0  2  0  0  0  0  0  0  0  0  0
    1.7895   38.3302   -1.2840 C   0  0  1  0  0  0  0  0  0  0  0  0
    0.8826   38.1759   -0.2490 O   0  0  0  0  0  0  0  0  0  0  0  0
    3.6443   33.8289   -2.7200 C   0  0  1  0  0  0  0  0  0  0  0  0
    3.5334   32.7426   -3.5893 O   0  0  0  0  0  0  0  0  0  0  0  0
    0.4181   36.9410   -0.1580 C   0  0  2  0  0  0  0  0  0  0  0  0
    1.1806   38.5305   -2.6544 C   0  0  1  0  0  0  0  0  0  0  0  0
    0.2926   37.4520   -2.9200 N   0  0  0  0  0  0  0  0  0  0  0  0
    2.4336   33.7855   -1.7781 C   0  0  2  0  0  0  0  0  0  0  0  0
    1.1309   33.9374   -2.4694 N   0  0  0  0  0  0  0  0  0  0  0  0
   -0.9193   36.6827    0.3855 C   0  0  1  0  0  0  0  0  0  0  0  0
   -1.3883   37.9062    0.9556 O   0  0  0  0  0  0  0  0  0  0  0  0
    0.4730   39.7228   -2.7175 C   0  0  2  0  0  0  0  0  0  0  0  0
    0.1957   39.9821   -4.0706 O   0  0  0  0  0  0  0  0  0  0  0  0
    2.5899   34.9023   -0.7582 C   0  0  1  0  0  0  0  0  0  0  0  0
    1.4700   34.8554    0.1121 O   0  0  0  0  0  0  0  0  0  0  0  0
   -0.8073   35.6843    1.4562 C   0  0  1  0  0  0  0  0  0  0  0  0
    0.5203   35.8452    1.9404 O   0  0  0  0  0  0  0  0  0  0  0  0
    1.2933   40.8500   -2.1475 C   0  0  1  0  0  0  0  0  0  0  0  0
    0.4786   41.9758   -2.0020 O   0  0  0  0  0  0  0  0  0  0  0  0
    3.9154   34.7234    0.0353 C   0  0  2  0  0  0  0  0  0  0  0  0
    4.0387   35.7735    0.9931 O   0  0  0  0  0  0  0  0  0  0  0  0
    1.8088   40.4680   -0.8019 C   0  0  1  0  0  0  0  0  0  0  0  0
    2.6251   39.3437   -0.9596 O   0  0  0  0  0  0  0  0  0  0  0  0
    5.1059   34.7825   -0.9446 C   0  0  1  0  0  0  0  0  0  0  0  0
    6.3416   34.6199   -0.2295 O   0  0  0  0  0  0  0  0  0  0  0  0
    2.6719   41.5906   -0.1928 C   0  0  0  0  0  0  0  0  0  0  0  0
    3.1558   41.1715    1.0782 O   0  0  0  0  0  0  0  0  0  0  0  0
    6.0579   31.6543   -3.8594 N   0  0  0  0  0  0  0  0  0  0  0  0
   -0.2043   32.3929   -1.7434 N   0  0  0  0  0  0  0  0  0  0  0  0
  1  2  1  0  0  0  0
  1 39  1  0  0  0  0
  3  4  1  0  0  0  0
  5  6  1  0  0  0  0
  5 40  1  0  0  0  0
  9 10  1  6  0  0  0
  9 14  1  0  0  0  0
  9 35  1  0  0  0  0
 10  1  1  0  0  0  0
 11 16  1  0  0  0  0
 11 28  1  0  0  0  0
 11 26  1  6  0  0  0
 12 17  1  0  0  0  0
 12 34  1  0  0  0  0
 12 13  1  1  0  0  0
 14 15  1  6  0  0  0
 14 19  1  0  0  0  0
 16 13  1  1  0  0  0
 16 21  1  0  0  0  0
 17 18  1  1  0  0  0
 17 23  1  0  0  0  0
 18  8  1  0  0  0  0
 19 20  1  6  0  0  0
 19 25  1  0  0  0  0
 20  5  1  0  0  0  0
 21  3  1  6  0  0  0
 21 22  1  0  0  0  0
 21 27  1  0  0  0  0
 23 24  1  6  0  0  0
 23 29  1  0  0  0  0
 25 26  1  1  0  0  0
 25 31  1  0  0  0  0
 27  7  1  1  0  0  0
 27 28  1  0  0  0  0
 29 30  1  1  0  0  0
 29 33  1  0  0  0  0
 31 32  1  1  0  0  0
 31 35  1  0  0  0  0
 33 34  1  0  0  0  0
 33 37  1  6  0  0  0
 35 36  1  1  0  0  0
 37 38  1  0  0  0  0
M  END
>  <CHROM.1>
-104.77527791,-109.84666646,87.23194760,81.69568988,91.10199281,-122.18965105
98.29685315,-91.24138350,-176.50651369,-159.61680121,-179.11938403,1.90139419
36.21734559,-1.23750051,-0.92938143,0.28560341,0.07152414

>  <Name>
1nta_lig

>  <RI>
0

>  <Rbt.Current_Directory>
/home/itssahil/PROJECTS/Mol_Feturizer/New_Systems/rnas/1nta

>  <Rbt.Executable>
rbdock ($Id: //depot/dev/client3/rdock/2013.1/src/exe/rbdock.cxx#4 $)

>  <Rbt.Library>
libRbt.so (2013.1, Build901 2013/11/27)

>  <Rbt.Parameter_File>
/export/apps/rDock/src/rDock_2013.1_src/data/scripts/dock_solv.prm

>  <Rbt.Receptor>
prm/pocket_docking_4.prm

>  <SCORE>
-25.3427

>  <SCORE.INTER>
-3.22838

>  <SCORE.INTER.CONST>
1

>  <SCORE.INTER.POLAR>
-1.57284

>  <SCORE.INTER.ROT>
11

>  <SCORE.INTER.SOLV>
21.0037

>  <SCORE.INTER.VDW>
-14.844

>  <SCORE.INTER.norm>
-0.0807096

>  <SCORE.INTRA>
-22.1143

>  <SCORE.INTRA.DIHEDRAL>
-4.01295

>  <SCORE.INTRA.DIHEDRAL.0>
19.0336

>  <SCORE.INTRA.POLAR>
0

>  <SCORE.INTRA.POLAR.0>
0

>  <SCORE.INTRA.REPUL>
0

>  <SCORE.INTRA.REPUL.0>
0

>  <SCORE.INTRA.SOLV>
-3.51322

>  <SCORE.INTRA.SOLV.lig_0>
-97.5861

>  <SCORE.INTRA.VDW>
-18.3512

>  <SCORE.INTRA.VDW.0>
11.7669

>  <SCORE.INTRA.norm>
-0.552858

>  <SCORE.RESTR>
0

>  <SCORE.RESTR.CAVITY>
0

>  <SCORE.RESTR.norm>
0

>  <SCORE.SYSTEM>
0

>  <SCORE.SYSTEM.CONST>
0

>  <SCORE.SYSTEM.DIHEDRAL>
0

>  <SCORE.SYSTEM.SOLV>
0

>  <SCORE.SYSTEM.norm>
0

>  <SCORE.heavy>
40

>  <SCORE.norm>
-0.633568

>  <RMSD>
4.532

$$$$
1nta_lig
 OpenBabel11021811403D
libRbt.so/2013.1/901 2013/11/27
 40 42  0  0  0  0  0  0  0  0999 V2000
    8.9067   33.4900   -1.5272 C   0  0  0  0  0  0  0  0  0  0  0  0
    8.3341   33.2119   -2.6384 N   0  0  0  0  0  0  0  0  0  0  0  0
    1.0114   37.4809    1.8370 C   0  0  0  0  0  0  0  0  0  0  0  0
    0.8981   38.3382    2.6853 O   0  0  0  0  0  0  0  0  0  0  0  0
    3.7074   33.3364   -2.4779 C   0  0  0  0  0  0  0  0  0  0  0  0
    3.1764   34.3858   -3.0493 N   0  0  0  0  0  0  0  0  0  0  0  0
    3.3381   39.5227    0.6209 C   0  0  0  0  0  0  0  0  0  0  0  0
   -2.6702   38.5352   -1.7894 C   0  0  0  0  0  0  0  0  0  0  0  0
    7.1601   33.3102    0.0595 C   0  0  2  0  0  0  0  0  0  0  0  0
    8.4828   32.8005   -0.4785 N   0  0  0  0  0  0  0  0  0  0  0  0
    2.8521   36.2656   -0.8093 C   0  0  2  0  0  0  0  0  0  0  0  0
   -0.7276   36.1569   -0.9250 C   0  0  1  0  0  0  0  0  0  0  0  0
    0.5727   36.3999   -1.3345 O   0  0  0  0  0  0  0  0  0  0  0  0
    6.0088   32.8727   -0.8658 C   0  0  1  0  0  0  0  0  0  0  0  0
    5.9656   31.4779   -0.8372 O   0  0  0  0  0  0  0  0  0  0  0  0
    1.4214   36.4689   -0.3225 C   0  0  2  0  0  0  0  0  0  0  0  0
   -1.7926   36.4023   -1.9711 C   0  0  1  0  0  0  0  0  0  0  0  0
   -1.6576   37.7327   -2.4547 N   0  0  0  0  0  0  0  0  0  0  0  0
    4.6447   33.3819   -0.3814 C   0  0  2  0  0  0  0  0  0  0  0  0
    3.5127   32.9830   -1.2519 N   0  0  0  0  0  0  0  0  0  0  0  0
    1.5612   37.7053    0.4539 C   0  0  1  0  0  0  0  0  0  0  0  0
    0.8520   38.7284   -0.2477 O   0  0  0  0  0  0  0  0  0  0  0  0
   -1.6609   35.5207   -3.0348 C   0  0  2  0  0  0  0  0  0  0  0  0
   -2.8334   35.6047   -3.8050 O   0  0  0  0  0  0  0  0  0  0  0  0
    4.7068   34.8994   -0.3088 C   0  0  1  0  0  0  0  0  0  0  0  0
    3.4446   35.3646    0.1428 O   0  0  0  0  0  0  0  0  0  0  0  0
    2.9818   38.0734    0.5007 C   0  0  1  0  0  0  0  0  0  0  0  0
    3.5269   37.4958   -0.6792 O   0  0  0  0  0  0  0  0  0  0  0  0
   -1.4910   34.1118   -2.5301 C   0  0  1  0  0  0  0  0  0  0  0  0
   -1.1227   33.2886   -3.5974 O   0  0  0  0  0  0  0  0  0  0  0  0
    5.8396   35.3448    0.6593 C   0  0  2  0  0  0  0  0  0  0  0  0
    5.8752   36.7696    0.7220 O   0  0  0  0  0  0  0  0  0  0  0  0
   -0.4049   34.0696   -1.5097 C   0  0  1  0  0  0  0  0  0  0  0  0
   -0.7852   34.8931   -0.4455 O   0  0  0  0  0  0  0  0  0  0  0  0
    7.1925   34.8220    0.1327 C   0  0  1  0  0  0  0  0  0  0  0  0
    8.2535   35.2245    1.0143 O   0  0  0  0  0  0  0  0  0  0  0  0
   -0.2137   32.6448   -0.9532 C   0  0  0  0  0  0  0  0  0  0  0  0
    0.8053   32.6632    0.0399 O   0  0  0  0  0  0  0  0  0  0  0  0
    9.8307   34.3838   -1.4297 N   0  0  0  0  0  0  0  0  0  0  0  0
    4.4634   32.5625   -3.1531 N   0  0  0  0  0  0  0  0  0  0  0  0
  1  2  1  0  0  0  0
  1 39  1  0  0  0  0
  3  4  1  0  0  0  0
  5  6  1  0  0  0  0
  5 40  1  0  0  0  0
  9 10  1  6  0  0  0
  9 14  1  0  0  0  0
  9 35  1  0  0  0  0
 10  1  1  0  0  0  0
 11 16  1  0  0  0  0
 11 28  1  0  0  0  0
 11 26  1  1  0  0  0
 12 17  1  0  0  0  0
 12 34  1  0  0  0  0
 12 13  1  6  0  0  0
 14 15  1  1  0  0  0
 14 19  1  0  0  0  0
 16 13  1  6  0  0  0
 16 21  1  0  0  0  0
 17 18  1  6  0  0  0
 17 23  1  0  0  0  0
 18  8  1  0  0  0  0
 19 20  1  6  0  0  0
 19 25  1  0  0  0  0
 20  5  1  0  0  0  0
 21  3  1  1  0  0  0
 21 22  1  0  0  0  0
 21 27  1  0  0  0  0
 23 24  1  6  0  0  0
 23 29  1  0  0  0  0
 25 26  1  1  0  0  0
 25 31  1  0  0  0  0
 27  7  1  6  0  0  0
 27 28  1  0  0  0  0
 29 30  1  6  0  0  0
 29 33  1  0  0  0  0
 31 32  1  6  0  0  0
 31 35  1  0  0  0  0
 33 34  1  0  0  0  0
 33 37  1  1  0  0  0
 35 36  1  1  0  0  0
 37 38  1  0  0  0  0
M  END
>  <CHROM.1>
75.24476388,-77.86547222,169.78014187,165.50405127,160.96188086,-100.76861253
-54.63485125,-100.52477290,-174.59676132,-121.67330565,-178.43255218,2.80726015
35.24449811,-0.88482467,0.18647887,0.22931189,-2.61114541

>  <Name>
1nta_lig

>  <RI>
0

>  <Rbt.Current_Directory>
/home/itssahil/PROJECTS/Mol_Feturizer/New_Systems/rnas/1nta

>  <Rbt.Executable>
rbdock ($Id: //depot/dev/client3/rdock/2013.1/src/exe/rbdock.cxx#4 $)

>  <Rbt.Library>
libRbt.so (2013.1, Build901 2013/11/27)

>  <Rbt.Parameter_File>
/export/apps/rDock/src/rDock_2013.1_src/data/scripts/dock_solv.prm

>  <Rbt.Receptor>
prm/pocket_docking_3.prm

>  <SCORE>
-18.9302

>  <SCORE.INTER>
-2.44866

>  <SCORE.INTER.CONST>
1

>  <SCORE.INTER.POLAR>
-1.73677

>  <SCORE.INTER.ROT>
11

>  <SCORE.INTER.SOLV>
28.0977

>  <SCORE.INTER.VDW>
-16.1424

>  <SCORE.INTER.norm>
-0.0612166

>  <SCORE.INTRA>
-16.5157

>  <SCORE.INTRA.DIHEDRAL>
-6.08565

>  <SCORE.INTRA.DIHEDRAL.0>
19.0336

>  <SCORE.INTRA.POLAR>
0

>  <SCORE.INTRA.POLAR.0>
0

>  <SCORE.INTRA.REPUL>
0.00693006

>  <SCORE.INTRA.REPUL.0>
0

>  <SCORE.INTRA.SOLV>
3.28195

>  <SCORE.INTRA.SOLV.lig_0>
-97.5861

>  <SCORE.INTRA.VDW>
-15.1484

>  <SCORE.INTRA.VDW.0>
11.7669

>  <SCORE.INTRA.norm>
-0.412891

>  <SCORE.RESTR>
0.0341146

>  <SCORE.RESTR.CAVITY>
0.0341146

>  <SCORE.RESTR.norm>
0.000852864

>  <SCORE.SYSTEM>
0

>  <SCORE.SYSTEM.CONST>
0

>  <SCORE.SYSTEM.DIHEDRAL>
0

>  <SCORE.SYSTEM.SOLV>
0

>  <SCORE.SYSTEM.norm>
0

>  <SCORE.heavy>
40

>  <SCORE.norm>
-0.473255

>  <RMSD>
4.537

$$$$
1nta_lig
 OpenBabel11021811403D
libRbt.so/2013.1/901 2013/11/27
 40 42  0  0  0  0  0  0  0  0999 V2000
    6.7216   32.5558   -3.2084 C   0  0  0  0  0  0  0  0  0  0  0  0
    7.9133   32.3528   -2.7858 N   0  0  0  0  0  0  0  0  0  0  0  0
   -1.8856   36.0825   -0.8387 C   0  0  0  0  0  0  0  0  0  0  0  0
   -3.0411   35.7492   -0.6938 O   0  0  0  0  0  0  0  0  0  0  0  0
    0.5662   32.8704   -2.7968 C   0  0  0  0  0  0  0  0  0  0  0  0
   -0.0637   32.2266   -1.8489 N   0  0  0  0  0  0  0  0  0  0  0  0
   -1.8347   35.6248    2.4552 C   0  0  0  0  0  0  0  0  0  0  0  0
    0.7918   37.3809   -4.4043 C   0  0  0  0  0  0  0  0  0  0  0  0
    5.0151   33.6648   -2.0007 C   0  0  2  0  0  0  0  0  0  0  0  0
    6.2117   33.7459   -2.9284 N   0  0  0  0  0  0  0  0  0  0  0  0
    1.2262   36.0986    0.6394 C   0  0  2  0  0  0  0  0  0  0  0  0
    1.7675   38.2869   -1.3371 C   0  0  1  0  0  0  0  0  0  0  0  0
    0.7562   38.1440   -0.4020 O   0  0  0  0  0  0  0  0  0  0  0  0
    3.7121   33.8541   -2.8002 C   0  0  1  0  0  0  0  0  0  0  0  0
    3.6219   32.7891   -3.6977 O   0  0  0  0  0  0  0  0  0  0  0  0
    0.3287   36.8966   -0.3001 C   0  0  2  0  0  0  0  0  0  0  0  0
    1.3343   38.8274   -2.6821 C   0  0  1  0  0  0  0  0  0  0  0  0
    0.2925   38.0033   -3.1897 N   0  0  0  0  0  0  0  0  0  0  0  0
    2.4659   33.8047   -1.9061 C   0  0  2  0  0  0  0  0  0  0  0  0
    1.1924   33.9883   -2.6427 N   0  0  0  0  0  0  0  0  0  0  0  0
   -0.9953   36.6025    0.2580 C   0  0  1  0  0  0  0  0  0  0  0  0
   -1.4941   37.8150    0.8264 O   0  0  0  0  0  0  0  0  0  0  0  0
    0.8655   40.1289   -2.5704 C   0  0  2  0  0  0  0  0  0  0  0  0
    0.7661   40.6584   -3.8684 O   0  0  0  0  0  0  0  0  0  0  0  0
    2.5961   34.8963   -0.8557 C   0  0  1  0  0  0  0  0  0  0  0  0
    1.4433   34.8438   -0.0298 O   0  0  0  0  0  0  0  0  0  0  0  0
   -0.8439   35.6136    1.3326 C   0  0  1  0  0  0  0  0  0  0  0  0
    0.4832   35.8156    1.8028 O   0  0  0  0  0  0  0  0  0  0  0  0
    1.8221   40.9628   -1.7592 C   0  0  1  0  0  0  0  0  0  0  0  0
    1.2170   42.1865   -1.4610 O   0  0  0  0  0  0  0  0  0  0  0  0
    3.8881   34.6831   -0.0167 C   0  0  2  0  0  0  0  0  0  0  0  0
    3.9870   35.7098    0.9689 O   0  0  0  0  0  0  0  0  0  0  0  0
    2.1328   40.2691   -0.4767 C   0  0  1  0  0  0  0  0  0  0  0  0
    2.7408   39.0486   -0.7866 O   0  0  0  0  0  0  0  0  0  0  0  0
    5.1158   34.7493   -0.9492 C   0  0  1  0  0  0  0  0  0  0  0  0
    6.3214   34.5553   -0.1916 O   0  0  0  0  0  0  0  0  0  0  0  0
    3.1267   41.0837    0.3746 C   0  0  0  0  0  0  0  0  0  0  0  0
    4.3825   41.1344   -0.2928 O   0  0  0  0  0  0  0  0  0  0  0  0
    6.0569   31.6630   -3.8590 N   0  0  0  0  0  0  0  0  0  0  0  0
    0.6098   32.3808   -3.9736 N   0  0  0  0  0  0  0  0  0  0  0  0
  1  2  1  0  0  0  0
  1 39  1  0  0  0  0
  3  4  1  0  0  0  0
  5  6  1  0  0  0  0
  5 40  1  0  0  0  0
  9 10  1  6  0  0  0
  9 14  1  0  0  0  0
  9 35  1  0  0  0  0
 10  1  1  0  0  0  0
 11 16  1  0  0  0  0
 11 28  1  0  0  0  0
 11 26  1  6  0  0  0
 12 17  1  0  0  0  0
 12 34  1  0  0  0  0
 12 13  1  1  0  0  0
 14 15  1  6  0  0  0
 14 19  1  0  0  0  0
 16 13  1  1  0  0  0
 16 21  1  0  0  0  0
 17 18  1  1  0  0  0
 17 23  1  0  0  0  0
 18  8  1  0  0  0  0
 19 20  1  6  0  0  0
 19 25  1  0  0  0  0
 20  5  1  0  0  0  0
 21  3  1  6  0  0  0
 21 22  1  0  0  0  0
 21 27  1  0  0  0  0
 23 24  1  6  0  0  0
 23 29  1  0  0  0  0
 25 26  1  1  0  0  0
 25 31  1  0  0  0  0
 27  7  1  1  0  0  0
 27 28  1  0  0  0  0
 29 30  1  1  0  0  0
 29 33  1  0  0  0  0
 31 32  1  1  0  0  0
 31 35  1  0  0  0  0
 33 34  1  0  0  0  0
 33 37  1  1  0  0  0
 35 36  1  1  0  0  0
 37 38  1  0  0  0  0
M  END
>  <CHROM.1>
-102.93860084,-115.46210810,90.43418366,100.21183127,83.69160199,-116.03120433
103.83303797,73.28653397,179.91175854,-158.17951143,-66.15269291,2.01214104
36.24468749,-1.29750234,-0.95417550,0.27929522,0.07886657

>  <Name>
1nta_lig

>  <RI>
0

>  <Rbt.Current_Directory>
/home/itssahil/PROJECTS/Mol_Feturizer/New_Systems/rnas/1nta

>  <Rbt.Executable>
rbdock ($Id: //depot/dev/client3/rdock/2013.1/src/exe/rbdock.cxx#4 $)

>  <Rbt.Library>
libRbt.so (2013.1, Build901 2013/11/27)

>  <Rbt.Parameter_File>
/export/apps/rDock/src/rDock_2013.1_src/data/scripts/dock_solv.prm

>  <Rbt.Receptor>
prm/pocket_docking_4.prm

>  <SCORE>
-24.7283

>  <SCORE.INTER>
-3.97671

>  <SCORE.INTER.CONST>
1

>  <SCORE.INTER.POLAR>
-1.54179

>  <SCORE.INTER.ROT>
11

>  <SCORE.INTER.SOLV>
20.311

>  <SCORE.INTER.VDW>
-15.2155

>  <SCORE.INTER.norm>
-0.0994177

>  <SCORE.INTRA>
-20.7545

>  <SCORE.INTRA.DIHEDRAL>
-0.962298

>  <SCORE.INTRA.DIHEDRAL.0>
19.0336

>  <SCORE.INTRA.POLAR>
0

>  <SCORE.INTRA.POLAR.0>
0

>  <SCORE.INTRA.REPUL>
0

>  <SCORE.INTRA.REPUL.0>
0

>  <SCORE.INTRA.SOLV>
-4.36838

>  <SCORE.INTRA.SOLV.lig_0>
-97.5861

>  <SCORE.INTRA.VDW>
-18.0891

>  <SCORE.INTRA.VDW.0>
11.7669

>  <SCORE.INTRA.norm>
-0.518862

>  <SCORE.RESTR>
0.00285105

>  <SCORE.RESTR.CAVITY>
0.00285105

>  <SCORE.RESTR.norm>
7.12762e-05

>  <SCORE.SYSTEM>
0

>  <SCORE.SYSTEM.CONST>
0

>  <SCORE.SYSTEM.DIHEDRAL>
0

>  <SCORE.SYSTEM.SOLV>
0

>  <SCORE.SYSTEM.norm>
0

>  <SCORE.heavy>
40

>  <SCORE.norm>
-0.618209

>  <RMSD>
4.576

$$$$
1nta_lig
 OpenBabel11021811403D
libRbt.so/2013.1/901 2013/11/27
 40 42  0  0  0  0  0  0  0  0999 V2000
    6.8408   32.0804   -1.8287 C   0  0  0  0  0  0  0  0  0  0  0  0
    7.9310   31.8186   -2.4475 N   0  0  0  0  0  0  0  0  0  0  0  0
   -0.5643   37.6403    1.6599 C   0  0  0  0  0  0  0  0  0  0  0  0
   -0.3331   36.5376    2.1047 O   0  0  0  0  0  0  0  0  0  0  0  0
    1.3639   34.0076   -3.2589 C   0  0  0  0  0  0  0  0  0  0  0  0
    0.0842   34.2402   -3.1244 N   0  0  0  0  0  0  0  0  0  0  0  0
    2.1863   39.5083    1.7375 C   0  0  0  0  0  0  0  0  0  0  0  0
   -2.4374   41.4710   -0.8962 C   0  0  0  0  0  0  0  0  0  0  0  0
    5.3457   33.6695   -0.9123 C   0  0  2  0  0  0  0  0  0  0  0  0
    6.7625   33.2915   -1.2979 N   0  0  0  0  0  0  0  0  0  0  0  0
    1.5375   37.3451   -1.0536 C   0  0  2  0  0  0  0  0  0  0  0  0
   -1.9085   38.3711   -1.3865 C   0  0  1  0  0  0  0  0  0  0  0  0
   -0.5768   38.1342   -1.6830 O   0  0  0  0  0  0  0  0  0  0  0  0
    4.5420   34.0595   -2.1672 C   0  0  1  0  0  0  0  0  0  0  0  0
    4.4694   32.9257   -2.9779 O   0  0  0  0  0  0  0  0  0  0  0  0
    0.0826   37.5948   -0.6714 C   0  0  2  0  0  0  0  0  0  0  0  0
   -2.5444   39.5209   -2.1364 C   0  0  1  0  0  0  0  0  0  0  0  0
   -1.7652   40.6908   -1.9216 N   0  0  0  0  0  0  0  0  0  0  0  0
    3.1031   34.4752   -1.8334 C   0  0  2  0  0  0  0  0  0  0  0  0
    2.3009   34.8620   -3.0187 N   0  0  0  0  0  0  0  0  0  0  0  0
    0.2443   38.3244    0.5905 C   0  0  1  0  0  0  0  0  0  0  0  0
   -0.1908   39.6664    0.3626 O   0  0  0  0  0  0  0  0  0  0  0  0
   -2.5993   39.2599   -3.4984 C   0  0  2  0  0  0  0  0  0  0  0  0
   -3.4521   40.2133   -4.0805 O   0  0  0  0  0  0  0  0  0  0  0  0
    3.1634   35.6482   -0.8679 C   0  0  1  0  0  0  0  0  0  0  0  0
    1.8308   36.0261   -0.5599 O   0  0  0  0  0  0  0  0  0  0  0  0
    1.6703   38.3515    0.9390 C   0  0  1  0  0  0  0  0  0  0  0  0
    2.3339   38.2421   -0.3142 O   0  0  0  0  0  0  0  0  0  0  0  0
   -3.1465   37.8786   -3.7458 C   0  0  1  0  0  0  0  0  0  0  0  0
   -2.9666   37.5537   -5.0929 O   0  0  0  0  0  0  0  0  0  0  0  0
    3.9360   35.2445    0.4201 C   0  0  2  0  0  0  0  0  0  0  0  0
    3.9729   36.3536    1.3168 O   0  0  0  0  0  0  0  0  0  0  0  0
   -2.4004   36.8858   -2.9211 C   0  0  1  0  0  0  0  0  0  0  0  0
   -2.5902   37.2179   -1.5760 O   0  0  0  0  0  0  0  0  0  0  0  0
    5.3776   34.8436    0.0430 C   0  0  1  0  0  0  0  0  0  0  0  0
    6.1090   34.4676    1.2213 O   0  0  0  0  0  0  0  0  0  0  0  0
   -2.9456   35.4594   -3.1318 C   0  0  0  0  0  0  0  0  0  0  0  0
   -2.3690   34.5903   -2.1637 O   0  0  0  0  0  0  0  0  0  0  0  0
    5.8829   31.2240   -1.7224 N   0  0  0  0  0  0  0  0  0  0  0  0
    1.7621   32.8547   -3.6315 N   0  0  0  0  0  0  0  0  0  0  0  0
  1  2  1  0  0  0  0
  1 39  1  0  0  0  0
  3  4  1  0  0  0  0
  5  6  1  0  0  0  0
  5 40  1  0  0  0  0
  9 10  1  6  0  0  0
  9 14  1  0  0  0  0
  9 35  1  0  0  0  0
 10  1  1  0  0  0  0
 11 16  1  0  0  0  0
 11 28  1  0  0  0  0
 11 26  1  1  0  0  0
 12 17  1  0  0  0  0
 12 34  1  0  0  0  0
 12 13  1  6  0  0  0
 14 15  1  6  0  0  0
 14 19  1  0  0  0  0
 16 13  1  6  0  0  0
 16 21  1  0  0  0  0
 17 18  1  6  0  0  0
 17 23  1  0  0  0  0
 18  8  1  0  0  0  0
 19 20  1  6  0  0  0
 19 25  1  0  0  0  0
 20  5  1  0  0  0  0
 21  3  1  1  0  0  0
 21 22  1  0  0  0  0
 21 27  1  0  0  0  0
 23 24  1  6  0  0  0
 23 29  1  0  0  0  0
 25 26  1  1  0  0  0
 25 31  1  0  0  0  0
 27  7  1  6  0  0  0
 27 28  1  0  0  0  0
 29 30  1  6  0  0  0
 29 33  1  0  0  0  0
 31 32  1  1  0  0  0
 31 35  1  0  0  0  0
 33 34  1  0  0  0  0
 33 37  1  1  0  0  0
 35 36  1  1  0  0  0
 37 38  1  0  0  0  0
M  END
>  <CHROM.1>
-76.90709111,164.73001488,179.05807541,151.61665050,179.55528061,-100.07276635
111.52172011,111.74980620,67.04697002,-114.69259653,-169.96631301,1.21109468
36.34651164,-1.37260531,0.35333583,0.51826887,-2.36204771

>  <Name>
1nta_lig

>  <RI>
0

>  <Rbt.Current_Directory>
/home/itssahil/PROJECTS/Mol_Feturizer/New_Systems/rnas/1nta

>  <Rbt.Executable>
rbdock ($Id: //depot/dev/client3/rdock/2013.1/src/exe/rbdock.cxx#4 $)

>  <Rbt.Library>
libRbt.so (2013.1, Build901 2013/11/27)

>  <Rbt.Parameter_File>
/export/apps/rDock/src/rDock_2013.1_src/data/scripts/dock_solv.prm

>  <Rbt.Receptor>
prm/pocket_docking_4.prm

>  <SCORE>
-17.1237

>  <SCORE.INTER>
0.293244

>  <SCORE.INTER.CONST>
1

>  <SCORE.INTER.POLAR>
-1.76087

>  <SCORE.INTER.ROT>
11

>  <SCORE.INTER.SOLV>
21.5291

>  <SCORE.INTER.VDW>
-12.0446

>  <SCORE.INTER.norm>
0.00733109

>  <SCORE.INTRA>
-18.1182

>  <SCORE.INTRA.DIHEDRAL>
-4.58447

>  <SCORE.INTRA.DIHEDRAL.0>
19.0336

>  <SCORE.INTRA.POLAR>
0

>  <SCORE.INTRA.POLAR.0>
0

>  <SCORE.INTRA.REPUL>
0

>  <SCORE.INTRA.REPUL.0>
0

>  <SCORE.INTRA.SOLV>
-0.343055

>  <SCORE.INTRA.SOLV.lig_0>
-97.5861

>  <SCORE.INTRA.VDW>
-15.6544

>  <SCORE.INTRA.VDW.0>
11.7669

>  <SCORE.INTRA.norm>
-0.452955

>  <SCORE.RESTR>
0.701253

>  <SCORE.RESTR.CAVITY>
0.701253

>  <SCORE.RESTR.norm>
0.0175313

>  <SCORE.SYSTEM>
0

>  <SCORE.SYSTEM.CONST>
0

>  <SCORE.SYSTEM.DIHEDRAL>
0

>  <SCORE.SYSTEM.SOLV>
0

>  <SCORE.SYSTEM.norm>
0

>  <SCORE.heavy>
40

>  <SCORE.norm>
-0.428092

>  <RMSD>
4.579

$$$$
1nta_lig
 OpenBabel11021811403D
libRbt.so/2013.1/901 2013/11/27
 40 42  0  0  0  0  0  0  0  0999 V2000
    6.6843   32.5415   -3.1780 C   0  0  0  0  0  0  0  0  0  0  0  0
    7.8824   32.3517   -2.7673 N   0  0  0  0  0  0  0  0  0  0  0  0
   -2.2353   34.6376    0.5237 C   0  0  0  0  0  0  0  0  0  0  0  0
   -3.1609   34.1060    1.0963 O   0  0  0  0  0  0  0  0  0  0  0  0
    0.5376   32.6126   -2.6584 C   0  0  0  0  0  0  0  0  0  0  0  0
   -0.2902   32.0315   -1.8295 N   0  0  0  0  0  0  0  0  0  0  0  0
   -1.0079   34.8893    3.6045 C   0  0  0  0  0  0  0  0  0  0  0  0
   -3.1255   40.1582    0.0616 C   0  0  0  0  0  0  0  0  0  0  0  0
    4.9634   33.5303   -1.8890 C   0  0  2  0  0  0  0  0  0  0  0  0
    6.1389   33.6980   -2.8319 N   0  0  0  0  0  0  0  0  0  0  0  0
    1.0154   35.7521    0.7669 C   0  0  2  0  0  0  0  0  0  0  0  0
   -1.4576   37.6367   -1.0465 C   0  0  1  0  0  0  0  0  0  0  0  0
   -0.3713   37.3519   -0.2364 O   0  0  0  0  0  0  0  0  0  0  0  0
    3.6399   33.7097   -2.6565 C   0  0  1  0  0  0  0  0  0  0  0  0
    3.5707   32.6853   -3.6019 O   0  0  0  0  0  0  0  0  0  0  0  0
   -0.3341   36.0844    0.1395 C   0  0  2  0  0  0  0  0  0  0  0  0
   -1.6538   39.1001   -1.3762 C   0  0  1  0  0  0  0  0  0  0  0  0
   -1.7262   39.8347   -0.1607 N   0  0  0  0  0  0  0  0  0  0  0  0
    2.4131   33.5734   -1.7448 C   0  0  2  0  0  0  0  0  0  0  0  0
    1.1204   33.7452   -2.4501 N   0  0  0  0  0  0  0  0  0  0  0  0
   -1.2532   35.5808    1.1653 C   0  0  1  0  0  0  0  0  0  0  0  0
   -1.8984   36.7143    1.7491 O   0  0  0  0  0  0  0  0  0  0  0  0
   -0.5989   39.5874   -2.1350 C   0  0  2  0  0  0  0  0  0  0  0  0
   -0.9843   40.8385   -2.6460 O   0  0  0  0  0  0  0  0  0  0  0  0
    2.5241   34.6186   -0.6461 C   0  0  1  0  0  0  0  0  0  0  0  0
    1.3895   34.4858    0.1958 O   0  0  0  0  0  0  0  0  0  0  0  0
   -0.4705   34.9042    2.2071 C   0  0  1  0  0  0  0  0  0  0  0  0
    0.8045   35.5311    2.1425 O   0  0  0  0  0  0  0  0  0  0  0  0
   -0.2964   38.6505   -3.2748 C   0  0  1  0  0  0  0  0  0  0  0  0
    0.9076   39.0345   -3.8708 O   0  0  0  0  0  0  0  0  0  0  0  0
    3.8383   34.4132    0.1598 C   0  0  2  0  0  0  0  0  0  0  0  0
    3.9191   35.3955    1.1913 O   0  0  0  0  0  0  0  0  0  0  0  0
   -0.1406   37.2611   -2.7574 C   0  0  1  0  0  0  0  0  0  0  0  0
   -1.3513   36.8858   -2.1670 O   0  0  0  0  0  0  0  0  0  0  0  0
    5.0453   34.5674   -0.7891 C   0  0  1  0  0  0  0  0  0  0  0  0
    6.2708   34.3817   -0.0621 O   0  0  0  0  0  0  0  0  0  0  0  0
    0.1507   36.2671   -3.8992 C   0  0  0  0  0  0  0  0  0  0  0  0
    1.5442   36.2806   -4.1872 O   0  0  0  0  0  0  0  0  0  0  0  0
    6.0459   31.6666   -3.8773 N   0  0  0  0  0  0  0  0  0  0  0  0
    0.8379   32.0409   -3.7581 N   0  0  0  0  0  0  0  0  0  0  0  0
  1  2  1  0  0  0  0
  1 39  1  0  0  0  0
  3  4  1  0  0  0  0
  5  6  1  0  0  0  0
  5 40  1  0  0  0  0
  9 10  1  6  0  0  0
  9 14  1  0  0  0  0
  9 35  1  0  0  0  0
 10  1  1  0  0  0  0
 11 16  1  0  0  0  0
 11 28  1  0  0  0  0
 11 26  1  6  0  0  0
 12 17  1  0  0  0  0
 12 34  1  0  0  0  0
 12 13  1  1  0  0  0
 14 15  1  6  0  0  0
 14 19  1  0  0  0  0
 16 13  1  1  0  0  0
 16 21  1  0  0  0  0
 17 18  1  1  0  0  0
 17 23  1  0  0  0  0
 18  8  1  0  0  0  0
 19 20  1  6  0  0  0
 19 25  1  0  0  0  0
 20  5  1  0  0  0  0
 21  3  1  6  0  0  0
 21 22  1  0  0  0  0
 21 27  1  0  0  0  0
 23 24  1  6  0  0  0
 23 29  1  0  0  0  0
 25 26  1  1  0  0  0
 25 31  1  0  0  0  0
 27  7  1  1  0  0  0
 27 28  1  0  0  0  0
 29 30  1  1  0  0  0
 29 33  1  0  0  0  0
 31 32  1  1  0  0  0
 31 35  1  0  0  0  0
 33 34  1  0  0  0  0
 33 37  1  6  0  0  0
 35 36  1  1  0  0  0
 37 38  1  0  0  0  0
M  END
>  <CHROM.1>
-102.86681243,-114.36118288,112.84452893,172.95248049,167.80851028,-103.57512926
103.19252738,89.04632079,-176.34243141,-149.18416604,83.71937041,1.19400902
35.51175519,-1.16794953,-0.18664199,0.63939453,-0.87785713

>  <Name>
1nta_lig

>  <RI>
0

>  <Rbt.Current_Directory>
/home/itssahil/PROJECTS/Mol_Feturizer/New_Systems/rnas/1nta

>  <Rbt.Executable>
rbdock ($Id: //depot/dev/client3/rdock/2013.1/src/exe/rbdock.cxx#4 $)

>  <Rbt.Library>
libRbt.so (2013.1, Build901 2013/11/27)

>  <Rbt.Parameter_File>
/export/apps/rDock/src/rDock_2013.1_src/data/scripts/dock_solv.prm

>  <Rbt.Receptor>
prm/pocket_docking_3.prm

>  <SCORE>
-26.3258

>  <SCORE.INTER>
-5.69353

>  <SCORE.INTER.CONST>
1

>  <SCORE.INTER.POLAR>
-2.23011

>  <SCORE.INTER.ROT>
11

>  <SCORE.INTER.SOLV>
22.849

>  <SCORE.INTER.VDW>
-14.9116

>  <SCORE.INTER.norm>
-0.142338

>  <SCORE.INTRA>
-20.6533

>  <SCORE.INTRA.DIHEDRAL>
-1.56806

>  <SCORE.INTRA.DIHEDRAL.0>
19.0336

>  <SCORE.INTRA.POLAR>
0

>  <SCORE.INTRA.POLAR.0>
0

>  <SCORE.INTRA.REPUL>
0

>  <SCORE.INTRA.REPUL.0>
0

>  <SCORE.INTRA.SOLV>
-3.06821

>  <SCORE.INTRA.SOLV.lig_0>
-97.5861

>  <SCORE.INTRA.VDW>
-18.3352

>  <SCORE.INTRA.VDW.0>
11.7669

>  <SCORE.INTRA.norm>
-0.516333

>  <SCORE.RESTR>
0.0210596

>  <SCORE.RESTR.CAVITY>
0.0210596

>  <SCORE.RESTR.norm>
0.000526491

>  <SCORE.SYSTEM>
0

>  <SCORE.SYSTEM.CONST>
0

>  <SCORE.SYSTEM.DIHEDRAL>
0

>  <SCORE.SYSTEM.SOLV>
0

>  <SCORE.SYSTEM.norm>
0

>  <SCORE.heavy>
40

>  <SCORE.norm>
-0.658144

>  <RMSD>
4.631

$$$$
1nta_lig
 OpenBabel11021811403D
libRbt.so/2013.1/901 2013/11/27
 40 42  0  0  0  0  0  0  0  0999 V2000
    6.7493   32.4802   -2.9269 C   0  0  0  0  0  0  0  0  0  0  0  0
    6.1360   31.6389   -3.6728 N   0  0  0  0  0  0  0  0  0  0  0  0
   -2.0501   34.6594   -0.1748 C   0  0  0  0  0  0  0  0  0  0  0  0
   -1.4943   33.5857   -0.0993 O   0  0  0  0  0  0  0  0  0  0  0  0
    0.6919   33.0339   -2.8541 C   0  0  0  0  0  0  0  0  0  0  0  0
    0.5139   32.6266   -4.0838 N   0  0  0  0  0  0  0  0  0  0  0  0
   -1.5412   36.5336    2.5252 C   0  0  0  0  0  0  0  0  0  0  0  0
   -1.2995   36.2256   -5.8303 C   0  0  0  0  0  0  0  0  0  0  0  0
    5.0228   33.7378   -1.9080 C   0  0  2  0  0  0  0  0  0  0  0  0
    6.2037   33.6852   -2.8576 N   0  0  0  0  0  0  0  0  0  0  0  0
    0.8627   36.4986   -0.1413 C   0  0  2  0  0  0  0  0  0  0  0  0
    0.3371   36.9327   -3.0024 C   0  0  1  0  0  0  0  0  0  0  0  0
   -0.5214   37.1091   -1.9303 O   0  0  0  0  0  0  0  0  0  0  0  0
    3.7138   33.9125   -2.7010 C   0  0  1  0  0  0  0  0  0  0  0  0
    3.5620   32.7777   -3.4993 O   0  0  0  0  0  0  0  0  0  0  0  0
   -0.3631   36.1889   -0.9937 C   0  0  2  0  0  0  0  0  0  0  0  0
   -0.1328   37.5251   -4.3128 C   0  0  1  0  0  0  0  0  0  0  0  0
   -1.4227   37.0058   -4.6104 N   0  0  0  0  0  0  0  0  0  0  0  0
    2.4840   33.9958   -1.7870 C   0  0  2  0  0  0  0  0  0  0  0  0
    1.2054   34.1690   -2.5172 N   0  0  0  0  0  0  0  0  0  0  0  0
   -1.3831   35.9914    0.0414 C   0  0  1  0  0  0  0  0  0  0  0  0
   -2.3057   37.0779   -0.0604 O   0  0  0  0  0  0  0  0  0  0  0  0
   -0.2106   38.9086   -4.2365 C   0  0  2  0  0  0  0  0  0  0  0  0
   -0.3590   39.3994   -5.5450 O   0  0  0  0  0  0  0  0  0  0  0  0
    2.6797   35.1687   -0.8395 C   0  0  1  0  0  0  0  0  0  0  0  0
    1.5418   35.2389    0.0055 O   0  0  0  0  0  0  0  0  0  0  0  0
   -0.7359   36.0535    1.3578 C   0  0  1  0  0  0  0  0  0  0  0  0
    0.4097   36.8680    1.1408 O   0  0  0  0  0  0  0  0  0  0  0  0
    1.0469   39.4717   -3.6281 C   0  0  1  0  0  0  0  0  0  0  0  0
    0.8467   40.8249   -3.3432 O   0  0  0  0  0  0  0  0  0  0  0  0
    3.9776   34.9742   -0.0049 C   0  0  2  0  0  0  0  0  0  0  0  0
    4.1381   36.0782    0.8843 O   0  0  0  0  0  0  0  0  0  0  0  0
    1.3495   38.7641   -2.3513 C   0  0  1  0  0  0  0  0  0  0  0  0
    1.5515   37.4127   -2.6484 O   0  0  0  0  0  0  0  0  0  0  0  0
    5.1889   34.9051   -0.9583 C   0  0  1  0  0  0  0  0  0  0  0  0
    6.3995   34.7262   -0.2052 O   0  0  0  0  0  0  0  0  0  0  0  0
    2.6435   39.2996   -1.7068 C   0  0  0  0  0  0  0  0  0  0  0  0
    2.8377   38.6633   -0.4489 O   0  0  0  0  0  0  0  0  0  0  0  0
    7.8285   32.1804   -2.2884 N   0  0  0  0  0  0  0  0  0  0  0  0
    0.3235   32.2943   -1.8827 N   0  0  0  0  0  0  0  0  0  0  0  0
  1  2  1  0  0  0  0
  1 39  1  0  0  0  0
  3  4  1  0  0  0  0
  5  6  1  0  0  0  0
  5 40  1  0  0  0  0
  9 10  1  6  0  0  0
  9 14  1  0  0  0  0
  9 35  1  0  0  0  0
 10  1  1  0  0  0  0
 11 16  1  0  0  0  0
 11 28  1  0  0  0  0
 11 26  1  1  0  0  0
 12 17  1  0  0  0  0
 12 34  1  0  0  0  0
 12 13  1  1  0  0  0
 14 15  1  6  0  0  0
 14 19  1  0  0  0  0
 16 13  1  6  0  0  0
 16 21  1  0  0  0  0
 17 18  1  1  0  0  0
 17 23  1  0  0  0  0
 18  8  1  0  0  0  0
 19 20  1  6  0  0  0
 19 25  1  0  0  0  0
 20  5  1  0  0  0  0
 21  3  1  6  0  0  0
 21 22  1  0  0  0  0
 21 27  1  0  0  0  0
 23 24  1  6  0  0  0
 23 29  1  0  0  0  0
 25 26  1  1  0  0  0
 25 31  1  0  0  0  0
 27  7  1  1  0  0  0
 27 28  1  0  0  0  0
 29 30  1  1  0  0  0
 29 33  1  0  0  0  0
 31 32  1  1  0  0  0
 31 35  1  0  0  0  0
 33 34  1  0  0  0  0
 33 37  1  6  0  0  0
 35 36  1  1  0  0  0
 37 38  1  0  0  0  0
M  END
>  <CHROM.1>
-109.82760085,79.52813417,103.37636100,155.36505031,78.31668671,-115.95337871
87.74530547,-115.91003896,63.80757585,-119.75908189,175.87049180,1.63787367
35.75436411,-1.83267832,-0.35556715,0.52698542,-0.93344456

>  <Name>
1nta_lig

>  <RI>
0

>  <Rbt.Current_Directory>
/home/itssahil/PROJECTS/Mol_Feturizer/New_Systems/rnas/1nta

>  <Rbt.Executable>
rbdock ($Id: //depot/dev/client3/rdock/2013.1/src/exe/rbdock.cxx#4 $)

>  <Rbt.Library>
libRbt.so (2013.1, Build901 2013/11/27)

>  <Rbt.Parameter_File>
/export/apps/rDock/src/rDock_2013.1_src/data/scripts/dock_solv.prm

>  <Rbt.Receptor>
prm/pocket_docking_6.prm

>  <SCORE>
-21.7575

>  <SCORE.INTER>
-3.50449

>  <SCORE.INTER.CONST>
1

>  <SCORE.INTER.POLAR>
-1.59109

>  <SCORE.INTER.ROT>
11

>  <SCORE.INTER.SOLV>
19.2153

>  <SCORE.INTER.VDW>
-14.3711

>  <SCORE.INTER.norm>
-0.0876123

>  <SCORE.INTRA>
-18.253

>  <SCORE.INTRA.DIHEDRAL>
2.23799

>  <SCORE.INTRA.DIHEDRAL.0>
19.0336

>  <SCORE.INTRA.POLAR>
0

>  <SCORE.INTRA.POLAR.0>
0

>  <SCORE.INTRA.REPUL>
0

>  <SCORE.INTRA.REPUL.0>
0

>  <SCORE.INTRA.SOLV>
-0.156358

>  <SCORE.INTRA.SOLV.lig_0>
-97.5861

>  <SCORE.INTRA.VDW>
-19.2938

>  <SCORE.INTRA.VDW.0>
11.7669

>  <SCORE.INTRA.norm>
-0.456324

>  <SCORE.RESTR>
0

>  <SCORE.RESTR.CAVITY>
0

>  <SCORE.RESTR.norm>
0

>  <SCORE.SYSTEM>
0

>  <SCORE.SYSTEM.CONST>
0

>  <SCORE.SYSTEM.DIHEDRAL>
0

>  <SCORE.SYSTEM.SOLV>
0

>  <SCORE.SYSTEM.norm>
0

>  <SCORE.heavy>
40

>  <SCORE.norm>
-0.543936

>  <RMSD>
4.631

$$$$
1nta_lig
 OpenBabel11021811403D
libRbt.so/2013.1/901 2013/11/27
 40 42  0  0  0  0  0  0  0  0999 V2000
    7.6481   32.4153   -1.9699 C   0  0  0  0  0  0  0  0  0  0  0  0
    7.7116   31.5243   -2.8877 N   0  0  0  0  0  0  0  0  0  0  0  0
   -1.5251   34.9797   -0.5485 C   0  0  0  0  0  0  0  0  0  0  0  0
   -1.2821   34.1153    0.2646 O   0  0  0  0  0  0  0  0  0  0  0  0
    3.8899   35.9500    1.4161 C   0  0  0  0  0  0  0  0  0  0  0  0
    4.8579   36.8140    1.2541 N   0  0  0  0  0  0  0  0  0  0  0  0
    0.1699   37.6696    0.4276 C   0  0  0  0  0  0  0  0  0  0  0  0
   -2.5940   37.0049   -5.8666 C   0  0  0  0  0  0  0  0  0  0  0  0
    6.0585   34.1525   -2.2059 C   0  0  2  0  0  0  0  0  0  0  0  0
    7.4800   33.6593   -2.3929 N   0  0  0  0  0  0  0  0  0  0  0  0
    1.6734   35.2815   -1.7921 C   0  0  2  0  0  0  0  0  0  0  0  0
   -1.1274   34.8062   -4.0001 C   0  0  1  0  0  0  0  0  0  0  0  0
    0.0784   35.2772   -3.5082 O   0  0  0  0  0  0  0  0  0  0  0  0
    5.7101   34.2061   -0.7063 C   0  0  1  0  0  0  0  0  0  0  0  0
    6.5616   35.1434   -0.1196 O   0  0  0  0  0  0  0  0  0  0  0  0
    0.2280   35.0426   -2.2153 C   0  0  2  0  0  0  0  0  0  0  0  0
   -1.3787   35.0772   -5.4671 C   0  0  1  0  0  0  0  0  0  0  0  0
   -1.2514   36.4742   -5.7002 N   0  0  0  0  0  0  0  0  0  0  0  0
    4.2711   34.6774   -0.4576 C   0  0  2  0  0  0  0  0  0  0  0  0
    3.8994   34.7366    0.9764 N   0  0  0  0  0  0  0  0  0  0  0  0
   -0.4926   35.8443   -1.2209 C   0  0  1  0  0  0  0  0  0  0  0  0
   -1.0821   36.9471   -1.9126 O   0  0  0  0  0  0  0  0  0  0  0  0
   -0.4645   34.4023   -6.2638 C   0  0  2  0  0  0  0  0  0  0  0  0
   -0.9318   34.4572   -7.5881 O   0  0  0  0  0  0  0  0  0  0  0  0
    3.3315   33.7228   -1.1771 C   0  0  1  0  0  0  0  0  0  0  0  0
    2.0030   34.1652   -0.9468 O   0  0  0  0  0  0  0  0  0  0  0  0
    0.4747   36.3691   -0.2490 C   0  0  1  0  0  0  0  0  0  0  0  0
    1.6957   36.4299   -0.9759 O   0  0  0  0  0  0  0  0  0  0  0  0
   -0.3519   32.9644   -5.8298 C   0  0  1  0  0  0  0  0  0  0  0  0
    0.7364   32.3777   -6.4806 O   0  0  0  0  0  0  0  0  0  0  0  0
    3.6512   33.6996   -2.6989 C   0  0  2  0  0  0  0  0  0  0  0  0
    2.7536   32.8074   -3.3573 O   0  0  0  0  0  0  0  0  0  0  0  0
   -0.1096   32.8990   -4.3603 C   0  0  1  0  0  0  0  0  0  0  0  0
   -1.2056   33.4850   -3.7193 O   0  0  0  0  0  0  0  0  0  0  0  0
    5.1005   33.2122   -2.9061 C   0  0  1  0  0  0  0  0  0  0  0  0
    5.4152   33.1829   -4.3078 O   0  0  0  0  0  0  0  0  0  0  0  0
   -0.0083   31.4400   -3.8732 C   0  0  0  0  0  0  0  0  0  0  0  0
    0.2495   31.4306   -2.4738 O   0  0  0  0  0  0  0  0  0  0  0  0
    7.7458   32.1263   -0.7173 N   0  0  0  0  0  0  0  0  0  0  0  0
    2.8480   36.2821    2.0722 N   0  0  0  0  0  0  0  0  0  0  0  0
  1  2  1  0  0  0  0
  1 39  1  0  0  0  0
  3  4  1  0  0  0  0
  5  6  1  0  0  0  0
  5 40  1  0  0  0  0
  9 10  1  1  0  0  0
  9 14  1  0  0  0  0
  9 35  1  0  0  0  0
 10  1  1  0  0  0  0
 11 16  1  0  0  0  0
 11 28  1  0  0  0  0
 11 26  1  1  0  0  0
 12 17  1  0  0  0  0
 12 34  1  0  0  0  0
 12 13  1  6  0  0  0
 14 15  1  1  0  0  0
 14 19  1  0  0  0  0
 16 13  1  6  0  0  0
 16 21  1  0  0  0  0
 17 18  1  1  0  0  0
 17 23  1  0  0  0  0
 18  8  1  0  0  0  0
 19 20  1  1  0  0  0
 19 25  1  0  0  0  0
 20  5  1  0  0  0  0
 21  3  1  1  0  0  0
 21 22  1  0  0  0  0
 21 27  1  0  0  0  0
 23 24  1  6  0  0  0
 23 29  1  0  0  0  0
 25 26  1  6  0  0  0
 25 31  1  0  0  0  0
 27  7  1  6  0  0  0
 27 28  1  0  0  0  0
 29 30  1  6  0  0  0
 29 33  1  0  0  0  0
 31 32  1  6  0  0  0
 31 35  1  0  0  0  0
 33 34  1  0  0  0  0
 33 37  1  1  0  0  0
 35 36  1  6  0  0  0
 37 38  1  0  0  0  0
M  END
>  <CHROM.1>
63.86999326,103.56143036,141.00596805,178.35823254,167.00870330,-105.08233828
103.73575294,-49.88099684,73.51558312,78.42751894,178.83072459,2.01394846
34.42851873,-2.38582098,-0.35324065,0.33861881,-2.07422840

>  <Name>
1nta_lig

>  <RI>
0

>  <Rbt.Current_Directory>
/home/itssahil/PROJECTS/Mol_Feturizer/New_Systems/rnas/1nta

>  <Rbt.Executable>
rbdock ($Id: //depot/dev/client3/rdock/2013.1/src/exe/rbdock.cxx#4 $)

>  <Rbt.Library>
libRbt.so (2013.1, Build901 2013/11/27)

>  <Rbt.Parameter_File>
/export/apps/rDock/src/rDock_2013.1_src/data/scripts/dock_solv.prm

>  <Rbt.Receptor>
prm/pocket_docking_3.prm

>  <SCORE>
-16.0188

>  <SCORE.INTER>
1.76246

>  <SCORE.INTER.CONST>
1

>  <SCORE.INTER.POLAR>
-0.177462

>  <SCORE.INTER.ROT>
11

>  <SCORE.INTER.SOLV>
22.9072

>  <SCORE.INTER.VDW>
-16.8025

>  <SCORE.INTER.norm>
0.0440615

>  <SCORE.INTRA>
-17.7834

>  <SCORE.INTRA.DIHEDRAL>
-7.51174

>  <SCORE.INTRA.DIHEDRAL.0>
19.0336

>  <SCORE.INTRA.POLAR>
0

>  <SCORE.INTRA.POLAR.0>
0

>  <SCORE.INTRA.REPUL>
0

>  <SCORE.INTRA.REPUL.0>
0

>  <SCORE.INTRA.SOLV>
1.29037

>  <SCORE.INTRA.SOLV.lig_0>
-97.5861

>  <SCORE.INTRA.VDW>
-14.6727

>  <SCORE.INTRA.VDW.0>
11.7669

>  <SCORE.INTRA.norm>
-0.444585

>  <SCORE.RESTR>
0.00218274

>  <SCORE.RESTR.CAVITY>
0.00218274

>  <SCORE.RESTR.norm>
5.45685e-05

>  <SCORE.SYSTEM>
0

>  <SCORE.SYSTEM.CONST>
0

>  <SCORE.SYSTEM.DIHEDRAL>
0

>  <SCORE.SYSTEM.SOLV>
0

>  <SCORE.SYSTEM.norm>
0

>  <SCORE.heavy>
40

>  <SCORE.norm>
-0.400469

>  <RMSD>
4.669

$$$$
1nta_lig
 OpenBabel11021811403D
libRbt.so/2013.1/901 2013/11/27
 40 42  0  0  0  0  0  0  0  0999 V2000
    6.2574   32.7809   -3.4243 C   0  0  0  0  0  0  0  0  0  0  0  0
    5.8713   31.6627   -3.9148 N   0  0  0  0  0  0  0  0  0  0  0  0
   -2.1237   36.3710   -0.1955 C   0  0  0  0  0  0  0  0  0  0  0  0
   -2.0835   35.3177   -0.7924 O   0  0  0  0  0  0  0  0  0  0  0  0
   -0.1488   32.8721   -2.2134 C   0  0  0  0  0  0  0  0  0  0  0  0
   -0.7135   32.3883   -1.1379 N   0  0  0  0  0  0  0  0  0  0  0  0
   -1.6822   35.9289    3.0712 C   0  0  0  0  0  0  0  0  0  0  0  0
    0.6790   36.8113   -4.0191 C   0  0  0  0  0  0  0  0  0  0  0  0
    4.3727   33.7210   -2.3452 C   0  0  2  0  0  0  0  0  0  0  0  0
    5.3734   33.7656   -3.4834 N   0  0  0  0  0  0  0  0  0  0  0  0
    1.1461   36.2374    0.8812 C   0  0  2  0  0  0  0  0  0  0  0  0
    1.6415   38.3592   -1.0828 C   0  0  1  0  0  0  0  0  0  0  0  0
    0.6510   38.2983   -0.1170 O   0  0  0  0  0  0  0  0  0  0  0  0
    2.9405   33.8644   -2.8941 C   0  0  1  0  0  0  0  0  0  0  0  0
    2.7000   32.7577   -3.7098 O   0  0  0  0  0  0  0  0  0  0  0  0
    0.1783   37.0748    0.0521 C   0  0  2  0  0  0  0  0  0  0  0  0
    1.1501   38.4977   -2.5069 C   0  0  1  0  0  0  0  0  0  0  0  0
    0.2444   37.4362   -2.7811 N   0  0  0  0  0  0  0  0  0  0  0  0
    1.8843   33.8495   -1.7811 C   0  0  2  0  0  0  0  0  0  0  0  0
    0.4929   33.9903   -2.2735 N   0  0  0  0  0  0  0  0  0  0  0  0
   -1.0780   36.8511    0.7750 C   0  0  1  0  0  0  0  0  0  0  0  0
   -1.4407   38.0904    1.3872 O   0  0  0  0  0  0  0  0  0  0  0  0
    0.4965   39.7075   -2.6946 C   0  0  2  0  0  0  0  0  0  0  0  0
    0.3363   39.8945   -4.0783 O   0  0  0  0  0  0  0  0  0  0  0  0
    2.1921   34.9902   -0.8241 C   0  0  1  0  0  0  0  0  0  0  0  0
    1.2149   34.9697    0.2047 O   0  0  0  0  0  0  0  0  0  0  0  0
   -0.8420   35.8616    1.8337 C   0  0  1  0  0  0  0  0  0  0  0  0
    0.5420   35.9986    2.1316 O   0  0  0  0  0  0  0  0  0  0  0  0
    1.3128   40.8382   -2.1258 C   0  0  1  0  0  0  0  0  0  0  0  0
    0.5335   41.9979   -2.1108 O   0  0  0  0  0  0  0  0  0  0  0  0
    3.6212   34.8248   -0.2333 C   0  0  2  0  0  0  0  0  0  0  0  0
    3.8872   35.8975    0.6689 O   0  0  0  0  0  0  0  0  0  0  0  0
    1.7060   40.5201   -0.7234 C   0  0  1  0  0  0  0  0  0  0  0  0
    2.4879   39.3611   -0.7505 O   0  0  0  0  0  0  0  0  0  0  0  0
    4.6519   34.8546   -1.3813 C   0  0  1  0  0  0  0  0  0  0  0  0
    5.9806   34.7039   -0.8550 O   0  0  0  0  0  0  0  0  0  0  0  0
    2.5617   41.6471   -0.1118 C   0  0  0  0  0  0  0  0  0  0  0  0
    2.8877   41.3104    1.2318 O   0  0  0  0  0  0  0  0  0  0  0  0
    7.4288   32.9435   -2.9109 N   0  0  0  0  0  0  0  0  0  0  0  0
   -0.1912   32.2106   -3.3029 N   0  0  0  0  0  0  0  0  0  0  0  0
  1  2  1  0  0  0  0
  1 39  1  0  0  0  0
  3  4  1  0  0  0  0
  5  6  1  0  0  0  0
  5 40  1  0  0  0  0
  9 10  1  6  0  0  0
  9 14  1  0  0  0  0
  9 35  1  0  0  0  0
 10  1  1  0  0  0  0
 11 16  1  0  0  0  0
 11 28  1  0  0  0  0
 11 26  1  6  0  0  0
 12 17  1  0  0  0  0
 12 34  1  0  0  0  0
 12 13  1  1  0  0  0
 14 15  1  6  0  0  0
 14 19  1  0  0  0  0
 16 13  1  1  0  0  0
 16 21  1  0  0  0  0
 17 18  1  1  0  0  0
 17 23  1  0  0  0  0
 18  8  1  0  0  0  0
 19 20  1  6  0  0  0
 19 25  1  0  0  0  0
 20  5  1  0  0  0  0
 21  3  1  6  0  0  0
 21 22  1  0  0  0  0
 21 27  1  0  0  0  0
 23 24  1  6  0  0  0
 23 29  1  0  0  0  0
 25 26  1  1  0  0  0
 25 31  1  0  0  0  0
 27  7  1  1  0  0  0
 27 28  1  0  0  0  0
 29 30  1  1  0  0  0
 29 33  1  0  0  0  0
 31 32  1  1  0  0  0
 31 35  1  0  0  0  0
 33 34  1  0  0  0  0
 33 37  1  6  0  0  0
 35 36  1  1  0  0  0
 37 38  1  0  0  0  0
M  END
>  <CHROM.1>
-131.40668013,82.88870858,86.28107272,84.76796676,77.57506859,-129.10708125
106.06848698,81.34455111,65.20657538,-160.51190089,178.81813399,1.66121837
36.28482566,-1.18686125,-0.98729064,0.44328883,0.07634320

>  <Name>
1nta_lig

>  <RI>
0

>  <Rbt.Current_Directory>
/home/itssahil/PROJECTS/Mol_Feturizer/New_Systems/rnas/1nta

>  <Rbt.Executable>
rbdock ($Id: //depot/dev/client3/rdock/2013.1/src/exe/rbdock.cxx#4 $)

>  <Rbt.Library>
libRbt.so (2013.1, Build901 2013/11/27)

>  <Rbt.Parameter_File>
/export/apps/rDock/src/rDock_2013.1_src/data/scripts/dock_solv.prm

>  <Rbt.Receptor>
prm/pocket_docking_4.prm

>  <SCORE>
-23.3568

>  <SCORE.INTER>
-0.948073

>  <SCORE.INTER.CONST>
1

>  <SCORE.INTER.POLAR>
-1.35249

>  <SCORE.INTER.ROT>
11

>  <SCORE.INTER.SOLV>
20.2408

>  <SCORE.INTER.VDW>
-13.804

>  <SCORE.INTER.norm>
-0.0237018

>  <SCORE.INTRA>
-22.4203

>  <SCORE.INTRA.DIHEDRAL>
-5.57444

>  <SCORE.INTRA.DIHEDRAL.0>
19.0336

>  <SCORE.INTRA.POLAR>
0

>  <SCORE.INTRA.POLAR.0>
0

>  <SCORE.INTRA.REPUL>
0.0250027

>  <SCORE.INTRA.REPUL.0>
0

>  <SCORE.INTRA.SOLV>
-1.73628

>  <SCORE.INTRA.SOLV.lig_0>
-97.5861

>  <SCORE.INTRA.VDW>
-18.89

>  <SCORE.INTRA.VDW.0>
11.7669

>  <SCORE.INTRA.norm>
-0.560508

>  <SCORE.RESTR>
0.0116046

>  <SCORE.RESTR.CAVITY>
0.0116046

>  <SCORE.RESTR.norm>
0.000290115

>  <SCORE.SYSTEM>
0

>  <SCORE.SYSTEM.CONST>
0

>  <SCORE.SYSTEM.DIHEDRAL>
0

>  <SCORE.SYSTEM.SOLV>
0

>  <SCORE.SYSTEM.norm>
0

>  <SCORE.heavy>
40

>  <SCORE.norm>
-0.58392

>  <RMSD>
4.669

$$$$
1nta_lig
 OpenBabel11021811403D
libRbt.so/2013.1/901 2013/11/27
 40 42  0  0  0  0  0  0  0  0999 V2000
    9.1025   31.3563   -3.6542 C   0  0  0  0  0  0  0  0  0  0  0  0
    8.9112   30.1618   -3.2338 N   0  0  0  0  0  0  0  0  0  0  0  0
    2.2204   35.8668    1.9005 C   0  0  0  0  0  0  0  0  0  0  0  0
    2.2632   34.6579    1.8371 O   0  0  0  0  0  0  0  0  0  0  0  0
    2.5234   33.6185   -2.8539 C   0  0  0  0  0  0  0  0  0  0  0  0
    1.8660   33.8696   -1.7518 N   0  0  0  0  0  0  0  0  0  0  0  0
    5.0770   37.4285    2.5802 C   0  0  0  0  0  0  0  0  0  0  0  0
    0.1273   39.9685    0.8669 C   0  0  0  0  0  0  0  0  0  0  0  0
    7.0510   32.3759   -3.0605 C   0  0  2  0  0  0  0  0  0  0  0  0
    8.0332   31.9680   -4.1412 N   0  0  0  0  0  0  0  0  0  0  0  0
    4.3642   36.3166   -0.7584 C   0  0  2  0  0  0  0  0  0  0  0  0
    0.9480   37.4476   -0.9085 C   0  0  1  0  0  0  0  0  0  0  0  0
    2.3175   37.4016   -1.1085 O   0  0  0  0  0  0  0  0  0  0  0  0
    5.8279   33.0680   -3.6913 C   0  0  1  0  0  0  0  0  0  0  0  0
    5.1943   32.1250   -4.5020 O   0  0  0  0  0  0  0  0  0  0  0  0
    2.9186   36.5257   -0.3207 C   0  0  2  0  0  0  0  0  0  0  0  0
    0.3072   38.8013   -1.1226 C   0  0  1  0  0  0  0  0  0  0  0  0
    0.9684   39.7532   -0.2986 N   0  0  0  0  0  0  0  0  0  0  0  0
    4.8083   33.5247   -2.6393 C   0  0  2  0  0  0  0  0  0  0  0  0
    3.6188   34.2000   -3.2113 N   0  0  0  0  0  0  0  0  0  0  0  0
    3.0944   36.8022    1.1088 C   0  0  1  0  0  0  0  0  0  0  0  0
    2.7473   38.1721    1.3210 O   0  0  0  0  0  0  0  0  0  0  0  0
    0.4138   39.2009   -2.4474 C   0  0  2  0  0  0  0  0  0  0  0  0
   -0.4443   40.2985   -2.6313 O   0  0  0  0  0  0  0  0  0  0  0  0
    5.5108   34.4767   -1.6843 C   0  0  1  0  0  0  0  0  0  0  0  0
    4.5648   34.8928   -0.7119 O   0  0  0  0  0  0  0  0  0  0  0  0
    4.5107   36.6234    1.4519 C   0  0  1  0  0  0  0  0  0  0  0  0
    5.1959   36.8767    0.2316 O   0  0  0  0  0  0  0  0  0  0  0  0
    0.0024   38.0815   -3.3673 C   0  0  1  0  0  0  0  0  0  0  0  0
    0.3451   38.4223   -4.6783 O   0  0  0  0  0  0  0  0  0  0  0  0
    6.7203   33.7672   -1.0116 C   0  0  2  0  0  0  0  0  0  0  0  0
    7.3594   34.6720   -0.1126 O   0  0  0  0  0  0  0  0  0  0  0  0
    0.7326   36.8343   -3.0015 C   0  0  1  0  0  0  0  0  0  0  0  0
    0.3797   36.5007   -1.6902 O   0  0  0  0  0  0  0  0  0  0  0  0
    7.7242   33.3332   -2.1002 C   0  0  1  0  0  0  0  0  0  0  0  0
    8.8510   32.6756   -1.4978 O   0  0  0  0  0  0  0  0  0  0  0  0
    0.3227   35.6580   -3.9096 C   0  0  0  0  0  0  0  0  0  0  0  0
   -1.0854   35.4704   -3.8253 O   0  0  0  0  0  0  0  0  0  0  0  0
   10.2576   31.9275   -3.6129 N   0  0  0  0  0  0  0  0  0  0  0  0
    2.0978   32.7218   -3.6546 N   0  0  0  0  0  0  0  0  0  0  0  0
  1  2  1  0  0  0  0
  1 39  1  0  0  0  0
  3  4  1  0  0  0  0
  5  6  1  0  0  0  0
  5 40  1  0  0  0  0
  9 10  1  6  0  0  0
  9 14  1  0  0  0  0
  9 35  1  0  0  0  0
 10  1  1  0  0  0  0
 11 16  1  0  0  0  0
 11 28  1  0  0  0  0
 11 26  1  1  0  0  0
 12 17  1  0  0  0  0
 12 34  1  0  0  0  0
 12 13  1  6  0  0  0
 14 15  1  6  0  0  0
 14 19  1  0  0  0  0
 16 13  1  6  0  0  0
 16 21  1  0  0  0  0
 17 18  1  1  0  0  0
 17 23  1  0  0  0  0
 18  8  1  0  0  0  0
 19 20  1  6  0  0  0
 19 25  1  0  0  0  0
 20  5  1  0  0  0  0
 21  3  1  1  0  0  0
 21 22  1  0  0  0  0
 21 27  1  0  0  0  0
 23 24  1  1  0  0  0
 23 29  1  0  0  0  0
 25 26  1  1  0  0  0
 25 31  1  0  0  0  0
 27  7  1  1  0  0  0
 27 28  1  0  0  0  0
 29 30  1  6  0  0  0
 29 33  1  0  0  0  0
 31 32  1  1  0  0  0
 31 35  1  0  0  0  0
 33 34  1  0  0  0  0
 33 37  1  6  0  0  0
 35 36  1  1  0  0  0
 37 38  1  0  0  0  0
M  END
>  <CHROM.1>
-179.47491462,72.83609704,149.42343831,147.63171790,169.05995621,-100.81502227
123.61185360,86.54020928,57.07829017,-118.56467066,-56.98139141,3.66086006
35.48009553,-1.62805540,0.49582436,0.52225810,-2.15189299

>  <Name>
1nta_lig

>  <RI>
0

>  <Rbt.Current_Directory>
/home/itssahil/PROJECTS/Mol_Feturizer/New_Systems/rnas/1nta

>  <Rbt.Executable>
rbdock ($Id: //depot/dev/client3/rdock/2013.1/src/exe/rbdock.cxx#4 $)

>  <Rbt.Library>
libRbt.so (2013.1, Build901 2013/11/27)

>  <Rbt.Parameter_File>
/export/apps/rDock/src/rDock_2013.1_src/data/scripts/dock_solv.prm

>  <Rbt.Receptor>
prm/pocket_docking_8.prm

>  <SCORE>
-20.7503

>  <SCORE.INTER>
-5.62729

>  <SCORE.INTER.CONST>
1

>  <SCORE.INTER.POLAR>
-1.25954

>  <SCORE.INTER.ROT>
11

>  <SCORE.INTER.SOLV>
30.3693

>  <SCORE.INTER.VDW>
-20.6095

>  <SCORE.INTER.norm>
-0.140682

>  <SCORE.INTRA>
-15.123

>  <SCORE.INTRA.DIHEDRAL>
0.0739798

>  <SCORE.INTRA.DIHEDRAL.0>
19.0336

>  <SCORE.INTRA.POLAR>
0

>  <SCORE.INTRA.POLAR.0>
0

>  <SCORE.INTRA.REPUL>
0

>  <SCORE.INTRA.REPUL.0>
0

>  <SCORE.INTRA.SOLV>
3.61056

>  <SCORE.INTRA.SOLV.lig_0>
-97.5861

>  <SCORE.INTRA.VDW>
-16.9652

>  <SCORE.INTRA.VDW.0>
11.7669

>  <SCORE.INTRA.norm>
-0.378074

>  <SCORE.RESTR>
0

>  <SCORE.RESTR.CAVITY>
0

>  <SCORE.RESTR.norm>
0

>  <SCORE.SYSTEM>
0

>  <SCORE.SYSTEM.CONST>
0

>  <SCORE.SYSTEM.DIHEDRAL>
0

>  <SCORE.SYSTEM.SOLV>
0

>  <SCORE.SYSTEM.norm>
0

>  <SCORE.heavy>
40

>  <SCORE.norm>
-0.518756

>  <RMSD>
4.690

$$$$
1nta_lig
 OpenBabel11021811403D
libRbt.so/2013.1/901 2013/11/27
 40 42  0  0  0  0  0  0  0  0999 V2000
   10.2509   31.2966   -3.0774 C   0  0  0  0  0  0  0  0  0  0  0  0
   10.0971   30.9516   -4.3011 N   0  0  0  0  0  0  0  0  0  0  0  0
    2.3746   34.9846    1.7235 C   0  0  0  0  0  0  0  0  0  0  0  0
    1.1999   34.6949    1.6644 O   0  0  0  0  0  0  0  0  0  0  0  0
    3.8888   33.5522   -3.0899 C   0  0  0  0  0  0  0  0  0  0  0  0
    3.5404   32.5584   -2.3148 N   0  0  0  0  0  0  0  0  0  0  0  0
    4.8384   37.1374    2.3201 C   0  0  0  0  0  0  0  0  0  0  0  0
   -0.0537   39.2337   -0.2447 C   0  0  0  0  0  0  0  0  0  0  0  0
    8.5448   32.6441   -2.1424 C   0  0  2  0  0  0  0  0  0  0  0  0
    9.9125   32.5445   -2.7894 N   0  0  0  0  0  0  0  0  0  0  0  0
    4.4087   35.7305   -0.9550 C   0  0  2  0  0  0  0  0  0  0  0  0
    0.8515   36.3483   -0.9921 C   0  0  1  0  0  0  0  0  0  0  0  0
    2.1858   36.3481   -1.3627 O   0  0  0  0  0  0  0  0  0  0  0  0
    7.5098   33.1446   -3.1676 C   0  0  1  0  0  0  0  0  0  0  0  0
    7.4299   32.1817   -4.1749 O   0  0  0  0  0  0  0  0  0  0  0  0
    2.9462   35.6579   -0.5294 C   0  0  2  0  0  0  0  0  0  0  0  0
   -0.0055   37.4024   -1.6578 C   0  0  1  0  0  0  0  0  0  0  0  0
    0.5808   38.6774   -1.4279 N   0  0  0  0  0  0  0  0  0  0  0  0
    6.1079   33.2874   -2.5601 C   0  0  2  0  0  0  0  0  0  0  0  0
    5.0861   33.7721   -3.5187 N   0  0  0  0  0  0  0  0  0  0  0  0
    3.0450   36.0385    0.8835 C   0  0  1  0  0  0  0  0  0  0  0  0
    2.4195   37.3158    1.0227 O   0  0  0  0  0  0  0  0  0  0  0  0
   -0.0913   37.1860   -3.0259 C   0  0  2  0  0  0  0  0  0  0  0  0
   -1.1203   38.0043   -3.5226 O   0  0  0  0  0  0  0  0  0  0  0  0
    6.1967   34.2580   -1.3931 C   0  0  1  0  0  0  0  0  0  0  0  0
    4.8990   34.3835   -0.8330 O   0  0  0  0  0  0  0  0  0  0  0  0
    4.4637   36.1751    1.2360 C   0  0  1  0  0  0  0  0  0  0  0  0
    5.0953   36.5013    0.0041 O   0  0  0  0  0  0  0  0  0  0  0  0
   -0.4160   35.7427   -3.3090 C   0  0  1  0  0  0  0  0  0  0  0  0
   -0.2593   35.5020   -4.6765 O   0  0  0  0  0  0  0  0  0  0  0  0
    7.2081   33.7337   -0.3343 C   0  0  2  0  0  0  0  0  0  0  0  0
    7.2697   34.6515    0.7562 O   0  0  0  0  0  0  0  0  0  0  0  0
    0.5277   34.8589   -2.5668 C   0  0  1  0  0  0  0  0  0  0  0  0
    0.3599   35.1051   -1.2006 O   0  0  0  0  0  0  0  0  0  0  0  0
    8.6040   33.6136   -0.9811 C   0  0  1  0  0  0  0  0  0  0  0  0
    9.5541   33.1310   -0.0173 O   0  0  0  0  0  0  0  0  0  0  0  0
    0.2145   33.3702   -2.8155 C   0  0  0  0  0  0  0  0  0  0  0  0
   -1.0864   33.0764   -2.3188 O   0  0  0  0  0  0  0  0  0  0  0  0
   10.7087   30.4886   -2.1831 N   0  0  0  0  0  0  0  0  0  0  0  0
    3.0058   34.3781   -3.4957 N   0  0  0  0  0  0  0  0  0  0  0  0
  1  2  1  0  0  0  0
  1 39  1  0  0  0  0
  3  4  1  0  0  0  0
  5  6  1  0  0  0  0
  5 40  1  0  0  0  0
  9 10  1  6  0  0  0
  9 14  1  0  0  0  0
  9 35  1  0  0  0  0
 10  1  1  0  0  0  0
 11 16  1  0  0  0  0
 11 28  1  0  0  0  0
 11 26  1  1  0  0  0
 12 17  1  0  0  0  0
 12 34  1  0  0  0  0
 12 13  1  6  0  0  0
 14 15  1  6  0  0  0
 14 19  1  0  0  0  0
 16 13  1  6  0  0  0
 16 21  1  0  0  0  0
 17 18  1  6  0  0  0
 17 23  1  0  0  0  0
 18  8  1  0  0  0  0
 19 20  1  6  0  0  0
 19 25  1  0  0  0  0
 20  5  1  0  0  0  0
 21  3  1  1  0  0  0
 21 22  1  0  0  0  0
 21 27  1  0  0  0  0
 23 24  1  1  0  0  0
 23 29  1  0  0  0  0
 25 26  1  1  0  0  0
 25 31  1  0  0  0  0
 27  7  1  1  0  0  0
 27 28  1  0  0  0  0
 29 30  1  6  0  0  0
 29 33  1  0  0  0  0
 31 32  1  1  0  0  0
 31 35  1  0  0  0  0
 33 34  1  0  0  0  0
 33 37  1  1  0  0  0
 35 36  1  1  0  0  0
 37 38  1  0  0  0  0
M  END
>  <CHROM.1>
-103.39223044,100.46095816,170.98643086,164.00334764,-178.01483520,-93.88897427
163.24518080,-29.95243481,-62.26395185,-116.94122125,-62.80364579,4.00645131
34.76557600,-1.51322963,0.28909576,0.34736083,-2.14574119

>  <Name>
1nta_lig

>  <RI>
0

>  <Rbt.Current_Directory>
/home/itssahil/PROJECTS/Mol_Feturizer/New_Systems/rnas/1nta

>  <Rbt.Executable>
rbdock ($Id: //depot/dev/client3/rdock/2013.1/src/exe/rbdock.cxx#4 $)

>  <Rbt.Library>
libRbt.so (2013.1, Build901 2013/11/27)

>  <Rbt.Parameter_File>
/export/apps/rDock/src/rDock_2013.1_src/data/scripts/dock_solv.prm

>  <Rbt.Receptor>
prm/pocket_docking_3.prm

>  <SCORE>
-23.5869

>  <SCORE.INTER>
-6.90935

>  <SCORE.INTER.CONST>
1

>  <SCORE.INTER.POLAR>
-1.82637

>  <SCORE.INTER.ROT>
11

>  <SCORE.INTER.SOLV>
30.0514

>  <SCORE.INTER.VDW>
-19.4688

>  <SCORE.INTER.norm>
-0.172734

>  <SCORE.INTRA>
-16.97

>  <SCORE.INTRA.DIHEDRAL>
-7.00691

>  <SCORE.INTRA.DIHEDRAL.0>
19.0336

>  <SCORE.INTRA.POLAR>
0

>  <SCORE.INTRA.POLAR.0>
0

>  <SCORE.INTRA.REPUL>
0

>  <SCORE.INTRA.REPUL.0>
0

>  <SCORE.INTRA.SOLV>
4.78812

>  <SCORE.INTRA.SOLV.lig_0>
-97.5861

>  <SCORE.INTRA.VDW>
-15.8606

>  <SCORE.INTRA.VDW.0>
11.7669

>  <SCORE.INTRA.norm>
-0.424251

>  <SCORE.RESTR>
0.292503

>  <SCORE.RESTR.CAVITY>
0.292503

>  <SCORE.RESTR.norm>
0.00731256

>  <SCORE.SYSTEM>
0

>  <SCORE.SYSTEM.CONST>
0

>  <SCORE.SYSTEM.DIHEDRAL>
0

>  <SCORE.SYSTEM.SOLV>
0

>  <SCORE.SYSTEM.norm>
0

>  <SCORE.heavy>
40

>  <SCORE.norm>
-0.589672

>  <RMSD>
4.692

$$$$
1nta_lig
 OpenBabel11021811403D
libRbt.so/2013.1/901 2013/11/27
 40 42  0  0  0  0  0  0  0  0999 V2000
    8.7067   31.6590   -3.8373 C   0  0  0  0  0  0  0  0  0  0  0  0
    9.2377   32.7911   -4.1137 N   0  0  0  0  0  0  0  0  0  0  0  0
    3.1979   36.8486    2.2325 C   0  0  0  0  0  0  0  0  0  0  0  0
    3.1843   35.6701    2.5124 O   0  0  0  0  0  0  0  0  0  0  0  0
    3.3209   33.8544   -2.8899 C   0  0  0  0  0  0  0  0  0  0  0  0
    2.8961   32.7930   -2.2553 N   0  0  0  0  0  0  0  0  0  0  0  0
    6.2277   38.1888    1.9396 C   0  0  0  0  0  0  0  0  0  0  0  0
    1.3310   41.1659   -0.3646 C   0  0  0  0  0  0  0  0  0  0  0  0
    7.5154   31.9684   -1.8160 C   0  0  2  0  0  0  0  0  0  0  0  0
    8.6819   31.3387   -2.5522 N   0  0  0  0  0  0  0  0  0  0  0  0
    4.7729   36.3720   -0.7942 C   0  0  2  0  0  0  0  0  0  0  0  0
    1.5420   37.9636   -0.5462 C   0  0  1  0  0  0  0  0  0  0  0  0
    2.7719   37.5652   -1.0423 O   0  0  0  0  0  0  0  0  0  0  0  0
    6.6244   32.7459   -2.8032 C   0  0  1  0  0  0  0  0  0  0  0  0
    6.1016   31.8172   -3.7044 O   0  0  0  0  0  0  0  0  0  0  0  0
    3.4648   36.8492   -0.1726 C   0  0  2  0  0  0  0  0  0  0  0  0
    0.8775   39.0972   -1.2960 C   0  0  1  0  0  0  0  0  0  0  0  0
    1.7781   40.1964   -1.3506 N   0  0  0  0  0  0  0  0  0  0  0  0
    5.4374   33.4256   -2.1076 C   0  0  2  0  0  0  0  0  0  0  0  0
    4.5600   34.1879   -3.0281 N   0  0  0  0  0  0  0  0  0  0  0  0
    3.9485   37.4501    1.0747 C   0  0  1  0  0  0  0  0  0  0  0  0
    3.7413   38.8604    0.9736 O   0  0  0  0  0  0  0  0  0  0  0  0
    0.5515   38.7171   -2.5903 C   0  0  2  0  0  0  0  0  0  0  0  0
   -0.3109   39.6941   -3.1164 O   0  0  0  0  0  0  0  0  0  0  0  0
    5.9882   34.3682   -1.0493 C   0  0  1  0  0  0  0  0  0  0  0  0
    4.8867   34.9912   -0.4071 O   0  0  0  0  0  0  0  0  0  0  0  0
    5.3906   37.1996    1.1894 C   0  0  1  0  0  0  0  0  0  0  0  0
    5.8248   37.0605   -0.1578 O   0  0  0  0  0  0  0  0  0  0  0  0
   -0.1455   37.3819   -2.5848 C   0  0  1  0  0  0  0  0  0  0  0  0
   -0.2442   36.9160   -3.8984 O   0  0  0  0  0  0  0  0  0  0  0  0
    6.8523   33.5793   -0.0248 C   0  0  2  0  0  0  0  0  0  0  0  0
    7.3509   34.4779    0.9648 O   0  0  0  0  0  0  0  0  0  0  0  0
    0.6538   36.3995   -1.7983 C   0  0  1  0  0  0  0  0  0  0  0  0
    0.7430   36.8734   -0.4857 O   0  0  0  0  0  0  0  0  0  0  0  0
    8.0376   32.9204   -0.7610 C   0  0  1  0  0  0  0  0  0  0  0  0
    8.8497   32.1864    0.1700 O   0  0  0  0  0  0  0  0  0  0  0  0
   -0.0382   35.0228   -1.7522 C   0  0  0  0  0  0  0  0  0  0  0  0
   -1.2978   35.1538   -1.1031 O   0  0  0  0  0  0  0  0  0  0  0  0
    8.2313   30.8776   -4.7460 N   0  0  0  0  0  0  0  0  0  0  0  0
    2.4823   34.6352   -3.4498 N   0  0  0  0  0  0  0  0  0  0  0  0
  1  2  1  0  0  0  0
  1 39  1  0  0  0  0
  3  4  1  0  0  0  0
  5  6  1  0  0  0  0
  5 40  1  0  0  0  0
  9 10  1  6  0  0  0
  9 14  1  0  0  0  0
  9 35  1  0  0  0  0
 10  1  1  0  0  0  0
 11 16  1  0  0  0  0
 11 28  1  0  0  0  0
 11 26  1  1  0  0  0
 12 17  1  0  0  0  0
 12 34  1  0  0  0  0
 12 13  1  6  0  0  0
 14 15  1  6  0  0  0
 14 19  1  0  0  0  0
 16 13  1  6  0  0  0
 16 21  1  0  0  0  0
 17 18  1  6  0  0  0
 17 23  1  0  0  0  0
 18  8  1  0  0  0  0
 19 20  1  6  0  0  0
 19 25  1  0  0  0  0
 20  5  1  0  0  0  0
 21  3  1  1  0  0  0
 21 22  1  0  0  0  0
 21 27  1  0  0  0  0
 23 24  1  1  0  0  0
 23 29  1  0  0  0  0
 25 26  1  1  0  0  0
 25 31  1  0  0  0  0
 27  7  1  6  0  0  0
 27 28  1  0  0  0  0
 29 30  1  6  0  0  0
 29 33  1  0  0  0  0
 31 32  1  1  0  0  0
 31 35  1  0  0  0  0
 33 34  1  0  0  0  0
 33 37  1  1  0  0  0
 35 36  1  1  0  0  0
 37 38  1  0  0  0  0
M  END
>  <CHROM.1>
3.50567337,82.46281239,173.12451609,162.81222086,176.85353903,-103.05113709
128.36496729,-14.24235514,59.60438772,-107.61105546,-61.92182082,4.05886989
35.56397971,-1.26193363,0.56330941,0.47418707,-2.33613285

>  <Name>
1nta_lig

>  <RI>
0

>  <Rbt.Current_Directory>
/home/itssahil/PROJECTS/Mol_Feturizer/New_Systems/rnas/1nta

>  <Rbt.Executable>
rbdock ($Id: //depot/dev/client3/rdock/2013.1/src/exe/rbdock.cxx#4 $)

>  <Rbt.Library>
libRbt.so (2013.1, Build901 2013/11/27)

>  <Rbt.Parameter_File>
/export/apps/rDock/src/rDock_2013.1_src/data/scripts/dock_solv.prm

>  <Rbt.Receptor>
prm/pocket_docking_5.prm

>  <SCORE>
-24.2658

>  <SCORE.INTER>
-10.8104

>  <SCORE.INTER.CONST>
1

>  <SCORE.INTER.POLAR>
-2.45455

>  <SCORE.INTER.ROT>
11

>  <SCORE.INTER.SOLV>
35.3236

>  <SCORE.INTER.VDW>
-21.733

>  <SCORE.INTER.norm>
-0.270261

>  <SCORE.INTRA>
-13.4554

>  <SCORE.INTRA.DIHEDRAL>
-6.26877

>  <SCORE.INTRA.DIHEDRAL.0>
19.0336

>  <SCORE.INTRA.POLAR>
0

>  <SCORE.INTRA.POLAR.0>
0

>  <SCORE.INTRA.REPUL>
0

>  <SCORE.INTRA.REPUL.0>
0

>  <SCORE.INTRA.SOLV>
2.39661

>  <SCORE.INTRA.SOLV.lig_0>
-97.5861

>  <SCORE.INTRA.VDW>
-11.5193

>  <SCORE.INTRA.VDW.0>
11.7669

>  <SCORE.INTRA.norm>
-0.336384

>  <SCORE.RESTR>
0

>  <SCORE.RESTR.CAVITY>
0

>  <SCORE.RESTR.norm>
0

>  <SCORE.SYSTEM>
0

>  <SCORE.SYSTEM.CONST>
0

>  <SCORE.SYSTEM.DIHEDRAL>
0

>  <SCORE.SYSTEM.SOLV>
0

>  <SCORE.SYSTEM.norm>
0

>  <SCORE.heavy>
40

>  <SCORE.norm>
-0.606644

>  <RMSD>
4.711

$$$$
1nta_lig
 OpenBabel11021811403D
libRbt.so/2013.1/901 2013/11/27
 40 42  0  0  0  0  0  0  0  0999 V2000
    9.5017   31.4832   -2.6962 C   0  0  0  0  0  0  0  0  0  0  0  0
    9.7422   30.6220   -3.6131 N   0  0  0  0  0  0  0  0  0  0  0  0
    1.5548   35.1155    2.0428 C   0  0  0  0  0  0  0  0  0  0  0  0
    0.4216   34.7067    2.1689 O   0  0  0  0  0  0  0  0  0  0  0  0
    2.7467   32.8692   -2.8609 C   0  0  0  0  0  0  0  0  0  0  0  0
    2.3031   32.7637   -1.6354 N   0  0  0  0  0  0  0  0  0  0  0  0
    3.7362   37.6254    1.9860 C   0  0  0  0  0  0  0  0  0  0  0  0
   -2.3001   36.4828    1.0918 C   0  0  0  0  0  0  0  0  0  0  0  0
    7.4711   32.6099   -2.2405 C   0  0  2  0  0  0  0  0  0  0  0  0
    8.7431   32.5066   -3.0593 N   0  0  0  0  0  0  0  0  0  0  0  0
    3.2826   35.5470   -0.9063 C   0  0  2  0  0  0  0  0  0  0  0  0
   -0.2206   35.1037   -1.1174 C   0  0  1  0  0  0  0  0  0  0  0  0
    0.9738   35.7973   -1.2156 O   0  0  0  0  0  0  0  0  0  0  0  0
    6.2871   32.9927   -3.1485 C   0  0  1  0  0  0  0  0  0  0  0  0
    6.1162   31.9516   -4.0622 O   0  0  0  0  0  0  0  0  0  0  0  0
    1.8759   35.3857   -0.3404 C   0  0  2  0  0  0  0  0  0  0  0  0
   -1.4607   35.9624   -1.0004 C   0  0  1  0  0  0  0  0  0  0  0  0
   -1.2999   36.8461    0.1020 N   0  0  0  0  0  0  0  0  0  0  0  0
    4.9741   33.1348   -2.3671 C   0  0  2  0  0  0  0  0  0  0  0  0
    3.8127   33.5077   -3.2099 N   0  0  0  0  0  0  0  0  0  0  0  0
    2.0168   36.0518    0.9585 C   0  0  1  0  0  0  0  0  0  0  0  0
    1.2336   37.2461    0.9091 O   0  0  0  0  0  0  0  0  0  0  0  0
   -1.6612   36.7104   -2.1520 C   0  0  2  0  0  0  0  0  0  0  0  0
   -2.9606   37.2424   -2.0933 O   0  0  0  0  0  0  0  0  0  0  0  0
    5.1749   34.1965   -1.2973 C   0  0  1  0  0  0  0  0  0  0  0  0
    3.9594   34.3213   -0.5758 O   0  0  0  0  0  0  0  0  0  0  0  0
    3.4241   36.4266    1.1449 C   0  0  1  0  0  0  0  0  0  0  0  0
    3.9207   36.5721   -0.1799 O   0  0  0  0  0  0  0  0  0  0  0  0
   -1.5297   35.8384   -3.3731 C   0  0  1  0  0  0  0  0  0  0  0  0
   -1.4956   36.6508   -4.5094 O   0  0  0  0  0  0  0  0  0  0  0  0
    6.3411   33.7918   -0.3513 C   0  0  2  0  0  0  0  0  0  0  0  0
    6.5070   34.7940    0.6505 O   0  0  0  0  0  0  0  0  0  0  0  0
   -0.2540   35.0698   -3.3085 C   0  0  1  0  0  0  0  0  0  0  0  0
   -0.3005   34.2582   -2.1707 O   0  0  0  0  0  0  0  0  0  0  0  0
    7.6418   33.6691   -1.1723 C   0  0  1  0  0  0  0  0  0  0  0  0
    8.7328   33.2963   -0.3146 O   0  0  0  0  0  0  0  0  0  0  0  0
   -0.0922   34.1484   -4.5337 C   0  0  0  0  0  0  0  0  0  0  0  0
   -1.0668   33.1133   -4.4727 O   0  0  0  0  0  0  0  0  0  0  0  0
    9.9687   31.3687   -1.4999 N   0  0  0  0  0  0  0  0  0  0  0  0
    2.1220   32.2937   -3.8121 N   0  0  0  0  0  0  0  0  0  0  0  0
  1  2  1  0  0  0  0
  1 39  1  0  0  0  0
  3  4  1  0  0  0  0
  5  6  1  0  0  0  0
  5 40  1  0  0  0  0
  9 10  1  6  0  0  0
  9 14  1  0  0  0  0
  9 35  1  0  0  0  0
 10  1  1  0  0  0  0
 11 16  1  0  0  0  0
 11 28  1  0  0  0  0
 11 26  1  1  0  0  0
 12 17  1  0  0  0  0
 12 34  1  0  0  0  0
 12 13  1  6  0  0  0
 14 15  1  6  0  0  0
 14 19  1  0  0  0  0
 16 13  1  6  0  0  0
 16 21  1  0  0  0  0
 17 18  1  1  0  0  0
 17 23  1  0  0  0  0
 18  8  1  0  0  0  0
 19 20  1  6  0  0  0
 19 25  1  0  0  0  0
 20  5  1  0  0  0  0
 21  3  1  1  0  0  0
 21 22  1  0  0  0  0
 21 27  1  0  0  0  0
 23 24  1  1  0  0  0
 23 29  1  0  0  0  0
 25 26  1  1  0  0  0
 25 31  1  0  0  0  0
 27  7  1  1  0  0  0
 27 28  1  0  0  0  0
 29 30  1  6  0  0  0
 29 33  1  0  0  0  0
 31 32  1  1  0  0  0
 31 35  1  0  0  0  0
 33 34  1  0  0  0  0
 33 37  1  6  0  0  0
 35 36  1  1  0  0  0
 37 38  1  0  0  0  0
M  END
>  <CHROM.1>
-139.75032756,120.61028634,166.58886195,128.53474057,148.89715610,-114.85409595
139.81511841,49.06395784,-64.20251358,-107.07777824,-68.05751775,2.94902213
34.52856947,-1.44111590,0.24376713,0.29328076,-2.08992370

>  <Name>
1nta_lig

>  <RI>
0

>  <Rbt.Current_Directory>
/home/itssahil/PROJECTS/Mol_Feturizer/New_Systems/rnas/1nta

>  <Rbt.Executable>
rbdock ($Id: //depot/dev/client3/rdock/2013.1/src/exe/rbdock.cxx#4 $)

>  <Rbt.Library>
libRbt.so (2013.1, Build901 2013/11/27)

>  <Rbt.Parameter_File>
/export/apps/rDock/src/rDock_2013.1_src/data/scripts/dock_solv.prm

>  <Rbt.Receptor>
prm/pocket_docking_2.prm

>  <SCORE>
-10.004

>  <SCORE.INTER>
0.27705

>  <SCORE.INTER.CONST>
1

>  <SCORE.INTER.POLAR>
-0.474624

>  <SCORE.INTER.ROT>
11

>  <SCORE.INTER.SOLV>
27.6222

>  <SCORE.INTER.VDW>
-18.374

>  <SCORE.INTER.norm>
0.00692625

>  <SCORE.INTRA>
-15.1517

>  <SCORE.INTRA.DIHEDRAL>
3.34188

>  <SCORE.INTRA.DIHEDRAL.0>
19.0336

>  <SCORE.INTRA.POLAR>
0

>  <SCORE.INTRA.POLAR.0>
0

>  <SCORE.INTRA.REPUL>
0

>  <SCORE.INTRA.REPUL.0>
0

>  <SCORE.INTRA.SOLV>
4.2779

>  <SCORE.INTRA.SOLV.lig_0>
-97.5861

>  <SCORE.INTRA.VDW>
-18.9616

>  <SCORE.INTRA.VDW.0>
11.7669

>  <SCORE.INTRA.norm>
-0.378793

>  <SCORE.RESTR>
4.87066

>  <SCORE.RESTR.CAVITY>
4.87066

>  <SCORE.RESTR.norm>
0.121766

>  <SCORE.SYSTEM>
0

>  <SCORE.SYSTEM.CONST>
0

>  <SCORE.SYSTEM.DIHEDRAL>
0

>  <SCORE.SYSTEM.SOLV>
0

>  <SCORE.SYSTEM.norm>
0

>  <SCORE.heavy>
40

>  <SCORE.norm>
-0.2501

>  <RMSD>
4.712

$$$$
1nta_lig
 OpenBabel11021811403D
libRbt.so/2013.1/901 2013/11/27
 40 42  0  0  0  0  0  0  0  0999 V2000
    9.1751   33.4906   -1.8778 C   0  0  0  0  0  0  0  0  0  0  0  0
    8.6659   33.1550   -3.0039 N   0  0  0  0  0  0  0  0  0  0  0  0
    0.3593   35.7863    1.2075 C   0  0  0  0  0  0  0  0  0  0  0  0
   -0.7877   35.4645    0.9880 O   0  0  0  0  0  0  0  0  0  0  0  0
    4.0398   33.2566   -3.0245 C   0  0  0  0  0  0  0  0  0  0  0  0
    3.4663   34.3913   -3.3301 N   0  0  0  0  0  0  0  0  0  0  0  0
    2.4427   38.3197    1.7579 C   0  0  0  0  0  0  0  0  0  0  0  0
   -1.7443   38.3790   -2.0253 C   0  0  0  0  0  0  0  0  0  0  0  0
    7.4250   33.0865   -0.3369 C   0  0  2  0  0  0  0  0  0  0  0  0
    8.8131   32.7466   -0.8433 N   0  0  0  0  0  0  0  0  0  0  0  0
    3.0620   36.0068   -0.9174 C   0  0  2  0  0  0  0  0  0  0  0  0
   -0.3053   35.8647   -2.1898 C   0  0  1  0  0  0  0  0  0  0  0  0
    1.0355   36.1925   -2.0784 O   0  0  0  0  0  0  0  0  0  0  0  0
    6.3663   32.6712   -1.3760 C   0  0  1  0  0  0  0  0  0  0  0  0
    6.4392   31.2834   -1.5051 O   0  0  0  0  0  0  0  0  0  0  0  0
    1.5435   35.8682   -0.9012 C   0  0  2  0  0  0  0  0  0  0  0  0
   -1.0554   36.5728   -3.2965 C   0  0  1  0  0  0  0  0  0  0  0  0
   -0.8924   37.9757   -3.1315 N   0  0  0  0  0  0  0  0  0  0  0  0
    4.9400   33.0137   -0.9255 C   0  0  2  0  0  0  0  0  0  0  0  0
    3.8944   32.6316   -1.9047 N   0  0  0  0  0  0  0  0  0  0  0  0
    1.2032   36.6395    0.2988 C   0  0  1  0  0  0  0  0  0  0  0  0
    0.5113   37.8125   -0.1338 O   0  0  0  0  0  0  0  0  0  0  0  0
   -0.5695   36.2062   -4.5437 C   0  0  2  0  0  0  0  0  0  0  0  0
   -1.4867   36.6584   -5.5077 O   0  0  0  0  0  0  0  0  0  0  0  0
    4.8702   34.5128   -0.6812 C   0  0  1  0  0  0  0  0  0  0  0  0
    3.5506   34.8233   -0.2615 O   0  0  0  0  0  0  0  0  0  0  0  0
    2.4468   37.0517    0.9616 C   0  0  1  0  0  0  0  0  0  0  0  0
    3.4006   37.0978   -0.0925 O   0  0  0  0  0  0  0  0  0  0  0  0
   -0.4403   34.7085   -4.6365 C   0  0  1  0  0  0  0  0  0  0  0  0
    0.2690   34.3851   -5.7961 O   0  0  0  0  0  0  0  0  0  0  0  0
    5.9074   34.9295    0.4002 C   0  0  2  0  0  0  0  0  0  0  0  0
    5.8195   36.3360    0.6227 O   0  0  0  0  0  0  0  0  0  0  0  0
    0.3219   34.1947   -3.4628 C   0  0  1  0  0  0  0  0  0  0  0  0
   -0.3981   34.5202   -2.3091 O   0  0  0  0  0  0  0  0  0  0  0  0
    7.3260   34.5777   -0.0944 C   0  0  1  0  0  0  0  0  0  0  0  0
    8.3001   34.9564    0.8918 O   0  0  0  0  0  0  0  0  0  0  0  0
    0.4583   32.6600   -3.5113 C   0  0  0  0  0  0  0  0  0  0  0  0
   -0.8376   32.0773   -3.5902 O   0  0  0  0  0  0  0  0  0  0  0  0
    9.9824   34.4881   -1.7534 N   0  0  0  0  0  0  0  0  0  0  0  0
    4.7900   32.6767   -3.8773 N   0  0  0  0  0  0  0  0  0  0  0  0
  1  2  1  0  0  0  0
  1 39  1  0  0  0  0
  3  4  1  0  0  0  0
  5  6  1  0  0  0  0
  5 40  1  0  0  0  0
  9 10  1  6  0  0  0
  9 14  1  0  0  0  0
  9 35  1  0  0  0  0
 10  1  1  0  0  0  0
 11 16  1  0  0  0  0
 11 28  1  0  0  0  0
 11 26  1  1  0  0  0
 12 17  1  0  0  0  0
 12 34  1  0  0  0  0
 12 13  1  6  0  0  0
 14 15  1  1  0  0  0
 14 19  1  0  0  0  0
 16 13  1  6  0  0  0
 16 21  1  0  0  0  0
 17 18  1  1  0  0  0
 17 23  1  0  0  0  0
 18  8  1  0  0  0  0
 19 20  1  6  0  0  0
 19 25  1  0  0  0  0
 20  5  1  0  0  0  0
 21  3  1  1  0  0  0
 21 22  1  0  0  0  0
 21 27  1  0  0  0  0
 23 24  1  6  0  0  0
 23 29  1  0  0  0  0
 25 26  1  1  0  0  0
 25 31  1  0  0  0  0
 27  7  1  6  0  0  0
 27 28  1  0  0  0  0
 29 30  1  6  0  0  0
 29 33  1  0  0  0  0
 31 32  1  6  0  0  0
 31 35  1  0  0  0  0
 33 34  1  0  0  0  0
 33 37  1  6  0  0  0
 35 36  1  1  0  0  0
 37 38  1  0  0  0  0
M  END
>  <CHROM.1>
68.34972659,-77.69636409,154.91424933,161.61778351,169.50524239,-75.24195419
-61.90555286,-92.14262823,-70.82327804,-136.39921722,-56.33673350,3.00545032
34.95649900,-1.64169697,0.01047937,0.34609501,-2.24629752

>  <Name>
1nta_lig

>  <RI>
0

>  <Rbt.Current_Directory>
/home/itssahil/PROJECTS/Mol_Feturizer/New_Systems/rnas/1nta

>  <Rbt.Executable>
rbdock ($Id: //depot/dev/client3/rdock/2013.1/src/exe/rbdock.cxx#4 $)

>  <Rbt.Library>
libRbt.so (2013.1, Build901 2013/11/27)

>  <Rbt.Parameter_File>
/export/apps/rDock/src/rDock_2013.1_src/data/scripts/dock_solv.prm

>  <Rbt.Receptor>
prm/pocket_docking_2.prm

>  <SCORE>
-13.2299

>  <SCORE.INTER>
-0.813161

>  <SCORE.INTER.CONST>
1

>  <SCORE.INTER.POLAR>
-1.56464

>  <SCORE.INTER.ROT>
11

>  <SCORE.INTER.SOLV>
29.7407

>  <SCORE.INTER.VDW>
-16.1735

>  <SCORE.INTER.norm>
-0.020329

>  <SCORE.INTRA>
-14.6008

>  <SCORE.INTRA.DIHEDRAL>
-6.19755

>  <SCORE.INTRA.DIHEDRAL.0>
19.0336

>  <SCORE.INTRA.POLAR>
0

>  <SCORE.INTRA.POLAR.0>
0

>  <SCORE.INTRA.REPUL>
0

>  <SCORE.INTRA.REPUL.0>
0

>  <SCORE.INTRA.SOLV>
4.96406

>  <SCORE.INTRA.SOLV.lig_0>
-97.5861

>  <SCORE.INTRA.VDW>
-13.984

>  <SCORE.INTRA.VDW.0>
11.7669

>  <SCORE.INTRA.norm>
-0.365019

>  <SCORE.RESTR>
2.18404

>  <SCORE.RESTR.CAVITY>
2.18404

>  <SCORE.RESTR.norm>
0.0546011

>  <SCORE.SYSTEM>
0

>  <SCORE.SYSTEM.CONST>
0

>  <SCORE.SYSTEM.DIHEDRAL>
0

>  <SCORE.SYSTEM.SOLV>
0

>  <SCORE.SYSTEM.norm>
0

>  <SCORE.heavy>
40

>  <SCORE.norm>
-0.330747

>  <RMSD>
4.727

$$$$
1nta_lig
 OpenBabel11021811403D
libRbt.so/2013.1/901 2013/11/27
 40 42  0  0  0  0  0  0  0  0999 V2000
   11.0815   31.9679   -2.7285 C   0  0  0  0  0  0  0  0  0  0  0  0
   11.4927   31.4631   -3.8313 N   0  0  0  0  0  0  0  0  0  0  0  0
    1.3684   33.6278   -1.4525 C   0  0  0  0  0  0  0  0  0  0  0  0
    1.4237   32.7568   -2.2925 O   0  0  0  0  0  0  0  0  0  0  0  0
    4.7951   33.5963   -3.6705 C   0  0  0  0  0  0  0  0  0  0  0  0
    5.6039   34.6176   -3.7822 N   0  0  0  0  0  0  0  0  0  0  0  0
    1.2431   31.6337    1.2063 C   0  0  0  0  0  0  0  0  0  0  0  0
    0.9519   36.5657   -2.5489 C   0  0  0  0  0  0  0  0  0  0  0  0
    8.7887   32.3358   -2.2723 C   0  0  2  0  0  0  0  0  0  0  0  0
   10.0991   32.8499   -2.8358 N   0  0  0  0  0  0  0  0  0  0  0  0
    4.3458   33.1414    0.2109 C   0  0  2  0  0  0  0  0  0  0  0  0
    3.7410   36.4323   -0.6977 C   0  0  1  0  0  0  0  0  0  0  0  0
    3.7113   35.3967    0.2212 O   0  0  0  0  0  0  0  0  0  0  0  0
    7.6447   32.5978   -3.2701 C   0  0  1  0  0  0  0  0  0  0  0  0
    7.9262   31.8603   -4.4212 O   0  0  0  0  0  0  0  0  0  0  0  0
    3.4280   34.2304   -0.3342 C   0  0  2  0  0  0  0  0  0  0  0  0
    2.4350   37.1737   -0.8805 C   0  0  1  0  0  0  0  0  0  0  0  0
    1.4211   36.2341   -1.2139 N   0  0  0  0  0  0  0  0  0  0  0  0
    6.2867   32.1177   -2.7408 C   0  0  2  0  0  0  0  0  0  0  0  0
    5.1606   32.3585   -3.6746 N   0  0  0  0  0  0  0  0  0  0  0  0
    2.1123   33.6109   -0.1441 C   0  0  1  0  0  0  0  0  0  0  0  0
    1.4354   34.3569    0.8695 O   0  0  0  0  0  0  0  0  0  0  0  0
    2.0698   37.8371    0.2825 C   0  0  2  0  0  0  0  0  0  0  0  0
    1.0313   38.7263   -0.0429 O   0  0  0  0  0  0  0  0  0  0  0  0
    6.0104   32.8379   -1.4305 C   0  0  1  0  0  0  0  0  0  0  0  0
    4.7557   32.3878   -0.9439 O   0  0  0  0  0  0  0  0  0  0  0  0
    2.3041   32.2380    0.3397 C   0  0  1  0  0  0  0  0  0  0  0  0
    3.5620   32.2783    1.0023 O   0  0  0  0  0  0  0  0  0  0  0  0
    3.2388   38.6100    0.8343 C   0  0  1  0  0  0  0  0  0  0  0  0
    2.9178   39.0650    2.1158 O   0  0  0  0  0  0  0  0  0  0  0  0
    7.1410   32.5399   -0.4050 C   0  0  2  0  0  0  0  0  0  0  0  0
    6.8588   33.2151    0.8197 O   0  0  0  0  0  0  0  0  0  0  0  0
    4.4287   37.7179    0.9386 C   0  0  1  0  0  0  0  0  0  0  0  0
    4.7432   37.2716   -0.3488 O   0  0  0  0  0  0  0  0  0  0  0  0
    8.4851   33.0454   -0.9698 C   0  0  1  0  0  0  0  0  0  0  0  0
    9.5437   32.7797   -0.0351 O   0  0  0  0  0  0  0  0  0  0  0  0
    5.6541   38.4791    1.4819 C   0  0  0  0  0  0  0  0  0  0  0  0
    6.8172   37.6775    1.3093 O   0  0  0  0  0  0  0  0  0  0  0  0
   11.5899   31.6460   -1.5883 N   0  0  0  0  0  0  0  0  0  0  0  0
    3.5439   33.7930   -3.5211 N   0  0  0  0  0  0  0  0  0  0  0  0
  1  2  1  0  0  0  0
  1 39  1  0  0  0  0
  3  4  1  0  0  0  0
  5  6  1  0  0  0  0
  5 40  1  0  0  0  0
  9 10  1  6  0  0  0
  9 14  1  0  0  0  0
  9 35  1  0  0  0  0
 10  1  1  0  0  0  0
 11 16  1  0  0  0  0
 11 28  1  0  0  0  0
 11 26  1  6  0  0  0
 12 17  1  0  0  0  0
 12 34  1  0  0  0  0
 12 13  1  1  0  0  0
 14 15  1  6  0  0  0
 14 19  1  0  0  0  0
 16 13  1  1  0  0  0
 16 21  1  0  0  0  0
 17 18  1  1  0  0  0
 17 23  1  0  0  0  0
 18  8  1  0  0  0  0
 19 20  1  6  0  0  0
 19 25  1  0  0  0  0
 20  5  1  0  0  0  0
 21  3  1  6  0  0  0
 21 22  1  0  0  0  0
 21 27  1  0  0  0  0
 23 24  1  6  0  0  0
 23 29  1  0  0  0  0
 25 26  1  1  0  0  0
 25 31  1  0  0  0  0
 27  7  1  1  0  0  0
 27 28  1  0  0  0  0
 29 30  1  1  0  0  0
 29 33  1  0  0  0  0
 31 32  1  1  0  0  0
 31 35  1  0  0  0  0
 33 34  1  0  0  0  0
 33 37  1  6  0  0  0
 35 36  1  1  0  0  0
 37 38  1  0  0  0  0
M  END
>  <CHROM.1>
-132.37675894,110.96474614,95.71542604,92.16468504,136.14475305,-116.72919887
-76.57971198,48.87524577,88.99717593,-173.00201039,-168.26194991,4.99597499
34.35050622,-0.97538405,-0.63058907,0.02888252,0.48778103

>  <Name>
1nta_lig

>  <RI>
1.05895e+07

>  <Rbt.Current_Directory>
/home/itssahil/PROJECTS/Mol_Feturizer/New_Systems/rnas/1nta

>  <Rbt.Executable>
rbdock ($Id: //depot/dev/client3/rdock/2013.1/src/exe/rbdock.cxx#4 $)

>  <Rbt.Library>
libRbt.so (2013.1, Build901 2013/11/27)

>  <Rbt.Parameter_File>
/export/apps/rDock/src/rDock_2013.1_src/data/scripts/dock_solv.prm

>  <Rbt.Receptor>
prm/blind_docking_100.prm

>  <SCORE>
-13.7514

>  <SCORE.INTER>
-6.18565

>  <SCORE.INTER.CONST>
1

>  <SCORE.INTER.POLAR>
-1.52972

>  <SCORE.INTER.ROT>
11

>  <SCORE.INTER.SOLV>
38.4211

>  <SCORE.INTER.VDW>
-22.7651

>  <SCORE.INTER.norm>
-0.154641

>  <SCORE.INTRA>
-8.77663

>  <SCORE.INTRA.DIHEDRAL>
2.30716

>  <SCORE.INTRA.DIHEDRAL.0>
19.0336

>  <SCORE.INTRA.POLAR>
0

>  <SCORE.INTRA.POLAR.0>
0

>  <SCORE.INTRA.REPUL>
0

>  <SCORE.INTRA.REPUL.0>
0

>  <SCORE.INTRA.SOLV>
4.51949

>  <SCORE.INTRA.SOLV.lig_0>
-97.5861

>  <SCORE.INTRA.VDW>
-12.19

>  <SCORE.INTRA.VDW.0>
11.7669

>  <SCORE.INTRA.norm>
-0.219416

>  <SCORE.RESTR>
1.21087

>  <SCORE.RESTR.CAVITY>
1.21087

>  <SCORE.RESTR.norm>
0.0302717

>  <SCORE.SYSTEM>
0

>  <SCORE.SYSTEM.CONST>
0

>  <SCORE.SYSTEM.DIHEDRAL>
0

>  <SCORE.SYSTEM.SOLV>
0

>  <SCORE.SYSTEM.norm>
0

>  <SCORE.heavy>
40

>  <SCORE.norm>
-0.343785

>  <RMSD>
4.751

$$$$
1nta_lig
 OpenBabel11021811403D
libRbt.so/2013.1/901 2013/11/27
 40 42  0  0  0  0  0  0  0  0999 V2000
    7.9216   32.6263   -1.4171 C   0  0  0  0  0  0  0  0  0  0  0  0
    8.3425   31.9369   -2.4110 N   0  0  0  0  0  0  0  0  0  0  0  0
   -0.0464   37.3765    2.4858 C   0  0  0  0  0  0  0  0  0  0  0  0
   -0.9635   36.9515    3.1534 O   0  0  0  0  0  0  0  0  0  0  0  0
    1.7516   33.0079   -2.3683 C   0  0  0  0  0  0  0  0  0  0  0  0
    1.8900   32.5000   -3.5652 N   0  0  0  0  0  0  0  0  0  0  0  0
    1.2700   39.4190    0.2150 C   0  0  0  0  0  0  0  0  0  0  0  0
   -4.7463   36.7940   -0.3477 C   0  0  0  0  0  0  0  0  0  0  0  0
    5.9172   33.7847   -0.9259 C   0  0  2  0  0  0  0  0  0  0  0  0
    7.2012   33.6938   -1.7273 N   0  0  0  0  0  0  0  0  0  0  0  0
    1.1956   35.8751   -0.3553 C   0  0  2  0  0  0  0  0  0  0  0  0
   -2.1842   35.2778    0.7314 C   0  0  1  0  0  0  0  0  0  0  0  0
   -1.1007   35.4821   -0.1064 O   0  0  0  0  0  0  0  0  0  0  0  0
    4.7098   33.9122   -1.8740 C   0  0  1  0  0  0  0  0  0  0  0  0
    4.6533   32.7390   -2.6280 O   0  0  0  0  0  0  0  0  0  0  0  0
   -0.0406   35.9449    0.5348 C   0  0  2  0  0  0  0  0  0  0  0  0
   -3.4755   34.8999    0.0398 C   0  0  1  0  0  0  0  0  0  0  0  0
   -3.7746   35.8886   -0.9376 N   0  0  0  0  0  0  0  0  0  0  0  0
    3.3815   34.0318   -1.1151 C   0  0  2  0  0  0  0  0  0  0  0  0
    2.1970   34.1611   -1.9973 N   0  0  0  0  0  0  0  0  0  0  0  0
    0.0131   37.3406    0.9822 C   0  0  1  0  0  0  0  0  0  0  0  0
   -1.0923   38.0200    0.3835 O   0  0  0  0  0  0  0  0  0  0  0  0
   -3.3648   33.6663   -0.5864 C   0  0  2  0  0  0  0  0  0  0  0  0
   -4.6595   33.2520   -0.9427 O   0  0  0  0  0  0  0  0  0  0  0  0
    3.4641   35.2506   -0.2098 C   0  0  1  0  0  0  0  0  0  0  0  0
    2.2351   35.3543    0.4920 O   0  0  0  0  0  0  0  0  0  0  0  0
    1.2549   37.9465    0.4855 C   0  0  1  0  0  0  0  0  0  0  0  0
    1.5617   37.1957   -0.6829 O   0  0  0  0  0  0  0  0  0  0  0  0
   -2.7536   32.6565    0.3492 C   0  0  1  0  0  0  0  0  0  0  0  0
   -2.4340   31.5038   -0.3730 O   0  0  0  0  0  0  0  0  0  0  0  0
    4.6555   35.1052    0.7792 C   0  0  2  0  0  0  0  0  0  0  0  0
    4.7101   36.2521    1.6259 O   0  0  0  0  0  0  0  0  0  0  0  0
   -1.4972   33.2065    0.9335 C   0  0  1  0  0  0  0  0  0  0  0  0
   -1.8290   34.3565    1.6565 O   0  0  0  0  0  0  0  0  0  0  0  0
    5.9702   34.9978   -0.0217 C   0  0  1  0  0  0  0  0  0  0  0  0
    7.0845   34.8636    0.8756 O   0  0  0  0  0  0  0  0  0  0  0  0
   -0.8510   32.2080    1.9141 C   0  0  0  0  0  0  0  0  0  0  0  0
    0.2974   32.8073    2.5033 O   0  0  0  0  0  0  0  0  0  0  0  0
    8.1831   32.3094   -0.1951 N   0  0  0  0  0  0  0  0  0  0  0  0
    1.1146   32.3581   -1.4747 N   0  0  0  0  0  0  0  0  0  0  0  0
  1  2  1  0  0  0  0
  1 39  1  0  0  0  0
  3  4  1  0  0  0  0
  5  6  1  0  0  0  0
  5 40  1  0  0  0  0
  9 10  1  6  0  0  0
  9 14  1  0  0  0  0
  9 35  1  0  0  0  0
 10  1  1  0  0  0  0
 11 16  1  0  0  0  0
 11 28  1  0  0  0  0
 11 26  1  1  0  0  0
 12 17  1  0  0  0  0
 12 34  1  0  0  0  0
 12 13  1  6  0  0  0
 14 15  1  6  0  0  0
 14 19  1  0  0  0  0
 16 13  1  6  0  0  0
 16 21  1  0  0  0  0
 17 18  1  6  0  0  0
 17 23  1  0  0  0  0
 18  8  1  0  0  0  0
 19 20  1  6  0  0  0
 19 25  1  0  0  0  0
 20  5  1  0  0  0  0
 21  3  1  1  0  0  0
 21 22  1  0  0  0  0
 21 27  1  0  0  0  0
 23 24  1  1  0  0  0
 23 29  1  0  0  0  0
 25 26  1  1  0  0  0
 25 31  1  0  0  0  0
 27  7  1  6  0  0  0
 27 28  1  0  0  0  0
 29 30  1  6  0  0  0
 29 33  1  0  0  0  0
 31 32  1  1  0  0  0
 31 35  1  0  0  0  0
 33 34  1  0  0  0  0
 33 37  1  1  0  0  0
 35 36  1  1  0  0  0
 37 38  1  0  0  0  0
M  END
>  <CHROM.1>
-125.62136684,131.77580619,-179.24333197,173.31954577,168.08127447,-98.58746900
85.81124125,-106.37607477,-60.65374802,-76.30247378,-176.58588658,1.36033106
34.69085479,-0.12476187,0.20817944,-0.06928423,-2.70249259

>  <Name>
1nta_lig

>  <RI>
0

>  <Rbt.Current_Directory>
/home/itssahil/PROJECTS/Mol_Feturizer/New_Systems/rnas/1nta

>  <Rbt.Executable>
rbdock ($Id: //depot/dev/client3/rdock/2013.1/src/exe/rbdock.cxx#4 $)

>  <Rbt.Library>
libRbt.so (2013.1, Build901 2013/11/27)

>  <Rbt.Parameter_File>
/export/apps/rDock/src/rDock_2013.1_src/data/scripts/dock_solv.prm

>  <Rbt.Receptor>
prm/pocket_docking_5.prm

>  <SCORE>
-22.7737

>  <SCORE.INTER>
0.550036

>  <SCORE.INTER.CONST>
1

>  <SCORE.INTER.POLAR>
-1.09136

>  <SCORE.INTER.ROT>
11

>  <SCORE.INTER.SOLV>
23.1146

>  <SCORE.INTER.VDW>
-14.6336

>  <SCORE.INTER.norm>
0.0137509

>  <SCORE.INTRA>
-23.3331

>  <SCORE.INTRA.DIHEDRAL>
-13.2269

>  <SCORE.INTRA.DIHEDRAL.0>
19.0336

>  <SCORE.INTRA.POLAR>
0

>  <SCORE.INTRA.POLAR.0>
0

>  <SCORE.INTRA.REPUL>
0.000172666

>  <SCORE.INTRA.REPUL.0>
0

>  <SCORE.INTRA.SOLV>
-1.90272

>  <SCORE.INTRA.SOLV.lig_0>
-97.5861

>  <SCORE.INTRA.VDW>
-15.7692

>  <SCORE.INTRA.VDW.0>
11.7669

>  <SCORE.INTRA.norm>
-0.583329

>  <SCORE.RESTR>
0.00937941

>  <SCORE.RESTR.CAVITY>
0.00937941

>  <SCORE.RESTR.norm>
0.000234485

>  <SCORE.SYSTEM>
0

>  <SCORE.SYSTEM.CONST>
0

>  <SCORE.SYSTEM.DIHEDRAL>
0

>  <SCORE.SYSTEM.SOLV>
0

>  <SCORE.SYSTEM.norm>
0

>  <SCORE.heavy>
40

>  <SCORE.norm>
-0.569343

>  <RMSD>
4.805

$$$$
1nta_lig
 OpenBabel11021811403D
libRbt.so/2013.1/901 2013/11/27
 40 42  0  0  0  0  0  0  0  0999 V2000
   10.0761   31.1343   -3.2541 C   0  0  0  0  0  0  0  0  0  0  0  0
   10.6159   30.5179   -4.2383 N   0  0  0  0  0  0  0  0  0  0  0  0
    4.1483   36.4951    2.4829 C   0  0  0  0  0  0  0  0  0  0  0  0
    4.8544   35.6017    2.8961 O   0  0  0  0  0  0  0  0  0  0  0  0
    3.5230   33.0672   -2.4276 C   0  0  0  0  0  0  0  0  0  0  0  0
    2.5057   32.6311   -3.1238 N   0  0  0  0  0  0  0  0  0  0  0  0
    6.0147   38.5485    0.6494 C   0  0  0  0  0  0  0  0  0  0  0  0
   -0.3496   38.9714    0.2262 C   0  0  0  0  0  0  0  0  0  0  0  0
    8.2291   32.4385   -2.5554 C   0  0  2  0  0  0  0  0  0  0  0  0
    9.3171   32.1708   -3.5769 N   0  0  0  0  0  0  0  0  0  0  0  0
    4.4558   35.6833   -0.8510 C   0  0  2  0  0  0  0  0  0  0  0  0
    1.2479   36.2690    0.6995 C   0  0  1  0  0  0  0  0  0  0  0  0
    2.2247   36.0950   -0.2665 O   0  0  0  0  0  0  0  0  0  0  0  0
    6.9416   32.9018   -3.2630 C   0  0  1  0  0  0  0  0  0  0  0  0
    6.5123   31.8460   -4.0684 O   0  0  0  0  0  0  0  0  0  0  0  0
    3.4252   35.8978    0.2522 C   0  0  2  0  0  0  0  0  0  0  0  0
   -0.1144   36.6703    0.1782 C   0  0  1  0  0  0  0  0  0  0  0  0
    0.0281   37.8449   -0.6107 N   0  0  0  0  0  0  0  0  0  0  0  0
    5.8102   33.2106   -2.2734 C   0  0  2  0  0  0  0  0  0  0  0  0
    4.5557   33.6645   -2.9202 N   0  0  0  0  0  0  0  0  0  0  0  0
    4.0777   36.9430    1.0476 C   0  0  1  0  0  0  0  0  0  0  0  0
    3.3061   38.1360    0.8936 O   0  0  0  0  0  0  0  0  0  0  0  0
   -0.6658   35.6659   -0.6048 C   0  0  2  0  0  0  0  0  0  0  0  0
   -2.0224   35.9758   -0.8016 O   0  0  0  0  0  0  0  0  0  0  0  0
    6.2988   34.2905   -1.3210 C   0  0  1  0  0  0  0  0  0  0  0  0
    5.2505   34.5696   -0.4063 O   0  0  0  0  0  0  0  0  0  0  0  0
    5.4185   37.1831    0.4999 C   0  0  1  0  0  0  0  0  0  0  0  0
    5.3050   36.8076   -0.8673 O   0  0  0  0  0  0  0  0  0  0  0  0
   -0.5501   34.3353    0.0914 C   0  0  1  0  0  0  0  0  0  0  0  0
   -0.8879   33.3212   -0.8085 O   0  0  0  0  0  0  0  0  0  0  0  0
    7.5737   33.8089   -0.5716 C   0  0  2  0  0  0  0  0  0  0  0  0
    8.0104   34.8303    0.3236 O   0  0  0  0  0  0  0  0  0  0  0  0
    0.8569   34.1189    0.5343 C   0  0  1  0  0  0  0  0  0  0  0  0
    1.1829   35.1362    1.4366 O   0  0  0  0  0  0  0  0  0  0  0  0
    8.6878   33.5189   -1.5992 C   0  0  1  0  0  0  0  0  0  0  0  0
    9.8760   33.0729   -0.9254 O   0  0  0  0  0  0  0  0  0  0  0  0
    1.0121   32.7735    1.2706 C   0  0  0  0  0  0  0  0  0  0  0  0
    0.1985   32.7825    2.4381 O   0  0  0  0  0  0  0  0  0  0  0  0
   10.2601   30.7768   -2.0292 N   0  0  0  0  0  0  0  0  0  0  0  0
    3.5260   32.9336   -1.1593 N   0  0  0  0  0  0  0  0  0  0  0  0
  1  2  1  0  0  0  0
  1 39  1  0  0  0  0
  3  4  1  0  0  0  0
  5  6  1  0  0  0  0
  5 40  1  0  0  0  0
  9 10  1  6  0  0  0
  9 14  1  0  0  0  0
  9 35  1  0  0  0  0
 10  1  1  0  0  0  0
 11 16  1  0  0  0  0
 11 28  1  0  0  0  0
 11 26  1  1  0  0  0
 12 17  1  0  0  0  0
 12 34  1  0  0  0  0
 12 13  1  6  0  0  0
 14 15  1  6  0  0  0
 14 19  1  0  0  0  0
 16 13  1  6  0  0  0
 16 21  1  0  0  0  0
 17 18  1  6  0  0  0
 17 23  1  0  0  0  0
 18  8  1  0  0  0  0
 19 20  1  6  0  0  0
 19 25  1  0  0  0  0
 20  5  1  0  0  0  0
 21  3  1  1  0  0  0
 21 22  1  0  0  0  0
 21 27  1  0  0  0  0
 23 24  1  1  0  0  0
 23 29  1  0  0  0  0
 25 26  1  1  0  0  0
 25 31  1  0  0  0  0
 27  7  1  6  0  0  0
 27 28  1  0  0  0  0
 29 30  1  6  0  0  0
 29 33  1  0  0  0  0
 31 32  1  1  0  0  0
 31 35  1  0  0  0  0
 33 34  1  0  0  0  0
 33 37  1  1  0  0  0
 35 36  1  1  0  0  0
 37 38  1  0  0  0  0
M  END
>  <CHROM.1>
-143.18885884,152.58639036,-177.51616206,172.66574009,178.80861712,-99.33892264
134.30718862,-139.26775413,69.79594580,-94.40577956,-61.75586354,4.23272300
34.58966855,-0.67864810,0.50225336,-0.04559945,-2.54623062

>  <Name>
1nta_lig

>  <RI>
0

>  <Rbt.Current_Directory>
/home/itssahil/PROJECTS/Mol_Feturizer/New_Systems/rnas/1nta

>  <Rbt.Executable>
rbdock ($Id: //depot/dev/client3/rdock/2013.1/src/exe/rbdock.cxx#4 $)

>  <Rbt.Library>
libRbt.so (2013.1, Build901 2013/11/27)

>  <Rbt.Parameter_File>
/export/apps/rDock/src/rDock_2013.1_src/data/scripts/dock_solv.prm

>  <Rbt.Receptor>
prm/pocket_docking_5.prm

>  <SCORE>
-27.4532

>  <SCORE.INTER>
-8.17985

>  <SCORE.INTER.CONST>
1

>  <SCORE.INTER.POLAR>
-1.86865

>  <SCORE.INTER.ROT>
11

>  <SCORE.INTER.SOLV>
33.2012

>  <SCORE.INTER.VDW>
-21.2248

>  <SCORE.INTER.norm>
-0.204496

>  <SCORE.INTRA>
-19.2882

>  <SCORE.INTRA.DIHEDRAL>
-9.91646

>  <SCORE.INTRA.DIHEDRAL.0>
19.0336

>  <SCORE.INTRA.POLAR>
0

>  <SCORE.INTRA.POLAR.0>
0

>  <SCORE.INTRA.REPUL>
0

>  <SCORE.INTRA.REPUL.0>
0

>  <SCORE.INTRA.SOLV>
-0.58431

>  <SCORE.INTRA.SOLV.lig_0>
-97.5861

>  <SCORE.INTRA.VDW>
-14.0378

>  <SCORE.INTRA.VDW.0>
11.7669

>  <SCORE.INTRA.norm>
-0.482205

>  <SCORE.RESTR>
0.0149141

>  <SCORE.RESTR.CAVITY>
0.0149141

>  <SCORE.RESTR.norm>
0.000372852

>  <SCORE.SYSTEM>
0

>  <SCORE.SYSTEM.CONST>
0

>  <SCORE.SYSTEM.DIHEDRAL>
0

>  <SCORE.SYSTEM.SOLV>
0

>  <SCORE.SYSTEM.norm>
0

>  <SCORE.heavy>
40

>  <SCORE.norm>
-0.686329

>  <RMSD>
4.834

$$$$
1nta_lig
 OpenBabel11021811403D
libRbt.so/2013.1/901 2013/11/27
 40 42  0  0  0  0  0  0  0  0999 V2000
    6.5828   32.6923   -2.9521 C   0  0  0  0  0  0  0  0  0  0  0  0
    7.8243   32.7041   -2.6380 N   0  0  0  0  0  0  0  0  0  0  0  0
   -2.8202   32.5601    0.6304 C   0  0  0  0  0  0  0  0  0  0  0  0
   -2.4974   31.7475   -0.2078 O   0  0  0  0  0  0  0  0  0  0  0  0
    0.3877   32.0233   -3.4598 C   0  0  0  0  0  0  0  0  0  0  0  0
    0.1061   31.0471   -2.6367 N   0  0  0  0  0  0  0  0  0  0  0  0
   -0.9009   32.0524    3.2987 C   0  0  0  0  0  0  0  0  0  0  0  0
   -4.9669   36.8183    2.4127 C   0  0  0  0  0  0  0  0  0  0  0  0
    4.5694   33.2252   -1.8284 C   0  0  2  0  0  0  0  0  0  0  0  0
    5.8621   33.6928   -2.4681 N   0  0  0  0  0  0  0  0  0  0  0  0
    0.1737   34.2636    0.6822 C   0  0  2  0  0  0  0  0  0  0  0  0
   -2.8995   36.0256    0.1055 C   0  0  1  0  0  0  0  0  0  0  0  0
   -1.6519   35.7310    0.6292 O   0  0  0  0  0  0  0  0  0  0  0  0
    3.3952   33.4174   -2.8069 C   0  0  1  0  0  0  0  0  0  0  0  0
    3.6402   32.5972   -3.9093 O   0  0  0  0  0  0  0  0  0  0  0  0
   -1.3257   34.4576    0.4838 C   0  0  2  0  0  0  0  0  0  0  0  0
   -3.5484   37.2814    0.6447 C   0  0  1  0  0  0  0  0  0  0  0  0
   -3.6065   37.1908    2.0626 N   0  0  0  0  0  0  0  0  0  0  0  0
    2.0539   32.9815   -2.2023 C   0  0  2  0  0  0  0  0  0  0  0  0
    0.8996   33.1572   -3.1160 N   0  0  0  0  0  0  0  0  0  0  0  0
   -1.8639   33.4389    1.3912 C   0  0  1  0  0  0  0  0  0  0  0  0
   -2.5049   34.1266    2.4674 O   0  0  0  0  0  0  0  0  0  0  0  0
   -2.8203   38.4100    0.2947 C   0  0  2  0  0  0  0  0  0  0  0  0
   -3.6210   39.5332    0.5636 O   0  0  0  0  0  0  0  0  0  0  0  0
    1.8190   33.7961   -0.9401 C   0  0  1  0  0  0  0  0  0  0  0  0
    0.5796   33.3866   -0.3835 O   0  0  0  0  0  0  0  0  0  0  0  0
   -0.7469   32.6588    1.9384 C   0  0  1  0  0  0  0  0  0  0  0  0
    0.3575   33.5535    1.8853 O   0  0  0  0  0  0  0  0  0  0  0  0
   -2.4755   38.3777   -1.1711 C   0  0  1  0  0  0  0  0  0  0  0  0
   -1.5494   39.3883   -1.4418 O   0  0  0  0  0  0  0  0  0  0  0  0
    2.9806   33.5699    0.0690 C   0  0  2  0  0  0  0  0  0  0  0  0
    2.7372   34.3334    1.2493 O   0  0  0  0  0  0  0  0  0  0  0  0
   -1.8523   37.0674   -1.5134 C   0  0  1  0  0  0  0  0  0  0  0  0
   -2.7881   36.0644   -1.2424 O   0  0  0  0  0  0  0  0  0  0  0  0
    4.3070   34.0287   -0.5724 C   0  0  1  0  0  0  0  0  0  0  0  0
    5.3939   33.8285    0.3460 O   0  0  0  0  0  0  0  0  0  0  0  0
   -1.5026   36.9877   -3.0127 C   0  0  0  0  0  0  0  0  0  0  0  0
   -2.6807   37.2069   -3.7802 O   0  0  0  0  0  0  0  0  0  0  0  0
    6.0636   31.7678   -3.6857 N   0  0  0  0  0  0  0  0  0  0  0  0
    0.1779   31.8782   -4.7093 N   0  0  0  0  0  0  0  0  0  0  0  0
  1  2  1  0  0  0  0
  1 39  1  0  0  0  0
  3  4  1  0  0  0  0
  5  6  1  0  0  0  0
  5 40  1  0  0  0  0
  9 10  1  6  0  0  0
  9 14  1  0  0  0  0
  9 35  1  0  0  0  0
 10  1  1  0  0  0  0
 11 16  1  0  0  0  0
 11 28  1  0  0  0  0
 11 26  1  6  0  0  0
 12 17  1  0  0  0  0
 12 34  1  0  0  0  0
 12 13  1  1  0  0  0
 14 15  1  6  0  0  0
 14 19  1  0  0  0  0
 16 13  1  1  0  0  0
 16 21  1  0  0  0  0
 17 18  1  1  0  0  0
 17 23  1  0  0  0  0
 18  8  1  0  0  0  0
 19 20  1  6  0  0  0
 19 25  1  0  0  0  0
 20  5  1  0  0  0  0
 21  3  1  6  0  0  0
 21 22  1  0  0  0  0
 21 27  1  0  0  0  0
 23 24  1  6  0  0  0
 23 29  1  0  0  0  0
 25 26  1  1  0  0  0
 25 31  1  0  0  0  0
 27  7  1  1  0  0  0
 27 28  1  0  0  0  0
 29 30  1  1  0  0  0
 29 33  1  0  0  0  0
 31 32  1  1  0  0  0
 31 35  1  0  0  0  0
 33 34  1  0  0  0  0
 33 37  1  6  0  0  0
 35 36  1  1  0  0  0
 37 38  1  0  0  0  0
M  END
>  <CHROM.1>
-99.60432014,-132.25405619,138.79202307,159.13268530,163.14177003,-101.48083577
113.73761600,46.89390699,71.46882401,-170.12114286,-57.15222668,0.23940757
34.50290333,-0.71247761,-0.06757316,0.55505983,-0.82765010

>  <Name>
1nta_lig

>  <RI>
0

>  <Rbt.Current_Directory>
/home/itssahil/PROJECTS/Mol_Feturizer/New_Systems/rnas/1nta

>  <Rbt.Executable>
rbdock ($Id: //depot/dev/client3/rdock/2013.1/src/exe/rbdock.cxx#4 $)

>  <Rbt.Library>
libRbt.so (2013.1, Build901 2013/11/27)

>  <Rbt.Parameter_File>
/export/apps/rDock/src/rDock_2013.1_src/data/scripts/dock_solv.prm

>  <Rbt.Receptor>
prm/pocket_docking_5.prm

>  <SCORE>
-22.9834

>  <SCORE.INTER>
-2.75243

>  <SCORE.INTER.CONST>
1

>  <SCORE.INTER.POLAR>
-1.44639

>  <SCORE.INTER.ROT>
11

>  <SCORE.INTER.SOLV>
22.6755

>  <SCORE.INTER.VDW>
-15.5055

>  <SCORE.INTER.norm>
-0.0688107

>  <SCORE.INTRA>
-20.2777

>  <SCORE.INTRA.DIHEDRAL>
-5.07129

>  <SCORE.INTRA.DIHEDRAL.0>
19.0336

>  <SCORE.INTRA.POLAR>
0

>  <SCORE.INTRA.POLAR.0>
0

>  <SCORE.INTRA.REPUL>
0

>  <SCORE.INTRA.REPUL.0>
0

>  <SCORE.INTRA.SOLV>
-4.61726

>  <SCORE.INTRA.SOLV.lig_0>
-97.5861

>  <SCORE.INTRA.VDW>
-15.4334

>  <SCORE.INTRA.VDW.0>
11.7669

>  <SCORE.INTRA.norm>
-0.506943

>  <SCORE.RESTR>
0.0467899

>  <SCORE.RESTR.CAVITY>
0.0467899

>  <SCORE.RESTR.norm>
0.00116975

>  <SCORE.SYSTEM>
0

>  <SCORE.SYSTEM.CONST>
0

>  <SCORE.SYSTEM.DIHEDRAL>
0

>  <SCORE.SYSTEM.SOLV>
0

>  <SCORE.SYSTEM.norm>
0

>  <SCORE.heavy>
40

>  <SCORE.norm>
-0.574584

>  <RMSD>
4.843

$$$$
1nta_lig
 OpenBabel11021811403D
libRbt.so/2013.1/901 2013/11/27
 40 42  0  0  0  0  0  0  0  0999 V2000
    5.9917   32.8492   -2.6144 C   0  0  0  0  0  0  0  0  0  0  0  0
    7.1181   33.1156   -2.0664 N   0  0  0  0  0  0  0  0  0  0  0  0
   -2.8651   34.9831   -0.7523 C   0  0  0  0  0  0  0  0  0  0  0  0
   -2.8560   34.2164   -1.6901 O   0  0  0  0  0  0  0  0  0  0  0  0
   -0.1734   31.6944   -3.3560 C   0  0  0  0  0  0  0  0  0  0  0  0
   -0.8772   30.7013   -2.8784 N   0  0  0  0  0  0  0  0  0  0  0  0
   -3.9171   32.9000    1.6174 C   0  0  0  0  0  0  0  0  0  0  0  0
   -2.4013   38.7824    3.2637 C   0  0  0  0  0  0  0  0  0  0  0  0
    3.8280   33.1057   -1.6907 C   0  0  2  0  0  0  0  0  0  0  0  0
    5.0246   33.7251   -2.3861 N   0  0  0  0  0  0  0  0  0  0  0  0
   -0.4128   33.5661    1.2090 C   0  0  2  0  0  0  0  0  0  0  0  0
   -0.8487   37.1414    0.9517 C   0  0  1  0  0  0  0  0  0  0  0  0
   -0.4285   35.9010    1.4018 O   0  0  0  0  0  0  0  0  0  0  0  0
    2.5716   33.2507   -2.5701 C   0  0  1  0  0  0  0  0  0  0  0  0
    2.8019   32.5239   -3.7392 O   0  0  0  0  0  0  0  0  0  0  0  0
   -0.9180   34.9050    0.6824 C   0  0  2  0  0  0  0  0  0  0  0  0
   -0.5978   38.2935    1.8996 C   0  0  1  0  0  0  0  0  0  0  0  0
   -1.1900   37.9868    3.1556 N   0  0  0  0  0  0  0  0  0  0  0  0
    1.3214   32.6605   -1.9041 C   0  0  2  0  0  0  0  0  0  0  0  0
    0.0910   32.7868   -2.7215 N   0  0  0  0  0  0  0  0  0  0  0  0
   -2.3629   34.6596    0.6293 C   0  0  1  0  0  0  0  0  0  0  0  0
   -2.9690   35.4821    1.6285 O   0  0  0  0  0  0  0  0  0  0  0  0
    0.7619   38.5037    2.0819 C   0  0  2  0  0  0  0  0  0  0  0  0
    0.9188   39.7465    2.7189 O   0  0  0  0  0  0  0  0  0  0  0  0
    1.1136   33.3730   -0.5771 C   0  0  1  0  0  0  0  0  0  0  0  0
   -0.0412   32.8211    0.0358 O   0  0  0  0  0  0  0  0  0  0  0  0
   -2.6142   33.2537    0.9699 C   0  0  1  0  0  0  0  0  0  0  0  0
   -1.5076   32.8937    1.7876 O   0  0  0  0  0  0  0  0  0  0  0  0
    1.4715   38.5265    0.7536 C   0  0  1  0  0  0  0  0  0  0  0  0
    2.8508   38.4971    0.9753 O   0  0  0  0  0  0  0  0  0  0  0  0
    2.3627   33.1913    0.3314 C   0  0  2  0  0  0  0  0  0  0  0  0
    2.1446   33.8572    1.5741 O   0  0  0  0  0  0  0  0  0  0  0  0
    1.0986   37.3195   -0.0379 C   0  0  1  0  0  0  0  0  0  0  0  0
   -0.2819   37.3611   -0.2570 O   0  0  0  0  0  0  0  0  0  0  0  0
    3.5934   33.8051   -0.3686 C   0  0  1  0  0  0  0  0  0  0  0  0
    4.7593   33.6480    0.4566 O   0  0  0  0  0  0  0  0  0  0  0  0
    1.7906   37.3166   -1.4153 C   0  0  0  0  0  0  0  0  0  0  0  0
    1.3915   36.1569   -2.1370 O   0  0  0  0  0  0  0  0  0  0  0  0
    5.8053   31.7975   -3.3365 N   0  0  0  0  0  0  0  0  0  0  0  0
    0.3286   31.6099   -4.5253 N   0  0  0  0  0  0  0  0  0  0  0  0
  1  2  1  0  0  0  0
  1 39  1  0  0  0  0
  3  4  1  0  0  0  0
  5  6  1  0  0  0  0
  5 40  1  0  0  0  0
  9 10  1  6  0  0  0
  9 14  1  0  0  0  0
  9 35  1  0  0  0  0
 10  1  1  0  0  0  0
 11 16  1  0  0  0  0
 11 28  1  0  0  0  0
 11 26  1  6  0  0  0
 12 17  1  0  0  0  0
 12 34  1  0  0  0  0
 12 13  1  1  0  0  0
 14 15  1  6  0  0  0
 14 19  1  0  0  0  0
 16 13  1  1  0  0  0
 16 21  1  0  0  0  0
 17 18  1  1  0  0  0
 17 23  1  0  0  0  0
 18  8  1  0  0  0  0
 19 20  1  6  0  0  0
 19 25  1  0  0  0  0
 20  5  1  0  0  0  0
 21  3  1  6  0  0  0
 21 22  1  0  0  0  0
 21 27  1  0  0  0  0
 23 24  1  6  0  0  0
 23 29  1  0  0  0  0
 25 26  1  1  0  0  0
 25 31  1  0  0  0  0
 27  7  1  1  0  0  0
 27 28  1  0  0  0  0
 29 30  1  1  0  0  0
 29 33  1  0  0  0  0
 31 32  1  1  0  0  0
 31 35  1  0  0  0  0
 33 34  1  0  0  0  0
 33 37  1  6  0  0  0
 35 36  1  1  0  0  0
 37 38  1  0  0  0  0
M  END
>  <CHROM.1>
-119.51883193,-120.04168251,69.57078515,166.45319680,179.35135003,-104.77999828
98.79720770,87.67121834,85.56470903,-172.04510016,-179.29799363,0.77378561
34.74985177,-0.29426644,-0.86558059,0.23159482,0.57815842

>  <Name>
1nta_lig

>  <RI>
0

>  <Rbt.Current_Directory>
/home/itssahil/PROJECTS/Mol_Feturizer/New_Systems/rnas/1nta

>  <Rbt.Executable>
rbdock ($Id: //depot/dev/client3/rdock/2013.1/src/exe/rbdock.cxx#4 $)

>  <Rbt.Library>
libRbt.so (2013.1, Build901 2013/11/27)

>  <Rbt.Parameter_File>
/export/apps/rDock/src/rDock_2013.1_src/data/scripts/dock_solv.prm

>  <Rbt.Receptor>
prm/pocket_docking_4.prm

>  <SCORE>
-23.1881

>  <SCORE.INTER>
0.82525

>  <SCORE.INTER.CONST>
1

>  <SCORE.INTER.POLAR>
-1.06727

>  <SCORE.INTER.ROT>
11

>  <SCORE.INTER.SOLV>
22.4499

>  <SCORE.INTER.VDW>
-14.3089

>  <SCORE.INTER.norm>
0.0206312

>  <SCORE.INTRA>
-24.0134

>  <SCORE.INTRA.DIHEDRAL>
-11.207

>  <SCORE.INTRA.DIHEDRAL.0>
19.0336

>  <SCORE.INTRA.POLAR>
0

>  <SCORE.INTRA.POLAR.0>
0

>  <SCORE.INTRA.REPUL>
0.00449269

>  <SCORE.INTRA.REPUL.0>
0

>  <SCORE.INTRA.SOLV>
-3.27815

>  <SCORE.INTRA.SOLV.lig_0>
-97.5861

>  <SCORE.INTRA.VDW>
-16.7933

>  <SCORE.INTRA.VDW.0>
11.7669

>  <SCORE.INTRA.norm>
-0.600336

>  <SCORE.RESTR>
4.77417e-05

>  <SCORE.RESTR.CAVITY>
4.77417e-05

>  <SCORE.RESTR.norm>
1.19354e-06

>  <SCORE.SYSTEM>
0

>  <SCORE.SYSTEM.CONST>
0

>  <SCORE.SYSTEM.DIHEDRAL>
0

>  <SCORE.SYSTEM.SOLV>
0

>  <SCORE.SYSTEM.norm>
0

>  <SCORE.heavy>
40

>  <SCORE.norm>
-0.579703

>  <RMSD>
4.844

$$$$
1nta_lig
 OpenBabel11021811403D
libRbt.so/2013.1/901 2013/11/27
 40 42  0  0  0  0  0  0  0  0999 V2000
    6.5027   32.8750   -2.9031 C   0  0  0  0  0  0  0  0  0  0  0  0
    7.7333   32.9935   -2.5687 N   0  0  0  0  0  0  0  0  0  0  0  0
   -2.5892   32.4036    1.3410 C   0  0  0  0  0  0  0  0  0  0  0  0
   -2.9954   31.4580    1.9799 O   0  0  0  0  0  0  0  0  0  0  0  0
    0.4973   32.0117   -3.4222 C   0  0  0  0  0  0  0  0  0  0  0  0
    0.5600   31.8349   -4.7163 N   0  0  0  0  0  0  0  0  0  0  0  0
   -0.4337   32.5294    3.8706 C   0  0  0  0  0  0  0  0  0  0  0  0
   -2.3329   34.3510   -2.9423 C   0  0  0  0  0  0  0  0  0  0  0  0
    4.4821   33.3834   -1.7811 C   0  0  2  0  0  0  0  0  0  0  0  0
    5.7107   33.8676   -2.5261 N   0  0  0  0  0  0  0  0  0  0  0  0
    0.1536   34.4380    0.8868 C   0  0  2  0  0  0  0  0  0  0  0  0
   -1.6548   36.2976   -0.4164 C   0  0  1  0  0  0  0  0  0  0  0  0
   -1.8465   35.6547    0.7950 O   0  0  0  0  0  0  0  0  0  0  0  0
    3.2395   33.4880   -2.6857 C   0  0  1  0  0  0  0  0  0  0  0  0
    3.4434   32.6276   -3.7655 O   0  0  0  0  0  0  0  0  0  0  0  0
   -1.3686   34.4215    0.7989 C   0  0  2  0  0  0  0  0  0  0  0  0
   -2.7374   36.0708   -1.4485 C   0  0  1  0  0  0  0  0  0  0  0  0
   -2.8962   34.6709   -1.6413 N   0  0  0  0  0  0  0  0  0  0  0  0
    1.9589   33.0320   -1.9738 C   0  0  2  0  0  0  0  0  0  0  0  0
    0.7411   33.1238   -2.8144 N   0  0  0  0  0  0  0  0  0  0  0  0
   -1.7032   33.4928    1.8835 C   0  0  1  0  0  0  0  0  0  0  0  0
   -2.3494   34.2522    2.9071 O   0  0  0  0  0  0  0  0  0  0  0  0
   -3.9468   36.6081   -1.0307 C   0  0  2  0  0  0  0  0  0  0  0  0
   -4.8104   36.6260   -2.1393 O   0  0  0  0  0  0  0  0  0  0  0  0
    1.7758   33.8945   -0.7351 C   0  0  1  0  0  0  0  0  0  0  0  0
    0.5926   33.4664   -0.0790 O   0  0  0  0  0  0  0  0  0  0  0  0
   -0.4578   32.9405    2.4310 C   0  0  1  0  0  0  0  0  0  0  0  0
    0.5140   33.9417    2.1554 O   0  0  0  0  0  0  0  0  0  0  0  0
   -3.7494   38.0129   -0.5246 C   0  0  1  0  0  0  0  0  0  0  0  0
   -4.9219   38.4372    0.1059 O   0  0  0  0  0  0  0  0  0  0  0  0
    3.0091   33.7569    0.2023 C   0  0  2  0  0  0  0  0  0  0  0  0
    2.8141   34.5643    1.3622 O   0  0  0  0  0  0  0  0  0  0  0  0
   -2.6444   38.0376    0.4758 C   0  0  1  0  0  0  0  0  0  0  0  0
   -1.4762   37.6152   -0.1663 O   0  0  0  0  0  0  0  0  0  0  0  0
    4.2716   34.2335   -0.5462 C   0  0  1  0  0  0  0  0  0  0  0  0
    5.4234   34.1149    0.3047 O   0  0  0  0  0  0  0  0  0  0  0  0
   -2.3979   39.4649    1.0035 C   0  0  0  0  0  0  0  0  0  0  0  0
   -1.3755   39.4279    1.9927 O   0  0  0  0  0  0  0  0  0  0  0  0
    6.0590   31.8573   -3.5585 N   0  0  0  0  0  0  0  0  0  0  0  0
    0.1504   31.0442   -2.6672 N   0  0  0  0  0  0  0  0  0  0  0  0
  1  2  1  0  0  0  0
  1 39  1  0  0  0  0
  3  4  1  0  0  0  0
  5  6  1  0  0  0  0
  5 40  1  0  0  0  0
  9 10  1  6  0  0  0
  9 14  1  0  0  0  0
  9 35  1  0  0  0  0
 10  1  1  0  0  0  0
 11 16  1  0  0  0  0
 11 28  1  0  0  0  0
 11 26  1  6  0  0  0
 12 17  1  0  0  0  0
 12 34  1  0  0  0  0
 12 13  1  1  0  0  0
 14 15  1  6  0  0  0
 14 19  1  0  0  0  0
 16 13  1  1  0  0  0
 16 21  1  0  0  0  0
 17 18  1  1  0  0  0
 17 23  1  0  0  0  0
 18  8  1  0  0  0  0
 19 20  1  6  0  0  0
 19 25  1  0  0  0  0
 20  5  1  0  0  0  0
 21  3  1  6  0  0  0
 21 22  1  0  0  0  0
 21 27  1  0  0  0  0
 23 24  1  6  0  0  0
 23 29  1  0  0  0  0
 25 26  1  1  0  0  0
 25 31  1  0  0  0  0
 27  7  1  1  0  0  0
 27 28  1  0  0  0  0
 29 30  1  1  0  0  0
 29 33  1  0  0  0  0
 31 32  1  1  0  0  0
 31 35  1  0  0  0  0
 33 34  1  0  0  0  0
 33 37  1  6  0  0  0
 35 36  1  1  0  0  0
 37 38  1  0  0  0  0
M  END
>  <CHROM.1>
-105.64930085,-128.10196034,142.59784009,86.95562728,74.70009852,-107.48256564
93.11203182,-113.34865748,177.15178581,-164.69913937,177.60993748,0.22976167
34.45991699,-0.51946525,0.32330314,0.42414346,-1.61563530

>  <Name>
1nta_lig

>  <RI>
0

>  <Rbt.Current_Directory>
/home/itssahil/PROJECTS/Mol_Feturizer/New_Systems/rnas/1nta

>  <Rbt.Executable>
rbdock ($Id: //depot/dev/client3/rdock/2013.1/src/exe/rbdock.cxx#4 $)

>  <Rbt.Library>
libRbt.so (2013.1, Build901 2013/11/27)

>  <Rbt.Parameter_File>
/export/apps/rDock/src/rDock_2013.1_src/data/scripts/dock_solv.prm

>  <Rbt.Receptor>
prm/pocket_docking_5.prm

>  <SCORE>
-23.0939

>  <SCORE.INTER>
-2.67857

>  <SCORE.INTER.CONST>
1

>  <SCORE.INTER.POLAR>
-1.36053

>  <SCORE.INTER.ROT>
11

>  <SCORE.INTER.SOLV>
23.3615

>  <SCORE.INTER.VDW>
-15.9711

>  <SCORE.INTER.norm>
-0.0669641

>  <SCORE.INTRA>
-20.4154

>  <SCORE.INTRA.DIHEDRAL>
-5.23639

>  <SCORE.INTRA.DIHEDRAL.0>
19.0336

>  <SCORE.INTRA.POLAR>
0

>  <SCORE.INTRA.POLAR.0>
0

>  <SCORE.INTRA.REPUL>
0

>  <SCORE.INTRA.REPUL.0>
0

>  <SCORE.INTRA.SOLV>
-3.65628

>  <SCORE.INTRA.SOLV.lig_0>
-97.5861

>  <SCORE.INTRA.VDW>
-15.969

>  <SCORE.INTRA.VDW.0>
11.7669

>  <SCORE.INTRA.norm>
-0.510384

>  <SCORE.RESTR>
0

>  <SCORE.RESTR.CAVITY>
0

>  <SCORE.RESTR.norm>
0

>  <SCORE.SYSTEM>
0

>  <SCORE.SYSTEM.CONST>
0

>  <SCORE.SYSTEM.DIHEDRAL>
0

>  <SCORE.SYSTEM.SOLV>
0

>  <SCORE.SYSTEM.norm>
0

>  <SCORE.heavy>
40

>  <SCORE.norm>
-0.577348

>  <RMSD>
4.847

$$$$
1nta_lig
 OpenBabel11021811403D
libRbt.so/2013.1/901 2013/11/27
 40 42  0  0  0  0  0  0  0  0999 V2000
    9.6546   33.1078   -2.2646 C   0  0  0  0  0  0  0  0  0  0  0  0
    9.4795   32.5422   -3.4001 N   0  0  0  0  0  0  0  0  0  0  0  0
    1.5872   36.5098    1.6707 C   0  0  0  0  0  0  0  0  0  0  0  0
    1.9219   35.4904    2.2329 O   0  0  0  0  0  0  0  0  0  0  0  0
    4.4490   33.3390   -2.9326 C   0  0  0  0  0  0  0  0  0  0  0  0
    5.2756   32.9423   -3.8649 N   0  0  0  0  0  0  0  0  0  0  0  0
    3.8213   38.9310    1.2146 C   0  0  0  0  0  0  0  0  0  0  0  0
   -1.7063   37.9933   -1.0980 C   0  0  0  0  0  0  0  0  0  0  0  0
    8.0198   32.8709   -0.5698 C   0  0  2  0  0  0  0  0  0  0  0  0
    9.3072   32.3875   -1.2086 N   0  0  0  0  0  0  0  0  0  0  0  0
    3.8006   36.0509   -0.9290 C   0  0  2  0  0  0  0  0  0  0  0  0
    0.3021   35.6455   -1.5243 C   0  0  1  0  0  0  0  0  0  0  0  0
    1.5858   36.1382   -1.6881 O   0  0  0  0  0  0  0  0  0  0  0  0
    6.8248   32.5684   -1.4936 C   0  0  1  0  0  0  0  0  0  0  0  0
    6.7396   31.1805   -1.6145 O   0  0  0  0  0  0  0  0  0  0  0  0
    2.3143   36.0386   -0.5887 C   0  0  2  0  0  0  0  0  0  0  0  0
   -0.7599   36.3101   -2.3723 C   0  0  1  0  0  0  0  0  0  0  0  0
   -0.7240   37.7111   -2.1313 N   0  0  0  0  0  0  0  0  0  0  0  0
    5.4943   33.0584   -0.9067 C   0  0  2  0  0  0  0  0  0  0  0  0
    4.3217   32.7876   -1.7726 N   0  0  0  0  0  0  0  0  0  0  0  0
    2.2537   37.0764    0.4458 C   0  0  1  0  0  0  0  0  0  0  0  0
    1.5264   38.1780   -0.1017 O   0  0  0  0  0  0  0  0  0  0  0  0
   -0.5379   36.0794   -3.7227 C   0  0  2  0  0  0  0  0  0  0  0  0
   -1.6991   36.4611   -4.4163 O   0  0  0  0  0  0  0  0  0  0  0  0
    5.6058   34.5566   -0.6728 C   0  0  1  0  0  0  0  0  0  0  0  0
    4.3746   35.0036   -0.1269 O   0  0  0  0  0  0  0  0  0  0  0  0
    3.6199   37.5240    0.7438 C   0  0  1  0  0  0  0  0  0  0  0  0
    4.3373   37.2651   -0.4567 O   0  0  0  0  0  0  0  0  0  0  0  0
   -0.2640   34.6186   -3.9669 C   0  0  1  0  0  0  0  0  0  0  0  0
    0.1892   34.4549   -5.2785 O   0  0  0  0  0  0  0  0  0  0  0  0
    6.7840   34.8628    0.2952 C   0  0  2  0  0  0  0  0  0  0  0  0
    6.8658   36.2708    0.5103 O   0  0  0  0  0  0  0  0  0  0  0  0
    0.8031   34.1442   -3.0402 C   0  0  1  0  0  0  0  0  0  0  0  0
    0.3380   34.3090   -1.7318 O   0  0  0  0  0  0  0  0  0  0  0  0
    8.1015   34.3643   -0.3347 C   0  0  1  0  0  0  0  0  0  0  0  0
    9.2037   34.6393    0.5452 O   0  0  0  0  0  0  0  0  0  0  0  0
    1.0985   32.6453   -3.2460 C   0  0  0  0  0  0  0  0  0  0  0  0
   -0.0903   31.8981   -3.0151 O   0  0  0  0  0  0  0  0  0  0  0  0
   10.1319   34.3001   -2.1519 N   0  0  0  0  0  0  0  0  0  0  0  0
    3.7098   34.3585   -3.1338 N   0  0  0  0  0  0  0  0  0  0  0  0
  1  2  1  0  0  0  0
  1 39  1  0  0  0  0
  3  4  1  0  0  0  0
  5  6  1  0  0  0  0
  5 40  1  0  0  0  0
  9 10  1  6  0  0  0
  9 14  1  0  0  0  0
  9 35  1  0  0  0  0
 10  1  1  0  0  0  0
 11 16  1  0  0  0  0
 11 28  1  0  0  0  0
 11 26  1  1  0  0  0
 12 17  1  0  0  0  0
 12 34  1  0  0  0  0
 12 13  1  6  0  0  0
 14 15  1  1  0  0  0
 14 19  1  0  0  0  0
 16 13  1  6  0  0  0
 16 21  1  0  0  0  0
 17 18  1  6  0  0  0
 17 23  1  0  0  0  0
 18  8  1  0  0  0  0
 19 20  1  6  0  0  0
 19 25  1  0  0  0  0
 20  5  1  0  0  0  0
 21  3  1  1  0  0  0
 21 22  1  0  0  0  0
 21 27  1  0  0  0  0
 23 24  1  6  0  0  0
 23 29  1  0  0  0  0
 25 26  1  1  0  0  0
 25 31  1  0  0  0  0
 27  7  1  6  0  0  0
 27 28  1  0  0  0  0
 29 30  1  6  0  0  0
 29 33  1  0  0  0  0
 31 32  1  6  0  0  0
 31 35  1  0  0  0  0
 33 34  1  0  0  0  0
 33 37  1  6  0  0  0
 35 36  1  1  0  0  0
 37 38  1  0  0  0  0
M  END
>  <CHROM.1>
69.74549025,-106.20093109,158.07381214,149.79579845,157.39245458,-94.23761210
-58.68463304,71.65064093,53.05157368,-123.63767598,-59.27300996,3.65621489
34.93472840,-1.44375444,0.12704397,0.29117105,-2.36741368

>  <Name>
1nta_lig

>  <RI>
0

>  <Rbt.Current_Directory>
/home/itssahil/PROJECTS/Mol_Feturizer/New_Systems/rnas/1nta

>  <Rbt.Executable>
rbdock ($Id: //depot/dev/client3/rdock/2013.1/src/exe/rbdock.cxx#4 $)

>  <Rbt.Library>
libRbt.so (2013.1, Build901 2013/11/27)

>  <Rbt.Parameter_File>
/export/apps/rDock/src/rDock_2013.1_src/data/scripts/dock_solv.prm

>  <Rbt.Receptor>
prm/pocket_docking_2.prm

>  <SCORE>
-7.39222

>  <SCORE.INTER>
2.67298

>  <SCORE.INTER.CONST>
1

>  <SCORE.INTER.POLAR>
-1.9846

>  <SCORE.INTER.ROT>
11

>  <SCORE.INTER.SOLV>
30.6664

>  <SCORE.INTER.VDW>
-12.7581

>  <SCORE.INTER.norm>
0.0668245

>  <SCORE.INTRA>
-13.0708

>  <SCORE.INTRA.DIHEDRAL>
-1.62197

>  <SCORE.INTRA.DIHEDRAL.0>
19.0336

>  <SCORE.INTRA.POLAR>
0

>  <SCORE.INTRA.POLAR.0>
0

>  <SCORE.INTRA.REPUL>
0

>  <SCORE.INTRA.REPUL.0>
0

>  <SCORE.INTRA.SOLV>
5.70651

>  <SCORE.INTRA.SOLV.lig_0>
-97.5861

>  <SCORE.INTRA.VDW>
-15.113

>  <SCORE.INTRA.VDW.0>
11.7669

>  <SCORE.INTRA.norm>
-0.326769

>  <SCORE.RESTR>
3.00555

>  <SCORE.RESTR.CAVITY>
3.00555

>  <SCORE.RESTR.norm>
0.0751388

>  <SCORE.SYSTEM>
0

>  <SCORE.SYSTEM.CONST>
0

>  <SCORE.SYSTEM.DIHEDRAL>
0

>  <SCORE.SYSTEM.SOLV>
0

>  <SCORE.SYSTEM.norm>
0

>  <SCORE.heavy>
40

>  <SCORE.norm>
-0.184806

>  <RMSD>
4.855

$$$$
1nta_lig
 OpenBabel11021811403D
libRbt.so/2013.1/901 2013/11/27
 40 42  0  0  0  0  0  0  0  0999 V2000
   11.1466   31.5613   -1.7740 C   0  0  0  0  0  0  0  0  0  0  0  0
   12.3915   31.8161   -1.6150 N   0  0  0  0  0  0  0  0  0  0  0  0
    1.2515   33.9395   -1.6678 C   0  0  0  0  0  0  0  0  0  0  0  0
    1.0084   34.8813   -2.3898 O   0  0  0  0  0  0  0  0  0  0  0  0
    5.0429   32.6470   -4.6601 C   0  0  0  0  0  0  0  0  0  0  0  0
    5.3049   32.0349   -5.7855 N   0  0  0  0  0  0  0  0  0  0  0  0
    1.7397   31.8327    0.8590 C   0  0  0  0  0  0  0  0  0  0  0  0
   -0.0778   36.7124    2.1927 C   0  0  0  0  0  0  0  0  0  0  0  0
    8.9338   32.3533   -2.0515 C   0  0  2  0  0  0  0  0  0  0  0  0
   10.4208   32.5505   -2.2732 N   0  0  0  0  0  0  0  0  0  0  0  0
    4.4027   33.9567   -0.2756 C   0  0  2  0  0  0  0  0  0  0  0  0
    2.2782   36.8739   -0.3191 C   0  0  1  0  0  0  0  0  0  0  0  0
    3.3587   36.0442   -0.0711 O   0  0  0  0  0  0  0  0  0  0  0  0
    8.1366   33.0165   -3.1906 C   0  0  1  0  0  0  0  0  0  0  0  0
    8.4777   32.3543   -4.3709 O   0  0  0  0  0  0  0  0  0  0  0  0
    3.2518   34.8732   -0.6766 C   0  0  2  0  0  0  0  0  0  0  0  0
    1.6644   37.5210    0.9030 C   0  0  1  0  0  0  0  0  0  0  0  0
    1.3136   36.5014    1.8300 N   0  0  0  0  0  0  0  0  0  0  0  0
    6.6205   32.8682   -3.0055 C   0  0  2  0  0  0  0  0  0  0  0  0
    5.8209   33.4996   -4.0825 N   0  0  0  0  0  0  0  0  0  0  0  0
    2.0983   34.0032   -0.4250 C   0  0  1  0  0  0  0  0  0  0  0  0
    1.3857   34.5549    0.6840 O   0  0  0  0  0  0  0  0  0  0  0  0
    2.5582   38.3928    1.5090 C   0  0  2  0  0  0  0  0  0  0  0  0
    1.8375   39.1645    2.4365 O   0  0  0  0  0  0  0  0  0  0  0  0
    6.2449   33.4960   -1.6725 C   0  0  1  0  0  0  0  0  0  0  0  0
    4.8431   33.3530   -1.5049 O   0  0  0  0  0  0  0  0  0  0  0  0
    2.5871   32.6713   -0.0469 C   0  0  1  0  0  0  0  0  0  0  0  0
    3.8686   32.9215    0.5171 O   0  0  0  0  0  0  0  0  0  0  0  0
    3.1856   39.2981    0.4817 C   0  0  1  0  0  0  0  0  0  0  0  0
    4.2445   39.9913    1.0739 O   0  0  0  0  0  0  0  0  0  0  0  0
    7.0147   32.7990   -0.5148 C   0  0  2  0  0  0  0  0  0  0  0  0
    6.6416   33.3941    0.7270 O   0  0  0  0  0  0  0  0  0  0  0  0
    3.7293   38.4840   -0.6426 C   0  0  1  0  0  0  0  0  0  0  0  0
    2.6616   37.7981   -1.2298 O   0  0  0  0  0  0  0  0  0  0  0  0
    8.5317   32.9790   -0.7328 C   0  0  1  0  0  0  0  0  0  0  0  0
    9.2614   32.3419    0.3286 O   0  0  0  0  0  0  0  0  0  0  0  0
    4.3634   39.3781   -1.7265 C   0  0  0  0  0  0  0  0  0  0  0  0
    5.4422   40.1106   -1.1567 O   0  0  0  0  0  0  0  0  0  0  0  0
   10.6289   30.4215   -1.4656 N   0  0  0  0  0  0  0  0  0  0  0  0
    3.9354   32.4319   -4.0654 N   0  0  0  0  0  0  0  0  0  0  0  0
  1  2  1  0  0  0  0
  1 39  1  0  0  0  0
  3  4  1  0  0  0  0
  5  6  1  0  0  0  0
  5 40  1  0  0  0  0
  9 10  1  6  0  0  0
  9 14  1  0  0  0  0
  9 35  1  0  0  0  0
 10  1  1  0  0  0  0
 11 16  1  0  0  0  0
 11 28  1  0  0  0  0
 11 26  1  6  0  0  0
 12 17  1  0  0  0  0
 12 34  1  0  0  0  0
 12 13  1  1  0  0  0
 14 15  1  6  0  0  0
 14 19  1  0  0  0  0
 16 13  1  1  0  0  0
 16 21  1  0  0  0  0
 17 18  1  1  0  0  0
 17 23  1  0  0  0  0
 18  8  1  0  0  0  0
 19 20  1  6  0  0  0
 19 25  1  0  0  0  0
 20  5  1  0  0  0  0
 21  3  1  6  0  0  0
 21 22  1  0  0  0  0
 21 27  1  0  0  0  0
 23 24  1  1  0  0  0
 23 29  1  0  0  0  0
 25 26  1  1  0  0  0
 25 31  1  0  0  0  0
 27  7  1  1  0  0  0
 27 28  1  0  0  0  0
 29 30  1  1  0  0  0
 29 33  1  0  0  0  0
 31 32  1  1  0  0  0
 31 35  1  0  0  0  0
 33 34  1  0  0  0  0
 33 37  1  6  0  0  0
 35 36  1  1  0  0  0
 37 38  1  0  0  0  0
M  END
>  <CHROM.1>
-150.11731644,-162.68956669,128.48517580,131.32746151,-175.10926855,-128.02876950
122.45899709,-98.02590853,-40.21800587,-178.48890996,61.02402459,4.90091556
34.68668580,-0.96338238,-0.72445389,0.08004710,0.39923198

>  <Name>
1nta_lig

>  <RI>
1.05895e+07

>  <Rbt.Current_Directory>
/home/itssahil/PROJECTS/Mol_Feturizer/New_Systems/rnas/1nta

>  <Rbt.Executable>
rbdock ($Id: //depot/dev/client3/rdock/2013.1/src/exe/rbdock.cxx#4 $)

>  <Rbt.Library>
libRbt.so (2013.1, Build901 2013/11/27)

>  <Rbt.Parameter_File>
/export/apps/rDock/src/rDock_2013.1_src/data/scripts/dock_solv.prm

>  <Rbt.Receptor>
prm/blind_docking_100.prm

>  <SCORE>
-1.95143

>  <SCORE.INTER>
9.04192

>  <SCORE.INTER.CONST>
1

>  <SCORE.INTER.POLAR>
-0.208317

>  <SCORE.INTER.ROT>
11

>  <SCORE.INTER.SOLV>
37.4439

>  <SCORE.INTER.VDW>
-16.6923

>  <SCORE.INTER.norm>
0.226048

>  <SCORE.INTRA>
-11.1774

>  <SCORE.INTRA.DIHEDRAL>
-0.244989

>  <SCORE.INTRA.DIHEDRAL.0>
19.0336

>  <SCORE.INTRA.POLAR>
0

>  <SCORE.INTRA.POLAR.0>
0

>  <SCORE.INTRA.REPUL>
0

>  <SCORE.INTRA.REPUL.0>
0

>  <SCORE.INTRA.SOLV>
-2.35807

>  <SCORE.INTRA.SOLV.lig_0>
-97.5861

>  <SCORE.INTRA.VDW>
-9.87589

>  <SCORE.INTRA.VDW.0>
11.7669

>  <SCORE.INTRA.norm>
-0.279435

>  <SCORE.RESTR>
0.184072

>  <SCORE.RESTR.CAVITY>
0.184072

>  <SCORE.RESTR.norm>
0.0046018

>  <SCORE.SYSTEM>
0

>  <SCORE.SYSTEM.CONST>
0

>  <SCORE.SYSTEM.DIHEDRAL>
0

>  <SCORE.SYSTEM.SOLV>
0

>  <SCORE.SYSTEM.norm>
0

>  <SCORE.heavy>
40

>  <SCORE.norm>
-0.0487857

>  <RMSD>
4.857

$$$$
1nta_lig
 OpenBabel11021811403D
libRbt.so/2013.1/901 2013/11/27
 40 42  0  0  0  0  0  0  0  0999 V2000
    9.5864   31.5678   -3.1730 C   0  0  0  0  0  0  0  0  0  0  0  0
   10.7042   31.1274   -2.7295 N   0  0  0  0  0  0  0  0  0  0  0  0
    2.6184   36.9406    1.7672 C   0  0  0  0  0  0  0  0  0  0  0  0
    3.0707   36.2628    2.6634 O   0  0  0  0  0  0  0  0  0  0  0  0
    9.1554   35.6961    0.7166 C   0  0  0  0  0  0  0  0  0  0  0  0
   10.3413   35.2933    0.3408 N   0  0  0  0  0  0  0  0  0  0  0  0
    4.7191   39.1539    0.4444 C   0  0  0  0  0  0  0  0  0  0  0  0
    1.8841   34.3548   -3.5463 C   0  0  0  0  0  0  0  0  0  0  0  0
    7.7368   32.4794   -2.0119 C   0  0  2  0  0  0  0  0  0  0  0  0
    8.5225   31.2579   -2.4472 N   0  0  0  0  0  0  0  0  0  0  0  0
    4.8074   35.7187   -0.5958 C   0  0  2  0  0  0  0  0  0  0  0  0
    1.2237   35.5073   -0.9837 C   0  0  1  0  0  0  0  0  0  0  0  0
    2.5783   35.4504   -1.2655 O   0  0  0  0  0  0  0  0  0  0  0  0
    8.3608   33.0843   -0.7401 C   0  0  1  0  0  0  0  0  0  0  0  0
    9.6475   33.5088   -1.0752 O   0  0  0  0  0  0  0  0  0  0  0  0
    3.3296   35.7607   -0.2222 C   0  0  2  0  0  0  0  0  0  0  0  0
    0.3466   34.6185   -1.8378 C   0  0  1  0  0  0  0  0  0  0  0  0
    0.5890   34.9196   -3.2062 N   0  0  0  0  0  0  0  0  0  0  0  0
    7.5904   34.3133   -0.2392 C   0  0  2  0  0  0  0  0  0  0  0  0
    8.1611   34.9192    0.9876 N   0  0  0  0  0  0  0  0  0  0  0  0
    3.2343   37.0847    0.4013 C   0  0  1  0  0  0  0  0  0  0  0  0
    2.4430   37.9035   -0.4622 O   0  0  0  0  0  0  0  0  0  0  0  0
    0.6264   33.2775   -1.6150 C   0  0  2  0  0  0  0  0  0  0  0  0
   -0.4049   32.5243   -2.2016 O   0  0  0  0  0  0  0  0  0  0  0  0
    6.1557   33.8906    0.0346 C   0  0  1  0  0  0  0  0  0  0  0  0
    5.4472   35.0311    0.4939 O   0  0  0  0  0  0  0  0  0  0  0  0
    4.5810   37.6636    0.4847 C   0  0  1  0  0  0  0  0  0  0  0  0
    5.2900   37.0425   -0.5804 O   0  0  0  0  0  0  0  0  0  0  0  0
    0.6798   32.9915   -0.1372 C   0  0  1  0  0  0  0  0  0  0  0  0
    1.1950   31.7075    0.0583 O   0  0  0  0  0  0  0  0  0  0  0  0
    5.5076   33.3203   -1.2590 C   0  0  2  0  0  0  0  0  0  0  0  0
    4.1603   32.9394   -0.9848 O   0  0  0  0  0  0  0  0  0  0  0  0
    1.5866   33.9670    0.5325 C   0  0  1  0  0  0  0  0  0  0  0  0
    1.0599   35.2471    0.3339 O   0  0  0  0  0  0  0  0  0  0  0  0
    6.3044   32.0831   -1.7234 C   0  0  1  0  0  0  0  0  0  0  0  0
    5.7198   31.5402   -2.9185 O   0  0  0  0  0  0  0  0  0  0  0  0
    1.6521   33.7191    2.0525 C   0  0  0  0  0  0  0  0  0  0  0  0
    0.3300   33.6788    2.5775 O   0  0  0  0  0  0  0  0  0  0  0  0
    9.4969   32.2622   -4.2556 N   0  0  0  0  0  0  0  0  0  0  0  0
    8.9266   36.9424    0.8614 N   0  0  0  0  0  0  0  0  0  0  0  0
  1  2  1  0  0  0  0
  1 39  1  0  0  0  0
  3  4  1  0  0  0  0
  5  6  1  0  0  0  0
  5 40  1  0  0  0  0
  9 10  1  1  0  0  0
  9 14  1  0  0  0  0
  9 35  1  0  0  0  0
 10  1  1  0  0  0  0
 11 16  1  0  0  0  0
 11 28  1  0  0  0  0
 11 26  1  1  0  0  0
 12 17  1  0  0  0  0
 12 34  1  0  0  0  0
 12 13  1  6  0  0  0
 14 15  1  6  0  0  0
 14 19  1  0  0  0  0
 16 13  1  6  0  0  0
 16 21  1  0  0  0  0
 17 18  1  6  0  0  0
 17 23  1  0  0  0  0
 18  8  1  0  0  0  0
 19 20  1  1  0  0  0
 19 25  1  0  0  0  0
 20  5  1  0  0  0  0
 21  3  1  1  0  0  0
 21 22  1  0  0  0  0
 21 27  1  0  0  0  0
 23 24  1  6  0  0  0
 23 29  1  0  0  0  0
 25 26  1  6  0  0  0
 25 31  1  0  0  0  0
 27  7  1  6  0  0  0
 27 28  1  0  0  0  0
 29 30  1  6  0  0  0
 29 33  1  0  0  0  0
 31 32  1  1  0  0  0
 31 35  1  0  0  0  0
 33 34  1  0  0  0  0
 33 37  1  1  0  0  0
 35 36  1  6  0  0  0
 37 38  1  0  0  0  0
M  END
>  <CHROM.1>
-83.57224783,123.85921216,123.09875373,-153.68417005,-178.49970171,73.92821923
81.72936137,-72.72005395,58.82339769,92.57498949,-52.33883845,4.66394617
34.42554485,-0.62380721,0.25389720,-0.02142117,-2.54246927

>  <Name>
1nta_lig

>  <RI>
2.40834e+07

>  <Rbt.Current_Directory>
/home/itssahil/PROJECTS/Mol_Feturizer/New_Systems/rnas/1nta

>  <Rbt.Executable>
rbdock ($Id: //depot/dev/client3/rdock/2013.1/src/exe/rbdock.cxx#4 $)

>  <Rbt.Library>
libRbt.so (2013.1, Build901 2013/11/27)

>  <Rbt.Parameter_File>
/export/apps/rDock/src/rDock_2013.1_src/data/scripts/dock_solv.prm

>  <Rbt.Receptor>
prm/blind_docking_80.prm

>  <SCORE>
11.6877

>  <SCORE.INTER>
-3.87872

>  <SCORE.INTER.CONST>
1

>  <SCORE.INTER.POLAR>
-3.06107

>  <SCORE.INTER.ROT>
11

>  <SCORE.INTER.SOLV>
45.2504

>  <SCORE.INTER.VDW>
-18.399

>  <SCORE.INTER.norm>
-0.0969681

>  <SCORE.INTRA>
8.23322

>  <SCORE.INTRA.DIHEDRAL>
-2.64864

>  <SCORE.INTRA.DIHEDRAL.0>
19.0336

>  <SCORE.INTRA.POLAR>
0

>  <SCORE.INTRA.POLAR.0>
0

>  <SCORE.INTRA.REPUL>
0

>  <SCORE.INTRA.REPUL.0>
0

>  <SCORE.INTRA.SOLV>
-1.91971

>  <SCORE.INTRA.SOLV.lig_0>
-97.5861

>  <SCORE.INTRA.VDW>
10.5174

>  <SCORE.INTRA.VDW.0>
11.7669

>  <SCORE.INTRA.norm>
0.20583

>  <SCORE.RESTR>
7.3332

>  <SCORE.RESTR.CAVITY>
7.3332

>  <SCORE.RESTR.norm>
0.18333

>  <SCORE.SYSTEM>
0

>  <SCORE.SYSTEM.CONST>
0

>  <SCORE.SYSTEM.DIHEDRAL>
0

>  <SCORE.SYSTEM.SOLV>
0

>  <SCORE.SYSTEM.norm>
0

>  <SCORE.heavy>
40

>  <SCORE.norm>
0.292192

>  <RMSD>
4.893

$$$$
1nta_lig
 OpenBabel11021811403D
libRbt.so/2013.1/901 2013/11/27
 40 42  0  0  0  0  0  0  0  0999 V2000
    6.8144   32.4543   -2.9035 C   0  0  0  0  0  0  0  0  0  0  0  0
    6.1357   31.6547   -3.6383 N   0  0  0  0  0  0  0  0  0  0  0  0
   -0.1482   37.1846    2.5443 C   0  0  0  0  0  0  0  0  0  0  0  0
   -1.0492   36.7467    3.2254 O   0  0  0  0  0  0  0  0  0  0  0  0
    0.7838   33.1133   -2.8557 C   0  0  0  0  0  0  0  0  0  0  0  0
    0.3995   32.2029   -1.9994 N   0  0  0  0  0  0  0  0  0  0  0  0
    1.2403   39.4333    0.5251 C   0  0  0  0  0  0  0  0  0  0  0  0
   -4.9375   37.8693    0.0326 C   0  0  0  0  0  0  0  0  0  0  0  0
    5.1282   33.7492   -1.8641 C   0  0  2  0  0  0  0  0  0  0  0  0
    6.3257   33.6804   -2.7916 N   0  0  0  0  0  0  0  0  0  0  0  0
    0.6103   36.0942   -0.6344 C   0  0  2  0  0  0  0  0  0  0  0  0
   -2.7269   35.8277    0.7069 C   0  0  1  0  0  0  0  0  0  0  0  0
   -1.6874   35.9510   -0.1996 O   0  0  0  0  0  0  0  0  0  0  0  0
    3.8370   33.9455   -2.6808 C   0  0  1  0  0  0  0  0  0  0  0  0
    3.6827   32.8148   -3.4843 O   0  0  0  0  0  0  0  0  0  0  0  0
   -0.5196   36.1510    0.3880 C   0  0  2  0  0  0  0  0  0  0  0  0
   -4.1069   35.7110    0.0981 C   0  0  1  0  0  0  0  0  0  0  0  0
   -4.3197   36.8221   -0.7635 N   0  0  0  0  0  0  0  0  0  0  0  0
    2.5918   34.0459   -1.7896 C   0  0  2  0  0  0  0  0  0  0  0  0
    1.3298   34.2402   -2.5430 N   0  0  0  0  0  0  0  0  0  0  0  0
   -0.2277   37.4215    1.0599 C   0  0  1  0  0  0  0  0  0  0  0  0
   -1.2734   38.3326    0.7156 O   0  0  0  0  0  0  0  0  0  0  0  0
   -4.2315   34.5404   -0.6371 C   0  0  2  0  0  0  0  0  0  0  0  0
   -5.5966   34.3562   -0.9159 O   0  0  0  0  0  0  0  0  0  0  0  0
    2.7878   35.2138   -0.8359 C   0  0  1  0  0  0  0  0  0  0  0  0
    1.6356   35.2998   -0.0121 O   0  0  0  0  0  0  0  0  0  0  0  0
    1.0390   37.9496    0.5381 C   0  0  1  0  0  0  0  0  0  0  0  0
    1.1309   37.3967   -0.7691 O   0  0  0  0  0  0  0  0  0  0  0  0
   -3.7173   33.3669    0.1547 C   0  0  1  0  0  0  0  0  0  0  0  0
   -3.6305   32.2547   -0.6867 O   0  0  0  0  0  0  0  0  0  0  0  0
    4.0668   34.9978    0.0221 C   0  0  2  0  0  0  0  0  0  0  0  0
    4.2277   36.0974    0.9166 O   0  0  0  0  0  0  0  0  0  0  0  0
   -2.3530   33.6685    0.6745 C   0  0  1  0  0  0  0  0  0  0  0  0
   -2.4522   34.7798    1.5175 O   0  0  0  0  0  0  0  0  0  0  0  0
    5.2945   34.9119   -0.9088 C   0  0  1  0  0  0  0  0  0  0  0  0
    6.4880   34.7130   -0.1338 O   0  0  0  0  0  0  0  0  0  0  0  0
   -1.7994   32.4966    1.5090 C   0  0  0  0  0  0  0  0  0  0  0  0
   -0.5348   32.8630    2.0489 O   0  0  0  0  0  0  0  0  0  0  0  0
    7.9038   32.0961   -2.3143 N   0  0  0  0  0  0  0  0  0  0  0  0
    0.6485   32.9034   -4.1063 N   0  0  0  0  0  0  0  0  0  0  0  0
  1  2  1  0  0  0  0
  1 39  1  0  0  0  0
  3  4  1  0  0  0  0
  5  6  1  0  0  0  0
  5 40  1  0  0  0  0
  9 10  1  6  0  0  0
  9 14  1  0  0  0  0
  9 35  1  0  0  0  0
 10  1  1  0  0  0  0
 11 16  1  0  0  0  0
 11 28  1  0  0  0  0
 11 26  1  1  0  0  0
 12 17  1  0  0  0  0
 12 34  1  0  0  0  0
 12 13  1  6  0  0  0
 14 15  1  6  0  0  0
 14 19  1  0  0  0  0
 16 13  1  6  0  0  0
 16 21  1  0  0  0  0
 17 18  1  6  0  0  0
 17 23  1  0  0  0  0
 18  8  1  0  0  0  0
 19 20  1  6  0  0  0
 19 25  1  0  0  0  0
 20  5  1  0  0  0  0
 21  3  1  1  0  0  0
 21 22  1  0  0  0  0
 21 27  1  0  0  0  0
 23 24  1  1  0  0  0
 23 29  1  0  0  0  0
 25 26  1  1  0  0  0
 25 31  1  0  0  0  0
 27  7  1  6  0  0  0
 27 28  1  0  0  0  0
 29 30  1  6  0  0  0
 29 33  1  0  0  0  0
 31 32  1  1  0  0  0
 31 35  1  0  0  0  0
 33 34  1  0  0  0  0
 33 37  1  1  0  0  0
 35 36  1  1  0  0  0
 37 38  1  0  0  0  0
M  END
>  <CHROM.1>
-106.78071815,75.73879605,-177.25191072,175.17909491,172.47171548,-91.09928703
89.75966764,59.58444384,-59.79493957,-86.80474612,-176.48216207,0.68011792
34.90319742,-0.53453763,0.34854714,-0.11281376,-2.56772830

>  <Name>
1nta_lig

>  <RI>
0

>  <Rbt.Current_Directory>
/home/itssahil/PROJECTS/Mol_Feturizer/New_Systems/rnas/1nta

>  <Rbt.Executable>
rbdock ($Id: //depot/dev/client3/rdock/2013.1/src/exe/rbdock.cxx#4 $)

>  <Rbt.Library>
libRbt.so (2013.1, Build901 2013/11/27)

>  <Rbt.Parameter_File>
/export/apps/rDock/src/rDock_2013.1_src/data/scripts/dock_solv.prm

>  <Rbt.Receptor>
prm/pocket_docking_6.prm

>  <SCORE>
-24.9325

>  <SCORE.INTER>
-1.1891

>  <SCORE.INTER.CONST>
1

>  <SCORE.INTER.POLAR>
-1.58482

>  <SCORE.INTER.ROT>
11

>  <SCORE.INTER.SOLV>
19.5313

>  <SCORE.INTER.VDW>
-12.9538

>  <SCORE.INTER.norm>
-0.0297275

>  <SCORE.INTRA>
-23.7434

>  <SCORE.INTRA.DIHEDRAL>
-11.4966

>  <SCORE.INTRA.DIHEDRAL.0>
19.0336

>  <SCORE.INTRA.POLAR>
0

>  <SCORE.INTRA.POLAR.0>
0

>  <SCORE.INTRA.REPUL>
0.000417501

>  <SCORE.INTRA.REPUL.0>
0

>  <SCORE.INTRA.SOLV>
-3.19047

>  <SCORE.INTRA.SOLV.lig_0>
-97.5861

>  <SCORE.INTRA.VDW>
-16.402

>  <SCORE.INTRA.VDW.0>
11.7669

>  <SCORE.INTRA.norm>
-0.593585

>  <SCORE.RESTR>
0

>  <SCORE.RESTR.CAVITY>
0

>  <SCORE.RESTR.norm>
0

>  <SCORE.SYSTEM>
0

>  <SCORE.SYSTEM.CONST>
0

>  <SCORE.SYSTEM.DIHEDRAL>
0

>  <SCORE.SYSTEM.SOLV>
0

>  <SCORE.SYSTEM.norm>
0

>  <SCORE.heavy>
40

>  <SCORE.norm>
-0.623312

>  <RMSD>
4.898

$$$$
1nta_lig
 OpenBabel11021811403D
libRbt.so/2013.1/901 2013/11/27
 40 42  0  0  0  0  0  0  0  0999 V2000
    6.4718   32.8171   -3.1767 C   0  0  0  0  0  0  0  0  0  0  0  0
    7.7232   32.9350   -2.9312 N   0  0  0  0  0  0  0  0  0  0  0  0
   -2.6687   32.4883    1.0846 C   0  0  0  0  0  0  0  0  0  0  0  0
   -3.7469   32.8447    0.6629 O   0  0  0  0  0  0  0  0  0  0  0  0
    0.4276   31.8896   -3.3858 C   0  0  0  0  0  0  0  0  0  0  0  0
   -0.1579   30.8892   -2.7807 N   0  0  0  0  0  0  0  0  0  0  0  0
   -0.6445   32.0345    3.6842 C   0  0  0  0  0  0  0  0  0  0  0  0
   -4.6009   37.2794    2.7748 C   0  0  0  0  0  0  0  0  0  0  0  0
    4.5102   33.2789   -1.9360 C   0  0  2  0  0  0  0  0  0  0  0  0
    5.7052   33.7935   -2.7146 N   0  0  0  0  0  0  0  0  0  0  0  0
    0.3283   34.1840    0.9779 C   0  0  2  0  0  0  0  0  0  0  0  0
   -2.7649   35.9401    0.4925 C   0  0  1  0  0  0  0  0  0  0  0  0
   -1.4951   35.6550    0.9656 O   0  0  0  0  0  0  0  0  0  0  0  0
    3.2327   33.3964   -2.7888 C   0  0  1  0  0  0  0  0  0  0  0  0
    3.4013   32.5668   -3.8984 O   0  0  0  0  0  0  0  0  0  0  0  0
   -1.1775   34.3778    0.8357 C   0  0  2  0  0  0  0  0  0  0  0  0
   -3.3019   37.3058    0.8605 C   0  0  1  0  0  0  0  0  0  0  0  0
   -3.2474   37.4504    2.2741 N   0  0  0  0  0  0  0  0  0  0  0  0
    1.9843   32.9104   -2.0405 C   0  0  2  0  0  0  0  0  0  0  0  0
    0.7341   33.0137   -2.8306 N   0  0  0  0  0  0  0  0  0  0  0  0
   -1.6807   33.3810    1.7865 C   0  0  1  0  0  0  0  0  0  0  0  0
   -2.2766   34.0943    2.8720 O   0  0  0  0  0  0  0  0  0  0  0  0
   -2.5484   38.3135    0.2751 C   0  0  2  0  0  0  0  0  0  0  0  0
   -3.2655   39.5146    0.4105 O   0  0  0  0  0  0  0  0  0  0  0  0
    1.8426   33.7381   -0.7729 C   0  0  1  0  0  0  0  0  0  0  0  0
    0.6892   33.2823   -0.0833 O   0  0  0  0  0  0  0  0  0  0  0  0
   -0.5442   32.6101    2.3056 C   0  0  1  0  0  0  0  0  0  0  0  0
    0.5589   33.5002    2.1882 O   0  0  0  0  0  0  0  0  0  0  0  0
   -2.3278   38.0218   -1.1860 C   0  0  1  0  0  0  0  0  0  0  0  0
   -1.3766   38.9136   -1.6883 O   0  0  0  0  0  0  0  0  0  0  0  0
    3.1125   33.5867    0.1121 C   0  0  2  0  0  0  0  0  0  0  0  0
    2.9564   34.3612    1.3000 O   0  0  0  0  0  0  0  0  0  0  0  0
   -1.8028   36.6361   -1.3495 C   0  0  1  0  0  0  0  0  0  0  0  0
   -2.7633   35.7525   -0.8475 O   0  0  0  0  0  0  0  0  0  0  0  0
    4.3412   34.0940   -0.6715 C   0  0  1  0  0  0  0  0  0  0  0  0
    5.5261   33.9632    0.1308 O   0  0  0  0  0  0  0  0  0  0  0  0
   -1.5826   36.2920   -2.8359 C   0  0  0  0  0  0  0  0  0  0  0  0
   -2.7742   36.5705   -3.5622 O   0  0  0  0  0  0  0  0  0  0  0  0
    5.9856   31.8146   -3.8253 N   0  0  0  0  0  0  0  0  0  0  0  0
    0.7596   31.7809   -4.6124 N   0  0  0  0  0  0  0  0  0  0  0  0
  1  2  1  0  0  0  0
  1 39  1  0  0  0  0
  3  4  1  0  0  0  0
  5  6  1  0  0  0  0
  5 40  1  0  0  0  0
  9 10  1  6  0  0  0
  9 14  1  0  0  0  0
  9 35  1  0  0  0  0
 10  1  1  0  0  0  0
 11 16  1  0  0  0  0
 11 28  1  0  0  0  0
 11 26  1  6  0  0  0
 12 17  1  0  0  0  0
 12 34  1  0  0  0  0
 12 13  1  6  0  0  0
 14 15  1  6  0  0  0
 14 19  1  0  0  0  0
 16 13  1  1  0  0  0
 16 21  1  0  0  0  0
 17 18  1  1  0  0  0
 17 23  1  0  0  0  0
 18  8  1  0  0  0  0
 19 20  1  6  0  0  0
 19 25  1  0  0  0  0
 20  5  1  0  0  0  0
 21  3  1  6  0  0  0
 21 22  1  0  0  0  0
 21 27  1  0  0  0  0
 23 24  1  6  0  0  0
 23 29  1  0  0  0  0
 25 26  1  1  0  0  0
 25 31  1  0  0  0  0
 27  7  1  1  0  0  0
 27 28  1  0  0  0  0
 29 30  1  1  0  0  0
 29 33  1  0  0  0  0
 31 32  1  1  0  0  0
 31 35  1  0  0  0  0
 33 34  1  0  0  0  0
 33 37  1  6  0  0  0
 35 36  1  1  0  0  0
 37 38  1  0  0  0  0
M  END
>  <CHROM.1>
-104.08020471,-130.14723425,133.76676216,168.07227277,163.46416774,-103.66392256
97.44902958,79.87092331,-66.70102287,-168.20913514,-52.10437922,0.29344836
34.45996411,-0.56966834,0.08737036,0.56758006,-0.99455162

>  <Name>
1nta_lig

>  <RI>
0

>  <Rbt.Current_Directory>
/home/itssahil/PROJECTS/Mol_Feturizer/New_Systems/rnas/1nta

>  <Rbt.Executable>
rbdock ($Id: //depot/dev/client3/rdock/2013.1/src/exe/rbdock.cxx#4 $)

>  <Rbt.Library>
libRbt.so (2013.1, Build901 2013/11/27)

>  <Rbt.Parameter_File>
/export/apps/rDock/src/rDock_2013.1_src/data/scripts/dock_solv.prm

>  <Rbt.Receptor>
prm/pocket_docking_6.prm

>  <SCORE>
-23.8976

>  <SCORE.INTER>
-2.53637

>  <SCORE.INTER.CONST>
1

>  <SCORE.INTER.POLAR>
-1.41295

>  <SCORE.INTER.ROT>
11

>  <SCORE.INTER.SOLV>
24.9436

>  <SCORE.INTER.VDW>
-16.229

>  <SCORE.INTER.norm>
-0.0634093

>  <SCORE.INTRA>
-21.3612

>  <SCORE.INTRA.DIHEDRAL>
-5.74397

>  <SCORE.INTRA.DIHEDRAL.0>
19.0336

>  <SCORE.INTRA.POLAR>
0

>  <SCORE.INTRA.POLAR.0>
0

>  <SCORE.INTRA.REPUL>
0

>  <SCORE.INTRA.REPUL.0>
0

>  <SCORE.INTRA.SOLV>
-4.75561

>  <SCORE.INTRA.SOLV.lig_0>
-97.5861

>  <SCORE.INTRA.VDW>
-16.1114

>  <SCORE.INTRA.VDW.0>
11.7669

>  <SCORE.INTRA.norm>
-0.53403

>  <SCORE.RESTR>
0

>  <SCORE.RESTR.CAVITY>
0

>  <SCORE.RESTR.norm>
0

>  <SCORE.SYSTEM>
0

>  <SCORE.SYSTEM.CONST>
0

>  <SCORE.SYSTEM.DIHEDRAL>
0

>  <SCORE.SYSTEM.SOLV>
0

>  <SCORE.SYSTEM.norm>
0

>  <SCORE.heavy>
40

>  <SCORE.norm>
-0.597439

>  <RMSD>
4.921

$$$$
1nta_lig
 OpenBabel11021811403D
libRbt.so/2013.1/901 2013/11/27
 40 42  0  0  0  0  0  0  0  0999 V2000
   10.0559   31.3321   -3.1679 C   0  0  0  0  0  0  0  0  0  0  0  0
   10.1362   30.9999   -4.4021 N   0  0  0  0  0  0  0  0  0  0  0  0
    3.7866   36.6458    2.3600 C   0  0  0  0  0  0  0  0  0  0  0  0
    4.4540   35.7640    2.8543 O   0  0  0  0  0  0  0  0  0  0  0  0
    4.0086   33.3099   -3.3407 C   0  0  0  0  0  0  0  0  0  0  0  0
    2.7952   33.3686   -2.8570 N   0  0  0  0  0  0  0  0  0  0  0  0
    5.7640   38.6204    0.5566 C   0  0  0  0  0  0  0  0  0  0  0  0
   -0.6437   38.7219    0.5110 C   0  0  0  0  0  0  0  0  0  0  0  0
    8.4447   32.7328   -2.1468 C   0  0  2  0  0  0  0  0  0  0  0  0
    9.7316   32.5954   -2.9368 N   0  0  0  0  0  0  0  0  0  0  0  0
    4.3053   35.6845   -0.9073 C   0  0  2  0  0  0  0  0  0  0  0  0
    0.9702   36.0091    0.3868 C   0  0  1  0  0  0  0  0  0  0  0  0
    2.0413   36.1143   -0.4845 O   0  0  0  0  0  0  0  0  0  0  0  0
    7.3484   33.3626   -3.0268 C   0  0  1  0  0  0  0  0  0  0  0  0
    7.1050   32.4766   -4.0774 O   0  0  0  0  0  0  0  0  0  0  0  0
    3.2067   35.9452    0.1176 C   0  0  2  0  0  0  0  0  0  0  0  0
   -0.3499   36.5226   -0.1446 C   0  0  1  0  0  0  0  0  0  0  0  0
   -0.1769   37.8688   -0.5690 N   0  0  0  0  0  0  0  0  0  0  0  0
    6.0265   33.5477   -2.2698 C   0  0  2  0  0  0  0  0  0  0  0  0
    4.9489   34.1565   -3.0859 N   0  0  0  0  0  0  0  0  0  0  0  0
    3.8067   37.0278    0.9042 C   0  0  1  0  0  0  0  0  0  0  0  0
    3.0457   38.2098    0.6475 O   0  0  0  0  0  0  0  0  0  0  0  0
   -0.7848   35.7629   -1.2215 C   0  0  2  0  0  0  0  0  0  0  0  0
   -2.1269   36.1004   -1.4662 O   0  0  0  0  0  0  0  0  0  0  0  0
    6.2953   34.4301   -1.0610 C   0  0  1  0  0  0  0  0  0  0  0  0
    5.0709   34.5949   -0.3629 O   0  0  0  0  0  0  0  0  0  0  0  0
    5.1795   37.2476    0.4320 C   0  0  1  0  0  0  0  0  0  0  0  0
    5.1530   36.8099   -0.9211 O   0  0  0  0  0  0  0  0  0  0  0  0
   -0.6861   34.2946   -0.9011 C   0  0  1  0  0  0  0  0  0  0  0  0
   -0.8968   33.5596   -2.0707 O   0  0  0  0  0  0  0  0  0  0  0  0
    7.3699   33.7758   -0.1467 C   0  0  2  0  0  0  0  0  0  0  0  0
    7.6005   34.6124    0.9856 O   0  0  0  0  0  0  0  0  0  0  0  0
    0.6790   33.9808   -0.3905 C   0  0  1  0  0  0  0  0  0  0  0  0
    0.8777   34.7181    0.7809 O   0  0  0  0  0  0  0  0  0  0  0  0
    8.6834   33.6163   -0.9407 C   0  0  1  0  0  0  0  0  0  0  0  0
    9.6905   33.0135   -0.1118 O   0  0  0  0  0  0  0  0  0  0  0  0
    0.8137   32.4877   -0.0317 C   0  0  0  0  0  0  0  0  0  0  0  0
    0.9065   31.7251   -1.2296 O   0  0  0  0  0  0  0  0  0  0  0  0
   10.2797   30.4976   -2.2109 N   0  0  0  0  0  0  0  0  0  0  0  0
    4.3380   32.3465   -4.1087 N   0  0  0  0  0  0  0  0  0  0  0  0
  1  2  1  0  0  0  0
  1 39  1  0  0  0  0
  3  4  1  0  0  0  0
  5  6  1  0  0  0  0
  5 40  1  0  0  0  0
  9 10  1  6  0  0  0
  9 14  1  0  0  0  0
  9 35  1  0  0  0  0
 10  1  1  0  0  0  0
 11 16  1  0  0  0  0
 11 28  1  0  0  0  0
 11 26  1  1  0  0  0
 12 17  1  0  0  0  0
 12 34  1  0  0  0  0
 12 13  1  6  0  0  0
 14 15  1  6  0  0  0
 14 19  1  0  0  0  0
 16 13  1  6  0  0  0
 16 21  1  0  0  0  0
 17 18  1  6  0  0  0
 17 23  1  0  0  0  0
 18  8  1  0  0  0  0
 19 20  1  6  0  0  0
 19 25  1  0  0  0  0
 20  5  1  0  0  0  0
 21  3  1  1  0  0  0
 21 22  1  0  0  0  0
 21 27  1  0  0  0  0
 23 24  1  1  0  0  0
 23 29  1  0  0  0  0
 25 26  1  1  0  0  0
 25 31  1  0  0  0  0
 27  7  1  6  0  0  0
 27 28  1  0  0  0  0
 29 30  1  6  0  0  0
 29 33  1  0  0  0  0
 31 32  1  1  0  0  0
 31 35  1  0  0  0  0
 33 34  1  0  0  0  0
 33 37  1  1  0  0  0
 35 36  1  1  0  0  0
 37 38  1  0  0  0  0
M  END
>  <CHROM.1>
-112.54033806,119.72543191,-167.29338238,165.45256651,164.32305851,-97.88103272
110.80915995,111.39423426,68.86811698,-85.74626513,74.48256176,4.19381877
34.63304357,-0.97465388,0.44477240,0.07790258,-2.44796315

>  <Name>
1nta_lig

>  <RI>
0

>  <Rbt.Current_Directory>
/home/itssahil/PROJECTS/Mol_Feturizer/New_Systems/rnas/1nta

>  <Rbt.Executable>
rbdock ($Id: //depot/dev/client3/rdock/2013.1/src/exe/rbdock.cxx#4 $)

>  <Rbt.Library>
libRbt.so (2013.1, Build901 2013/11/27)

>  <Rbt.Parameter_File>
/export/apps/rDock/src/rDock_2013.1_src/data/scripts/dock_solv.prm

>  <Rbt.Receptor>
prm/pocket_docking_4.prm

>  <SCORE>
-23.1984

>  <SCORE.INTER>
-2.32852

>  <SCORE.INTER.CONST>
1

>  <SCORE.INTER.POLAR>
-1.6174

>  <SCORE.INTER.ROT>
11

>  <SCORE.INTER.SOLV>
35.5483

>  <SCORE.INTER.VDW>
-18.9438

>  <SCORE.INTER.norm>
-0.0582129

>  <SCORE.INTRA>
-21.1242

>  <SCORE.INTRA.DIHEDRAL>
-8.21387

>  <SCORE.INTRA.DIHEDRAL.0>
19.0336

>  <SCORE.INTRA.POLAR>
0

>  <SCORE.INTRA.POLAR.0>
0

>  <SCORE.INTRA.REPUL>
0

>  <SCORE.INTRA.REPUL.0>
0

>  <SCORE.INTRA.SOLV>
-0.0361087

>  <SCORE.INTRA.SOLV.lig_0>
-97.5861

>  <SCORE.INTRA.VDW>
-16.9992

>  <SCORE.INTRA.VDW.0>
11.7669

>  <SCORE.INTRA.norm>
-0.528105

>  <SCORE.RESTR>
0.254341

>  <SCORE.RESTR.CAVITY>
0.254341

>  <SCORE.RESTR.norm>
0.00635852

>  <SCORE.SYSTEM>
0

>  <SCORE.SYSTEM.CONST>
0

>  <SCORE.SYSTEM.DIHEDRAL>
0

>  <SCORE.SYSTEM.SOLV>
0

>  <SCORE.SYSTEM.norm>
0

>  <SCORE.heavy>
40

>  <SCORE.norm>
-0.579959

>  <RMSD>
4.927

$$$$
1nta_lig
 OpenBabel11021811403D
libRbt.so/2013.1/901 2013/11/27
 40 42  0  0  0  0  0  0  0  0999 V2000
   10.6714   31.5439   -2.4366 C   0  0  0  0  0  0  0  0  0  0  0  0
   10.8200   31.3124   -3.6874 N   0  0  0  0  0  0  0  0  0  0  0  0
    3.6750   36.4304    2.2525 C   0  0  0  0  0  0  0  0  0  0  0  0
    4.5084   35.7849    2.8492 O   0  0  0  0  0  0  0  0  0  0  0  0
    5.4270   33.2331   -3.5141 C   0  0  0  0  0  0  0  0  0  0  0  0
    5.5182   34.5355   -3.5855 N   0  0  0  0  0  0  0  0  0  0  0  0
    5.3712   38.3665    0.1464 C   0  0  0  0  0  0  0  0  0  0  0  0
   -0.5506   38.2180   -0.4131 C   0  0  0  0  0  0  0  0  0  0  0  0
    9.0452   32.8664   -1.3380 C   0  0  2  0  0  0  0  0  0  0  0  0
   10.3408   32.7873   -2.1217 N   0  0  0  0  0  0  0  0  0  0  0  0
    4.2744   35.1021   -0.8692 C   0  0  2  0  0  0  0  0  0  0  0  0
    0.9375   35.5761    0.4258 C   0  0  1  0  0  0  0  0  0  0  0  0
    1.9792   35.3060   -0.4456 O   0  0  0  0  0  0  0  0  0  0  0  0
    7.8440   32.6566   -2.2793 C   0  0  1  0  0  0  0  0  0  0  0  0
    7.9462   31.3635   -2.7945 O   0  0  0  0  0  0  0  0  0  0  0  0
    3.1630   35.3644    0.1413 C   0  0  2  0  0  0  0  0  0  0  0  0
   -0.3828   35.9179   -0.2290 C   0  0  1  0  0  0  0  0  0  0  0  0
   -0.1796   37.0052   -1.1227 N   0  0  0  0  0  0  0  0  0  0  0  0
    6.5013   32.7498   -1.5423 C   0  0  2  0  0  0  0  0  0  0  0  0
    5.3217   32.5572   -2.4196 N   0  0  0  0  0  0  0  0  0  0  0  0
    3.6317   36.6094    0.7586 C   0  0  1  0  0  0  0  0  0  0  0  0
    2.7264   37.6433    0.3666 O   0  0  0  0  0  0  0  0  0  0  0  0
   -0.8822   34.8365   -0.9413 C   0  0  2  0  0  0  0  0  0  0  0  0
   -2.2200   35.1208   -1.2644 O   0  0  0  0  0  0  0  0  0  0  0  0
    6.4172   34.1195   -0.8876 C   0  0  1  0  0  0  0  0  0  0  0  0
    5.1758   34.1990   -0.2048 O   0  0  0  0  0  0  0  0  0  0  0  0
    4.9611   36.9285    0.2234 C   0  0  1  0  0  0  0  0  0  0  0  0
    4.9749   36.3102   -1.0574 O   0  0  0  0  0  0  0  0  0  0  0  0
   -0.8220   33.5852   -0.1052 C   0  0  1  0  0  0  0  0  0  0  0  0
   -1.1001   32.4828   -0.9174 O   0  0  0  0  0  0  0  0  0  0  0  0
    7.6043   34.3177    0.0974 C   0  0  2  0  0  0  0  0  0  0  0  0
    7.5023   35.6027    0.7087 O   0  0  0  0  0  0  0  0  0  0  0  0
    0.5492   33.4194    0.4559 C   0  0  1  0  0  0  0  0  0  0  0  0
    0.8154   34.5252    1.2693 O   0  0  0  0  0  0  0  0  0  0  0  0
    8.9324   34.2266   -0.6829 C   0  0  1  0  0  0  0  0  0  0  0  0
   10.0429   34.4083    0.2108 O   0  0  0  0  0  0  0  0  0  0  0  0
    0.6459   32.1576    1.3361 C   0  0  0  0  0  0  0  0  0  0  0  0
   -0.3725   32.2006    2.3291 O   0  0  0  0  0  0  0  0  0  0  0  0
   10.8365   30.6323   -1.5400 N   0  0  0  0  0  0  0  0  0  0  0  0
    5.4140   32.5397   -4.5844 N   0  0  0  0  0  0  0  0  0  0  0  0
  1  2  1  0  0  0  0
  1 39  1  0  0  0  0
  3  4  1  0  0  0  0
  5  6  1  0  0  0  0
  5 40  1  0  0  0  0
  9 10  1  6  0  0  0
  9 14  1  0  0  0  0
  9 35  1  0  0  0  0
 10  1  1  0  0  0  0
 11 16  1  0  0  0  0
 11 28  1  0  0  0  0
 11 26  1  1  0  0  0
 12 17  1  0  0  0  0
 12 34  1  0  0  0  0
 12 13  1  6  0  0  0
 14 15  1  1  0  0  0
 14 19  1  0  0  0  0
 16 13  1  6  0  0  0
 16 21  1  0  0  0  0
 17 18  1  6  0  0  0
 17 23  1  0  0  0  0
 18  8  1  0  0  0  0
 19 20  1  6  0  0  0
 19 25  1  0  0  0  0
 20  5  1  0  0  0  0
 21  3  1  1  0  0  0
 21 22  1  0  0  0  0
 21 27  1  0  0  0  0
 23 24  1  1  0  0  0
 23 29  1  0  0  0  0
 25 26  1  1  0  0  0
 25 31  1  0  0  0  0
 27  7  1  6  0  0  0
 27 28  1  0  0  0  0
 29 30  1  6  0  0  0
 29 33  1  0  0  0  0
 31 32  1  6  0  0  0
 31 35  1  0  0  0  0
 33 34  1  0  0  0  0
 33 37  1  1  0  0  0
 35 36  1  1  0  0  0
 37 38  1  0  0  0  0
M  END
>  <CHROM.1>
-75.92897289,122.49273693,-165.66665811,163.17896626,-178.25932339,-96.70154344
-45.50033689,-61.42522344,74.15694386,-109.12332024,-53.88507316,4.37695798
34.38480275,-0.65134792,0.33154810,-0.05316204,-2.60166558

>  <Name>
1nta_lig

>  <RI>
0

>  <Rbt.Current_Directory>
/home/itssahil/PROJECTS/Mol_Feturizer/New_Systems/rnas/1nta

>  <Rbt.Executable>
rbdock ($Id: //depot/dev/client3/rdock/2013.1/src/exe/rbdock.cxx#4 $)

>  <Rbt.Library>
libRbt.so (2013.1, Build901 2013/11/27)

>  <Rbt.Parameter_File>
/export/apps/rDock/src/rDock_2013.1_src/data/scripts/dock_solv.prm

>  <Rbt.Receptor>
prm/pocket_docking_5.prm

>  <SCORE>
-29.568

>  <SCORE.INTER>
-12.3049

>  <SCORE.INTER.CONST>
1

>  <SCORE.INTER.POLAR>
-1.92559

>  <SCORE.INTER.ROT>
11

>  <SCORE.INTER.SOLV>
35.928

>  <SCORE.INTER.VDW>
-24.694

>  <SCORE.INTER.norm>
-0.307622

>  <SCORE.INTRA>
-17.2731

>  <SCORE.INTRA.DIHEDRAL>
-6.80416

>  <SCORE.INTRA.DIHEDRAL.0>
19.0336

>  <SCORE.INTRA.POLAR>
0

>  <SCORE.INTRA.POLAR.0>
0

>  <SCORE.INTRA.REPUL>
0.00228264

>  <SCORE.INTRA.REPUL.0>
0

>  <SCORE.INTRA.SOLV>
-0.0328297

>  <SCORE.INTRA.SOLV.lig_0>
-97.5861

>  <SCORE.INTRA.VDW>
-13.8661

>  <SCORE.INTRA.VDW.0>
11.7669

>  <SCORE.INTRA.norm>
-0.431828

>  <SCORE.RESTR>
0.00997152

>  <SCORE.RESTR.CAVITY>
0.00997152

>  <SCORE.RESTR.norm>
0.000249288

>  <SCORE.SYSTEM>
0

>  <SCORE.SYSTEM.CONST>
0

>  <SCORE.SYSTEM.DIHEDRAL>
0

>  <SCORE.SYSTEM.SOLV>
0

>  <SCORE.SYSTEM.norm>
0

>  <SCORE.heavy>
40

>  <SCORE.norm>
-0.739201

>  <RMSD>
4.950

$$$$
1nta_lig
 OpenBabel11021811403D
libRbt.so/2013.1/901 2013/11/27
 40 42  0  0  0  0  0  0  0  0999 V2000
   10.0965   31.4087   -2.4275 C   0  0  0  0  0  0  0  0  0  0  0  0
   10.4557   30.6977   -3.4302 N   0  0  0  0  0  0  0  0  0  0  0  0
    1.9740   35.0175    2.0986 C   0  0  0  0  0  0  0  0  0  0  0  0
    0.8195   34.6514    2.1192 O   0  0  0  0  0  0  0  0  0  0  0  0
    4.3836   33.6385   -3.5541 C   0  0  0  0  0  0  0  0  0  0  0  0
    5.1898   33.6168   -4.5833 N   0  0  0  0  0  0  0  0  0  0  0  0
    4.1792   37.4858    2.4238 C   0  0  0  0  0  0  0  0  0  0  0  0
   -1.4917   38.1439   -0.7791 C   0  0  0  0  0  0  0  0  0  0  0  0
    8.2019   32.6939   -1.8281 C   0  0  2  0  0  0  0  0  0  0  0  0
    9.4129   32.5048   -2.7207 N   0  0  0  0  0  0  0  0  0  0  0  0
    3.9634   35.6353   -0.6453 C   0  0  2  0  0  0  0  0  0  0  0  0
    0.3745   35.5859   -0.9283 C   0  0  1  0  0  0  0  0  0  0  0  0
    1.6944   35.9486   -1.1379 O   0  0  0  0  0  0  0  0  0  0  0  0
    6.9111   32.6251   -2.6661 C   0  0  1  0  0  0  0  0  0  0  0  0
    6.8395   31.3402   -3.2062 O   0  0  0  0  0  0  0  0  0  0  0  0
    2.5100   35.4575   -0.2198 C   0  0  2  0  0  0  0  0  0  0  0  0
   -0.6347   36.2672   -1.8261 C   0  0  1  0  0  0  0  0  0  0  0  0
   -0.4744   37.6749   -1.7050 N   0  0  0  0  0  0  0  0  0  0  0  0
    5.6510   32.8340   -1.8157 C   0  0  2  0  0  0  0  0  0  0  0  0
    4.3888   32.7788   -2.5914 N   0  0  0  0  0  0  0  0  0  0  0  0
    2.5415   36.0231    1.1329 C   0  0  1  0  0  0  0  0  0  0  0  0
    1.7791   37.2314    1.1045 O   0  0  0  0  0  0  0  0  0  0  0  0
   -0.4484   35.9049   -3.1528 C   0  0  2  0  0  0  0  0  0  0  0  0
   -1.5794   36.3272   -3.8722 O   0  0  0  0  0  0  0  0  0  0  0  0
    5.7600   34.1903   -1.1370 C   0  0  1  0  0  0  0  0  0  0  0  0
    4.5943   34.3767   -0.3495 O   0  0  0  0  0  0  0  0  0  0  0  0
    3.9305   36.3582    1.4707 C   0  0  1  0  0  0  0  0  0  0  0  0
    4.5452   36.5924    0.2097 O   0  0  0  0  0  0  0  0  0  0  0  0
   -0.3053   34.4104   -3.2730 C   0  0  1  0  0  0  0  0  0  0  0  0
    0.1175   34.0976   -4.5675 O   0  0  0  0  0  0  0  0  0  0  0  0
    7.0392   34.2479   -0.2544 C   0  0  2  0  0  0  0  0  0  0  0  0
    7.1183   35.5227    0.3813 O   0  0  0  0  0  0  0  0  0  0  0  0
    0.7264   33.9241   -2.3131 C   0  0  1  0  0  0  0  0  0  0  0  0
    0.2917   34.2387   -1.0218 O   0  0  0  0  0  0  0  0  0  0  0  0
    8.2815   34.0435   -1.1467 C   0  0  1  0  0  0  0  0  0  0  0  0
    9.4755   34.0944   -0.3487 O   0  0  0  0  0  0  0  0  0  0  0  0
    0.8880   32.3931   -2.3919 C   0  0  0  0  0  0  0  0  0  0  0  0
    1.5316   32.0528   -3.6146 O   0  0  0  0  0  0  0  0  0  0  0  0
   10.3831   31.0861   -1.2126 N   0  0  0  0  0  0  0  0  0  0  0  0
    3.5264   34.5759   -3.4410 N   0  0  0  0  0  0  0  0  0  0  0  0
  1  2  1  0  0  0  0
  1 39  1  0  0  0  0
  3  4  1  0  0  0  0
  5  6  1  0  0  0  0
  5 40  1  0  0  0  0
  9 10  1  6  0  0  0
  9 14  1  0  0  0  0
  9 35  1  0  0  0  0
 10  1  1  0  0  0  0
 11 16  1  0  0  0  0
 11 28  1  0  0  0  0
 11 26  1  1  0  0  0
 12 17  1  0  0  0  0
 12 34  1  0  0  0  0
 12 13  1  6  0  0  0
 14 15  1  1  0  0  0
 14 19  1  0  0  0  0
 16 13  1  6  0  0  0
 16 21  1  0  0  0  0
 17 18  1  6  0  0  0
 17 23  1  0  0  0  0
 18  8  1  0  0  0  0
 19 20  1  6  0  0  0
 19 25  1  0  0  0  0
 20  5  1  0  0  0  0
 21  3  1  1  0  0  0
 21 22  1  0  0  0  0
 21 27  1  0  0  0  0
 23 24  1  6  0  0  0
 23 29  1  0  0  0  0
 25 26  1  1  0  0  0
 25 31  1  0  0  0  0
 27  7  1  1  0  0  0
 27 28  1  0  0  0  0
 29 30  1  6  0  0  0
 29 33  1  0  0  0  0
 31 32  1  6  0  0  0
 31 35  1  0  0  0  0
 33 34  1  0  0  0  0
 33 37  1  1  0  0  0
 35 36  1  1  0  0  0
 37 38  1  0  0  0  0
M  END
>  <CHROM.1>
-116.27271921,134.93814742,156.98952192,171.87233605,168.27810307,-98.89035270
-56.56813436,64.81549973,-66.61155039,-128.00723933,71.31596046,3.82129465
34.46335636,-1.41634143,0.26181663,0.28120746,-2.17704781

>  <Name>
1nta_lig

>  <RI>
0

>  <Rbt.Current_Directory>
/home/itssahil/PROJECTS/Mol_Feturizer/New_Systems/rnas/1nta

>  <Rbt.Executable>
rbdock ($Id: //depot/dev/client3/rdock/2013.1/src/exe/rbdock.cxx#4 $)

>  <Rbt.Library>
libRbt.so (2013.1, Build901 2013/11/27)

>  <Rbt.Parameter_File>
/export/apps/rDock/src/rDock_2013.1_src/data/scripts/dock_solv.prm

>  <Rbt.Receptor>
prm/pocket_docking_2.prm

>  <SCORE>
-10.3392

>  <SCORE.INTER>
1.95518

>  <SCORE.INTER.CONST>
1

>  <SCORE.INTER.POLAR>
-1.34686

>  <SCORE.INTER.ROT>
11

>  <SCORE.INTER.SOLV>
33.4677

>  <SCORE.INTER.VDW>
-16.2963

>  <SCORE.INTER.norm>
0.0488795

>  <SCORE.INTRA>
-17.5241

>  <SCORE.INTRA.DIHEDRAL>
-4.75572

>  <SCORE.INTRA.DIHEDRAL.0>
19.0336

>  <SCORE.INTRA.POLAR>
0

>  <SCORE.INTRA.POLAR.0>
0

>  <SCORE.INTRA.REPUL>
0

>  <SCORE.INTRA.REPUL.0>
0

>  <SCORE.INTRA.SOLV>
3.60226

>  <SCORE.INTRA.SOLV.lig_0>
-97.5861

>  <SCORE.INTRA.VDW>
-16.9474

>  <SCORE.INTRA.VDW.0>
11.7669

>  <SCORE.INTRA.norm>
-0.438104

>  <SCORE.RESTR>
5.22981

>  <SCORE.RESTR.CAVITY>
5.22981

>  <SCORE.RESTR.norm>
0.130745

>  <SCORE.SYSTEM>
0

>  <SCORE.SYSTEM.CONST>
0

>  <SCORE.SYSTEM.DIHEDRAL>
0

>  <SCORE.SYSTEM.SOLV>
0

>  <SCORE.SYSTEM.norm>
0

>  <SCORE.heavy>
40

>  <SCORE.norm>
-0.258479

>  <RMSD>
4.959

$$$$
1nta_lig
 OpenBabel11021811403D
libRbt.so/2013.1/901 2013/11/27
 40 42  0  0  0  0  0  0  0  0999 V2000
    6.1927   32.9694   -1.3366 C   0  0  0  0  0  0  0  0  0  0  0  0
    5.2636   32.3373   -1.9509 N   0  0  0  0  0  0  0  0  0  0  0  0
   -0.6019   38.8651    2.0574 C   0  0  0  0  0  0  0  0  0  0  0  0
   -0.6747   39.6776    2.9528 O   0  0  0  0  0  0  0  0  0  0  0  0
    0.4120   33.7145    1.3491 C   0  0  0  0  0  0  0  0  0  0  0  0
   -0.2141   34.7231    1.8973 N   0  0  0  0  0  0  0  0  0  0  0  0
    2.1310   40.5918    1.2756 C   0  0  0  0  0  0  0  0  0  0  0  0
   -4.3220   36.9872   -0.0749 C   0  0  0  0  0  0  0  0  0  0  0  0
    5.0560   33.8680    0.5345 C   0  0  2  0  0  0  0  0  0  0  0  0
    6.1237   32.9417   -0.0141 N   0  0  0  0  0  0  0  0  0  0  0  0
    1.3880   37.5076   -0.4056 C   0  0  2  0  0  0  0  0  0  0  0  0
   -1.4937   36.8583   -1.4769 C   0  0  1  0  0  0  0  0  0  0  0  0
   -0.7584   37.9999   -1.2055 O   0  0  0  0  0  0  0  0  0  0  0  0
    3.6573   33.3474    0.1530 C   0  0  1  0  0  0  0  0  0  0  0  0
    3.4972   32.1069    0.7723 O   0  0  0  0  0  0  0  0  0  0  0  0
   -0.0521   37.8986   -0.0919 C   0  0  2  0  0  0  0  0  0  0  0  0
   -2.9223   37.0966   -1.9138 C   0  0  1  0  0  0  0  0  0  0  0  0
   -3.5724   37.8918   -0.9304 N   0  0  0  0  0  0  0  0  0  0  0  0
    2.5349   34.2610    0.6635 C   0  0  2  0  0  0  0  0  0  0  0  0
    1.1735   33.7923    0.3099 N   0  0  0  0  0  0  0  0  0  0  0  0
    0.1547   39.0658    0.7717 C   0  0  1  0  0  0  0  0  0  0  0  0
   -0.3028   40.2120    0.0514 O   0  0  0  0  0  0  0  0  0  0  0  0
   -2.9685   37.7598   -3.1321 C   0  0  2  0  0  0  0  0  0  0  0  0
   -4.2879   37.6816   -3.6096 O   0  0  0  0  0  0  0  0  0  0  0  0
    2.7526   35.6471    0.0778 C   0  0  1  0  0  0  0  0  0  0  0  0
    1.7145   36.4883    0.5556 O   0  0  0  0  0  0  0  0  0  0  0  0
    1.5937   39.2176    1.0208 C   0  0  1  0  0  0  0  0  0  0  0  0
    2.2055   38.6178   -0.1144 O   0  0  0  0  0  0  0  0  0  0  0  0
   -2.0371   37.1074   -4.1197 C   0  0  1  0  0  0  0  0  0  0  0  0
   -1.9217   37.9277   -5.2450 O   0  0  0  0  0  0  0  0  0  0  0  0
    4.1463   36.1948    0.4977 C   0  0  2  0  0  0  0  0  0  0  0  0
    4.3274   37.4988   -0.0521 O   0  0  0  0  0  0  0  0  0  0  0  0
   -0.6847   36.9539   -3.5115 C   0  0  1  0  0  0  0  0  0  0  0  0
   -0.8111   36.1289   -2.3895 O   0  0  0  0  0  0  0  0  0  0  0  0
    5.2449   35.2551   -0.0418 C   0  0  1  0  0  0  0  0  0  0  0  0
    6.5420   35.7453    0.3355 O   0  0  0  0  0  0  0  0  0  0  0  0
    0.2941   36.2702   -4.4866 C   0  0  0  0  0  0  0  0  0  0  0  0
    1.5785   36.1880   -3.8794 O   0  0  0  0  0  0  0  0  0  0  0  0
    7.1314   33.5964   -1.9594 N   0  0  0  0  0  0  0  0  0  0  0  0
    0.3088   32.5512    1.8614 N   0  0  0  0  0  0  0  0  0  0  0  0
  1  2  1  0  0  0  0
  1 39  1  0  0  0  0
  3  4  1  0  0  0  0
  5  6  1  0  0  0  0
  5 40  1  0  0  0  0
  9 10  1  6  0  0  0
  9 14  1  0  0  0  0
  9 35  1  0  0  0  0
 10  1  1  0  0  0  0
 11 16  1  0  0  0  0
 11 28  1  0  0  0  0
 11 26  1  1  0  0  0
 12 17  1  0  0  0  0
 12 34  1  0  0  0  0
 12 13  1  6  0  0  0
 14 15  1  1  0  0  0
 14 19  1  0  0  0  0
 16 13  1  6  0  0  0
 16 21  1  0  0  0  0
 17 18  1  1  0  0  0
 17 23  1  0  0  0  0
 18  8  1  0  0  0  0
 19 20  1  6  0  0  0
 19 25  1  0  0  0  0
 20  5  1  0  0  0  0
 21  3  1  1  0  0  0
 21 22  1  0  0  0  0
 21 27  1  0  0  0  0
 23 24  1  6  0  0  0
 23 29  1  0  0  0  0
 25 26  1  1  0  0  0
 25 31  1  0  0  0  0
 27  7  1  6  0  0  0
 27 28  1  0  0  0  0
 29 30  1  6  0  0  0
 29 33  1  0  0  0  0
 31 32  1  6  0  0  0
 31 35  1  0  0  0  0
 33 34  1  0  0  0  0
 33 37  1  6  0  0  0
 35 36  1  1  0  0  0
 37 38  1  0  0  0  0
M  END
>  <CHROM.1>
67.96735282,-75.98184781,155.36154296,135.47015747,97.61722537,-97.91829798
127.23080638,81.26118597,-176.81071175,-148.91817899,178.02872407,1.17249367
36.33448867,-0.63285303,0.17458115,0.51935666,-2.28008692

>  <Name>
1nta_lig

>  <RI>
0

>  <Rbt.Current_Directory>
/home/itssahil/PROJECTS/Mol_Feturizer/New_Systems/rnas/1nta

>  <Rbt.Executable>
rbdock ($Id: //depot/dev/client3/rdock/2013.1/src/exe/rbdock.cxx#4 $)

>  <Rbt.Library>
libRbt.so (2013.1, Build901 2013/11/27)

>  <Rbt.Parameter_File>
/export/apps/rDock/src/rDock_2013.1_src/data/scripts/dock_solv.prm

>  <Rbt.Receptor>
prm/pocket_docking_6.prm

>  <SCORE>
-15.3865

>  <SCORE.INTER>
-0.0620351

>  <SCORE.INTER.CONST>
1

>  <SCORE.INTER.POLAR>
-1.46901

>  <SCORE.INTER.ROT>
11

>  <SCORE.INTER.SOLV>
16.6551

>  <SCORE.INTER.VDW>
-11.6297

>  <SCORE.INTER.norm>
-0.00155088

>  <SCORE.INTRA>
-15.3245

>  <SCORE.INTRA.DIHEDRAL>
1.93147

>  <SCORE.INTRA.DIHEDRAL.0>
19.0336

>  <SCORE.INTRA.POLAR>
0

>  <SCORE.INTRA.POLAR.0>
0

>  <SCORE.INTRA.REPUL>
0.0925981

>  <SCORE.INTRA.REPUL.0>
0

>  <SCORE.INTRA.SOLV>
-1.66708

>  <SCORE.INTRA.SOLV.lig_0>
-97.5861

>  <SCORE.INTRA.VDW>
-15.9197

>  <SCORE.INTRA.VDW.0>
11.7669

>  <SCORE.INTRA.norm>
-0.383113

>  <SCORE.RESTR>
0

>  <SCORE.RESTR.CAVITY>
0

>  <SCORE.RESTR.norm>
0

>  <SCORE.SYSTEM>
0

>  <SCORE.SYSTEM.CONST>
0

>  <SCORE.SYSTEM.DIHEDRAL>
0

>  <SCORE.SYSTEM.SOLV>
0

>  <SCORE.SYSTEM.norm>
0

>  <SCORE.heavy>
40

>  <SCORE.norm>
-0.384664

>  <RMSD>
4.986

$$$$
1nta_lig
 OpenBabel11021811403D
libRbt.so/2013.1/901 2013/11/27
 40 42  0  0  0  0  0  0  0  0999 V2000
   10.2326   33.2360   -2.6907 C   0  0  0  0  0  0  0  0  0  0  0  0
    9.7071   32.6608   -3.7071 N   0  0  0  0  0  0  0  0  0  0  0  0
    2.0257   35.5542    1.6831 C   0  0  0  0  0  0  0  0  0  0  0  0
    2.2567   34.3739    1.8279 O   0  0  0  0  0  0  0  0  0  0  0  0
    5.4714   32.8317   -3.5352 C   0  0  0  0  0  0  0  0  0  0  0  0
    5.3734   33.9600   -4.1887 N   0  0  0  0  0  0  0  0  0  0  0  0
    4.3851   37.8287    2.2500 C   0  0  0  0  0  0  0  0  0  0  0  0
   -0.7067   39.1446   -2.0960 C   0  0  0  0  0  0  0  0  0  0  0  0
    8.7133   32.8920   -0.9092 C   0  0  2  0  0  0  0  0  0  0  0  0
   10.0667   32.6133   -1.5334 N   0  0  0  0  0  0  0  0  0  0  0  0
    4.3961   35.9187   -0.7902 C   0  0  2  0  0  0  0  0  0  0  0  0
    0.8713   36.2878   -1.4683 C   0  0  1  0  0  0  0  0  0  0  0  0
    2.2459   36.4150   -1.5773 O   0  0  0  0  0  0  0  0  0  0  0  0
    7.5929   32.6131   -1.9289 C   0  0  1  0  0  0  0  0  0  0  0  0
    7.6437   31.2520   -2.2336 O   0  0  0  0  0  0  0  0  0  0  0  0
    2.8902   35.8805   -0.5534 C   0  0  2  0  0  0  0  0  0  0  0  0
    0.0680   37.0079   -2.5288 C   0  0  1  0  0  0  0  0  0  0  0  0
    0.4476   38.3783   -2.5350 N   0  0  0  0  0  0  0  0  0  0  0  0
    6.1982   32.9014   -1.3575 C   0  0  2  0  0  0  0  0  0  0  0  0
    5.0946   32.6480   -2.3146 N   0  0  0  0  0  0  0  0  0  0  0  0
    2.8000   36.4789    0.7825 C   0  0  1  0  0  0  0  0  0  0  0  0
    2.1595   37.7479    0.6356 O   0  0  0  0  0  0  0  0  0  0  0  0
    0.3037   36.4694   -3.7860 C   0  0  2  0  0  0  0  0  0  0  0  0
   -0.6771   36.9750   -4.6563 O   0  0  0  0  0  0  0  0  0  0  0  0
    6.1582   34.3585   -0.9250 C   0  0  1  0  0  0  0  0  0  0  0  0
    4.8680   34.6186   -0.3944 O   0  0  0  0  0  0  0  0  0  0  0  0
    4.1591   36.7008    1.2915 C   0  0  1  0  0  0  0  0  0  0  0  0
    4.9481   36.8450    0.1169 O   0  0  0  0  0  0  0  0  0  0  0  0
    0.2079   34.9671   -3.7392 C   0  0  1  0  0  0  0  0  0  0  0  0
    0.6814   34.4442   -4.9453 O   0  0  0  0  0  0  0  0  0  0  0  0
    7.2596   34.6336    0.1380 C   0  0  2  0  0  0  0  0  0  0  0  0
    7.1993   36.0016    0.5385 O   0  0  0  0  0  0  0  0  0  0  0  0
    1.0601   34.4419   -2.6345 C   0  0  1  0  0  0  0  0  0  0  0  0
    0.5755   34.9680   -1.4329 O   0  0  0  0  0  0  0  0  0  0  0  0
    8.6440   34.3415   -0.4778 C   0  0  1  0  0  0  0  0  0  0  0  0
    9.6766   34.5911    0.4899 O   0  0  0  0  0  0  0  0  0  0  0  0
    0.9729   32.9057   -2.5411 C   0  0  0  0  0  0  0  0  0  0  0  0
    1.6847   32.4657   -1.3901 O   0  0  0  0  0  0  0  0  0  0  0  0
   10.8766   34.3492   -2.7820 N   0  0  0  0  0  0  0  0  0  0  0  0
    5.9487   31.8023   -4.1174 N   0  0  0  0  0  0  0  0  0  0  0  0
  1  2  1  0  0  0  0
  1 39  1  0  0  0  0
  3  4  1  0  0  0  0
  5  6  1  0  0  0  0
  5 40  1  0  0  0  0
  9 10  1  6  0  0  0
  9 14  1  0  0  0  0
  9 35  1  0  0  0  0
 10  1  1  0  0  0  0
 11 16  1  0  0  0  0
 11 28  1  0  0  0  0
 11 26  1  1  0  0  0
 12 17  1  0  0  0  0
 12 34  1  0  0  0  0
 12 13  1  6  0  0  0
 14 15  1  1  0  0  0
 14 19  1  0  0  0  0
 16 13  1  6  0  0  0
 16 21  1  0  0  0  0
 17 18  1  6  0  0  0
 17 23  1  0  0  0  0
 18  8  1  0  0  0  0
 19 20  1  6  0  0  0
 19 25  1  0  0  0  0
 20  5  1  0  0  0  0
 21  3  1  1  0  0  0
 21 22  1  0  0  0  0
 21 27  1  0  0  0  0
 23 24  1  6  0  0  0
 23 29  1  0  0  0  0
 25 26  1  1  0  0  0
 25 31  1  0  0  0  0
 27  7  1  1  0  0  0
 27 28  1  0  0  0  0
 29 30  1  6  0  0  0
 29 33  1  0  0  0  0
 31 32  1  6  0  0  0
 31 35  1  0  0  0  0
 33 34  1  0  0  0  0
 33 37  1  1  0  0  0
 35 36  1  1  0  0  0
 37 38  1  0  0  0  0
M  END
>  <CHROM.1>
51.93963143,-81.51502023,162.25045023,173.64243610,174.16497000,-113.89016880
-29.52237601,-91.45633321,51.10258690,-140.58951777,-173.82838855,4.31862907
34.88224659,-1.48187808,0.17284875,0.32414008,-2.19219919

>  <Name>
1nta_lig

>  <RI>
0

>  <Rbt.Current_Directory>
/home/itssahil/PROJECTS/Mol_Feturizer/New_Systems/rnas/1nta

>  <Rbt.Executable>
rbdock ($Id: //depot/dev/client3/rdock/2013.1/src/exe/rbdock.cxx#4 $)

>  <Rbt.Library>
libRbt.so (2013.1, Build901 2013/11/27)

>  <Rbt.Parameter_File>
/export/apps/rDock/src/rDock_2013.1_src/data/scripts/dock_solv.prm

>  <Rbt.Receptor>
prm/pocket_docking_3.prm

>  <SCORE>
-15.514

>  <SCORE.INTER>
-0.0519748

>  <SCORE.INTER.CONST>
1

>  <SCORE.INTER.POLAR>
-2.43669

>  <SCORE.INTER.ROT>
11

>  <SCORE.INTER.SOLV>
38.2551

>  <SCORE.INTER.VDW>
-15.5974

>  <SCORE.INTER.norm>
-0.00129937

>  <SCORE.INTRA>
-15.715

>  <SCORE.INTRA.DIHEDRAL>
-8.18808

>  <SCORE.INTRA.DIHEDRAL.0>
19.0336

>  <SCORE.INTRA.POLAR>
0

>  <SCORE.INTRA.POLAR.0>
0

>  <SCORE.INTRA.REPUL>
0

>  <SCORE.INTRA.REPUL.0>
0

>  <SCORE.INTRA.SOLV>
1.06378

>  <SCORE.INTRA.SOLV.lig_0>
-97.5861

>  <SCORE.INTRA.VDW>
-12.1529

>  <SCORE.INTRA.VDW.0>
11.7669

>  <SCORE.INTRA.norm>
-0.392875

>  <SCORE.RESTR>
0.253007

>  <SCORE.RESTR.CAVITY>
0.253007

>  <SCORE.RESTR.norm>
0.00632519

>  <SCORE.SYSTEM>
0

>  <SCORE.SYSTEM.CONST>
0

>  <SCORE.SYSTEM.DIHEDRAL>
0

>  <SCORE.SYSTEM.SOLV>
0

>  <SCORE.SYSTEM.norm>
0

>  <SCORE.heavy>
40

>  <SCORE.norm>
-0.387849

>  <RMSD>
4.994

$$$$
1nta_lig
 OpenBabel11021811403D
libRbt.so/2013.1/901 2013/11/27
 40 42  0  0  0  0  0  0  0  0999 V2000
    9.7830   31.3423   -2.6364 C   0  0  0  0  0  0  0  0  0  0  0  0
    9.9982   30.4391   -3.5184 N   0  0  0  0  0  0  0  0  0  0  0  0
    1.8734   35.1673    1.9580 C   0  0  0  0  0  0  0  0  0  0  0  0
    0.7240   34.7855    1.9782 O   0  0  0  0  0  0  0  0  0  0  0  0
    3.0484   32.9372   -2.8518 C   0  0  0  0  0  0  0  0  0  0  0  0
    2.7436   32.6981   -1.6029 N   0  0  0  0  0  0  0  0  0  0  0  0
    4.2408   37.4960    2.1427 C   0  0  0  0  0  0  0  0  0  0  0  0
   -0.5887   32.5001   -1.6386 C   0  0  0  0  0  0  0  0  0  0  0  0
    7.7749   32.5277   -2.2323 C   0  0  2  0  0  0  0  0  0  0  0  0
    9.0493   32.3693   -3.0385 N   0  0  0  0  0  0  0  0  0  0  0  0
    3.7252   35.6673   -0.9037 C   0  0  2  0  0  0  0  0  0  0  0  0
    1.2545   35.3252   -2.3740 C   0  0  1  0  0  0  0  0  0  0  0  0
    1.4536   36.1192   -1.2571 O   0  0  0  0  0  0  0  0  0  0  0  0
    6.6065   32.9118   -3.1598 C   0  0  1  0  0  0  0  0  0  0  0  0
    6.4163   31.8484   -4.0435 O   0  0  0  0  0  0  0  0  0  0  0  0
    2.2924   35.5777   -0.3897 C   0  0  2  0  0  0  0  0  0  0  0  0
   -0.0786   34.6124   -2.4327 C   0  0  1  0  0  0  0  0  0  0  0  0
   -0.2422   33.8542   -1.2408 N   0  0  0  0  0  0  0  0  0  0  0  0
    5.2923   33.1088   -2.3925 C   0  0  2  0  0  0  0  0  0  0  0  0
    4.1459   33.4843   -3.2543 N   0  0  0  0  0  0  0  0  0  0  0  0
    2.4410   36.1381    0.9575 C   0  0  1  0  0  0  0  0  0  0  0  0
    1.7533   37.3907    0.9733 O   0  0  0  0  0  0  0  0  0  0  0  0
   -1.1252   35.5176   -2.5382 C   0  0  2  0  0  0  0  0  0  0  0  0
   -2.2801   34.7948   -2.8829 O   0  0  0  0  0  0  0  0  0  0  0  0
    5.5119   34.1966   -1.3531 C   0  0  1  0  0  0  0  0  0  0  0  0
    4.2951   34.3721   -0.6444 O   0  0  0  0  0  0  0  0  0  0  0  0
    3.8659   36.3873    1.2089 C   0  0  1  0  0  0  0  0  0  0  0  0
    4.4154   36.5857   -0.0878 O   0  0  0  0  0  0  0  0  0  0  0  0
   -0.8316   36.5361   -3.6082 C   0  0  1  0  0  0  0  0  0  0  0  0
   -1.7760   37.5629   -3.5288 O   0  0  0  0  0  0  0  0  0  0  0  0
    6.6617   33.7922   -0.3871 C   0  0  2  0  0  0  0  0  0  0  0  0
    6.8455   34.8194    0.5858 O   0  0  0  0  0  0  0  0  0  0  0  0
    0.5199   37.1248   -3.3864 C   0  0  1  0  0  0  0  0  0  0  0  0
    1.4567   36.0901   -3.4716 O   0  0  0  0  0  0  0  0  0  0  0  0
    7.9644   33.6137   -1.1947 C   0  0  1  0  0  0  0  0  0  0  0  0
    9.0404   33.2403   -0.3185 O   0  0  0  0  0  0  0  0  0  0  0  0
    0.8661   38.1597   -4.4752 C   0  0  0  0  0  0  0  0  0  0  0  0
    2.0263   38.8834   -4.0809 O   0  0  0  0  0  0  0  0  0  0  0  0
   10.2511   31.2641   -1.4377 N   0  0  0  0  0  0  0  0  0  0  0  0
    2.2383   32.5995   -3.7770 N   0  0  0  0  0  0  0  0  0  0  0  0
  1  2  1  0  0  0  0
  1 39  1  0  0  0  0
  3  4  1  0  0  0  0
  5  6  1  0  0  0  0
  5 40  1  0  0  0  0
  9 10  1  6  0  0  0
  9 14  1  0  0  0  0
  9 35  1  0  0  0  0
 10  1  1  0  0  0  0
 11 16  1  0  0  0  0
 11 28  1  0  0  0  0
 11 26  1  1  0  0  0
 12 17  1  0  0  0  0
 12 34  1  0  0  0  0
 12 13  1  1  0  0  0
 14 15  1  6  0  0  0
 14 19  1  0  0  0  0
 16 13  1  6  0  0  0
 16 21  1  0  0  0  0
 17 18  1  1  0  0  0
 17 23  1  0  0  0  0
 18  8  1  0  0  0  0
 19 20  1  6  0  0  0
 19 25  1  0  0  0  0
 20  5  1  0  0  0  0
 21  3  1  1  0  0  0
 21 22  1  0  0  0  0
 21 27  1  0  0  0  0
 23 24  1  6  0  0  0
 23 29  1  0  0  0  0
 25 26  1  1  0  0  0
 25 31  1  0  0  0  0
 27  7  1  1  0  0  0
 27 28  1  0  0  0  0
 29 30  1  1  0  0  0
 29 33  1  0  0  0  0
 31 32  1  1  0  0  0
 31 35  1  0  0  0  0
 33 34  1  0  0  0  0
 33 37  1  6  0  0  0
 35 36  1  1  0  0  0
 37 38  1  0  0  0  0
M  END
>  <CHROM.1>
-139.99926757,119.90371123,165.83553755,105.74666398,73.99272870,-128.65254463
143.19257231,33.77666411,-59.99454917,-113.44781045,168.33545632,3.54988381
34.63606527,-1.64256211,0.19036205,0.37657884,-2.09192148

>  <Name>
1nta_lig

>  <RI>
0

>  <Rbt.Current_Directory>
/home/itssahil/PROJECTS/Mol_Feturizer/New_Systems/rnas/1nta

>  <Rbt.Executable>
rbdock ($Id: //depot/dev/client3/rdock/2013.1/src/exe/rbdock.cxx#4 $)

>  <Rbt.Library>
libRbt.so (2013.1, Build901 2013/11/27)

>  <Rbt.Parameter_File>
/export/apps/rDock/src/rDock_2013.1_src/data/scripts/dock_solv.prm

>  <Rbt.Receptor>
prm/pocket_docking_3.prm

>  <SCORE>
-23.7076

>  <SCORE.INTER>
-8.50826

>  <SCORE.INTER.CONST>
1

>  <SCORE.INTER.POLAR>
-1.28814

>  <SCORE.INTER.ROT>
11

>  <SCORE.INTER.SOLV>
30.2154

>  <SCORE.INTER.VDW>
-22.3835

>  <SCORE.INTER.norm>
-0.212707

>  <SCORE.INTRA>
-15.1993

>  <SCORE.INTRA.DIHEDRAL>
0.462914

>  <SCORE.INTRA.DIHEDRAL.0>
19.0336

>  <SCORE.INTRA.POLAR>
0

>  <SCORE.INTRA.POLAR.0>
0

>  <SCORE.INTRA.REPUL>
0

>  <SCORE.INTRA.REPUL.0>
0

>  <SCORE.INTRA.SOLV>
4.35437

>  <SCORE.INTRA.SOLV.lig_0>
-97.5861

>  <SCORE.INTRA.VDW>
-17.608

>  <SCORE.INTRA.VDW.0>
11.7669

>  <SCORE.INTRA.norm>
-0.379983

>  <SCORE.RESTR>
0

>  <SCORE.RESTR.CAVITY>
0

>  <SCORE.RESTR.norm>
0

>  <SCORE.SYSTEM>
0

>  <SCORE.SYSTEM.CONST>
0

>  <SCORE.SYSTEM.DIHEDRAL>
0

>  <SCORE.SYSTEM.SOLV>
0

>  <SCORE.SYSTEM.norm>
0

>  <SCORE.heavy>
40

>  <SCORE.norm>
-0.59269

>  <RMSD>
4.997

$$$$
1nta_lig
 OpenBabel11021811403D
libRbt.so/2013.1/901 2013/11/27
 40 42  0  0  0  0  0  0  0  0999 V2000
    6.9337   32.2336   -1.9771 C   0  0  0  0  0  0  0  0  0  0  0  0
    8.1054   31.8637   -2.3383 N   0  0  0  0  0  0  0  0  0  0  0  0
   -1.3175   37.6124   -1.4216 C   0  0  0  0  0  0  0  0  0  0  0  0
   -2.5095   37.5161   -1.2291 O   0  0  0  0  0  0  0  0  0  0  0  0
    1.1601   33.9977   -3.0258 C   0  0  0  0  0  0  0  0  0  0  0  0
    1.3089   32.7004   -2.9563 N   0  0  0  0  0  0  0  0  0  0  0  0
   -1.1811   37.6260    1.9014 C   0  0  0  0  0  0  0  0  0  0  0  0
    1.9917   39.8553   -5.3575 C   0  0  0  0  0  0  0  0  0  0  0  0
    5.4239   33.8670   -1.1690 C   0  0  2  0  0  0  0  0  0  0  0  0
    6.8035   33.5211   -1.6946 N   0  0  0  0  0  0  0  0  0  0  0  0
    1.8350   37.4683   -0.0399 C   0  0  2  0  0  0  0  0  0  0  0  0
    2.6744   39.2481   -2.1658 C   0  0  1  0  0  0  0  0  0  0  0  0
    1.5584   39.3856   -1.3576 O   0  0  0  0  0  0  0  0  0  0  0  0
    4.4723   34.1719   -2.3413 C   0  0  1  0  0  0  0  0  0  0  0  0
    4.3556   33.0007   -3.0915 O   0  0  0  0  0  0  0  0  0  0  0  0
    0.9959   38.2254   -1.0635 C   0  0  2  0  0  0  0  0  0  0  0  0
    2.8257   40.2973   -3.2452 C   0  0  1  0  0  0  0  0  0  0  0  0
    1.6380   40.3205   -4.0269 N   0  0  0  0  0  0  0  0  0  0  0  0
    3.0636   34.5522   -1.8662 C   0  0  2  0  0  0  0  0  0  0  0  0
    2.1212   34.8572   -2.9694 N   0  0  0  0  0  0  0  0  0  0  0  0
   -0.3285   38.1737   -0.4355 C   0  0  1  0  0  0  0  0  0  0  0  0
   -0.6612   39.5055   -0.0385 O   0  0  0  0  0  0  0  0  0  0  0  0
    3.0275   41.5552   -2.6948 C   0  0  2  0  0  0  0  0  0  0  0  0
    3.4498   42.4091   -3.7280 O   0  0  0  0  0  0  0  0  0  0  0  0
    3.1836   35.7690   -0.9625 C   0  0  1  0  0  0  0  0  0  0  0  0
    1.8791   36.1141   -0.5234 O   0  0  0  0  0  0  0  0  0  0  0  0
   -0.2461   37.3370    0.7683 C   0  0  1  0  0  0  0  0  0  0  0  0
    1.1139   37.4444    1.1705 O   0  0  0  0  0  0  0  0  0  0  0  0
    4.0878   41.4961   -1.6267 C   0  0  1  0  0  0  0  0  0  0  0  0
    4.0994   42.7079   -0.9311 O   0  0  0  0  0  0  0  0  0  0  0  0
    4.1085   35.4508    0.2467 C   0  0  2  0  0  0  0  0  0  0  0  0
    4.2001   36.5998    1.0874 O   0  0  0  0  0  0  0  0  0  0  0  0
    3.7705   40.4051   -0.6615 C   0  0  1  0  0  0  0  0  0  0  0  0
    3.7651   39.1977   -1.3668 O   0  0  0  0  0  0  0  0  0  0  0  0
    5.5145   35.0834   -0.2722 C   0  0  1  0  0  0  0  0  0  0  0  0
    6.3854   34.7865    0.8315 O   0  0  0  0  0  0  0  0  0  0  0  0
    4.8456   40.2994    0.4382 C   0  0  0  0  0  0  0  0  0  0  0  0
    6.0322   40.9489   -0.0035 O   0  0  0  0  0  0  0  0  0  0  0  0
    5.9453   31.4106   -1.8880 N   0  0  0  0  0  0  0  0  0  0  0  0
   -0.0041   34.4938   -3.1844 N   0  0  0  0  0  0  0  0  0  0  0  0
  1  2  1  0  0  0  0
  1 39  1  0  0  0  0
  3  4  1  0  0  0  0
  5  6  1  0  0  0  0
  5 40  1  0  0  0  0
  9 10  1  6  0  0  0
  9 14  1  0  0  0  0
  9 35  1  0  0  0  0
 10  1  1  0  0  0  0
 11 16  1  0  0  0  0
 11 28  1  0  0  0  0
 11 26  1  6  0  0  0
 12 17  1  0  0  0  0
 12 34  1  0  0  0  0
 12 13  1  1  0  0  0
 14 15  1  6  0  0  0
 14 19  1  0  0  0  0
 16 13  1  1  0  0  0
 16 21  1  0  0  0  0
 17 18  1  1  0  0  0
 17 23  1  0  0  0  0
 18  8  1  0  0  0  0
 19 20  1  6  0  0  0
 19 25  1  0  0  0  0
 20  5  1  0  0  0  0
 21  3  1  6  0  0  0
 21 22  1  0  0  0  0
 21 27  1  0  0  0  0
 23 24  1  6  0  0  0
 23 29  1  0  0  0  0
 25 26  1  1  0  0  0
 25 31  1  0  0  0  0
 27  7  1  1  0  0  0
 27 28  1  0  0  0  0
 29 30  1  1  0  0  0
 29 33  1  0  0  0  0
 31 32  1  1  0  0  0
 31 35  1  0  0  0  0
 33 34  1  0  0  0  0
 33 37  1  1  0  0  0
 35 36  1  1  0  0  0
 37 38  1  0  0  0  0
M  END
>  <CHROM.1>
-87.26179353,-175.39795017,111.18483352,140.61721543,74.13658475,-113.51743208
114.75730796,-46.14539906,-175.51424556,-161.15471758,-18.96142828,2.89762133
37.14496665,-1.35884591,-1.12779738,0.04311461,0.01249684

>  <Name>
1nta_lig

>  <RI>
0

>  <Rbt.Current_Directory>
/home/itssahil/PROJECTS/Mol_Feturizer/New_Systems/rnas/1nta

>  <Rbt.Executable>
rbdock ($Id: //depot/dev/client3/rdock/2013.1/src/exe/rbdock.cxx#4 $)

>  <Rbt.Library>
libRbt.so (2013.1, Build901 2013/11/27)

>  <Rbt.Parameter_File>
/export/apps/rDock/src/rDock_2013.1_src/data/scripts/dock_solv.prm

>  <Rbt.Receptor>
prm/pocket_docking_5.prm

>  <SCORE>
-21.9148

>  <SCORE.INTER>
-7.22638

>  <SCORE.INTER.CONST>
1

>  <SCORE.INTER.POLAR>
-1.72659

>  <SCORE.INTER.ROT>
11

>  <SCORE.INTER.SOLV>
22.2723

>  <SCORE.INTER.VDW>
-17.4197

>  <SCORE.INTER.norm>
-0.180659

>  <SCORE.INTRA>
-14.6884

>  <SCORE.INTRA.DIHEDRAL>
4.06082

>  <SCORE.INTRA.DIHEDRAL.0>
19.0336

>  <SCORE.INTRA.POLAR>
0

>  <SCORE.INTRA.POLAR.0>
0

>  <SCORE.INTRA.REPUL>
0

>  <SCORE.INTRA.REPUL.0>
0

>  <SCORE.INTRA.SOLV>
-4.52129

>  <SCORE.INTRA.SOLV.lig_0>
-97.5861

>  <SCORE.INTRA.VDW>
-14.4582

>  <SCORE.INTRA.VDW.0>
11.7669

>  <SCORE.INTRA.norm>
-0.367211

>  <SCORE.RESTR>
0

>  <SCORE.RESTR.CAVITY>
0

>  <SCORE.RESTR.norm>
0

>  <SCORE.SYSTEM>
0

>  <SCORE.SYSTEM.CONST>
0

>  <SCORE.SYSTEM.DIHEDRAL>
0

>  <SCORE.SYSTEM.SOLV>
0

>  <SCORE.SYSTEM.norm>
0

>  <SCORE.heavy>
40

>  <SCORE.norm>
-0.54787

>  <RMSD>
5.002

$$$$
1nta_lig
 OpenBabel11021811403D
libRbt.so/2013.1/901 2013/11/27
 40 42  0  0  0  0  0  0  0  0999 V2000
    7.5960   32.7123   -1.3909 C   0  0  0  0  0  0  0  0  0  0  0  0
    7.8014   31.9234   -2.3786 N   0  0  0  0  0  0  0  0  0  0  0  0
   -1.9371   34.9198   -0.1514 C   0  0  0  0  0  0  0  0  0  0  0  0
   -2.6653   34.2504   -0.8506 O   0  0  0  0  0  0  0  0  0  0  0  0
    1.3714   32.6784   -2.4955 C   0  0  0  0  0  0  0  0  0  0  0  0
    0.8255   32.3532   -1.3526 N   0  0  0  0  0  0  0  0  0  0  0  0
   -1.1958   37.7492    1.4317 C   0  0  0  0  0  0  0  0  0  0  0  0
   -0.8050   33.4118   -5.6712 C   0  0  0  0  0  0  0  0  0  0  0  0
    5.6141   33.9726   -1.1006 C   0  0  2  0  0  0  0  0  0  0  0  0
    7.0065   33.8601   -1.6903 N   0  0  0  0  0  0  0  0  0  0  0  0
    0.9579   36.4959   -1.1531 C   0  0  2  0  0  0  0  0  0  0  0  0
    0.3489   35.8895   -3.8309 C   0  0  1  0  0  0  0  0  0  0  0  0
   -0.5850   36.3306   -2.9084 O   0  0  0  0  0  0  0  0  0  0  0  0
    4.5556   33.7832   -2.2037 C   0  0  1  0  0  0  0  0  0  0  0  0
    4.7012   32.4849   -2.6947 O   0  0  0  0  0  0  0  0  0  0  0  0
   -0.3383   35.8939   -1.6846 C   0  0  2  0  0  0  0  0  0  0  0  0
   -0.1938   35.5955   -5.2121 C   0  0  1  0  0  0  0  0  0  0  0  0
   -1.2619   34.6643   -5.0927 N   0  0  0  0  0  0  0  0  0  0  0  0
    3.1237   33.9106   -1.6669 C   0  0  2  0  0  0  0  0  0  0  0  0
    2.0778   33.7383   -2.7035 N   0  0  0  0  0  0  0  0  0  0  0  0
   -1.2598   36.1927   -0.5836 C   0  0  1  0  0  0  0  0  0  0  0  0
   -2.1930   37.1626   -1.0638 O   0  0  0  0  0  0  0  0  0  0  0  0
   -0.6683   36.7499   -5.8189 C   0  0  2  0  0  0  0  0  0  0  0  0
   -0.8745   36.4621   -7.1789 O   0  0  0  0  0  0  0  0  0  0  0  0
    2.9778   35.2861   -1.0355 C   0  0  1  0  0  0  0  0  0  0  0  0
    1.6535   35.3971   -0.5379 O   0  0  0  0  0  0  0  0  0  0  0  0
   -0.4967   36.7890    0.5200 C   0  0  1  0  0  0  0  0  0  0  0  0
    0.6207   37.3929   -0.1201 O   0  0  0  0  0  0  0  0  0  0  0  0
    0.3382   37.8627   -5.6876 C   0  0  1  0  0  0  0  0  0  0  0  0
   -0.2567   39.0622   -6.0874 O   0  0  0  0  0  0  0  0  0  0  0  0
    4.0158   35.4645    0.1088 C   0  0  2  0  0  0  0  0  0  0  0  0
    3.8564   36.7554    0.6950 O   0  0  0  0  0  0  0  0  0  0  0  0
    0.7559   37.9991   -4.2631 C   0  0  1  0  0  0  0  0  0  0  0  0
    1.3527   36.7956   -3.8750 O   0  0  0  0  0  0  0  0  0  0  0  0
    5.4396   35.3392   -0.4728 C   0  0  1  0  0  0  0  0  0  0  0  0
    6.4144   35.5023    0.5702 O   0  0  0  0  0  0  0  0  0  0  0  0
    1.8030   39.1172   -4.0905 C   0  0  0  0  0  0  0  0  0  0  0  0
    1.1760   40.3796   -4.2859 O   0  0  0  0  0  0  0  0  0  0  0  0
    7.9426   32.4158   -0.1850 N   0  0  0  0  0  0  0  0  0  0  0  0
    1.2403   31.9063   -3.5020 N   0  0  0  0  0  0  0  0  0  0  0  0
  1  2  1  0  0  0  0
  1 39  1  0  0  0  0
  3  4  1  0  0  0  0
  5  6  1  0  0  0  0
  5 40  1  0  0  0  0
  9 10  1  6  0  0  0
  9 14  1  0  0  0  0
  9 35  1  0  0  0  0
 10  1  1  0  0  0  0
 11 16  1  0  0  0  0
 11 28  1  0  0  0  0
 11 26  1  1  0  0  0
 12 17  1  0  0  0  0
 12 34  1  0  0  0  0
 12 13  1  1  0  0  0
 14 15  1  1  0  0  0
 14 19  1  0  0  0  0
 16 13  1  6  0  0  0
 16 21  1  0  0  0  0
 17 18  1  1  0  0  0
 17 23  1  0  0  0  0
 18  8  1  0  0  0  0
 19 20  1  6  0  0  0
 19 25  1  0  0  0  0
 20  5  1  0  0  0  0
 21  3  1  1  0  0  0
 21 22  1  0  0  0  0
 21 27  1  0  0  0  0
 23 24  1  6  0  0  0
 23 29  1  0  0  0  0
 25 26  1  1  0  0  0
 25 31  1  0  0  0  0
 27  7  1  6  0  0  0
 27 28  1  0  0  0  0
 29 30  1  1  0  0  0
 29 33  1  0  0  0  0
 31 32  1  6  0  0  0
 31 35  1  0  0  0  0
 33 34  1  0  0  0  0
 33 37  1  6  0  0  0
 35 36  1  1  0  0  0
 37 38  1  0  0  0  0
M  END
>  <CHROM.1>
-105.30962817,113.11742871,127.37287748,144.93220531,66.06830361,-110.95468838
114.29953519,49.02628182,-62.77251645,-120.39574719,70.54449662,1.73088180
35.46015826,-2.29939983,-0.30168957,0.48407670,-1.65889687

>  <Name>
1nta_lig

>  <RI>
0

>  <Rbt.Current_Directory>
/home/itssahil/PROJECTS/Mol_Feturizer/New_Systems/rnas/1nta

>  <Rbt.Executable>
rbdock ($Id: //depot/dev/client3/rdock/2013.1/src/exe/rbdock.cxx#4 $)

>  <Rbt.Library>
libRbt.so (2013.1, Build901 2013/11/27)

>  <Rbt.Parameter_File>
/export/apps/rDock/src/rDock_2013.1_src/data/scripts/dock_solv.prm

>  <Rbt.Receptor>
prm/pocket_docking_4.prm

>  <SCORE>
-19.572

>  <SCORE.INTER>
-3.0687

>  <SCORE.INTER.CONST>
1

>  <SCORE.INTER.POLAR>
-1.22862

>  <SCORE.INTER.ROT>
11

>  <SCORE.INTER.SOLV>
23.423

>  <SCORE.INTER.VDW>
-16.6914

>  <SCORE.INTER.norm>
-0.0767175

>  <SCORE.INTRA>
-16.505

>  <SCORE.INTRA.DIHEDRAL>
4.67576

>  <SCORE.INTRA.DIHEDRAL.0>
19.0336

>  <SCORE.INTRA.POLAR>
0

>  <SCORE.INTRA.POLAR.0>
0

>  <SCORE.INTRA.REPUL>
0

>  <SCORE.INTRA.REPUL.0>
0

>  <SCORE.INTRA.SOLV>
-0.883028

>  <SCORE.INTRA.SOLV.lig_0>
-97.5861

>  <SCORE.INTRA.VDW>
-18.4014

>  <SCORE.INTRA.VDW.0>
11.7669

>  <SCORE.INTRA.norm>
-0.412625

>  <SCORE.RESTR>
0.00163945

>  <SCORE.RESTR.CAVITY>
0.00163945

>  <SCORE.RESTR.norm>
4.09862e-05

>  <SCORE.SYSTEM>
0

>  <SCORE.SYSTEM.CONST>
0

>  <SCORE.SYSTEM.DIHEDRAL>
0

>  <SCORE.SYSTEM.SOLV>
0

>  <SCORE.SYSTEM.norm>
0

>  <SCORE.heavy>
40

>  <SCORE.norm>
-0.489301

>  <RMSD>
5.005

$$$$
1nta_lig
 OpenBabel11021811403D
libRbt.so/2013.1/901 2013/11/27
 40 42  0  0  0  0  0  0  0  0999 V2000
    8.1861   32.2098   -3.6984 C   0  0  0  0  0  0  0  0  0  0  0  0
    9.4126   31.8505   -3.7805 N   0  0  0  0  0  0  0  0  0  0  0  0
    0.3454   36.6672   -0.8123 C   0  0  0  0  0  0  0  0  0  0  0  0
    0.4443   35.7671   -1.6169 O   0  0  0  0  0  0  0  0  0  0  0  0
    2.1029   33.8460   -2.9082 C   0  0  0  0  0  0  0  0  0  0  0  0
    1.8181   32.8888   -2.0641 N   0  0  0  0  0  0  0  0  0  0  0  0
    0.0496   35.6803    2.3500 C   0  0  0  0  0  0  0  0  0  0  0  0
    3.4580   40.5985   -3.3366 C   0  0  0  0  0  0  0  0  0  0  0  0
    6.7154   33.3144   -2.2094 C   0  0  2  0  0  0  0  0  0  0  0  0
    7.9672   33.3519   -3.0641 N   0  0  0  0  0  0  0  0  0  0  0  0
    3.2848   35.8884    0.8069 C   0  0  2  0  0  0  0  0  0  0  0  0
    4.3063   38.2616   -0.7710 C   0  0  1  0  0  0  0  0  0  0  0  0
    3.2495   38.1261    0.1135 O   0  0  0  0  0  0  0  0  0  0  0  0
    5.5467   33.9884   -2.9530 C   0  0  1  0  0  0  0  0  0  0  0  0
    5.2971   33.2314   -4.0987 O   0  0  0  0  0  0  0  0  0  0  0  0
    2.6129   36.9752   -0.0254 C   0  0  2  0  0  0  0  0  0  0  0  0
    4.3960   39.5988   -1.4729 C   0  0  1  0  0  0  0  0  0  0  0  0
    3.1582   39.8546   -2.1247 N   0  0  0  0  0  0  0  0  0  0  0  0
    4.2559   34.0005   -2.1233 C   0  0  2  0  0  0  0  0  0  0  0  0
    3.1101   34.6466   -2.8072 N   0  0  0  0  0  0  0  0  0  0  0  0
    1.2173   36.8355    0.4031 C   0  0  1  0  0  0  0  0  0  0  0  0
    0.8831   38.0091    1.1467 O   0  0  0  0  0  0  0  0  0  0  0  0
    4.6493   40.6215   -0.5696 C   0  0  2  0  0  0  0  0  0  0  0  0
    5.0103   41.7617   -1.3077 O   0  0  0  0  0  0  0  0  0  0  0  0
    4.5388   34.7352   -0.8225 C   0  0  1  0  0  0  0  0  0  0  0  0
    3.3433   34.7403   -0.0579 O   0  0  0  0  0  0  0  0  0  0  0  0
    1.1131   35.6746    1.2960 C   0  0  1  0  0  0  0  0  0  0  0  0
    2.4123   35.5578    1.8628 O   0  0  0  0  0  0  0  0  0  0  0  0
    5.7790   40.2401    0.3507 C   0  0  1  0  0  0  0  0  0  0  0  0
    5.8519   41.1714    1.3899 O   0  0  0  0  0  0  0  0  0  0  0  0
    5.6886   34.0313   -0.0472 C   0  0  2  0  0  0  0  0  0  0  0  0
    5.9319   34.7283    1.1736 O   0  0  0  0  0  0  0  0  0  0  0  0
    5.5154   38.8975    0.9427 C   0  0  1  0  0  0  0  0  0  0  0  0
    5.4481   37.9736   -0.1048 O   0  0  0  0  0  0  0  0  0  0  0  0
    6.9680   34.0489   -0.9099 C   0  0  1  0  0  0  0  0  0  0  0  0
    8.0438   33.4031   -0.2095 O   0  0  0  0  0  0  0  0  0  0  0  0
    6.6615   38.4622    1.8772 C   0  0  0  0  0  0  0  0  0  0  0  0
    6.1121   37.9791    3.0978 O   0  0  0  0  0  0  0  0  0  0  0  0
    7.2249   31.5077   -4.1940 N   0  0  0  0  0  0  0  0  0  0  0  0
    1.3691   34.0226   -3.9362 N   0  0  0  0  0  0  0  0  0  0  0  0
  1  2  1  0  0  0  0
  1 39  1  0  0  0  0
  3  4  1  0  0  0  0
  5  6  1  0  0  0  0
  5 40  1  0  0  0  0
  9 10  1  6  0  0  0
  9 14  1  0  0  0  0
  9 35  1  0  0  0  0
 10  1  1  0  0  0  0
 11 16  1  0  0  0  0
 11 28  1  0  0  0  0
 11 26  1  6  0  0  0
 12 17  1  0  0  0  0
 12 34  1  0  0  0  0
 12 13  1  1  0  0  0
 14 15  1  6  0  0  0
 14 19  1  0  0  0  0
 16 13  1  1  0  0  0
 16 21  1  0  0  0  0
 17 18  1  1  0  0  0
 17 23  1  0  0  0  0
 18  8  1  0  0  0  0
 19 20  1  6  0  0  0
 19 25  1  0  0  0  0
 20  5  1  0  0  0  0
 21  3  1  6  0  0  0
 21 22  1  0  0  0  0
 21 27  1  0  0  0  0
 23 24  1  6  0  0  0
 23 29  1  0  0  0  0
 25 26  1  1  0  0  0
 25 31  1  0  0  0  0
 27  7  1  1  0  0  0
 27 28  1  0  0  0  0
 29 30  1  1  0  0  0
 29 33  1  0  0  0  0
 31 32  1  1  0  0  0
 31 35  1  0  0  0  0
 33 34  1  0  0  0  0
 33 37  1  1  0  0  0
 35 36  1  1  0  0  0
 37 38  1  0  0  0  0
M  END
>  <CHROM.1>
-99.24058788,-141.74263912,89.12824554,134.44500874,86.47979199,-146.76816405
122.77281233,29.90138639,60.01560749,-151.72700710,132.55717072,4.32757203
36.16779909,-0.83969945,-1.17232733,0.11864105,0.41365100

>  <Name>
1nta_lig

>  <RI>
1.05895e+07

>  <Rbt.Current_Directory>
/home/itssahil/PROJECTS/Mol_Feturizer/New_Systems/rnas/1nta

>  <Rbt.Executable>
rbdock ($Id: //depot/dev/client3/rdock/2013.1/src/exe/rbdock.cxx#4 $)

>  <Rbt.Library>
libRbt.so (2013.1, Build901 2013/11/27)

>  <Rbt.Parameter_File>
/export/apps/rDock/src/rDock_2013.1_src/data/scripts/dock_solv.prm

>  <Rbt.Receptor>
prm/blind_docking_100.prm

>  <SCORE>
-31.215

>  <SCORE.INTER>
-18.4167

>  <SCORE.INTER.CONST>
1

>  <SCORE.INTER.POLAR>
-2.28537

>  <SCORE.INTER.ROT>
11

>  <SCORE.INTER.SOLV>
33.9199

>  <SCORE.INTER.VDW>
-26.8998

>  <SCORE.INTER.norm>
-0.460417

>  <SCORE.INTRA>
-14.7723

>  <SCORE.INTRA.DIHEDRAL>
5.37863

>  <SCORE.INTRA.DIHEDRAL.0>
19.0336

>  <SCORE.INTRA.POLAR>
0

>  <SCORE.INTRA.POLAR.0>
0

>  <SCORE.INTRA.REPUL>
0

>  <SCORE.INTRA.REPUL.0>
0

>  <SCORE.INTRA.SOLV>
-2.23939

>  <SCORE.INTRA.SOLV.lig_0>
-97.5861

>  <SCORE.INTRA.VDW>
-16.3419

>  <SCORE.INTRA.VDW.0>
11.7669

>  <SCORE.INTRA.norm>
-0.369307

>  <SCORE.RESTR>
1.9739

>  <SCORE.RESTR.CAVITY>
1.9739

>  <SCORE.RESTR.norm>
0.0493476

>  <SCORE.SYSTEM>
0

>  <SCORE.SYSTEM.CONST>
0

>  <SCORE.SYSTEM.DIHEDRAL>
0

>  <SCORE.SYSTEM.SOLV>
0

>  <SCORE.SYSTEM.norm>
0

>  <SCORE.heavy>
40

>  <SCORE.norm>
-0.780376

>  <RMSD>
5.013

$$$$
1nta_lig
 OpenBabel11021811403D
libRbt.so/2013.1/901 2013/11/27
 40 42  0  0  0  0  0  0  0  0999 V2000
    7.1367   32.5245   -3.0577 C   0  0  0  0  0  0  0  0  0  0  0  0
    8.0296   32.2230   -2.1905 N   0  0  0  0  0  0  0  0  0  0  0  0
   -0.1285   36.9547    2.2347 C   0  0  0  0  0  0  0  0  0  0  0  0
   -1.0008   36.5623    2.9779 O   0  0  0  0  0  0  0  0  0  0  0  0
    1.0467   32.9129   -3.1210 C   0  0  0  0  0  0  0  0  0  0  0  0
    1.0311   32.4511   -4.3443 N   0  0  0  0  0  0  0  0  0  0  0  0
    1.0593   39.0908   -0.0209 C   0  0  0  0  0  0  0  0  0  0  0  0
   -0.0630   32.3082    1.6779 C   0  0  0  0  0  0  0  0  0  0  0  0
    5.3544   33.6776   -2.0116 C   0  0  2  0  0  0  0  0  0  0  0  0
    6.5759   33.7154   -2.9091 N   0  0  0  0  0  0  0  0  0  0  0  0
    0.6615   35.6180   -0.8407 C   0  0  2  0  0  0  0  0  0  0  0  0
   -1.7289   33.9863   -0.5413 C   0  0  1  0  0  0  0  0  0  0  0  0
   -1.6126   35.3519   -0.3437 O   0  0  0  0  0  0  0  0  0  0  0  0
    4.0759   33.8660   -2.8501 C   0  0  1  0  0  0  0  0  0  0  0  0
    3.9918   32.7791   -3.7216 O   0  0  0  0  0  0  0  0  0  0  0  0
   -0.4542   35.6921    0.1962 C   0  0  2  0  0  0  0  0  0  0  0  0
   -1.9784   33.1700    0.7077 C   0  0  1  0  0  0  0  0  0  0  0  0
   -0.9534   33.4564    1.6509 N   0  0  0  0  0  0  0  0  0  0  0  0
    2.8062   33.8598   -1.9884 C   0  0  2  0  0  0  0  0  0  0  0  0
    1.5555   34.0437   -2.7631 N   0  0  0  0  0  0  0  0  0  0  0  0
   -0.2473   37.0397    0.7365 C   0  0  1  0  0  0  0  0  0  0  0  0
   -1.3627   37.8349    0.3295 O   0  0  0  0  0  0  0  0  0  0  0  0
   -3.2083   33.4807    1.2706 C   0  0  2  0  0  0  0  0  0  0  0  0
   -3.4983   32.4959    2.2303 O   0  0  0  0  0  0  0  0  0  0  0  0
    2.9266   34.9768   -0.9638 C   0  0  1  0  0  0  0  0  0  0  0  0
    1.7520   34.9642   -0.1677 O   0  0  0  0  0  0  0  0  0  0  0  0
    0.9688   37.6048    0.1388 C   0  0  1  0  0  0  0  0  0  0  0  0
    1.0820   36.9355   -1.1110 O   0  0  0  0  0  0  0  0  0  0  0  0
   -4.2821   33.4848    0.2144 C   0  0  1  0  0  0  0  0  0  0  0  0
   -5.4492   34.0301    0.7558 O   0  0  0  0  0  0  0  0  0  0  0  0
    4.1927   34.7657   -0.0856 C   0  0  2  0  0  0  0  0  0  0  0  0
    4.2825   35.8166    0.8751 O   0  0  0  0  0  0  0  0  0  0  0  0
   -3.8566   34.3354   -0.9336 C   0  0  1  0  0  0  0  0  0  0  0  0
   -2.6911   33.7790   -1.4697 O   0  0  0  0  0  0  0  0  0  0  0  0
    5.4453   34.7880   -0.9865 C   0  0  1  0  0  0  0  0  0  0  0  0
    6.6273   34.5953   -0.1924 O   0  0  0  0  0  0  0  0  0  0  0  0
   -4.9230   34.3489   -2.0467 C   0  0  0  0  0  0  0  0  0  0  0  0
   -4.4570   35.1433   -3.1315 O   0  0  0  0  0  0  0  0  0  0  0  0
    6.7993   31.7239   -4.0103 N   0  0  0  0  0  0  0  0  0  0  0  0
    0.5088   32.2375   -2.1825 N   0  0  0  0  0  0  0  0  0  0  0  0
  1  2  1  0  0  0  0
  1 39  1  0  0  0  0
  3  4  1  0  0  0  0
  5  6  1  0  0  0  0
  5 40  1  0  0  0  0
  9 10  1  6  0  0  0
  9 14  1  0  0  0  0
  9 35  1  0  0  0  0
 10  1  1  0  0  0  0
 11 16  1  0  0  0  0
 11 28  1  0  0  0  0
 11 26  1  1  0  0  0
 12 17  1  0  0  0  0
 12 34  1  0  0  0  0
 12 13  1  1  0  0  0
 14 15  1  6  0  0  0
 14 19  1  0  0  0  0
 16 13  1  6  0  0  0
 16 21  1  0  0  0  0
 17 18  1  1  0  0  0
 17 23  1  0  0  0  0
 18  8  1  0  0  0  0
 19 20  1  6  0  0  0
 19 25  1  0  0  0  0
 20  5  1  0  0  0  0
 21  3  1  1  0  0  0
 21 22  1  0  0  0  0
 21 27  1  0  0  0  0
 23 24  1  1  0  0  0
 23 29  1  0  0  0  0
 25 26  1  1  0  0  0
 25 31  1  0  0  0  0
 27  7  1  6  0  0  0
 27 28  1  0  0  0  0
 29 30  1  1  0  0  0
 29 33  1  0  0  0  0
 31 32  1  1  0  0  0
 31 35  1  0  0  0  0
 33 34  1  0  0  0  0
 33 37  1  6  0  0  0
 35 36  1  1  0  0  0
 37 38  1  0  0  0  0
M  END
>  <CHROM.1>
-108.00816860,-89.25370498,-172.58283866,74.78278136,75.34055673,-105.78402233
91.68146886,-108.65072475,-62.36573243,-80.14939097,-178.49897996,0.84845715
34.48932594,-0.77235905,0.26867231,-0.11773473,-2.40027585

>  <Name>
1nta_lig

>  <RI>
0

>  <Rbt.Current_Directory>
/home/itssahil/PROJECTS/Mol_Feturizer/New_Systems/rnas/1nta

>  <Rbt.Executable>
rbdock ($Id: //depot/dev/client3/rdock/2013.1/src/exe/rbdock.cxx#4 $)

>  <Rbt.Library>
libRbt.so (2013.1, Build901 2013/11/27)

>  <Rbt.Parameter_File>
/export/apps/rDock/src/rDock_2013.1_src/data/scripts/dock_solv.prm

>  <Rbt.Receptor>
prm/pocket_docking_6.prm

>  <SCORE>
-22.6672

>  <SCORE.INTER>
-0.506659

>  <SCORE.INTER.CONST>
1

>  <SCORE.INTER.POLAR>
-1.02711

>  <SCORE.INTER.ROT>
11

>  <SCORE.INTER.SOLV>
20.4199

>  <SCORE.INTER.VDW>
-14.654

>  <SCORE.INTER.norm>
-0.0126665

>  <SCORE.INTRA>
-22.1605

>  <SCORE.INTRA.DIHEDRAL>
-10.7557

>  <SCORE.INTRA.DIHEDRAL.0>
19.0336

>  <SCORE.INTRA.POLAR>
0

>  <SCORE.INTRA.POLAR.0>
0

>  <SCORE.INTRA.REPUL>
0

>  <SCORE.INTRA.REPUL.0>
0

>  <SCORE.INTRA.SOLV>
-0.634638

>  <SCORE.INTRA.SOLV.lig_0>
-97.5861

>  <SCORE.INTRA.VDW>
-16.4653

>  <SCORE.INTRA.VDW.0>
11.7669

>  <SCORE.INTRA.norm>
-0.554013

>  <SCORE.RESTR>
0

>  <SCORE.RESTR.CAVITY>
0

>  <SCORE.RESTR.norm>
0

>  <SCORE.SYSTEM>
0

>  <SCORE.SYSTEM.CONST>
0

>  <SCORE.SYSTEM.DIHEDRAL>
0

>  <SCORE.SYSTEM.SOLV>
0

>  <SCORE.SYSTEM.norm>
0

>  <SCORE.heavy>
40

>  <SCORE.norm>
-0.566679

>  <RMSD>
5.027

$$$$
1nta_lig
 OpenBabel11021811403D
libRbt.so/2013.1/901 2013/11/27
 40 42  0  0  0  0  0  0  0  0999 V2000
    7.0693   32.2577   -3.2317 C   0  0  0  0  0  0  0  0  0  0  0  0
    8.2400   31.7720   -3.0481 N   0  0  0  0  0  0  0  0  0  0  0  0
   -0.4571   37.3604   -0.6443 C   0  0  0  0  0  0  0  0  0  0  0  0
   -1.6648   37.3515   -0.5514 O   0  0  0  0  0  0  0  0  0  0  0  0
    1.2547   34.3052   -2.7948 C   0  0  0  0  0  0  0  0  0  0  0  0
    0.3932   33.7511   -1.9820 N   0  0  0  0  0  0  0  0  0  0  0  0
   -0.5745   36.9455    2.6535 C   0  0  0  0  0  0  0  0  0  0  0  0
    2.8731   40.6177   -3.8915 C   0  0  0  0  0  0  0  0  0  0  0  0
    5.6930   33.6402   -1.8920 C   0  0  2  0  0  0  0  0  0  0  0  0
    6.8938   33.5001   -2.8071 N   0  0  0  0  0  0  0  0  0  0  0  0
    2.5633   36.7990    0.9147 C   0  0  2  0  0  0  0  0  0  0  0  0
    3.5519   38.8212   -1.0777 C   0  0  1  0  0  0  0  0  0  0  0  0
    2.5203   38.8825   -0.1561 O   0  0  0  0  0  0  0  0  0  0  0  0
    4.5313   34.3174   -2.6436 C   0  0  1  0  0  0  0  0  0  0  0  0
    4.1670   33.4675   -3.6891 O   0  0  0  0  0  0  0  0  0  0  0  0
    1.8587   37.7417   -0.0548 C   0  0  2  0  0  0  0  0  0  0  0  0
    3.8142   40.1001   -1.8423 C   0  0  1  0  0  0  0  0  0  0  0  0
    2.6053   40.5130   -2.4669 N   0  0  0  0  0  0  0  0  0  0  0  0
    3.2935   34.5069   -1.7566 C   0  0  2  0  0  0  0  0  0  0  0  0
    2.1561   35.1609   -2.4470 N   0  0  0  0  0  0  0  0  0  0  0  0
    0.4898   37.7146    0.4708 C   0  0  1  0  0  0  0  0  0  0  0  0
    0.2198   39.0078    1.0157 O   0  0  0  0  0  0  0  0  0  0  0  0
    4.2508   41.1086   -0.9947 C   0  0  2  0  0  0  0  0  0  0  0  0
    4.7504   42.1504   -1.7947 O   0  0  0  0  0  0  0  0  0  0  0  0
    3.6983   35.3480   -0.5563 C   0  0  1  0  0  0  0  0  0  0  0  0
    2.5513   35.5171    0.2620 O   0  0  0  0  0  0  0  0  0  0  0  0
    0.4225   36.7295    1.5574 C   0  0  1  0  0  0  0  0  0  0  0  0
    1.7519   36.6793    2.0605 O   0  0  0  0  0  0  0  0  0  0  0  0
    5.3441   40.5988   -0.0929 C   0  0  1  0  0  0  0  0  0  0  0  0
    5.5937   41.5496    0.9001 O   0  0  0  0  0  0  0  0  0  0  0  0
    4.8411   34.6457    0.2308 C   0  0  2  0  0  0  0  0  0  0  0  0
    5.1993   35.4441    1.3576 O   0  0  0  0  0  0  0  0  0  0  0  0
    4.9051   39.3363    0.5674 C   0  0  1  0  0  0  0  0  0  0  0  0
    4.6619   38.3915   -0.4343 O   0  0  0  0  0  0  0  0  0  0  0  0
    6.0675   34.4831   -0.6915 C   0  0  1  0  0  0  0  0  0  0  0  0
    7.1361   33.8361    0.0187 O   0  0  0  0  0  0  0  0  0  0  0  0
    6.0071   38.7713    1.4853 C   0  0  0  0  0  0  0  0  0  0  0  0
    5.4390   37.7979    2.3541 O   0  0  0  0  0  0  0  0  0  0  0  0
    6.1205   31.5845   -3.7875 N   0  0  0  0  0  0  0  0  0  0  0  0
    1.2547   33.9874   -4.0299 N   0  0  0  0  0  0  0  0  0  0  0  0
  1  2  1  0  0  0  0
  1 39  1  0  0  0  0
  3  4  1  0  0  0  0
  5  6  1  0  0  0  0
  5 40  1  0  0  0  0
  9 10  1  6  0  0  0
  9 14  1  0  0  0  0
  9 35  1  0  0  0  0
 10  1  1  0  0  0  0
 11 16  1  0  0  0  0
 11 28  1  0  0  0  0
 11 26  1  6  0  0  0
 12 17  1  0  0  0  0
 12 34  1  0  0  0  0
 12 13  1  1  0  0  0
 14 15  1  6  0  0  0
 14 19  1  0  0  0  0
 16 13  1  1  0  0  0
 16 21  1  0  0  0  0
 17 18  1  1  0  0  0
 17 23  1  0  0  0  0
 18  8  1  0  0  0  0
 19 20  1  6  0  0  0
 19 25  1  0  0  0  0
 20  5  1  0  0  0  0
 21  3  1  6  0  0  0
 21 22  1  0  0  0  0
 21 27  1  0  0  0  0
 23 24  1  6  0  0  0
 23 29  1  0  0  0  0
 25 26  1  1  0  0  0
 25 31  1  0  0  0  0
 27  7  1  1  0  0  0
 27 28  1  0  0  0  0
 29 30  1  1  0  0  0
 29 33  1  0  0  0  0
 31 32  1  1  0  0  0
 31 35  1  0  0  0  0
 33 34  1  0  0  0  0
 33 37  1  1  0  0  0
 35 36  1  1  0  0  0
 37 38  1  0  0  0  0
M  END
>  <CHROM.1>
-104.95044436,-127.46268457,89.18066838,145.77121677,84.44671306,-123.06111069
101.99269212,76.12882780,-174.44390358,-146.79273071,164.47740594,3.52736855
36.70512836,-0.79985673,-1.14710707,0.12962825,0.30777811

>  <Name>
1nta_lig

>  <RI>
0

>  <Rbt.Current_Directory>
/home/itssahil/PROJECTS/Mol_Feturizer/New_Systems/rnas/1nta

>  <Rbt.Executable>
rbdock ($Id: //depot/dev/client3/rdock/2013.1/src/exe/rbdock.cxx#4 $)

>  <Rbt.Library>
libRbt.so (2013.1, Build901 2013/11/27)

>  <Rbt.Parameter_File>
/export/apps/rDock/src/rDock_2013.1_src/data/scripts/dock_solv.prm

>  <Rbt.Receptor>
prm/pocket_docking_5.prm

>  <SCORE>
-32.7326

>  <SCORE.INTER>
-12.2961

>  <SCORE.INTER.CONST>
1

>  <SCORE.INTER.POLAR>
-1.52233

>  <SCORE.INTER.ROT>
11

>  <SCORE.INTER.SOLV>
26.7114

>  <SCORE.INTER.VDW>
-22.9601

>  <SCORE.INTER.norm>
-0.307403

>  <SCORE.INTRA>
-20.4683

>  <SCORE.INTRA.DIHEDRAL>
0.79127

>  <SCORE.INTRA.DIHEDRAL.0>
19.0336

>  <SCORE.INTRA.POLAR>
0

>  <SCORE.INTRA.POLAR.0>
0

>  <SCORE.INTRA.REPUL>
0

>  <SCORE.INTRA.REPUL.0>
0

>  <SCORE.INTRA.SOLV>
-3.82743

>  <SCORE.INTRA.SOLV.lig_0>
-97.5861

>  <SCORE.INTRA.VDW>
-18.9503

>  <SCORE.INTRA.VDW.0>
11.7669

>  <SCORE.INTRA.norm>
-0.511709

>  <SCORE.RESTR>
0.0318917

>  <SCORE.RESTR.CAVITY>
0.0318917

>  <SCORE.RESTR.norm>
0.000797291

>  <SCORE.SYSTEM>
0

>  <SCORE.SYSTEM.CONST>
0

>  <SCORE.SYSTEM.DIHEDRAL>
0

>  <SCORE.SYSTEM.SOLV>
0

>  <SCORE.SYSTEM.norm>
0

>  <SCORE.heavy>
40

>  <SCORE.norm>
-0.818315

>  <RMSD>
5.038

$$$$
1nta_lig
 OpenBabel11021811403D
libRbt.so/2013.1/901 2013/11/27
 40 42  0  0  0  0  0  0  0  0999 V2000
    8.1887   31.9954   -3.1503 C   0  0  0  0  0  0  0  0  0  0  0  0
    9.1798   31.6165   -2.4333 N   0  0  0  0  0  0  0  0  0  0  0  0
   -0.8594   33.9597    0.4776 C   0  0  0  0  0  0  0  0  0  0  0  0
   -1.4810   33.8876    1.5147 O   0  0  0  0  0  0  0  0  0  0  0  0
    1.8761   32.5680   -3.4447 C   0  0  0  0  0  0  0  0  0  0  0  0
    1.3058   32.0846   -2.3719 N   0  0  0  0  0  0  0  0  0  0  0  0
    0.3619   36.7232    1.8679 C   0  0  0  0  0  0  0  0  0  0  0  0
   -1.1106   32.7300   -5.6344 C   0  0  0  0  0  0  0  0  0  0  0  0
    6.3585   33.1242   -2.1619 C   0  0  2  0  0  0  0  0  0  0  0  0
    7.7012   33.1931   -2.8629 N   0  0  0  0  0  0  0  0  0  0  0  0
    1.7240   35.4860   -1.2151 C   0  0  2  0  0  0  0  0  0  0  0  0
    0.5125   35.1091   -3.6388 C   0  0  1  0  0  0  0  0  0  0  0  0
   -0.2282   35.4107   -2.5084 O   0  0  0  0  0  0  0  0  0  0  0  0
    5.2208   33.3575   -3.1739 C   0  0  1  0  0  0  0  0  0  0  0  0
    5.2690   32.3103   -4.0954 O   0  0  0  0  0  0  0  0  0  0  0  0
    0.3149   34.9337   -1.4008 C   0  0  2  0  0  0  0  0  0  0  0  0
   -0.2961   34.7551   -4.8675 C   0  0  1  0  0  0  0  0  0  0  0  0
   -1.1749   33.6857   -4.5415 N   0  0  0  0  0  0  0  0  0  0  0  0
    3.8359   33.3220   -2.5141 C   0  0  2  0  0  0  0  0  0  0  0  0
    2.7160   33.5478   -3.4591 N   0  0  0  0  0  0  0  0  0  0  0  0
   -0.2770   35.2259   -0.0911 C   0  0  1  0  0  0  0  0  0  0  0  0
   -1.2708   36.2331   -0.2908 O   0  0  0  0  0  0  0  0  0  0  0  0
   -1.0467   35.8389   -5.3013 C   0  0  2  0  0  0  0  0  0  0  0  0
   -1.5270   35.5368   -6.5870 O   0  0  0  0  0  0  0  0  0  0  0  0
    3.8006   34.3922   -1.4346 C   0  0  1  0  0  0  0  0  0  0  0  0
    2.5196   34.3525   -0.8255 O   0  0  0  0  0  0  0  0  0  0  0  0
    0.7668   35.7707    0.7859 C   0  0  1  0  0  0  0  0  0  0  0  0
    1.6977   36.3625   -0.1120 O   0  0  0  0  0  0  0  0  0  0  0  0
   -0.1921   37.0777   -5.3621 C   0  0  1  0  0  0  0  0  0  0  0  0
   -1.0159   38.1879   -5.5649 O   0  0  0  0  0  0  0  0  0  0  0  0
    4.9201   34.1346   -0.3862 C   0  0  2  0  0  0  0  0  0  0  0  0
    4.8642   35.1417    0.6227 O   0  0  0  0  0  0  0  0  0  0  0  0
    0.5268   37.2580   -4.0686 C   0  0  1  0  0  0  0  0  0  0  0  0
    1.3504   36.1441   -3.8778 O   0  0  0  0  0  0  0  0  0  0  0  0
    6.2940   34.1880   -1.0867 C   0  0  1  0  0  0  0  0  0  0  0  0
    7.3431   33.9529   -0.1332 O   0  0  0  0  0  0  0  0  0  0  0  0
    1.4295   38.5072   -4.0985 C   0  0  0  0  0  0  0  0  0  0  0  0
    0.6967   39.6258   -3.6119 O   0  0  0  0  0  0  0  0  0  0  0  0
    7.6919   31.2618   -4.0869 N   0  0  0  0  0  0  0  0  0  0  0  0
    1.6296   32.0466   -4.5822 N   0  0  0  0  0  0  0  0  0  0  0  0
  1  2  1  0  0  0  0
  1 39  1  0  0  0  0
  3  4  1  0  0  0  0
  5  6  1  0  0  0  0
  5 40  1  0  0  0  0
  9 10  1  6  0  0  0
  9 14  1  0  0  0  0
  9 35  1  0  0  0  0
 10  1  1  0  0  0  0
 11 16  1  0  0  0  0
 11 28  1  0  0  0  0
 11 26  1  1  0  0  0
 12 17  1  0  0  0  0
 12 34  1  0  0  0  0
 12 13  1  1  0  0  0
 14 15  1  6  0  0  0
 14 19  1  0  0  0  0
 16 13  1  6  0  0  0
 16 21  1  0  0  0  0
 17 18  1  1  0  0  0
 17 23  1  0  0  0  0
 18  8  1  0  0  0  0
 19 20  1  6  0  0  0
 19 25  1  0  0  0  0
 20  5  1  0  0  0  0
 21  3  1  1  0  0  0
 21 22  1  0  0  0  0
 21 27  1  0  0  0  0
 23 24  1  6  0  0  0
 23 29  1  0  0  0  0
 25 26  1  1  0  0  0
 25 31  1  0  0  0  0
 27  7  1  1  0  0  0
 27 28  1  0  0  0  0
 29 30  1  1  0  0  0
 29 33  1  0  0  0  0
 31 32  1  1  0  0  0
 31 35  1  0  0  0  0
 33 34  1  0  0  0  0
 33 37  1  6  0  0  0
 35 36  1  1  0  0  0
 37 38  1  0  0  0  0
M  END
>  <CHROM.1>
-98.88889822,-107.26441068,140.86232585,141.23026848,58.53111553,-135.58237039
122.80819593,52.69490972,-175.86349157,-107.34609948,91.55781700,2.19717634
34.66635527,-2.47885900,-0.06319710,0.43125421,-1.73164622

>  <Name>
1nta_lig

>  <RI>
0

>  <Rbt.Current_Directory>
/home/itssahil/PROJECTS/Mol_Feturizer/New_Systems/rnas/1nta

>  <Rbt.Executable>
rbdock ($Id: //depot/dev/client3/rdock/2013.1/src/exe/rbdock.cxx#4 $)

>  <Rbt.Library>
libRbt.so (2013.1, Build901 2013/11/27)

>  <Rbt.Parameter_File>
/export/apps/rDock/src/rDock_2013.1_src/data/scripts/dock_solv.prm

>  <Rbt.Receptor>
prm/pocket_docking_3.prm

>  <SCORE>
-19.2795

>  <SCORE.INTER>
-7.6274

>  <SCORE.INTER.CONST>
1

>  <SCORE.INTER.POLAR>
-1.43264

>  <SCORE.INTER.ROT>
11

>  <SCORE.INTER.SOLV>
26.0277

>  <SCORE.INTER.VDW>
-19.9187

>  <SCORE.INTER.norm>
-0.190685

>  <SCORE.INTRA>
-11.7767

>  <SCORE.INTRA.DIHEDRAL>
5.01078

>  <SCORE.INTRA.DIHEDRAL.0>
19.0336

>  <SCORE.INTRA.POLAR>
0

>  <SCORE.INTRA.POLAR.0>
0

>  <SCORE.INTRA.REPUL>
0

>  <SCORE.INTRA.REPUL.0>
0

>  <SCORE.INTRA.SOLV>
4.13489

>  <SCORE.INTRA.SOLV.lig_0>
-97.5861

>  <SCORE.INTRA.VDW>
-16.3495

>  <SCORE.INTRA.VDW.0>
11.7669

>  <SCORE.INTRA.norm>
-0.294417

>  <SCORE.RESTR>
0.124552

>  <SCORE.RESTR.CAVITY>
0.124552

>  <SCORE.RESTR.norm>
0.00311381

>  <SCORE.SYSTEM>
0

>  <SCORE.SYSTEM.CONST>
0

>  <SCORE.SYSTEM.DIHEDRAL>
0

>  <SCORE.SYSTEM.SOLV>
0

>  <SCORE.SYSTEM.norm>
0

>  <SCORE.heavy>
40

>  <SCORE.norm>
-0.481988

>  <RMSD>
5.056

$$$$
1nta_lig
 OpenBabel11021811403D
libRbt.so/2013.1/901 2013/11/27
 40 42  0  0  0  0  0  0  0  0999 V2000
    7.1695   32.5081   -2.9070 C   0  0  0  0  0  0  0  0  0  0  0  0
    7.8540   32.1957   -1.8707 N   0  0  0  0  0  0  0  0  0  0  0  0
   -0.2030   36.8971    2.3405 C   0  0  0  0  0  0  0  0  0  0  0  0
   -1.0631   36.3908    3.0270 O   0  0  0  0  0  0  0  0  0  0  0  0
    1.0641   32.9758   -3.0684 C   0  0  0  0  0  0  0  0  0  0  0  0
    0.7177   31.9922   -2.2796 N   0  0  0  0  0  0  0  0  0  0  0  0
    1.0075   39.1709    0.2367 C   0  0  0  0  0  0  0  0  0  0  0  0
   -0.0988   32.3398    1.6703 C   0  0  0  0  0  0  0  0  0  0  0  0
    5.3549   33.6884   -1.9506 C   0  0  2  0  0  0  0  0  0  0  0  0
    6.5684   33.6875   -2.8597 N   0  0  0  0  0  0  0  0  0  0  0  0
    0.7087   35.7385   -0.7732 C   0  0  2  0  0  0  0  0  0  0  0  0
   -1.6783   34.0394   -0.5844 C   0  0  1  0  0  0  0  0  0  0  0  0
   -1.5733   35.4023   -0.3627 O   0  0  0  0  0  0  0  0  0  0  0  0
    4.0719   33.8810   -2.7811 C   0  0  1  0  0  0  0  0  0  0  0  0
    3.9617   32.7781   -3.6294 O   0  0  0  0  0  0  0  0  0  0  0  0
   -0.4394   35.7364    0.2304 C   0  0  2  0  0  0  0  0  0  0  0  0
   -1.9813   33.2053    0.6409 C   0  0  1  0  0  0  0  0  0  0  0  0
   -0.9995   33.4797    1.6323 N   0  0  0  0  0  0  0  0  0  0  0  0
    2.8104   33.9135   -1.9080 C   0  0  2  0  0  0  0  0  0  0  0  0
    1.5557   34.1024   -2.6748 N   0  0  0  0  0  0  0  0  0  0  0  0
   -0.2778   37.0578    0.8458 C   0  0  1  0  0  0  0  0  0  0  0  0
   -1.3969   37.8512    0.4452 O   0  0  0  0  0  0  0  0  0  0  0  0
   -3.2354   33.5066    1.1531 C   0  0  2  0  0  0  0  0  0  0  0  0
   -3.5657   32.5081    2.0852 O   0  0  0  0  0  0  0  0  0  0  0  0
    2.9589   35.0488   -0.9075 C   0  0  1  0  0  0  0  0  0  0  0  0
    1.7918   35.0720   -0.1007 O   0  0  0  0  0  0  0  0  0  0  0  0
    0.9437   37.6771    0.3167 C   0  0  1  0  0  0  0  0  0  0  0  0
    1.1092   37.0763   -0.9618 O   0  0  0  0  0  0  0  0  0  0  0  0
   -4.2615   33.5244    0.0507 C   0  0  1  0  0  0  0  0  0  0  0  0
   -5.4523   34.0605    0.5476 O   0  0  0  0  0  0  0  0  0  0  0  0
    4.2295   34.8345   -0.0367 C   0  0  2  0  0  0  0  0  0  0  0  0
    4.3457   35.9030    0.9015 O   0  0  0  0  0  0  0  0  0  0  0  0
   -3.7873   34.3915   -1.0653 C   0  0  1  0  0  0  0  0  0  0  0  0
   -2.5982   33.8441   -1.5571 O   0  0  0  0  0  0  0  0  0  0  0  0
    5.4738   34.8176   -0.9493 C   0  0  1  0  0  0  0  0  0  0  0  0
    6.6599   34.6214   -0.1622 O   0  0  0  0  0  0  0  0  0  0  0  0
   -4.8035   34.4195   -2.2241 C   0  0  0  0  0  0  0  0  0  0  0  0
   -4.9641   33.1020   -2.7375 O   0  0  0  0  0  0  0  0  0  0  0  0
    7.0654   31.7280   -3.9282 N   0  0  0  0  0  0  0  0  0  0  0  0
    0.9456   32.8462   -4.3316 N   0  0  0  0  0  0  0  0  0  0  0  0
  1  2  1  0  0  0  0
  1 39  1  0  0  0  0
  3  4  1  0  0  0  0
  5  6  1  0  0  0  0
  5 40  1  0  0  0  0
  9 10  1  6  0  0  0
  9 14  1  0  0  0  0
  9 35  1  0  0  0  0
 10  1  1  0  0  0  0
 11 16  1  0  0  0  0
 11 28  1  0  0  0  0
 11 26  1  1  0  0  0
 12 17  1  0  0  0  0
 12 34  1  0  0  0  0
 12 13  1  1  0  0  0
 14 15  1  6  0  0  0
 14 19  1  0  0  0  0
 16 13  1  6  0  0  0
 16 21  1  0  0  0  0
 17 18  1  1  0  0  0
 17 23  1  0  0  0  0
 18  8  1  0  0  0  0
 19 20  1  6  0  0  0
 19 25  1  0  0  0  0
 20  5  1  0  0  0  0
 21  3  1  1  0  0  0
 21 22  1  0  0  0  0
 21 27  1  0  0  0  0
 23 24  1  1  0  0  0
 23 29  1  0  0  0  0
 25 26  1  1  0  0  0
 25 31  1  0  0  0  0
 27  7  1  6  0  0  0
 27 28  1  0  0  0  0
 29 30  1  1  0  0  0
 29 33  1  0  0  0  0
 31 32  1  1  0  0  0
 31 35  1  0  0  0  0
 33 34  1  0  0  0  0
 33 37  1  6  0  0  0
 35 36  1  1  0  0  0
 37 38  1  0  0  0  0
M  END
>  <CHROM.1>
-112.93681503,-74.45615115,-177.61558025,74.89867398,77.83272341,-105.05648868
88.11678175,58.73015694,-58.64083454,-80.56127622,-61.19096867,0.84582059
34.46721617,-0.73421545,0.23507901,-0.12115516,-2.41626079

>  <Name>
1nta_lig

>  <RI>
0

>  <Rbt.Current_Directory>
/home/itssahil/PROJECTS/Mol_Feturizer/New_Systems/rnas/1nta

>  <Rbt.Executable>
rbdock ($Id: //depot/dev/client3/rdock/2013.1/src/exe/rbdock.cxx#4 $)

>  <Rbt.Library>
libRbt.so (2013.1, Build901 2013/11/27)

>  <Rbt.Parameter_File>
/export/apps/rDock/src/rDock_2013.1_src/data/scripts/dock_solv.prm

>  <Rbt.Receptor>
prm/pocket_docking_7.prm

>  <SCORE>
-22.3064

>  <SCORE.INTER>
-0.083903

>  <SCORE.INTER.CONST>
1

>  <SCORE.INTER.POLAR>
-1.01995

>  <SCORE.INTER.ROT>
11

>  <SCORE.INTER.SOLV>
20.5732

>  <SCORE.INTER.VDW>
-14.4472

>  <SCORE.INTER.norm>
-0.00209758

>  <SCORE.INTRA>
-22.2225

>  <SCORE.INTRA.DIHEDRAL>
-10.13

>  <SCORE.INTRA.DIHEDRAL.0>
19.0336

>  <SCORE.INTRA.POLAR>
0

>  <SCORE.INTRA.POLAR.0>
0

>  <SCORE.INTRA.REPUL>
0

>  <SCORE.INTRA.REPUL.0>
0

>  <SCORE.INTRA.SOLV>
-1.24704

>  <SCORE.INTRA.SOLV.lig_0>
-97.5861

>  <SCORE.INTRA.VDW>
-16.534

>  <SCORE.INTRA.VDW.0>
11.7669

>  <SCORE.INTRA.norm>
-0.555562

>  <SCORE.RESTR>
0

>  <SCORE.RESTR.CAVITY>
0

>  <SCORE.RESTR.norm>
0

>  <SCORE.SYSTEM>
0

>  <SCORE.SYSTEM.CONST>
0

>  <SCORE.SYSTEM.DIHEDRAL>
0

>  <SCORE.SYSTEM.SOLV>
0

>  <SCORE.SYSTEM.norm>
0

>  <SCORE.heavy>
40

>  <SCORE.norm>
-0.557659

>  <RMSD>
5.058

$$$$
1nta_lig
 OpenBabel11021811403D
libRbt.so/2013.1/901 2013/11/27
 40 42  0  0  0  0  0  0  0  0999 V2000
   11.3384   31.3300   -2.6710 C   0  0  0  0  0  0  0  0  0  0  0  0
   11.9488   31.4346   -1.5501 N   0  0  0  0  0  0  0  0  0  0  0  0
    1.9218   34.2078   -2.9937 C   0  0  0  0  0  0  0  0  0  0  0  0
    2.1056   35.1754   -3.6988 O   0  0  0  0  0  0  0  0  0  0  0  0
    5.6286   31.7702   -5.4748 C   0  0  0  0  0  0  0  0  0  0  0  0
    5.0553   32.0178   -6.6237 N   0  0  0  0  0  0  0  0  0  0  0  0
    0.9648   32.2732   -0.4633 C   0  0  0  0  0  0  0  0  0  0  0  0
    7.5633   35.3885    0.6970 C   0  0  0  0  0  0  0  0  0  0  0  0
    9.0528   31.9421   -2.6236 C   0  0  2  0  0  0  0  0  0  0  0  0
   10.4879   32.3062   -2.9510 N   0  0  0  0  0  0  0  0  0  0  0  0
    4.3959   33.2812   -0.7826 C   0  0  2  0  0  0  0  0  0  0  0  0
    4.4907   35.3846    0.4726 C   0  0  1  0  0  0  0  0  0  0  0  0
    4.1212   35.6071   -0.8433 O   0  0  0  0  0  0  0  0  0  0  0  0
    8.1125   32.4469   -3.7344 C   0  0  1  0  0  0  0  0  0  0  0  0
    8.4610   31.7732   -4.9060 O   0  0  0  0  0  0  0  0  0  0  0  0
    3.7819   34.4945   -1.4726 C   0  0  2  0  0  0  0  0  0  0  0  0
    5.4940   36.3655    1.0384 C   0  0  1  0  0  0  0  0  0  0  0  0
    6.6364   36.3873    0.1917 N   0  0  0  0  0  0  0  0  0  0  0  0
    6.6403   32.1261   -3.4437 C   0  0  2  0  0  0  0  0  0  0  0  0
    5.7052   32.6022   -4.4911 N   0  0  0  0  0  0  0  0  0  0  0  0
    2.3766   34.0852   -1.5640 C   0  0  1  0  0  0  0  0  0  0  0  0
    1.6309   34.9325   -0.6876 O   0  0  0  0  0  0  0  0  0  0  0  0
    4.9592   37.6443    1.1065 C   0  0  2  0  0  0  0  0  0  0  0  0
    5.8181   38.4232    1.9005 O   0  0  0  0  0  0  0  0  0  0  0  0
    6.2711   32.7691   -2.1163 C   0  0  1  0  0  0  0  0  0  0  0  0
    4.9104   32.4664   -1.8508 O   0  0  0  0  0  0  0  0  0  0  0  0
    2.2572   32.7022   -1.0858 C   0  0  1  0  0  0  0  0  0  0  0  0
    3.3477   32.5534   -0.1849 O   0  0  0  0  0  0  0  0  0  0  0  0
    3.5904   37.6073    1.7338 C   0  0  1  0  0  0  0  0  0  0  0  0
    2.9828   38.8550    1.5714 O   0  0  0  0  0  0  0  0  0  0  0  0
    7.1896   32.2284   -0.9837 C   0  0  2  0  0  0  0  0  0  0  0  0
    6.8213   32.8348    0.2540 O   0  0  0  0  0  0  0  0  0  0  0  0
    2.7496   36.5843    1.0490 C   0  0  1  0  0  0  0  0  0  0  0  0
    3.3644   35.3402    1.2209 O   0  0  0  0  0  0  0  0  0  0  0  0
    8.6567   32.5792   -1.3086 C   0  0  1  0  0  0  0  0  0  0  0  0
    9.5222   32.0881   -0.2720 O   0  0  0  0  0  0  0  0  0  0  0  0
    1.3442   36.5021    1.6771 C   0  0  0  0  0  0  0  0  0  0  0  0
    0.3684   36.7749    0.6779 O   0  0  0  0  0  0  0  0  0  0  0  0
   11.5316   30.3401   -3.4742 N   0  0  0  0  0  0  0  0  0  0  0  0
    6.1442   30.6240   -5.2586 N   0  0  0  0  0  0  0  0  0  0  0  0
  1  2  1  0  0  0  0
  1 39  1  0  0  0  0
  3  4  1  0  0  0  0
  5  6  1  0  0  0  0
  5 40  1  0  0  0  0
  9 10  1  6  0  0  0
  9 14  1  0  0  0  0
  9 35  1  0  0  0  0
 10  1  1  0  0  0  0
 11 16  1  0  0  0  0
 11 28  1  0  0  0  0
 11 26  1  6  0  0  0
 12 17  1  0  0  0  0
 12 34  1  0  0  0  0
 12 13  1  6  0  0  0
 14 15  1  6  0  0  0
 14 19  1  0  0  0  0
 16 13  1  1  0  0  0
 16 21  1  0  0  0  0
 17 18  1  6  0  0  0
 17 23  1  0  0  0  0
 18  8  1  0  0  0  0
 19 20  1  6  0  0  0
 19 25  1  0  0  0  0
 20  5  1  0  0  0  0
 21  3  1  6  0  0  0
 21 22  1  0  0  0  0
 21 27  1  0  0  0  0
 23 24  1  1  0  0  0
 23 29  1  0  0  0  0
 25 26  1  1  0  0  0
 25 31  1  0  0  0  0
 27  7  1  1  0  0  0
 27 28  1  0  0  0  0
 29 30  1  6  0  0  0
 29 33  1  0  0  0  0
 31 32  1  1  0  0  0
 31 35  1  0  0  0  0
 33 34  1  0  0  0  0
 33 37  1  1  0  0  0
 35 36  1  1  0  0  0
 37 38  1  0  0  0  0
M  END
>  <CHROM.1>
-138.94642635,-97.99748898,92.43793034,150.87999188,-22.11967391,-90.82816608
83.12804550,-168.63808242,-48.03189353,-166.73560533,121.38443306,5.44441963
33.94246734,-1.31128789,-0.73951400,-0.17443870,0.87129865

>  <Name>
1nta_lig

>  <RI>
1.05895e+07

>  <Rbt.Current_Directory>
/home/itssahil/PROJECTS/Mol_Feturizer/New_Systems/rnas/1nta

>  <Rbt.Executable>
rbdock ($Id: //depot/dev/client3/rdock/2013.1/src/exe/rbdock.cxx#4 $)

>  <Rbt.Library>
libRbt.so (2013.1, Build901 2013/11/27)

>  <Rbt.Parameter_File>
/export/apps/rDock/src/rDock_2013.1_src/data/scripts/dock_solv.prm

>  <Rbt.Receptor>
prm/blind_docking_100.prm

>  <SCORE>
-18.7944

>  <SCORE.INTER>
-16.8859

>  <SCORE.INTER.CONST>
1

>  <SCORE.INTER.POLAR>
-3.14537

>  <SCORE.INTER.ROT>
11

>  <SCORE.INTER.SOLV>
42.0231

>  <SCORE.INTER.VDW>
-25.7137

>  <SCORE.INTER.norm>
-0.422147

>  <SCORE.INTRA>
-1.99445

>  <SCORE.INTRA.DIHEDRAL>
3.25662

>  <SCORE.INTRA.DIHEDRAL.0>
19.0336

>  <SCORE.INTRA.POLAR>
0

>  <SCORE.INTRA.POLAR.0>
0

>  <SCORE.INTRA.REPUL>
0

>  <SCORE.INTRA.REPUL.0>
0

>  <SCORE.INTRA.SOLV>
-2.51304

>  <SCORE.INTRA.SOLV.lig_0>
-97.5861

>  <SCORE.INTRA.VDW>
-2.36624

>  <SCORE.INTRA.VDW.0>
11.7669

>  <SCORE.INTRA.norm>
-0.0498612

>  <SCORE.RESTR>
0.0859386

>  <SCORE.RESTR.CAVITY>
0.0859386

>  <SCORE.RESTR.norm>
0.00214846

>  <SCORE.SYSTEM>
0

>  <SCORE.SYSTEM.CONST>
0

>  <SCORE.SYSTEM.DIHEDRAL>
0

>  <SCORE.SYSTEM.SOLV>
0

>  <SCORE.SYSTEM.norm>
0

>  <SCORE.heavy>
40

>  <SCORE.norm>
-0.46986

>  <RMSD>
5.093

$$$$
1nta_lig
 OpenBabel11021811403D
libRbt.so/2013.1/901 2013/11/27
 40 42  0  0  0  0  0  0  0  0999 V2000
    5.4840   33.4636   -2.3006 C   0  0  0  0  0  0  0  0  0  0  0  0
    5.7524   32.2207   -2.4534 N   0  0  0  0  0  0  0  0  0  0  0  0
   -4.3098   32.9662   -0.4547 C   0  0  0  0  0  0  0  0  0  0  0  0
   -5.0775   32.0413   -0.6041 O   0  0  0  0  0  0  0  0  0  0  0  0
   -0.3187   34.8752   -3.4572 C   0  0  0  0  0  0  0  0  0  0  0  0
   -1.2686   33.9823   -3.5590 N   0  0  0  0  0  0  0  0  0  0  0  0
   -3.0678   30.9852    1.9106 C   0  0  0  0  0  0  0  0  0  0  0  0
   -6.4238   36.4262    3.0121 C   0  0  0  0  0  0  0  0  0  0  0  0
    3.4191   33.3975   -1.1462 C   0  0  2  0  0  0  0  0  0  0  0  0
    4.8856   33.7825   -1.1627 N   0  0  0  0  0  0  0  0  0  0  0  0
   -1.3350   33.9812    0.9555 C   0  0  2  0  0  0  0  0  0  0  0  0
   -4.1456   36.2162    0.8118 C   0  0  1  0  0  0  0  0  0  0  0  0
   -3.0365   35.5525    1.3088 O   0  0  0  0  0  0  0  0  0  0  0  0
    2.5702   34.5210   -1.7707 C   0  0  1  0  0  0  0  0  0  0  0  0
    2.9600   34.6372   -3.1059 O   0  0  0  0  0  0  0  0  0  0  0  0
   -2.7408   34.4649    0.6167 C   0  0  2  0  0  0  0  0  0  0  0  0
   -4.7155   37.2898    1.7127 C   0  0  1  0  0  0  0  0  0  0  0  0
   -4.9998   36.7151    2.9820 N   0  0  0  0  0  0  0  0  0  0  0  0
    1.0707   34.1949   -1.7594 C   0  0  2  0  0  0  0  0  0  0  0  0
    0.2220   35.2578   -2.3495 N   0  0  0  0  0  0  0  0  0  0  0  0
   -3.5136   33.2313    0.7949 C   0  0  1  0  0  0  0  0  0  0  0  0
   -4.3515   33.4178    1.9373 O   0  0  0  0  0  0  0  0  0  0  0  0
   -3.8138   38.3312    1.8814 C   0  0  2  0  0  0  0  0  0  0  0  0
   -4.5070   39.4036    2.4684 O   0  0  0  0  0  0  0  0  0  0  0  0
    0.6495   33.9642   -0.3168 C   0  0  1  0  0  0  0  0  0  0  0  0
   -0.7364   33.6597   -0.3125 O   0  0  0  0  0  0  0  0  0  0  0  0
   -2.5840   32.1301    1.0756 C   0  0  1  0  0  0  0  0  0  0  0  0
   -1.4590   32.7701    1.6651 O   0  0  0  0  0  0  0  0  0  0  0  0
   -3.2554   38.7620    0.5505 C   0  0  1  0  0  0  0  0  0  0  0  0
   -2.1855   39.6340    0.7680 O   0  0  0  0  0  0  0  0  0  0  0  0
    1.4738   32.8004    0.3037 C   0  0  2  0  0  0  0  0  0  0  0  0
    1.0575   32.5925    1.6524 O   0  0  0  0  0  0  0  0  0  0  0  0
   -2.7472   37.5730   -0.1914 C   0  0  1  0  0  0  0  0  0  0  0  0
   -3.8258   36.7096   -0.4067 O   0  0  0  0  0  0  0  0  0  0  0  0
    2.9716   33.1711    0.2822 C   0  0  1  0  0  0  0  0  0  0  0  0
    3.7510   32.1073    0.8531 O   0  0  0  0  0  0  0  0  0  0  0  0
   -2.1846   37.9711   -1.5703 C   0  0  0  0  0  0  0  0  0  0  0  0
   -0.9769   38.7019   -1.3897 O   0  0  0  0  0  0  0  0  0  0  0  0
    5.7705   34.3480   -3.1938 N   0  0  0  0  0  0  0  0  0  0  0  0
    0.1553   35.4181   -4.5093 N   0  0  0  0  0  0  0  0  0  0  0  0
  1  2  1  0  0  0  0
  1 39  1  0  0  0  0
  3  4  1  0  0  0  0
  5  6  1  0  0  0  0
  5 40  1  0  0  0  0
  9 10  1  1  0  0  0
  9 14  1  0  0  0  0
  9 35  1  0  0  0  0
 10  1  1  0  0  0  0
 11 16  1  0  0  0  0
 11 28  1  0  0  0  0
 11 26  1  6  0  0  0
 12 17  1  0  0  0  0
 12 34  1  0  0  0  0
 12 13  1  1  0  0  0
 14 15  1  6  0  0  0
 14 19  1  0  0  0  0
 16 13  1  1  0  0  0
 16 21  1  0  0  0  0
 17 18  1  1  0  0  0
 17 23  1  0  0  0  0
 18  8  1  0  0  0  0
 19 20  1  1  0  0  0
 19 25  1  0  0  0  0
 20  5  1  0  0  0  0
 21  3  1  6  0  0  0
 21 22  1  0  0  0  0
 21 27  1  0  0  0  0
 23 24  1  6  0  0  0
 23 29  1  0  0  0  0
 25 26  1  6  0  0  0
 25 31  1  0  0  0  0
 27  7  1  1  0  0  0
 27 28  1  0  0  0  0
 29 30  1  1  0  0  0
 29 33  1  0  0  0  0
 31 32  1  1  0  0  0
 31 35  1  0  0  0  0
 33 34  1  0  0  0  0
 33 37  1  6  0  0  0
 35 36  1  6  0  0  0
 37 38  1  0  0  0  0
M  END
>  <CHROM.1>
-86.29906151,-75.51268500,145.04841658,167.55950019,165.08714513,-99.28410466
111.89072756,70.49324694,-177.80936272,-155.39235991,69.85613140,-0.92749002
34.85136054,-0.18095122,-0.21425119,0.45475281,-0.29605592

>  <Name>
1nta_lig

>  <RI>
0

>  <Rbt.Current_Directory>
/home/itssahil/PROJECTS/Mol_Feturizer/New_Systems/rnas/1nta

>  <Rbt.Executable>
rbdock ($Id: //depot/dev/client3/rdock/2013.1/src/exe/rbdock.cxx#4 $)

>  <Rbt.Library>
libRbt.so (2013.1, Build901 2013/11/27)

>  <Rbt.Parameter_File>
/export/apps/rDock/src/rDock_2013.1_src/data/scripts/dock_solv.prm

>  <Rbt.Receptor>
prm/pocket_docking_6.prm

>  <SCORE>
-16.9557

>  <SCORE.INTER>
4.69786

>  <SCORE.INTER.CONST>
1

>  <SCORE.INTER.POLAR>
-0.950852

>  <SCORE.INTER.ROT>
11

>  <SCORE.INTER.SOLV>
18.2301

>  <SCORE.INTER.VDW>
-10.7086

>  <SCORE.INTER.norm>
0.117446

>  <SCORE.INTRA>
-21.6536

>  <SCORE.INTRA.DIHEDRAL>
-5.67924

>  <SCORE.INTRA.DIHEDRAL.0>
19.0336

>  <SCORE.INTRA.POLAR>
0

>  <SCORE.INTRA.POLAR.0>
0

>  <SCORE.INTRA.REPUL>
0

>  <SCORE.INTRA.REPUL.0>
0

>  <SCORE.INTRA.SOLV>
-3.87895

>  <SCORE.INTRA.SOLV.lig_0>
-97.5861

>  <SCORE.INTRA.VDW>
-16.8745

>  <SCORE.INTRA.VDW.0>
11.7669

>  <SCORE.INTRA.norm>
-0.54134

>  <SCORE.RESTR>
0

>  <SCORE.RESTR.CAVITY>
0

>  <SCORE.RESTR.norm>
0

>  <SCORE.SYSTEM>
0

>  <SCORE.SYSTEM.CONST>
0

>  <SCORE.SYSTEM.DIHEDRAL>
0

>  <SCORE.SYSTEM.SOLV>
0

>  <SCORE.SYSTEM.norm>
0

>  <SCORE.heavy>
40

>  <SCORE.norm>
-0.423894

>  <RMSD>
5.127

$$$$
1nta_lig
 OpenBabel11021811403D
libRbt.so/2013.1/901 2013/11/27
 40 42  0  0  0  0  0  0  0  0999 V2000
    6.7266   32.5664   -3.1234 C   0  0  0  0  0  0  0  0  0  0  0  0
    6.7427   31.7108   -4.0762 N   0  0  0  0  0  0  0  0  0  0  0  0
   -0.3418   36.9087    2.4716 C   0  0  0  0  0  0  0  0  0  0  0  0
   -1.1288   36.4289    3.2575 O   0  0  0  0  0  0  0  0  0  0  0  0
    0.9947   34.5335   -3.7224 C   0  0  0  0  0  0  0  0  0  0  0  0
    0.6403   34.0287   -4.8753 N   0  0  0  0  0  0  0  0  0  0  0  0
    0.6261   39.1341    0.1973 C   0  0  0  0  0  0  0  0  0  0  0  0
   -0.2186   32.2717    1.6954 C   0  0  0  0  0  0  0  0  0  0  0  0
    4.7916   33.6177   -2.2568 C   0  0  2  0  0  0  0  0  0  0  0  0
    5.9017   33.5896   -3.2892 N   0  0  0  0  0  0  0  0  0  0  0  0
    0.2575   35.6743   -0.6884 C   0  0  2  0  0  0  0  0  0  0  0  0
   -2.0469   33.9789   -0.3122 C   0  0  1  0  0  0  0  0  0  0  0  0
   -1.9674   35.3339   -0.0378 O   0  0  0  0  0  0  0  0  0  0  0  0
    3.4234   33.7378   -2.9544 C   0  0  1  0  0  0  0  0  0  0  0  0
    3.2524   32.5869   -3.7252 O   0  0  0  0  0  0  0  0  0  0  0  0
   -0.7819   35.6911    0.4272 C   0  0  2  0  0  0  0  0  0  0  0  0
   -2.2310   33.0836    0.8933 C   0  0  1  0  0  0  0  0  0  0  0  0
   -1.1863   33.3486    1.8209 N   0  0  0  0  0  0  0  0  0  0  0  0
    2.2609   33.7946   -1.9543 C   0  0  2  0  0  0  0  0  0  0  0  0
    0.9277   33.9151   -2.5915 N   0  0  0  0  0  0  0  0  0  0  0  0
   -0.5705   37.0294    0.9888 C   0  0  1  0  0  0  0  0  0  0  0  0
   -1.7320   37.8044    0.6848 O   0  0  0  0  0  0  0  0  0  0  0  0
   -3.4517   33.3201    1.5098 C   0  0  2  0  0  0  0  0  0  0  0  0
   -3.6801   32.2721    2.4179 O   0  0  0  0  0  0  0  0  0  0  0  0
    2.4852   34.9873   -1.0383 C   0  0  1  0  0  0  0  0  0  0  0  0
    1.4098   35.0329   -0.1136 O   0  0  0  0  0  0  0  0  0  0  0  0
    0.5847   37.6425    0.3216 C   0  0  1  0  0  0  0  0  0  0  0  0
    0.6241   37.0092   -0.9513 O   0  0  0  0  0  0  0  0  0  0  0  0
   -4.5580   33.3499    0.4881 C   0  0  1  0  0  0  0  0  0  0  0  0
   -5.7239   33.8237    1.0953 O   0  0  0  0  0  0  0  0  0  0  0  0
    3.8459   34.8477   -0.2982 C   0  0  2  0  0  0  0  0  0  0  0  0
    4.0333   35.9695    0.5631 O   0  0  0  0  0  0  0  0  0  0  0  0
   -4.1959   34.2794   -0.6197 C   0  0  1  0  0  0  0  0  0  0  0  0
   -3.0310   33.7941   -1.2221 O   0  0  0  0  0  0  0  0  0  0  0  0
    4.9867   34.8039   -1.3364 C   0  0  1  0  0  0  0  0  0  0  0  0
    6.2540   34.6759   -0.6714 O   0  0  0  0  0  0  0  0  0  0  0  0
   -5.2968   34.3222   -1.6979 C   0  0  0  0  0  0  0  0  0  0  0  0
   -5.4507   33.0245   -2.2613 O   0  0  0  0  0  0  0  0  0  0  0  0
    7.4655   32.4469   -2.0737 N   0  0  0  0  0  0  0  0  0  0  0  0
    1.4697   35.7158   -3.6680 N   0  0  0  0  0  0  0  0  0  0  0  0
  1  2  1  0  0  0  0
  1 39  1  0  0  0  0
  3  4  1  0  0  0  0
  5  6  1  0  0  0  0
  5 40  1  0  0  0  0
  9 10  1  6  0  0  0
  9 14  1  0  0  0  0
  9 35  1  0  0  0  0
 10  1  1  0  0  0  0
 11 16  1  0  0  0  0
 11 28  1  0  0  0  0
 11 26  1  1  0  0  0
 12 17  1  0  0  0  0
 12 34  1  0  0  0  0
 12 13  1  1  0  0  0
 14 15  1  6  0  0  0
 14 19  1  0  0  0  0
 16 13  1  6  0  0  0
 16 21  1  0  0  0  0
 17 18  1  1  0  0  0
 17 23  1  0  0  0  0
 18  8  1  0  0  0  0
 19 20  1  6  0  0  0
 19 25  1  0  0  0  0
 20  5  1  0  0  0  0
 21  3  1  1  0  0  0
 21 22  1  0  0  0  0
 21 27  1  0  0  0  0
 23 24  1  1  0  0  0
 23 29  1  0  0  0  0
 25 26  1  1  0  0  0
 25 31  1  0  0  0  0
 27  7  1  6  0  0  0
 27 28  1  0  0  0  0
 29 30  1  1  0  0  0
 29 33  1  0  0  0  0
 31 32  1  1  0  0  0
 31 35  1  0  0  0  0
 33 34  1  0  0  0  0
 33 37  1  6  0  0  0
 35 36  1  1  0  0  0
 37 38  1  0  0  0  0
M  END
>  <CHROM.1>
-128.34095712,115.78456046,-178.04848067,77.79638855,73.05393027,-102.40010143
-29.26028311,119.91739892,-59.53141759,-82.25517169,-61.46988193,0.49954944
34.56375036,-0.73498275,0.28422220,-0.18330862,-2.34826612

>  <Name>
1nta_lig

>  <RI>
0

>  <Rbt.Current_Directory>
/home/itssahil/PROJECTS/Mol_Feturizer/New_Systems/rnas/1nta

>  <Rbt.Executable>
rbdock ($Id: //depot/dev/client3/rdock/2013.1/src/exe/rbdock.cxx#4 $)

>  <Rbt.Library>
libRbt.so (2013.1, Build901 2013/11/27)

>  <Rbt.Parameter_File>
/export/apps/rDock/src/rDock_2013.1_src/data/scripts/dock_solv.prm

>  <Rbt.Receptor>
prm/pocket_docking_5.prm

>  <SCORE>
-20.2082

>  <SCORE.INTER>
-1.94731

>  <SCORE.INTER.CONST>
1

>  <SCORE.INTER.POLAR>
-1.71225

>  <SCORE.INTER.ROT>
11

>  <SCORE.INTER.SOLV>
21.2575

>  <SCORE.INTER.VDW>
-13.6099

>  <SCORE.INTER.norm>
-0.0486827

>  <SCORE.INTRA>
-18.2609

>  <SCORE.INTRA.DIHEDRAL>
-10.8317

>  <SCORE.INTRA.DIHEDRAL.0>
19.0336

>  <SCORE.INTRA.POLAR>
0

>  <SCORE.INTRA.POLAR.0>
0

>  <SCORE.INTRA.REPUL>
0

>  <SCORE.INTRA.REPUL.0>
0

>  <SCORE.INTRA.SOLV>
0.452467

>  <SCORE.INTRA.SOLV.lig_0>
-97.5861

>  <SCORE.INTRA.VDW>
-13.0713

>  <SCORE.INTRA.VDW.0>
11.7669

>  <SCORE.INTRA.norm>
-0.456523

>  <SCORE.RESTR>
0

>  <SCORE.RESTR.CAVITY>
0

>  <SCORE.RESTR.norm>
0

>  <SCORE.SYSTEM>
0

>  <SCORE.SYSTEM.CONST>
0

>  <SCORE.SYSTEM.DIHEDRAL>
0

>  <SCORE.SYSTEM.SOLV>
0

>  <SCORE.SYSTEM.norm>
0

>  <SCORE.heavy>
40

>  <SCORE.norm>
-0.505205

>  <RMSD>
5.197

$$$$
1nta_lig
 OpenBabel11021811403D
libRbt.so/2013.1/901 2013/11/27
 40 42  0  0  0  0  0  0  0  0999 V2000
    7.8870   32.5260   -1.1252 C   0  0  0  0  0  0  0  0  0  0  0  0
    7.6228   31.7731   -2.1269 N   0  0  0  0  0  0  0  0  0  0  0  0
   -0.8999   36.9952    0.8729 C   0  0  0  0  0  0  0  0  0  0  0  0
   -1.9606   36.4149    0.9456 O   0  0  0  0  0  0  0  0  0  0  0  0
    2.0325   32.9895   -2.6226 C   0  0  0  0  0  0  0  0  0  0  0  0
    1.6045   32.3982   -1.5378 N   0  0  0  0  0  0  0  0  0  0  0  0
    0.8568   39.7085    0.0895 C   0  0  0  0  0  0  0  0  0  0  0  0
   -1.2678   31.9235   -2.1339 C   0  0  0  0  0  0  0  0  0  0  0  0
    6.0960   34.0320   -0.7716 C   0  0  2  0  0  0  0  0  0  0  0  0
    7.5150   33.7913   -1.2485 N   0  0  0  0  0  0  0  0  0  0  0  0
    1.5418   36.5733   -1.5205 C   0  0  2  0  0  0  0  0  0  0  0  0
   -0.0193   35.0740   -3.1176 C   0  0  1  0  0  0  0  0  0  0  0  0
   -0.5883   36.0896   -2.3678 O   0  0  0  0  0  0  0  0  0  0  0  0
    5.1154   33.9281   -1.9550 C   0  0  1  0  0  0  0  0  0  0  0  0
    5.1830   32.6179   -2.4313 O   0  0  0  0  0  0  0  0  0  0  0  0
    0.0646   36.3184   -1.2407 C   0  0  2  0  0  0  0  0  0  0  0  0
   -0.8981   33.8628   -3.3402 C   0  0  1  0  0  0  0  0  0  0  0  0
   -1.3286   33.3743   -2.0759 N   0  0  0  0  0  0  0  0  0  0  0  0
    3.6626   34.1867   -1.5340 C   0  0  2  0  0  0  0  0  0  0  0  0
    2.6908   34.0993   -2.6503 N   0  0  0  0  0  0  0  0  0  0  0  0
   -0.2677   37.4771   -0.4053 C   0  0  1  0  0  0  0  0  0  0  0  0
   -1.1509   38.3063   -1.1632 O   0  0  0  0  0  0  0  0  0  0  0  0
   -2.0125   34.1868   -4.1013 C   0  0  2  0  0  0  0  0  0  0  0  0
   -2.6117   32.9839   -4.5122 O   0  0  0  0  0  0  0  0  0  0  0  0
    3.5905   35.5749   -0.9179 C   0  0  1  0  0  0  0  0  0  0  0  0
    2.2462   35.8073   -0.5273 O   0  0  0  0  0  0  0  0  0  0  0  0
    0.9626   38.2322   -0.1371 C   0  0  1  0  0  0  0  0  0  0  0  0
    1.8009   37.9309   -1.2460 O   0  0  0  0  0  0  0  0  0  0  0  0
   -1.6062   34.9853   -5.3120 C   0  0  1  0  0  0  0  0  0  0  0  0
   -2.7533   35.4986   -5.9230 O   0  0  0  0  0  0  0  0  0  0  0  0
    4.5465   35.6700    0.3051 C   0  0  2  0  0  0  0  0  0  0  0  0
    4.4571   36.9747    0.8751 O   0  0  0  0  0  0  0  0  0  0  0  0
   -0.7456   36.1293   -4.8958 C   0  0  1  0  0  0  0  0  0  0  0  0
    0.4000   35.6046   -4.2895 O   0  0  0  0  0  0  0  0  0  0  0  0
    5.9949   35.4138   -0.1614 C   0  0  1  0  0  0  0  0  0  0  0  0
    6.8949   35.4984    0.9556 O   0  0  0  0  0  0  0  0  0  0  0  0
   -0.2919   36.9608   -6.1118 C   0  0  0  0  0  0  0  0  0  0  0  0
   -1.4385   37.4402   -6.8051 O   0  0  0  0  0  0  0  0  0  0  0  0
    8.4795   32.0875   -0.0674 N   0  0  0  0  0  0  0  0  0  0  0  0
    1.8258   32.4517   -3.7604 N   0  0  0  0  0  0  0  0  0  0  0  0
  1  2  1  0  0  0  0
  1 39  1  0  0  0  0
  3  4  1  0  0  0  0
  5  6  1  0  0  0  0
  5 40  1  0  0  0  0
  9 10  1  6  0  0  0
  9 14  1  0  0  0  0
  9 35  1  0  0  0  0
 10  1  1  0  0  0  0
 11 16  1  0  0  0  0
 11 28  1  0  0  0  0
 11 26  1  1  0  0  0
 12 17  1  0  0  0  0
 12 34  1  0  0  0  0
 12 13  1  6  0  0  0
 14 15  1  1  0  0  0
 14 19  1  0  0  0  0
 16 13  1  6  0  0  0
 16 21  1  0  0  0  0
 17 18  1  1  0  0  0
 17 23  1  0  0  0  0
 18  8  1  0  0  0  0
 19 20  1  6  0  0  0
 19 25  1  0  0  0  0
 20  5  1  0  0  0  0
 21  3  1  1  0  0  0
 21 22  1  0  0  0  0
 21 27  1  0  0  0  0
 23 24  1  6  0  0  0
 23 29  1  0  0  0  0
 25 26  1  1  0  0  0
 25 31  1  0  0  0  0
 27  7  1  6  0  0  0
 27 28  1  0  0  0  0
 29 30  1  1  0  0  0
 29 33  1  0  0  0  0
 31 32  1  6  0  0  0
 31 35  1  0  0  0  0
 33 34  1  0  0  0  0
 33 37  1  6  0  0  0
 35 36  1  1  0  0  0
 37 38  1  0  0  0  0
M  END
>  <CHROM.1>
-93.54593848,88.65387750,160.17499488,117.54390884,53.82401437,-139.31540524
103.24465495,38.60467191,-64.61348185,-97.71148359,58.30235312,1.77829265
35.12996423,-2.01233999,-0.06115902,0.41861126,-2.41818991

>  <Name>
1nta_lig

>  <RI>
0

>  <Rbt.Current_Directory>
/home/itssahil/PROJECTS/Mol_Feturizer/New_Systems/rnas/1nta

>  <Rbt.Executable>
rbdock ($Id: //depot/dev/client3/rdock/2013.1/src/exe/rbdock.cxx#4 $)

>  <Rbt.Library>
libRbt.so (2013.1, Build901 2013/11/27)

>  <Rbt.Parameter_File>
/export/apps/rDock/src/rDock_2013.1_src/data/scripts/dock_solv.prm

>  <Rbt.Receptor>
prm/pocket_docking_2.prm

>  <SCORE>
-3.47241

>  <SCORE.INTER>
5.61151

>  <SCORE.INTER.CONST>
1

>  <SCORE.INTER.POLAR>
-0.712211

>  <SCORE.INTER.ROT>
11

>  <SCORE.INTER.SOLV>
23.7279

>  <SCORE.INTER.VDW>
-12.7276

>  <SCORE.INTER.norm>
0.140288

>  <SCORE.INTRA>
-13.1221

>  <SCORE.INTRA.DIHEDRAL>
-0.889711

>  <SCORE.INTRA.DIHEDRAL.0>
19.0336

>  <SCORE.INTRA.POLAR>
0

>  <SCORE.INTRA.POLAR.0>
0

>  <SCORE.INTRA.REPUL>
0

>  <SCORE.INTRA.REPUL.0>
0

>  <SCORE.INTRA.SOLV>
4.01257

>  <SCORE.INTRA.SOLV.lig_0>
-97.5861

>  <SCORE.INTRA.VDW>
-14.6835

>  <SCORE.INTRA.VDW.0>
11.7669

>  <SCORE.INTRA.norm>
-0.328053

>  <SCORE.RESTR>
4.0382

>  <SCORE.RESTR.CAVITY>
4.0382

>  <SCORE.RESTR.norm>
0.100955

>  <SCORE.SYSTEM>
0

>  <SCORE.SYSTEM.CONST>
0

>  <SCORE.SYSTEM.DIHEDRAL>
0

>  <SCORE.SYSTEM.SOLV>
0

>  <SCORE.SYSTEM.norm>
0

>  <SCORE.heavy>
40

>  <SCORE.norm>
-0.0868103

>  <RMSD>
5.200

$$$$
1nta_lig
 OpenBabel11021811403D
libRbt.so/2013.1/901 2013/11/27
 40 42  0  0  0  0  0  0  0  0999 V2000
    5.7110   33.2292   -1.2818 C   0  0  0  0  0  0  0  0  0  0  0  0
    5.1902   32.4935   -2.1915 N   0  0  0  0  0  0  0  0  0  0  0  0
   -2.0175   37.3344    0.9585 C   0  0  0  0  0  0  0  0  0  0  0  0
   -3.1653   37.0861    1.2556 O   0  0  0  0  0  0  0  0  0  0  0  0
    0.3040   33.4943    1.2590 C   0  0  0  0  0  0  0  0  0  0  0  0
    0.7996   32.2932    1.1121 N   0  0  0  0  0  0  0  0  0  0  0  0
   -1.9081   38.4130    4.1027 C   0  0  0  0  0  0  0  0  0  0  0  0
    0.9377   36.4110   -2.4305 C   0  0  0  0  0  0  0  0  0  0  0  0
    4.4799   34.8643   -0.0938 C   0  0  2  0  0  0  0  0  0  0  0  0
    5.3358   34.4996   -1.2910 N   0  0  0  0  0  0  0  0  0  0  0  0
    1.1088   38.1116    2.1795 C   0  0  2  0  0  0  0  0  0  0  0  0
    1.5564   39.1946   -0.5651 C   0  0  1  0  0  0  0  0  0  0  0  0
    0.5431   39.4520    0.3430 O   0  0  0  0  0  0  0  0  0  0  0  0
    3.0084   34.4974   -0.3640 C   0  0  1  0  0  0  0  0  0  0  0  0
    2.9514   33.1111   -0.5156 O   0  0  0  0  0  0  0  0  0  0  0  0
    0.1681   38.3720    1.0080 C   0  0  2  0  0  0  0  0  0  0  0  0
    1.1042   38.6581   -1.9053 C   0  0  1  0  0  0  0  0  0  0  0  0
    0.3163   37.4945   -1.6874 N   0  0  0  0  0  0  0  0  0  0  0  0
    2.0897   34.8668    0.8082 C   0  0  2  0  0  0  0  0  0  0  0  0
    0.6635   34.5316    0.5804 N   0  0  0  0  0  0  0  0  0  0  0  0
   -1.1359   38.3204    1.6771 C   0  0  1  0  0  0  0  0  0  0  0  0
   -1.6768   39.6429    1.6532 O   0  0  0  0  0  0  0  0  0  0  0  0
    0.3430   39.5962   -2.5883 C   0  0  2  0  0  0  0  0  0  0  0  0
    0.2141   39.1547   -3.9162 O   0  0  0  0  0  0  0  0  0  0  0  0
    2.2172   36.3619    1.0539 C   0  0  1  0  0  0  0  0  0  0  0  0
    1.3687   36.6972    2.1407 O   0  0  0  0  0  0  0  0  0  0  0  0
   -0.9313   37.9276    3.0769 C   0  0  1  0  0  0  0  0  0  0  0  0
    0.3920   38.3607    3.3669 O   0  0  0  0  0  0  0  0  0  0  0  0
    1.0249   40.9390   -2.5691 C   0  0  1  0  0  0  0  0  0  0  0  0
    0.1364   41.9062   -3.0462 O   0  0  0  0  0  0  0  0  0  0  0  0
    3.6946   36.7299    1.3712 C   0  0  2  0  0  0  0  0  0  0  0  0
    3.7920   38.1332    1.6087 O   0  0  0  0  0  0  0  0  0  0  0  0
    1.3976   41.2950   -1.1702 C   0  0  1  0  0  0  0  0  0  0  0  0
    2.2891   40.3235   -0.7044 O   0  0  0  0  0  0  0  0  0  0  0  0
    4.5820   36.3522    0.1666 C   0  0  1  0  0  0  0  0  0  0  0  0
    5.9527   36.6858    0.4402 O   0  0  0  0  0  0  0  0  0  0  0  0
    2.1176   42.6568   -1.1112 C   0  0  0  0  0  0  0  0  0  0  0  0
    2.4365   42.9593    0.2422 O   0  0  0  0  0  0  0  0  0  0  0  0
    6.5487   32.7699   -0.4160 N   0  0  0  0  0  0  0  0  0  0  0  0
   -0.6236   33.6966    2.1105 N   0  0  0  0  0  0  0  0  0  0  0  0
  1  2  1  0  0  0  0
  1 39  1  0  0  0  0
  3  4  1  0  0  0  0
  5  6  1  0  0  0  0
  5 40  1  0  0  0  0
  9 10  1  6  0  0  0
  9 14  1  0  0  0  0
  9 35  1  0  0  0  0
 10  1  1  0  0  0  0
 11 16  1  0  0  0  0
 11 28  1  0  0  0  0
 11 26  1  1  0  0  0
 12 17  1  0  0  0  0
 12 34  1  0  0  0  0
 12 13  1  1  0  0  0
 14 15  1  1  0  0  0
 14 19  1  0  0  0  0
 16 13  1  1  0  0  0
 16 21  1  0  0  0  0
 17 18  1  1  0  0  0
 17 23  1  0  0  0  0
 18  8  1  0  0  0  0
 19 20  1  6  0  0  0
 19 25  1  0  0  0  0
 20  5  1  0  0  0  0
 21  3  1  6  0  0  0
 21 22  1  0  0  0  0
 21 27  1  0  0  0  0
 23 24  1  6  0  0  0
 23 29  1  0  0  0  0
 25 26  1  1  0  0  0
 25 31  1  0  0  0  0
 27  7  1  1  0  0  0
 27 28  1  0  0  0  0
 29 30  1  1  0  0  0
 29 33  1  0  0  0  0
 31 32  1  6  0  0  0
 31 35  1  0  0  0  0
 33 34  1  0  0  0  0
 33 37  1  6  0  0  0
 35 36  1  1  0  0  0
 37 38  1  0  0  0  0
M  END
>  <CHROM.1>
-84.11507344,111.37993283,72.38820248,83.52539496,82.38527004,-123.16530769
105.40940301,-62.52431832,-178.55763711,-162.23159637,179.25613119,1.56033916
37.28086544,0.12152168,-0.92528487,0.57164074,-0.38958488

>  <Name>
1nta_lig

>  <RI>
0

>  <Rbt.Current_Directory>
/home/itssahil/PROJECTS/Mol_Feturizer/New_Systems/rnas/1nta

>  <Rbt.Executable>
rbdock ($Id: //depot/dev/client3/rdock/2013.1/src/exe/rbdock.cxx#4 $)

>  <Rbt.Library>
libRbt.so (2013.1, Build901 2013/11/27)

>  <Rbt.Parameter_File>
/export/apps/rDock/src/rDock_2013.1_src/data/scripts/dock_solv.prm

>  <Rbt.Receptor>
prm/pocket_docking_6.prm

>  <SCORE>
-19.0777

>  <SCORE.INTER>
4.30822

>  <SCORE.INTER.CONST>
1

>  <SCORE.INTER.POLAR>
-0.8

>  <SCORE.INTER.ROT>
11

>  <SCORE.INTER.SOLV>
15.8371

>  <SCORE.INTER.VDW>
-10.6736

>  <SCORE.INTER.norm>
0.107705

>  <SCORE.INTRA>
-23.3859

>  <SCORE.INTRA.DIHEDRAL>
-8.24013

>  <SCORE.INTRA.DIHEDRAL.0>
19.0336

>  <SCORE.INTRA.POLAR>
0

>  <SCORE.INTRA.POLAR.0>
0

>  <SCORE.INTRA.REPUL>
0

>  <SCORE.INTRA.REPUL.0>
0

>  <SCORE.INTRA.SOLV>
-2.48514

>  <SCORE.INTRA.SOLV.lig_0>
-97.5861

>  <SCORE.INTRA.VDW>
-18.0232

>  <SCORE.INTRA.VDW.0>
11.7669

>  <SCORE.INTRA.norm>
-0.584647

>  <SCORE.RESTR>
0

>  <SCORE.RESTR.CAVITY>
0

>  <SCORE.RESTR.norm>
0

>  <SCORE.SYSTEM>
0

>  <SCORE.SYSTEM.CONST>
0

>  <SCORE.SYSTEM.DIHEDRAL>
0

>  <SCORE.SYSTEM.SOLV>
0

>  <SCORE.SYSTEM.norm>
0

>  <SCORE.heavy>
40

>  <SCORE.norm>
-0.476942

>  <RMSD>
5.218

$$$$
1nta_lig
 OpenBabel11021811403D
libRbt.so/2013.1/901 2013/11/27
 40 42  0  0  0  0  0  0  0  0999 V2000
    8.0969   31.3276   -5.2448 C   0  0  0  0  0  0  0  0  0  0  0  0
    7.5955   31.3633   -6.4226 N   0  0  0  0  0  0  0  0  0  0  0  0
    4.6557   36.9199    2.5117 C   0  0  0  0  0  0  0  0  0  0  0  0
    5.2626   35.9380    2.8791 O   0  0  0  0  0  0  0  0  0  0  0  0
    8.9298   34.8344    0.1203 C   0  0  0  0  0  0  0  0  0  0  0  0
    8.6359   36.0003    0.6342 N   0  0  0  0  0  0  0  0  0  0  0  0
    4.8349   39.3447    0.2425 C   0  0  0  0  0  0  0  0  0  0  0  0
    0.2318   37.5810    2.5339 C   0  0  0  0  0  0  0  0  0  0  0  0
    7.0307   32.5927   -3.5527 C   0  0  2  0  0  0  0  0  0  0  0  0
    7.2209   31.2616   -4.2533 N   0  0  0  0  0  0  0  0  0  0  0  0
    4.5299   35.9171   -0.7818 C   0  0  2  0  0  0  0  0  0  0  0  0
    1.9247   35.0638    1.5644 C   0  0  1  0  0  0  0  0  0  0  0  0
    2.5772   35.3312    0.3727 O   0  0  0  0  0  0  0  0  0  0  0  0
    7.6745   32.5510   -2.1538 C   0  0  1  0  0  0  0  0  0  0  0  0
    9.0453   32.3640   -2.3375 O   0  0  0  0  0  0  0  0  0  0  0  0
    3.8096   35.7753    0.5547 C   0  0  2  0  0  0  0  0  0  0  0  0
    0.4688   35.4725    1.6116 C   0  0  1  0  0  0  0  0  0  0  0  0
    0.3728   36.8529    1.2840 N   0  0  0  0  0  0  0  0  0  0  0  0
    7.4917   33.8677   -1.3873 C   0  0  2  0  0  0  0  0  0  0  0  0
    8.0957   33.8616   -0.0333 N   0  0  0  0  0  0  0  0  0  0  0  0
    4.0494   37.0961    1.1453 C   0  0  1  0  0  0  0  0  0  0  0  0
    2.7910   37.7713    1.1980 O   0  0  0  0  0  0  0  0  0  0  0  0
   -0.2854   34.7407    0.7051 C   0  0  2  0  0  0  0  0  0  0  0  0
   -1.6408   34.9545    1.0086 O   0  0  0  0  0  0  0  0  0  0  0  0
    6.0006   34.1398   -1.2668 C   0  0  1  0  0  0  0  0  0  0  0  0
    5.8376   35.3598   -0.5606 O   0  0  0  0  0  0  0  0  0  0  0  0
    4.9451   37.8516    0.2606 C   0  0  1  0  0  0  0  0  0  0  0  0
    4.7106   37.2930   -1.0262 O   0  0  0  0  0  0  0  0  0  0  0  0
    0.0309   33.2729    0.8242 C   0  0  1  0  0  0  0  0  0  0  0  0
   -0.5531   32.5943   -0.2485 O   0  0  0  0  0  0  0  0  0  0  0  0
    5.3547   34.2270   -2.6789 C   0  0  2  0  0  0  0  0  0  0  0  0
    3.9594   34.4927   -2.5452 O   0  0  0  0  0  0  0  0  0  0  0  0
    1.5063   33.0685    0.7603 C   0  0  1  0  0  0  0  0  0  0  0  0
    2.0797   33.7481    1.8395 O   0  0  0  0  0  0  0  0  0  0  0  0
    5.5516   32.8831   -3.4113 C   0  0  1  0  0  0  0  0  0  0  0  0
    4.9600   32.9433   -4.7194 O   0  0  0  0  0  0  0  0  0  0  0  0
    1.8720   31.5775    0.8992 C   0  0  0  0  0  0  0  0  0  0  0  0
    3.2679   31.4595    1.1497 O   0  0  0  0  0  0  0  0  0  0  0  0
    9.3683   31.3587   -5.0329 N   0  0  0  0  0  0  0  0  0  0  0  0
   10.1137   34.6059   -0.2950 N   0  0  0  0  0  0  0  0  0  0  0  0
  1  2  1  0  0  0  0
  1 39  1  0  0  0  0
  3  4  1  0  0  0  0
  5  6  1  0  0  0  0
  5 40  1  0  0  0  0
  9 10  1  1  0  0  0
  9 14  1  0  0  0  0
  9 35  1  0  0  0  0
 10  1  1  0  0  0  0
 11 16  1  0  0  0  0
 11 28  1  0  0  0  0
 11 26  1  1  0  0  0
 12 17  1  0  0  0  0
 12 34  1  0  0  0  0
 12 13  1  6  0  0  0
 14 15  1  6  0  0  0
 14 19  1  0  0  0  0
 16 13  1  6  0  0  0
 16 21  1  0  0  0  0
 17 18  1  6  0  0  0
 17 23  1  0  0  0  0
 18  8  1  0  0  0  0
 19 20  1  1  0  0  0
 19 25  1  0  0  0  0
 20  5  1  0  0  0  0
 21  3  1  1  0  0  0
 21 22  1  0  0  0  0
 21 27  1  0  0  0  0
 23 24  1  1  0  0  0
 23 29  1  0  0  0  0
 25 26  1  6  0  0  0
 25 31  1  0  0  0  0
 27  7  1  6  0  0  0
 27 28  1  0  0  0  0
 29 30  1  6  0  0  0
 29 33  1  0  0  0  0
 31 32  1  1  0  0  0
 31 35  1  0  0  0  0
 33 34  1  0  0  0  0
 33 37  1  1  0  0  0
 35 36  1  6  0  0  0
 37 38  1  0  0  0  0
M  END
>  <CHROM.1>
-108.31668481,-102.87235163,110.61201472,139.77102796,174.19060147,-100.25641128
124.39038705,93.92532982,23.25882985,160.72847466,-166.36907836,4.51075772
34.50533447,-0.57259327,0.63713082,-0.24856135,-2.44769154

>  <Name>
1nta_lig

>  <RI>
9.25352e+06

>  <Rbt.Current_Directory>
/home/itssahil/PROJECTS/Mol_Feturizer/New_Systems/rnas/1nta

>  <Rbt.Executable>
rbdock ($Id: //depot/dev/client3/rdock/2013.1/src/exe/rbdock.cxx#4 $)

>  <Rbt.Library>
libRbt.so (2013.1, Build901 2013/11/27)

>  <Rbt.Parameter_File>
/export/apps/rDock/src/rDock_2013.1_src/data/scripts/dock_solv.prm

>  <Rbt.Receptor>
prm/blind_docking_40.prm

>  <SCORE>
-9.92211

>  <SCORE.INTER>
-6.74889

>  <SCORE.INTER.CONST>
1

>  <SCORE.INTER.POLAR>
-3.66601

>  <SCORE.INTER.ROT>
11

>  <SCORE.INTER.SOLV>
46.2684

>  <SCORE.INTER.VDW>
-18.6354

>  <SCORE.INTER.norm>
-0.168722

>  <SCORE.INTRA>
-9.43378

>  <SCORE.INTRA.DIHEDRAL>
3.2152

>  <SCORE.INTRA.DIHEDRAL.0>
19.0336

>  <SCORE.INTRA.POLAR>
0

>  <SCORE.INTRA.POLAR.0>
0

>  <SCORE.INTRA.REPUL>
0.0305013

>  <SCORE.INTRA.REPUL.0>
0

>  <SCORE.INTRA.SOLV>
-3.69459

>  <SCORE.INTRA.SOLV.lig_0>
-97.5861

>  <SCORE.INTRA.VDW>
-9.34659

>  <SCORE.INTRA.VDW.0>
11.7669

>  <SCORE.INTRA.norm>
-0.235844

>  <SCORE.RESTR>
6.26056

>  <SCORE.RESTR.CAVITY>
6.26056

>  <SCORE.RESTR.norm>
0.156514

>  <SCORE.SYSTEM>
0

>  <SCORE.SYSTEM.CONST>
0

>  <SCORE.SYSTEM.DIHEDRAL>
0

>  <SCORE.SYSTEM.SOLV>
0

>  <SCORE.SYSTEM.norm>
0

>  <SCORE.heavy>
40

>  <SCORE.norm>
-0.248053

>  <RMSD>
5.221

$$$$
1nta_lig
 OpenBabel11021811403D
libRbt.so/2013.1/901 2013/11/27
 40 42  0  0  0  0  0  0  0  0999 V2000
    7.0795   32.2288   -2.9804 C   0  0  0  0  0  0  0  0  0  0  0  0
    8.2076   31.7137   -2.6607 N   0  0  0  0  0  0  0  0  0  0  0  0
   -0.0981   37.5854   -0.7590 C   0  0  0  0  0  0  0  0  0  0  0  0
   -0.0457   38.2177   -1.7909 O   0  0  0  0  0  0  0  0  0  0  0  0
    1.2012   33.7996   -2.2114 C   0  0  0  0  0  0  0  0  0  0  0  0
    1.0639   33.0589   -3.2802 N   0  0  0  0  0  0  0  0  0  0  0  0
   -0.6701   37.2280    2.4977 C   0  0  0  0  0  0  0  0  0  0  0  0
    3.5539   40.7618   -3.5565 C   0  0  0  0  0  0  0  0  0  0  0  0
    5.7503   33.6349   -1.6179 C   0  0  2  0  0  0  0  0  0  0  0  0
    6.8966   33.4840   -2.5987 N   0  0  0  0  0  0  0  0  0  0  0  0
    2.6363   36.7755    1.1736 C   0  0  2  0  0  0  0  0  0  0  0  0
    3.9743   38.7252   -0.7881 C   0  0  1  0  0  0  0  0  0  0  0  0
    2.9195   38.8395    0.1018 O   0  0  0  0  0  0  0  0  0  0  0  0
    4.4824   34.1067   -2.3546 C   0  0  1  0  0  0  0  0  0  0  0  0
    4.1338   33.1017   -3.2582 O   0  0  0  0  0  0  0  0  0  0  0  0
    2.1492   37.7646    0.1202 C   0  0  2  0  0  0  0  0  0  0  0  0
    4.3437   39.9959   -1.5213 C   0  0  1  0  0  0  0  0  0  0  0  0
    3.1851   40.4969   -2.1760 N   0  0  0  0  0  0  0  0  0  0  0  0
    3.2927   34.2996   -1.4047 C   0  0  2  0  0  0  0  0  0  0  0  0
    2.0551   34.7584   -2.0799 N   0  0  0  0  0  0  0  0  0  0  0  0
    0.7280   37.8681    0.4671 C   0  0  1  0  0  0  0  0  0  0  0  0
    0.5100   39.1877    0.9703 O   0  0  0  0  0  0  0  0  0  0  0  0
    4.8173   40.9603   -0.6427 C   0  0  2  0  0  0  0  0  0  0  0  0
    5.4092   41.9795   -1.4081 O   0  0  0  0  0  0  0  0  0  0  0  0
    3.6924   35.3193   -0.3500 C   0  0  1  0  0  0  0  0  0  0  0  0
    2.5904   35.4911    0.5275 O   0  0  0  0  0  0  0  0  0  0  0  0
    0.4339   36.9080    1.5382 C   0  0  1  0  0  0  0  0  0  0  0  0
    1.6786   36.7452    2.2068 O   0  0  0  0  0  0  0  0  0  0  0  0
    5.8454   40.3659    0.2837 C   0  0  1  0  0  0  0  0  0  0  0  0
    6.1240   41.2827    1.3006 O   0  0  0  0  0  0  0  0  0  0  0  0
    4.9463   34.8256    0.4264 C   0  0  2  0  0  0  0  0  0  0  0  0
    5.2991   35.7896    1.4171 O   0  0  0  0  0  0  0  0  0  0  0  0
    5.3041   39.1248    0.9075 C   0  0  1  0  0  0  0  0  0  0  0  0
    5.0325   38.2137   -0.1180 O   0  0  0  0  0  0  0  0  0  0  0  0
    6.1198   34.6538   -0.5608 C   0  0  1  0  0  0  0  0  0  0  0  0
    7.2897   34.1985    0.1384 O   0  0  0  0  0  0  0  0  0  0  0  0
    6.3367   38.4744    1.8493 C   0  0  0  0  0  0  0  0  0  0  0  0
    7.5104   38.1576    1.1095 O   0  0  0  0  0  0  0  0  0  0  0  0
    6.1773   31.5721   -3.6261 N   0  0  0  0  0  0  0  0  0  0  0  0
    0.4382   33.6098   -1.2073 N   0  0  0  0  0  0  0  0  0  0  0  0
  1  2  1  0  0  0  0
  1 39  1  0  0  0  0
  3  4  1  0  0  0  0
  5  6  1  0  0  0  0
  5 40  1  0  0  0  0
  9 10  1  6  0  0  0
  9 14  1  0  0  0  0
  9 35  1  0  0  0  0
 10  1  1  0  0  0  0
 11 16  1  0  0  0  0
 11 28  1  0  0  0  0
 11 26  1  6  0  0  0
 12 17  1  0  0  0  0
 12 34  1  0  0  0  0
 12 13  1  1  0  0  0
 14 15  1  6  0  0  0
 14 19  1  0  0  0  0
 16 13  1  1  0  0  0
 16 21  1  0  0  0  0
 17 18  1  1  0  0  0
 17 23  1  0  0  0  0
 18  8  1  0  0  0  0
 19 20  1  6  0  0  0
 19 25  1  0  0  0  0
 20  5  1  0  0  0  0
 21  3  1  6  0  0  0
 21 22  1  0  0  0  0
 21 27  1  0  0  0  0
 23 24  1  6  0  0  0
 23 29  1  0  0  0  0
 25 26  1  1  0  0  0
 25 31  1  0  0  0  0
 27  7  1  1  0  0  0
 27 28  1  0  0  0  0
 29 30  1  1  0  0  0
 29 33  1  0  0  0  0
 31 32  1  1  0  0  0
 31 35  1  0  0  0  0
 33 34  1  0  0  0  0
 33 37  1  1  0  0  0
 35 36  1  1  0  0  0
 37 38  1  0  0  0  0
M  END
>  <CHROM.1>
-98.88186782,-117.03389084,77.56608409,143.07564106,90.78814118,-129.93297395
104.12316215,-95.50281950,-59.54407761,-155.56104425,-59.14746685,3.81277201
36.68220441,-0.62051164,-1.28510863,0.08820197,0.30386538

>  <Name>
1nta_lig

>  <RI>
0

>  <Rbt.Current_Directory>
/home/itssahil/PROJECTS/Mol_Feturizer/New_Systems/rnas/1nta

>  <Rbt.Executable>
rbdock ($Id: //depot/dev/client3/rdock/2013.1/src/exe/rbdock.cxx#4 $)

>  <Rbt.Library>
libRbt.so (2013.1, Build901 2013/11/27)

>  <Rbt.Parameter_File>
/export/apps/rDock/src/rDock_2013.1_src/data/scripts/dock_solv.prm

>  <Rbt.Receptor>
prm/pocket_docking_8.prm

>  <SCORE>
-34.0281

>  <SCORE.INTER>
-12.944

>  <SCORE.INTER.CONST>
1

>  <SCORE.INTER.POLAR>
-1.41113

>  <SCORE.INTER.ROT>
11

>  <SCORE.INTER.SOLV>
25.9223

>  <SCORE.INTER.VDW>
-23.4997

>  <SCORE.INTER.norm>
-0.3236

>  <SCORE.INTRA>
-21.0841

>  <SCORE.INTRA.DIHEDRAL>
-2.43605

>  <SCORE.INTRA.DIHEDRAL.0>
19.0336

>  <SCORE.INTRA.POLAR>
0

>  <SCORE.INTRA.POLAR.0>
0

>  <SCORE.INTRA.REPUL>
0

>  <SCORE.INTRA.REPUL.0>
0

>  <SCORE.INTRA.SOLV>
-3.14011

>  <SCORE.INTRA.SOLV.lig_0>
-97.5861

>  <SCORE.INTRA.VDW>
-18.296

>  <SCORE.INTRA.VDW.0>
11.7669

>  <SCORE.INTRA.norm>
-0.527102

>  <SCORE.RESTR>
0

>  <SCORE.RESTR.CAVITY>
0

>  <SCORE.RESTR.norm>
0

>  <SCORE.SYSTEM>
0

>  <SCORE.SYSTEM.CONST>
0

>  <SCORE.SYSTEM.DIHEDRAL>
0

>  <SCORE.SYSTEM.SOLV>
0

>  <SCORE.SYSTEM.norm>
0

>  <SCORE.heavy>
40

>  <SCORE.norm>
-0.850703

>  <RMSD>
5.233

$$$$
1nta_lig
 OpenBabel11021811403D
libRbt.so/2013.1/901 2013/11/27
 40 42  0  0  0  0  0  0  0  0999 V2000
    8.1574   31.6262   -4.4856 C   0  0  0  0  0  0  0  0  0  0  0  0
    7.1289   30.9299   -4.7977 N   0  0  0  0  0  0  0  0  0  0  0  0
    0.5127   36.0835   -0.6057 C   0  0  0  0  0  0  0  0  0  0  0  0
   -0.6487   36.4213   -0.5385 O   0  0  0  0  0  0  0  0  0  0  0  0
    2.0563   33.8497   -3.3031 C   0  0  0  0  0  0  0  0  0  0  0  0
    1.7764   32.6640   -2.8282 N   0  0  0  0  0  0  0  0  0  0  0  0
    0.1169   34.1868    2.0975 C   0  0  0  0  0  0  0  0  0  0  0  0
    2.7700   40.4452   -1.0903 C   0  0  0  0  0  0  0  0  0  0  0  0
    6.6286   32.5731   -2.9473 C   0  0  2  0  0  0  0  0  0  0  0  0
    7.9194   32.6907   -3.7340 N   0  0  0  0  0  0  0  0  0  0  0  0
    3.3623   34.5792    0.6129 C   0  0  2  0  0  0  0  0  0  0  0  0
    4.2176   37.5969   -0.3410 C   0  0  1  0  0  0  0  0  0  0  0  0
    3.5363   36.9153    0.6533 O   0  0  0  0  0  0  0  0  0  0  0  0
    5.5752   33.5458   -3.5105 C   0  0  1  0  0  0  0  0  0  0  0  0
    5.3072   33.1479   -4.8211 O   0  0  0  0  0  0  0  0  0  0  0  0
    2.7964   35.9270    0.1789 C   0  0  2  0  0  0  0  0  0  0  0  0
    4.3697   39.0855   -0.1184 C   0  0  1  0  0  0  0  0  0  0  0  0
    3.0803   39.6494    0.0854 N   0  0  0  0  0  0  0  0  0  0  0  0
    4.2521   33.4866   -2.7355 C   0  0  2  0  0  0  0  0  0  0  0  0
    3.2155   34.4144   -3.2480 N   0  0  0  0  0  0  0  0  0  0  0  0
    1.3925   35.7848    0.5785 C   0  0  1  0  0  0  0  0  0  0  0  0
    1.1660   36.6916    1.6595 O   0  0  0  0  0  0  0  0  0  0  0  0
    5.1567   39.3466    0.9945 C   0  0  2  0  0  0  0  0  0  0  0  0
    5.4956   40.7102    0.9658 O   0  0  0  0  0  0  0  0  0  0  0  0
    4.5429   33.8188   -1.2805 C   0  0  1  0  0  0  0  0  0  0  0  0
    3.3171   33.7591   -0.5681 O   0  0  0  0  0  0  0  0  0  0  0  0
    1.1786   34.4169    1.0671 C   0  0  1  0  0  0  0  0  0  0  0  0
    2.4596   34.0136    1.5353 O   0  0  0  0  0  0  0  0  0  0  0  0
    6.4123   38.5157    0.9554 C   0  0  1  0  0  0  0  0  0  0  0  0
    7.0615   38.6158    2.1886 O   0  0  0  0  0  0  0  0  0  0  0  0
    5.5729   32.8112   -0.6951 C   0  0  2  0  0  0  0  0  0  0  0  0
    5.8246   33.1326    0.6719 O   0  0  0  0  0  0  0  0  0  0  0  0
    6.0628   37.0849    0.7249 C   0  0  1  0  0  0  0  0  0  0  0  0
    5.4176   36.9959   -0.5125 O   0  0  0  0  0  0  0  0  0  0  0  0
    6.8894   32.9087   -1.4942 C   0  0  1  0  0  0  0  0  0  0  0  0
    7.8556   31.9848   -0.9673 O   0  0  0  0  0  0  0  0  0  0  0  0
    7.3255   36.2032    0.6582 C   0  0  0  0  0  0  0  0  0  0  0  0
    7.0458   34.9398    1.2503 O   0  0  0  0  0  0  0  0  0  0  0  0
    9.3462   31.3186   -4.8785 N   0  0  0  0  0  0  0  0  0  0  0  0
    1.1502   34.5251   -3.8941 N   0  0  0  0  0  0  0  0  0  0  0  0
  1  2  1  0  0  0  0
  1 39  1  0  0  0  0
  3  4  1  0  0  0  0
  5  6  1  0  0  0  0
  5 40  1  0  0  0  0
  9 10  1  6  0  0  0
  9 14  1  0  0  0  0
  9 35  1  0  0  0  0
 10  1  1  0  0  0  0
 11 16  1  0  0  0  0
 11 28  1  0  0  0  0
 11 26  1  6  0  0  0
 12 17  1  0  0  0  0
 12 34  1  0  0  0  0
 12 13  1  1  0  0  0
 14 15  1  6  0  0  0
 14 19  1  0  0  0  0
 16 13  1  1  0  0  0
 16 21  1  0  0  0  0
 17 18  1  1  0  0  0
 17 23  1  0  0  0  0
 18  8  1  0  0  0  0
 19 20  1  6  0  0  0
 19 25  1  0  0  0  0
 20  5  1  0  0  0  0
 21  3  1  6  0  0  0
 21 22  1  0  0  0  0
 21 27  1  0  0  0  0
 23 24  1  6  0  0  0
 23 29  1  0  0  0  0
 25 26  1  1  0  0  0
 25 31  1  0  0  0  0
 27  7  1  1  0  0  0
 27 28  1  0  0  0  0
 29 30  1  1  0  0  0
 29 33  1  0  0  0  0
 31 32  1  1  0  0  0
 31 35  1  0  0  0  0
 33 34  1  0  0  0  0
 33 37  1  6  0  0  0
 35 36  1  1  0  0  0
 37 38  1  0  0  0  0
M  END
>  <CHROM.1>
-109.59193756,23.22144124,92.99764621,144.54602979,111.85722302,-109.61923950
136.89349874,7.45935931,-158.08370539,-155.15893745,144.28318159,4.41141745
35.21158749,-0.86618106,-1.07425385,0.07231550,0.59122889

>  <Name>
1nta_lig

>  <RI>
1.05895e+07

>  <Rbt.Current_Directory>
/home/itssahil/PROJECTS/Mol_Feturizer/New_Systems/rnas/1nta

>  <Rbt.Executable>
rbdock ($Id: //depot/dev/client3/rdock/2013.1/src/exe/rbdock.cxx#4 $)

>  <Rbt.Library>
libRbt.so (2013.1, Build901 2013/11/27)

>  <Rbt.Parameter_File>
/export/apps/rDock/src/rDock_2013.1_src/data/scripts/dock_solv.prm

>  <Rbt.Receptor>
prm/blind_docking_100.prm

>  <SCORE>
-25.8898

>  <SCORE.INTER>
-15.9435

>  <SCORE.INTER.CONST>
1

>  <SCORE.INTER.POLAR>
-2.91874

>  <SCORE.INTER.ROT>
11

>  <SCORE.INTER.SOLV>
38.3934

>  <SCORE.INTER.VDW>
-24.631

>  <SCORE.INTER.norm>
-0.398588

>  <SCORE.INTRA>
-11.8696

>  <SCORE.INTRA.DIHEDRAL>
8.18784

>  <SCORE.INTRA.DIHEDRAL.0>
19.0336

>  <SCORE.INTRA.POLAR>
0

>  <SCORE.INTRA.POLAR.0>
0

>  <SCORE.INTRA.REPUL>
0.0243838

>  <SCORE.INTRA.REPUL.0>
0

>  <SCORE.INTRA.SOLV>
-2.95698

>  <SCORE.INTRA.SOLV.lig_0>
-97.5861

>  <SCORE.INTRA.VDW>
-14.607

>  <SCORE.INTRA.VDW.0>
11.7669

>  <SCORE.INTRA.norm>
-0.296741

>  <SCORE.RESTR>
1.92338

>  <SCORE.RESTR.CAVITY>
1.92338

>  <SCORE.RESTR.norm>
0.0480845

>  <SCORE.SYSTEM>
0

>  <SCORE.SYSTEM.CONST>
0

>  <SCORE.SYSTEM.DIHEDRAL>
0

>  <SCORE.SYSTEM.SOLV>
0

>  <SCORE.SYSTEM.norm>
0

>  <SCORE.heavy>
40

>  <SCORE.norm>
-0.647245

>  <RMSD>
5.249

$$$$
1nta_lig
 OpenBabel11021811403D
libRbt.so/2013.1/901 2013/11/27
 40 42  0  0  0  0  0  0  0  0999 V2000
   10.4508   31.2622   -3.1394 C   0  0  0  0  0  0  0  0  0  0  0  0
   10.8731   30.4731   -2.2234 N   0  0  0  0  0  0  0  0  0  0  0  0
    3.0591   35.5713    1.9782 C   0  0  0  0  0  0  0  0  0  0  0  0
    1.9770   35.0417    2.1032 O   0  0  0  0  0  0  0  0  0  0  0  0
    4.6328   32.9931   -3.9559 C   0  0  0  0  0  0  0  0  0  0  0  0
    3.4218   32.7002   -3.5593 N   0  0  0  0  0  0  0  0  0  0  0  0
    5.3977   37.8902    1.5140 C   0  0  0  0  0  0  0  0  0  0  0  0
    1.3025   32.3740   -0.3873 C   0  0  0  0  0  0  0  0  0  0  0  0
    8.7901   32.5927   -2.1038 C   0  0  2  0  0  0  0  0  0  0  0  0
   10.1611   32.4927   -2.7437 N   0  0  0  0  0  0  0  0  0  0  0  0
    4.5687   35.5936   -1.1184 C   0  0  2  0  0  0  0  0  0  0  0  0
    1.8033   34.9644   -2.0860 C   0  0  1  0  0  0  0  0  0  0  0  0
    2.2654   35.9909   -1.2796 O   0  0  0  0  0  0  0  0  0  0  0  0
    7.7812   33.1872   -3.1046 C   0  0  1  0  0  0  0  0  0  0  0  0
    7.6839   32.2920   -4.1711 O   0  0  0  0  0  0  0  0  0  0  0  0
    3.2045   35.5940   -0.4371 C   0  0  2  0  0  0  0  0  0  0  0  0
    0.5862   34.2308   -1.5671 C   0  0  1  0  0  0  0  0  0  0  0  0
    0.8664   33.7542   -0.2570 N   0  0  0  0  0  0  0  0  0  0  0  0
    6.3778   33.3337   -2.5017 C   0  0  2  0  0  0  0  0  0  0  0  0
    5.3809   33.9079   -3.4369 N   0  0  0  0  0  0  0  0  0  0  0  0
    3.4959   36.3649    0.7760 C   0  0  1  0  0  0  0  0  0  0  0  0
    2.7960   37.6061    0.6674 O   0  0  0  0  0  0  0  0  0  0  0  0
   -0.5183   35.0694   -1.5149 C   0  0  2  0  0  0  0  0  0  0  0  0
   -1.6539   34.2658   -1.3157 O   0  0  0  0  0  0  0  0  0  0  0  0
    6.4826   34.2263   -1.2753 C   0  0  1  0  0  0  0  0  0  0  0  0
    5.1832   34.3555   -0.7199 O   0  0  0  0  0  0  0  0  0  0  0  0
    4.9362   36.6461    0.8203 C   0  0  1  0  0  0  0  0  0  0  0  0
    5.3330   36.6296   -0.5455 O   0  0  0  0  0  0  0  0  0  0  0  0
   -0.6610   35.8295   -2.8074 C   0  0  1  0  0  0  0  0  0  0  0  0
   -1.6225   36.8297   -2.6419 O   0  0  0  0  0  0  0  0  0  0  0  0
    7.4668   33.6067   -0.2427 C   0  0  2  0  0  0  0  0  0  0  0  0
    7.5437   34.4523    0.9038 O   0  0  0  0  0  0  0  0  0  0  0  0
    0.6350   36.4787   -3.1559 C   0  0  1  0  0  0  0  0  0  0  0  0
    1.5882   35.4693   -3.3227 O   0  0  0  0  0  0  0  0  0  0  0  0
    8.8654   33.4855   -0.8834 C   0  0  1  0  0  0  0  0  0  0  0  0
    9.7906   32.9152    0.0565 O   0  0  0  0  0  0  0  0  0  0  0  0
    0.5348   37.2516   -4.4859 C   0  0  0  0  0  0  0  0  0  0  0  0
    0.0014   36.3926   -5.4873 O   0  0  0  0  0  0  0  0  0  0  0  0
   10.3107   30.8873   -4.3649 N   0  0  0  0  0  0  0  0  0  0  0  0
    5.1632   32.3340   -4.9102 N   0  0  0  0  0  0  0  0  0  0  0  0
  1  2  1  0  0  0  0
  1 39  1  0  0  0  0
  3  4  1  0  0  0  0
  5  6  1  0  0  0  0
  5 40  1  0  0  0  0
  9 10  1  6  0  0  0
  9 14  1  0  0  0  0
  9 35  1  0  0  0  0
 10  1  1  0  0  0  0
 11 16  1  0  0  0  0
 11 28  1  0  0  0  0
 11 26  1  1  0  0  0
 12 17  1  0  0  0  0
 12 34  1  0  0  0  0
 12 13  1  1  0  0  0
 14 15  1  6  0  0  0
 14 19  1  0  0  0  0
 16 13  1  6  0  0  0
 16 21  1  0  0  0  0
 17 18  1  1  0  0  0
 17 23  1  0  0  0  0
 18  8  1  0  0  0  0
 19 20  1  6  0  0  0
 19 25  1  0  0  0  0
 20  5  1  0  0  0  0
 21  3  1  1  0  0  0
 21 22  1  0  0  0  0
 21 27  1  0  0  0  0
 23 24  1  6  0  0  0
 23 29  1  0  0  0  0
 25 26  1  1  0  0  0
 25 31  1  0  0  0  0
 27  7  1  6  0  0  0
 27 28  1  0  0  0  0
 29 30  1  1  0  0  0
 29 33  1  0  0  0  0
 31 32  1  1  0  0  0
 31 35  1  0  0  0  0
 33 34  1  0  0  0  0
 33 37  1  6  0  0  0
 35 36  1  1  0  0  0
 37 38  1  0  0  0  0
M  END
>  <CHROM.1>
-101.67593482,-81.08746855,-179.30665886,92.89974816,83.55157480,-95.96208454
100.52907834,100.07072443,-49.02300875,-99.19572260,-51.82199147,4.35502506
34.46417143,-1.65447210,0.20183200,0.31504049,-2.02835333

>  <Name>
1nta_lig

>  <RI>
0

>  <Rbt.Current_Directory>
/home/itssahil/PROJECTS/Mol_Feturizer/New_Systems/rnas/1nta

>  <Rbt.Executable>
rbdock ($Id: //depot/dev/client3/rdock/2013.1/src/exe/rbdock.cxx#4 $)

>  <Rbt.Library>
libRbt.so (2013.1, Build901 2013/11/27)

>  <Rbt.Parameter_File>
/export/apps/rDock/src/rDock_2013.1_src/data/scripts/dock_solv.prm

>  <Rbt.Receptor>
prm/pocket_docking_4.prm

>  <SCORE>
-24.7627

>  <SCORE.INTER>
-5.27404

>  <SCORE.INTER.CONST>
1

>  <SCORE.INTER.POLAR>
-1.63467

>  <SCORE.INTER.ROT>
11

>  <SCORE.INTER.SOLV>
36.3434

>  <SCORE.INTER.VDW>
-21.1149

>  <SCORE.INTER.norm>
-0.131851

>  <SCORE.INTRA>
-19.4914

>  <SCORE.INTRA.DIHEDRAL>
-2.64527

>  <SCORE.INTRA.DIHEDRAL.0>
19.0336

>  <SCORE.INTRA.POLAR>
0

>  <SCORE.INTRA.POLAR.0>
0

>  <SCORE.INTRA.REPUL>
0.000130811

>  <SCORE.INTRA.REPUL.0>
0

>  <SCORE.INTRA.SOLV>
-0.120043

>  <SCORE.INTRA.SOLV.lig_0>
-97.5861

>  <SCORE.INTRA.VDW>
-18.1094

>  <SCORE.INTRA.VDW.0>
11.7669

>  <SCORE.INTRA.norm>
-0.487285

>  <SCORE.RESTR>
0.00278781

>  <SCORE.RESTR.CAVITY>
0.00278781

>  <SCORE.RESTR.norm>
6.96953e-05

>  <SCORE.SYSTEM>
0

>  <SCORE.SYSTEM.CONST>
0

>  <SCORE.SYSTEM.DIHEDRAL>
0

>  <SCORE.SYSTEM.SOLV>
0

>  <SCORE.SYSTEM.norm>
0

>  <SCORE.heavy>
40

>  <SCORE.norm>
-0.619067

>  <RMSD>
5.320

$$$$
1nta_lig
 OpenBabel11021811403D
libRbt.so/2013.1/901 2013/11/27
 40 42  0  0  0  0  0  0  0  0999 V2000
    4.8150   33.5901   -2.1647 C   0  0  0  0  0  0  0  0  0  0  0  0
    5.8880   34.2679   -2.3363 N   0  0  0  0  0  0  0  0  0  0  0  0
   -3.9853   37.2881    0.6945 C   0  0  0  0  0  0  0  0  0  0  0  0
   -3.8308   36.5894    1.6718 O   0  0  0  0  0  0  0  0  0  0  0  0
    2.1299   38.4261    1.1815 C   0  0  0  0  0  0  0  0  0  0  0  0
    3.1955   38.7525    0.4976 N   0  0  0  0  0  0  0  0  0  0  0  0
   -2.0687   40.0054    0.7614 C   0  0  0  0  0  0  0  0  0  0  0  0
   -3.6668   32.8330   -3.0351 C   0  0  0  0  0  0  0  0  0  0  0  0
    3.0262   34.4529   -0.8778 C   0  0  2  0  0  0  0  0  0  0  0  0
    4.3009   33.6346   -0.9447 N   0  0  0  0  0  0  0  0  0  0  0  0
   -0.7628   36.8908   -0.4571 C   0  0  2  0  0  0  0  0  0  0  0  0
   -1.6591   35.2970   -2.5500 C   0  0  1  0  0  0  0  0  0  0  0  0
   -2.3384   36.4275   -2.1280 O   0  0  0  0  0  0  0  0  0  0  0  0
    3.0901   35.4357    0.3068 C   0  0  1  0  0  0  0  0  0  0  0  0
    4.1430   36.3163    0.0541 O   0  0  0  0  0  0  0  0  0  0  0  0
   -2.2202   36.6377   -0.8276 C   0  0  2  0  0  0  0  0  0  0  0  0
   -2.2861   34.5611   -3.7136 C   0  0  1  0  0  0  0  0  0  0  0  0
   -3.6317   34.2444   -3.3799 N   0  0  0  0  0  0  0  0  0  0  0  0
    1.8130   36.2763    0.4377 C   0  0  2  0  0  0  0  0  0  0  0  0
    1.8379   37.2311    1.5717 N   0  0  0  0  0  0  0  0  0  0  0  0
   -2.8756   37.7857   -0.1925 C   0  0  1  0  0  0  0  0  0  0  0  0
   -3.3606   38.6290   -1.2393 O   0  0  0  0  0  0  0  0  0  0  0  0
   -2.2782   35.3414   -4.8612 C   0  0  2  0  0  0  0  0  0  0  0  0
   -2.5928   34.5057   -5.9464 O   0  0  0  0  0  0  0  0  0  0  0  0
    0.6391   35.3259    0.6120 C   0  0  1  0  0  0  0  0  0  0  0  0
   -0.5392   36.1080    0.7289 O   0  0  0  0  0  0  0  0  0  0  0  0
   -1.8738   38.5321    0.5788 C   0  0  1  0  0  0  0  0  0  0  0  0
   -0.6464   38.2433   -0.0793 O   0  0  0  0  0  0  0  0  0  0  0  0
   -0.9162   35.9487   -5.0728 C   0  0  1  0  0  0  0  0  0  0  0  0
   -0.9997   36.9092   -6.0842 O   0  0  0  0  0  0  0  0  0  0  0  0
    0.5443   34.3608   -0.6039 C   0  0  2  0  0  0  0  0  0  0  0  0
   -0.5679   33.4850   -0.4271 O   0  0  0  0  0  0  0  0  0  0  0  0
   -0.4654   36.6234   -3.8222 C   0  0  1  0  0  0  0  0  0  0  0  0
   -0.3818   35.6532   -2.8187 O   0  0  0  0  0  0  0  0  0  0  0  0
    1.8409   33.5290   -0.6945 C   0  0  1  0  0  0  0  0  0  0  0  0
    1.7724   32.6292   -1.8127 O   0  0  0  0  0  0  0  0  0  0  0  0
    0.9364   37.2415   -3.9929 C   0  0  0  0  0  0  0  0  0  0  0  0
    1.9016   36.1986   -4.0682 O   0  0  0  0  0  0  0  0  0  0  0  0
    4.2708   32.9049   -3.1115 N   0  0  0  0  0  0  0  0  0  0  0  0
    1.3005   39.3298    1.5308 N   0  0  0  0  0  0  0  0  0  0  0  0
  1  2  1  0  0  0  0
  1 39  1  0  0  0  0
  3  4  1  0  0  0  0
  5  6  1  0  0  0  0
  5 40  1  0  0  0  0
  9 10  1  1  0  0  0
  9 14  1  0  0  0  0
  9 35  1  0  0  0  0
 10  1  1  0  0  0  0
 11 16  1  0  0  0  0
 11 28  1  0  0  0  0
 11 26  1  1  0  0  0
 12 17  1  0  0  0  0
 12 34  1  0  0  0  0
 12 13  1  6  0  0  0
 14 15  1  6  0  0  0
 14 19  1  0  0  0  0
 16 13  1  6  0  0  0
 16 21  1  0  0  0  0
 17 18  1  1  0  0  0
 17 23  1  0  0  0  0
 18  8  1  0  0  0  0
 19 20  1  1  0  0  0
 19 25  1  0  0  0  0
 20  5  1  0  0  0  0
 21  3  1  1  0  0  0
 21 22  1  0  0  0  0
 21 27  1  0  0  0  0
 23 24  1  6  0  0  0
 23 29  1  0  0  0  0
 25 26  1  6  0  0  0
 25 31  1  0  0  0  0
 27  7  1  6  0  0  0
 27 28  1  0  0  0  0
 29 30  1  6  0  0  0
 29 33  1  0  0  0  0
 31 32  1  1  0  0  0
 31 35  1  0  0  0  0
 33 34  1  0  0  0  0
 33 37  1  6  0  0  0
 35 36  1  6  0  0  0
 37 38  1  0  0  0  0
M  END
>  <CHROM.1>
-132.11361266,108.09690203,130.80340600,147.79566781,62.83505606,-103.12326146
99.75799970,-54.94991413,63.53262598,61.39310498,-70.71591079,0.05027433
35.96416628,-1.43698025,0.05409701,0.27778319,-2.19058806

>  <Name>
1nta_lig

>  <RI>
0

>  <Rbt.Current_Directory>
/home/itssahil/PROJECTS/Mol_Feturizer/New_Systems/rnas/1nta

>  <Rbt.Executable>
rbdock ($Id: //depot/dev/client3/rdock/2013.1/src/exe/rbdock.cxx#4 $)

>  <Rbt.Library>
libRbt.so (2013.1, Build901 2013/11/27)

>  <Rbt.Parameter_File>
/export/apps/rDock/src/rDock_2013.1_src/data/scripts/dock_solv.prm

>  <Rbt.Receptor>
prm/pocket_docking_3.prm

>  <SCORE>
-12.9015

>  <SCORE.INTER>
4.75502

>  <SCORE.INTER.CONST>
1

>  <SCORE.INTER.POLAR>
-1.32366

>  <SCORE.INTER.ROT>
11

>  <SCORE.INTER.SOLV>
15.3527

>  <SCORE.INTER.VDW>
-8.46866

>  <SCORE.INTER.norm>
0.118875

>  <SCORE.INTRA>
-17.8576

>  <SCORE.INTRA.DIHEDRAL>
-3.78552

>  <SCORE.INTRA.DIHEDRAL.0>
19.0336

>  <SCORE.INTRA.POLAR>
0

>  <SCORE.INTRA.POLAR.0>
0

>  <SCORE.INTRA.REPUL>
0

>  <SCORE.INTRA.REPUL.0>
0

>  <SCORE.INTRA.SOLV>
-0.207728

>  <SCORE.INTRA.SOLV.lig_0>
-97.5861

>  <SCORE.INTRA.VDW>
-15.861

>  <SCORE.INTRA.VDW.0>
11.7669

>  <SCORE.INTRA.norm>
-0.446441

>  <SCORE.RESTR>
0.201129

>  <SCORE.RESTR.CAVITY>
0.201129

>  <SCORE.RESTR.norm>
0.00502822

>  <SCORE.SYSTEM>
0

>  <SCORE.SYSTEM.CONST>
0

>  <SCORE.SYSTEM.DIHEDRAL>
0

>  <SCORE.SYSTEM.SOLV>
0

>  <SCORE.SYSTEM.norm>
0

>  <SCORE.heavy>
40

>  <SCORE.norm>
-0.322537

>  <RMSD>
5.345

$$$$
1nta_lig
 OpenBabel11021811403D
libRbt.so/2013.1/901 2013/11/27
 40 42  0  0  0  0  0  0  0  0999 V2000
    5.6610   33.0797   -1.4711 C   0  0  0  0  0  0  0  0  0  0  0  0
    5.2019   32.6479   -2.5860 N   0  0  0  0  0  0  0  0  0  0  0  0
   -0.9643   38.4778    3.5667 C   0  0  0  0  0  0  0  0  0  0  0  0
   -0.4864   37.4555    4.0069 O   0  0  0  0  0  0  0  0  0  0  0  0
   -0.3746   34.6280   -1.1389 C   0  0  0  0  0  0  0  0  0  0  0  0
   -0.8326   33.6361   -1.8574 N   0  0  0  0  0  0  0  0  0  0  0  0
    1.4294   40.5859    2.6249 C   0  0  0  0  0  0  0  0  0  0  0  0
   -5.4114   36.5775    0.3732 C   0  0  0  0  0  0  0  0  0  0  0  0
    4.2741   34.7014   -0.4478 C   0  0  2  0  0  0  0  0  0  0  0  0
    5.5143   34.3789   -1.2583 N   0  0  0  0  0  0  0  0  0  0  0  0
    0.2548   38.0479    0.3734 C   0  0  2  0  0  0  0  0  0  0  0  0
   -2.4647   37.5123   -0.4383 C   0  0  1  0  0  0  0  0  0  0  0  0
   -2.0321   38.5567    0.3615 O   0  0  0  0  0  0  0  0  0  0  0  0
    3.0621   34.8763   -1.3824 C   0  0  1  0  0  0  0  0  0  0  0  0
    2.8469   33.6487   -2.0107 O   0  0  0  0  0  0  0  0  0  0  0  0
   -1.0397   38.2078    1.1631 C   0  0  2  0  0  0  0  0  0  0  0  0
   -3.8709   37.6502   -0.9791 C   0  0  1  0  0  0  0  0  0  0  0  0
   -4.7606   37.8504    0.1120 N   0  0  0  0  0  0  0  0  0  0  0  0
    1.7799   35.2282   -0.6163 C   0  0  2  0  0  0  0  0  0  0  0  0
    0.5928   35.4086   -1.4859 N   0  0  0  0  0  0  0  0  0  0  0  0
   -0.6023   39.0977    2.2437 C   0  0  1  0  0  0  0  0  0  0  0  0
   -1.2493   40.3560    2.0440 O   0  0  0  0  0  0  0  0  0  0  0  0
   -3.9697   38.7301   -1.8452 C   0  0  2  0  0  0  0  0  0  0  0  0
   -5.1946   38.6198   -2.5251 O   0  0  0  0  0  0  0  0  0  0  0  0
    2.0309   36.5128    0.1574 C   0  0  1  0  0  0  0  0  0  0  0  0
    0.8437   36.8316    0.8665 O   0  0  0  0  0  0  0  0  0  0  0  0
    0.8478   39.2979    2.1304 C   0  0  1  0  0  0  0  0  0  0  0  0
    1.1167   39.0978    0.7481 O   0  0  0  0  0  0  0  0  0  0  0  0
   -2.8390   38.7095   -2.8400 C   0  0  1  0  0  0  0  0  0  0  0  0
   -2.8241   39.9213   -3.5354 O   0  0  0  0  0  0  0  0  0  0  0  0
    3.2262   36.3263    1.1348 C   0  0  2  0  0  0  0  0  0  0  0  0
    3.4391   37.5374    1.8581 O   0  0  0  0  0  0  0  0  0  0  0  0
   -1.5397   38.5649   -2.1233 C   0  0  1  0  0  0  0  0  0  0  0  0
   -1.5640   37.3482   -1.4344 O   0  0  0  0  0  0  0  0  0  0  0  0
    4.4949   35.9838    0.3260 C   0  0  1  0  0  0  0  0  0  0  0  0
    5.6122   35.8084    1.2123 O   0  0  0  0  0  0  0  0  0  0  0  0
   -0.3569   38.5194   -3.1109 C   0  0  0  0  0  0  0  0  0  0  0  0
    0.8586   38.4031   -2.3801 O   0  0  0  0  0  0  0  0  0  0  0  0
    6.2328   32.3064   -0.6124 N   0  0  0  0  0  0  0  0  0  0  0  0
   -0.9106   34.8942   -0.0127 N   0  0  0  0  0  0  0  0  0  0  0  0
  1  2  1  0  0  0  0
  1 39  1  0  0  0  0
  3  4  1  0  0  0  0
  5  6  1  0  0  0  0
  5 40  1  0  0  0  0
  9 10  1  6  0  0  0
  9 14  1  0  0  0  0
  9 35  1  0  0  0  0
 10  1  1  0  0  0  0
 11 16  1  0  0  0  0
 11 28  1  0  0  0  0
 11 26  1  1  0  0  0
 12 17  1  0  0  0  0
 12 34  1  0  0  0  0
 12 13  1  6  0  0  0
 14 15  1  1  0  0  0
 14 19  1  0  0  0  0
 16 13  1  6  0  0  0
 16 21  1  0  0  0  0
 17 18  1  1  0  0  0
 17 23  1  0  0  0  0
 18  8  1  0  0  0  0
 19 20  1  6  0  0  0
 19 25  1  0  0  0  0
 20  5  1  0  0  0  0
 21  3  1  1  0  0  0
 21 22  1  0  0  0  0
 21 27  1  0  0  0  0
 23 24  1  6  0  0  0
 23 29  1  0  0  0  0
 25 26  1  1  0  0  0
 25 31  1  0  0  0  0
 27  7  1  6  0  0  0
 27 28  1  0  0  0  0
 29 30  1  1  0  0  0
 29 33  1  0  0  0  0
 31 32  1  6  0  0  0
 31 35  1  0  0  0  0
 33 34  1  0  0  0  0
 33 37  1  6  0  0  0
 35 36  1  1  0  0  0
 37 38  1  0  0  0  0
M  END
>  <CHROM.1>
-87.93183097,95.37334437,176.57295130,157.98973213,73.31091839,-101.32733425
123.78297501,-113.11236282,66.17853033,-114.05340458,179.06201834,0.37811356
36.94090817,-0.25713482,0.30171688,0.40508028,-2.22953721

>  <Name>
1nta_lig

>  <RI>
0

>  <Rbt.Current_Directory>
/home/itssahil/PROJECTS/Mol_Feturizer/New_Systems/rnas/1nta

>  <Rbt.Executable>
rbdock ($Id: //depot/dev/client3/rdock/2013.1/src/exe/rbdock.cxx#4 $)

>  <Rbt.Library>
libRbt.so (2013.1, Build901 2013/11/27)

>  <Rbt.Parameter_File>
/export/apps/rDock/src/rDock_2013.1_src/data/scripts/dock_solv.prm

>  <Rbt.Receptor>
prm/pocket_docking_4.prm

>  <SCORE>
-13.2023

>  <SCORE.INTER>
6.50721

>  <SCORE.INTER.CONST>
1

>  <SCORE.INTER.POLAR>
-0.8

>  <SCORE.INTER.ROT>
11

>  <SCORE.INTER.SOLV>
12.8321

>  <SCORE.INTER.VDW>
-8.2059

>  <SCORE.INTER.norm>
0.16268

>  <SCORE.INTRA>
-19.8861

>  <SCORE.INTRA.DIHEDRAL>
-5.06157

>  <SCORE.INTRA.DIHEDRAL.0>
19.0336

>  <SCORE.INTRA.POLAR>
0

>  <SCORE.INTRA.POLAR.0>
0

>  <SCORE.INTRA.REPUL>
0.00187918

>  <SCORE.INTRA.REPUL.0>
0

>  <SCORE.INTRA.SOLV>
1.21672

>  <SCORE.INTRA.SOLV.lig_0>
-97.5861

>  <SCORE.INTRA.VDW>
-17.9731

>  <SCORE.INTRA.VDW.0>
11.7669

>  <SCORE.INTRA.norm>
-0.497153

>  <SCORE.RESTR>
0.176629

>  <SCORE.RESTR.CAVITY>
0.176629

>  <SCORE.RESTR.norm>
0.00441572

>  <SCORE.SYSTEM>
0

>  <SCORE.SYSTEM.CONST>
0

>  <SCORE.SYSTEM.DIHEDRAL>
0

>  <SCORE.SYSTEM.SOLV>
0

>  <SCORE.SYSTEM.norm>
0

>  <SCORE.heavy>
40

>  <SCORE.norm>
-0.330057

>  <RMSD>
5.394

$$$$
1nta_lig
 OpenBabel11021811403D
libRbt.so/2013.1/901 2013/11/27
 40 42  0  0  0  0  0  0  0  0999 V2000
   11.0981   32.8116   -2.6197 C   0  0  0  0  0  0  0  0  0  0  0  0
   12.1492   32.7286   -3.3466 N   0  0  0  0  0  0  0  0  0  0  0  0
    1.9122   34.9014   -2.5424 C   0  0  0  0  0  0  0  0  0  0  0  0
    2.1005   34.5036   -3.6710 O   0  0  0  0  0  0  0  0  0  0  0  0
    6.4518   31.3929   -5.5612 C   0  0  0  0  0  0  0  0  0  0  0  0
    6.9118   31.5285   -6.7777 N   0  0  0  0  0  0  0  0  0  0  0  0
    1.3585   32.0650   -0.8964 C   0  0  0  0  0  0  0  0  0  0  0  0
    1.0747   37.9420   -1.0015 C   0  0  0  0  0  0  0  0  0  0  0  0
    9.0836   31.6844   -2.0981 C   0  0  2  0  0  0  0  0  0  0  0  0
   10.5956   31.6569   -2.2089 N   0  0  0  0  0  0  0  0  0  0  0  0
    4.6580   33.4746   -1.0280 C   0  0  2  0  0  0  0  0  0  0  0  0
    4.1526   36.9399   -0.5436 C   0  0  1  0  0  0  0  0  0  0  0  0
    4.2116   35.6081   -0.1690 O   0  0  0  0  0  0  0  0  0  0  0  0
    8.4581   31.9934   -3.4714 C   0  0  1  0  0  0  0  0  0  0  0  0
    8.7986   30.9423   -4.3242 O   0  0  0  0  0  0  0  0  0  0  0  0
    3.8914   34.7866   -1.1548 C   0  0  2  0  0  0  0  0  0  0  0  0
    3.0789   37.7580    0.1396 C   0  0  1  0  0  0  0  0  0  0  0  0
    1.8234   37.1219   -0.0640 N   0  0  0  0  0  0  0  0  0  0  0  0
    6.9259   32.0571   -3.4142 C   0  0  2  0  0  0  0  0  0  0  0  0
    6.2897   32.3575   -4.7192 N   0  0  0  0  0  0  0  0  0  0  0  0
    2.5172   34.2965   -1.3040 C   0  0  1  0  0  0  0  0  0  0  0  0
    1.8050   34.6662   -0.1215 O   0  0  0  0  0  0  0  0  0  0  0  0
    3.3178   37.8573    1.5031 C   0  0  2  0  0  0  0  0  0  0  0  0
    2.4698   38.8557    2.0122 O   0  0  0  0  0  0  0  0  0  0  0  0
    6.5361   33.1308   -2.4107 C   0  0  1  0  0  0  0  0  0  0  0  0
    5.1189   33.1829   -2.3592 O   0  0  0  0  0  0  0  0  0  0  0  0
    2.5469   32.8310   -1.3892 C   0  0  1  0  0  0  0  0  0  0  0  0
    3.7310   32.4688   -0.6894 O   0  0  0  0  0  0  0  0  0  0  0  0
    4.7525   38.2387    1.7575 C   0  0  1  0  0  0  0  0  0  0  0  0
    5.0251   38.0966    3.1205 O   0  0  0  0  0  0  0  0  0  0  0  0
    7.1290   32.7990   -1.0117 C   0  0  2  0  0  0  0  0  0  0  0  0
    6.7441   33.8110   -0.0827 O   0  0  0  0  0  0  0  0  0  0  0  0
    5.6580   37.3271    1.0013 C   0  0  1  0  0  0  0  0  0  0  0  0
    5.3795   37.4801   -0.3604 O   0  0  0  0  0  0  0  0  0  0  0  0
    8.6682   32.7538   -1.1101 C   0  0  1  0  0  0  0  0  0  0  0  0
    9.2357   32.4491    0.1744 O   0  0  0  0  0  0  0  0  0  0  0  0
    7.1379   37.6987    1.2205 C   0  0  0  0  0  0  0  0  0  0  0  0
    7.9628   36.6694    0.6866 O   0  0  0  0  0  0  0  0  0  0  0  0
   10.5586   33.9409   -2.3100 N   0  0  0  0  0  0  0  0  0  0  0  0
    6.1029   30.2404   -5.1411 N   0  0  0  0  0  0  0  0  0  0  0  0
  1  2  1  0  0  0  0
  1 39  1  0  0  0  0
  3  4  1  0  0  0  0
  5  6  1  0  0  0  0
  5 40  1  0  0  0  0
  9 10  1  6  0  0  0
  9 14  1  0  0  0  0
  9 35  1  0  0  0  0
 10  1  1  0  0  0  0
 11 16  1  0  0  0  0
 11 28  1  0  0  0  0
 11 26  1  6  0  0  0
 12 17  1  0  0  0  0
 12 34  1  0  0  0  0
 12 13  1  1  0  0  0
 14 15  1  6  0  0  0
 14 19  1  0  0  0  0
 16 13  1  1  0  0  0
 16 21  1  0  0  0  0
 17 18  1  1  0  0  0
 17 23  1  0  0  0  0
 18  8  1  0  0  0  0
 19 20  1  6  0  0  0
 19 25  1  0  0  0  0
 20  5  1  0  0  0  0
 21  3  1  6  0  0  0
 21 22  1  0  0  0  0
 21 27  1  0  0  0  0
 23 24  1  6  0  0  0
 23 29  1  0  0  0  0
 25 26  1  1  0  0  0
 25 31  1  0  0  0  0
 27  7  1  1  0  0  0
 27 28  1  0  0  0  0
 29 30  1  1  0  0  0
 29 33  1  0  0  0  0
 31 32  1  1  0  0  0
 31 35  1  0  0  0  0
 33 34  1  0  0  0  0
 33 37  1  6  0  0  0
 35 36  1  1  0  0  0
 37 38  1  0  0  0  0
M  END
>  <CHROM.1>
60.29476068,-146.58801444,119.04220788,113.72975413,148.43396191,-108.35979173
67.17494164,-128.82514692,80.52889361,144.81133182,169.51922456,5.65117237
34.35521785,-1.36880791,-0.84977860,-0.11483502,0.75485778

>  <Name>
1nta_lig

>  <RI>
2.40834e+07

>  <Rbt.Current_Directory>
/home/itssahil/PROJECTS/Mol_Feturizer/New_Systems/rnas/1nta

>  <Rbt.Executable>
rbdock ($Id: //depot/dev/client3/rdock/2013.1/src/exe/rbdock.cxx#4 $)

>  <Rbt.Library>
libRbt.so (2013.1, Build901 2013/11/27)

>  <Rbt.Parameter_File>
/export/apps/rDock/src/rDock_2013.1_src/data/scripts/dock_solv.prm

>  <Rbt.Receptor>
prm/blind_docking_80.prm

>  <SCORE>
14.2275

>  <SCORE.INTER>
10.8092

>  <SCORE.INTER.CONST>
1

>  <SCORE.INTER.POLAR>
-1.39808

>  <SCORE.INTER.ROT>
11

>  <SCORE.INTER.SOLV>
47.3026

>  <SCORE.INTER.VDW>
-14.8344

>  <SCORE.INTER.norm>
0.270231

>  <SCORE.INTRA>
1.85264

>  <SCORE.INTRA.DIHEDRAL>
7.20698

>  <SCORE.INTRA.DIHEDRAL.0>
19.0336

>  <SCORE.INTRA.POLAR>
0

>  <SCORE.INTRA.POLAR.0>
0

>  <SCORE.INTRA.REPUL>
0.0152266

>  <SCORE.INTRA.REPUL.0>
0

>  <SCORE.INTRA.SOLV>
-0.267404

>  <SCORE.INTRA.SOLV.lig_0>
-97.5861

>  <SCORE.INTRA.VDW>
-1.69328

>  <SCORE.INTRA.VDW.0>
11.7669

>  <SCORE.INTRA.norm>
0.0463159

>  <SCORE.RESTR>
1.56566

>  <SCORE.RESTR.CAVITY>
1.56566

>  <SCORE.RESTR.norm>
0.0391416

>  <SCORE.SYSTEM>
0

>  <SCORE.SYSTEM.CONST>
0

>  <SCORE.SYSTEM.DIHEDRAL>
0

>  <SCORE.SYSTEM.SOLV>
0

>  <SCORE.SYSTEM.norm>
0

>  <SCORE.heavy>
40

>  <SCORE.norm>
0.355689

>  <RMSD>
5.402

$$$$
1nta_lig
 OpenBabel11021811403D
libRbt.so/2013.1/901 2013/11/27
 40 42  0  0  0  0  0  0  0  0999 V2000
   11.1987   31.7113   -2.6646 C   0  0  0  0  0  0  0  0  0  0  0  0
   11.3216   31.2120   -3.8375 N   0  0  0  0  0  0  0  0  0  0  0  0
    1.4184   33.9322   -1.5494 C   0  0  0  0  0  0  0  0  0  0  0  0
    1.7921   33.5217   -2.6260 O   0  0  0  0  0  0  0  0  0  0  0  0
    5.5202   32.0530   -4.9243 C   0  0  0  0  0  0  0  0  0  0  0  0
    5.0886   32.3635   -6.1189 N   0  0  0  0  0  0  0  0  0  0  0  0
    1.4114   31.6792    0.8971 C   0  0  0  0  0  0  0  0  0  0  0  0
    1.6276   38.3099   -1.5752 C   0  0  0  0  0  0  0  0  0  0  0  0
    8.9725   32.3453   -2.1722 C   0  0  2  0  0  0  0  0  0  0  0  0
   10.3795   32.7478   -2.5686 N   0  0  0  0  0  0  0  0  0  0  0  0
    4.4458   33.3743   -0.0028 C   0  0  2  0  0  0  0  0  0  0  0  0
    4.1388   36.6336   -0.5827 C   0  0  1  0  0  0  0  0  0  0  0  0
    3.7470   35.5965    0.2471 O   0  0  0  0  0  0  0  0  0  0  0  0
    7.9700   32.7923   -3.2531 C   0  0  1  0  0  0  0  0  0  0  0  0
    8.2916   32.1021   -4.4228 O   0  0  0  0  0  0  0  0  0  0  0  0
    3.4848   34.4833   -0.4172 C   0  0  2  0  0  0  0  0  0  0  0  0
    3.5146   37.9777   -0.2785 C   0  0  1  0  0  0  0  0  0  0  0  0
    2.0999   37.8346   -0.2856 N   0  0  0  0  0  0  0  0  0  0  0  0
    6.5229   32.4308   -2.8927 C   0  0  2  0  0  0  0  0  0  0  0  0
    5.5294   32.8509   -3.9098 N   0  0  0  0  0  0  0  0  0  0  0  0
    2.1922   33.8075   -0.2643 C   0  0  1  0  0  0  0  0  0  0  0  0
    1.5175   34.4271    0.8324 O   0  0  0  0  0  0  0  0  0  0  0  0
    3.9141   38.4441    0.9660 C   0  0  2  0  0  0  0  0  0  0  0  0
    3.5464   39.7978    1.0515 O   0  0  0  0  0  0  0  0  0  0  0  0
    6.1882   33.0934   -1.5657 C   0  0  1  0  0  0  0  0  0  0  0  0
    4.8507   32.7530   -1.2356 O   0  0  0  0  0  0  0  0  0  0  0  0
    2.4345   32.3997    0.0748 C   0  0  1  0  0  0  0  0  0  0  0  0
    3.7056   32.4124    0.7130 O   0  0  0  0  0  0  0  0  0  0  0  0
    5.4073   38.3183    1.1185 C   0  0  1  0  0  0  0  0  0  0  0  0
    5.7499   38.5644    2.4506 O   0  0  0  0  0  0  0  0  0  0  0  0
    7.1709   32.6103   -0.4613 C   0  0  2  0  0  0  0  0  0  0  0  0
    6.8347   33.2341    0.7769 O   0  0  0  0  0  0  0  0  0  0  0  0
    5.8340   36.9321    0.7737 C   0  0  1  0  0  0  0  0  0  0  0  0
    5.4901   36.6979   -0.5613 O   0  0  0  0  0  0  0  0  0  0  0  0
    8.6106   33.0007   -0.8563 C   0  0  1  0  0  0  0  0  0  0  0  0
    9.5347   32.5632    0.1534 O   0  0  0  0  0  0  0  0  0  0  0  0
    7.3618   36.7686    0.8984 C   0  0  0  0  0  0  0  0  0  0  0  0
    7.7263   35.4541    0.4933 O   0  0  0  0  0  0  0  0  0  0  0  0
   11.8317   31.2432   -1.6436 N   0  0  0  0  0  0  0  0  0  0  0  0
    5.9526   30.8756   -4.6936 N   0  0  0  0  0  0  0  0  0  0  0  0
  1  2  1  0  0  0  0
  1 39  1  0  0  0  0
  3  4  1  0  0  0  0
  5  6  1  0  0  0  0
  5 40  1  0  0  0  0
  9 10  1  6  0  0  0
  9 14  1  0  0  0  0
  9 35  1  0  0  0  0
 10  1  1  0  0  0  0
 11 16  1  0  0  0  0
 11 28  1  0  0  0  0
 11 26  1  6  0  0  0
 12 17  1  0  0  0  0
 12 34  1  0  0  0  0
 12 13  1  1  0  0  0
 14 15  1  6  0  0  0
 14 19  1  0  0  0  0
 16 13  1  1  0  0  0
 16 21  1  0  0  0  0
 17 18  1  1  0  0  0
 17 23  1  0  0  0  0
 18  8  1  0  0  0  0
 19 20  1  6  0  0  0
 19 25  1  0  0  0  0
 20  5  1  0  0  0  0
 21  3  1  6  0  0  0
 21 22  1  0  0  0  0
 21 27  1  0  0  0  0
 23 24  1  6  0  0  0
 23 29  1  0  0  0  0
 25 26  1  1  0  0  0
 25 31  1  0  0  0  0
 27  7  1  1  0  0  0
 27 28  1  0  0  0  0
 29 30  1  1  0  0  0
 29 33  1  0  0  0  0
 31 32  1  1  0  0  0
 31 35  1  0  0  0  0
 33 34  1  0  0  0  0
 33 37  1  6  0  0  0
 35 36  1  1  0  0  0
 37 38  1  0  0  0  0
M  END
>  <CHROM.1>
-120.99976211,94.06745986,106.97529406,136.21134300,117.12759033,-99.65503354
77.68447823,-157.55276645,59.39250530,-178.49090438,-176.99521400,5.57980369
34.25871932,-1.06007356,-0.77553030,-0.04388314,0.62662516

>  <Name>
1nta_lig

>  <RI>
2.40834e+07

>  <Rbt.Current_Directory>
/home/itssahil/PROJECTS/Mol_Feturizer/New_Systems/rnas/1nta

>  <Rbt.Executable>
rbdock ($Id: //depot/dev/client3/rdock/2013.1/src/exe/rbdock.cxx#4 $)

>  <Rbt.Library>
libRbt.so (2013.1, Build901 2013/11/27)

>  <Rbt.Parameter_File>
/export/apps/rDock/src/rDock_2013.1_src/data/scripts/dock_solv.prm

>  <Rbt.Receptor>
prm/blind_docking_80.prm

>  <SCORE>
-10.6472

>  <SCORE.INTER>
-0.652967

>  <SCORE.INTER.CONST>
1

>  <SCORE.INTER.POLAR>
-1.4681

>  <SCORE.INTER.ROT>
11

>  <SCORE.INTER.SOLV>
41.1255

>  <SCORE.INTER.VDW>
-20.1835

>  <SCORE.INTER.norm>
-0.0163242

>  <SCORE.INTRA>
-11.2464

>  <SCORE.INTRA.DIHEDRAL>
3.95224

>  <SCORE.INTRA.DIHEDRAL.0>
19.0336

>  <SCORE.INTRA.POLAR>
0

>  <SCORE.INTRA.POLAR.0>
0

>  <SCORE.INTRA.REPUL>
0.0814235

>  <SCORE.INTRA.REPUL.0>
0

>  <SCORE.INTRA.SOLV>
-2.84649

>  <SCORE.INTRA.SOLV.lig_0>
-97.5861

>  <SCORE.INTRA.VDW>
-12.2064

>  <SCORE.INTRA.VDW.0>
11.7669

>  <SCORE.INTRA.norm>
-0.281161

>  <SCORE.RESTR>
1.25216

>  <SCORE.RESTR.CAVITY>
1.25216

>  <SCORE.RESTR.norm>
0.0313039

>  <SCORE.SYSTEM>
0

>  <SCORE.SYSTEM.CONST>
0

>  <SCORE.SYSTEM.DIHEDRAL>
0

>  <SCORE.SYSTEM.SOLV>
0

>  <SCORE.SYSTEM.norm>
0

>  <SCORE.heavy>
40

>  <SCORE.norm>
-0.266181

>  <RMSD>
5.402

$$$$
1nta_lig
 OpenBabel11021811403D
libRbt.so/2013.1/901 2013/11/27
 40 42  0  0  0  0  0  0  0  0999 V2000
   11.5741   31.7705   -2.7656 C   0  0  0  0  0  0  0  0  0  0  0  0
   11.2250   31.1131   -3.8077 N   0  0  0  0  0  0  0  0  0  0  0  0
    2.4490   33.6433    0.7882 C   0  0  0  0  0  0  0  0  0  0  0  0
    2.9653   32.5479    0.8151 O   0  0  0  0  0  0  0  0  0  0  0  0
    5.5340   32.2714   -4.4162 C   0  0  0  0  0  0  0  0  0  0  0  0
    6.1619   31.2495   -4.9369 N   0  0  0  0  0  0  0  0  0  0  0  0
    4.2586   36.2236    1.8504 C   0  0  0  0  0  0  0  0  0  0  0  0
   -0.0411   37.8181   -1.4676 C   0  0  0  0  0  0  0  0  0  0  0  0
    9.5066   32.7262   -2.1233 C   0  0  2  0  0  0  0  0  0  0  0  0
   10.9407   32.9185   -2.5763 N   0  0  0  0  0  0  0  0  0  0  0  0
    4.7315   34.9127   -1.4584 C   0  0  2  0  0  0  0  0  0  0  0  0
    1.1786   34.9845   -2.0316 C   0  0  1  0  0  0  0  0  0  0  0  0
    2.5395   35.0818   -2.2683 O   0  0  0  0  0  0  0  0  0  0  0  0
    8.5376   33.1062   -3.2590 C   0  0  1  0  0  0  0  0  0  0  0  0
    8.7693   32.2189   -4.3112 O   0  0  0  0  0  0  0  0  0  0  0  0
    3.2643   34.5233   -1.3134 C   0  0  2  0  0  0  0  0  0  0  0  0
    0.3160   35.9610   -2.8004 C   0  0  1  0  0  0  0  0  0  0  0  0
    0.7790   37.2801   -2.5400 N   0  0  0  0  0  0  0  0  0  0  0  0
    7.0672   32.9531   -2.8478 C   0  0  2  0  0  0  0  0  0  0  0  0
    6.1054   33.3151   -3.9164 N   0  0  0  0  0  0  0  0  0  0  0  0
    3.0244   34.8498    0.0961 C   0  0  1  0  0  0  0  0  0  0  0  0
    2.1309   35.9646    0.1264 O   0  0  0  0  0  0  0  0  0  0  0  0
    0.3842   35.7208   -4.1656 C   0  0  2  0  0  0  0  0  0  0  0  0
   -0.6483   36.4512   -4.7784 O   0  0  0  0  0  0  0  0  0  0  0  0
    6.8222   33.8381   -1.6359 C   0  0  1  0  0  0  0  0  0  0  0  0
    5.4625   33.6900   -1.2579 O   0  0  0  0  0  0  0  0  0  0  0  0
    4.2956   35.2566    0.7079 C   0  0  1  0  0  0  0  0  0  0  0  0
    5.0568   35.7619   -0.3821 O   0  0  0  0  0  0  0  0  0  0  0  0
    0.1987   34.2533   -4.4496 C   0  0  1  0  0  0  0  0  0  0  0  0
    0.5092   34.0076   -5.7896 O   0  0  0  0  0  0  0  0  0  0  0  0
    7.7682   33.4282   -0.4715 C   0  0  2  0  0  0  0  0  0  0  0  0
    7.5164   34.2620    0.6584 O   0  0  0  0  0  0  0  0  0  0  0  0
    1.1269   33.4542   -3.5996 C   0  0  1  0  0  0  0  0  0  0  0  0
    0.8051   33.7046   -2.2621 O   0  0  0  0  0  0  0  0  0  0  0  0
    9.2336   33.6053   -0.9213 C   0  0  1  0  0  0  0  0  0  0  0  0
   10.1245   33.2322    0.1426 O   0  0  0  0  0  0  0  0  0  0  0  0
    0.9527   31.9428   -3.8473 C   0  0  0  0  0  0  0  0  0  0  0  0
   -0.3869   31.5703   -3.5443 O   0  0  0  0  0  0  0  0  0  0  0  0
   12.4840   31.3499   -1.9549 N   0  0  0  0  0  0  0  0  0  0  0  0
    4.2589   32.2901   -4.4010 N   0  0  0  0  0  0  0  0  0  0  0  0
  1  2  1  0  0  0  0
  1 39  1  0  0  0  0
  3  4  1  0  0  0  0
  5  6  1  0  0  0  0
  5 40  1  0  0  0  0
  9 10  1  6  0  0  0
  9 14  1  0  0  0  0
  9 35  1  0  0  0  0
 10  1  1  0  0  0  0
 11 16  1  0  0  0  0
 11 28  1  0  0  0  0
 11 26  1  1  0  0  0
 12 17  1  0  0  0  0
 12 34  1  0  0  0  0
 12 13  1  6  0  0  0
 14 15  1  6  0  0  0
 14 19  1  0  0  0  0
 16 13  1  6  0  0  0
 16 21  1  0  0  0  0
 17 18  1  6  0  0  0
 17 23  1  0  0  0  0
 18  8  1  0  0  0  0
 19 20  1  6  0  0  0
 19 25  1  0  0  0  0
 20  5  1  0  0  0  0
 21  3  1  1  0  0  0
 21 22  1  0  0  0  0
 21 27  1  0  0  0  0
 23 24  1  6  0  0  0
 23 29  1  0  0  0  0
 25 26  1  1  0  0  0
 25 31  1  0  0  0  0
 27  7  1  1  0  0  0
 27 28  1  0  0  0  0
 29 30  1  6  0  0  0
 29 33  1  0  0  0  0
 31 32  1  1  0  0  0
 31 35  1  0  0  0  0
 33 34  1  0  0  0  0
 33 37  1  6  0  0  0
 35 36  1  1  0  0  0
 37 38  1  0  0  0  0
M  END
>  <CHROM.1>
-108.62901397,72.84257049,167.82113105,160.68505802,-167.79869683,-95.79413498
107.25100699,-55.89546155,55.77213033,-113.56891205,-59.69261319,4.66896923
33.89474415,-2.16106263,0.06952208,0.26608220,-2.06312481

>  <Name>
1nta_lig

>  <RI>
0

>  <Rbt.Current_Directory>
/home/itssahil/PROJECTS/Mol_Feturizer/New_Systems/rnas/1nta

>  <Rbt.Executable>
rbdock ($Id: //depot/dev/client3/rdock/2013.1/src/exe/rbdock.cxx#4 $)

>  <Rbt.Library>
libRbt.so (2013.1, Build901 2013/11/27)

>  <Rbt.Parameter_File>
/export/apps/rDock/src/rDock_2013.1_src/data/scripts/dock_solv.prm

>  <Rbt.Receptor>
prm/pocket_docking_7.prm

>  <SCORE>
-30.6186

>  <SCORE.INTER>
-11.4888

>  <SCORE.INTER.CONST>
1

>  <SCORE.INTER.POLAR>
-1.60774

>  <SCORE.INTER.ROT>
11

>  <SCORE.INTER.SOLV>
36.5311

>  <SCORE.INTER.VDW>
-25.4104

>  <SCORE.INTER.norm>
-0.28722

>  <SCORE.INTRA>
-19.2169

>  <SCORE.INTRA.DIHEDRAL>
-4.18647

>  <SCORE.INTRA.DIHEDRAL.0>
19.0336

>  <SCORE.INTRA.POLAR>
0

>  <SCORE.INTRA.POLAR.0>
0

>  <SCORE.INTRA.REPUL>
0

>  <SCORE.INTRA.REPUL.0>
0

>  <SCORE.INTRA.SOLV>
-1.75944

>  <SCORE.INTRA.SOLV.lig_0>
-97.5861

>  <SCORE.INTRA.VDW>
-16.244

>  <SCORE.INTRA.VDW.0>
11.7669

>  <SCORE.INTRA.norm>
-0.480424

>  <SCORE.RESTR>
0.0871507

>  <SCORE.RESTR.CAVITY>
0.0871507

>  <SCORE.RESTR.norm>
0.00217877

>  <SCORE.SYSTEM>
0

>  <SCORE.SYSTEM.CONST>
0

>  <SCORE.SYSTEM.DIHEDRAL>
0

>  <SCORE.SYSTEM.SOLV>
0

>  <SCORE.SYSTEM.norm>
0

>  <SCORE.heavy>
40

>  <SCORE.norm>
-0.765465

>  <RMSD>
5.424

$$$$
1nta_lig
 OpenBabel11021811403D
libRbt.so/2013.1/901 2013/11/27
 40 42  0  0  0  0  0  0  0  0999 V2000
   11.2236   31.4161   -2.8829 C   0  0  0  0  0  0  0  0  0  0  0  0
   11.4715   30.9800   -4.0612 N   0  0  0  0  0  0  0  0  0  0  0  0
    1.8608   34.6233   -2.1512 C   0  0  0  0  0  0  0  0  0  0  0  0
    2.1030   34.1167   -3.2245 O   0  0  0  0  0  0  0  0  0  0  0  0
    5.6539   31.7703   -5.3404 C   0  0  0  0  0  0  0  0  0  0  0  0
    5.1827   32.0208   -6.5342 N   0  0  0  0  0  0  0  0  0  0  0  0
    1.0112   32.1652   -0.0782 C   0  0  0  0  0  0  0  0  0  0  0  0
    1.3809   37.6121   -1.2706 C   0  0  0  0  0  0  0  0  0  0  0  0
    8.9963   32.0981   -2.4653 C   0  0  2  0  0  0  0  0  0  0  0  0
   10.4227   32.4693   -2.8208 N   0  0  0  0  0  0  0  0  0  0  0  0
    4.4492   33.1383   -0.4297 C   0  0  2  0  0  0  0  0  0  0  0  0
    4.2935   36.6840   -0.4781 C   0  0  1  0  0  0  0  0  0  0  0  0
    4.2698   35.4177    0.0816 O   0  0  0  0  0  0  0  0  0  0  0  0
    8.0413   32.5236   -3.5967 C   0  0  1  0  0  0  0  0  0  0  0  0
    8.3964   31.7925   -4.7313 O   0  0  0  0  0  0  0  0  0  0  0  0
    3.8382   34.4953   -0.7622 C   0  0  2  0  0  0  0  0  0  0  0  0
    3.2676   37.6528    0.0677 C   0  0  1  0  0  0  0  0  0  0  0  0
    1.9771   37.0696   -0.0614 N   0  0  0  0  0  0  0  0  0  0  0  0
    6.5767   32.1928   -3.2800 C   0  0  2  0  0  0  0  0  0  0  0  0
    5.6279   32.5933   -4.3465 N   0  0  0  0  0  0  0  0  0  0  0  0
    2.4139   34.1530   -0.8326 C   0  0  1  0  0  0  0  0  0  0  0  0
    1.7713   34.7848    0.2765 O   0  0  0  0  0  0  0  0  0  0  0  0
    3.5049   37.9302    1.4067 C   0  0  2  0  0  0  0  0  0  0  0  0
    2.7161   39.0390    1.7579 O   0  0  0  0  0  0  0  0  0  0  0  0
    6.2023   32.9014   -1.9879 C   0  0  1  0  0  0  0  0  0  0  0  0
    4.8487   32.5894   -1.6980 O   0  0  0  0  0  0  0  0  0  0  0  0
    2.2714   32.6992   -0.6854 C   0  0  1  0  0  0  0  0  0  0  0  0
    3.4179   32.3143    0.0631 O   0  0  0  0  0  0  0  0  0  0  0  0
    4.9586   38.2582    1.6245 C   0  0  1  0  0  0  0  0  0  0  0  0
    5.2148   38.2951    2.9976 O   0  0  0  0  0  0  0  0  0  0  0  0
    7.1361   32.4409   -0.8327 C   0  0  2  0  0  0  0  0  0  0  0  0
    6.7629   33.1081    0.3718 O   0  0  0  0  0  0  0  0  0  0  0  0
    5.8113   37.1967    1.0173 C   0  0  1  0  0  0  0  0  0  0  0  0
    5.5498   37.1712   -0.3561 O   0  0  0  0  0  0  0  0  0  0  0  0
    8.5950   32.7996   -1.1852 C   0  0  1  0  0  0  0  0  0  0  0  0
    9.4745   32.3824   -0.1282 O   0  0  0  0  0  0  0  0  0  0  0  0
    7.3098   37.5075    1.2023 C   0  0  0  0  0  0  0  0  0  0  0  0
    8.0784   36.4169    0.7073 O   0  0  0  0  0  0  0  0  0  0  0  0
   11.7219   30.8727   -1.8252 N   0  0  0  0  0  0  0  0  0  0  0  0
    6.1663   30.6299   -5.0886 N   0  0  0  0  0  0  0  0  0  0  0  0
  1  2  1  0  0  0  0
  1 39  1  0  0  0  0
  3  4  1  0  0  0  0
  5  6  1  0  0  0  0
  5 40  1  0  0  0  0
  9 10  1  6  0  0  0
  9 14  1  0  0  0  0
  9 35  1  0  0  0  0
 10  1  1  0  0  0  0
 11 16  1  0  0  0  0
 11 28  1  0  0  0  0
 11 26  1  6  0  0  0
 12 17  1  0  0  0  0
 12 34  1  0  0  0  0
 12 13  1  1  0  0  0
 14 15  1  6  0  0  0
 14 19  1  0  0  0  0
 16 13  1  1  0  0  0
 16 21  1  0  0  0  0
 17 18  1  1  0  0  0
 17 23  1  0  0  0  0
 18  8  1  0  0  0  0
 19 20  1  6  0  0  0
 19 25  1  0  0  0  0
 20  5  1  0  0  0  0
 21  3  1  6  0  0  0
 21 22  1  0  0  0  0
 21 27  1  0  0  0  0
 23 24  1  6  0  0  0
 23 29  1  0  0  0  0
 25 26  1  1  0  0  0
 25 31  1  0  0  0  0
 27  7  1  1  0  0  0
 27 28  1  0  0  0  0
 29 30  1  1  0  0  0
 29 33  1  0  0  0  0
 31 32  1  1  0  0  0
 31 35  1  0  0  0  0
 33 34  1  0  0  0  0
 33 37  1  6  0  0  0
 35 36  1  1  0  0  0
 37 38  1  0  0  0  0
M  END
>  <CHROM.1>
-119.57580684,100.27121001,93.09155105,110.38480079,151.56846796,-97.78955757
77.10784348,-162.85189858,71.92483883,175.39660144,175.21794608,5.56926953
34.18782402,-1.24914008,-0.83756213,-0.12309167,0.75133354

>  <Name>
1nta_lig

>  <RI>
9.25352e+06

>  <Rbt.Current_Directory>
/home/itssahil/PROJECTS/Mol_Feturizer/New_Systems/rnas/1nta

>  <Rbt.Executable>
rbdock ($Id: //depot/dev/client3/rdock/2013.1/src/exe/rbdock.cxx#4 $)

>  <Rbt.Library>
libRbt.so (2013.1, Build901 2013/11/27)

>  <Rbt.Parameter_File>
/export/apps/rDock/src/rDock_2013.1_src/data/scripts/dock_solv.prm

>  <Rbt.Receptor>
prm/blind_docking_40.prm

>  <SCORE>
-11.4218

>  <SCORE.INTER>
-5.22241

>  <SCORE.INTER.CONST>
1

>  <SCORE.INTER.POLAR>
-1.96358

>  <SCORE.INTER.ROT>
11

>  <SCORE.INTER.SOLV>
44.7569

>  <SCORE.INTER.VDW>
-22.7886

>  <SCORE.INTER.norm>
-0.13056

>  <SCORE.INTRA>
-9.45293

>  <SCORE.INTRA.DIHEDRAL>
-0.772568

>  <SCORE.INTRA.DIHEDRAL.0>
19.0336

>  <SCORE.INTRA.POLAR>
0

>  <SCORE.INTRA.POLAR.0>
0

>  <SCORE.INTRA.REPUL>
0.0888327

>  <SCORE.INTRA.REPUL.0>
0

>  <SCORE.INTRA.SOLV>
-2.66901

>  <SCORE.INTRA.SOLV.lig_0>
-97.5861

>  <SCORE.INTRA.VDW>
-8.1763

>  <SCORE.INTRA.VDW.0>
11.7669

>  <SCORE.INTRA.norm>
-0.236323

>  <SCORE.RESTR>
3.25349

>  <SCORE.RESTR.CAVITY>
3.25349

>  <SCORE.RESTR.norm>
0.0813373

>  <SCORE.SYSTEM>
0

>  <SCORE.SYSTEM.CONST>
0

>  <SCORE.SYSTEM.DIHEDRAL>
0

>  <SCORE.SYSTEM.SOLV>
0

>  <SCORE.SYSTEM.norm>
0

>  <SCORE.heavy>
40

>  <SCORE.norm>
-0.285546

>  <RMSD>
5.428

$$$$
1nta_lig
 OpenBabel11021811403D
libRbt.so/2013.1/901 2013/11/27
 40 42  0  0  0  0  0  0  0  0999 V2000
    8.2344   31.6899   -4.2745 C   0  0  0  0  0  0  0  0  0  0  0  0
    7.1221   31.1303   -4.5742 N   0  0  0  0  0  0  0  0  0  0  0  0
    0.6941   36.3649   -0.5887 C   0  0  0  0  0  0  0  0  0  0  0  0
    0.7714   37.2870   -1.3704 O   0  0  0  0  0  0  0  0  0  0  0  0
    2.3296   33.9415   -3.1898 C   0  0  0  0  0  0  0  0  0  0  0  0
    1.2054   34.5033   -2.8285 N   0  0  0  0  0  0  0  0  0  0  0  0
    0.3482   34.6837    2.2600 C   0  0  0  0  0  0  0  0  0  0  0  0
    4.0865   41.2234   -0.9944 C   0  0  0  0  0  0  0  0  0  0  0  0
    6.8568   32.6252   -2.5928 C   0  0  2  0  0  0  0  0  0  0  0  0
    8.1642   32.6462   -3.3606 N   0  0  0  0  0  0  0  0  0  0  0  0
    3.5743   34.9969    0.7158 C   0  0  2  0  0  0  0  0  0  0  0  0
    4.5543   37.7977   -0.4309 C   0  0  1  0  0  0  0  0  0  0  0  0
    3.7182   37.3308    0.5694 O   0  0  0  0  0  0  0  0  0  0  0  0
    5.8356   33.5648   -3.2615 C   0  0  1  0  0  0  0  0  0  0  0  0
    5.5830   33.0570   -4.5368 O   0  0  0  0  0  0  0  0  0  0  0  0
    2.9869   36.2991    0.1823 C   0  0  2  0  0  0  0  0  0  0  0  0
    5.0146   39.2303   -0.2742 C   0  0  1  0  0  0  0  0  0  0  0  0
    3.8702   40.0644   -0.1447 N   0  0  0  0  0  0  0  0  0  0  0  0
    4.4974   33.6016   -2.5113 C   0  0  2  0  0  0  0  0  0  0  0  0
    3.4910   34.5007   -3.1252 N   0  0  0  0  0  0  0  0  0  0  0  0
    1.5887   36.1718    0.6063 C   0  0  1  0  0  0  0  0  0  0  0  0
    1.3604   37.1585    1.6144 O   0  0  0  0  0  0  0  0  0  0  0  0
    5.8105   39.3792    0.8530 C   0  0  2  0  0  0  0  0  0  0  0  0
    6.4329   40.6365    0.7716 O   0  0  0  0  0  0  0  0  0  0  0  0
    4.7686   34.0564   -1.0860 C   0  0  1  0  0  0  0  0  0  0  0  0
    3.5289   34.0852   -0.3961 O   0  0  0  0  0  0  0  0  0  0  0  0
    1.3972   34.8444    1.2038 C   0  0  1  0  0  0  0  0  0  0  0  0
    2.6877   34.4951    1.6892 O   0  0  0  0  0  0  0  0  0  0  0  0
    6.8606   38.3005    0.8994 C   0  0  1  0  0  0  0  0  0  0  0  0
    7.4845   38.3279    2.1493 O   0  0  0  0  0  0  0  0  0  0  0  0
    5.7654   33.0847   -0.3927 C   0  0  2  0  0  0  0  0  0  0  0  0
    5.9989   33.5217    0.9452 O   0  0  0  0  0  0  0  0  0  0  0  0
    6.2201   36.9657    0.7249 C   0  0  1  0  0  0  0  0  0  0  0  0
    5.6026   36.9480   -0.5296 O   0  0  0  0  0  0  0  0  0  0  0  0
    7.0982   33.0840   -1.1704 C   0  0  1  0  0  0  0  0  0  0  0  0
    8.0341   32.1916   -0.5440 O   0  0  0  0  0  0  0  0  0  0  0  0
    7.2671   35.8344    0.7465 C   0  0  0  0  0  0  0  0  0  0  0  0
    8.5453   36.3738    0.4299 O   0  0  0  0  0  0  0  0  0  0  0  0
    9.3495   31.3520   -4.8264 N   0  0  0  0  0  0  0  0  0  0  0  0
    2.3272   32.7421   -3.6234 N   0  0  0  0  0  0  0  0  0  0  0  0
  1  2  1  0  0  0  0
  1 39  1  0  0  0  0
  3  4  1  0  0  0  0
  5  6  1  0  0  0  0
  5 40  1  0  0  0  0
  9 10  1  6  0  0  0
  9 14  1  0  0  0  0
  9 35  1  0  0  0  0
 10  1  1  0  0  0  0
 11 16  1  0  0  0  0
 11 28  1  0  0  0  0
 11 26  1  6  0  0  0
 12 17  1  0  0  0  0
 12 34  1  0  0  0  0
 12 13  1  1  0  0  0
 14 15  1  6  0  0  0
 14 19  1  0  0  0  0
 16 13  1  1  0  0  0
 16 21  1  0  0  0  0
 17 18  1  1  0  0  0
 17 23  1  0  0  0  0
 18  8  1  0  0  0  0
 19 20  1  6  0  0  0
 19 25  1  0  0  0  0
 20  5  1  0  0  0  0
 21  3  1  6  0  0  0
 21 22  1  0  0  0  0
 21 27  1  0  0  0  0
 23 24  1  6  0  0  0
 23 29  1  0  0  0  0
 25 26  1  1  0  0  0
 25 31  1  0  0  0  0
 27  7  1  1  0  0  0
 27 28  1  0  0  0  0
 29 30  1  1  0  0  0
 29 33  1  0  0  0  0
 31 32  1  1  0  0  0
 31 35  1  0  0  0  0
 33 34  1  0  0  0  0
 33 37  1  6  0  0  0
 35 36  1  1  0  0  0
 37 38  1  0  0  0  0
M  END
>  <CHROM.1>
-92.89216973,15.55915447,95.75874903,157.83035066,101.54036528,-135.48636630
134.96031006,132.88629266,-49.85521165,-155.71261885,-21.45345356,4.77770920
35.43713507,-0.81597021,-1.12280202,0.07296189,0.54963000

>  <Name>
1nta_lig

>  <RI>
2.40834e+07

>  <Rbt.Current_Directory>
/home/itssahil/PROJECTS/Mol_Feturizer/New_Systems/rnas/1nta

>  <Rbt.Executable>
rbdock ($Id: //depot/dev/client3/rdock/2013.1/src/exe/rbdock.cxx#4 $)

>  <Rbt.Library>
libRbt.so (2013.1, Build901 2013/11/27)

>  <Rbt.Parameter_File>
/export/apps/rDock/src/rDock_2013.1_src/data/scripts/dock_solv.prm

>  <Rbt.Receptor>
prm/blind_docking_80.prm

>  <SCORE>
-24.7343

>  <SCORE.INTER>
-19.5344

>  <SCORE.INTER.CONST>
1

>  <SCORE.INTER.POLAR>
-3.41993

>  <SCORE.INTER.ROT>
11

>  <SCORE.INTER.SOLV>
38.137

>  <SCORE.INTER.VDW>
-25.2689

>  <SCORE.INTER.norm>
-0.488361

>  <SCORE.INTRA>
-10.3688

>  <SCORE.INTRA.DIHEDRAL>
3.72528

>  <SCORE.INTRA.DIHEDRAL.0>
19.0336

>  <SCORE.INTRA.POLAR>
0

>  <SCORE.INTRA.POLAR.0>
0

>  <SCORE.INTRA.REPUL>
0

>  <SCORE.INTRA.REPUL.0>
0

>  <SCORE.INTRA.SOLV>
-0.215693

>  <SCORE.INTRA.SOLV.lig_0>
-97.5861

>  <SCORE.INTRA.VDW>
-12.1236

>  <SCORE.INTRA.VDW.0>
11.7669

>  <SCORE.INTRA.norm>
-0.259221

>  <SCORE.RESTR>
5.169

>  <SCORE.RESTR.CAVITY>
5.169

>  <SCORE.RESTR.norm>
0.129225

>  <SCORE.SYSTEM>
0

>  <SCORE.SYSTEM.CONST>
0

>  <SCORE.SYSTEM.DIHEDRAL>
0

>  <SCORE.SYSTEM.SOLV>
0

>  <SCORE.SYSTEM.norm>
0

>  <SCORE.heavy>
40

>  <SCORE.norm>
-0.618357

>  <RMSD>
5.447

$$$$
1nta_lig
 OpenBabel11021811403D
libRbt.so/2013.1/901 2013/11/27
 40 42  0  0  0  0  0  0  0  0999 V2000
    6.5663   32.1546   -2.1404 C   0  0  0  0  0  0  0  0  0  0  0  0
    6.9535   31.8785   -3.3295 N   0  0  0  0  0  0  0  0  0  0  0  0
   -0.2252   38.2185   -0.4972 C   0  0  0  0  0  0  0  0  0  0  0  0
   -1.4279   38.3584   -0.5302 O   0  0  0  0  0  0  0  0  0  0  0  0
    1.0336   34.7051   -1.9901 C   0  0  0  0  0  0  0  0  0  0  0  0
    0.8899   34.1637   -3.1716 N   0  0  0  0  0  0  0  0  0  0  0  0
   -0.6838   38.3280    2.7951 C   0  0  0  0  0  0  0  0  0  0  0  0
    3.3814   40.8827   -3.6249 C   0  0  0  0  0  0  0  0  0  0  0  0
    5.3638   33.8019   -0.9401 C   0  0  2  0  0  0  0  0  0  0  0  0
    6.5335   33.4433   -1.8357 N   0  0  0  0  0  0  0  0  0  0  0  0
    2.5490   37.5587    1.4359 C   0  0  2  0  0  0  0  0  0  0  0  0
    3.8515   39.1847   -0.8565 C   0  0  1  0  0  0  0  0  0  0  0  0
    2.8694   39.4454    0.0842 O   0  0  0  0  0  0  0  0  0  0  0  0
    4.2526   34.4770   -1.7662 C   0  0  1  0  0  0  0  0  0  0  0  0
    3.8003   33.5366   -2.6931 O   0  0  0  0  0  0  0  0  0  0  0  0
    2.0598   38.4170    0.2744 C   0  0  2  0  0  0  0  0  0  0  0  0
    4.3787   40.3953   -1.5950 C   0  0  1  0  0  0  0  0  0  0  0  0
    3.2825   41.0796   -2.1884 N   0  0  0  0  0  0  0  0  0  0  0  0
    3.0498   34.8841   -0.9045 C   0  0  2  0  0  0  0  0  0  0  0  0
    1.9618   35.5418   -1.6672 N   0  0  0  0  0  0  0  0  0  0  0  0
    0.6581   38.6277    0.6509 C   0  0  1  0  0  0  0  0  0  0  0  0
    0.5105   40.0112    0.9768 O   0  0  0  0  0  0  0  0  0  0  0  0
    5.0359   41.2605   -0.7314 C   0  0  2  0  0  0  0  0  0  0  0  0
    5.7422   42.1889   -1.5151 O   0  0  0  0  0  0  0  0  0  0  0  0
    3.5440   35.8318    0.1768 C   0  0  1  0  0  0  0  0  0  0  0  0
    2.4289   36.2021    0.9724 O   0  0  0  0  0  0  0  0  0  0  0  0
    0.3691   37.8343    1.8520 C   0  0  1  0  0  0  0  0  0  0  0  0
    1.6317   37.7092    2.4948 O   0  0  0  0  0  0  0  0  0  0  0  0
    6.0014   40.4995    0.1387 C   0  0  1  0  0  0  0  0  0  0  0  0
    6.4652   41.3455    1.1495 O   0  0  0  0  0  0  0  0  0  0  0  0
    4.6349   35.1381    1.0414 C   0  0  2  0  0  0  0  0  0  0  0  0
    5.0780   36.0384    2.0556 O   0  0  0  0  0  0  0  0  0  0  0  0
    5.3041   39.3465    0.7765 C   0  0  1  0  0  0  0  0  0  0  0  0
    4.8477   38.5052   -0.2431 O   0  0  0  0  0  0  0  0  0  0  0  0
    5.8281   34.7541    0.1415 C   0  0  1  0  0  0  0  0  0  0  0  0
    6.8485   34.1118    0.9231 O   0  0  0  0  0  0  0  0  0  0  0  0
    6.2662   38.5293    1.6613 C   0  0  0  0  0  0  0  0  0  0  0  0
    6.9889   37.6143    0.8455 O   0  0  0  0  0  0  0  0  0  0  0  0
    6.2345   31.2426   -1.2917 N   0  0  0  0  0  0  0  0  0  0  0  0
    0.2020   34.4313   -1.0628 N   0  0  0  0  0  0  0  0  0  0  0  0
  1  2  1  0  0  0  0
  1 39  1  0  0  0  0
  3  4  1  0  0  0  0
  5  6  1  0  0  0  0
  5 40  1  0  0  0  0
  9 10  1  6  0  0  0
  9 14  1  0  0  0  0
  9 35  1  0  0  0  0
 10  1  1  0  0  0  0
 11 16  1  0  0  0  0
 11 28  1  0  0  0  0
 11 26  1  6  0  0  0
 12 17  1  0  0  0  0
 12 34  1  0  0  0  0
 12 13  1  1  0  0  0
 14 15  1  6  0  0  0
 14 19  1  0  0  0  0
 16 13  1  1  0  0  0
 16 21  1  0  0  0  0
 17 18  1  1  0  0  0
 17 23  1  0  0  0  0
 18  8  1  0  0  0  0
 19 20  1  6  0  0  0
 19 25  1  0  0  0  0
 20  5  1  0  0  0  0
 21  3  1  6  0  0  0
 21 22  1  0  0  0  0
 21 27  1  0  0  0  0
 23 24  1  6  0  0  0
 23 29  1  0  0  0  0
 25 26  1  1  0  0  0
 25 31  1  0  0  0  0
 27  7  1  1  0  0  0
 27 28  1  0  0  0  0
 29 30  1  1  0  0  0
 29 33  1  0  0  0  0
 31 32  1  1  0  0  0
 31 35  1  0  0  0  0
 33 34  1  0  0  0  0
 33 37  1  1  0  0  0
 35 36  1  1  0  0  0
 37 38  1  0  0  0  0
M  END
>  <CHROM.1>
-102.56560753,143.18673378,82.25297512,152.65157412,93.23437123,-109.58325699
96.89920198,-101.37253990,-174.71251719,-145.71847257,-83.14728333,3.62652489
37.08698197,-0.32715948,-1.21656977,0.07635476,0.19398158

>  <Name>
1nta_lig

>  <RI>
0

>  <Rbt.Current_Directory>
/home/itssahil/PROJECTS/Mol_Feturizer/New_Systems/rnas/1nta

>  <Rbt.Executable>
rbdock ($Id: //depot/dev/client3/rdock/2013.1/src/exe/rbdock.cxx#4 $)

>  <Rbt.Library>
libRbt.so (2013.1, Build901 2013/11/27)

>  <Rbt.Parameter_File>
/export/apps/rDock/src/rDock_2013.1_src/data/scripts/dock_solv.prm

>  <Rbt.Receptor>
prm/pocket_docking_7.prm

>  <SCORE>
-28.0236

>  <SCORE.INTER>
-8.32036

>  <SCORE.INTER.CONST>
1

>  <SCORE.INTER.POLAR>
-0.463463

>  <SCORE.INTER.ROT>
11

>  <SCORE.INTER.SOLV>
25.5978

>  <SCORE.INTER.VDW>
-23.468

>  <SCORE.INTER.norm>
-0.208009

>  <SCORE.INTRA>
-19.7157

>  <SCORE.INTRA.DIHEDRAL>
0.606201

>  <SCORE.INTRA.DIHEDRAL.0>
19.0336

>  <SCORE.INTRA.POLAR>
0

>  <SCORE.INTRA.POLAR.0>
0

>  <SCORE.INTRA.REPUL>
0

>  <SCORE.INTRA.REPUL.0>
0

>  <SCORE.INTRA.SOLV>
-2.88945

>  <SCORE.INTRA.SOLV.lig_0>
-97.5861

>  <SCORE.INTRA.VDW>
-18.5741

>  <SCORE.INTRA.VDW.0>
11.7669

>  <SCORE.INTRA.norm>
-0.492893

>  <SCORE.RESTR>
0.0125093

>  <SCORE.RESTR.CAVITY>
0.0125093

>  <SCORE.RESTR.norm>
0.000312732

>  <SCORE.SYSTEM>
0

>  <SCORE.SYSTEM.CONST>
0

>  <SCORE.SYSTEM.DIHEDRAL>
0

>  <SCORE.SYSTEM.SOLV>
0

>  <SCORE.SYSTEM.norm>
0

>  <SCORE.heavy>
40

>  <SCORE.norm>
-0.700589

>  <RMSD>
5.458

$$$$
1nta_lig
 OpenBabel11021811403D
libRbt.so/2013.1/901 2013/11/27
 40 42  0  0  0  0  0  0  0  0999 V2000
   11.2684   31.5474   -1.9610 C   0  0  0  0  0  0  0  0  0  0  0  0
   10.6393   30.4886   -1.6101 N   0  0  0  0  0  0  0  0  0  0  0  0
    1.4532   34.1637   -1.5930 C   0  0  0  0  0  0  0  0  0  0  0  0
    1.3865   33.2404   -2.3743 O   0  0  0  0  0  0  0  0  0  0  0  0
    5.0209   32.6843   -4.4775 C   0  0  0  0  0  0  0  0  0  0  0  0
    5.2711   32.0677   -5.6032 N   0  0  0  0  0  0  0  0  0  0  0  0
    1.6344   32.0515    0.9696 C   0  0  0  0  0  0  0  0  0  0  0  0
    2.8322   39.5764   -1.5405 C   0  0  0  0  0  0  0  0  0  0  0  0
    9.0363   32.3262   -2.0693 C   0  0  2  0  0  0  0  0  0  0  0  0
   10.5083   32.5616   -2.3463 N   0  0  0  0  0  0  0  0  0  0  0  0
    4.5374   33.8825   -0.0840 C   0  0  2  0  0  0  0  0  0  0  0  0
    4.4784   36.9287   -0.6947 C   0  0  1  0  0  0  0  0  0  0  0  0
    3.7025   36.0667    0.0620 O   0  0  0  0  0  0  0  0  0  0  0  0
    8.1778   33.0324   -3.1358 C   0  0  1  0  0  0  0  0  0  0  0  0
    8.4756   32.4382   -4.3630 O   0  0  0  0  0  0  0  0  0  0  0  0
    3.5001   34.9047   -0.5362 C   0  0  2  0  0  0  0  0  0  0  0  0
    4.3891   38.3887   -0.3084 C   0  0  1  0  0  0  0  0  0  0  0  0
    3.0236   38.7844   -0.3371 N   0  0  0  0  0  0  0  0  0  0  0  0
    6.6742   32.8473   -2.8916 C   0  0  2  0  0  0  0  0  0  0  0  0
    5.8167   33.5186   -3.8976 N   0  0  0  0  0  0  0  0  0  0  0  0
    2.2564   34.1582   -0.3200 C   0  0  1  0  0  0  0  0  0  0  0  0
    1.5632   34.7929    0.7564 O   0  0  0  0  0  0  0  0  0  0  0  0
    4.8928   38.5999    0.9674 C   0  0  2  0  0  0  0  0  0  0  0  0
    5.0521   39.9857    1.1382 O   0  0  0  0  0  0  0  0  0  0  0  0
    6.3494   33.3986   -1.5123 C   0  0  1  0  0  0  0  0  0  0  0  0
    4.9591   33.2217   -1.2903 O   0  0  0  0  0  0  0  0  0  0  0  0
    2.5944   32.7890    0.0885 C   0  0  1  0  0  0  0  0  0  0  0  0
    3.8732   32.9165    0.6977 O   0  0  0  0  0  0  0  0  0  0  0  0
    6.2263   37.9175    1.1242 C   0  0  1  0  0  0  0  0  0  0  0  0
    6.5925   37.9410    2.4724 O   0  0  0  0  0  0  0  0  0  0  0  0
    7.1818   32.6572   -0.4278 C   0  0  2  0  0  0  0  0  0  0  0  0
    6.8559   33.1807    0.8587 O   0  0  0  0  0  0  0  0  0  0  0  0
    6.1182   36.4946    0.6930 C   0  0  1  0  0  0  0  0  0  0  0  0
    5.7553   36.4829   -0.6574 O   0  0  0  0  0  0  0  0  0  0  0  0
    8.6843   32.8757   -0.7033 C   0  0  1  0  0  0  0  0  0  0  0  0
    9.4713   32.1983    0.2900 O   0  0  0  0  0  0  0  0  0  0  0  0
    7.4707   35.7661    0.8199 C   0  0  0  0  0  0  0  0  0  0  0  0
    8.5233   36.6810    0.5370 O   0  0  0  0  0  0  0  0  0  0  0  0
   12.5553   31.6243   -1.9468 N   0  0  0  0  0  0  0  0  0  0  0  0
    3.9077   32.4936   -3.8852 N   0  0  0  0  0  0  0  0  0  0  0  0
  1  2  1  0  0  0  0
  1 39  1  0  0  0  0
  3  4  1  0  0  0  0
  5  6  1  0  0  0  0
  5 40  1  0  0  0  0
  9 10  1  6  0  0  0
  9 14  1  0  0  0  0
  9 35  1  0  0  0  0
 10  1  1  0  0  0  0
 11 16  1  0  0  0  0
 11 28  1  0  0  0  0
 11 26  1  6  0  0  0
 12 17  1  0  0  0  0
 12 34  1  0  0  0  0
 12 13  1  1  0  0  0
 14 15  1  6  0  0  0
 14 19  1  0  0  0  0
 16 13  1  1  0  0  0
 16 21  1  0  0  0  0
 17 18  1  1  0  0  0
 17 23  1  0  0  0  0
 18  8  1  0  0  0  0
 19 20  1  6  0  0  0
 19 25  1  0  0  0  0
 20  5  1  0  0  0  0
 21  3  1  6  0  0  0
 21 22  1  0  0  0  0
 21 27  1  0  0  0  0
 23 24  1  6  0  0  0
 23 29  1  0  0  0  0
 25 26  1  1  0  0  0
 25 31  1  0  0  0  0
 27  7  1  1  0  0  0
 27 28  1  0  0  0  0
 29 30  1  1  0  0  0
 29 33  1  0  0  0  0
 31 32  1  1  0  0  0
 31 35  1  0  0  0  0
 33 34  1  0  0  0  0
 33 37  1  6  0  0  0
 35 36  1  1  0  0  0
 37 38  1  0  0  0  0
M  END
>  <CHROM.1>
-148.60530060,9.57572767,119.46893347,161.19299675,94.17467896,-104.58852107
122.88568271,-93.64231032,101.38836487,-172.07355853,-33.99404295,5.79404041
34.46800555,-0.94199788,-0.73148014,-0.08810604,0.54593817

>  <Name>
1nta_lig

>  <RI>
9.25352e+06

>  <Rbt.Current_Directory>
/home/itssahil/PROJECTS/Mol_Feturizer/New_Systems/rnas/1nta

>  <Rbt.Executable>
rbdock ($Id: //depot/dev/client3/rdock/2013.1/src/exe/rbdock.cxx#4 $)

>  <Rbt.Library>
libRbt.so (2013.1, Build901 2013/11/27)

>  <Rbt.Parameter_File>
/export/apps/rDock/src/rDock_2013.1_src/data/scripts/dock_solv.prm

>  <Rbt.Receptor>
prm/blind_docking_40.prm

>  <SCORE>
-1.44996

>  <SCORE.INTER>
5.08144

>  <SCORE.INTER.CONST>
1

>  <SCORE.INTER.POLAR>
-0.750626

>  <SCORE.INTER.ROT>
11

>  <SCORE.INTER.SOLV>
40.1852

>  <SCORE.INTER.VDW>
-18.4387

>  <SCORE.INTER.norm>
0.127036

>  <SCORE.INTRA>
-11.6055

>  <SCORE.INTRA.DIHEDRAL>
4.23168

>  <SCORE.INTRA.DIHEDRAL.0>
19.0336

>  <SCORE.INTRA.POLAR>
0

>  <SCORE.INTRA.POLAR.0>
0

>  <SCORE.INTRA.REPUL>
0

>  <SCORE.INTRA.REPUL.0>
0

>  <SCORE.INTRA.SOLV>
-1.77145

>  <SCORE.INTRA.SOLV.lig_0>
-97.5861

>  <SCORE.INTRA.VDW>
-12.8357

>  <SCORE.INTRA.VDW.0>
11.7669

>  <SCORE.INTRA.norm>
-0.290139

>  <SCORE.RESTR>
5.07414

>  <SCORE.RESTR.CAVITY>
5.07414

>  <SCORE.RESTR.norm>
0.126854

>  <SCORE.SYSTEM>
0

>  <SCORE.SYSTEM.CONST>
0

>  <SCORE.SYSTEM.DIHEDRAL>
0

>  <SCORE.SYSTEM.SOLV>
0

>  <SCORE.SYSTEM.norm>
0

>  <SCORE.heavy>
40

>  <SCORE.norm>
-0.0362491

>  <RMSD>
5.470

$$$$
1nta_lig
 OpenBabel11021811403D
libRbt.so/2013.1/901 2013/11/27
 40 42  0  0  0  0  0  0  0  0999 V2000
    6.6191   32.6260   -1.6176 C   0  0  0  0  0  0  0  0  0  0  0  0
    5.9868   31.8186   -2.3846 N   0  0  0  0  0  0  0  0  0  0  0  0
   -0.6797   38.2300   -0.3191 C   0  0  0  0  0  0  0  0  0  0  0  0
   -1.8744   38.1960   -0.1222 O   0  0  0  0  0  0  0  0  0  0  0  0
    0.7625   34.5895   -1.1374 C   0  0  0  0  0  0  0  0  0  0  0  0
    0.2262   34.1133   -0.0441 N   0  0  0  0  0  0  0  0  0  0  0  0
   -0.6299   39.1601    2.8737 C   0  0  0  0  0  0  0  0  0  0  0  0
    2.0618   40.0838   -4.6167 C   0  0  0  0  0  0  0  0  0  0  0  0
    5.2791   34.3791   -0.7622 C   0  0  2  0  0  0  0  0  0  0  0  0
    6.3156   33.9072   -1.7632 N   0  0  0  0  0  0  0  0  0  0  0  0
    2.4256   38.3579    1.1674 C   0  0  2  0  0  0  0  0  0  0  0  0
    3.1632   39.4308   -1.6149 C   0  0  1  0  0  0  0  0  0  0  0  0
    2.2725   39.8432   -0.6381 O   0  0  0  0  0  0  0  0  0  0  0  0
    3.9624   34.7203   -1.4853 C   0  0  1  0  0  0  0  0  0  0  0  0
    3.4886   33.5382   -2.0564 O   0  0  0  0  0  0  0  0  0  0  0  0
    1.6494   38.8319   -0.0566 C   0  0  2  0  0  0  0  0  0  0  0  0
    3.3834   40.4109   -2.7461 C   0  0  1  0  0  0  0  0  0  0  0  0
    2.1230   40.7353   -3.3191 N   0  0  0  0  0  0  0  0  0  0  0  0
    2.8813   35.2273   -0.5215 C   0  0  2  0  0  0  0  0  0  0  0  0
    1.6004   35.5701   -1.1847 N   0  0  0  0  0  0  0  0  0  0  0  0
    0.3081   39.0057    0.5105 C   0  0  1  0  0  0  0  0  0  0  0  0
    0.0271   40.4068    0.5114 O   0  0  0  0  0  0  0  0  0  0  0  0
    3.9836   41.5756   -2.2887 C   0  0  2  0  0  0  0  0  0  0  0  0
    4.4214   42.2983   -3.4117 O   0  0  0  0  0  0  0  0  0  0  0  0
    3.4215   36.4597    0.1864 C   0  0  1  0  0  0  0  0  0  0  0  0
    2.4196   36.9221    1.0787 O   0  0  0  0  0  0  0  0  0  0  0  0
    0.3202   38.5336    1.9007 C   0  0  1  0  0  0  0  0  0  0  0  0
    1.6727   38.6977    2.3090 O   0  0  0  0  0  0  0  0  0  0  0  0
    5.1628   41.2479   -1.4108 C   0  0  1  0  0  0  0  0  0  0  0  0
    5.5950   42.4156   -0.7768 O   0  0  0  0  0  0  0  0  0  0  0  0
    4.7275   36.1087    0.9546 C   0  0  2  0  0  0  0  0  0  0  0  0
    5.2127   37.2737    1.6198 O   0  0  0  0  0  0  0  0  0  0  0  0
    4.7543   40.2696   -0.3627 C   0  0  1  0  0  0  0  0  0  0  0  0
    4.3275   39.1046   -1.0076 O   0  0  0  0  0  0  0  0  0  0  0  0
    5.7896   35.6133   -0.0492 C   0  0  1  0  0  0  0  0  0  0  0  0
    7.0057   35.2843    0.6419 O   0  0  0  0  0  0  0  0  0  0  0  0
    5.9415   39.8929    0.5456 C   0  0  0  0  0  0  0  0  0  0  0  0
    6.4578   41.0714    1.1535 O   0  0  0  0  0  0  0  0  0  0  0  0
    7.4968   32.2241   -0.7629 N   0  0  0  0  0  0  0  0  0  0  0  0
    0.4817   34.0598   -2.2630 N   0  0  0  0  0  0  0  0  0  0  0  0
  1  2  1  0  0  0  0
  1 39  1  0  0  0  0
  3  4  1  0  0  0  0
  5  6  1  0  0  0  0
  5 40  1  0  0  0  0
  9 10  1  6  0  0  0
  9 14  1  0  0  0  0
  9 35  1  0  0  0  0
 10  1  1  0  0  0  0
 11 16  1  0  0  0  0
 11 28  1  0  0  0  0
 11 26  1  6  0  0  0
 12 17  1  0  0  0  0
 12 34  1  0  0  0  0
 12 13  1  1  0  0  0
 14 15  1  1  0  0  0
 14 19  1  0  0  0  0
 16 13  1  1  0  0  0
 16 21  1  0  0  0  0
 17 18  1  1  0  0  0
 17 23  1  0  0  0  0
 18  8  1  0  0  0  0
 19 20  1  6  0  0  0
 19 25  1  0  0  0  0
 20  5  1  0  0  0  0
 21  3  1  6  0  0  0
 21 22  1  0  0  0  0
 21 27  1  0  0  0  0
 23 24  1  6  0  0  0
 23 29  1  0  0  0  0
 25 26  1  1  0  0  0
 25 31  1  0  0  0  0
 27  7  1  1  0  0  0
 27 28  1  0  0  0  0
 29 30  1  1  0  0  0
 29 33  1  0  0  0  0
 31 32  1  6  0  0  0
 31 35  1  0  0  0  0
 33 34  1  0  0  0  0
 33 37  1  1  0  0  0
 35 36  1  1  0  0  0
 37 38  1  0  0  0  0
M  END
>  <CHROM.1>
-112.33704362,96.07826753,81.22528459,150.76460583,90.73160024,-107.80699046
95.42115556,65.51911156,-178.40463356,-145.16452755,58.31618723,3.26070180
37.61314732,-0.56362601,-1.19426660,0.19402429,-0.02533483

>  <Name>
1nta_lig

>  <RI>
0

>  <Rbt.Current_Directory>
/home/itssahil/PROJECTS/Mol_Feturizer/New_Systems/rnas/1nta

>  <Rbt.Executable>
rbdock ($Id: //depot/dev/client3/rdock/2013.1/src/exe/rbdock.cxx#4 $)

>  <Rbt.Library>
libRbt.so (2013.1, Build901 2013/11/27)

>  <Rbt.Parameter_File>
/export/apps/rDock/src/rDock_2013.1_src/data/scripts/dock_solv.prm

>  <Rbt.Receptor>
prm/pocket_docking_7.prm

>  <SCORE>
-26.4182

>  <SCORE.INTER>
-5.53689

>  <SCORE.INTER.CONST>
1

>  <SCORE.INTER.POLAR>
-0.8

>  <SCORE.INTER.ROT>
11

>  <SCORE.INTER.SOLV>
20.2513

>  <SCORE.INTER.VDW>
-18.7084

>  <SCORE.INTER.norm>
-0.138422

>  <SCORE.INTRA>
-20.8813

>  <SCORE.INTRA.DIHEDRAL>
-0.926187

>  <SCORE.INTRA.DIHEDRAL.0>
19.0336

>  <SCORE.INTRA.POLAR>
0

>  <SCORE.INTRA.POLAR.0>
0

>  <SCORE.INTRA.REPUL>
0

>  <SCORE.INTRA.REPUL.0>
0

>  <SCORE.INTRA.SOLV>
-3.94733

>  <SCORE.INTRA.SOLV.lig_0>
-97.5861

>  <SCORE.INTRA.VDW>
-18.4446

>  <SCORE.INTRA.VDW.0>
11.7669

>  <SCORE.INTRA.norm>
-0.522033

>  <SCORE.RESTR>
0

>  <SCORE.RESTR.CAVITY>
0

>  <SCORE.RESTR.norm>
0

>  <SCORE.SYSTEM>
0

>  <SCORE.SYSTEM.CONST>
0

>  <SCORE.SYSTEM.DIHEDRAL>
0

>  <SCORE.SYSTEM.SOLV>
0

>  <SCORE.SYSTEM.norm>
0

>  <SCORE.heavy>
40

>  <SCORE.norm>
-0.660456

>  <RMSD>
5.472

$$$$
1nta_lig
 OpenBabel11021811403D
libRbt.so/2013.1/901 2013/11/27
 40 42  0  0  0  0  0  0  0  0999 V2000
   11.4450   31.4286   -2.6417 C   0  0  0  0  0  0  0  0  0  0  0  0
   12.2279   31.2730   -1.6403 N   0  0  0  0  0  0  0  0  0  0  0  0
    3.1216   35.1771    1.3721 C   0  0  0  0  0  0  0  0  0  0  0  0
    3.0810   35.7257    2.4512 O   0  0  0  0  0  0  0  0  0  0  0  0
    5.3445   32.4581   -4.2239 C   0  0  0  0  0  0  0  0  0  0  0  0
    5.9077   31.4487   -4.8354 N   0  0  0  0  0  0  0  0  0  0  0  0
    5.0979   37.7516    0.6454 C   0  0  0  0  0  0  0  0  0  0  0  0
    1.4343   31.9795    0.6202 C   0  0  0  0  0  0  0  0  0  0  0  0
    9.4259   32.5624   -2.1532 C   0  0  2  0  0  0  0  0  0  0  0  0
   10.8348   32.6023   -2.7121 N   0  0  0  0  0  0  0  0  0  0  0  0
    4.7990   34.9915   -1.6313 C   0  0  2  0  0  0  0  0  0  0  0  0
    1.8108   33.7904   -2.1729 C   0  0  1  0  0  0  0  0  0  0  0  0
    2.4764   34.9820   -1.9393 O   0  0  0  0  0  0  0  0  0  0  0  0
    8.4184   33.0188   -3.2253 C   0  0  1  0  0  0  0  0  0  0  0  0
    8.4832   32.0956   -4.2701 O   0  0  0  0  0  0  0  0  0  0  0  0
    3.4115   34.8701   -1.0107 C   0  0  2  0  0  0  0  0  0  0  0  0
    0.8141   33.3859   -1.1090 C   0  0  1  0  0  0  0  0  0  0  0  0
    1.4783   33.3532    0.1479 N   0  0  0  0  0  0  0  0  0  0  0  0
    6.9743   33.0208   -2.7064 C   0  0  2  0  0  0  0  0  0  0  0  0
    5.9770   33.4598   -3.7118 N   0  0  0  0  0  0  0  0  0  0  0  0
    3.5042   35.8468    0.0794 C   0  0  1  0  0  0  0  0  0  0  0  0
    2.6290   36.9286   -0.2457 O   0  0  0  0  0  0  0  0  0  0  0  0
   -0.2373   34.2891   -1.0397 C   0  0  2  0  0  0  0  0  0  0  0  0
   -1.2501   33.7043   -0.2605 O   0  0  0  0  0  0  0  0  0  0  0  0
    6.9078   33.9458   -1.5015 C   0  0  1  0  0  0  0  0  0  0  0  0
    5.5716   33.9411   -1.0237 O   0  0  0  0  0  0  0  0  0  0  0  0
    4.8782   36.3613    0.1346 C   0  0  1  0  0  0  0  0  0  0  0  0
    5.3568   36.2101   -1.1962 O   0  0  0  0  0  0  0  0  0  0  0  0
   -0.7691   34.5812   -2.4183 C   0  0  1  0  0  0  0  0  0  0  0  0
   -1.6527   35.6611   -2.3444 O   0  0  0  0  0  0  0  0  0  0  0  0
    7.8917   33.4623   -0.3984 C   0  0  2  0  0  0  0  0  0  0  0  0
    7.8073   34.3357    0.7265 O   0  0  0  0  0  0  0  0  0  0  0  0
    0.3547   34.9567   -3.3230 C   0  0  1  0  0  0  0  0  0  0  0  0
    1.2301   33.8685   -3.3925 O   0  0  0  0  0  0  0  0  0  0  0  0
    9.3303   33.4841   -0.9560 C   0  0  1  0  0  0  0  0  0  0  0  0
   10.2558   33.0411    0.0500 O   0  0  0  0  0  0  0  0  0  0  0  0
   -0.1479   35.2444   -4.7516 C   0  0  0  0  0  0  0  0  0  0  0  0
   -0.7109   34.0569   -5.2975 O   0  0  0  0  0  0  0  0  0  0  0  0
   11.2562   30.5060   -3.5222 N   0  0  0  0  0  0  0  0  0  0  0  0
    4.0742   32.5084   -4.1233 N   0  0  0  0  0  0  0  0  0  0  0  0
  1  2  1  0  0  0  0
  1 39  1  0  0  0  0
  3  4  1  0  0  0  0
  5  6  1  0  0  0  0
  5 40  1  0  0  0  0
  9 10  1  6  0  0  0
  9 14  1  0  0  0  0
  9 35  1  0  0  0  0
 10  1  1  0  0  0  0
 11 16  1  0  0  0  0
 11 28  1  0  0  0  0
 11 26  1  1  0  0  0
 12 17  1  0  0  0  0
 12 34  1  0  0  0  0
 12 13  1  1  0  0  0
 14 15  1  6  0  0  0
 14 19  1  0  0  0  0
 16 13  1  6  0  0  0
 16 21  1  0  0  0  0
 17 18  1  1  0  0  0
 17 23  1  0  0  0  0
 18  8  1  0  0  0  0
 19 20  1  6  0  0  0
 19 25  1  0  0  0  0
 20  5  1  0  0  0  0
 21  3  1  1  0  0  0
 21 22  1  0  0  0  0
 21 27  1  0  0  0  0
 23 24  1  1  0  0  0
 23 29  1  0  0  0  0
 25 26  1  1  0  0  0
 25 31  1  0  0  0  0
 27  7  1  6  0  0  0
 27 28  1  0  0  0  0
 29 30  1  1  0  0  0
 29 33  1  0  0  0  0
 31 32  1  1  0  0  0
 31 35  1  0  0  0  0
 33 34  1  0  0  0  0
 33 37  1  6  0  0  0
 35 36  1  1  0  0  0
 37 38  1  0  0  0  0
M  END
>  <CHROM.1>
-122.72010416,-97.63983913,-179.23137066,75.00764424,110.46149077,-116.70904252
102.01320602,-57.17236317,-178.90837257,-91.45341426,-63.30764304,4.66382868
33.93463776,-1.71766988,0.15034401,0.18885220,-2.07651086

>  <Name>
1nta_lig

>  <RI>
0

>  <Rbt.Current_Directory>
/home/itssahil/PROJECTS/Mol_Feturizer/New_Systems/rnas/1nta

>  <Rbt.Executable>
rbdock ($Id: //depot/dev/client3/rdock/2013.1/src/exe/rbdock.cxx#4 $)

>  <Rbt.Library>
libRbt.so (2013.1, Build901 2013/11/27)

>  <Rbt.Parameter_File>
/export/apps/rDock/src/rDock_2013.1_src/data/scripts/dock_solv.prm

>  <Rbt.Receptor>
prm/pocket_docking_6.prm

>  <SCORE>
-23.2657

>  <SCORE.INTER>
-5.67909

>  <SCORE.INTER.CONST>
1

>  <SCORE.INTER.POLAR>
-1.37578

>  <SCORE.INTER.ROT>
11

>  <SCORE.INTER.SOLV>
34.9912

>  <SCORE.INTER.VDW>
-21.7972

>  <SCORE.INTER.norm>
-0.141977

>  <SCORE.INTRA>
-17.6828

>  <SCORE.INTRA.DIHEDRAL>
-2.47203

>  <SCORE.INTRA.DIHEDRAL.0>
19.0336

>  <SCORE.INTRA.POLAR>
0

>  <SCORE.INTRA.POLAR.0>
0

>  <SCORE.INTRA.REPUL>
0.195162

>  <SCORE.INTRA.REPUL.0>
0

>  <SCORE.INTRA.SOLV>
-0.628252

>  <SCORE.INTRA.SOLV.lig_0>
-97.5861

>  <SCORE.INTRA.VDW>
-17.1085

>  <SCORE.INTRA.VDW.0>
11.7669

>  <SCORE.INTRA.norm>
-0.44207

>  <SCORE.RESTR>
0.0962215

>  <SCORE.RESTR.CAVITY>
0.0962215

>  <SCORE.RESTR.norm>
0.00240554

>  <SCORE.SYSTEM>
0

>  <SCORE.SYSTEM.CONST>
0

>  <SCORE.SYSTEM.DIHEDRAL>
0

>  <SCORE.SYSTEM.SOLV>
0

>  <SCORE.SYSTEM.norm>
0

>  <SCORE.heavy>
40

>  <SCORE.norm>
-0.581642

>  <RMSD>
5.535

$$$$
1nta_lig
 OpenBabel11021811403D
libRbt.so/2013.1/901 2013/11/27
 40 42  0  0  0  0  0  0  0  0999 V2000
    5.2489   32.9394   -0.1548 C   0  0  0  0  0  0  0  0  0  0  0  0
    4.9860   32.3486    0.9506 N   0  0  0  0  0  0  0  0  0  0  0  0
   -2.6625   37.9839   -1.0793 C   0  0  0  0  0  0  0  0  0  0  0  0
   -3.8437   38.1513   -0.8696 O   0  0  0  0  0  0  0  0  0  0  0  0
   -0.9110   34.5849    1.4877 C   0  0  0  0  0  0  0  0  0  0  0  0
   -0.6654   33.4336    2.0569 N   0  0  0  0  0  0  0  0  0  0  0  0
   -2.2822   40.5464    1.0064 C   0  0  0  0  0  0  0  0  0  0  0  0
    0.1158   34.9708   -3.1001 C   0  0  0  0  0  0  0  0  0  0  0  0
    3.4078   34.4258   -0.1152 C   0  0  2  0  0  0  0  0  0  0  0  0
    4.1969   33.3556   -0.8438 N   0  0  0  0  0  0  0  0  0  0  0  0
    0.5830   38.7783   -0.2404 C   0  0  2  0  0  0  0  0  0  0  0  0
    1.1510   38.1384   -3.0909 C   0  0  1  0  0  0  0  0  0  0  0  0
    0.2106   38.9947   -2.5433 O   0  0  0  0  0  0  0  0  0  0  0  0
    1.8981   34.1449   -0.2369 C   0  0  1  0  0  0  0  0  0  0  0  0
    1.6527   32.9302    0.4053 O   0  0  0  0  0  0  0  0  0  0  0  0
   -0.3290   38.5173   -1.4342 C   0  0  2  0  0  0  0  0  0  0  0  0
    0.5952   37.0533   -3.9867 C   0  0  1  0  0  0  0  0  0  0  0  0
   -0.3878   36.3244   -3.2624 N   0  0  0  0  0  0  0  0  0  0  0  0
    1.0472   35.2122    0.4642 C   0  0  2  0  0  0  0  0  0  0  0  0
   -0.4130   34.9759    0.3631 N   0  0  0  0  0  0  0  0  0  0  0  0
   -1.6036   39.0439   -0.9352 C   0  0  1  0  0  0  0  0  0  0  0  0
   -1.9061   40.2139   -1.6980 O   0  0  0  0  0  0  0  0  0  0  0  0
    0.0090   37.5943   -5.1224 C   0  0  2  0  0  0  0  0  0  0  0  0
   -0.2115   36.5435   -6.0293 O   0  0  0  0  0  0  0  0  0  0  0  0
    1.3780   36.5606   -0.1557 C   0  0  1  0  0  0  0  0  0  0  0  0
    0.5913   37.5440    0.4984 O   0  0  0  0  0  0  0  0  0  0  0  0
   -1.4330   39.4364    0.4692 C   0  0  1  0  0  0  0  0  0  0  0  0
   -0.0471   39.7373    0.5775 O   0  0  0  0  0  0  0  0  0  0  0  0
    0.9227   38.6150   -5.7484 C   0  0  1  0  0  0  0  0  0  0  0  0
    0.2188   39.3093   -6.7357 O   0  0  0  0  0  0  0  0  0  0  0  0
    2.8940   36.8680    0.0047 C   0  0  2  0  0  0  0  0  0  0  0  0
    3.1825   38.1402   -0.5731 O   0  0  0  0  0  0  0  0  0  0  0  0
    1.3683   39.5933   -4.7155 C   0  0  1  0  0  0  0  0  0  0  0  0
    2.0742   38.8889   -3.7352 O   0  0  0  0  0  0  0  0  0  0  0  0
    3.7126   35.7795   -0.7207 C   0  0  1  0  0  0  0  0  0  0  0  0
    5.1179   36.0466   -0.5846 O   0  0  0  0  0  0  0  0  0  0  0  0
    2.3232   40.6448   -5.3144 C   0  0  0  0  0  0  0  0  0  0  0  0
    2.7629   41.5196   -4.2817 O   0  0  0  0  0  0  0  0  0  0  0  0
    6.4549   33.1152   -0.5754 N   0  0  0  0  0  0  0  0  0  0  0  0
   -1.7161   35.4052    2.0401 N   0  0  0  0  0  0  0  0  0  0  0  0
  1  2  1  0  0  0  0
  1 39  1  0  0  0  0
  3  4  1  0  0  0  0
  5  6  1  0  0  0  0
  5 40  1  0  0  0  0
  9 10  1  6  0  0  0
  9 14  1  0  0  0  0
  9 35  1  0  0  0  0
 10  1  1  0  0  0  0
 11 16  1  0  0  0  0
 11 28  1  0  0  0  0
 11 26  1  1  0  0  0
 12 17  1  0  0  0  0
 12 34  1  0  0  0  0
 12 13  1  6  0  0  0
 14 15  1  1  0  0  0
 14 19  1  0  0  0  0
 16 13  1  6  0  0  0
 16 21  1  0  0  0  0
 17 18  1  1  0  0  0
 17 23  1  0  0  0  0
 18  8  1  0  0  0  0
 19 20  1  6  0  0  0
 19 25  1  0  0  0  0
 20  5  1  0  0  0  0
 21  3  1  6  0  0  0
 21 22  1  0  0  0  0
 21 27  1  0  0  0  0
 23 24  1  6  0  0  0
 23 29  1  0  0  0  0
 25 26  1  1  0  0  0
 25 31  1  0  0  0  0
 27  7  1  6  0  0  0
 27 28  1  0  0  0  0
 29 30  1  6  0  0  0
 29 33  1  0  0  0  0
 31 32  1  6  0  0  0
 31 35  1  0  0  0  0
 33 34  1  0  0  0  0
 33 37  1  6  0  0  0
 35 36  1  1  0  0  0
 37 38  1  0  0  0  0
M  END
>  <CHROM.1>
-136.61390872,64.23690902,74.46239546,84.68153832,81.61769644,-114.83593002
107.26093429,-67.94486407,-172.96170367,-165.25534732,-177.61591431,0.97659818
37.01222503,-1.46808071,-1.01300857,0.53767312,-0.90151540

>  <Name>
1nta_lig

>  <RI>
0

>  <Rbt.Current_Directory>
/home/itssahil/PROJECTS/Mol_Feturizer/New_Systems/rnas/1nta

>  <Rbt.Executable>
rbdock ($Id: //depot/dev/client3/rdock/2013.1/src/exe/rbdock.cxx#4 $)

>  <Rbt.Library>
libRbt.so (2013.1, Build901 2013/11/27)

>  <Rbt.Parameter_File>
/export/apps/rDock/src/rDock_2013.1_src/data/scripts/dock_solv.prm

>  <Rbt.Receptor>
prm/pocket_docking_5.prm

>  <SCORE>
-18.668

>  <SCORE.INTER>
4.54274

>  <SCORE.INTER.CONST>
1

>  <SCORE.INTER.POLAR>
-0.464735

>  <SCORE.INTER.ROT>
11

>  <SCORE.INTER.SOLV>
15.3863

>  <SCORE.INTER.VDW>
-11.4845

>  <SCORE.INTER.norm>
0.113569

>  <SCORE.INTRA>
-23.2107

>  <SCORE.INTRA.DIHEDRAL>
-7.23265

>  <SCORE.INTRA.DIHEDRAL.0>
19.0336

>  <SCORE.INTRA.POLAR>
0

>  <SCORE.INTRA.POLAR.0>
0

>  <SCORE.INTRA.REPUL>
0

>  <SCORE.INTRA.REPUL.0>
0

>  <SCORE.INTRA.SOLV>
-2.82722

>  <SCORE.INTRA.SOLV.lig_0>
-97.5861

>  <SCORE.INTRA.VDW>
-18.1808

>  <SCORE.INTRA.VDW.0>
11.7669

>  <SCORE.INTRA.norm>
-0.580268

>  <SCORE.RESTR>
0

>  <SCORE.RESTR.CAVITY>
0

>  <SCORE.RESTR.norm>
0

>  <SCORE.SYSTEM>
0

>  <SCORE.SYSTEM.CONST>
0

>  <SCORE.SYSTEM.DIHEDRAL>
0

>  <SCORE.SYSTEM.SOLV>
0

>  <SCORE.SYSTEM.norm>
0

>  <SCORE.heavy>
40

>  <SCORE.norm>
-0.4667

>  <RMSD>
5.577

$$$$
1nta_lig
 OpenBabel11021811403D
libRbt.so/2013.1/901 2013/11/27
 40 42  0  0  0  0  0  0  0  0999 V2000
   11.7995   31.9840   -2.7475 C   0  0  0  0  0  0  0  0  0  0  0  0
   11.6611   31.3214   -3.8347 N   0  0  0  0  0  0  0  0  0  0  0  0
    2.2585   34.6119   -2.3198 C   0  0  0  0  0  0  0  0  0  0  0  0
    2.5996   34.1999   -3.4066 O   0  0  0  0  0  0  0  0  0  0  0  0
    6.5905   31.3582   -5.2632 C   0  0  0  0  0  0  0  0  0  0  0  0
    6.0759   30.1562   -5.2547 N   0  0  0  0  0  0  0  0  0  0  0  0
    1.4834   32.0550   -0.3392 C   0  0  0  0  0  0  0  0  0  0  0  0
    1.5336   37.5238   -1.3476 C   0  0  0  0  0  0  0  0  0  0  0  0
    9.5538   32.5439   -2.2539 C   0  0  2  0  0  0  0  0  0  0  0  0
   10.9619   32.9974   -2.5862 N   0  0  0  0  0  0  0  0  0  0  0  0
    4.8786   33.1955   -0.5886 C   0  0  2  0  0  0  0  0  0  0  0  0
    4.5252   36.7334   -0.5243 C   0  0  1  0  0  0  0  0  0  0  0  0
    4.5830   35.4475   -0.0138 O   0  0  0  0  0  0  0  0  0  0  0  0
    8.6602   32.6325   -3.5056 C   0  0  1  0  0  0  0  0  0  0  0  0
    9.1791   31.7405   -4.4453 O   0  0  0  0  0  0  0  0  0  0  0  0
    4.2117   34.5325   -0.8936 C   0  0  2  0  0  0  0  0  0  0  0  0
    3.4032   37.5940    0.0134 C   0  0  1  0  0  0  0  0  0  0  0  0
    2.1706   36.9153   -0.1917 N   0  0  0  0  0  0  0  0  0  0  0  0
    7.2136   32.2066   -3.2217 C   0  0  2  0  0  0  0  0  0  0  0  0
    6.3231   32.2840   -4.4046 N   0  0  0  0  0  0  0  0  0  0  0  0
    2.8065   34.1275   -1.0043 C   0  0  1  0  0  0  0  0  0  0  0  0
    2.1133   34.6948    0.1091 O   0  0  0  0  0  0  0  0  0  0  0  0
    3.5645   37.8349    1.3707 C   0  0  2  0  0  0  0  0  0  0  0  0
    2.6748   38.8619    1.7294 O   0  0  0  0  0  0  0  0  0  0  0  0
    6.6645   33.1050   -2.1248 C   0  0  1  0  0  0  0  0  0  0  0  0
    5.3283   32.7046   -1.8639 O   0  0  0  0  0  0  0  0  0  0  0  0
    2.7291   32.6648   -0.9034 C   0  0  1  0  0  0  0  0  0  0  0  0
    3.8772   32.3102   -0.1425 O   0  0  0  0  0  0  0  0  0  0  0  0
    4.9770   38.2690    1.6618 C   0  0  1  0  0  0  0  0  0  0  0  0
    5.1755   38.2703    3.0449 O   0  0  0  0  0  0  0  0  0  0  0  0
    7.5385   32.9844   -0.8441 C   0  0  2  0  0  0  0  0  0  0  0  0
    7.0020   33.8256    0.1757 O   0  0  0  0  0  0  0  0  0  0  0  0
    5.9365   37.3046    1.0520 C   0  0  1  0  0  0  0  0  0  0  0  0
    5.7319   37.3141   -0.3312 O   0  0  0  0  0  0  0  0  0  0  0  0
    8.9797   33.4300   -1.1689 C   0  0  1  0  0  0  0  0  0  0  0  0
    9.8039   33.3266    0.0037 O   0  0  0  0  0  0  0  0  0  0  0  0
    7.3963   37.7264    1.3116 C   0  0  0  0  0  0  0  0  0  0  0  0
    8.2694   36.7116    0.8290 O   0  0  0  0  0  0  0  0  0  0  0  0
   12.6959   31.6912   -1.8683 N   0  0  0  0  0  0  0  0  0  0  0  0
    7.4434   31.6755   -6.1567 N   0  0  0  0  0  0  0  0  0  0  0  0
  1  2  1  0  0  0  0
  1 39  1  0  0  0  0
  3  4  1  0  0  0  0
  5  6  1  0  0  0  0
  5 40  1  0  0  0  0
  9 10  1  6  0  0  0
  9 14  1  0  0  0  0
  9 35  1  0  0  0  0
 10  1  1  0  0  0  0
 11 16  1  0  0  0  0
 11 28  1  0  0  0  0
 11 26  1  6  0  0  0
 12 17  1  0  0  0  0
 12 34  1  0  0  0  0
 12 13  1  1  0  0  0
 14 15  1  6  0  0  0
 14 19  1  0  0  0  0
 16 13  1  1  0  0  0
 16 21  1  0  0  0  0
 17 18  1  1  0  0  0
 17 23  1  0  0  0  0
 18  8  1  0  0  0  0
 19 20  1  6  0  0  0
 19 25  1  0  0  0  0
 20  5  1  0  0  0  0
 21  3  1  6  0  0  0
 21 22  1  0  0  0  0
 21 27  1  0  0  0  0
 23 24  1  6  0  0  0
 23 29  1  0  0  0  0
 25 26  1  1  0  0  0
 25 31  1  0  0  0  0
 27  7  1  1  0  0  0
 27 28  1  0  0  0  0
 29 30  1  1  0  0  0
 29 33  1  0  0  0  0
 31 32  1  1  0  0  0
 31 35  1  0  0  0  0
 33 34  1  0  0  0  0
 33 37  1  6  0  0  0
 35 36  1  1  0  0  0
 37 38  1  0  0  0  0
M  END
>  <CHROM.1>
-101.96247655,73.61181580,92.17950669,107.93500077,153.15563352,-101.86793550
71.60503018,87.86440060,67.66845298,161.83502851,174.26667821,5.97517776
34.30269461,-1.26739201,-0.79654979,-0.07214263,0.73408226

>  <Name>
1nta_lig

>  <RI>
9.25352e+06

>  <Rbt.Current_Directory>
/home/itssahil/PROJECTS/Mol_Feturizer/New_Systems/rnas/1nta

>  <Rbt.Executable>
rbdock ($Id: //depot/dev/client3/rdock/2013.1/src/exe/rbdock.cxx#4 $)

>  <Rbt.Library>
libRbt.so (2013.1, Build901 2013/11/27)

>  <Rbt.Parameter_File>
/export/apps/rDock/src/rDock_2013.1_src/data/scripts/dock_solv.prm

>  <Rbt.Receptor>
prm/blind_docking_40.prm

>  <SCORE>
7.96262

>  <SCORE.INTER>
11.9208

>  <SCORE.INTER.CONST>
1

>  <SCORE.INTER.POLAR>
-0.655343

>  <SCORE.INTER.ROT>
11

>  <SCORE.INTER.SOLV>
46.874

>  <SCORE.INTER.VDW>
-16.4263

>  <SCORE.INTER.norm>
0.298021

>  <SCORE.INTRA>
-6.53721

>  <SCORE.INTRA.DIHEDRAL>
-0.401353

>  <SCORE.INTRA.DIHEDRAL.0>
19.0336

>  <SCORE.INTRA.POLAR>
0

>  <SCORE.INTRA.POLAR.0>
0

>  <SCORE.INTRA.REPUL>
0.0403284

>  <SCORE.INTRA.REPUL.0>
0

>  <SCORE.INTRA.SOLV>
-2.21236

>  <SCORE.INTRA.SOLV.lig_0>
-97.5861

>  <SCORE.INTRA.VDW>
-5.432

>  <SCORE.INTRA.VDW.0>
11.7669

>  <SCORE.INTRA.norm>
-0.16343

>  <SCORE.RESTR>
2.579

>  <SCORE.RESTR.CAVITY>
2.579

>  <SCORE.RESTR.norm>
0.064475

>  <SCORE.SYSTEM>
0

>  <SCORE.SYSTEM.CONST>
0

>  <SCORE.SYSTEM.DIHEDRAL>
0

>  <SCORE.SYSTEM.SOLV>
0

>  <SCORE.SYSTEM.norm>
0

>  <SCORE.heavy>
40

>  <SCORE.norm>
0.199065

>  <RMSD>
5.598

$$$$
1nta_lig
 OpenBabel11021811403D
libRbt.so/2013.1/901 2013/11/27
 40 42  0  0  0  0  0  0  0  0999 V2000
    8.0558   31.3332   -5.1881 C   0  0  0  0  0  0  0  0  0  0  0  0
    7.7015   31.3475   -6.4186 N   0  0  0  0  0  0  0  0  0  0  0  0
    4.9034   37.2953    2.4662 C   0  0  0  0  0  0  0  0  0  0  0  0
    5.6433   38.0486    3.0597 O   0  0  0  0  0  0  0  0  0  0  0  0
    9.4818   33.9476   -0.0983 C   0  0  0  0  0  0  0  0  0  0  0  0
    9.9728   35.1595   -0.0945 N   0  0  0  0  0  0  0  0  0  0  0  0
    5.8108   39.3947    0.0516 C   0  0  0  0  0  0  0  0  0  0  0  0
   -0.6751   36.6775    1.8414 C   0  0  0  0  0  0  0  0  0  0  0  0
    6.9448   32.6040   -3.5294 C   0  0  2  0  0  0  0  0  0  0  0  0
    7.0651   31.3092   -4.3091 N   0  0  0  0  0  0  0  0  0  0  0  0
    4.8525   36.0254   -0.7359 C   0  0  2  0  0  0  0  0  0  0  0  0
    2.0546   35.2987    1.2456 C   0  0  1  0  0  0  0  0  0  0  0  0
    2.7244   35.9800    0.2432 O   0  0  0  0  0  0  0  0  0  0  0  0
    7.6615   32.4726   -2.1721 C   0  0  1  0  0  0  0  0  0  0  0  0
    9.0157   32.2669   -2.4404 O   0  0  0  0  0  0  0  0  0  0  0  0
    4.0032   36.1698    0.5223 C   0  0  2  0  0  0  0  0  0  0  0  0
    0.6076   34.9706    0.9504 C   0  0  1  0  0  0  0  0  0  0  0  0
   -0.0734   36.1739    0.6181 N   0  0  0  0  0  0  0  0  0  0  0  0
    7.5520   33.7494   -1.3279 C   0  0  2  0  0  0  0  0  0  0  0  0
    8.2273   33.6569   -0.0113 N   0  0  0  0  0  0  0  0  0  0  0  0
    4.4740   37.4614    1.0331 C   0  0  1  0  0  0  0  0  0  0  0  0
    3.3950   38.3886    0.8987 O   0  0  0  0  0  0  0  0  0  0  0  0
    0.5027   34.0851   -0.1130 C   0  0  2  0  0  0  0  0  0  0  0  0
   -0.8170   33.6026   -0.1367 O   0  0  0  0  0  0  0  0  0  0  0  0
    6.0765   34.0460   -1.1115 C   0  0  1  0  0  0  0  0  0  0  0  0
    5.9810   35.2290   -0.3337 O   0  0  0  0  0  0  0  0  0  0  0  0
    5.5884   37.9210    0.1949 C   0  0  1  0  0  0  0  0  0  0  0  0
    5.3518   37.3017   -1.0634 O   0  0  0  0  0  0  0  0  0  0  0  0
    1.4559   32.9330    0.0681 C   0  0  1  0  0  0  0  0  0  0  0  0
    1.5043   32.1934   -1.1163 O   0  0  0  0  0  0  0  0  0  0  0  0
    5.3581   34.2235   -2.4794 C   0  0  2  0  0  0  0  0  0  0  0  0
    3.9788   34.5111   -2.2555 O   0  0  0  0  0  0  0  0  0  0  0  0
    2.8244   33.4512    0.3529 C   0  0  1  0  0  0  0  0  0  0  0  0
    2.7652   34.1860    1.5411 O   0  0  0  0  0  0  0  0  0  0  0  0
    5.4829   32.9176   -3.2919 C   0  0  1  0  0  0  0  0  0  0  0  0
    4.8236   33.0613   -4.5605 O   0  0  0  0  0  0  0  0  0  0  0  0
    3.8270   32.2995    0.5648 C   0  0  0  0  0  0  0  0  0  0  0  0
    3.1803   31.2377    1.2571 O   0  0  0  0  0  0  0  0  0  0  0  0
    9.2926   31.3462   -4.8241 N   0  0  0  0  0  0  0  0  0  0  0  0
   10.2644   32.9478   -0.2183 N   0  0  0  0  0  0  0  0  0  0  0  0
  1  2  1  0  0  0  0
  1 39  1  0  0  0  0
  3  4  1  0  0  0  0
  5  6  1  0  0  0  0
  5 40  1  0  0  0  0
  9 10  1  1  0  0  0
  9 14  1  0  0  0  0
  9 35  1  0  0  0  0
 10  1  1  0  0  0  0
 11 16  1  0  0  0  0
 11 28  1  0  0  0  0
 11 26  1  1  0  0  0
 12 17  1  0  0  0  0
 12 34  1  0  0  0  0
 12 13  1  6  0  0  0
 14 15  1  6  0  0  0
 14 19  1  0  0  0  0
 16 13  1  6  0  0  0
 16 21  1  0  0  0  0
 17 18  1  6  0  0  0
 17 23  1  0  0  0  0
 18  8  1  0  0  0  0
 19 20  1  1  0  0  0
 19 25  1  0  0  0  0
 20  5  1  0  0  0  0
 21  3  1  1  0  0  0
 21 22  1  0  0  0  0
 21 27  1  0  0  0  0
 23 24  1  1  0  0  0
 23 29  1  0  0  0  0
 25 26  1  1  0  0  0
 25 31  1  0  0  0  0
 27  7  1  6  0  0  0
 27 28  1  0  0  0  0
 29 30  1  6  0  0  0
 29 33  1  0  0  0  0
 31 32  1  1  0  0  0
 31 35  1  0  0  0  0
 33 34  1  0  0  0  0
 33 37  1  1  0  0  0
 35 36  1  6  0  0  0
 37 38  1  0  0  0  0
M  END
>  <CHROM.1>
-97.02064833,-110.87485761,121.84710395,-176.25032015,142.43301098,-93.94672358
85.40701601,82.77249375,159.86291682,144.07671201,-36.93818513,4.87407219
34.45124298,-0.75011286,0.68460057,-0.18263361,-2.46967224

>  <Name>
1nta_lig

>  <RI>
9.25352e+06

>  <Rbt.Current_Directory>
/home/itssahil/PROJECTS/Mol_Feturizer/New_Systems/rnas/1nta

>  <Rbt.Executable>
rbdock ($Id: //depot/dev/client3/rdock/2013.1/src/exe/rbdock.cxx#4 $)

>  <Rbt.Library>
libRbt.so (2013.1, Build901 2013/11/27)

>  <Rbt.Parameter_File>
/export/apps/rDock/src/rDock_2013.1_src/data/scripts/dock_solv.prm

>  <Rbt.Receptor>
prm/blind_docking_40.prm

>  <SCORE>
-3.8378

>  <SCORE.INTER>
-3.76836

>  <SCORE.INTER.CONST>
1

>  <SCORE.INTER.POLAR>
-2.60954

>  <SCORE.INTER.ROT>
11

>  <SCORE.INTER.SOLV>
46.4667

>  <SCORE.INTER.VDW>
-20.236

>  <SCORE.INTER.norm>
-0.094209

>  <SCORE.INTRA>
-5.01933

>  <SCORE.INTRA.DIHEDRAL>
4.0146

>  <SCORE.INTRA.DIHEDRAL.0>
19.0336

>  <SCORE.INTRA.POLAR>
0

>  <SCORE.INTRA.POLAR.0>
0

>  <SCORE.INTRA.REPUL>
0

>  <SCORE.INTRA.REPUL.0>
0

>  <SCORE.INTRA.SOLV>
-4.14289

>  <SCORE.INTRA.SOLV.lig_0>
-97.5861

>  <SCORE.INTRA.VDW>
-4.95519

>  <SCORE.INTRA.VDW.0>
11.7669

>  <SCORE.INTRA.norm>
-0.125483

>  <SCORE.RESTR>
4.94989

>  <SCORE.RESTR.CAVITY>
4.94989

>  <SCORE.RESTR.norm>
0.123747

>  <SCORE.SYSTEM>
0

>  <SCORE.SYSTEM.CONST>
0

>  <SCORE.SYSTEM.DIHEDRAL>
0

>  <SCORE.SYSTEM.SOLV>
0

>  <SCORE.SYSTEM.norm>
0

>  <SCORE.heavy>
40

>  <SCORE.norm>
-0.095945

>  <RMSD>
5.630

$$$$
1nta_lig
 OpenBabel11021811403D
libRbt.so/2013.1/901 2013/11/27
 40 42  0  0  0  0  0  0  0  0999 V2000
    6.6628   42.6686    0.3977 C   0  0  0  0  0  0  0  0  0  0  0  0
    5.9511   43.7150    0.5943 N   0  0  0  0  0  0  0  0  0  0  0  0
    1.8465   34.3016   -2.2110 C   0  0  0  0  0  0  0  0  0  0  0  0
    1.9999   35.1934   -3.0163 O   0  0  0  0  0  0  0  0  0  0  0  0
    2.0877   40.0165   -1.9218 C   0  0  0  0  0  0  0  0  0  0  0  0
    2.2257   39.4980   -3.1143 N   0  0  0  0  0  0  0  0  0  0  0  0
    4.8903   33.1398   -1.5423 C   0  0  0  0  0  0  0  0  0  0  0  0
   -0.4846   31.6200    2.2656 C   0  0  0  0  0  0  0  0  0  0  0  0
    5.8965   40.4297    0.4237 C   0  0  2  0  0  0  0  0  0  0  0  0
    6.3957   41.6400    1.1885 N   0  0  0  0  0  0  0  0  0  0  0  0
    3.5001   35.8179    0.4034 C   0  0  2  0  0  0  0  0  0  0  0  0
    0.2145   34.4059    0.8399 C   0  0  1  0  0  0  0  0  0  0  0  0
    1.5131   34.8006    1.1146 O   0  0  0  0  0  0  0  0  0  0  0  0
    4.3794   40.5452    0.1825 C   0  0  1  0  0  0  0  0  0  0  0  0
    4.1754   41.6662   -0.6235 O   0  0  0  0  0  0  0  0  0  0  0  0
    2.1783   35.1566    0.0283 C   0  0  2  0  0  0  0  0  0  0  0  0
   -0.5806   33.9198    2.0316 C   0  0  1  0  0  0  0  0  0  0  0  0
    0.1415   32.8699    2.6629 N   0  0  0  0  0  0  0  0  0  0  0  0
    3.8137   39.3330   -0.5693 C   0  0  2  0  0  0  0  0  0  0  0  0
    2.3535   39.4084   -0.8149 N   0  0  0  0  0  0  0  0  0  0  0  0
    2.6314   34.1485   -0.9358 C   0  0  1  0  0  0  0  0  0  0  0  0
    2.4346   32.8678   -0.3333 O   0  0  0  0  0  0  0  0  0  0  0  0
   -0.7829   34.9420    2.9482 C   0  0  2  0  0  0  0  0  0  0  0  0
   -1.7597   34.5084    3.8608 O   0  0  0  0  0  0  0  0  0  0  0  0
    4.1180   38.0876    0.2481 C   0  0  1  0  0  0  0  0  0  0  0  0
    3.5960   36.9697   -0.4531 O   0  0  0  0  0  0  0  0  0  0  0  0
    4.0685   34.3352   -1.1713 C   0  0  1  0  0  0  0  0  0  0  0  0
    4.5382   34.9430    0.0257 O   0  0  0  0  0  0  0  0  0  0  0  0
   -1.2654   36.1855    2.2486 C   0  0  1  0  0  0  0  0  0  0  0  0
   -1.2292   37.2549    3.1472 O   0  0  0  0  0  0  0  0  0  0  0  0
    5.6525   37.9433    0.4559 C   0  0  2  0  0  0  0  0  0  0  0  0
    5.9183   36.7649    1.2150 O   0  0  0  0  0  0  0  0  0  0  0  0
   -0.3623   36.5034    1.1058 C   0  0  1  0  0  0  0  0  0  0  0  0
   -0.4090   35.4293    0.2117 O   0  0  0  0  0  0  0  0  0  0  0  0
    6.1793   39.1748    1.2220 C   0  0  1  0  0  0  0  0  0  0  0  0
    7.5972   39.0598    1.4250 O   0  0  0  0  0  0  0  0  0  0  0  0
   -0.8355   37.7612    0.3506 C   0  0  0  0  0  0  0  0  0  0  0  0
   -2.0881   37.4917   -0.2685 O   0  0  0  0  0  0  0  0  0  0  0  0
    7.5821   42.6167   -0.5047 N   0  0  0  0  0  0  0  0  0  0  0  0
    1.6844   41.2199   -1.7976 N   0  0  0  0  0  0  0  0  0  0  0  0
  1  2  1  0  0  0  0
  1 39  1  0  0  0  0
  3  4  1  0  0  0  0
  5  6  1  0  0  0  0
  5 40  1  0  0  0  0
  9 10  1  1  0  0  0
  9 14  1  0  0  0  0
  9 35  1  0  0  0  0
 10  1  1  0  0  0  0
 11 16  1  0  0  0  0
 11 28  1  0  0  0  0
 11 26  1  6  0  0  0
 12 17  1  0  0  0  0
 12 34  1  0  0  0  0
 12 13  1  1  0  0  0
 14 15  1  6  0  0  0
 14 19  1  0  0  0  0
 16 13  1  1  0  0  0
 16 21  1  0  0  0  0
 17 18  1  1  0  0  0
 17 23  1  0  0  0  0
 18  8  1  0  0  0  0
 19 20  1  1  0  0  0
 19 25  1  0  0  0  0
 20  5  1  0  0  0  0
 21  3  1  6  0  0  0
 21 22  1  0  0  0  0
 21 27  1  0  0  0  0
 23 24  1  1  0  0  0
 23 29  1  0  0  0  0
 25 26  1  6  0  0  0
 25 31  1  0  0  0  0
 27  7  1  1  0  0  0
 27 28  1  0  0  0  0
 29 30  1  1  0  0  0
 29 33  1  0  0  0  0
 31 32  1  1  0  0  0
 31 35  1  0  0  0  0
 33 34  1  0  0  0  0
 33 37  1  6  0  0  0
 35 36  1  6  0  0  0
 37 38  1  0  0  0  0
M  END
>  <CHROM.1>
-84.34616241,117.20324581,139.85880019,177.07456303,169.67088310,-102.31603352
88.30510395,75.97172076,73.80226352,-163.69006059,-65.86902474,2.63369986
37.16137780,0.29011303,0.85495054,0.24479672,0.02078875

>  <Name>
1nta_lig

>  <RI>
0

>  <Rbt.Current_Directory>
/home/itssahil/PROJECTS/Mol_Feturizer/New_Systems/rnas/1nta

>  <Rbt.Executable>
rbdock ($Id: //depot/dev/client3/rdock/2013.1/src/exe/rbdock.cxx#4 $)

>  <Rbt.Library>
libRbt.so (2013.1, Build901 2013/11/27)

>  <Rbt.Parameter_File>
/export/apps/rDock/src/rDock_2013.1_src/data/scripts/dock_solv.prm

>  <Rbt.Receptor>
prm/pocket_docking_8.prm

>  <SCORE>
-29.9001

>  <SCORE.INTER>
-8.33526

>  <SCORE.INTER.CONST>
1

>  <SCORE.INTER.POLAR>
-0.599082

>  <SCORE.INTER.ROT>
11

>  <SCORE.INTER.SOLV>
19.2067

>  <SCORE.INTER.VDW>
-20.8955

>  <SCORE.INTER.norm>
-0.208382

>  <SCORE.INTRA>
-21.57

>  <SCORE.INTRA.DIHEDRAL>
-7.9677

>  <SCORE.INTRA.DIHEDRAL.0>
19.0336

>  <SCORE.INTRA.POLAR>
0

>  <SCORE.INTRA.POLAR.0>
0

>  <SCORE.INTRA.REPUL>
0

>  <SCORE.INTRA.REPUL.0>
0

>  <SCORE.INTRA.SOLV>
-4.23713

>  <SCORE.INTRA.SOLV.lig_0>
-97.5861

>  <SCORE.INTRA.VDW>
-15.4676

>  <SCORE.INTRA.VDW.0>
11.7669

>  <SCORE.INTRA.norm>
-0.539251

>  <SCORE.RESTR>
0.00515334

>  <SCORE.RESTR.CAVITY>
0.00515334

>  <SCORE.RESTR.norm>
0.000128834

>  <SCORE.SYSTEM>
0

>  <SCORE.SYSTEM.CONST>
0

>  <SCORE.SYSTEM.DIHEDRAL>
0

>  <SCORE.SYSTEM.SOLV>
0

>  <SCORE.SYSTEM.norm>
0

>  <SCORE.heavy>
40

>  <SCORE.norm>
-0.747504

>  <RMSD>
5.636

$$$$
1nta_lig
 OpenBabel11021811403D
libRbt.so/2013.1/901 2013/11/27
 40 42  0  0  0  0  0  0  0  0999 V2000
    5.6765   32.9427   -1.2182 C   0  0  0  0  0  0  0  0  0  0  0  0
    5.2535   32.5397   -2.3579 N   0  0  0  0  0  0  0  0  0  0  0  0
   -0.7639   38.4935    0.7780 C   0  0  0  0  0  0  0  0  0  0  0  0
   -1.8698   38.4908    1.2724 O   0  0  0  0  0  0  0  0  0  0  0  0
    0.7064   35.3115    0.0979 C   0  0  0  0  0  0  0  0  0  0  0  0
    0.2644   34.9949    1.2871 N   0  0  0  0  0  0  0  0  0  0  0  0
   -0.0824   40.6084    3.2527 C   0  0  0  0  0  0  0  0  0  0  0  0
    0.9974   38.4050   -4.4656 C   0  0  0  0  0  0  0  0  0  0  0  0
    5.1695   34.9753   -0.1172 C   0  0  2  0  0  0  0  0  0  0  0  0
    5.9920   34.2273   -1.1483 N   0  0  0  0  0  0  0  0  0  0  0  0
    2.5425   39.3971    1.1236 C   0  0  2  0  0  0  0  0  0  0  0  0
    2.5472   39.4045   -1.8445 C   0  0  1  0  0  0  0  0  0  0  0  0
    1.6877   40.0368   -0.9619 O   0  0  0  0  0  0  0  0  0  0  0  0
    3.7521   35.2378   -0.6604 C   0  0  1  0  0  0  0  0  0  0  0  0
    3.1503   33.9940   -0.8573 O   0  0  0  0  0  0  0  0  0  0  0  0
    1.4153   39.2988    0.1013 C   0  0  2  0  0  0  0  0  0  0  0  0
    2.4063   39.8168   -3.2933 C   0  0  1  0  0  0  0  0  0  0  0  0
    1.0531   39.6324   -3.6895 N   0  0  0  0  0  0  0  0  0  0  0  0
    2.8800   36.0147    0.3349 C   0  0  2  0  0  0  0  0  0  0  0  0
    1.5088   36.2896   -0.1575 N   0  0  0  0  0  0  0  0  0  0  0  0
    0.2487   39.5954    0.9392 C   0  0  1  0  0  0  0  0  0  0  0  0
   -0.2629   40.8620    0.5197 O   0  0  0  0  0  0  0  0  0  0  0  0
    2.7497   41.1499   -3.4692 C   0  0  2  0  0  0  0  0  0  0  0  0
    2.8821   41.3768   -4.8498 O   0  0  0  0  0  0  0  0  0  0  0  0
    3.5735   37.3330    0.6401 C   0  0  1  0  0  0  0  0  0  0  0  0
    2.7649   38.0455    1.5632 O   0  0  0  0  0  0  0  0  0  0  0  0
    0.6892   39.7116    2.3349 C   0  0  1  0  0  0  0  0  0  0  0  0
    2.0508   40.1103    2.2349 O   0  0  0  0  0  0  0  0  0  0  0  0
    4.0565   41.4497   -2.7830 C   0  0  1  0  0  0  0  0  0  0  0  0
    4.2552   42.8327   -2.7692 O   0  0  0  0  0  0  0  0  0  0  0  0
    4.9883   37.0714    1.2306 C   0  0  2  0  0  0  0  0  0  0  0  0
    5.6182   38.3184    1.5198 O   0  0  0  0  0  0  0  0  0  0  0  0
    4.0067   40.9696   -1.3724 C   0  0  1  0  0  0  0  0  0  0  0  0
    3.8115   39.5852   -1.3981 O   0  0  0  0  0  0  0  0  0  0  0  0
    5.8348   36.2982    0.1977 C   0  0  1  0  0  0  0  0  0  0  0  0
    7.1478   36.0473    0.7249 O   0  0  0  0  0  0  0  0  0  0  0  0
    5.3362   41.2408   -0.6408 C   0  0  0  0  0  0  0  0  0  0  0  0
    5.1679   40.9794    0.7478 O   0  0  0  0  0  0  0  0  0  0  0  0
    5.7938   32.1536   -0.2054 N   0  0  0  0  0  0  0  0  0  0  0  0
    0.3617   34.6134   -0.9122 N   0  0  0  0  0  0  0  0  0  0  0  0
  1  2  1  0  0  0  0
  1 39  1  0  0  0  0
  3  4  1  0  0  0  0
  5  6  1  0  0  0  0
  5 40  1  0  0  0  0
  9 10  1  6  0  0  0
  9 14  1  0  0  0  0
  9 35  1  0  0  0  0
 10  1  1  0  0  0  0
 11 16  1  0  0  0  0
 11 28  1  0  0  0  0
 11 26  1  1  0  0  0
 12 17  1  0  0  0  0
 12 34  1  0  0  0  0
 12 13  1  1  0  0  0
 14 15  1  1  0  0  0
 14 19  1  0  0  0  0
 16 13  1  6  0  0  0
 16 21  1  0  0  0  0
 17 18  1  1  0  0  0
 17 23  1  0  0  0  0
 18  8  1  0  0  0  0
 19 20  1  6  0  0  0
 19 25  1  0  0  0  0
 20  5  1  0  0  0  0
 21  3  1  6  0  0  0
 21 22  1  0  0  0  0
 21 27  1  0  0  0  0
 23 24  1  6  0  0  0
 23 29  1  0  0  0  0
 25 26  1  1  0  0  0
 25 31  1  0  0  0  0
 27  7  1  1  0  0  0
 27 28  1  0  0  0  0
 29 30  1  1  0  0  0
 29 33  1  0  0  0  0
 31 32  1  6  0  0  0
 31 35  1  0  0  0  0
 33 34  1  0  0  0  0
 33 37  1  6  0  0  0
 35 36  1  1  0  0  0
 37 38  1  0  0  0  0
M  END
>  <CHROM.1>
-76.33694367,119.91168129,81.02189026,152.21215541,80.85716147,-102.14428481
86.55933060,71.15510660,-174.98236788,-130.12895119,170.16731723,2.87886489
38.05070140,-0.44844855,-1.07908547,0.54489942,-0.34707957

>  <Name>
1nta_lig

>  <RI>
0

>  <Rbt.Current_Directory>
/home/itssahil/PROJECTS/Mol_Feturizer/New_Systems/rnas/1nta

>  <Rbt.Executable>
rbdock ($Id: //depot/dev/client3/rdock/2013.1/src/exe/rbdock.cxx#4 $)

>  <Rbt.Library>
libRbt.so (2013.1, Build901 2013/11/27)

>  <Rbt.Parameter_File>
/export/apps/rDock/src/rDock_2013.1_src/data/scripts/dock_solv.prm

>  <Rbt.Receptor>
prm/pocket_docking_5.prm

>  <SCORE>
-25.2545

>  <SCORE.INTER>
-4.79149

>  <SCORE.INTER.CONST>
1

>  <SCORE.INTER.POLAR>
-0.8

>  <SCORE.INTER.ROT>
11

>  <SCORE.INTER.SOLV>
18.6032

>  <SCORE.INTER.VDW>
-17.6621

>  <SCORE.INTER.norm>
-0.119787

>  <SCORE.INTRA>
-20.463

>  <SCORE.INTRA.DIHEDRAL>
-1.92172

>  <SCORE.INTRA.DIHEDRAL.0>
19.0336

>  <SCORE.INTRA.POLAR>
0

>  <SCORE.INTRA.POLAR.0>
0

>  <SCORE.INTRA.REPUL>
0

>  <SCORE.INTRA.REPUL.0>
0

>  <SCORE.INTRA.SOLV>
-1.70705

>  <SCORE.INTRA.SOLV.lig_0>
-97.5861

>  <SCORE.INTRA.VDW>
-18.6486

>  <SCORE.INTRA.VDW.0>
11.7669

>  <SCORE.INTRA.norm>
-0.511575

>  <SCORE.RESTR>
0

>  <SCORE.RESTR.CAVITY>
0

>  <SCORE.RESTR.norm>
0

>  <SCORE.SYSTEM>
0

>  <SCORE.SYSTEM.CONST>
0

>  <SCORE.SYSTEM.DIHEDRAL>
0

>  <SCORE.SYSTEM.SOLV>
0

>  <SCORE.SYSTEM.norm>
0

>  <SCORE.heavy>
40

>  <SCORE.norm>
-0.631362

>  <RMSD>
5.693

$$$$
1nta_lig
 OpenBabel11021811403D
libRbt.so/2013.1/901 2013/11/27
 40 42  0  0  0  0  0  0  0  0999 V2000
    6.6694   42.4874    0.0239 C   0  0  0  0  0  0  0  0  0  0  0  0
    7.8989   42.8063    0.1869 N   0  0  0  0  0  0  0  0  0  0  0  0
    2.0896   33.6905   -1.3820 C   0  0  0  0  0  0  0  0  0  0  0  0
    0.9135   33.4608   -1.5589 O   0  0  0  0  0  0  0  0  0  0  0  0
    1.7582   38.8898   -1.6992 C   0  0  0  0  0  0  0  0  0  0  0  0
    1.3257   37.7784   -2.2355 N   0  0  0  0  0  0  0  0  0  0  0  0
    5.1046   32.8410   -0.2641 C   0  0  0  0  0  0  0  0  0  0  0  0
   -0.4345   31.5302    2.4473 C   0  0  0  0  0  0  0  0  0  0  0  0
    5.6826   40.3621    0.3554 C   0  0  2  0  0  0  0  0  0  0  0  0
    6.1641   41.6754    0.9405 N   0  0  0  0  0  0  0  0  0  0  0  0
    3.4113   35.7088    1.0772 C   0  0  2  0  0  0  0  0  0  0  0  0
    0.1124   34.3539    1.4484 C   0  0  1  0  0  0  0  0  0  0  0  0
    1.4137   34.7004    1.7712 O   0  0  0  0  0  0  0  0  0  0  0  0
    4.1474   40.3706    0.2288 C   0  0  1  0  0  0  0  0  0  0  0  0
    3.8148   41.3811   -0.6746 O   0  0  0  0  0  0  0  0  0  0  0  0
    2.1638   34.9157    0.7034 C   0  0  2  0  0  0  0  0  0  0  0  0
   -0.7194   33.8214    2.5944 C   0  0  1  0  0  0  0  0  0  0  0  0
   -0.0358   32.7204    3.1798 N   0  0  0  0  0  0  0  0  0  0  0  0
    3.6008   39.0534   -0.3377 C   0  0  2  0  0  0  0  0  0  0  0  0
    2.1243   39.0246   -0.4689 N   0  0  0  0  0  0  0  0  0  0  0  0
    2.7537   33.7945   -0.0352 C   0  0  1  0  0  0  0  0  0  0  0  0
    2.5587   32.6187    0.7531 O   0  0  0  0  0  0  0  0  0  0  0  0
   -0.9173   34.7954    3.5631 C   0  0  2  0  0  0  0  0  0  0  0  0
   -1.9235   34.3355    4.4297 O   0  0  0  0  0  0  0  0  0  0  0  0
    4.0415   37.9259    0.5823 C   0  0  1  0  0  0  0  0  0  0  0  0
    3.5366   36.7103    0.0521 O   0  0  0  0  0  0  0  0  0  0  0  0
    4.1968   34.0281   -0.1716 C   0  0  1  0  0  0  0  0  0  0  0  0
    4.5201   34.8496    0.9436 O   0  0  0  0  0  0  0  0  0  0  0  0
   -1.3553   36.0877    2.9253 C   0  0  1  0  0  0  0  0  0  0  0  0
   -1.3134   37.1038    3.8835 O   0  0  0  0  0  0  0  0  0  0  0  0
    5.5933   37.8859    0.6775 C   0  0  2  0  0  0  0  0  0  0  0  0
    5.9872   36.8164    1.5357 O   0  0  0  0  0  0  0  0  0  0  0  0
   -0.4206   36.4468    1.8208 C   0  0  1  0  0  0  0  0  0  0  0  0
   -0.4732   35.4259    0.8667 O   0  0  0  0  0  0  0  0  0  0  0  0
    6.1011   39.2219    1.2592 C   0  0  1  0  0  0  0  0  0  0  0  0
    7.5346   39.2044    1.3561 O   0  0  0  0  0  0  0  0  0  0  0  0
   -0.8477   37.7562    1.1285 C   0  0  0  0  0  0  0  0  0  0  0  0
   -2.0974   37.5555    0.4780 O   0  0  0  0  0  0  0  0  0  0  0  0
    5.9677   42.9209   -0.9670 N   0  0  0  0  0  0  0  0  0  0  0  0
    1.8641   39.9393   -2.4158 N   0  0  0  0  0  0  0  0  0  0  0  0
  1  2  1  0  0  0  0
  1 39  1  0  0  0  0
  3  4  1  0  0  0  0
  5  6  1  0  0  0  0
  5 40  1  0  0  0  0
  9 10  1  1  0  0  0
  9 14  1  0  0  0  0
  9 35  1  0  0  0  0
 10  1  1  0  0  0  0
 11 16  1  0  0  0  0
 11 28  1  0  0  0  0
 11 26  1  6  0  0  0
 12 17  1  0  0  0  0
 12 34  1  0  0  0  0
 12 13  1  1  0  0  0
 14 15  1  6  0  0  0
 14 19  1  0  0  0  0
 16 13  1  1  0  0  0
 16 21  1  0  0  0  0
 17 18  1  1  0  0  0
 17 23  1  0  0  0  0
 18  8  1  0  0  0  0
 19 20  1  1  0  0  0
 19 25  1  0  0  0  0
 20  5  1  0  0  0  0
 21  3  1  6  0  0  0
 21 22  1  0  0  0  0
 21 27  1  0  0  0  0
 23 24  1  1  0  0  0
 23 29  1  0  0  0  0
 25 26  1  6  0  0  0
 25 31  1  0  0  0  0
 27  7  1  1  0  0  0
 27 28  1  0  0  0  0
 29 30  1  1  0  0  0
 29 33  1  0  0  0  0
 31 32  1  1  0  0  0
 31 35  1  0  0  0  0
 33 34  1  0  0  0  0
 33 37  1  6  0  0  0
 35 36  1  6  0  0  0
 37 38  1  0  0  0  0
M  END
>  <CHROM.1>
-102.50393605,-119.00529040,144.66356634,168.01262160,161.81184941,-87.65209088
117.57226206,102.95057107,-62.45291369,-156.09850524,-65.45408864,2.53383787
36.87765318,0.74098451,0.84867570,0.22638672,-0.08475092

>  <Name>
1nta_lig

>  <RI>
0

>  <Rbt.Current_Directory>
/home/itssahil/PROJECTS/Mol_Feturizer/New_Systems/rnas/1nta

>  <Rbt.Executable>
rbdock ($Id: //depot/dev/client3/rdock/2013.1/src/exe/rbdock.cxx#4 $)

>  <Rbt.Library>
libRbt.so (2013.1, Build901 2013/11/27)

>  <Rbt.Parameter_File>
/export/apps/rDock/src/rDock_2013.1_src/data/scripts/dock_solv.prm

>  <Rbt.Receptor>
prm/pocket_docking_8.prm

>  <SCORE>
-28.1996

>  <SCORE.INTER>
-6.53658

>  <SCORE.INTER.CONST>
1

>  <SCORE.INTER.POLAR>
0

>  <SCORE.INTER.ROT>
11

>  <SCORE.INTER.SOLV>
19.565

>  <SCORE.INTER.VDW>
-21.8127

>  <SCORE.INTER.norm>
-0.163415

>  <SCORE.INTRA>
-21.663

>  <SCORE.INTRA.DIHEDRAL>
-6.00571

>  <SCORE.INTRA.DIHEDRAL.0>
19.0336

>  <SCORE.INTRA.POLAR>
0

>  <SCORE.INTRA.POLAR.0>
0

>  <SCORE.INTRA.REPUL>
0

>  <SCORE.INTRA.REPUL.0>
0

>  <SCORE.INTRA.SOLV>
-3.31334

>  <SCORE.INTRA.SOLV.lig_0>
-97.5861

>  <SCORE.INTRA.VDW>
-17.0035

>  <SCORE.INTRA.VDW.0>
11.7669

>  <SCORE.INTRA.norm>
-0.541575

>  <SCORE.RESTR>
0

>  <SCORE.RESTR.CAVITY>
0

>  <SCORE.RESTR.norm>
0

>  <SCORE.SYSTEM>
0

>  <SCORE.SYSTEM.CONST>
0

>  <SCORE.SYSTEM.DIHEDRAL>
0

>  <SCORE.SYSTEM.SOLV>
0

>  <SCORE.SYSTEM.norm>
0

>  <SCORE.heavy>
40

>  <SCORE.norm>
-0.70499

>  <RMSD>
5.748

$$$$
1nta_lig
 OpenBabel11021811403D
libRbt.so/2013.1/901 2013/11/27
 40 42  0  0  0  0  0  0  0  0999 V2000
    5.5237   32.8586   -0.8548 C   0  0  0  0  0  0  0  0  0  0  0  0
    5.3555   32.3416   -2.0143 N   0  0  0  0  0  0  0  0  0  0  0  0
   -0.6044   39.0512    1.3497 C   0  0  0  0  0  0  0  0  0  0  0  0
   -0.3763   38.0065    1.9187 O   0  0  0  0  0  0  0  0  0  0  0  0
    0.8131   35.6494   -0.1398 C   0  0  0  0  0  0  0  0  0  0  0  0
    0.3698   35.2685    1.0299 N   0  0  0  0  0  0  0  0  0  0  0  0
    0.8275   41.6399    2.8694 C   0  0  0  0  0  0  0  0  0  0  0  0
    0.2069   37.0911   -4.0658 C   0  0  0  0  0  0  0  0  0  0  0  0
    5.1985   35.0217    0.0484 C   0  0  2  0  0  0  0  0  0  0  0  0
    5.9998   34.0947   -0.8447 N   0  0  0  0  0  0  0  0  0  0  0  0
    2.6836   39.6587    0.5200 C   0  0  2  0  0  0  0  0  0  0  0  0
    2.0483   39.0472   -2.1828 C   0  0  1  0  0  0  0  0  0  0  0  0
    1.2772   39.8357   -1.3454 O   0  0  0  0  0  0  0  0  0  0  0  0
    3.8323   35.3258   -0.5949 C   0  0  1  0  0  0  0  0  0  0  0  0
    3.1387   34.1175   -0.6779 O   0  0  0  0  0  0  0  0  0  0  0  0
    1.3054   39.4242   -0.0889 C   0  0  2  0  0  0  0  0  0  0  0  0
    1.5422   38.9229   -3.6030 C   0  0  1  0  0  0  0  0  0  0  0  0
    0.1992   38.4567   -3.5685 N   0  0  0  0  0  0  0  0  0  0  0  0
    2.9855   36.2810    0.2566 C   0  0  2  0  0  0  0  0  0  0  0  0
    1.6641   36.5998   -0.3354 N   0  0  0  0  0  0  0  0  0  0  0  0
    0.4421   40.0448    0.9214 C   0  0  1  0  0  0  0  0  0  0  0  0
   -0.1335   41.2105    0.3281 O   0  0  0  0  0  0  0  0  0  0  0  0
    1.5774   40.1475   -4.2551 C   0  0  2  0  0  0  0  0  0  0  0  0
    1.3834   39.9056   -5.6259 O   0  0  0  0  0  0  0  0  0  0  0  0
    3.7719   37.5689    0.4431 C   0  0  1  0  0  0  0  0  0  0  0  0
    2.9860   38.4469    1.2338 O   0  0  0  0  0  0  0  0  0  0  0  0
    1.2728   40.4636    2.0572 C   0  0  1  0  0  0  0  0  0  0  0  0
    2.5571   40.6779    1.4847 O   0  0  0  0  0  0  0  0  0  0  0  0
    2.9116   40.8145   -4.0463 C   0  0  1  0  0  0  0  0  0  0  0  0
    2.8362   42.1330   -4.5025 O   0  0  0  0  0  0  0  0  0  0  0  0
    5.1335   37.2716    1.1331 C   0  0  2  0  0  0  0  0  0  0  0  0
    5.8514   38.4920    1.3086 O   0  0  0  0  0  0  0  0  0  0  0  0
    3.2402   40.8401   -2.5924 C   0  0  1  0  0  0  0  0  0  0  0  0
    3.3168   39.5166   -2.1475 O   0  0  0  0  0  0  0  0  0  0  0  0
    5.9567   36.3176    0.2424 C   0  0  1  0  0  0  0  0  0  0  0  0
    7.2206   36.0312    0.8631 O   0  0  0  0  0  0  0  0  0  0  0  0
    4.6108   41.4985   -2.3390 C   0  0  0  0  0  0  0  0  0  0  0  0
    4.8761   41.5037   -0.9409 O   0  0  0  0  0  0  0  0  0  0  0  0
    5.2540   32.2208    0.2328 N   0  0  0  0  0  0  0  0  0  0  0  0
    0.4182   35.0482   -1.1929 N   0  0  0  0  0  0  0  0  0  0  0  0
  1  2  1  0  0  0  0
  1 39  1  0  0  0  0
  3  4  1  0  0  0  0
  5  6  1  0  0  0  0
  5 40  1  0  0  0  0
  9 10  1  6  0  0  0
  9 14  1  0  0  0  0
  9 35  1  0  0  0  0
 10  1  1  0  0  0  0
 11 16  1  0  0  0  0
 11 28  1  0  0  0  0
 11 26  1  1  0  0  0
 12 17  1  0  0  0  0
 12 34  1  0  0  0  0
 12 13  1  1  0  0  0
 14 15  1  1  0  0  0
 14 19  1  0  0  0  0
 16 13  1  6  0  0  0
 16 21  1  0  0  0  0
 17 18  1  1  0  0  0
 17 23  1  0  0  0  0
 18  8  1  0  0  0  0
 19 20  1  6  0  0  0
 19 25  1  0  0  0  0
 20  5  1  0  0  0  0
 21  3  1  1  0  0  0
 21 22  1  0  0  0  0
 21 27  1  0  0  0  0
 23 24  1  6  0  0  0
 23 29  1  0  0  0  0
 25 26  1  1  0  0  0
 25 31  1  0  0  0  0
 27  7  1  6  0  0  0
 27 28  1  0  0  0  0
 29 30  1  1  0  0  0
 29 33  1  0  0  0  0
 31 32  1  6  0  0  0
 31 35  1  0  0  0  0
 33 34  1  0  0  0  0
 33 37  1  6  0  0  0
 35 36  1  1  0  0  0
 37 38  1  0  0  0  0
M  END
>  <CHROM.1>
-71.85460028,130.85247169,95.70311171,148.17494299,69.00950837,-109.50808113
79.18826468,64.37903109,64.10375979,-119.22333432,179.78089735,2.73371478
38.02228735,-0.74231951,-0.48838765,1.04235479,-1.23867191

>  <Name>
1nta_lig

>  <RI>
0

>  <Rbt.Current_Directory>
/home/itssahil/PROJECTS/Mol_Feturizer/New_Systems/rnas/1nta

>  <Rbt.Executable>
rbdock ($Id: //depot/dev/client3/rdock/2013.1/src/exe/rbdock.cxx#4 $)

>  <Rbt.Library>
libRbt.so (2013.1, Build901 2013/11/27)

>  <Rbt.Parameter_File>
/export/apps/rDock/src/rDock_2013.1_src/data/scripts/dock_solv.prm

>  <Rbt.Receptor>
prm/pocket_docking_5.prm

>  <SCORE>
-21.6762

>  <SCORE.INTER>
-4.26902

>  <SCORE.INTER.CONST>
1

>  <SCORE.INTER.POLAR>
-0.861636

>  <SCORE.INTER.ROT>
11

>  <SCORE.INTER.SOLV>
18.3164

>  <SCORE.INTER.VDW>
-17.0127

>  <SCORE.INTER.norm>
-0.106725

>  <SCORE.INTRA>
-17.4093

>  <SCORE.INTRA.DIHEDRAL>
-0.079897

>  <SCORE.INTRA.DIHEDRAL.0>
19.0336

>  <SCORE.INTRA.POLAR>
0

>  <SCORE.INTRA.POLAR.0>
0

>  <SCORE.INTRA.REPUL>
0

>  <SCORE.INTRA.REPUL.0>
0

>  <SCORE.INTRA.SOLV>
0.647588

>  <SCORE.INTRA.SOLV.lig_0>
-97.5861

>  <SCORE.INTRA.VDW>
-17.6931

>  <SCORE.INTRA.VDW.0>
11.7669

>  <SCORE.INTRA.norm>
-0.435232

>  <SCORE.RESTR>
0.00209481

>  <SCORE.RESTR.CAVITY>
0.00209481

>  <SCORE.RESTR.norm>
5.23704e-05

>  <SCORE.SYSTEM>
0

>  <SCORE.SYSTEM.CONST>
0

>  <SCORE.SYSTEM.DIHEDRAL>
0

>  <SCORE.SYSTEM.SOLV>
0

>  <SCORE.SYSTEM.norm>
0

>  <SCORE.heavy>
40

>  <SCORE.norm>
-0.541905

>  <RMSD>
5.765

$$$$
1nta_lig
 OpenBabel11021811403D
libRbt.so/2013.1/901 2013/11/27
 40 42  0  0  0  0  0  0  0  0999 V2000
   -0.5190   31.6168   -5.0035 C   0  0  0  0  0  0  0  0  0  0  0  0
   -0.7435   30.4340   -4.5669 N   0  0  0  0  0  0  0  0  0  0  0  0
    3.6428   36.5776    2.0627 C   0  0  0  0  0  0  0  0  0  0  0  0
    4.0352   35.5048    1.6598 O   0  0  0  0  0  0  0  0  0  0  0  0
    3.7510   33.4098   -0.6050 C   0  0  0  0  0  0  0  0  0  0  0  0
    4.5416   34.0002   -1.4629 N   0  0  0  0  0  0  0  0  0  0  0  0
    4.9660   39.0902    0.3314 C   0  0  0  0  0  0  0  0  0  0  0  0
   -0.1425   39.8187    4.0598 C   0  0  0  0  0  0  0  0  0  0  0  0
    0.2443   33.4918   -3.7778 C   0  0  2  0  0  0  0  0  0  0  0  0
   -0.9059   32.6021   -4.2072 N   0  0  0  0  0  0  0  0  0  0  0  0
    2.0169   37.4211   -0.8550 C   0  0  2  0  0  0  0  0  0  0  0  0
    0.2713   37.3102    2.2956 C   0  0  1  0  0  0  0  0  0  0  0  0
    0.6299   37.6918    1.0137 O   0  0  0  0  0  0  0  0  0  0  0  0
    0.7771   33.0416   -2.4043 C   0  0  1  0  0  0  0  0  0  0  0  0
    1.2804   31.7494   -2.5619 O   0  0  0  0  0  0  0  0  0  0  0  0
    1.7845   37.1724    0.6314 C   0  0  2  0  0  0  0  0  0  0  0  0
   -0.9448   38.0086    2.8631 C   0  0  1  0  0  0  0  0  0  0  0  0
   -0.7353   39.4135    2.7963 N   0  0  0  0  0  0  0  0  0  0  0  0
    1.9304   33.9236   -1.9077 C   0  0  2  0  0  0  0  0  0  0  0  0
    2.4653   33.5214   -0.5847 N   0  0  0  0  0  0  0  0  0  0  0  0
    3.0473   37.6567    1.1986 C   0  0  1  0  0  0  0  0  0  0  0  0
    2.7510   38.8399    1.9430 O   0  0  0  0  0  0  0  0  0  0  0  0
   -2.0868   37.6886    2.1422 C   0  0  2  0  0  0  0  0  0  0  0  0
   -3.1963   38.1215    2.8881 O   0  0  0  0  0  0  0  0  0  0  0  0
    1.4272   35.3561   -1.8274 C   0  0  1  0  0  0  0  0  0  0  0  0
    2.4983   36.1676   -1.3712 O   0  0  0  0  0  0  0  0  0  0  0  0
    3.9509   38.0145    0.0981 C   0  0  1  0  0  0  0  0  0  0  0  0
    3.0758   38.3432   -0.9739 O   0  0  0  0  0  0  0  0  0  0  0  0
   -2.1732   36.1999    1.9307 C   0  0  1  0  0  0  0  0  0  0  0  0
   -3.1877   35.9306    1.0083 O   0  0  0  0  0  0  0  0  0  0  0  0
    0.9295   35.8296   -3.2227 C   0  0  2  0  0  0  0  0  0  0  0  0
    0.4717   37.1775   -3.1293 O   0  0  0  0  0  0  0  0  0  0  0  0
   -0.8865   35.6946    1.3724 C   0  0  1  0  0  0  0  0  0  0  0  0
    0.1202   35.9657    2.3043 O   0  0  0  0  0  0  0  0  0  0  0  0
   -0.2337   34.9250   -3.6808 C   0  0  1  0  0  0  0  0  0  0  0  0
   -0.7088   35.3474   -4.9695 O   0  0  0  0  0  0  0  0  0  0  0  0
   -0.9285   34.1683    1.1602 C   0  0  0  0  0  0  0  0  0  0  0  0
   -1.7634   33.8736    0.0462 O   0  0  0  0  0  0  0  0  0  0  0  0
    0.0413   31.8387   -6.1433 N   0  0  0  0  0  0  0  0  0  0  0  0
    4.2435   32.6375    0.2824 N   0  0  0  0  0  0  0  0  0  0  0  0
  1  2  1  0  0  0  0
  1 39  1  0  0  0  0
  3  4  1  0  0  0  0
  5  6  1  0  0  0  0
  5 40  1  0  0  0  0
  9 10  1  1  0  0  0
  9 14  1  0  0  0  0
  9 35  1  0  0  0  0
 10  1  1  0  0  0  0
 11 16  1  0  0  0  0
 11 28  1  0  0  0  0
 11 26  1  6  0  0  0
 12 17  1  0  0  0  0
 12 34  1  0  0  0  0
 12 13  1  6  0  0  0
 14 15  1  6  0  0  0
 14 19  1  0  0  0  0
 16 13  1  1  0  0  0
 16 21  1  0  0  0  0
 17 18  1  6  0  0  0
 17 23  1  0  0  0  0
 18  8  1  0  0  0  0
 19 20  1  1  0  0  0
 19 25  1  0  0  0  0
 20  5  1  0  0  0  0
 21  3  1  1  0  0  0
 21 22  1  0  0  0  0
 21 27  1  0  0  0  0
 23 24  1  1  0  0  0
 23 29  1  0  0  0  0
 25 26  1  6  0  0  0
 25 31  1  0  0  0  0
 27  7  1  1  0  0  0
 27 28  1  0  0  0  0
 29 30  1  6  0  0  0
 29 33  1  0  0  0  0
 31 32  1  1  0  0  0
 31 35  1  0  0  0  0
 33 34  1  0  0  0  0
 33 37  1  1  0  0  0
 35 36  1  6  0  0  0
 37 38  1  0  0  0  0
M  END
>  <CHROM.1>
-95.65114527,119.68835651,90.74551172,172.37210101,170.23723997,-92.06050646
129.85219420,22.90847452,64.91876241,-161.14928433,72.63662459,0.88191876
35.67273984,-0.45514746,1.59046245,-0.10814356,-2.29487919

>  <Name>
1nta_lig

>  <RI>
0

>  <Rbt.Current_Directory>
/home/itssahil/PROJECTS/Mol_Feturizer/New_Systems/rnas/1nta

>  <Rbt.Executable>
rbdock ($Id: //depot/dev/client3/rdock/2013.1/src/exe/rbdock.cxx#4 $)

>  <Rbt.Library>
libRbt.so (2013.1, Build901 2013/11/27)

>  <Rbt.Parameter_File>
/export/apps/rDock/src/rDock_2013.1_src/data/scripts/dock_solv.prm

>  <Rbt.Receptor>
prm/pocket_docking_4.prm

>  <SCORE>
-20.8634

>  <SCORE.INTER>
1.75158

>  <SCORE.INTER.CONST>
1

>  <SCORE.INTER.POLAR>
0

>  <SCORE.INTER.ROT>
11

>  <SCORE.INTER.SOLV>
16.0089

>  <SCORE.INTER.VDW>
-15.1019

>  <SCORE.INTER.norm>
0.0437894

>  <SCORE.INTRA>
-22.615

>  <SCORE.INTRA.DIHEDRAL>
-8.695

>  <SCORE.INTRA.DIHEDRAL.0>
19.0336

>  <SCORE.INTRA.POLAR>
0

>  <SCORE.INTRA.POLAR.0>
0

>  <SCORE.INTRA.REPUL>
0

>  <SCORE.INTRA.REPUL.0>
0

>  <SCORE.INTRA.SOLV>
-2.10456

>  <SCORE.INTRA.SOLV.lig_0>
-97.5861

>  <SCORE.INTRA.VDW>
-17.2152

>  <SCORE.INTRA.VDW.0>
11.7669

>  <SCORE.INTRA.norm>
-0.565374

>  <SCORE.RESTR>
0

>  <SCORE.RESTR.CAVITY>
0

>  <SCORE.RESTR.norm>
0

>  <SCORE.SYSTEM>
0

>  <SCORE.SYSTEM.CONST>
0

>  <SCORE.SYSTEM.DIHEDRAL>
0

>  <SCORE.SYSTEM.SOLV>
0

>  <SCORE.SYSTEM.norm>
0

>  <SCORE.heavy>
40

>  <SCORE.norm>
-0.521585

>  <RMSD>
5.787

$$$$
1nta_lig
 OpenBabel11021811403D
libRbt.so/2013.1/901 2013/11/27
 40 42  0  0  0  0  0  0  0  0999 V2000
    5.8767   32.7167   -1.1558 C   0  0  0  0  0  0  0  0  0  0  0  0
    7.1467   32.8465   -1.2575 N   0  0  0  0  0  0  0  0  0  0  0  0
    3.1435   41.5912    1.1268 C   0  0  0  0  0  0  0  0  0  0  0  0
    2.0781   42.1676    1.1194 O   0  0  0  0  0  0  0  0  0  0  0  0
    0.8598   35.8654   -0.6434 C   0  0  0  0  0  0  0  0  0  0  0  0
    0.1821   34.8642   -1.1413 N   0  0  0  0  0  0  0  0  0  0  0  0
    6.4013   41.3578    0.4993 C   0  0  0  0  0  0  0  0  0  0  0  0
   -0.4785   39.5461    0.1452 C   0  0  0  0  0  0  0  0  0  0  0  0
    4.8563   34.1518    0.4252 C   0  0  2  0  0  0  0  0  0  0  0  0
    5.3936   32.7776    0.0760 N   0  0  0  0  0  0  0  0  0  0  0  0
    4.0770   39.1505   -1.1181 C   0  0  2  0  0  0  0  0  0  0  0  0
    1.4778   40.0874   -2.4590 C   0  0  1  0  0  0  0  0  0  0  0  0
    2.6526   40.7283   -2.1033 O   0  0  0  0  0  0  0  0  0  0  0  0
    3.6856   34.5148   -0.5078 C   0  0  1  0  0  0  0  0  0  0  0  0
    2.6671   33.5911   -0.2682 O   0  0  0  0  0  0  0  0  0  0  0  0
    3.1204   40.3237   -0.9343 C   0  0  2  0  0  0  0  0  0  0  0  0
    0.2267   40.6075   -1.7858 C   0  0  1  0  0  0  0  0  0  0  0  0
    0.4167   40.5649   -0.3772 N   0  0  0  0  0  0  0  0  0  0  0  0
    3.1159   35.9092   -0.2146 C   0  0  2  0  0  0  0  0  0  0  0  0
    1.9892   36.2939   -1.0981 N   0  0  0  0  0  0  0  0  0  0  0  0
    3.9299   41.2192   -0.1016 C   0  0  1  0  0  0  0  0  0  0  0  0
    4.2547   42.3601   -0.8985 O   0  0  0  0  0  0  0  0  0  0  0  0
   -0.0380   41.9159   -2.1654 C   0  0  2  0  0  0  0  0  0  0  0  0
   -1.3443   42.2240   -1.7486 O   0  0  0  0  0  0  0  0  0  0  0  0
    4.2405   36.9203   -0.3720 C   0  0  1  0  0  0  0  0  0  0  0  0
    3.7092   38.2070   -0.0964 O   0  0  0  0  0  0  0  0  0  0  0  0
    5.1770   40.5312    0.2547 C   0  0  1  0  0  0  0  0  0  0  0  0
    5.3741   39.6035   -0.8052 O   0  0  0  0  0  0  0  0  0  0  0  0
    0.0586   42.0574   -3.6618 C   0  0  1  0  0  0  0  0  0  0  0  0
    0.0275   43.4147   -3.9923 O   0  0  0  0  0  0  0  0  0  0  0  0
    5.4062   36.5828    0.6006 C   0  0  2  0  0  0  0  0  0  0  0  0
    6.4458   37.5474    0.4457 O   0  0  0  0  0  0  0  0  0  0  0  0
    1.3513   41.4886   -4.1393 C   0  0  1  0  0  0  0  0  0  0  0  0
    1.3700   40.1305   -3.8070 O   0  0  0  0  0  0  0  0  0  0  0  0
    5.9560   35.1801    0.2671 C   0  0  1  0  0  0  0  0  0  0  0  0
    7.0361   34.8498    1.1555 O   0  0  0  0  0  0  0  0  0  0  0  0
    1.4791   41.5968   -5.6717 C   0  0  0  0  0  0  0  0  0  0  0  0
    2.6643   40.9297   -6.0906 O   0  0  0  0  0  0  0  0  0  0  0  0
    5.1158   32.5338   -2.1804 N   0  0  0  0  0  0  0  0  0  0  0  0
    0.3953   36.5108    0.3537 N   0  0  0  0  0  0  0  0  0  0  0  0
  1  2  1  0  0  0  0
  1 39  1  0  0  0  0
  3  4  1  0  0  0  0
  5  6  1  0  0  0  0
  5 40  1  0  0  0  0
  9 10  1  6  0  0  0
  9 14  1  0  0  0  0
  9 35  1  0  0  0  0
 10  1  1  0  0  0  0
 11 16  1  0  0  0  0
 11 28  1  0  0  0  0
 11 26  1  1  0  0  0
 12 17  1  0  0  0  0
 12 34  1  0  0  0  0
 12 13  1  6  0  0  0
 14 15  1  1  0  0  0
 14 19  1  0  0  0  0
 16 13  1  6  0  0  0
 16 21  1  0  0  0  0
 17 18  1  1  0  0  0
 17 23  1  0  0  0  0
 18  8  1  0  0  0  0
 19 20  1  6  0  0  0
 19 25  1  0  0  0  0
 20  5  1  0  0  0  0
 21  3  1  1  0  0  0
 21 22  1  0  0  0  0
 21 27  1  0  0  0  0
 23 24  1  6  0  0  0
 23 29  1  0  0  0  0
 25 26  1  1  0  0  0
 25 31  1  0  0  0  0
 27  7  1  6  0  0  0
 27 28  1  0  0  0  0
 29 30  1  1  0  0  0
 29 33  1  0  0  0  0
 31 32  1  6  0  0  0
 31 35  1  0  0  0  0
 33 34  1  0  0  0  0
 33 37  1  6  0  0  0
 35 36  1  1  0  0  0
 37 38  1  0  0  0  0
M  END
>  <CHROM.1>
61.95533984,97.72427126,163.22137200,78.88800627,90.66343268,-111.64894012
86.05070896,-106.05120245,-60.24023868,-131.50277166,-174.50559183,3.03421074
38.44797746,-1.12009379,1.03236843,0.48086398,3.11950015

>  <Name>
1nta_lig

>  <RI>
0

>  <Rbt.Current_Directory>
/home/itssahil/PROJECTS/Mol_Feturizer/New_Systems/rnas/1nta

>  <Rbt.Executable>
rbdock ($Id: //depot/dev/client3/rdock/2013.1/src/exe/rbdock.cxx#4 $)

>  <Rbt.Library>
libRbt.so (2013.1, Build901 2013/11/27)

>  <Rbt.Parameter_File>
/export/apps/rDock/src/rDock_2013.1_src/data/scripts/dock_solv.prm

>  <Rbt.Receptor>
prm/pocket_docking_7.prm

>  <SCORE>
-20.8689

>  <SCORE.INTER>
-2.81232

>  <SCORE.INTER.CONST>
1

>  <SCORE.INTER.POLAR>
-0.8

>  <SCORE.INTER.ROT>
11

>  <SCORE.INTER.SOLV>
15.7486

>  <SCORE.INTER.VDW>
-15.3911

>  <SCORE.INTER.norm>
-0.0703081

>  <SCORE.INTRA>
-18.0566

>  <SCORE.INTRA.DIHEDRAL>
-2.9738

>  <SCORE.INTRA.DIHEDRAL.0>
19.0336

>  <SCORE.INTRA.POLAR>
0

>  <SCORE.INTRA.POLAR.0>
0

>  <SCORE.INTRA.REPUL>
0

>  <SCORE.INTRA.REPUL.0>
0

>  <SCORE.INTRA.SOLV>
0.0764336

>  <SCORE.INTRA.SOLV.lig_0>
-97.5861

>  <SCORE.INTRA.VDW>
-16.6079

>  <SCORE.INTRA.VDW.0>
11.7669

>  <SCORE.INTRA.norm>
-0.451415

>  <SCORE.RESTR>
0

>  <SCORE.RESTR.CAVITY>
0

>  <SCORE.RESTR.norm>
0

>  <SCORE.SYSTEM>
0

>  <SCORE.SYSTEM.CONST>
0

>  <SCORE.SYSTEM.DIHEDRAL>
0

>  <SCORE.SYSTEM.SOLV>
0

>  <SCORE.SYSTEM.norm>
0

>  <SCORE.heavy>
40

>  <SCORE.norm>
-0.521723

>  <RMSD>
5.878

$$$$
1nta_lig
 OpenBabel11021811403D
libRbt.so/2013.1/901 2013/11/27
 40 42  0  0  0  0  0  0  0  0999 V2000
    4.3946   42.4839   -2.0152 C   0  0  0  0  0  0  0  0  0  0  0  0
    3.7259   43.5658   -2.1650 N   0  0  0  0  0  0  0  0  0  0  0  0
    1.7258   32.8411   -1.3218 C   0  0  0  0  0  0  0  0  0  0  0  0
    1.5444   33.4888   -2.3293 O   0  0  0  0  0  0  0  0  0  0  0  0
    0.5350   37.5908   -2.8481 C   0  0  0  0  0  0  0  0  0  0  0  0
    1.2873   36.7398   -3.4959 N   0  0  0  0  0  0  0  0  0  0  0  0
    4.8981   32.7853   -0.3243 C   0  0  0  0  0  0  0  0  0  0  0  0
   -1.3264   31.6319    2.3816 C   0  0  0  0  0  0  0  0  0  0  0  0
    3.9560   40.3081   -1.1942 C   0  0  2  0  0  0  0  0  0  0  0  0
    4.1202   41.7904   -0.9205 N   0  0  0  0  0  0  0  0  0  0  0  0
    2.7667   35.5387    0.5511 C   0  0  2  0  0  0  0  0  0  0  0  0
   -0.3451   34.3302    1.4494 C   0  0  1  0  0  0  0  0  0  0  0  0
    1.0298   34.3745    1.6079 O   0  0  0  0  0  0  0  0  0  0  0  0
    2.4614   39.9547   -1.3142 C   0  0  1  0  0  0  0  0  0  0  0  0
    1.9632   40.6448   -2.4203 O   0  0  0  0  0  0  0  0  0  0  0  0
    1.6725   34.4808    0.4570 C   0  0  2  0  0  0  0  0  0  0  0  0
   -1.1259   33.9176    2.6779 C   0  0  1  0  0  0  0  0  0  0  0  0
   -0.6310   32.6642    3.1319 N   0  0  0  0  0  0  0  0  0  0  0  0
    2.2337   38.4587   -1.5688 C   0  0  2  0  0  0  0  0  0  0  0  0
    0.8047   38.0814   -1.6852 N   0  0  0  0  0  0  0  0  0  0  0  0
    2.4246   33.3457   -0.0878 C   0  0  1  0  0  0  0  0  0  0  0  0
    2.4922   32.3517    0.9367 O   0  0  0  0  0  0  0  0  0  0  0  0
   -0.9877   34.8518    3.6949 C   0  0  2  0  0  0  0  0  0  0  0  0
   -1.9558   34.5635    4.6720 O   0  0  0  0  0  0  0  0  0  0  0  0
    2.8617   37.6844   -0.4207 C   0  0  1  0  0  0  0  0  0  0  0  0
    2.6514   36.3021   -0.6628 O   0  0  0  0  0  0  0  0  0  0  0  0
    3.7899   33.7897   -0.3950 C   0  0  1  0  0  0  0  0  0  0  0  0
    4.0086   34.8752    0.4976 O   0  0  0  0  0  0  0  0  0  0  0  0
   -1.2097   36.2431    3.1626 C   0  0  1  0  0  0  0  0  0  0  0  0
   -0.8314   37.1684    4.1389 O   0  0  0  0  0  0  0  0  0  0  0  0
    4.3805   38.0046   -0.3242 C   0  0  2  0  0  0  0  0  0  0  0  0
    4.9532   37.2618    0.7508 O   0  0  0  0  0  0  0  0  0  0  0  0
   -0.3619   36.4623    1.9561 C   0  0  1  0  0  0  0  0  0  0  0  0
   -0.7511   35.5344    0.9851 O   0  0  0  0  0  0  0  0  0  0  0  0
    4.5656   39.5134   -0.0589 C   0  0  1  0  0  0  0  0  0  0  0  0
    5.9643   39.8297    0.0346 O   0  0  0  0  0  0  0  0  0  0  0  0
   -0.5763   37.8714    1.3688 C   0  0  0  0  0  0  0  0  0  0  0  0
    0.0373   38.8318    2.2209 O   0  0  0  0  0  0  0  0  0  0  0  0
    5.2801   42.0944   -2.8674 N   0  0  0  0  0  0  0  0  0  0  0  0
   -0.5453   38.0126   -3.3787 N   0  0  0  0  0  0  0  0  0  0  0  0
  1  2  1  0  0  0  0
  1 39  1  0  0  0  0
  3  4  1  0  0  0  0
  5  6  1  0  0  0  0
  5 40  1  0  0  0  0
  9 10  1  1  0  0  0
  9 14  1  0  0  0  0
  9 35  1  0  0  0  0
 10  1  1  0  0  0  0
 11 16  1  0  0  0  0
 11 28  1  0  0  0  0
 11 26  1  6  0  0  0
 12 17  1  0  0  0  0
 12 34  1  0  0  0  0
 12 13  1  1  0  0  0
 14 15  1  6  0  0  0
 14 19  1  0  0  0  0
 16 13  1  1  0  0  0
 16 21  1  0  0  0  0
 17 18  1  1  0  0  0
 17 23  1  0  0  0  0
 18  8  1  0  0  0  0
 19 20  1  1  0  0  0
 19 25  1  0  0  0  0
 20  5  1  0  0  0  0
 21  3  1  6  0  0  0
 21 22  1  0  0  0  0
 21 27  1  0  0  0  0
 23 24  1  1  0  0  0
 23 29  1  0  0  0  0
 25 26  1  6  0  0  0
 25 31  1  0  0  0  0
 27  7  1  1  0  0  0
 27 28  1  0  0  0  0
 29 30  1  1  0  0  0
 29 33  1  0  0  0  0
 31 32  1  1  0  0  0
 31 35  1  0  0  0  0
 33 34  1  0  0  0  0
 33 37  1  6  0  0  0
 35 36  1  6  0  0  0
 37 38  1  0  0  0  0
M  END
>  <CHROM.1>
-98.25664700,134.36121617,140.92400671,167.56693040,134.57854550,-85.37996910
118.21667803,42.46972203,61.65100151,-159.19982271,72.83355004,1.79164461
36.72192569,0.15415786,0.96762855,0.68165475,-0.08966214

>  <Name>
1nta_lig

>  <RI>
0

>  <Rbt.Current_Directory>
/home/itssahil/PROJECTS/Mol_Feturizer/New_Systems/rnas/1nta

>  <Rbt.Executable>
rbdock ($Id: //depot/dev/client3/rdock/2013.1/src/exe/rbdock.cxx#4 $)

>  <Rbt.Library>
libRbt.so (2013.1, Build901 2013/11/27)

>  <Rbt.Parameter_File>
/export/apps/rDock/src/rDock_2013.1_src/data/scripts/dock_solv.prm

>  <Rbt.Receptor>
prm/pocket_docking_5.prm

>  <SCORE>
-20.9398

>  <SCORE.INTER>
-1.76897

>  <SCORE.INTER.CONST>
1

>  <SCORE.INTER.POLAR>
-0.378987

>  <SCORE.INTER.ROT>
11

>  <SCORE.INTER.SOLV>
16.4045

>  <SCORE.INTER.VDW>
-16.3175

>  <SCORE.INTER.norm>
-0.0442243

>  <SCORE.INTRA>
-19.1708

>  <SCORE.INTRA.DIHEDRAL>
-0.62914

>  <SCORE.INTRA.DIHEDRAL.0>
19.0336

>  <SCORE.INTRA.POLAR>
0

>  <SCORE.INTRA.POLAR.0>
0

>  <SCORE.INTRA.REPUL>
0

>  <SCORE.INTRA.REPUL.0>
0

>  <SCORE.INTRA.SOLV>
-3.96452

>  <SCORE.INTRA.SOLV.lig_0>
-97.5861

>  <SCORE.INTRA.VDW>
-16.874

>  <SCORE.INTRA.VDW.0>
11.7669

>  <SCORE.INTRA.norm>
-0.479271

>  <SCORE.RESTR>
0

>  <SCORE.RESTR.CAVITY>
0

>  <SCORE.RESTR.norm>
0

>  <SCORE.SYSTEM>
0

>  <SCORE.SYSTEM.CONST>
0

>  <SCORE.SYSTEM.DIHEDRAL>
0

>  <SCORE.SYSTEM.SOLV>
0

>  <SCORE.SYSTEM.norm>
0

>  <SCORE.heavy>
40

>  <SCORE.norm>
-0.523496

>  <RMSD>
5.937

$$$$
1nta_lig
 OpenBabel11021811403D
libRbt.so/2013.1/901 2013/11/27
 40 42  0  0  0  0  0  0  0  0999 V2000
    4.4220   42.3331    0.0262 C   0  0  0  0  0  0  0  0  0  0  0  0
    3.5332   42.9478    0.7136 N   0  0  0  0  0  0  0  0  0  0  0  0
    3.4577   33.1412   -1.6439 C   0  0  0  0  0  0  0  0  0  0  0  0
    4.4846   33.6338   -1.2312 O   0  0  0  0  0  0  0  0  0  0  0  0
    5.7060   35.9246    0.6844 C   0  0  0  0  0  0  0  0  0  0  0  0
    5.0702   35.6363    1.7900 N   0  0  0  0  0  0  0  0  0  0  0  0
    1.5924   31.9764    0.8511 C   0  0  0  0  0  0  0  0  0  0  0  0
    0.4468   32.0395   -4.6865 C   0  0  0  0  0  0  0  0  0  0  0  0
    3.6375   40.1034   -0.0899 C   0  0  2  0  0  0  0  0  0  0  0  0
    3.9635   41.4036   -0.7987 N   0  0  0  0  0  0  0  0  0  0  0  0
    1.3833   35.4279   -0.1154 C   0  0  2  0  0  0  0  0  0  0  0  0
    1.2941   34.9460   -3.6805 C   0  0  1  0  0  0  0  0  0  0  0  0
    0.8608   35.1725   -2.3850 O   0  0  0  0  0  0  0  0  0  0  0  0
    4.5935   38.9907   -0.5599 C   0  0  1  0  0  0  0  0  0  0  0  0
    5.8820   39.3670   -0.1776 O   0  0  0  0  0  0  0  0  0  0  0  0
    1.7799   34.8773   -1.4810 C   0  0  2  0  0  0  0  0  0  0  0  0
    0.2648   34.3447   -4.6120 C   0  0  1  0  0  0  0  0  0  0  0  0
   -0.2302   33.1454   -4.0301 N   0  0  0  0  0  0  0  0  0  0  0  0
    4.2941   37.6425    0.1091 C   0  0  2  0  0  0  0  0  0  0  0  0
    5.1932   36.5460   -0.3239 N   0  0  0  0  0  0  0  0  0  0  0  0
    2.0786   33.4812   -1.1457 C   0  0  1  0  0  0  0  0  0  0  0  0
    1.0711   32.6738   -1.7581 O   0  0  0  0  0  0  0  0  0  0  0  0
   -0.7949   35.2173   -4.8161 C   0  0  2  0  0  0  0  0  0  0  0  0
   -1.5454   34.7296   -5.8996 O   0  0  0  0  0  0  0  0  0  0  0  0
    2.8569   37.2653   -0.2136 C   0  0  1  0  0  0  0  0  0  0  0  0
    2.5843   36.0201    0.4101 O   0  0  0  0  0  0  0  0  0  0  0  0
    1.9845   33.3164    0.3102 C   0  0  1  0  0  0  0  0  0  0  0  0
    1.0740   34.3316    0.7142 O   0  0  0  0  0  0  0  0  0  0  0  0
   -0.2835   36.5966   -5.1393 C   0  0  1  0  0  0  0  0  0  0  0  0
   -1.3513   37.4971   -5.1014 O   0  0  0  0  0  0  0  0  0  0  0  0
    1.8848   38.3657    0.2992 C   0  0  2  0  0  0  0  0  0  0  0  0
    0.5424   37.9892   -0.0032 O   0  0  0  0  0  0  0  0  0  0  0  0
    0.7184   37.0149   -4.1176 C   0  0  1  0  0  0  0  0  0  0  0  0
    1.7833   36.1100   -4.1668 O   0  0  0  0  0  0  0  0  0  0  0  0
    2.2123   39.7001   -0.4031 C   0  0  1  0  0  0  0  0  0  0  0  0
    1.3231   40.7307    0.0571 O   0  0  0  0  0  0  0  0  0  0  0  0
    1.2813   38.4165   -4.4256 C   0  0  0  0  0  0  0  0  0  0  0  0
    2.0565   38.8630   -3.3189 O   0  0  0  0  0  0  0  0  0  0  0  0
    5.6801   42.5946    0.1303 N   0  0  0  0  0  0  0  0  0  0  0  0
    6.9346   35.6064    0.5592 N   0  0  0  0  0  0  0  0  0  0  0  0
  1  2  1  0  0  0  0
  1 39  1  0  0  0  0
  3  4  1  0  0  0  0
  5  6  1  0  0  0  0
  5 40  1  0  0  0  0
  9 10  1  6  0  0  0
  9 14  1  0  0  0  0
  9 35  1  0  0  0  0
 10  1  1  0  0  0  0
 11 16  1  0  0  0  0
 11 28  1  0  0  0  0
 11 26  1  1  0  0  0
 12 17  1  0  0  0  0
 12 34  1  0  0  0  0
 12 13  1  1  0  0  0
 14 15  1  1  0  0  0
 14 19  1  0  0  0  0
 16 13  1  6  0  0  0
 16 21  1  0  0  0  0
 17 18  1  1  0  0  0
 17 23  1  0  0  0  0
 18  8  1  0  0  0  0
 19 20  1  6  0  0  0
 19 25  1  0  0  0  0
 20  5  1  0  0  0  0
 21  3  1  6  0  0  0
 21 22  1  0  0  0  0
 21 27  1  0  0  0  0
 23 24  1  6  0  0  0
 23 29  1  0  0  0  0
 25 26  1  1  0  0  0
 25 31  1  0  0  0  0
 27  7  1  6  0  0  0
 27 28  1  0  0  0  0
 29 30  1  1  0  0  0
 29 33  1  0  0  0  0
 31 32  1  6  0  0  0
 31 35  1  0  0  0  0
 33 34  1  0  0  0  0
 33 37  1  6  0  0  0
 35 36  1  1  0  0  0
 37 38  1  0  0  0  0
M  END
>  <CHROM.1>
-113.80334841,-79.31435198,75.85543159,140.12595439,167.34249761,-100.77551513
129.16672001,39.17014031,65.38150482,-165.19167021,170.43804314,2.30904770
36.62797992,-1.51211977,0.79052609,-0.83063328,-0.10024815

>  <Name>
1nta_lig

>  <RI>
0

>  <Rbt.Current_Directory>
/home/itssahil/PROJECTS/Mol_Feturizer/New_Systems/rnas/1nta

>  <Rbt.Executable>
rbdock ($Id: //depot/dev/client3/rdock/2013.1/src/exe/rbdock.cxx#4 $)

>  <Rbt.Library>
libRbt.so (2013.1, Build901 2013/11/27)

>  <Rbt.Parameter_File>
/export/apps/rDock/src/rDock_2013.1_src/data/scripts/dock_solv.prm

>  <Rbt.Receptor>
prm/pocket_docking_7.prm

>  <SCORE>
-30.0087

>  <SCORE.INTER>
-8.21011

>  <SCORE.INTER.CONST>
1

>  <SCORE.INTER.POLAR>
-0.824621

>  <SCORE.INTER.ROT>
11

>  <SCORE.INTER.SOLV>
17.443

>  <SCORE.INTER.VDW>
-19.4723

>  <SCORE.INTER.norm>
-0.205253

>  <SCORE.INTRA>
-21.7986

>  <SCORE.INTRA.DIHEDRAL>
-5.61355

>  <SCORE.INTRA.DIHEDRAL.0>
19.0336

>  <SCORE.INTRA.POLAR>
0

>  <SCORE.INTRA.POLAR.0>
0

>  <SCORE.INTRA.REPUL>
0

>  <SCORE.INTRA.REPUL.0>
0

>  <SCORE.INTRA.SOLV>
-1.53346

>  <SCORE.INTRA.SOLV.lig_0>
-97.5861

>  <SCORE.INTRA.VDW>
-18.2251

>  <SCORE.INTRA.VDW.0>
11.7669

>  <SCORE.INTRA.norm>
-0.544964

>  <SCORE.RESTR>
0

>  <SCORE.RESTR.CAVITY>
0

>  <SCORE.RESTR.norm>
0

>  <SCORE.SYSTEM>
0

>  <SCORE.SYSTEM.CONST>
0

>  <SCORE.SYSTEM.DIHEDRAL>
0

>  <SCORE.SYSTEM.SOLV>
0

>  <SCORE.SYSTEM.norm>
0

>  <SCORE.heavy>
40

>  <SCORE.norm>
-0.750217

>  <RMSD>
6.026

$$$$
1nta_lig
 OpenBabel11021811403D
libRbt.so/2013.1/901 2013/11/27
 40 42  0  0  0  0  0  0  0  0999 V2000
   -1.5750   32.1340   -4.2609 C   0  0  0  0  0  0  0  0  0  0  0  0
   -1.2084   30.9819   -3.8385 N   0  0  0  0  0  0  0  0  0  0  0  0
    3.0163   35.9024    1.6464 C   0  0  0  0  0  0  0  0  0  0  0  0
    3.4909   34.9436    1.0782 O   0  0  0  0  0  0  0  0  0  0  0  0
    4.1516   33.6007   -2.1751 C   0  0  0  0  0  0  0  0  0  0  0  0
    4.8855   34.6056   -1.7734 N   0  0  0  0  0  0  0  0  0  0  0  0
    4.1999   38.8331    0.6113 C   0  0  0  0  0  0  0  0  0  0  0  0
   -0.1066   32.9954   -0.0339 C   0  0  0  0  0  0  0  0  0  0  0  0
    0.1726   33.6707   -4.6912 C   0  0  2  0  0  0  0  0  0  0  0  0
   -0.8235   32.6565   -5.2185 N   0  0  0  0  0  0  0  0  0  0  0  0
    1.5629   37.1983   -1.1955 C   0  0  2  0  0  0  0  0  0  0  0  0
   -0.9549   36.1425   -0.0751 C   0  0  1  0  0  0  0  0  0  0  0  0
    0.0003   36.9411    0.5311 O   0  0  0  0  0  0  0  0  0  0  0  0
    1.0358   33.0378   -3.5833 C   0  0  1  0  0  0  0  0  0  0  0  0
    1.7619   32.0003   -4.1701 O   0  0  0  0  0  0  0  0  0  0  0  0
    1.2331   36.6198    0.1763 C   0  0  2  0  0  0  0  0  0  0  0  0
   -1.2874   34.8611    0.6571 C   0  0  1  0  0  0  0  0  0  0  0  0
   -0.0845   34.1333    0.8700 N   0  0  0  0  0  0  0  0  0  0  0  0
    2.0491   34.0286   -2.9948 C   0  0  2  0  0  0  0  0  0  0  0  0
    2.8947   33.4538   -1.9212 N   0  0  0  0  0  0  0  0  0  0  0  0
    2.3824   37.0830    0.9608 C   0  0  1  0  0  0  0  0  0  0  0  0
    1.8961   38.0498    1.8940 O   0  0  0  0  0  0  0  0  0  0  0  0
   -1.8772   35.1258    1.8852 C   0  0  2  0  0  0  0  0  0  0  0  0
   -2.4198   33.9216    2.3653 O   0  0  0  0  0  0  0  0  0  0  0  0
    1.2790   35.2167   -2.4405 C   0  0  1  0  0  0  0  0  0  0  0  0
    2.2206   36.1310   -1.9010 O   0  0  0  0  0  0  0  0  0  0  0  0
    3.3321   37.7454    0.0581 C   0  0  1  0  0  0  0  0  0  0  0  0
    2.5210   38.2150   -1.0117 O   0  0  0  0  0  0  0  0  0  0  0  0
   -2.9749   36.1454    1.7308 C   0  0  1  0  0  0  0  0  0  0  0  0
   -3.3834   36.5682    2.9984 O   0  0  0  0  0  0  0  0  0  0  0  0
    0.4405   35.8858   -3.5666 C   0  0  2  0  0  0  0  0  0  0  0  0
   -0.2658   37.0032   -3.0300 O   0  0  0  0  0  0  0  0  0  0  0  0
   -2.4614   37.3298    0.9851 C   0  0  1  0  0  0  0  0  0  0  0  0
   -2.0593   36.8963   -0.2821 O   0  0  0  0  0  0  0  0  0  0  0  0
   -0.5703   34.8616   -4.1239 C   0  0  1  0  0  0  0  0  0  0  0  0
   -1.3564   35.4619   -5.1663 O   0  0  0  0  0  0  0  0  0  0  0  0
   -3.5635   38.3895    0.7887 C   0  0  0  0  0  0  0  0  0  0  0  0
   -3.0052   39.5326    0.1509 O   0  0  0  0  0  0  0  0  0  0  0  0
   -2.6028   32.7502   -3.7855 N   0  0  0  0  0  0  0  0  0  0  0  0
    4.6714   32.6849   -2.8945 N   0  0  0  0  0  0  0  0  0  0  0  0
  1  2  1  0  0  0  0
  1 39  1  0  0  0  0
  3  4  1  0  0  0  0
  5  6  1  0  0  0  0
  5 40  1  0  0  0  0
  9 10  1  1  0  0  0
  9 14  1  0  0  0  0
  9 35  1  0  0  0  0
 10  1  1  0  0  0  0
 11 16  1  0  0  0  0
 11 28  1  0  0  0  0
 11 26  1  6  0  0  0
 12 17  1  0  0  0  0
 12 34  1  0  0  0  0
 12 13  1  1  0  0  0
 14 15  1  6  0  0  0
 14 19  1  0  0  0  0
 16 13  1  1  0  0  0
 16 21  1  0  0  0  0
 17 18  1  1  0  0  0
 17 23  1  0  0  0  0
 18  8  1  0  0  0  0
 19 20  1  1  0  0  0
 19 25  1  0  0  0  0
 20  5  1  0  0  0  0
 21  3  1  1  0  0  0
 21 22  1  0  0  0  0
 21 27  1  0  0  0  0
 23 24  1  6  0  0  0
 23 29  1  0  0  0  0
 25 26  1  6  0  0  0
 25 31  1  0  0  0  0
 27  7  1  1  0  0  0
 27 28  1  0  0  0  0
 29 30  1  1  0  0  0
 29 33  1  0  0  0  0
 31 32  1  1  0  0  0
 31 35  1  0  0  0  0
 33 34  1  0  0  0  0
 33 37  1  6  0  0  0
 35 36  1  6  0  0  0
 37 38  1  0  0  0  0
M  END
>  <CHROM.1>
55.06857662,-99.19704380,81.10730246,87.51901062,79.25453148,-107.42880560
125.35716799,92.49771004,60.62116949,-172.20086225,176.28348487,0.40017165
35.38328784,-1.08664137,1.25350813,-0.06699418,-2.26650194

>  <Name>
1nta_lig

>  <RI>
0

>  <Rbt.Current_Directory>
/home/itssahil/PROJECTS/Mol_Feturizer/New_Systems/rnas/1nta

>  <Rbt.Executable>
rbdock ($Id: //depot/dev/client3/rdock/2013.1/src/exe/rbdock.cxx#4 $)

>  <Rbt.Library>
libRbt.so (2013.1, Build901 2013/11/27)

>  <Rbt.Parameter_File>
/export/apps/rDock/src/rDock_2013.1_src/data/scripts/dock_solv.prm

>  <Rbt.Receptor>
prm/pocket_docking_3.prm

>  <SCORE>
-19.6336

>  <SCORE.INTER>
0.916423

>  <SCORE.INTER.CONST>
1

>  <SCORE.INTER.POLAR>
-0.790245

>  <SCORE.INTER.ROT>
11

>  <SCORE.INTER.SOLV>
14.6387

>  <SCORE.INTER.VDW>
-12.5678

>  <SCORE.INTER.norm>
0.0229106

>  <SCORE.INTRA>
-20.5535

>  <SCORE.INTRA.DIHEDRAL>
-8.4534

>  <SCORE.INTRA.DIHEDRAL.0>
19.0336

>  <SCORE.INTRA.POLAR>
0

>  <SCORE.INTRA.POLAR.0>
0

>  <SCORE.INTRA.REPUL>
0.00514742

>  <SCORE.INTRA.REPUL.0>
0

>  <SCORE.INTRA.SOLV>
1.13967

>  <SCORE.INTRA.SOLV.lig_0>
-97.5861

>  <SCORE.INTRA.VDW>
-16.9224

>  <SCORE.INTRA.VDW.0>
11.7669

>  <SCORE.INTRA.norm>
-0.513838

>  <SCORE.RESTR>
0.00350217

>  <SCORE.RESTR.CAVITY>
0.00350217

>  <SCORE.RESTR.norm>
8.75543e-05

>  <SCORE.SYSTEM>
0

>  <SCORE.SYSTEM.CONST>
0

>  <SCORE.SYSTEM.DIHEDRAL>
0

>  <SCORE.SYSTEM.SOLV>
0

>  <SCORE.SYSTEM.norm>
0

>  <SCORE.heavy>
40

>  <SCORE.norm>
-0.49084

>  <RMSD>
6.064

$$$$
1nta_lig
 OpenBabel11021811403D
libRbt.so/2013.1/901 2013/11/27
 40 42  0  0  0  0  0  0  0  0999 V2000
    6.8524   34.2151   -0.2346 C   0  0  0  0  0  0  0  0  0  0  0  0
    7.5734   35.0649    0.3964 N   0  0  0  0  0  0  0  0  0  0  0  0
   -1.9509   36.1355   -4.5339 C   0  0  0  0  0  0  0  0  0  0  0  0
   -2.3729   36.0990   -3.3990 O   0  0  0  0  0  0  0  0  0  0  0  0
    1.5690   37.8073   -0.7368 C   0  0  0  0  0  0  0  0  0  0  0  0
    2.6089   38.4910   -0.3356 N   0  0  0  0  0  0  0  0  0  0  0  0
    0.6535   38.1895   -4.7772 C   0  0  0  0  0  0  0  0  0  0  0  0
   -1.0601   31.9310   -2.3928 C   0  0  0  0  0  0  0  0  0  0  0  0
    4.5484   34.3802   -0.7490 C   0  0  2  0  0  0  0  0  0  0  0  0
    5.6337   34.0292    0.2500 N   0  0  0  0  0  0  0  0  0  0  0  0
    1.1202   34.7759   -3.7671 C   0  0  2  0  0  0  0  0  0  0  0  0
    0.4025   32.4145   -5.1108 C   0  0  1  0  0  0  0  0  0  0  0  0
    0.1248   33.6852   -5.5860 O   0  0  0  0  0  0  0  0  0  0  0  0
    3.5072   35.3080   -0.0947 C   0  0  1  0  0  0  0  0  0  0  0  0
    4.1659   36.4908    0.2444 O   0  0  0  0  0  0  0  0  0  0  0  0
   -0.1259   34.5486   -4.6161 C   0  0  2  0  0  0  0  0  0  0  0  0
   -0.8007   31.6107   -4.6693 C   0  0  1  0  0  0  0  0  0  0  0  0
   -1.5208   32.3636   -3.7015 N   0  0  0  0  0  0  0  0  0  0  0  0
    2.3693   35.6781   -1.0554 C   0  0  2  0  0  0  0  0  0  0  0  0
    1.3452   36.5675   -0.4567 N   0  0  0  0  0  0  0  0  0  0  0  0
   -0.5120   35.9294   -4.9247 C   0  0  1  0  0  0  0  0  0  0  0  0
   -0.3012   36.1253   -6.3244 O   0  0  0  0  0  0  0  0  0  0  0  0
   -1.6387   31.3357   -5.7409 C   0  0  2  0  0  0  0  0  0  0  0  0
   -2.5555   30.3556   -5.3238 O   0  0  0  0  0  0  0  0  0  0  0  0
    1.7038   34.3909   -1.5158 C   0  0  1  0  0  0  0  0  0  0  0  0
    0.6551   34.7386   -2.4063 O   0  0  0  0  0  0  0  0  0  0  0  0
    0.3734   36.8411   -4.1895 C   0  0  1  0  0  0  0  0  0  0  0  0
    1.5676   36.0903   -4.0078 O   0  0  0  0  0  0  0  0  0  0  0  0
   -0.8427   30.8149   -6.9087 C   0  0  1  0  0  0  0  0  0  0  0  0
   -1.6653   30.7764   -8.0376 O   0  0  0  0  0  0  0  0  0  0  0  0
    2.7428   33.4702   -2.2169 C   0  0  2  0  0  0  0  0  0  0  0  0
    2.0980   32.2736   -2.6504 O   0  0  0  0  0  0  0  0  0  0  0  0
    0.2973   31.7331   -7.1911 C   0  0  1  0  0  0  0  0  0  0  0  0
    1.1153   31.7612   -6.0573 O   0  0  0  0  0  0  0  0  0  0  0  0
    3.8626   33.1141   -1.2166 C   0  0  1  0  0  0  0  0  0  0  0  0
    4.8334   32.2620   -1.8461 O   0  0  0  0  0  0  0  0  0  0  0  0
    1.1496   31.2224   -8.3698 C   0  0  0  0  0  0  0  0  0  0  0  0
    0.4761   31.5050   -9.5911 O   0  0  0  0  0  0  0  0  0  0  0  0
    7.2815   33.5770   -1.2695 N   0  0  0  0  0  0  0  0  0  0  0  0
    0.6710   38.3760   -1.4415 N   0  0  0  0  0  0  0  0  0  0  0  0
  1  2  1  0  0  0  0
  1 39  1  0  0  0  0
  3  4  1  0  0  0  0
  5  6  1  0  0  0  0
  5 40  1  0  0  0  0
  9 10  1  1  0  0  0
  9 14  1  0  0  0  0
  9 35  1  0  0  0  0
 10  1  1  0  0  0  0
 11 16  1  0  0  0  0
 11 28  1  0  0  0  0
 11 26  1  1  0  0  0
 12 17  1  0  0  0  0
 12 34  1  0  0  0  0
 12 13  1  6  0  0  0
 14 15  1  6  0  0  0
 14 19  1  0  0  0  0
 16 13  1  6  0  0  0
 16 21  1  0  0  0  0
 17 18  1  1  0  0  0
 17 23  1  0  0  0  0
 18  8  1  0  0  0  0
 19 20  1  1  0  0  0
 19 25  1  0  0  0  0
 20  5  1  0  0  0  0
 21  3  1  1  0  0  0
 21 22  1  0  0  0  0
 21 27  1  0  0  0  0
 23 24  1  1  0  0  0
 23 29  1  0  0  0  0
 25 26  1  6  0  0  0
 25 31  1  0  0  0  0
 27  7  1  6  0  0  0
 27 28  1  0  0  0  0
 29 30  1  6  0  0  0
 29 33  1  0  0  0  0
 31 32  1  1  0  0  0
 31 35  1  0  0  0  0
 33 34  1  0  0  0  0
 33 37  1  6  0  0  0
 35 36  1  6  0  0  0
 37 38  1  0  0  0  0
M  END
>  <CHROM.1>
-130.29022576,119.33251894,156.07193469,77.32873149,65.86091660,-94.72090953
96.07203022,-64.86417772,65.60695864,90.80590068,77.08830550,1.36317886,34.13891415
-3.46656270,-0.77342972,0.57374855,-2.58414025

>  <Name>
1nta_lig

>  <RI>
0

>  <Rbt.Current_Directory>
/home/itssahil/PROJECTS/Mol_Feturizer/New_Systems/rnas/1nta

>  <Rbt.Executable>
rbdock ($Id: //depot/dev/client3/rdock/2013.1/src/exe/rbdock.cxx#4 $)

>  <Rbt.Library>
libRbt.so (2013.1, Build901 2013/11/27)

>  <Rbt.Parameter_File>
/export/apps/rDock/src/rDock_2013.1_src/data/scripts/dock_solv.prm

>  <Rbt.Receptor>
prm/pocket_docking_6.prm

>  <SCORE>
-27.4627

>  <SCORE.INTER>
-10.3946

>  <SCORE.INTER.CONST>
1

>  <SCORE.INTER.POLAR>
-1.37993

>  <SCORE.INTER.ROT>
11

>  <SCORE.INTER.SOLV>
16.8063

>  <SCORE.INTER.VDW>
-18.8654

>  <SCORE.INTER.norm>
-0.259864

>  <SCORE.INTRA>
-17.0702

>  <SCORE.INTRA.DIHEDRAL>
-6.19921

>  <SCORE.INTRA.DIHEDRAL.0>
19.0336

>  <SCORE.INTRA.POLAR>
0

>  <SCORE.INTRA.POLAR.0>
0

>  <SCORE.INTRA.REPUL>
0

>  <SCORE.INTRA.REPUL.0>
0

>  <SCORE.INTRA.SOLV>
-0.423528

>  <SCORE.INTRA.SOLV.lig_0>
-97.5861

>  <SCORE.INTRA.VDW>
-13.7588

>  <SCORE.INTRA.VDW.0>
11.7669

>  <SCORE.INTRA.norm>
-0.426755

>  <SCORE.RESTR>
0.00206655

>  <SCORE.RESTR.CAVITY>
0.00206655

>  <SCORE.RESTR.norm>
5.16637e-05

>  <SCORE.SYSTEM>
0

>  <SCORE.SYSTEM.CONST>
0

>  <SCORE.SYSTEM.DIHEDRAL>
0

>  <SCORE.SYSTEM.SOLV>
0

>  <SCORE.SYSTEM.norm>
0

>  <SCORE.heavy>
40

>  <SCORE.norm>
-0.686568

>  <RMSD>
6.078

$$$$
1nta_lig
 OpenBabel11021811403D
libRbt.so/2013.1/901 2013/11/27
 40 42  0  0  0  0  0  0  0  0999 V2000
   -1.2684   32.2918   -4.2689 C   0  0  0  0  0  0  0  0  0  0  0  0
   -0.8976   31.1247   -3.8939 N   0  0  0  0  0  0  0  0  0  0  0  0
    4.0712   36.7130    1.6128 C   0  0  0  0  0  0  0  0  0  0  0  0
    3.9540   36.0118    2.5936 O   0  0  0  0  0  0  0  0  0  0  0  0
    4.3309   33.6554   -1.9259 C   0  0  0  0  0  0  0  0  0  0  0  0
    5.1558   34.5000   -1.3637 N   0  0  0  0  0  0  0  0  0  0  0  0
    4.1284   39.6577    0.0678 C   0  0  0  0  0  0  0  0  0  0  0  0
   -0.3339   33.4112    2.9819 C   0  0  0  0  0  0  0  0  0  0  0  0
    0.4625   33.8812   -4.5489 C   0  0  2  0  0  0  0  0  0  0  0  0
   -0.4901   32.8766   -5.1672 N   0  0  0  0  0  0  0  0  0  0  0  0
    1.6349   37.2143   -0.7708 C   0  0  2  0  0  0  0  0  0  0  0  0
   -0.2199   35.9070    0.9424 C   0  0  1  0  0  0  0  0  0  0  0  0
    0.7052   36.8537    1.3492 O   0  0  0  0  0  0  0  0  0  0  0  0
    1.2896   33.2103   -3.4359 C   0  0  1  0  0  0  0  0  0  0  0  0
    2.0603   32.2153   -4.0393 O   0  0  0  0  0  0  0  0  0  0  0  0
    1.8411   36.7789    0.6759 C   0  0  2  0  0  0  0  0  0  0  0  0
   -1.1196   35.3698    2.0336 C   0  0  1  0  0  0  0  0  0  0  0  0
   -0.3072   34.8607    3.0838 N   0  0  0  0  0  0  0  0  0  0  0  0
    2.2572   34.1887   -2.7569 C   0  0  2  0  0  0  0  0  0  0  0  0
    3.0671   33.5773   -1.6761 N   0  0  0  0  0  0  0  0  0  0  0  0
    2.9925   37.6035    1.0568 C   0  0  1  0  0  0  0  0  0  0  0  0
    2.5322   38.5555    2.0180 O   0  0  0  0  0  0  0  0  0  0  0  0
   -1.9397   36.3675    2.5415 C   0  0  2  0  0  0  0  0  0  0  0  0
   -2.9325   35.7475    3.3193 O   0  0  0  0  0  0  0  0  0  0  0  0
    1.4410   35.3349   -2.1806 C   0  0  1  0  0  0  0  0  0  0  0  0
    2.3407   36.2381   -1.5573 O   0  0  0  0  0  0  0  0  0  0  0  0
    3.4631   38.3307   -0.1286 C   0  0  1  0  0  0  0  0  0  0  0  0
    2.3057   38.4408   -0.9479 O   0  0  0  0  0  0  0  0  0  0  0  0
   -2.5871   37.1358    1.4194 C   0  0  1  0  0  0  0  0  0  0  0  0
   -3.2074   38.2718    1.9459 O   0  0  0  0  0  0  0  0  0  0  0  0
    0.6386   36.0433   -3.3089 C   0  0  2  0  0  0  0  0  0  0  0  0
   -0.1116   37.1208   -2.7509 O   0  0  0  0  0  0  0  0  0  0  0  0
   -1.5480   37.5782    0.4463 C   0  0  1  0  0  0  0  0  0  0  0  0
   -0.9367   36.4344   -0.0766 O   0  0  0  0  0  0  0  0  0  0  0  0
   -0.3271   35.0300   -3.9583 C   0  0  1  0  0  0  0  0  0  0  0  0
   -1.0794   35.6664   -5.0042 O   0  0  0  0  0  0  0  0  0  0  0  0
   -2.1750   38.3525   -0.7299 C   0  0  0  0  0  0  0  0  0  0  0  0
   -3.0192   37.4774   -1.4692 O   0  0  0  0  0  0  0  0  0  0  0  0
   -2.3247   32.8651   -3.8025 N   0  0  0  0  0  0  0  0  0  0  0  0
    4.7612   32.8442   -2.8109 N   0  0  0  0  0  0  0  0  0  0  0  0
  1  2  1  0  0  0  0
  1 39  1  0  0  0  0
  3  4  1  0  0  0  0
  5  6  1  0  0  0  0
  5 40  1  0  0  0  0
  9 10  1  1  0  0  0
  9 14  1  0  0  0  0
  9 35  1  0  0  0  0
 10  1  1  0  0  0  0
 11 16  1  0  0  0  0
 11 28  1  0  0  0  0
 11 26  1  6  0  0  0
 12 17  1  0  0  0  0
 12 34  1  0  0  0  0
 12 13  1  1  0  0  0
 14 15  1  6  0  0  0
 14 19  1  0  0  0  0
 16 13  1  1  0  0  0
 16 21  1  0  0  0  0
 17 18  1  1  0  0  0
 17 23  1  0  0  0  0
 18  8  1  0  0  0  0
 19 20  1  1  0  0  0
 19 25  1  0  0  0  0
 20  5  1  0  0  0  0
 21  3  1  1  0  0  0
 21 22  1  0  0  0  0
 21 27  1  0  0  0  0
 23 24  1  1  0  0  0
 23 29  1  0  0  0  0
 25 26  1  6  0  0  0
 25 31  1  0  0  0  0
 27  7  1  1  0  0  0
 27 28  1  0  0  0  0
 29 30  1  1  0  0  0
 29 33  1  0  0  0  0
 31 32  1  1  0  0  0
 31 35  1  0  0  0  0
 33 34  1  0  0  0  0
 33 37  1  6  0  0  0
 35 36  1  6  0  0  0
 37 38  1  0  0  0  0
M  END
>  <CHROM.1>
54.84538249,-99.43646286,104.61719490,146.18671147,69.04500769,-104.07515633
119.70607761,103.68143644,-60.85154777,-169.01959377,-64.66548198,0.69594392
35.68301366,-0.83063495,1.46353223,-0.03212145,-2.17633109

>  <Name>
1nta_lig

>  <RI>
0

>  <Rbt.Current_Directory>
/home/itssahil/PROJECTS/Mol_Feturizer/New_Systems/rnas/1nta

>  <Rbt.Executable>
rbdock ($Id: //depot/dev/client3/rdock/2013.1/src/exe/rbdock.cxx#4 $)

>  <Rbt.Library>
libRbt.so (2013.1, Build901 2013/11/27)

>  <Rbt.Parameter_File>
/export/apps/rDock/src/rDock_2013.1_src/data/scripts/dock_solv.prm

>  <Rbt.Receptor>
prm/pocket_docking_4.prm

>  <SCORE>
-19.8652

>  <SCORE.INTER>
-1.38188

>  <SCORE.INTER.CONST>
1

>  <SCORE.INTER.POLAR>
-0.8

>  <SCORE.INTER.ROT>
11

>  <SCORE.INTER.SOLV>
16.0995

>  <SCORE.INTER.VDW>
-14.5544

>  <SCORE.INTER.norm>
-0.0345471

>  <SCORE.INTRA>
-18.4833

>  <SCORE.INTRA.DIHEDRAL>
-4.43645

>  <SCORE.INTRA.DIHEDRAL.0>
19.0336

>  <SCORE.INTRA.POLAR>
0

>  <SCORE.INTRA.POLAR.0>
0

>  <SCORE.INTRA.REPUL>
0

>  <SCORE.INTRA.REPUL.0>
0

>  <SCORE.INTRA.SOLV>
-1.78488

>  <SCORE.INTRA.SOLV.lig_0>
-97.5861

>  <SCORE.INTRA.VDW>
-15.3727

>  <SCORE.INTRA.VDW.0>
11.7669

>  <SCORE.INTRA.norm>
-0.462083

>  <SCORE.RESTR>
0

>  <SCORE.RESTR.CAVITY>
0

>  <SCORE.RESTR.norm>
0

>  <SCORE.SYSTEM>
0

>  <SCORE.SYSTEM.CONST>
0

>  <SCORE.SYSTEM.DIHEDRAL>
0

>  <SCORE.SYSTEM.SOLV>
0

>  <SCORE.SYSTEM.norm>
0

>  <SCORE.heavy>
40

>  <SCORE.norm>
-0.49663

>  <RMSD>
6.088

$$$$
1nta_lig
 OpenBabel11021811403D
libRbt.so/2013.1/901 2013/11/27
 40 42  0  0  0  0  0  0  0  0999 V2000
   -1.4219   30.7650   -3.5784 C   0  0  0  0  0  0  0  0  0  0  0  0
   -0.6637   30.2488   -4.4722 N   0  0  0  0  0  0  0  0  0  0  0  0
    1.6124   38.0024    1.6427 C   0  0  0  0  0  0  0  0  0  0  0  0
    0.7255   38.7923    1.4044 O   0  0  0  0  0  0  0  0  0  0  0  0
   -0.0172   33.6428    2.0195 C   0  0  0  0  0  0  0  0  0  0  0  0
   -0.8833   32.7793    2.4820 N   0  0  0  0  0  0  0  0  0  0  0  0
    4.8123   37.3348    2.2558 C   0  0  0  0  0  0  0  0  0  0  0  0
    2.9949   41.7786   -1.8238 C   0  0  0  0  0  0  0  0  0  0  0  0
   -0.1800   32.4403   -2.4597 C   0  0  2  0  0  0  0  0  0  0  0  0
   -1.3003   32.0736   -3.4133 N   0  0  0  0  0  0  0  0  0  0  0  0
    3.1771   35.9163   -0.6085 C   0  0  2  0  0  0  0  0  0  0  0  0
    1.5039   38.9214   -1.6861 C   0  0  1  0  0  0  0  0  0  0  0  0
    2.4113   37.8764   -1.6384 O   0  0  0  0  0  0  0  0  0  0  0  0
   -0.7483   33.1880   -1.2386 C   0  0  1  0  0  0  0  0  0  0  0  0
   -1.5958   32.3020   -0.5717 O   0  0  0  0  0  0  0  0  0  0  0  0
    2.3276   37.1794   -0.5176 C   0  0  2  0  0  0  0  0  0  0  0  0
    1.8088   39.9980   -2.7043 C   0  0  1  0  0  0  0  0  0  0  0  0
    3.1247   40.4844   -2.4722 N   0  0  0  0  0  0  0  0  0  0  0  0
    0.3467   33.6056   -0.2480 C   0  0  2  0  0  0  0  0  0  0  0  0
   -0.1644   34.3326    0.9387 N   0  0  0  0  0  0  0  0  0  0  0  0
    2.7977   37.7439    0.7517 C   0  0  1  0  0  0  0  0  0  0  0  0
    3.5108   38.9433    0.4434 O   0  0  0  0  0  0  0  0  0  0  0  0
    1.7344   39.4987   -3.9971 C   0  0  2  0  0  0  0  0  0  0  0  0
    1.7323   40.5944   -4.8771 O   0  0  0  0  0  0  0  0  0  0  0  0
    1.3375   34.4913   -0.9866 C   0  0  1  0  0  0  0  0  0  0  0  0
    2.3494   34.8715   -0.0673 O   0  0  0  0  0  0  0  0  0  0  0  0
    3.7309   36.7951    1.3718 C   0  0  1  0  0  0  0  0  0  0  0  0
    4.2664   36.0692    0.2721 O   0  0  0  0  0  0  0  0  0  0  0  0
    0.4679   38.7044   -4.1803 C   0  0  1  0  0  0  0  0  0  0  0  0
    0.5331   38.0204   -5.3970 O   0  0  0  0  0  0  0  0  0  0  0  0
    1.9469   33.7243   -2.1945 C   0  0  2  0  0  0  0  0  0  0  0  0
    2.8805   34.5672   -2.8678 O   0  0  0  0  0  0  0  0  0  0  0  0
    0.3395   37.7010   -3.0853 C   0  0  1  0  0  0  0  0  0  0  0  0
    0.2713   38.3960   -1.8738 O   0  0  0  0  0  0  0  0  0  0  0  0
    0.8170   33.3316   -3.1692 C   0  0  1  0  0  0  0  0  0  0  0  0
    1.3607   32.6218   -4.2941 O   0  0  0  0  0  0  0  0  0  0  0  0
   -0.9575   36.8799   -3.2268 C   0  0  0  0  0  0  0  0  0  0  0  0
   -1.0904   36.0177   -2.1025 O   0  0  0  0  0  0  0  0  0  0  0  0
   -2.2462   30.0613   -2.8802 N   0  0  0  0  0  0  0  0  0  0  0  0
    1.0586   33.8687    2.6661 N   0  0  0  0  0  0  0  0  0  0  0  0
  1  2  1  0  0  0  0
  1 39  1  0  0  0  0
  3  4  1  0  0  0  0
  5  6  1  0  0  0  0
  5 40  1  0  0  0  0
  9 10  1  6  0  0  0
  9 14  1  0  0  0  0
  9 35  1  0  0  0  0
 10  1  1  0  0  0  0
 11 16  1  0  0  0  0
 11 28  1  0  0  0  0
 11 26  1  1  0  0  0
 12 17  1  0  0  0  0
 12 34  1  0  0  0  0
 12 13  1  6  0  0  0
 14 15  1  1  0  0  0
 14 19  1  0  0  0  0
 16 13  1  6  0  0  0
 16 21  1  0  0  0  0
 17 18  1  1  0  0  0
 17 23  1  0  0  0  0
 18  8  1  0  0  0  0
 19 20  1  1  0  0  0
 19 25  1  0  0  0  0
 20  5  1  0  0  0  0
 21  3  1  1  0  0  0
 21 22  1  0  0  0  0
 21 27  1  0  0  0  0
 23 24  1  6  0  0  0
 23 29  1  0  0  0  0
 25 26  1  1  0  0  0
 25 31  1  0  0  0  0
 27  7  1  6  0  0  0
 27 28  1  0  0  0  0
 29 30  1  6  0  0  0
 29 33  1  0  0  0  0
 31 32  1  6  0  0  0
 31 35  1  0  0  0  0
 33 34  1  0  0  0  0
 33 37  1  6  0  0  0
 35 36  1  6  0  0  0
 37 38  1  0  0  0  0
M  END
>  <CHROM.1>
-118.39798450,-85.38988671,75.20515288,162.02372187,170.73404709,-104.13340847
112.65860350,-88.19725752,-63.95790637,-168.59724648,-175.15651747,1.13695643
35.90829132,-1.41940066,2.57434175,1.09734760,2.26022234

>  <Name>
1nta_lig

>  <RI>
0

>  <Rbt.Current_Directory>
/home/itssahil/PROJECTS/Mol_Feturizer/New_Systems/rnas/1nta

>  <Rbt.Executable>
rbdock ($Id: //depot/dev/client3/rdock/2013.1/src/exe/rbdock.cxx#4 $)

>  <Rbt.Library>
libRbt.so (2013.1, Build901 2013/11/27)

>  <Rbt.Parameter_File>
/export/apps/rDock/src/rDock_2013.1_src/data/scripts/dock_solv.prm

>  <Rbt.Receptor>
prm/pocket_docking_7.prm

>  <SCORE>
-25.8542

>  <SCORE.INTER>
-0.645197

>  <SCORE.INTER.CONST>
1

>  <SCORE.INTER.POLAR>
-0.412445

>  <SCORE.INTER.ROT>
11

>  <SCORE.INTER.SOLV>
17.0075

>  <SCORE.INTER.VDW>
-15.6578

>  <SCORE.INTER.norm>
-0.0161299

>  <SCORE.INTRA>
-25.209

>  <SCORE.INTRA.DIHEDRAL>
-10.4869

>  <SCORE.INTRA.DIHEDRAL.0>
19.0336

>  <SCORE.INTRA.POLAR>
0

>  <SCORE.INTRA.POLAR.0>
0

>  <SCORE.INTRA.REPUL>
0

>  <SCORE.INTRA.REPUL.0>
0

>  <SCORE.INTRA.SOLV>
-2.73599

>  <SCORE.INTRA.SOLV.lig_0>
-97.5861

>  <SCORE.INTRA.VDW>
-18.5975

>  <SCORE.INTRA.VDW.0>
11.7669

>  <SCORE.INTRA.norm>
-0.630224

>  <SCORE.RESTR>
0

>  <SCORE.RESTR.CAVITY>
0

>  <SCORE.RESTR.norm>
0

>  <SCORE.SYSTEM>
0

>  <SCORE.SYSTEM.CONST>
0

>  <SCORE.SYSTEM.DIHEDRAL>
0

>  <SCORE.SYSTEM.SOLV>
0

>  <SCORE.SYSTEM.norm>
0

>  <SCORE.heavy>
40

>  <SCORE.norm>
-0.646354

>  <RMSD>
6.089

$$$$
1nta_lig
 OpenBabel11021811403D
libRbt.so/2013.1/901 2013/11/27
 40 42  0  0  0  0  0  0  0  0999 V2000
   -1.7282   30.2947   -2.8209 C   0  0  0  0  0  0  0  0  0  0  0  0
   -2.2661   29.7886   -3.8672 N   0  0  0  0  0  0  0  0  0  0  0  0
    1.3708   39.3053   -5.2539 C   0  0  0  0  0  0  0  0  0  0  0  0
    2.0263   38.7152   -6.0842 O   0  0  0  0  0  0  0  0  0  0  0  0
   -1.1520   34.8852   -6.4905 C   0  0  0  0  0  0  0  0  0  0  0  0
   -2.2271   34.9386   -5.7481 N   0  0  0  0  0  0  0  0  0  0  0  0
   -1.7119   38.1009   -5.5816 C   0  0  0  0  0  0  0  0  0  0  0  0
    4.5596   39.7174   -0.7106 C   0  0  0  0  0  0  0  0  0  0  0  0
   -0.2575   32.1366   -3.0331 C   0  0  2  0  0  0  0  0  0  0  0  0
   -0.4540   30.6359   -2.9425 N   0  0  0  0  0  0  0  0  0  0  0  0
    0.5979   36.5820   -3.2907 C   0  0  2  0  0  0  0  0  0  0  0  0
    2.0872   37.8346   -1.1752 C   0  0  1  0  0  0  0  0  0  0  0  0
    1.1539   38.4508   -1.9917 O   0  0  0  0  0  0  0  0  0  0  0  0
   -0.2328   32.5787   -4.5086 C   0  0  1  0  0  0  0  0  0  0  0  0
   -1.4866   32.2850   -5.0468 O   0  0  0  0  0  0  0  0  0  0  0  0
    1.1784   37.9908   -3.2314 C   0  0  2  0  0  0  0  0  0  0  0  0
    2.6063   38.6794   -0.0325 C   0  0  1  0  0  0  0  0  0  0  0  0
    3.1246   39.8929   -0.5625 N   0  0  0  0  0  0  0  0  0  0  0  0
   -0.0124   34.0895   -4.6619 C   0  0  2  0  0  0  0  0  0  0  0  0
    0.0216   34.5501   -6.0707 N   0  0  0  0  0  0  0  0  0  0  0  0
    0.4133   38.6554   -4.2915 C   0  0  1  0  0  0  0  0  0  0  0  0
   -0.4451   39.6079   -3.6606 O   0  0  0  0  0  0  0  0  0  0  0  0
    1.5939   38.9774    0.8688 C   0  0  2  0  0  0  0  0  0  0  0  0
    2.1954   39.4956    2.0285 O   0  0  0  0  0  0  0  0  0  0  0  0
    1.3044   34.4443   -3.9896 C   0  0  1  0  0  0  0  0  0  0  0  0
    1.5014   35.8424   -4.1311 O   0  0  0  0  0  0  0  0  0  0  0  0
   -0.4213   37.6544   -4.9677 C   0  0  1  0  0  0  0  0  0  0  0  0
   -0.6299   36.6540   -3.9784 O   0  0  0  0  0  0  0  0  0  0  0  0
    0.8193   37.7336    1.2173 C   0  0  1  0  0  0  0  0  0  0  0  0
   -0.3282   38.0973    1.9267 O   0  0  0  0  0  0  0  0  0  0  0  0
    1.2670   34.0398   -2.4883 C   0  0  2  0  0  0  0  0  0  0  0  0
    2.5058   34.3896   -1.8732 O   0  0  0  0  0  0  0  0  0  0  0  0
    0.3969   37.0367   -0.0311 C   0  0  1  0  0  0  0  0  0  0  0  0
    1.5520   36.6742   -0.7308 O   0  0  0  0  0  0  0  0  0  0  0  0
    1.0538   32.5155   -2.3782 C   0  0  1  0  0  0  0  0  0  0  0  0
    1.0173   32.1213   -0.9968 O   0  0  0  0  0  0  0  0  0  0  0  0
   -0.3832   35.7451    0.2845 C   0  0  0  0  0  0  0  0  0  0  0  0
    0.4478   34.8687    1.0371 O   0  0  0  0  0  0  0  0  0  0  0  0
   -2.3778   30.4585   -1.7194 N   0  0  0  0  0  0  0  0  0  0  0  0
   -1.2278   35.1546   -7.7347 N   0  0  0  0  0  0  0  0  0  0  0  0
  1  2  1  0  0  0  0
  1 39  1  0  0  0  0
  3  4  1  0  0  0  0
  5  6  1  0  0  0  0
  5 40  1  0  0  0  0
  9 10  1  6  0  0  0
  9 14  1  0  0  0  0
  9 35  1  0  0  0  0
 10  1  1  0  0  0  0
 11 16  1  0  0  0  0
 11 28  1  0  0  0  0
 11 26  1  6  0  0  0
 12 17  1  0  0  0  0
 12 34  1  0  0  0  0
 12 13  1  1  0  0  0
 14 15  1  1  0  0  0
 14 19  1  0  0  0  0
 16 13  1  1  0  0  0
 16 21  1  0  0  0  0
 17 18  1  6  0  0  0
 17 23  1  0  0  0  0
 18  8  1  0  0  0  0
 19 20  1  6  0  0  0
 19 25  1  0  0  0  0
 20  5  1  0  0  0  0
 21  3  1  6  0  0  0
 21 22  1  0  0  0  0
 21 27  1  0  0  0  0
 23 24  1  1  0  0  0
 23 29  1  0  0  0  0
 25 26  1  1  0  0  0
 25 31  1  0  0  0  0
 27  7  1  1  0  0  0
 27 28  1  0  0  0  0
 29 30  1  6  0  0  0
 29 33  1  0  0  0  0
 31 32  1  6  0  0  0
 31 35  1  0  0  0  0
 33 34  1  0  0  0  0
 33 37  1  1  0  0  0
 35 36  1  1  0  0  0
 37 38  1  0  0  0  0
M  END
>  <CHROM.1>
-92.97200123,106.09174678,163.99224026,151.21531387,72.01289807,-96.34477706
90.56862798,6.00066322,75.50321672,71.87622791,-59.99331444,0.45127881,35.82784801
-2.68618144,-2.97423940,-1.20418359,-0.89180384

>  <Name>
1nta_lig

>  <RI>
0

>  <Rbt.Current_Directory>
/home/itssahil/PROJECTS/Mol_Feturizer/New_Systems/rnas/1nta

>  <Rbt.Executable>
rbdock ($Id: //depot/dev/client3/rdock/2013.1/src/exe/rbdock.cxx#4 $)

>  <Rbt.Library>
libRbt.so (2013.1, Build901 2013/11/27)

>  <Rbt.Parameter_File>
/export/apps/rDock/src/rDock_2013.1_src/data/scripts/dock_solv.prm

>  <Rbt.Receptor>
prm/pocket_docking_5.prm

>  <SCORE>
-23.5964

>  <SCORE.INTER>
-4.57662

>  <SCORE.INTER.CONST>
1

>  <SCORE.INTER.POLAR>
-0.966193

>  <SCORE.INTER.ROT>
11

>  <SCORE.INTER.SOLV>
14.5937

>  <SCORE.INTER.VDW>
-15.6283

>  <SCORE.INTER.norm>
-0.114416

>  <SCORE.INTRA>
-19.0198

>  <SCORE.INTRA.DIHEDRAL>
-9.28127

>  <SCORE.INTRA.DIHEDRAL.0>
19.0336

>  <SCORE.INTRA.POLAR>
0

>  <SCORE.INTRA.POLAR.0>
0

>  <SCORE.INTRA.REPUL>
0

>  <SCORE.INTRA.REPUL.0>
0

>  <SCORE.INTRA.SOLV>
1.05677

>  <SCORE.INTRA.SOLV.lig_0>
-97.5861

>  <SCORE.INTRA.VDW>
-14.9076

>  <SCORE.INTRA.VDW.0>
11.7669

>  <SCORE.INTRA.norm>
-0.475495

>  <SCORE.RESTR>
0

>  <SCORE.RESTR.CAVITY>
0

>  <SCORE.RESTR.norm>
0

>  <SCORE.SYSTEM>
0

>  <SCORE.SYSTEM.CONST>
0

>  <SCORE.SYSTEM.DIHEDRAL>
0

>  <SCORE.SYSTEM.SOLV>
0

>  <SCORE.SYSTEM.norm>
0

>  <SCORE.heavy>
40

>  <SCORE.norm>
-0.589911

>  <RMSD>
6.092

$$$$
1nta_lig
 OpenBabel11021811403D
libRbt.so/2013.1/901 2013/11/27
 40 42  0  0  0  0  0  0  0  0999 V2000
   11.4422   31.1687   -2.9957 C   0  0  0  0  0  0  0  0  0  0  0  0
   12.2213   31.3590   -1.9973 N   0  0  0  0  0  0  0  0  0  0  0  0
    2.3249   32.9402   -0.3107 C   0  0  0  0  0  0  0  0  0  0  0  0
    2.0981   33.0363    0.8753 O   0  0  0  0  0  0  0  0  0  0  0  0
    6.1949   31.1765   -6.0902 C   0  0  0  0  0  0  0  0  0  0  0  0
    6.2212   31.3309   -7.3884 N   0  0  0  0  0  0  0  0  0  0  0  0
    4.2703   35.5797    0.2462 C   0  0  0  0  0  0  0  0  0  0  0  0
   -0.8418   36.4462   -2.1182 C   0  0  0  0  0  0  0  0  0  0  0  0
    9.2111   31.9575   -3.0181 C   0  0  2  0  0  0  0  0  0  0  0  0
   10.6762   32.1976   -3.3261 N   0  0  0  0  0  0  0  0  0  0  0  0
    4.3014   33.9418   -2.9486 C   0  0  2  0  0  0  0  0  0  0  0  0
    0.7004   33.8010   -3.1736 C   0  0  1  0  0  0  0  0  0  0  0  0
    2.0235   34.0697   -3.4813 O   0  0  0  0  0  0  0  0  0  0  0  0
    8.3644   32.1515   -4.2902 C   0  0  1  0  0  0  0  0  0  0  0  0
    8.7674   31.1774   -5.2050 O   0  0  0  0  0  0  0  0  0  0  0  0
    2.8638   33.5948   -2.5771 C   0  0  2  0  0  0  0  0  0  0  0  0
   -0.3005   34.8200   -3.6723 C   0  0  1  0  0  0  0  0  0  0  0  0
    0.0777   36.1032   -3.1901 N   0  0  0  0  0  0  0  0  0  0  0  0
    6.8661   31.9434   -4.0319 C   0  0  2  0  0  0  0  0  0  0  0  0
    6.0195   32.1271   -5.2350 N   0  0  0  0  0  0  0  0  0  0  0  0
    2.8112   34.0624   -1.1881 C   0  0  1  0  0  0  0  0  0  0  0  0
    1.9348   35.1907   -1.1539 O   0  0  0  0  0  0  0  0  0  0  0  0
   -0.3328   34.8515   -5.0594 C   0  0  2  0  0  0  0  0  0  0  0  0
   -1.4693   35.5843   -5.4422 O   0  0  0  0  0  0  0  0  0  0  0  0
    6.4311   32.9310   -2.9608 C   0  0  1  0  0  0  0  0  0  0  0  0
    5.0463   32.7319   -2.7233 O   0  0  0  0  0  0  0  0  0  0  0  0
    4.1533   34.5046   -0.7894 C   0  0  1  0  0  0  0  0  0  0  0  0
    4.7685   34.8867   -2.0135 O   0  0  0  0  0  0  0  0  0  0  0  0
   -0.4258   33.4540   -5.6134 C   0  0  1  0  0  0  0  0  0  0  0  0
   -0.2148   33.4981   -6.9940 O   0  0  0  0  0  0  0  0  0  0  0  0
    7.2533   32.7087   -1.6595 C   0  0  2  0  0  0  0  0  0  0  0  0
    6.8240   33.6365   -0.6644 O   0  0  0  0  0  0  0  0  0  0  0  0
    0.6332   32.5991   -5.0049 C   0  0  1  0  0  0  0  0  0  0  0  0
    0.4104   32.5590   -3.6250 O   0  0  0  0  0  0  0  0  0  0  0  0
    8.7498   32.9363   -1.9592 C   0  0  1  0  0  0  0  0  0  0  0  0
    9.5273   32.7363   -0.7674 O   0  0  0  0  0  0  0  0  0  0  0  0
    0.5581   31.1528   -5.5329 C   0  0  0  0  0  0  0  0  0  0  0  0
    1.0303   31.1194   -6.8749 O   0  0  0  0  0  0  0  0  0  0  0  0
   11.3991   30.0506   -3.6362 N   0  0  0  0  0  0  0  0  0  0  0  0
    6.3256   30.0113   -5.5885 N   0  0  0  0  0  0  0  0  0  0  0  0
  1  2  1  0  0  0  0
  1 39  1  0  0  0  0
  3  4  1  0  0  0  0
  5  6  1  0  0  0  0
  5 40  1  0  0  0  0
  9 10  1  6  0  0  0
  9 14  1  0  0  0  0
  9 35  1  0  0  0  0
 10  1  1  0  0  0  0
 11 16  1  0  0  0  0
 11 28  1  0  0  0  0
 11 26  1  1  0  0  0
 12 17  1  0  0  0  0
 12 34  1  0  0  0  0
 12 13  1  6  0  0  0
 14 15  1  6  0  0  0
 14 19  1  0  0  0  0
 16 13  1  6  0  0  0
 16 21  1  0  0  0  0
 17 18  1  6  0  0  0
 17 23  1  0  0  0  0
 18  8  1  0  0  0  0
 19 20  1  6  0  0  0
 19 25  1  0  0  0  0
 20  5  1  0  0  0  0
 21  3  1  1  0  0  0
 21 22  1  0  0  0  0
 21 27  1  0  0  0  0
 23 24  1  1  0  0  0
 23 29  1  0  0  0  0
 25 26  1  1  0  0  0
 25 31  1  0  0  0  0
 27  7  1  1  0  0  0
 27 28  1  0  0  0  0
 29 30  1  6  0  0  0
 29 33  1  0  0  0  0
 31 32  1  1  0  0  0
 31 35  1  0  0  0  0
 33 34  1  0  0  0  0
 33 37  1  6  0  0  0
 35 36  1  1  0  0  0
 37 38  1  0  0  0  0
M  END
>  <CHROM.1>
-124.38194561,-110.16527133,-176.74301752,150.04840487,-178.85148562,-105.37839410
69.80928484,-141.67013135,-175.36889206,-122.23941693,73.13007483,4.41532537
33.07339898,-3.31723528,0.03564673,0.27097069,-2.03376491

>  <Name>
1nta_lig

>  <RI>
0

>  <Rbt.Current_Directory>
/home/itssahil/PROJECTS/Mol_Feturizer/New_Systems/rnas/1nta

>  <Rbt.Executable>
rbdock ($Id: //depot/dev/client3/rdock/2013.1/src/exe/rbdock.cxx#4 $)

>  <Rbt.Library>
libRbt.so (2013.1, Build901 2013/11/27)

>  <Rbt.Parameter_File>
/export/apps/rDock/src/rDock_2013.1_src/data/scripts/dock_solv.prm

>  <Rbt.Receptor>
prm/pocket_docking_7.prm

>  <SCORE>
-39.6518

>  <SCORE.INTER>
-21.6158

>  <SCORE.INTER.CONST>
1

>  <SCORE.INTER.POLAR>
-3.31347

>  <SCORE.INTER.ROT>
11

>  <SCORE.INTER.SOLV>
39.7529

>  <SCORE.INTER.VDW>
-27.5499

>  <SCORE.INTER.norm>
-0.540396

>  <SCORE.INTRA>
-18.0791

>  <SCORE.INTRA.DIHEDRAL>
-4.16282

>  <SCORE.INTRA.DIHEDRAL.0>
19.0336

>  <SCORE.INTRA.POLAR>
0

>  <SCORE.INTRA.POLAR.0>
0

>  <SCORE.INTRA.REPUL>
0

>  <SCORE.INTRA.REPUL.0>
0

>  <SCORE.INTRA.SOLV>
-3.52473

>  <SCORE.INTRA.SOLV.lig_0>
-97.5861

>  <SCORE.INTRA.VDW>
-14.2353

>  <SCORE.INTRA.VDW.0>
11.7669

>  <SCORE.INTRA.norm>
-0.451976

>  <SCORE.RESTR>
0.0430528

>  <SCORE.RESTR.CAVITY>
0.0430528

>  <SCORE.RESTR.norm>
0.00107632

>  <SCORE.SYSTEM>
0

>  <SCORE.SYSTEM.CONST>
0

>  <SCORE.SYSTEM.DIHEDRAL>
0

>  <SCORE.SYSTEM.SOLV>
0

>  <SCORE.SYSTEM.norm>
0

>  <SCORE.heavy>
40

>  <SCORE.norm>
-0.991296

>  <RMSD>
6.151

$$$$
1nta_lig
 OpenBabel11021811403D
libRbt.so/2013.1/901 2013/11/27
 40 42  0  0  0  0  0  0  0  0999 V2000
   -1.5666   30.9388   -3.8551 C   0  0  0  0  0  0  0  0  0  0  0  0
   -2.5737   30.2381   -3.4879 N   0  0  0  0  0  0  0  0  0  0  0  0
    1.5071   38.1560    1.4942 C   0  0  0  0  0  0  0  0  0  0  0  0
    0.6067   38.9037    1.1821 O   0  0  0  0  0  0  0  0  0  0  0  0
   -0.4172   33.7718    1.9271 C   0  0  0  0  0  0  0  0  0  0  0  0
    0.6012   33.6725    2.7413 N   0  0  0  0  0  0  0  0  0  0  0  0
    4.6635   37.3421    2.1544 C   0  0  0  0  0  0  0  0  0  0  0  0
    3.1148   41.8140   -2.3347 C   0  0  0  0  0  0  0  0  0  0  0  0
   -0.4704   32.5582   -2.5222 C   0  0  2  0  0  0  0  0  0  0  0  0
   -1.5900   32.2101   -3.4836 N   0  0  0  0  0  0  0  0  0  0  0  0
    2.9819   35.9370   -0.6896 C   0  0  2  0  0  0  0  0  0  0  0  0
    1.4750   38.9964   -1.8563 C   0  0  1  0  0  0  0  0  0  0  0  0
    2.3260   37.9070   -1.7749 O   0  0  0  0  0  0  0  0  0  0  0  0
   -1.0313   33.3348   -1.3159 C   0  0  1  0  0  0  0  0  0  0  0  0
   -1.9089   32.4793   -0.6482 O   0  0  0  0  0  0  0  0  0  0  0  0
    2.1974   37.2435   -0.6380 C   0  0  2  0  0  0  0  0  0  0  0  0
    1.8101   40.0008   -2.9369 C   0  0  1  0  0  0  0  0  0  0  0  0
    3.1559   40.4255   -2.7619 N   0  0  0  0  0  0  0  0  0  0  0  0
    0.0640   33.7349   -0.3184 C   0  0  2  0  0  0  0  0  0  0  0  0
   -0.4401   34.4889    0.8543 N   0  0  0  0  0  0  0  0  0  0  0  0
    2.6851   37.8152    0.6214 C   0  0  1  0  0  0  0  0  0  0  0  0
    3.4611   38.9687    0.2904 O   0  0  0  0  0  0  0  0  0  0  0  0
    1.6751   39.4405   -4.1994 C   0  0  2  0  0  0  0  0  0  0  0  0
    1.7084   40.4880   -5.1357 O   0  0  0  0  0  0  0  0  0  0  0  0
    1.0855   34.5856   -1.0565 C   0  0  1  0  0  0  0  0  0  0  0  0
    2.0975   34.9496   -0.1307 O   0  0  0  0  0  0  0  0  0  0  0  0
    3.5634   36.8361    1.2737 C   0  0  1  0  0  0  0  0  0  0  0  0
    4.0702   36.0564    0.1975 O   0  0  0  0  0  0  0  0  0  0  0  0
    0.3634   38.7086   -4.3105 C   0  0  1  0  0  0  0  0  0  0  0  0
    0.3597   37.9604   -5.4905 O   0  0  0  0  0  0  0  0  0  0  0  0
    1.6870   33.7887   -2.2489 C   0  0  2  0  0  0  0  0  0  0  0  0
    2.6495   34.5988   -2.9217 O   0  0  0  0  0  0  0  0  0  0  0  0
    0.2102   37.7715   -3.1612 C   0  0  1  0  0  0  0  0  0  0  0  0
    0.2115   38.5305   -1.9869 O   0  0  0  0  0  0  0  0  0  0  0  0
    0.5572   33.4146   -3.2312 C   0  0  1  0  0  0  0  0  0  0  0  0
    1.0936   32.6776   -4.3420 O   0  0  0  0  0  0  0  0  0  0  0  0
   -1.1321   37.0166   -3.2286 C   0  0  0  0  0  0  0  0  0  0  0  0
   -1.2669   36.1977   -2.0726 O   0  0  0  0  0  0  0  0  0  0  0  0
   -0.5951   30.4457   -4.5445 N   0  0  0  0  0  0  0  0  0  0  0  0
   -1.4812   33.1085    2.1603 N   0  0  0  0  0  0  0  0  0  0  0  0
  1  2  1  0  0  0  0
  1 39  1  0  0  0  0
  3  4  1  0  0  0  0
  5  6  1  0  0  0  0
  5 40  1  0  0  0  0
  9 10  1  6  0  0  0
  9 14  1  0  0  0  0
  9 35  1  0  0  0  0
 10  1  1  0  0  0  0
 11 16  1  0  0  0  0
 11 28  1  0  0  0  0
 11 26  1  1  0  0  0
 12 17  1  0  0  0  0
 12 34  1  0  0  0  0
 12 13  1  6  0  0  0
 14 15  1  1  0  0  0
 14 19  1  0  0  0  0
 16 13  1  6  0  0  0
 16 21  1  0  0  0  0
 17 18  1  1  0  0  0
 17 23  1  0  0  0  0
 18  8  1  0  0  0  0
 19 20  1  1  0  0  0
 19 25  1  0  0  0  0
 20  5  1  0  0  0  0
 21  3  1  1  0  0  0
 21 22  1  0  0  0  0
 21 27  1  0  0  0  0
 23 24  1  6  0  0  0
 23 29  1  0  0  0  0
 25 26  1  1  0  0  0
 25 31  1  0  0  0  0
 27  7  1  6  0  0  0
 27 28  1  0  0  0  0
 29 30  1  6  0  0  0
 29 33  1  0  0  0  0
 31 32  1  6  0  0  0
 31 35  1  0  0  0  0
 33 34  1  0  0  0  0
 33 37  1  6  0  0  0
 35 36  1  6  0  0  0
 37 38  1  0  0  0  0
M  END
>  <CHROM.1>
-131.78836270,115.50027013,75.97053512,164.49173436,170.82203770,-110.95433994
107.74011079,88.31090935,-57.69936482,-170.31554353,-176.52822519,0.95819247
35.98103496,-1.55435738,2.66020122,1.08179842,2.16466482

>  <Name>
1nta_lig

>  <RI>
0

>  <Rbt.Current_Directory>
/home/itssahil/PROJECTS/Mol_Feturizer/New_Systems/rnas/1nta

>  <Rbt.Executable>
rbdock ($Id: //depot/dev/client3/rdock/2013.1/src/exe/rbdock.cxx#4 $)

>  <Rbt.Library>
libRbt.so (2013.1, Build901 2013/11/27)

>  <Rbt.Parameter_File>
/export/apps/rDock/src/rDock_2013.1_src/data/scripts/dock_solv.prm

>  <Rbt.Receptor>
prm/pocket_docking_6.prm

>  <SCORE>
-25.7283

>  <SCORE.INTER>
-0.426288

>  <SCORE.INTER.CONST>
1

>  <SCORE.INTER.POLAR>
-0.468503

>  <SCORE.INTER.ROT>
11

>  <SCORE.INTER.SOLV>
13.5205

>  <SCORE.INTER.VDW>
-14.1627

>  <SCORE.INTER.norm>
-0.0106572

>  <SCORE.INTRA>
-25.302

>  <SCORE.INTRA.DIHEDRAL>
-11.3035

>  <SCORE.INTRA.DIHEDRAL.0>
19.0336

>  <SCORE.INTRA.POLAR>
0

>  <SCORE.INTRA.POLAR.0>
0

>  <SCORE.INTRA.REPUL>
0

>  <SCORE.INTRA.REPUL.0>
0

>  <SCORE.INTRA.SOLV>
-3.36656

>  <SCORE.INTRA.SOLV.lig_0>
-97.5861

>  <SCORE.INTRA.VDW>
-17.967

>  <SCORE.INTRA.VDW.0>
11.7669

>  <SCORE.INTRA.norm>
-0.63255

>  <SCORE.RESTR>
0

>  <SCORE.RESTR.CAVITY>
0

>  <SCORE.RESTR.norm>
0

>  <SCORE.SYSTEM>
0

>  <SCORE.SYSTEM.CONST>
0

>  <SCORE.SYSTEM.DIHEDRAL>
0

>  <SCORE.SYSTEM.SOLV>
0

>  <SCORE.SYSTEM.norm>
0

>  <SCORE.heavy>
40

>  <SCORE.norm>
-0.643207

>  <RMSD>
6.176

$$$$
1nta_lig
 OpenBabel11021811403D
libRbt.so/2013.1/901 2013/11/27
 40 42  0  0  0  0  0  0  0  0999 V2000
    5.2546   43.0236    0.3672 C   0  0  0  0  0  0  0  0  0  0  0  0
    4.3597   43.9167    0.1635 N   0  0  0  0  0  0  0  0  0  0  0  0
    5.2317   33.6569   -2.2077 C   0  0  0  0  0  0  0  0  0  0  0  0
    4.8955   32.8054   -3.0010 O   0  0  0  0  0  0  0  0  0  0  0  0
    1.2828   38.5383   -1.9638 C   0  0  0  0  0  0  0  0  0  0  0  0
    1.2391   37.5249   -2.7890 N   0  0  0  0  0  0  0  0  0  0  0  0
    6.6624   34.0344    0.7708 C   0  0  0  0  0  0  0  0  0  0  0  0
    0.3228   31.6803   -3.2929 C   0  0  0  0  0  0  0  0  0  0  0  0
    4.7569   40.7137    0.2362 C   0  0  2  0  0  0  0  0  0  0  0  0
    4.8626   41.9735    1.0732 N   0  0  0  0  0  0  0  0  0  0  0  0
    3.4976   35.5769    0.0671 C   0  0  2  0  0  0  0  0  0  0  0  0
    1.1644   34.0392   -1.3327 C   0  0  1  0  0  0  0  0  0  0  0  0
    2.2713   33.6878   -0.5785 O   0  0  0  0  0  0  0  0  0  0  0  0
    3.2893   40.2521    0.1581 C   0  0  1  0  0  0  0  0  0  0  0  0
    2.5770   41.2558   -0.5000 O   0  0  0  0  0  0  0  0  0  0  0  0
    3.3442   34.3970   -0.8867 C   0  0  2  0  0  0  0  0  0  0  0  0
    0.0722   32.9949   -1.4056 C   0  0  1  0  0  0  0  0  0  0  0  0
    0.6369   31.7780   -1.8773 N   0  0  0  0  0  0  0  0  0  0  0  0
    3.1249   38.9641   -0.6597 C   0  0  2  0  0  0  0  0  0  0  0  0
    1.7240   38.4877   -0.7520 N   0  0  0  0  0  0  0  0  0  0  0  0
    4.6820   33.8004   -0.8139 C   0  0  1  0  0  0  0  0  0  0  0  0
    4.5478   32.5390   -0.1558 O   0  0  0  0  0  0  0  0  0  0  0  0
   -0.4934   32.7752   -0.1575 C   0  0  2  0  0  0  0  0  0  0  0  0
   -1.6723   32.0345   -0.3488 O   0  0  0  0  0  0  0  0  0  0  0  0
    3.9773   37.8836   -0.0134 C   0  0  1  0  0  0  0  0  0  0  0  0
    3.8245   36.6962   -0.7754 O   0  0  0  0  0  0  0  0  0  0  0  0
    5.5385   34.6644    0.0081 C   0  0  1  0  0  0  0  0  0  0  0  0
    4.6272   35.3312    0.8729 O   0  0  0  0  0  0  0  0  0  0  0  0
   -0.8254   34.0861    0.5057 C   0  0  1  0  0  0  0  0  0  0  0  0
   -1.1639   33.8468    1.8401 O   0  0  0  0  0  0  0  0  0  0  0  0
    5.4674   38.3274    0.0269 C   0  0  2  0  0  0  0  0  0  0  0  0
    6.2517   37.2974    0.6265 O   0  0  0  0  0  0  0  0  0  0  0  0
    0.3666   34.9810    0.4782 C   0  0  1  0  0  0  0  0  0  0  0  0
    0.6940   35.2167   -0.8607 O   0  0  0  0  0  0  0  0  0  0  0  0
    5.5906   39.6173    0.8647 C   0  0  1  0  0  0  0  0  0  0  0  0
    6.9620   40.0436    0.9148 O   0  0  0  0  0  0  0  0  0  0  0  0
    0.0599   36.3433    1.1312 C   0  0  0  0  0  0  0  0  0  0  0  0
   -0.1508   36.1566    2.5262 O   0  0  0  0  0  0  0  0  0  0  0  0
    6.4590   43.1368   -0.0787 N   0  0  0  0  0  0  0  0  0  0  0  0
    0.8910   39.6881   -2.3520 N   0  0  0  0  0  0  0  0  0  0  0  0
  1  2  1  0  0  0  0
  1 39  1  0  0  0  0
  3  4  1  0  0  0  0
  5  6  1  0  0  0  0
  5 40  1  0  0  0  0
  9 10  1  1  0  0  0
  9 14  1  0  0  0  0
  9 35  1  0  0  0  0
 10  1  1  0  0  0  0
 11 16  1  0  0  0  0
 11 28  1  0  0  0  0
 11 26  1  6  0  0  0
 12 17  1  0  0  0  0
 12 34  1  0  0  0  0
 12 13  1  1  0  0  0
 14 15  1  6  0  0  0
 14 19  1  0  0  0  0
 16 13  1  1  0  0  0
 16 21  1  0  0  0  0
 17 18  1  1  0  0  0
 17 23  1  0  0  0  0
 18  8  1  0  0  0  0
 19 20  1  1  0  0  0
 19 25  1  0  0  0  0
 20  5  1  0  0  0  0
 21  3  1  6  0  0  0
 21 22  1  0  0  0  0
 21 27  1  0  0  0  0
 23 24  1  6  0  0  0
 23 29  1  0  0  0  0
 25 26  1  6  0  0  0
 25 31  1  0  0  0  0
 27  7  1  1  0  0  0
 27 28  1  0  0  0  0
 29 30  1  1  0  0  0
 29 33  1  0  0  0  0
 31 32  1  1  0  0  0
 31 35  1  0  0  0  0
 33 34  1  0  0  0  0
 33 37  1  6  0  0  0
 35 36  1  6  0  0  0
 37 38  1  0  0  0  0
M  END
>  <CHROM.1>
-114.55271450,109.42956280,179.07092037,159.20740650,95.94873192,-99.85958780
114.68400441,98.18128554,-76.10524638,-129.44194027,67.63277258,2.89862792
36.53825383,-0.34250609,1.11716868,0.00729391,0.12054876

>  <Name>
1nta_lig

>  <RI>
0

>  <Rbt.Current_Directory>
/home/itssahil/PROJECTS/Mol_Feturizer/New_Systems/rnas/1nta

>  <Rbt.Executable>
rbdock ($Id: //depot/dev/client3/rdock/2013.1/src/exe/rbdock.cxx#4 $)

>  <Rbt.Library>
libRbt.so (2013.1, Build901 2013/11/27)

>  <Rbt.Parameter_File>
/export/apps/rDock/src/rDock_2013.1_src/data/scripts/dock_solv.prm

>  <Rbt.Receptor>
prm/pocket_docking_7.prm

>  <SCORE>
-27.1673

>  <SCORE.INTER>
-7.84726

>  <SCORE.INTER.CONST>
1

>  <SCORE.INTER.POLAR>
-0.8

>  <SCORE.INTER.ROT>
11

>  <SCORE.INTER.SOLV>
16.6897

>  <SCORE.INTER.VDW>
-19.0614

>  <SCORE.INTER.norm>
-0.196182

>  <SCORE.INTRA>
-19.32

>  <SCORE.INTRA.DIHEDRAL>
-0.17263

>  <SCORE.INTRA.DIHEDRAL.0>
19.0336

>  <SCORE.INTRA.POLAR>
0

>  <SCORE.INTRA.POLAR.0>
0

>  <SCORE.INTRA.REPUL>
0

>  <SCORE.INTRA.REPUL.0>
0

>  <SCORE.INTRA.SOLV>
-2.05559

>  <SCORE.INTRA.SOLV.lig_0>
-97.5861

>  <SCORE.INTRA.VDW>
-18.2059

>  <SCORE.INTRA.VDW.0>
11.7669

>  <SCORE.INTRA.norm>
-0.483001

>  <SCORE.RESTR>
0

>  <SCORE.RESTR.CAVITY>
0

>  <SCORE.RESTR.norm>
0

>  <SCORE.SYSTEM>
0

>  <SCORE.SYSTEM.CONST>
0

>  <SCORE.SYSTEM.DIHEDRAL>
0

>  <SCORE.SYSTEM.SOLV>
0

>  <SCORE.SYSTEM.norm>
0

>  <SCORE.heavy>
40

>  <SCORE.norm>
-0.679182

>  <RMSD>
6.222

$$$$
1nta_lig
 OpenBabel11021811403D
libRbt.so/2013.1/901 2013/11/27
 40 42  0  0  0  0  0  0  0  0999 V2000
   -1.2107   37.7598    4.5443 C   0  0  0  0  0  0  0  0  0  0  0  0
   -2.3495   37.3563    4.9689 N   0  0  0  0  0  0  0  0  0  0  0  0
    0.6786   35.2499   -4.1316 C   0  0  0  0  0  0  0  0  0  0  0  0
    1.7451   35.5009   -3.6149 O   0  0  0  0  0  0  0  0  0  0  0  0
    3.1207   35.7102    0.0387 C   0  0  0  0  0  0  0  0  0  0  0  0
    3.5646   34.4966   -0.1615 N   0  0  0  0  0  0  0  0  0  0  0  0
    0.9278   31.9355   -4.2506 C   0  0  0  0  0  0  0  0  0  0  0  0
   -4.4772   34.7103   -6.1214 C   0  0  0  0  0  0  0  0  0  0  0  0
   -0.6524   36.6880    2.5096 C   0  0  2  0  0  0  0  0  0  0  0  0
   -1.1194   37.9352    3.2345 N   0  0  0  0  0  0  0  0  0  0  0  0
   -0.8477   33.5285   -1.5673 C   0  0  2  0  0  0  0  0  0  0  0  0
   -2.6705   35.7884   -3.7134 C   0  0  1  0  0  0  0  0  0  0  0  0
   -2.3935   34.7814   -2.8042 O   0  0  0  0  0  0  0  0  0  0  0  0
    0.4272   37.0519    1.4727 C   0  0  1  0  0  0  0  0  0  0  0  0
    1.5184   37.5628    2.1773 O   0  0  0  0  0  0  0  0  0  0  0  0
   -1.0960   34.6053   -2.6180 C   0  0  2  0  0  0  0  0  0  0  0  0
   -4.1134   35.8801   -4.1588 C   0  0  1  0  0  0  0  0  0  0  0  0
   -4.5127   34.6153   -4.6717 N   0  0  0  0  0  0  0  0  0  0  0  0
    0.9214   35.8279    0.6901 C   0  0  2  0  0  0  0  0  0  0  0  0
    1.9590   36.1423   -0.3211 N   0  0  0  0  0  0  0  0  0  0  0  0
   -0.2403   34.1340   -3.7118 C   0  0  1  0  0  0  0  0  0  0  0  0
   -1.1011   33.7176   -4.7737 O   0  0  0  0  0  0  0  0  0  0  0  0
   -4.9431   36.2188   -3.0991 C   0  0  2  0  0  0  0  0  0  0  0  0
   -6.1937   36.5727   -3.6338 O   0  0  0  0  0  0  0  0  0  0  0  0
   -0.2758   35.1974   -0.0035 C   0  0  1  0  0  0  0  0  0  0  0  0
    0.1861   34.0645   -0.7225 O   0  0  0  0  0  0  0  0  0  0  0  0
    0.5198   32.9676   -3.2455 C   0  0  1  0  0  0  0  0  0  0  0  0
   -0.2971   32.4097   -2.2235 O   0  0  0  0  0  0  0  0  0  0  0  0
   -4.3725   37.3874   -2.3393 C   0  0  1  0  0  0  0  0  0  0  0  0
   -5.0906   37.5511   -1.1519 O   0  0  0  0  0  0  0  0  0  0  0  0
   -1.3495   34.7879    1.0445 C   0  0  2  0  0  0  0  0  0  0  0  0
   -2.4588   34.1894    0.3761 O   0  0  0  0  0  0  0  0  0  0  0  0
   -2.9485   37.1156   -1.9917 C   0  0  1  0  0  0  0  0  0  0  0  0
   -2.2390   36.9574   -3.1863 O   0  0  0  0  0  0  0  0  0  0  0  0
   -1.8260   36.0453    1.8013 C   0  0  1  0  0  0  0  0  0  0  0  0
   -2.8205   35.6875    2.7749 O   0  0  0  0  0  0  0  0  0  0  0  0
   -2.3218   38.2997   -1.2291 C   0  0  0  0  0  0  0  0  0  0  0  0
   -0.9500   38.0193   -0.9751 O   0  0  0  0  0  0  0  0  0  0  0  0
   -0.2153   37.9772    5.3344 N   0  0  0  0  0  0  0  0  0  0  0  0
    3.8495   36.5575    0.6530 N   0  0  0  0  0  0  0  0  0  0  0  0
  1  2  1  0  0  0  0
  1 39  1  0  0  0  0
  3  4  1  0  0  0  0
  5  6  1  0  0  0  0
  5 40  1  0  0  0  0
  9 10  1  6  0  0  0
  9 14  1  0  0  0  0
  9 35  1  0  0  0  0
 10  1  1  0  0  0  0
 11 16  1  0  0  0  0
 11 28  1  0  0  0  0
 11 26  1  1  0  0  0
 12 17  1  0  0  0  0
 12 34  1  0  0  0  0
 12 13  1  1  0  0  0
 14 15  1  1  0  0  0
 14 19  1  0  0  0  0
 16 13  1  6  0  0  0
 16 21  1  0  0  0  0
 17 18  1  1  0  0  0
 17 23  1  0  0  0  0
 18  8  1  0  0  0  0
 19 20  1  6  0  0  0
 19 25  1  0  0  0  0
 20  5  1  0  0  0  0
 21  3  1  6  0  0  0
 21 22  1  0  0  0  0
 21 27  1  0  0  0  0
 23 24  1  6  0  0  0
 23 29  1  0  0  0  0
 25 26  1  1  0  0  0
 25 31  1  0  0  0  0
 27  7  1  6  0  0  0
 27 28  1  0  0  0  0
 29 30  1  1  0  0  0
 29 33  1  0  0  0  0
 31 32  1  6  0  0  0
 31 35  1  0  0  0  0
 33 34  1  0  0  0  0
 33 37  1  6  0  0  0
 35 36  1  1  0  0  0
 37 38  1  0  0  0  0
M  END
>  <CHROM.1>
-134.99793751,-90.50440951,66.37474302,169.59231418,177.62108300,-101.46994785
108.20837477,85.00339139,85.75007287,-171.33772407,-177.33112431,-1.16425753
35.71399568,-1.00569466,1.17212875,-0.31368263,1.16015729

>  <Name>
1nta_lig

>  <RI>
0

>  <Rbt.Current_Directory>
/home/itssahil/PROJECTS/Mol_Feturizer/New_Systems/rnas/1nta

>  <Rbt.Executable>
rbdock ($Id: //depot/dev/client3/rdock/2013.1/src/exe/rbdock.cxx#4 $)

>  <Rbt.Library>
libRbt.so (2013.1, Build901 2013/11/27)

>  <Rbt.Parameter_File>
/export/apps/rDock/src/rDock_2013.1_src/data/scripts/dock_solv.prm

>  <Rbt.Receptor>
prm/pocket_docking_6.prm

>  <SCORE>
-18.4523

>  <SCORE.INTER>
5.70838

>  <SCORE.INTER.CONST>
1

>  <SCORE.INTER.POLAR>
-0.824621

>  <SCORE.INTER.ROT>
11

>  <SCORE.INTER.SOLV>
8.19936

>  <SCORE.INTER.VDW>
-7.11213

>  <SCORE.INTER.norm>
0.14271

>  <SCORE.INTRA>
-24.1607

>  <SCORE.INTRA.DIHEDRAL>
-11.4614

>  <SCORE.INTRA.DIHEDRAL.0>
19.0336

>  <SCORE.INTRA.POLAR>
0

>  <SCORE.INTRA.POLAR.0>
0

>  <SCORE.INTRA.REPUL>
0.0202664

>  <SCORE.INTRA.REPUL.0>
0

>  <SCORE.INTRA.SOLV>
-2.6416

>  <SCORE.INTRA.SOLV.lig_0>
-97.5861

>  <SCORE.INTRA.VDW>
-17.2105

>  <SCORE.INTRA.VDW.0>
11.7669

>  <SCORE.INTRA.norm>
-0.604018

>  <SCORE.RESTR>
0

>  <SCORE.RESTR.CAVITY>
0

>  <SCORE.RESTR.norm>
0

>  <SCORE.SYSTEM>
0

>  <SCORE.SYSTEM.CONST>
0

>  <SCORE.SYSTEM.DIHEDRAL>
0

>  <SCORE.SYSTEM.SOLV>
0

>  <SCORE.SYSTEM.norm>
0

>  <SCORE.heavy>
40

>  <SCORE.norm>
-0.461308

>  <RMSD>
6.227

$$$$
1nta_lig
 OpenBabel11021811403D
libRbt.so/2013.1/901 2013/11/27
 40 42  0  0  0  0  0  0  0  0999 V2000
    3.6729   42.7741   -1.0617 C   0  0  0  0  0  0  0  0  0  0  0  0
    2.7758   43.6198   -0.7152 N   0  0  0  0  0  0  0  0  0  0  0  0
    3.6324   33.7525   -1.8407 C   0  0  0  0  0  0  0  0  0  0  0  0
    4.1950   32.7148   -2.1123 O   0  0  0  0  0  0  0  0  0  0  0  0
    5.6380   36.9958    0.6064 C   0  0  0  0  0  0  0  0  0  0  0  0
    6.3800   37.9217    1.1559 N   0  0  0  0  0  0  0  0  0  0  0  0
    2.0437   32.3137    0.7023 C   0  0  0  0  0  0  0  0  0  0  0  0
    0.1675   32.0362   -4.7352 C   0  0  0  0  0  0  0  0  0  0  0  0
    2.9916   40.5169   -0.8591 C   0  0  2  0  0  0  0  0  0  0  0  0
    3.2358   41.7250   -1.7421 N   0  0  0  0  0  0  0  0  0  0  0  0
    1.2289   35.6682   -0.2846 C   0  0  2  0  0  0  0  0  0  0  0  0
    1.1218   35.0041   -3.8291 C   0  0  1  0  0  0  0  0  0  0  0  0
    0.7124   35.3028   -2.5404 O   0  0  0  0  0  0  0  0  0  0  0  0
    4.0866   39.4593   -1.0949 C   0  0  1  0  0  0  0  0  0  0  0  0
    5.2993   40.0287   -0.7035 O   0  0  0  0  0  0  0  0  0  0  0  0
    1.6863   35.1786   -1.6544 C   0  0  2  0  0  0  0  0  0  0  0  0
    0.0773   34.3478   -4.7049 C   0  0  1  0  0  0  0  0  0  0  0  0
   -0.4017   33.1821   -4.0462 N   0  0  0  0  0  0  0  0  0  0  0  0
    3.8765   38.2010   -0.2421 C   0  0  2  0  0  0  0  0  0  0  0  0
    4.9107   37.1586   -0.4473 N   0  0  0  0  0  0  0  0  0  0  0  0
    2.2257   33.8576   -1.3154 C   0  0  1  0  0  0  0  0  0  0  0  0
    1.3589   32.8835   -1.9001 O   0  0  0  0  0  0  0  0  0  0  0  0
   -0.9895   35.2043   -4.9378 C   0  0  2  0  0  0  0  0  0  0  0  0
   -1.7586   34.6535   -5.9771 O   0  0  0  0  0  0  0  0  0  0  0  0
    2.5120   37.6232   -0.5830 C   0  0  1  0  0  0  0  0  0  0  0  0
    2.3214   36.4624    0.2106 O   0  0  0  0  0  0  0  0  0  0  0  0
    2.1903   33.6950    0.1433 C   0  0  1  0  0  0  0  0  0  0  0  0
    1.1281   34.5444    0.5594 O   0  0  0  0  0  0  0  0  0  0  0  0
   -0.4898   36.5644   -5.3488 C   0  0  1  0  0  0  0  0  0  0  0  0
   -1.5602   37.4625   -5.3416 O   0  0  0  0  0  0  0  0  0  0  0  0
    1.3992   38.6732   -0.3040 C   0  0  2  0  0  0  0  0  0  0  0  0
    0.1271   38.1096   -0.6196 O   0  0  0  0  0  0  0  0  0  0  0  0
    0.5297   37.0431   -4.3721 C   0  0  1  0  0  0  0  0  0  0  0  0
    1.5970   36.1399   -4.3902 O   0  0  0  0  0  0  0  0  0  0  0  0
    1.6409   39.9161   -1.1859 C   0  0  1  0  0  0  0  0  0  0  0  0
    0.6212   40.8990   -0.9431 O   0  0  0  0  0  0  0  0  0  0  0  0
    1.0812   38.4265   -4.7702 C   0  0  0  0  0  0  0  0  0  0  0  0
    2.0383   38.8445   -3.8036 O   0  0  0  0  0  0  0  0  0  0  0  0
    4.9185   42.9268   -0.7661 N   0  0  0  0  0  0  0  0  0  0  0  0
    5.6197   35.8215    1.1033 N   0  0  0  0  0  0  0  0  0  0  0  0
  1  2  1  0  0  0  0
  1 39  1  0  0  0  0
  3  4  1  0  0  0  0
  5  6  1  0  0  0  0
  5 40  1  0  0  0  0
  9 10  1  6  0  0  0
  9 14  1  0  0  0  0
  9 35  1  0  0  0  0
 10  1  1  0  0  0  0
 11 16  1  0  0  0  0
 11 28  1  0  0  0  0
 11 26  1  1  0  0  0
 12 17  1  0  0  0  0
 12 34  1  0  0  0  0
 12 13  1  1  0  0  0
 14 15  1  1  0  0  0
 14 19  1  0  0  0  0
 16 13  1  6  0  0  0
 16 21  1  0  0  0  0
 17 18  1  1  0  0  0
 17 23  1  0  0  0  0
 18  8  1  0  0  0  0
 19 20  1  6  0  0  0
 19 25  1  0  0  0  0
 20  5  1  0  0  0  0
 21  3  1  6  0  0  0
 21 22  1  0  0  0  0
 21 27  1  0  0  0  0
 23 24  1  6  0  0  0
 23 29  1  0  0  0  0
 25 26  1  1  0  0  0
 25 31  1  0  0  0  0
 27  7  1  6  0  0  0
 27 28  1  0  0  0  0
 29 30  1  1  0  0  0
 29 33  1  0  0  0  0
 31 32  1  6  0  0  0
 31 35  1  0  0  0  0
 33 34  1  0  0  0  0
 33 37  1  6  0  0  0
 35 36  1  1  0  0  0
 37 38  1  0  0  0  0
M  END
>  <CHROM.1>
-107.14965470,-96.19397479,65.51287896,145.89991486,173.60031925,-106.14855599
112.90320111,-60.77924416,-155.26257138,-165.11081264,179.45689123,2.06432905
36.90635421,-1.88821114,0.92475940,-0.81549528,-0.09047463

>  <Name>
1nta_lig

>  <RI>
0

>  <Rbt.Current_Directory>
/home/itssahil/PROJECTS/Mol_Feturizer/New_Systems/rnas/1nta

>  <Rbt.Executable>
rbdock ($Id: //depot/dev/client3/rdock/2013.1/src/exe/rbdock.cxx#4 $)

>  <Rbt.Library>
libRbt.so (2013.1, Build901 2013/11/27)

>  <Rbt.Parameter_File>
/export/apps/rDock/src/rDock_2013.1_src/data/scripts/dock_solv.prm

>  <Rbt.Receptor>
prm/pocket_docking_6.prm

>  <SCORE>
-31.1541

>  <SCORE.INTER>
-8.59323

>  <SCORE.INTER.CONST>
1

>  <SCORE.INTER.POLAR>
-1.28386

>  <SCORE.INTER.ROT>
11

>  <SCORE.INTER.SOLV>
16.3665

>  <SCORE.INTER.VDW>
-17.8381

>  <SCORE.INTER.norm>
-0.214831

>  <SCORE.INTRA>
-22.5609

>  <SCORE.INTRA.DIHEDRAL>
-6.76356

>  <SCORE.INTRA.DIHEDRAL.0>
19.0336

>  <SCORE.INTRA.POLAR>
0

>  <SCORE.INTRA.POLAR.0>
0

>  <SCORE.INTRA.REPUL>
0.00919677

>  <SCORE.INTRA.REPUL.0>
0

>  <SCORE.INTRA.SOLV>
-2.58384

>  <SCORE.INTRA.SOLV.lig_0>
-97.5861

>  <SCORE.INTRA.VDW>
-17.9331

>  <SCORE.INTRA.VDW.0>
11.7669

>  <SCORE.INTRA.norm>
-0.564021

>  <SCORE.RESTR>
0

>  <SCORE.RESTR.CAVITY>
0

>  <SCORE.RESTR.norm>
0

>  <SCORE.SYSTEM>
0

>  <SCORE.SYSTEM.CONST>
0

>  <SCORE.SYSTEM.DIHEDRAL>
0

>  <SCORE.SYSTEM.SOLV>
0

>  <SCORE.SYSTEM.norm>
0

>  <SCORE.heavy>
40

>  <SCORE.norm>
-0.778852

>  <RMSD>
6.247

$$$$
1nta_lig
 OpenBabel11021811403D
libRbt.so/2013.1/901 2013/11/27
 40 42  0  0  0  0  0  0  0  0999 V2000
    3.4023   42.8368   -0.3196 C   0  0  0  0  0  0  0  0  0  0  0  0
    2.4207   43.6318   -0.1086 N   0  0  0  0  0  0  0  0  0  0  0  0
    3.6440   33.6833   -1.7404 C   0  0  0  0  0  0  0  0  0  0  0  0
    4.1815   32.6447   -2.0562 O   0  0  0  0  0  0  0  0  0  0  0  0
    5.6774   36.9100    0.6563 C   0  0  0  0  0  0  0  0  0  0  0  0
    6.4202   37.8006    1.2603 N   0  0  0  0  0  0  0  0  0  0  0  0
    1.9658   32.2166    0.7282 C   0  0  0  0  0  0  0  0  0  0  0  0
    0.4063   32.1763   -4.7529 C   0  0  0  0  0  0  0  0  0  0  0  0
    2.9408   40.5159   -0.3440 C   0  0  2  0  0  0  0  0  0  0  0  0
    3.1430   41.8075   -1.1119 N   0  0  0  0  0  0  0  0  0  0  0  0
    1.2415   35.6096   -0.1958 C   0  0  2  0  0  0  0  0  0  0  0  0
    1.2209   35.0813   -3.7619 C   0  0  1  0  0  0  0  0  0  0  0  0
    0.7729   35.3088   -2.4715 O   0  0  0  0  0  0  0  0  0  0  0  0
    4.0319   39.4974   -0.7253 C   0  0  1  0  0  0  0  0  0  0  0  0
    5.2557   40.0372   -0.3265 O   0  0  0  0  0  0  0  0  0  0  0  0
    1.7224   35.1437   -1.5658 C   0  0  2  0  0  0  0  0  0  0  0  0
    0.2018   34.4804   -4.7049 C   0  0  1  0  0  0  0  0  0  0  0  0
   -0.3007   33.2817   -4.1280 N   0  0  0  0  0  0  0  0  0  0  0  0
    3.8629   38.1592    0.0063 C   0  0  2  0  0  0  0  0  0  0  0  0
    4.8943   37.1523   -0.3406 N   0  0  0  0  0  0  0  0  0  0  0  0
    2.2273   33.8043   -1.2464 C   0  0  1  0  0  0  0  0  0  0  0  0
    1.3559   32.8622   -1.8751 O   0  0  0  0  0  0  0  0  0  0  0  0
   -0.8549   35.3537   -4.9214 C   0  0  2  0  0  0  0  0  0  0  0  0
   -1.5933   34.8660   -6.0131 O   0  0  0  0  0  0  0  0  0  0  0  0
    2.4895   37.6046   -0.3371 C   0  0  1  0  0  0  0  0  0  0  0  0
    2.3371   36.3693    0.3445 O   0  0  0  0  0  0  0  0  0  0  0  0
    2.1532   33.6076    0.2067 C   0  0  1  0  0  0  0  0  0  0  0  0
    1.0981   34.4681    0.6179 O   0  0  0  0  0  0  0  0  0  0  0  0
   -0.3387   36.7324   -5.2394 C   0  0  1  0  0  0  0  0  0  0  0  0
   -1.4062   37.6337   -5.2141 O   0  0  0  0  0  0  0  0  0  0  0  0
    1.3823   38.6111    0.0871 C   0  0  2  0  0  0  0  0  0  0  0  0
    0.1022   38.0690   -0.2334 O   0  0  0  0  0  0  0  0  0  0  0  0
    0.6517   37.1505   -4.2066 C   0  0  1  0  0  0  0  0  0  0  0  0
    1.7164   36.2447   -4.2432 O   0  0  0  0  0  0  0  0  0  0  0  0
    1.5819   39.9371   -0.6763 C   0  0  1  0  0  0  0  0  0  0  0  0
    0.5668   40.8813   -0.2983 O   0  0  0  0  0  0  0  0  0  0  0  0
    1.2192   38.5515   -4.5088 C   0  0  0  0  0  0  0  0  0  0  0  0
    2.0515   38.9619   -3.4299 O   0  0  0  0  0  0  0  0  0  0  0  0
    4.5655   43.0192    0.2059 N   0  0  0  0  0  0  0  0  0  0  0  0
    5.7160   35.6924    1.0337 N   0  0  0  0  0  0  0  0  0  0  0  0
  1  2  1  0  0  0  0
  1 39  1  0  0  0  0
  3  4  1  0  0  0  0
  5  6  1  0  0  0  0
  5 40  1  0  0  0  0
  9 10  1  6  0  0  0
  9 14  1  0  0  0  0
  9 35  1  0  0  0  0
 10  1  1  0  0  0  0
 11 16  1  0  0  0  0
 11 28  1  0  0  0  0
 11 26  1  1  0  0  0
 12 17  1  0  0  0  0
 12 34  1  0  0  0  0
 12 13  1  1  0  0  0
 14 15  1  1  0  0  0
 14 19  1  0  0  0  0
 16 13  1  6  0  0  0
 16 21  1  0  0  0  0
 17 18  1  1  0  0  0
 17 23  1  0  0  0  0
 18  8  1  0  0  0  0
 19 20  1  6  0  0  0
 19 25  1  0  0  0  0
 20  5  1  0  0  0  0
 21  3  1  6  0  0  0
 21 22  1  0  0  0  0
 21 27  1  0  0  0  0
 23 24  1  6  0  0  0
 23 29  1  0  0  0  0
 25 26  1  1  0  0  0
 25 31  1  0  0  0  0
 27  7  1  6  0  0  0
 27 28  1  0  0  0  0
 29 30  1  1  0  0  0
 29 33  1  0  0  0  0
 31 32  1  6  0  0  0
 31 35  1  0  0  0  0
 33 34  1  0  0  0  0
 33 37  1  6  0  0  0
 35 36  1  1  0  0  0
 37 38  1  0  0  0  0
M  END
>  <CHROM.1>
-116.80697844,-102.28861761,71.02703187,146.55721234,171.33024557,-99.41408213
111.82440796,-59.44502009,-153.27398212,-164.35816704,174.11294734,2.07256114
36.92534499,-1.67115726,0.99166378,-0.83485433,0.01071089

>  <Name>
1nta_lig

>  <RI>
0

>  <Rbt.Current_Directory>
/home/itssahil/PROJECTS/Mol_Feturizer/New_Systems/rnas/1nta

>  <Rbt.Executable>
rbdock ($Id: //depot/dev/client3/rdock/2013.1/src/exe/rbdock.cxx#4 $)

>  <Rbt.Library>
libRbt.so (2013.1, Build901 2013/11/27)

>  <Rbt.Parameter_File>
/export/apps/rDock/src/rDock_2013.1_src/data/scripts/dock_solv.prm

>  <Rbt.Receptor>
prm/pocket_docking_7.prm

>  <SCORE>
-31.1152

>  <SCORE.INTER>
-8.36788

>  <SCORE.INTER.CONST>
1

>  <SCORE.INTER.POLAR>
-1.22707

>  <SCORE.INTER.ROT>
11

>  <SCORE.INTER.SOLV>
16.0665

>  <SCORE.INTER.VDW>
-17.7772

>  <SCORE.INTER.norm>
-0.209197

>  <SCORE.INTRA>
-22.7473

>  <SCORE.INTRA.DIHEDRAL>
-5.93386

>  <SCORE.INTRA.DIHEDRAL.0>
19.0336

>  <SCORE.INTRA.POLAR>
0

>  <SCORE.INTRA.POLAR.0>
0

>  <SCORE.INTRA.REPUL>
0

>  <SCORE.INTRA.REPUL.0>
0

>  <SCORE.INTRA.SOLV>
-2.84309

>  <SCORE.INTRA.SOLV.lig_0>
-97.5861

>  <SCORE.INTRA.VDW>
-18.3589

>  <SCORE.INTRA.VDW.0>
11.7669

>  <SCORE.INTRA.norm>
-0.568684

>  <SCORE.RESTR>
0

>  <SCORE.RESTR.CAVITY>
0

>  <SCORE.RESTR.norm>
0

>  <SCORE.SYSTEM>
0

>  <SCORE.SYSTEM.CONST>
0

>  <SCORE.SYSTEM.DIHEDRAL>
0

>  <SCORE.SYSTEM.SOLV>
0

>  <SCORE.SYSTEM.norm>
0

>  <SCORE.heavy>
40

>  <SCORE.norm>
-0.77788

>  <RMSD>
6.272

$$$$
1nta_lig
 OpenBabel11021811403D
libRbt.so/2013.1/901 2013/11/27
 40 42  0  0  0  0  0  0  0  0999 V2000
   -2.1938   31.6315   -5.0212 C   0  0  0  0  0  0  0  0  0  0  0  0
   -3.3372   32.2082   -5.0177 N   0  0  0  0  0  0  0  0  0  0  0  0
    1.8915   35.2755    0.7290 C   0  0  0  0  0  0  0  0  0  0  0  0
    2.7463   35.2237    1.5857 O   0  0  0  0  0  0  0  0  0  0  0  0
    3.5150   33.3943   -2.8058 C   0  0  0  0  0  0  0  0  0  0  0  0
    3.9554   34.5070   -3.3328 N   0  0  0  0  0  0  0  0  0  0  0  0
    3.3953   38.1614    0.0423 C   0  0  0  0  0  0  0  0  0  0  0  0
   -2.5492   38.0542    2.5721 C   0  0  0  0  0  0  0  0  0  0  0  0
   -0.3815   33.0737   -5.5073 C   0  0  2  0  0  0  0  0  0  0  0  0
   -1.3627   32.0177   -5.9776 N   0  0  0  0  0  0  0  0  0  0  0  0
    0.9191   36.8272   -2.1890 C   0  0  2  0  0  0  0  0  0  0  0  0
   -1.4599   35.9499    0.3779 C   0  0  1  0  0  0  0  0  0  0  0  0
   -0.8731   36.5945   -0.6981 O   0  0  0  0  0  0  0  0  0  0  0  0
    0.4543   32.5331   -4.3317 C   0  0  1  0  0  0  0  0  0  0  0  0
    1.1964   31.4549   -4.8162 O   0  0  0  0  0  0  0  0  0  0  0  0
    0.3718   36.2018   -0.9105 C   0  0  2  0  0  0  0  0  0  0  0  0
   -2.7758   36.5334    0.8434 C   0  0  1  0  0  0  0  0  0  0  0  0
   -2.5869   37.9141    1.1260 N   0  0  0  0  0  0  0  0  0  0  0  0
    1.4511   33.5706   -3.7981 C   0  0  2  0  0  0  0  0  0  0  0  0
    2.2702   33.0853   -2.6616 N   0  0  0  0  0  0  0  0  0  0  0  0
    1.4348   36.5352    0.0433 C   0  0  1  0  0  0  0  0  0  0  0  0
    0.8942   37.4840    0.9652 O   0  0  0  0  0  0  0  0  0  0  0  0
   -3.7536   36.4029   -0.1328 C   0  0  2  0  0  0  0  0  0  0  0  0
   -4.9932   36.6861    0.4658 O   0  0  0  0  0  0  0  0  0  0  0  0
    0.6657   34.7962   -3.3588 C   0  0  1  0  0  0  0  0  0  0  0  0
    1.5922   35.7534   -2.8698 O   0  0  0  0  0  0  0  0  0  0  0  0
    2.5383   37.1727   -0.6857 C   0  0  1  0  0  0  0  0  0  0  0  0
    1.9099   37.7584   -1.8194 O   0  0  0  0  0  0  0  0  0  0  0  0
   -3.7672   34.9985   -0.6768 C   0  0  1  0  0  0  0  0  0  0  0  0
   -4.5828   34.9589   -1.8107 O   0  0  0  0  0  0  0  0  0  0  0  0
   -0.1451   35.3716   -4.5548 C   0  0  2  0  0  0  0  0  0  0  0  0
   -0.8661   36.5255   -4.1260 O   0  0  0  0  0  0  0  0  0  0  0  0
   -2.3878   34.6000   -1.0780 C   0  0  1  0  0  0  0  0  0  0  0  0
   -1.5817   34.6395    0.0639 O   0  0  0  0  0  0  0  0  0  0  0  0
   -1.1401   34.3032   -5.0546 C   0  0  1  0  0  0  0  0  0  0  0  0
   -1.9005   34.8167   -6.1605 O   0  0  0  0  0  0  0  0  0  0  0  0
   -2.3569   33.1582   -1.6224 C   0  0  0  0  0  0  0  0  0  0  0  0
   -1.0084   32.7845   -1.8812 O   0  0  0  0  0  0  0  0  0  0  0  0
   -1.8705   30.7312   -4.1568 N   0  0  0  0  0  0  0  0  0  0  0  0
    4.3439   32.5089   -2.4117 N   0  0  0  0  0  0  0  0  0  0  0  0
  1  2  1  0  0  0  0
  1 39  1  0  0  0  0
  3  4  1  0  0  0  0
  5  6  1  0  0  0  0
  5 40  1  0  0  0  0
  9 10  1  1  0  0  0
  9 14  1  0  0  0  0
  9 35  1  0  0  0  0
 10  1  1  0  0  0  0
 11 16  1  0  0  0  0
 11 28  1  0  0  0  0
 11 26  1  6  0  0  0
 12 17  1  0  0  0  0
 12 34  1  0  0  0  0
 12 13  1  6  0  0  0
 14 15  1  6  0  0  0
 14 19  1  0  0  0  0
 16 13  1  1  0  0  0
 16 21  1  0  0  0  0
 17 18  1  6  0  0  0
 17 23  1  0  0  0  0
 18  8  1  0  0  0  0
 19 20  1  1  0  0  0
 19 25  1  0  0  0  0
 20  5  1  0  0  0  0
 21  3  1  1  0  0  0
 21 22  1  0  0  0  0
 21 27  1  0  0  0  0
 23 24  1  1  0  0  0
 23 29  1  0  0  0  0
 25 26  1  6  0  0  0
 25 31  1  0  0  0  0
 27  7  1  1  0  0  0
 27 28  1  0  0  0  0
 29 30  1  6  0  0  0
 29 33  1  0  0  0  0
 31 32  1  1  0  0  0
 31 35  1  0  0  0  0
 33 34  1  0  0  0  0
 33 37  1  1  0  0  0
 35 36  1  6  0  0  0
 37 38  1  0  0  0  0
M  END
>  <CHROM.1>
59.09709756,96.71327922,69.50512477,168.68217663,173.94089562,-104.48404137
134.93041163,36.37762548,-178.89998406,-168.36174795,-174.97794929,-0.31940733
34.93310091,-1.98907341,1.47012031,-0.04236824,-2.24955610

>  <Name>
1nta_lig

>  <RI>
0

>  <Rbt.Current_Directory>
/home/itssahil/PROJECTS/Mol_Feturizer/New_Systems/rnas/1nta

>  <Rbt.Executable>
rbdock ($Id: //depot/dev/client3/rdock/2013.1/src/exe/rbdock.cxx#4 $)

>  <Rbt.Library>
libRbt.so (2013.1, Build901 2013/11/27)

>  <Rbt.Parameter_File>
/export/apps/rDock/src/rDock_2013.1_src/data/scripts/dock_solv.prm

>  <Rbt.Receptor>
prm/pocket_docking_5.prm

>  <SCORE>
-19.7427

>  <SCORE.INTER>
2.55801

>  <SCORE.INTER.CONST>
1

>  <SCORE.INTER.POLAR>
-1.24333

>  <SCORE.INTER.ROT>
11

>  <SCORE.INTER.SOLV>
16.1964

>  <SCORE.INTER.VDW>
-10.4824

>  <SCORE.INTER.norm>
0.0639502

>  <SCORE.INTRA>
-22.3007

>  <SCORE.INTRA.DIHEDRAL>
-13.6113

>  <SCORE.INTRA.DIHEDRAL.0>
19.0336

>  <SCORE.INTRA.POLAR>
0

>  <SCORE.INTRA.POLAR.0>
0

>  <SCORE.INTRA.REPUL>
0

>  <SCORE.INTRA.REPUL.0>
0

>  <SCORE.INTRA.SOLV>
1.69978

>  <SCORE.INTRA.SOLV.lig_0>
-97.5861

>  <SCORE.INTRA.VDW>
-16.3449

>  <SCORE.INTRA.VDW.0>
11.7669

>  <SCORE.INTRA.norm>
-0.557516

>  <SCORE.RESTR>
0

>  <SCORE.RESTR.CAVITY>
0

>  <SCORE.RESTR.norm>
0

>  <SCORE.SYSTEM>
0

>  <SCORE.SYSTEM.CONST>
0

>  <SCORE.SYSTEM.DIHEDRAL>
0

>  <SCORE.SYSTEM.SOLV>
0

>  <SCORE.SYSTEM.norm>
0

>  <SCORE.heavy>
40

>  <SCORE.norm>
-0.493566

>  <RMSD>
6.341

$$$$
1nta_lig
 OpenBabel11021811403D
libRbt.so/2013.1/901 2013/11/27
 40 42  0  0  0  0  0  0  0  0999 V2000
    5.5330   42.7809   -0.4300 C   0  0  0  0  0  0  0  0  0  0  0  0
    5.6358   43.2434    0.7598 N   0  0  0  0  0  0  0  0  0  0  0  0
   -1.2645   36.0807   -1.3592 C   0  0  0  0  0  0  0  0  0  0  0  0
   -0.9540   35.2745   -0.5102 O   0  0  0  0  0  0  0  0  0  0  0  0
    0.2878   39.1136    0.7873 C   0  0  0  0  0  0  0  0  0  0  0  0
   -0.9033   39.4388    0.3569 N   0  0  0  0  0  0  0  0  0  0  0  0
   -2.5252   36.8656   -4.3351 C   0  0  0  0  0  0  0  0  0  0  0  0
    0.9004   32.0186   -3.5623 C   0  0  0  0  0  0  0  0  0  0  0  0
    3.9611   41.1359   -1.0810 C   0  0  2  0  0  0  0  0  0  0  0  0
    5.3279   41.4753   -0.5191 N   0  0  0  0  0  0  0  0  0  0  0  0
    0.8890   37.6467   -3.5452 C   0  0  2  0  0  0  0  0  0  0  0  0
    1.6854   34.4549   -2.0653 C   0  0  1  0  0  0  0  0  0  0  0  0
    1.6578   35.5128   -2.9584 O   0  0  0  0  0  0  0  0  0  0  0  0
    3.2860   40.0563   -0.2141 C   0  0  1  0  0  0  0  0  0  0  0  0
    3.0950   40.6071    1.0540 O   0  0  0  0  0  0  0  0  0  0  0  0
    0.7622   36.4304   -2.6343 C   0  0  2  0  0  0  0  0  0  0  0  0
    2.5245   33.2700   -2.4903 C   0  0  1  0  0  0  0  0  0  0  0  0
    2.0838   32.8361   -3.7708 N   0  0  0  0  0  0  0  0  0  0  0  0
    1.9053   39.6556   -0.7507 C   0  0  2  0  0  0  0  0  0  0  0  0
    1.2277   38.6136    0.0576 N   0  0  0  0  0  0  0  0  0  0  0  0
   -0.6726   36.1466   -2.7416 C   0  0  1  0  0  0  0  0  0  0  0  0
   -0.8082   34.9098   -3.4446 O   0  0  0  0  0  0  0  0  0  0  0  0
    3.8676   33.6108   -2.5677 C   0  0  2  0  0  0  0  0  0  0  0  0
    4.6040   32.4183   -2.6716 O   0  0  0  0  0  0  0  0  0  0  0  0
    2.0818   39.1469   -2.1727 C   0  0  1  0  0  0  0  0  0  0  0  0
    0.8022   38.7813   -2.6650 O   0  0  0  0  0  0  0  0  0  0  0  0
   -1.3034   37.2057   -3.5392 C   0  0  1  0  0  0  0  0  0  0  0  0
   -0.2528   37.6839   -4.3701 O   0  0  0  0  0  0  0  0  0  0  0  0
    4.2913   34.3569   -1.3298 C   0  0  1  0  0  0  0  0  0  0  0  0
    5.5653   34.8924   -1.5364 O   0  0  0  0  0  0  0  0  0  0  0  0
    2.7226   40.2502   -3.0620 C   0  0  2  0  0  0  0  0  0  0  0  0
    2.8703   39.7583   -4.3930 O   0  0  0  0  0  0  0  0  0  0  0  0
    3.3471   35.4811   -1.0710 C   0  0  1  0  0  0  0  0  0  0  0  0
    2.0772   34.9341   -0.8622 O   0  0  0  0  0  0  0  0  0  0  0  0
    4.1102   40.6171   -2.4954 C   0  0  1  0  0  0  0  0  0  0  0  0
    4.7198   41.6358   -3.3050 O   0  0  0  0  0  0  0  0  0  0  0  0
    3.7364   36.2584    0.2020 C   0  0  0  0  0  0  0  0  0  0  0  0
    3.6943   35.3778    1.3191 O   0  0  0  0  0  0  0  0  0  0  0  0
    5.6271   43.5311   -1.4743 N   0  0  0  0  0  0  0  0  0  0  0  0
    0.5948   39.3097    2.0095 N   0  0  0  0  0  0  0  0  0  0  0  0
  1  2  1  0  0  0  0
  1 39  1  0  0  0  0
  3  4  1  0  0  0  0
  5  6  1  0  0  0  0
  5 40  1  0  0  0  0
  9 10  1  1  0  0  0
  9 14  1  0  0  0  0
  9 35  1  0  0  0  0
 10  1  1  0  0  0  0
 11 16  1  0  0  0  0
 11 28  1  0  0  0  0
 11 26  1  1  0  0  0
 12 17  1  0  0  0  0
 12 34  1  0  0  0  0
 12 13  1  6  0  0  0
 14 15  1  1  0  0  0
 14 19  1  0  0  0  0
 16 13  1  6  0  0  0
 16 21  1  0  0  0  0
 17 18  1  6  0  0  0
 17 23  1  0  0  0  0
 18  8  1  0  0  0  0
 19 20  1  1  0  0  0
 19 25  1  0  0  0  0
 20  5  1  0  0  0  0
 21  3  1  1  0  0  0
 21 22  1  0  0  0  0
 21 27  1  0  0  0  0
 23 24  1  1  0  0  0
 23 29  1  0  0  0  0
 25 26  1  6  0  0  0
 25 31  1  0  0  0  0
 27  7  1  6  0  0  0
 27 28  1  0  0  0  0
 29 30  1  6  0  0  0
 29 33  1  0  0  0  0
 31 32  1  6  0  0  0
 31 35  1  0  0  0  0
 33 34  1  0  0  0  0
 33 37  1  1  0  0  0
 35 36  1  6  0  0  0
 37 38  1  0  0  0  0
M  END
>  <CHROM.1>
-132.77221238,113.45986051,88.71698168,170.66415036,173.06940124,-80.73753291
104.11109057,78.67868902,-62.35126344,-145.59851814,-60.65056281,2.16341984
37.52515152,-1.70043859,-1.18938420,0.25676186,-2.99206898

>  <Name>
1nta_lig

>  <RI>
0

>  <Rbt.Current_Directory>
/home/itssahil/PROJECTS/Mol_Feturizer/New_Systems/rnas/1nta

>  <Rbt.Executable>
rbdock ($Id: //depot/dev/client3/rdock/2013.1/src/exe/rbdock.cxx#4 $)

>  <Rbt.Library>
libRbt.so (2013.1, Build901 2013/11/27)

>  <Rbt.Parameter_File>
/export/apps/rDock/src/rDock_2013.1_src/data/scripts/dock_solv.prm

>  <Rbt.Receptor>
prm/pocket_docking_8.prm

>  <SCORE>
-30.0377

>  <SCORE.INTER>
-6.98437

>  <SCORE.INTER.CONST>
1

>  <SCORE.INTER.POLAR>
-1.30478

>  <SCORE.INTER.ROT>
11

>  <SCORE.INTER.SOLV>
13.707

>  <SCORE.INTER.VDW>
-15.8093

>  <SCORE.INTER.norm>
-0.174609

>  <SCORE.INTRA>
-23.0534

>  <SCORE.INTRA.DIHEDRAL>
-6.92566

>  <SCORE.INTRA.DIHEDRAL.0>
19.0336

>  <SCORE.INTRA.POLAR>
0

>  <SCORE.INTRA.POLAR.0>
0

>  <SCORE.INTRA.REPUL>
0

>  <SCORE.INTRA.REPUL.0>
0

>  <SCORE.INTRA.SOLV>
-2.98993

>  <SCORE.INTRA.SOLV.lig_0>
-97.5861

>  <SCORE.INTRA.VDW>
-18.0956

>  <SCORE.INTRA.VDW.0>
11.7669

>  <SCORE.INTRA.norm>
-0.576334

>  <SCORE.RESTR>
0

>  <SCORE.RESTR.CAVITY>
0

>  <SCORE.RESTR.norm>
0

>  <SCORE.SYSTEM>
0

>  <SCORE.SYSTEM.CONST>
0

>  <SCORE.SYSTEM.DIHEDRAL>
0

>  <SCORE.SYSTEM.SOLV>
0

>  <SCORE.SYSTEM.norm>
0

>  <SCORE.heavy>
40

>  <SCORE.norm>
-0.750944

>  <RMSD>
6.420

$$$$
1nta_lig
 OpenBabel11021811403D
libRbt.so/2013.1/901 2013/11/27
 40 42  0  0  0  0  0  0  0  0999 V2000
    4.2202   43.3756   -0.4061 C   0  0  0  0  0  0  0  0  0  0  0  0
    5.0943   43.6408   -1.3036 N   0  0  0  0  0  0  0  0  0  0  0  0
    5.0348   33.6716   -2.0157 C   0  0  0  0  0  0  0  0  0  0  0  0
    4.6176   32.7166   -2.6330 O   0  0  0  0  0  0  0  0  0  0  0  0
    1.0949   38.7482   -2.0582 C   0  0  0  0  0  0  0  0  0  0  0  0
    1.4301   38.2338   -3.2127 N   0  0  0  0  0  0  0  0  0  0  0  0
    6.9471   34.3170    0.6278 C   0  0  0  0  0  0  0  0  0  0  0  0
    0.6087   34.7024   -3.1538 C   0  0  0  0  0  0  0  0  0  0  0  0
    4.5388   41.0377   -0.2225 C   0  0  2  0  0  0  0  0  0  0  0  0
    4.5423   42.4041    0.4348 N   0  0  0  0  0  0  0  0  0  0  0  0
    3.7128   35.8429    0.3095 C   0  0  2  0  0  0  0  0  0  0  0  0
    1.1713   34.5446   -0.1363 C   0  0  1  0  0  0  0  0  0  0  0  0
    2.3908   33.9230    0.0736 O   0  0  0  0  0  0  0  0  0  0  0  0
    3.1069   40.4707   -0.2565 C   0  0  1  0  0  0  0  0  0  0  0  0
    2.3454   41.3245   -1.0559 O   0  0  0  0  0  0  0  0  0  0  0  0
    3.3983   34.5768   -0.4801 C   0  0  2  0  0  0  0  0  0  0  0  0
    0.2196   33.8103   -1.0549 C   0  0  1  0  0  0  0  0  0  0  0  0
    0.8786   33.5646   -2.2908 N   0  0  0  0  0  0  0  0  0  0  0  0
    3.0464   39.0752   -0.8918 C   0  0  2  0  0  0  0  0  0  0  0  0
    1.6823   38.4961   -0.9369 N   0  0  0  0  0  0  0  0  0  0  0  0
    4.7278   33.9645   -0.5715 C   0  0  1  0  0  0  0  0  0  0  0  0
    4.7032   32.7781    0.2247 O   0  0  0  0  0  0  0  0  0  0  0  0
   -0.1713   32.5980   -0.5039 C   0  0  2  0  0  0  0  0  0  0  0  0
   -1.2603   32.1212   -1.2535 O   0  0  0  0  0  0  0  0  0  0  0  0
    3.9530   38.1535   -0.0916 C   0  0  1  0  0  0  0  0  0  0  0  0
    3.8960   36.8658   -0.6853 O   0  0  0  0  0  0  0  0  0  0  0  0
    5.7124   34.8894    0.0036 C   0  0  1  0  0  0  0  0  0  0  0  0
    4.9612   35.6570    0.9360 O   0  0  0  0  0  0  0  0  0  0  0  0
   -0.5917   32.7852    0.9302 C   0  0  1  0  0  0  0  0  0  0  0  0
   -0.7467   31.5305    1.5253 O   0  0  0  0  0  0  0  0  0  0  0  0
    5.4093   38.6993   -0.0923 C   0  0  2  0  0  0  0  0  0  0  0  0
    6.2457   37.8165    0.6537 O   0  0  0  0  0  0  0  0  0  0  0  0
    0.4662   33.5281    1.6727 C   0  0  1  0  0  0  0  0  0  0  0  0
    0.6103   34.7825    1.0717 O   0  0  0  0  0  0  0  0  0  0  0  0
    5.4282   40.0967    0.5619 C   0  0  1  0  0  0  0  0  0  0  0  0
    6.7671   40.6184    0.5717 O   0  0  0  0  0  0  0  0  0  0  0  0
    0.0632   33.7576    3.1428 C   0  0  0  0  0  0  0  0  0  0  0  0
   -1.0955   34.5826    3.1870 O   0  0  0  0  0  0  0  0  0  0  0  0
    3.0982   44.0056   -0.3254 N   0  0  0  0  0  0  0  0  0  0  0  0
    0.1348   39.5850   -1.9927 N   0  0  0  0  0  0  0  0  0  0  0  0
  1  2  1  0  0  0  0
  1 39  1  0  0  0  0
  3  4  1  0  0  0  0
  5  6  1  0  0  0  0
  5 40  1  0  0  0  0
  9 10  1  1  0  0  0
  9 14  1  0  0  0  0
  9 35  1  0  0  0  0
 10  1  1  0  0  0  0
 11 16  1  0  0  0  0
 11 28  1  0  0  0  0
 11 26  1  6  0  0  0
 12 17  1  0  0  0  0
 12 34  1  0  0  0  0
 12 13  1  1  0  0  0
 14 15  1  6  0  0  0
 14 19  1  0  0  0  0
 16 13  1  1  0  0  0
 16 21  1  0  0  0  0
 17 18  1  6  0  0  0
 17 23  1  0  0  0  0
 18  8  1  0  0  0  0
 19 20  1  1  0  0  0
 19 25  1  0  0  0  0
 20  5  1  0  0  0  0
 21  3  1  6  0  0  0
 21 22  1  0  0  0  0
 21 27  1  0  0  0  0
 23 24  1  6  0  0  0
 23 29  1  0  0  0  0
 25 26  1  6  0  0  0
 25 31  1  0  0  0  0
 27  7  1  1  0  0  0
 27 28  1  0  0  0  0
 29 30  1  1  0  0  0
 29 33  1  0  0  0  0
 31 32  1  1  0  0  0
 31 35  1  0  0  0  0
 33 34  1  0  0  0  0
 33 37  1  1  0  0  0
 35 36  1  6  0  0  0
 37 38  1  0  0  0  0
M  END
>  <CHROM.1>
-83.21780481,-70.24365573,169.21720760,111.07976901,73.33676596,-90.18832070
93.43812332,69.48014165,-79.76623730,-133.27322674,-63.46430496,2.80598010
36.62030220,-0.27685393,1.18515771,-0.03577408,-0.07837884

>  <Name>
1nta_lig

>  <RI>
0

>  <Rbt.Current_Directory>
/home/itssahil/PROJECTS/Mol_Feturizer/New_Systems/rnas/1nta

>  <Rbt.Executable>
rbdock ($Id: //depot/dev/client3/rdock/2013.1/src/exe/rbdock.cxx#4 $)

>  <Rbt.Library>
libRbt.so (2013.1, Build901 2013/11/27)

>  <Rbt.Parameter_File>
/export/apps/rDock/src/rDock_2013.1_src/data/scripts/dock_solv.prm

>  <Rbt.Receptor>
prm/pocket_docking_6.prm

>  <SCORE>
-25.3206

>  <SCORE.INTER>
-6.90161

>  <SCORE.INTER.CONST>
1

>  <SCORE.INTER.POLAR>
-0.736979

>  <SCORE.INTER.ROT>
11

>  <SCORE.INTER.SOLV>
14.1759

>  <SCORE.INTER.VDW>
-17.8031

>  <SCORE.INTER.norm>
-0.17254

>  <SCORE.INTRA>
-18.419

>  <SCORE.INTRA.DIHEDRAL>
0.154534

>  <SCORE.INTRA.DIHEDRAL.0>
19.0336

>  <SCORE.INTRA.POLAR>
0

>  <SCORE.INTRA.POLAR.0>
0

>  <SCORE.INTRA.REPUL>
0.00854808

>  <SCORE.INTRA.REPUL.0>
0

>  <SCORE.INTRA.SOLV>
-3.33152

>  <SCORE.INTRA.SOLV.lig_0>
-97.5861

>  <SCORE.INTRA.VDW>
-16.8732

>  <SCORE.INTRA.VDW.0>
11.7669

>  <SCORE.INTRA.norm>
-0.460475

>  <SCORE.RESTR>
0

>  <SCORE.RESTR.CAVITY>
0

>  <SCORE.RESTR.norm>
0

>  <SCORE.SYSTEM>
0

>  <SCORE.SYSTEM.CONST>
0

>  <SCORE.SYSTEM.DIHEDRAL>
0

>  <SCORE.SYSTEM.SOLV>
0

>  <SCORE.SYSTEM.norm>
0

>  <SCORE.heavy>
40

>  <SCORE.norm>
-0.633015

>  <RMSD>
6.422

$$$$
1nta_lig
 OpenBabel11021811403D
libRbt.so/2013.1/901 2013/11/27
 40 42  0  0  0  0  0  0  0  0999 V2000
   -2.5073   29.2577   -4.7621 C   0  0  0  0  0  0  0  0  0  0  0  0
   -2.0558   28.7802   -5.8613 N   0  0  0  0  0  0  0  0  0  0  0  0
    4.9179   33.5118    0.0323 C   0  0  0  0  0  0  0  0  0  0  0  0
    4.4442   32.4450    0.3561 O   0  0  0  0  0  0  0  0  0  0  0  0
   -1.3198   32.7036    0.5483 C   0  0  0  0  0  0  0  0  0  0  0  0
   -0.4631   32.2713    1.4366 N   0  0  0  0  0  0  0  0  0  0  0  0
    5.3231   33.9141   -3.2442 C   0  0  0  0  0  0  0  0  0  0  0  0
    5.5241   38.2435    1.3885 C   0  0  0  0  0  0  0  0  0  0  0  0
   -1.2116   30.8794   -3.6255 C   0  0  2  0  0  0  0  0  0  0  0  0
   -2.3353   30.5601   -4.5922 N   0  0  0  0  0  0  0  0  0  0  0  0
    2.1266   34.5112   -1.7222 C   0  0  2  0  0  0  0  0  0  0  0  0
    3.0895   36.3095    1.2130 C   0  0  1  0  0  0  0  0  0  0  0  0
    2.7450   36.0959   -0.1111 O   0  0  0  0  0  0  0  0  0  0  0  0
   -1.6891   31.9045   -2.5795 C   0  0  1  0  0  0  0  0  0  0  0  0
   -2.7136   31.3002   -1.8494 O   0  0  0  0  0  0  0  0  0  0  0  0
    2.9780   34.8549   -0.5047 C   0  0  2  0  0  0  0  0  0  0  0  0
    3.2728   37.7580    1.6091 C   0  0  1  0  0  0  0  0  0  0  0  0
    4.2286   38.3504    0.7386 N   0  0  0  0  0  0  0  0  0  0  0  0
   -0.5827   32.2837   -1.5861 C   0  0  2  0  0  0  0  0  0  0  0  0
   -1.0063   33.2733   -0.5666 N   0  0  0  0  0  0  0  0  0  0  0  0
    4.3099   34.4552   -0.9707 C   0  0  1  0  0  0  0  0  0  0  0  0
    5.0810   35.6486   -1.1231 O   0  0  0  0  0  0  0  0  0  0  0  0
    2.0786   38.4581    1.5103 C   0  0  2  0  0  0  0  0  0  0  0  0
    2.2519   39.6898    2.1644 O   0  0  0  0  0  0  0  0  0  0  0  0
    0.5858   32.8513   -2.3764 C   0  0  1  0  0  0  0  0  0  0  0  0
    1.6070   33.1969   -1.4536 O   0  0  0  0  0  0  0  0  0  0  0  0
    4.1764   33.8173   -2.2863 C   0  0  1  0  0  0  0  0  0  0  0  0
    2.9915   34.3882   -2.8278 O   0  0  0  0  0  0  0  0  0  0  0  0
    0.9644   37.6902    2.1717 C   0  0  1  0  0  0  0  0  0  0  0  0
   -0.2548   38.2927    1.8510 O   0  0  0  0  0  0  0  0  0  0  0  0
    1.0996   31.8025   -3.4034 C   0  0  2  0  0  0  0  0  0  0  0  0
    2.2010   32.3491   -4.1269 O   0  0  0  0  0  0  0  0  0  0  0  0
    0.9440   36.2903    1.6595 C   0  0  1  0  0  0  0  0  0  0  0  0
    2.1662   35.6961    1.9889 O   0  0  0  0  0  0  0  0  0  0  0  0
   -0.0374   31.4561   -4.3875 C   0  0  1  0  0  0  0  0  0  0  0  0
    0.4185   30.4878   -5.3464 O   0  0  0  0  0  0  0  0  0  0  0  0
   -0.1726   35.4647    2.3289 C   0  0  0  0  0  0  0  0  0  0  0  0
   -1.4377   35.9450    1.8886 O   0  0  0  0  0  0  0  0  0  0  0  0
   -3.0868   28.5231   -3.8750 N   0  0  0  0  0  0  0  0  0  0  0  0
   -2.5701   32.5505    0.7477 N   0  0  0  0  0  0  0  0  0  0  0  0
  1  2  1  0  0  0  0
  1 39  1  0  0  0  0
  3  4  1  0  0  0  0
  5  6  1  0  0  0  0
  5 40  1  0  0  0  0
  9 10  1  6  0  0  0
  9 14  1  0  0  0  0
  9 35  1  0  0  0  0
 10  1  1  0  0  0  0
 11 16  1  0  0  0  0
 11 28  1  0  0  0  0
 11 26  1  1  0  0  0
 12 17  1  0  0  0  0
 12 34  1  0  0  0  0
 12 13  1  6  0  0  0
 14 15  1  1  0  0  0
 14 19  1  0  0  0  0
 16 13  1  6  0  0  0
 16 21  1  0  0  0  0
 17 18  1  6  0  0  0
 17 23  1  0  0  0  0
 18  8  1  0  0  0  0
 19 20  1  1  0  0  0
 19 25  1  0  0  0  0
 20  5  1  0  0  0  0
 21  3  1  1  0  0  0
 21 22  1  0  0  0  0
 21 27  1  0  0  0  0
 23 24  1  1  0  0  0
 23 29  1  0  0  0  0
 25 26  1  1  0  0  0
 25 31  1  0  0  0  0
 27  7  1  6  0  0  0
 27 28  1  0  0  0  0
 29 30  1  6  0  0  0
 29 33  1  0  0  0  0
 31 32  1  6  0  0  0
 31 35  1  0  0  0  0
 33 34  1  0  0  0  0
 33 37  1  1  0  0  0
 35 36  1  6  0  0  0
 37 38  1  0  0  0  0
M  END
>  <CHROM.1>
-131.01541839,-103.79315492,168.41834439,161.31870129,158.12411556,-93.82042816
98.51602085,78.46220572,60.09812001,-132.97260717,68.81257337,1.18414456
33.99158839,-0.97222663,2.06345443,-0.30366325,-2.33901408

>  <Name>
1nta_lig

>  <RI>
0

>  <Rbt.Current_Directory>
/home/itssahil/PROJECTS/Mol_Feturizer/New_Systems/rnas/1nta

>  <Rbt.Executable>
rbdock ($Id: //depot/dev/client3/rdock/2013.1/src/exe/rbdock.cxx#4 $)

>  <Rbt.Library>
libRbt.so (2013.1, Build901 2013/11/27)

>  <Rbt.Parameter_File>
/export/apps/rDock/src/rDock_2013.1_src/data/scripts/dock_solv.prm

>  <Rbt.Receptor>
prm/pocket_docking_7.prm

>  <SCORE>
-29.8895

>  <SCORE.INTER>
-8.85275

>  <SCORE.INTER.CONST>
1

>  <SCORE.INTER.POLAR>
-0.232599

>  <SCORE.INTER.ROT>
11

>  <SCORE.INTER.SOLV>
17.645

>  <SCORE.INTER.VDW>
-21.9415

>  <SCORE.INTER.norm>
-0.221319

>  <SCORE.INTRA>
-21.0368

>  <SCORE.INTRA.DIHEDRAL>
-3.97774

>  <SCORE.INTRA.DIHEDRAL.0>
19.0336

>  <SCORE.INTRA.POLAR>
0

>  <SCORE.INTRA.POLAR.0>
0

>  <SCORE.INTRA.REPUL>
0

>  <SCORE.INTRA.REPUL.0>
0

>  <SCORE.INTRA.SOLV>
-1.63257

>  <SCORE.INTRA.SOLV.lig_0>
-97.5861

>  <SCORE.INTRA.VDW>
-18.2316

>  <SCORE.INTRA.VDW.0>
11.7669

>  <SCORE.INTRA.norm>
-0.52592

>  <SCORE.RESTR>
0

>  <SCORE.RESTR.CAVITY>
0

>  <SCORE.RESTR.norm>
0

>  <SCORE.SYSTEM>
0

>  <SCORE.SYSTEM.CONST>
0

>  <SCORE.SYSTEM.DIHEDRAL>
0

>  <SCORE.SYSTEM.SOLV>
0

>  <SCORE.SYSTEM.norm>
0

>  <SCORE.heavy>
40

>  <SCORE.norm>
-0.747238

>  <RMSD>
6.430

$$$$
1nta_lig
 OpenBabel11021811403D
libRbt.so/2013.1/901 2013/11/27
 40 42  0  0  0  0  0  0  0  0999 V2000
   -0.9376   32.4503   -5.5952 C   0  0  0  0  0  0  0  0  0  0  0  0
   -0.6329   31.2435   -5.8965 N   0  0  0  0  0  0  0  0  0  0  0  0
    4.7786   35.2079    1.2524 C   0  0  0  0  0  0  0  0  0  0  0  0
    5.9620   35.2879    1.4982 O   0  0  0  0  0  0  0  0  0  0  0  0
    4.4874   33.5572   -2.7412 C   0  0  0  0  0  0  0  0  0  0  0  0
    4.7968   32.5462   -3.5106 N   0  0  0  0  0  0  0  0  0  0  0  0
    5.1549   38.4914    0.8804 C   0  0  0  0  0  0  0  0  0  0  0  0
    1.3286   32.3366    0.0955 C   0  0  0  0  0  0  0  0  0  0  0  0
    0.0574   33.7965   -3.9224 C   0  0  2  0  0  0  0  0  0  0  0  0
   -0.9512   32.7293   -4.3004 N   0  0  0  0  0  0  0  0  0  0  0  0
    2.1625   36.8655   -0.2564 C   0  0  2  0  0  0  0  0  0  0  0  0
    0.4069   35.1171    1.2573 C   0  0  1  0  0  0  0  0  0  0  0  0
    1.4926   35.8309    1.7360 O   0  0  0  0  0  0  0  0  0  0  0  0
    1.2394   33.1625   -3.1648 C   0  0  1  0  0  0  0  0  0  0  0  0
    1.8683   32.2822   -4.0466 O   0  0  0  0  0  0  0  0  0  0  0  0
    2.4884   35.8878    0.8675 C   0  0  2  0  0  0  0  0  0  0  0  0
    0.3344   33.6727    1.7015 C   0  0  1  0  0  0  0  0  0  0  0  0
    1.5533   33.0280    1.3539 N   0  0  0  0  0  0  0  0  0  0  0  0
    2.2831   34.2024   -2.7356 C   0  0  2  0  0  0  0  0  0  0  0  0
    3.4340   33.6273   -1.9988 N   0  0  0  0  0  0  0  0  0  0  0  0
    3.8136   36.3628    1.2784 C   0  0  1  0  0  0  0  0  0  0  0  0
    3.6767   36.9203    2.5870 O   0  0  0  0  0  0  0  0  0  0  0  0
    0.1514   33.5805    3.0741 C   0  0  2  0  0  0  0  0  0  0  0  0
   -0.2000   32.2520    3.3684 O   0  0  0  0  0  0  0  0  0  0  0  0
    1.5901   35.2295   -1.8544 C   0  0  1  0  0  0  0  0  0  0  0  0
    2.5585   36.1903   -1.4634 O   0  0  0  0  0  0  0  0  0  0  0  0
    4.2367   37.4287    0.3615 C   0  0  1  0  0  0  0  0  0  0  0  0
    3.0147   37.9787   -0.1152 O   0  0  0  0  0  0  0  0  0  0  0  0
   -0.9531   34.5029    3.5188 C   0  0  1  0  0  0  0  0  0  0  0  0
   -0.9537   34.5705    4.9145 O   0  0  0  0  0  0  0  0  0  0  0  0
    0.4236   35.9039   -2.6311 C   0  0  2  0  0  0  0  0  0  0  0  0
   -0.2068   36.8706   -1.7923 O   0  0  0  0  0  0  0  0  0  0  0  0
   -0.7116   35.8732    2.9837 C   0  0  1  0  0  0  0  0  0  0  0  0
   -0.7168   35.7945    1.5876 O   0  0  0  0  0  0  0  0  0  0  0  0
   -0.6063   34.8283   -3.0353 C   0  0  1  0  0  0  0  0  0  0  0  0
   -1.6939   35.4325   -3.7543 O   0  0  0  0  0  0  0  0  0  0  0  0
   -1.8337   36.8440    3.4014 C   0  0  0  0  0  0  0  0  0  0  0  0
   -3.0873   36.3204    2.9777 O   0  0  0  0  0  0  0  0  0  0  0  0
   -1.2180   33.3366   -6.4886 N   0  0  0  0  0  0  0  0  0  0  0  0
    5.2697   34.5620   -2.6710 N   0  0  0  0  0  0  0  0  0  0  0  0
  1  2  1  0  0  0  0
  1 39  1  0  0  0  0
  3  4  1  0  0  0  0
  5  6  1  0  0  0  0
  5 40  1  0  0  0  0
  9 10  1  1  0  0  0
  9 14  1  0  0  0  0
  9 35  1  0  0  0  0
 10  1  1  0  0  0  0
 11 16  1  0  0  0  0
 11 28  1  0  0  0  0
 11 26  1  6  0  0  0
 12 17  1  0  0  0  0
 12 34  1  0  0  0  0
 12 13  1  1  0  0  0
 14 15  1  6  0  0  0
 14 19  1  0  0  0  0
 16 13  1  1  0  0  0
 16 21  1  0  0  0  0
 17 18  1  1  0  0  0
 17 23  1  0  0  0  0
 18  8  1  0  0  0  0
 19 20  1  1  0  0  0
 19 25  1  0  0  0  0
 20  5  1  0  0  0  0
 21  3  1  1  0  0  0
 21 22  1  0  0  0  0
 21 27  1  0  0  0  0
 23 24  1  6  0  0  0
 23 29  1  0  0  0  0
 25 26  1  6  0  0  0
 25 31  1  0  0  0  0
 27  7  1  1  0  0  0
 27 28  1  0  0  0  0
 29 30  1  1  0  0  0
 29 33  1  0  0  0  0
 31 32  1  1  0  0  0
 31 35  1  0  0  0  0
 33 34  1  0  0  0  0
 33 37  1  6  0  0  0
 35 36  1  6  0  0  0
 37 38  1  0  0  0  0
M  END
>  <CHROM.1>
-107.03638119,118.52440774,78.56705710,97.22962735,74.76402071,-97.17118310
104.18557034,-88.46496698,177.43911013,-157.18074841,-55.86795971,1.33763886
34.82921217,-0.47939346,1.61814990,-0.24818810,-1.89549188

>  <Name>
1nta_lig

>  <RI>
0

>  <Rbt.Current_Directory>
/home/itssahil/PROJECTS/Mol_Feturizer/New_Systems/rnas/1nta

>  <Rbt.Executable>
rbdock ($Id: //depot/dev/client3/rdock/2013.1/src/exe/rbdock.cxx#4 $)

>  <Rbt.Library>
libRbt.so (2013.1, Build901 2013/11/27)

>  <Rbt.Parameter_File>
/export/apps/rDock/src/rDock_2013.1_src/data/scripts/dock_solv.prm

>  <Rbt.Receptor>
prm/pocket_docking_7.prm

>  <SCORE>
-28.5296

>  <SCORE.INTER>
-5.93985

>  <SCORE.INTER.CONST>
1

>  <SCORE.INTER.POLAR>
-0.8

>  <SCORE.INTER.ROT>
11

>  <SCORE.INTER.SOLV>
22.561

>  <SCORE.INTER.VDW>
-19.7469

>  <SCORE.INTER.norm>
-0.148496

>  <SCORE.INTRA>
-22.5898

>  <SCORE.INTRA.DIHEDRAL>
-5.17161

>  <SCORE.INTRA.DIHEDRAL.0>
19.0336

>  <SCORE.INTRA.POLAR>
0

>  <SCORE.INTRA.POLAR.0>
0

>  <SCORE.INTRA.REPUL>
0

>  <SCORE.INTRA.REPUL.0>
0

>  <SCORE.INTRA.SOLV>
-2.98581

>  <SCORE.INTRA.SOLV.lig_0>
-97.5861

>  <SCORE.INTRA.VDW>
-18.5111

>  <SCORE.INTRA.VDW.0>
11.7669

>  <SCORE.INTRA.norm>
-0.564745

>  <SCORE.RESTR>
0

>  <SCORE.RESTR.CAVITY>
0

>  <SCORE.RESTR.norm>
0

>  <SCORE.SYSTEM>
0

>  <SCORE.SYSTEM.CONST>
0

>  <SCORE.SYSTEM.DIHEDRAL>
0

>  <SCORE.SYSTEM.SOLV>
0

>  <SCORE.SYSTEM.norm>
0

>  <SCORE.heavy>
40

>  <SCORE.norm>
-0.713241

>  <RMSD>
6.445

$$$$
1nta_lig
 OpenBabel11021811403D
libRbt.so/2013.1/901 2013/11/27
 40 42  0  0  0  0  0  0  0  0999 V2000
    1.5847   41.7628   -2.3255 C   0  0  0  0  0  0  0  0  0  0  0  0
    0.4836   41.8426   -2.9746 N   0  0  0  0  0  0  0  0  0  0  0  0
    3.3702   33.8157   -1.7269 C   0  0  0  0  0  0  0  0  0  0  0  0
    4.1985   34.4513   -1.1128 O   0  0  0  0  0  0  0  0  0  0  0  0
    4.6847   37.3675    0.7290 C   0  0  0  0  0  0  0  0  0  0  0  0
    4.6789   36.3036    1.4891 N   0  0  0  0  0  0  0  0  0  0  0  0
    1.6513   32.1467    0.5799 C   0  0  0  0  0  0  0  0  0  0  0  0
    0.1531   32.6258   -5.8736 C   0  0  0  0  0  0  0  0  0  0  0  0
    1.4529   40.5301   -0.3097 C   0  0  2  0  0  0  0  0  0  0  0  0
    1.4809   41.8747   -1.0097 N   0  0  0  0  0  0  0  0  0  0  0  0
    0.5889   35.4121   -0.4683 C   0  0  2  0  0  0  0  0  0  0  0  0
    1.0217   35.1017   -4.0124 C   0  0  1  0  0  0  0  0  0  0  0  0
    0.4026   35.0464   -2.7750 O   0  0  0  0  0  0  0  0  0  0  0  0
    2.7201   39.7262   -0.6576 C   0  0  1  0  0  0  0  0  0  0  0  0
    3.8101   40.4393   -0.1562 O   0  0  0  0  0  0  0  0  0  0  0  0
    1.2663   35.0103   -1.7740 C   0  0  2  0  0  0  0  0  0  0  0  0
    0.1214   34.8387   -5.1994 C   0  0  1  0  0  0  0  0  0  0  0  0
   -0.5215   33.5839   -5.0139 N   0  0  0  0  0  0  0  0  0  0  0  0
    2.7348   38.3429    0.0066 C   0  0  2  0  0  0  0  0  0  0  0  0
    3.9393   37.5387   -0.3106 N   0  0  0  0  0  0  0  0  0  0  0  0
    1.9063   33.7500   -1.3829 C   0  0  1  0  0  0  0  0  0  0  0  0
    1.2357   32.6997   -2.0824 O   0  0  0  0  0  0  0  0  0  0  0  0
   -0.8456   35.8266   -5.3219 C   0  0  2  0  0  0  0  0  0  0  0  0
   -1.4411   35.6849   -6.5869 O   0  0  0  0  0  0  0  0  0  0  0  0
    1.4967   37.5876   -0.4504 C   0  0  1  0  0  0  0  0  0  0  0  0
    1.5135   36.3111    0.1692 O   0  0  0  0  0  0  0  0  0  0  0  0
    1.7081   33.5489    0.0579 C   0  0  1  0  0  0  0  0  0  0  0  0
    0.5124   34.2638    0.3447 O   0  0  0  0  0  0  0  0  0  0  0  0
   -0.2178   37.1913   -5.2119 C   0  0  1  0  0  0  0  0  0  0  0  0
   -1.2293   38.1483   -5.0967 O   0  0  0  0  0  0  0  0  0  0  0  0
    0.2132   38.3750   -0.0613 C   0  0  2  0  0  0  0  0  0  0  0  0
   -0.9365   37.6463   -0.4886 O   0  0  0  0  0  0  0  0  0  0  0  0
    0.6316   37.2581   -3.9886 C   0  0  1  0  0  0  0  0  0  0  0  0
    1.6418   36.2997   -4.1161 O   0  0  0  0  0  0  0  0  0  0  0  0
    0.2326   39.7529   -0.7555 C   0  0  1  0  0  0  0  0  0  0  0  0
   -0.9473   40.4963   -0.4088 O   0  0  0  0  0  0  0  0  0  0  0  0
    1.3091   38.6360   -3.8512 C   0  0  0  0  0  0  0  0  0  0  0  0
    1.9870   38.9470   -5.0632 O   0  0  0  0  0  0  0  0  0  0  0  0
    2.7211   41.5902   -2.9095 N   0  0  0  0  0  0  0  0  0  0  0  0
    5.4537   38.3444    1.0132 N   0  0  0  0  0  0  0  0  0  0  0  0
  1  2  1  0  0  0  0
  1 39  1  0  0  0  0
  3  4  1  0  0  0  0
  5  6  1  0  0  0  0
  5 40  1  0  0  0  0
  9 10  1  6  0  0  0
  9 14  1  0  0  0  0
  9 35  1  0  0  0  0
 10  1  1  0  0  0  0
 11 16  1  0  0  0  0
 11 28  1  0  0  0  0
 11 26  1  1  0  0  0
 12 17  1  0  0  0  0
 12 34  1  0  0  0  0
 12 13  1  1  0  0  0
 14 15  1  1  0  0  0
 14 19  1  0  0  0  0
 16 13  1  6  0  0  0
 16 21  1  0  0  0  0
 17 18  1  1  0  0  0
 17 23  1  0  0  0  0
 18  8  1  0  0  0  0
 19 20  1  6  0  0  0
 19 25  1  0  0  0  0
 20  5  1  0  0  0  0
 21  3  1  6  0  0  0
 21 22  1  0  0  0  0
 21 27  1  0  0  0  0
 23 24  1  6  0  0  0
 23 29  1  0  0  0  0
 25 26  1  1  0  0  0
 25 31  1  0  0  0  0
 27  7  1  6  0  0  0
 27 28  1  0  0  0  0
 29 30  1  1  0  0  0
 29 33  1  0  0  0  0
 31 32  1  6  0  0  0
 31 35  1  0  0  0  0
 33 34  1  0  0  0  0
 33 37  1  6  0  0  0
 35 36  1  1  0  0  0
 37 38  1  0  0  0  0
M  END
>  <CHROM.1>
57.54541537,97.41564580,75.53764604,167.05192610,161.21365858,-103.29582495
112.44834841,97.68234018,74.76716240,-164.71870846,-52.36803595,1.39940219
36.97531310,-1.99780836,1.11055191,-1.00429191,0.02632855

>  <Name>
1nta_lig

>  <RI>
0

>  <Rbt.Current_Directory>
/home/itssahil/PROJECTS/Mol_Feturizer/New_Systems/rnas/1nta

>  <Rbt.Executable>
rbdock ($Id: //depot/dev/client3/rdock/2013.1/src/exe/rbdock.cxx#4 $)

>  <Rbt.Library>
libRbt.so (2013.1, Build901 2013/11/27)

>  <Rbt.Parameter_File>
/export/apps/rDock/src/rDock_2013.1_src/data/scripts/dock_solv.prm

>  <Rbt.Receptor>
prm/pocket_docking_4.prm

>  <SCORE>
-24.3279

>  <SCORE.INTER>
-3.10943

>  <SCORE.INTER.CONST>
1

>  <SCORE.INTER.POLAR>
-0.710178

>  <SCORE.INTER.ROT>
11

>  <SCORE.INTER.SOLV>
11.4232

>  <SCORE.INTER.VDW>
-14.4467

>  <SCORE.INTER.norm>
-0.0777358

>  <SCORE.INTRA>
-21.2266

>  <SCORE.INTRA.DIHEDRAL>
-10.1544

>  <SCORE.INTRA.DIHEDRAL.0>
19.0336

>  <SCORE.INTRA.POLAR>
0

>  <SCORE.INTRA.POLAR.0>
0

>  <SCORE.INTRA.REPUL>
0.0536207

>  <SCORE.INTRA.REPUL.0>
0

>  <SCORE.INTRA.SOLV>
2.0862

>  <SCORE.INTRA.SOLV.lig_0>
-97.5861

>  <SCORE.INTRA.VDW>
-17.4606

>  <SCORE.INTRA.VDW.0>
11.7669

>  <SCORE.INTRA.norm>
-0.530665

>  <SCORE.RESTR>
0.00809321

>  <SCORE.RESTR.CAVITY>
0.00809321

>  <SCORE.RESTR.norm>
0.00020233

>  <SCORE.SYSTEM>
0

>  <SCORE.SYSTEM.CONST>
0

>  <SCORE.SYSTEM.DIHEDRAL>
0

>  <SCORE.SYSTEM.SOLV>
0

>  <SCORE.SYSTEM.norm>
0

>  <SCORE.heavy>
40

>  <SCORE.norm>
-0.608198

>  <RMSD>
6.453

$$$$
1nta_lig
 OpenBabel11021811403D
libRbt.so/2013.1/901 2013/11/27
 40 42  0  0  0  0  0  0  0  0999 V2000
   -3.2075   29.5842   -3.9090 C   0  0  0  0  0  0  0  0  0  0  0  0
   -4.4230   29.6967   -3.5219 N   0  0  0  0  0  0  0  0  0  0  0  0
    4.9133   33.6328    0.1120 C   0  0  0  0  0  0  0  0  0  0  0  0
    4.4284   32.5825    0.4712 O   0  0  0  0  0  0  0  0  0  0  0  0
   -1.1753   32.9288    0.7732 C   0  0  0  0  0  0  0  0  0  0  0  0
   -0.3012   32.3386    1.5461 N   0  0  0  0  0  0  0  0  0  0  0  0
    5.3967   33.8458   -3.1717 C   0  0  0  0  0  0  0  0  0  0  0  0
    5.6070   38.3105    1.0765 C   0  0  0  0  0  0  0  0  0  0  0  0
   -1.4072   31.0161   -3.3527 C   0  0  2  0  0  0  0  0  0  0  0  0
   -2.6047   30.7181   -4.2338 N   0  0  0  0  0  0  0  0  0  0  0  0
    2.1749   34.5643   -1.7594 C   0  0  2  0  0  0  0  0  0  0  0  0
    3.1290   36.5221    1.0814 C   0  0  1  0  0  0  0  0  0  0  0  0
    2.7774   36.2297   -0.2257 O   0  0  0  0  0  0  0  0  0  0  0  0
   -1.7760   32.0795   -2.3009 C   0  0  1  0  0  0  0  0  0  0  0  0
   -2.7690   31.5284   -1.4897 O   0  0  0  0  0  0  0  0  0  0  0  0
    3.0032   34.9660   -0.5438 C   0  0  2  0  0  0  0  0  0  0  0  0
    3.3364   37.9899    1.3835 C   0  0  1  0  0  0  0  0  0  0  0  0
    4.2990   38.5099    0.4752 N   0  0  0  0  0  0  0  0  0  0  0  0
   -0.5918   32.4384   -1.3934 C   0  0  2  0  0  0  0  0  0  0  0  0
   -0.9098   33.4638   -0.3709 N   0  0  0  0  0  0  0  0  0  0  0  0
    4.3400   34.5254   -0.9559 C   0  0  1  0  0  0  0  0  0  0  0  0
    5.1295   35.6994   -1.1570 O   0  0  0  0  0  0  0  0  0  0  0  0
    2.1531   38.7013    1.2423 C   0  0  2  0  0  0  0  0  0  0  0  0
    2.3479   39.9695    1.8159 O   0  0  0  0  0  0  0  0  0  0  0  0
    0.5394   32.9463   -2.2735 C   0  0  1  0  0  0  0  0  0  0  0  0
    1.6326   33.2732   -1.4299 O   0  0  0  0  0  0  0  0  0  0  0  0
    4.2277   33.8162   -2.2366 C   0  0  1  0  0  0  0  0  0  0  0  0
    3.0627   34.3694   -2.8362 O   0  0  0  0  0  0  0  0  0  0  0  0
    1.0288   37.9952    1.9536 C   0  0  1  0  0  0  0  0  0  0  0  0
   -0.1816   38.5955    1.5972 O   0  0  0  0  0  0  0  0  0  0  0  0
    0.9448   31.8582   -3.3082 C   0  0  2  0  0  0  0  0  0  0  0  0
    2.0129   32.3489   -4.1167 O   0  0  0  0  0  0  0  0  0  0  0  0
    0.9847   36.5659    1.5322 C   0  0  1  0  0  0  0  0  0  0  0  0
    2.1983   35.9746    1.8967 O   0  0  0  0  0  0  0  0  0  0  0  0
   -0.2681   31.5333   -4.2052 C   0  0  1  0  0  0  0  0  0  0  0  0
    0.0870   30.5293   -5.1699 O   0  0  0  0  0  0  0  0  0  0  0  0
   -0.1429   35.8030    2.2551 C   0  0  0  0  0  0  0  0  0  0  0  0
   -1.4003   36.2371    1.7497 O   0  0  0  0  0  0  0  0  0  0  0  0
   -2.6080   28.4453   -3.9840 N   0  0  0  0  0  0  0  0  0  0  0  0
   -2.3992   32.9826    1.1275 N   0  0  0  0  0  0  0  0  0  0  0  0
  1  2  1  0  0  0  0
  1 39  1  0  0  0  0
  3  4  1  0  0  0  0
  5  6  1  0  0  0  0
  5 40  1  0  0  0  0
  9 10  1  6  0  0  0
  9 14  1  0  0  0  0
  9 35  1  0  0  0  0
 10  1  1  0  0  0  0
 11 16  1  0  0  0  0
 11 28  1  0  0  0  0
 11 26  1  1  0  0  0
 12 17  1  0  0  0  0
 12 34  1  0  0  0  0
 12 13  1  6  0  0  0
 14 15  1  1  0  0  0
 14 19  1  0  0  0  0
 16 13  1  6  0  0  0
 16 21  1  0  0  0  0
 17 18  1  6  0  0  0
 17 23  1  0  0  0  0
 18  8  1  0  0  0  0
 19 20  1  1  0  0  0
 19 25  1  0  0  0  0
 20  5  1  0  0  0  0
 21  3  1  1  0  0  0
 21 22  1  0  0  0  0
 21 27  1  0  0  0  0
 23 24  1  1  0  0  0
 23 29  1  0  0  0  0
 25 26  1  1  0  0  0
 25 31  1  0  0  0  0
 27  7  1  6  0  0  0
 27 28  1  0  0  0  0
 29 30  1  6  0  0  0
 29 33  1  0  0  0  0
 31 32  1  6  0  0  0
 31 35  1  0  0  0  0
 33 34  1  0  0  0  0
 33 37  1  1  0  0  0
 35 36  1  6  0  0  0
 37 38  1  0  0  0  0
M  END
>  <CHROM.1>
-102.14458049,117.97996052,162.62616215,160.62432869,159.77235600,-88.64200294
98.08128310,70.06907313,61.15136556,-132.71882318,71.06389207,1.12381555
34.16188979,-0.88491656,2.14872917,-0.28306605,-2.39500520

>  <Name>
1nta_lig

>  <RI>
0

>  <Rbt.Current_Directory>
/home/itssahil/PROJECTS/Mol_Feturizer/New_Systems/rnas/1nta

>  <Rbt.Executable>
rbdock ($Id: //depot/dev/client3/rdock/2013.1/src/exe/rbdock.cxx#4 $)

>  <Rbt.Library>
libRbt.so (2013.1, Build901 2013/11/27)

>  <Rbt.Parameter_File>
/export/apps/rDock/src/rDock_2013.1_src/data/scripts/dock_solv.prm

>  <Rbt.Receptor>
prm/pocket_docking_6.prm

>  <SCORE>
-29.0921

>  <SCORE.INTER>
-8.26772

>  <SCORE.INTER.CONST>
1

>  <SCORE.INTER.POLAR>
-0.217777

>  <SCORE.INTER.ROT>
11

>  <SCORE.INTER.SOLV>
15.3396

>  <SCORE.INTER.VDW>
-20.8324

>  <SCORE.INTER.norm>
-0.206693

>  <SCORE.INTRA>
-20.8243

>  <SCORE.INTRA.DIHEDRAL>
-3.56357

>  <SCORE.INTRA.DIHEDRAL.0>
19.0336

>  <SCORE.INTRA.POLAR>
0

>  <SCORE.INTRA.POLAR.0>
0

>  <SCORE.INTRA.REPUL>
0

>  <SCORE.INTRA.REPUL.0>
0

>  <SCORE.INTRA.SOLV>
-1.58532

>  <SCORE.INTRA.SOLV.lig_0>
-97.5861

>  <SCORE.INTRA.VDW>
-18.2499

>  <SCORE.INTRA.VDW.0>
11.7669

>  <SCORE.INTRA.norm>
-0.520609

>  <SCORE.RESTR>
0

>  <SCORE.RESTR.CAVITY>
0

>  <SCORE.RESTR.norm>
0

>  <SCORE.SYSTEM>
0

>  <SCORE.SYSTEM.CONST>
0

>  <SCORE.SYSTEM.DIHEDRAL>
0

>  <SCORE.SYSTEM.SOLV>
0

>  <SCORE.SYSTEM.norm>
0

>  <SCORE.heavy>
40

>  <SCORE.norm>
-0.727302

>  <RMSD>
6.467

$$$$
1nta_lig
 OpenBabel11021811403D
libRbt.so/2013.1/901 2013/11/27
 40 42  0  0  0  0  0  0  0  0999 V2000
   -0.9731   34.4909   -7.3664 C   0  0  0  0  0  0  0  0  0  0  0  0
   -0.8053   35.1878   -8.4277 N   0  0  0  0  0  0  0  0  0  0  0  0
    4.1884   38.3012    0.4022 C   0  0  0  0  0  0  0  0  0  0  0  0
    4.2146   37.8993    1.5446 O   0  0  0  0  0  0  0  0  0  0  0  0
    1.8518   34.0457   -1.7048 C   0  0  0  0  0  0  0  0  0  0  0  0
    3.0995   34.3685   -1.4837 N   0  0  0  0  0  0  0  0  0  0  0  0
    4.3263   40.7596   -1.8336 C   0  0  0  0  0  0  0  0  0  0  0  0
    0.9754   41.1926    4.0914 C   0  0  0  0  0  0  0  0  0  0  0  0
   -0.2523   35.6873   -5.4560 C   0  0  2  0  0  0  0  0  0  0  0  0
   -1.3938   35.1611   -6.3041 N   0  0  0  0  0  0  0  0  0  0  0  0
    1.3755   38.7356   -1.5388 C   0  0  2  0  0  0  0  0  0  0  0  0
    1.1347   38.6618    2.0476 C   0  0  1  0  0  0  0  0  0  0  0  0
    0.9089   39.0448    0.7362 O   0  0  0  0  0  0  0  0  0  0  0  0
   -0.2617   35.0055   -4.0747 C   0  0  1  0  0  0  0  0  0  0  0  0
   -0.0364   33.6445   -4.2863 O   0  0  0  0  0  0  0  0  0  0  0  0
    1.8384   38.5991   -0.0924 C   0  0  2  0  0  0  0  0  0  0  0  0
    0.1983   39.2677    3.0698 C   0  0  1  0  0  0  0  0  0  0  0  0
    0.2423   40.6835    2.9444 N   0  0  0  0  0  0  0  0  0  0  0  0
    0.8611   35.5181   -3.1629 C   0  0  2  0  0  0  0  0  0  0  0  0
    0.8793   34.8861   -1.8218 N   0  0  0  0  0  0  0  0  0  0  0  0
    3.1549   39.2423   -0.1561 C   0  0  1  0  0  0  0  0  0  0  0  0
    3.0703   40.4553    0.5946 O   0  0  0  0  0  0  0  0  0  0  0  0
   -1.1060   38.8379    2.8695 C   0  0  2  0  0  0  0  0  0  0  0  0
   -1.8504   39.1920    4.0077 O   0  0  0  0  0  0  0  0  0  0  0  0
    0.6900   37.0205   -3.0036 C   0  0  1  0  0  0  0  0  0  0  0  0
    1.7324   37.4895   -2.1629 O   0  0  0  0  0  0  0  0  0  0  0  0
    3.4458   39.5811   -1.5548 C   0  0  1  0  0  0  0  0  0  0  0  0
    2.1617   39.7345   -2.1469 O   0  0  0  0  0  0  0  0  0  0  0  0
   -1.1435   37.3430    2.6894 C   0  0  1  0  0  0  0  0  0  0  0  0
   -2.4178   36.9702    2.2540 O   0  0  0  0  0  0  0  0  0  0  0  0
    0.7435   37.7174   -4.3930 C   0  0  2  0  0  0  0  0  0  0  0  0
    0.5918   39.1256   -4.2220 O   0  0  0  0  0  0  0  0  0  0  0  0
   -0.1557   36.9356    1.6498 C   0  0  1  0  0  0  0  0  0  0  0  0
    1.1152   37.3098    2.0971 O   0  0  0  0  0  0  0  0  0  0  0  0
   -0.4048   37.1825   -5.2741 C   0  0  1  0  0  0  0  0  0  0  0  0
   -0.3730   37.8159   -6.5635 O   0  0  0  0  0  0  0  0  0  0  0  0
   -0.1499   35.4071    1.4506 C   0  0  0  0  0  0  0  0  0  0  0  0
    0.2257   34.7776    2.6703 O   0  0  0  0  0  0  0  0  0  0  0  0
   -0.7445   33.2226   -7.3284 N   0  0  0  0  0  0  0  0  0  0  0  0
    1.5304   32.8196   -1.8448 N   0  0  0  0  0  0  0  0  0  0  0  0
  1  2  1  0  0  0  0
  1 39  1  0  0  0  0
  3  4  1  0  0  0  0
  5  6  1  0  0  0  0
  5 40  1  0  0  0  0
  9 10  1  6  0  0  0
  9 14  1  0  0  0  0
  9 35  1  0  0  0  0
 10  1  1  0  0  0  0
 11 16  1  0  0  0  0
 11 28  1  0  0  0  0
 11 26  1  6  0  0  0
 12 17  1  0  0  0  0
 12 34  1  0  0  0  0
 12 13  1  6  0  0  0
 14 15  1  6  0  0  0
 14 19  1  0  0  0  0
 16 13  1  1  0  0  0
 16 21  1  0  0  0  0
 17 18  1  6  0  0  0
 17 23  1  0  0  0  0
 18  8  1  0  0  0  0
 19 20  1  1  0  0  0
 19 25  1  0  0  0  0
 20  5  1  0  0  0  0
 21  3  1  1  0  0  0
 21 22  1  0  0  0  0
 21 27  1  0  0  0  0
 23 24  1  1  0  0  0
 23 29  1  0  0  0  0
 25 26  1  1  0  0  0
 25 31  1  0  0  0  0
 27  7  1  1  0  0  0
 27 28  1  0  0  0  0
 29 30  1  6  0  0  0
 29 33  1  0  0  0  0
 31 32  1  1  0  0  0
 31 35  1  0  0  0  0
 33 34  1  0  0  0  0
 33 37  1  1  0  0  0
 35 36  1  6  0  0  0
 37 38  1  0  0  0  0
M  END
>  <CHROM.1>
-114.89822625,-90.69497117,137.30443056,173.32718154,165.72626666,-107.15182891
106.30565463,78.47283806,-62.87171981,-157.25448001,-61.37077025,0.81825230
37.26474163,-1.22921248,1.76851647,-0.98463119,-1.83031676

>  <Name>
1nta_lig

>  <RI>
0

>  <Rbt.Current_Directory>
/home/itssahil/PROJECTS/Mol_Feturizer/New_Systems/rnas/1nta

>  <Rbt.Executable>
rbdock ($Id: //depot/dev/client3/rdock/2013.1/src/exe/rbdock.cxx#4 $)

>  <Rbt.Library>
libRbt.so (2013.1, Build901 2013/11/27)

>  <Rbt.Parameter_File>
/export/apps/rDock/src/rDock_2013.1_src/data/scripts/dock_solv.prm

>  <Rbt.Receptor>
prm/pocket_docking_5.prm

>  <SCORE>
-21.1296

>  <SCORE.INTER>
1.17685

>  <SCORE.INTER.CONST>
1

>  <SCORE.INTER.POLAR>
0

>  <SCORE.INTER.ROT>
11

>  <SCORE.INTER.SOLV>
10.7589

>  <SCORE.INTER.VDW>
-13.7351

>  <SCORE.INTER.norm>
0.0294213

>  <SCORE.INTRA>
-22.3064

>  <SCORE.INTRA.DIHEDRAL>
-5.07194

>  <SCORE.INTRA.DIHEDRAL.0>
19.0336

>  <SCORE.INTRA.POLAR>
0

>  <SCORE.INTRA.POLAR.0>
0

>  <SCORE.INTRA.REPUL>
0

>  <SCORE.INTRA.REPUL.0>
0

>  <SCORE.INTRA.SOLV>
-4.13652

>  <SCORE.INTRA.SOLV.lig_0>
-97.5861

>  <SCORE.INTRA.VDW>
-17.7022

>  <SCORE.INTRA.VDW.0>
11.7669

>  <SCORE.INTRA.norm>
-0.55766

>  <SCORE.RESTR>
0

>  <SCORE.RESTR.CAVITY>
0

>  <SCORE.RESTR.norm>
0

>  <SCORE.SYSTEM>
0

>  <SCORE.SYSTEM.CONST>
0

>  <SCORE.SYSTEM.DIHEDRAL>
0

>  <SCORE.SYSTEM.SOLV>
0

>  <SCORE.SYSTEM.norm>
0

>  <SCORE.heavy>
40

>  <SCORE.norm>
-0.528239

>  <RMSD>
6.475

$$$$
1nta_lig
 OpenBabel11021811403D
libRbt.so/2013.1/901 2013/11/27
 40 42  0  0  0  0  0  0  0  0999 V2000
   -1.3753   32.9072   -7.5750 C   0  0  0  0  0  0  0  0  0  0  0  0
   -0.8139   33.4663   -8.5812 N   0  0  0  0  0  0  0  0  0  0  0  0
    2.2217   34.7367    1.6260 C   0  0  0  0  0  0  0  0  0  0  0  0
    1.5870   35.6624    2.0818 O   0  0  0  0  0  0  0  0  0  0  0  0
    0.6535   37.0245   -4.2814 C   0  0  0  0  0  0  0  0  0  0  0  0
    0.6430   37.7642   -5.3596 N   0  0  0  0  0  0  0  0  0  0  0  0
    4.5135   32.6603    0.4023 C   0  0  0  0  0  0  0  0  0  0  0  0
    6.1323   38.3645    1.4425 C   0  0  0  0  0  0  0  0  0  0  0  0
   -0.4373   32.8049   -5.4047 C   0  0  2  0  0  0  0  0  0  0  0  0
   -0.5716   32.2047   -6.7906 N   0  0  0  0  0  0  0  0  0  0  0  0
    2.7443   34.9006   -1.7752 C   0  0  2  0  0  0  0  0  0  0  0  0
    3.1994   37.7545    0.3896 C   0  0  1  0  0  0  0  0  0  0  0  0
    3.2339   36.9388   -0.7289 O   0  0  0  0  0  0  0  0  0  0  0  0
    0.3992   34.0970   -5.4666 C   0  0  1  0  0  0  0  0  0  0  0  0
   -0.3083   35.0075   -6.2530 O   0  0  0  0  0  0  0  0  0  0  0  0
    2.6660   35.7628   -0.5200 C   0  0  2  0  0  0  0  0  0  0  0  0
    4.1603   38.9229    0.3691 C   0  0  1  0  0  0  0  0  0  0  0  0
    5.4747   38.4274    0.1480 N   0  0  0  0  0  0  0  0  0  0  0  0
    0.5882   34.7370   -4.0848 C   0  0  2  0  0  0  0  0  0  0  0  0
    1.3934   35.9817   -4.1062 N   0  0  0  0  0  0  0  0  0  0  0  0
    3.2013   34.8418    0.4880 C   0  0  1  0  0  0  0  0  0  0  0  0
    4.4630   35.3632    0.9105 O   0  0  0  0  0  0  0  0  0  0  0  0
    3.8392   39.8163   -0.6432 C   0  0  2  0  0  0  0  0  0  0  0  0
    4.5697   40.9956   -0.4177 O   0  0  0  0  0  0  0  0  0  0  0  0
    1.2679   33.7190   -3.1830 C   0  0  1  0  0  0  0  0  0  0  0  0
    1.4370   34.3145   -1.9061 O   0  0  0  0  0  0  0  0  0  0  0  0
    3.4262   33.5345   -0.1412 C   0  0  1  0  0  0  0  0  0  0  0  0
    3.6389   33.8440   -1.5131 O   0  0  0  0  0  0  0  0  0  0  0  0
    2.3654   40.1260   -0.6213 C   0  0  1  0  0  0  0  0  0  0  0  0
    2.0316   40.8272   -1.7829 O   0  0  0  0  0  0  0  0  0  0  0  0
    0.4044   32.4295   -3.0823 C   0  0  2  0  0  0  0  0  0  0  0  0
    1.0528   31.4917   -2.2247 O   0  0  0  0  0  0  0  0  0  0  0  0
    1.5840   38.8566   -0.5996 C   0  0  1  0  0  0  0  0  0  0  0  0
    1.9227   38.1653    0.5678 O   0  0  0  0  0  0  0  0  0  0  0  0
    0.2465   31.8129   -4.4880 C   0  0  1  0  0  0  0  0  0  0  0  0
   -0.5487   30.6182   -4.4159 O   0  0  0  0  0  0  0  0  0  0  0  0
    0.0679   39.1324   -0.5564 C   0  0  0  0  0  0  0  0  0  0  0  0
   -0.6334   37.8942   -0.5690 O   0  0  0  0  0  0  0  0  0  0  0  0
   -2.6384   33.0140   -7.3400 N   0  0  0  0  0  0  0  0  0  0  0  0
   -0.0920   37.3341   -3.2941 N   0  0  0  0  0  0  0  0  0  0  0  0
  1  2  1  0  0  0  0
  1 39  1  0  0  0  0
  3  4  1  0  0  0  0
  5  6  1  0  0  0  0
  5 40  1  0  0  0  0
  9 10  1  6  0  0  0
  9 14  1  0  0  0  0
  9 35  1  0  0  0  0
 10  1  1  0  0  0  0
 11 16  1  0  0  0  0
 11 28  1  0  0  0  0
 11 26  1  1  0  0  0
 12 17  1  0  0  0  0
 12 34  1  0  0  0  0
 12 13  1  6  0  0  0
 14 15  1  6  0  0  0
 14 19  1  0  0  0  0
 16 13  1  6  0  0  0
 16 21  1  0  0  0  0
 17 18  1  6  0  0  0
 17 23  1  0  0  0  0
 18  8  1  0  0  0  0
 19 20  1  6  0  0  0
 19 25  1  0  0  0  0
 20  5  1  0  0  0  0
 21  3  1  1  0  0  0
 21 22  1  0  0  0  0
 21 27  1  0  0  0  0
 23 24  1  1  0  0  0
 23 29  1  0  0  0  0
 25 26  1  1  0  0  0
 25 31  1  0  0  0  0
 27  7  1  1  0  0  0
 27 28  1  0  0  0  0
 29 30  1  6  0  0  0
 29 33  1  0  0  0  0
 31 32  1  1  0  0  0
 31 35  1  0  0  0  0
 33 34  1  0  0  0  0
 33 37  1  1  0  0  0
 35 36  1  1  0  0  0
 37 38  1  0  0  0  0
M  END
>  <CHROM.1>
-71.74720545,114.13744304,167.23080664,162.79084192,-179.39693246,-99.37867261
89.66944934,-110.84047460,-39.42279141,-94.97444582,178.63656151,1.71037002
35.72176229,-2.18364989,2.51890875,0.99047925,3.13852023

>  <Name>
1nta_lig

>  <RI>
0

>  <Rbt.Current_Directory>
/home/itssahil/PROJECTS/Mol_Feturizer/New_Systems/rnas/1nta

>  <Rbt.Executable>
rbdock ($Id: //depot/dev/client3/rdock/2013.1/src/exe/rbdock.cxx#4 $)

>  <Rbt.Library>
libRbt.so (2013.1, Build901 2013/11/27)

>  <Rbt.Parameter_File>
/export/apps/rDock/src/rDock_2013.1_src/data/scripts/dock_solv.prm

>  <Rbt.Receptor>
prm/pocket_docking_4.prm

>  <SCORE>
-27.5898

>  <SCORE.INTER>
-6.46426

>  <SCORE.INTER.CONST>
1

>  <SCORE.INTER.POLAR>
-0.804531

>  <SCORE.INTER.ROT>
11

>  <SCORE.INTER.SOLV>
15.3182

>  <SCORE.INTER.VDW>
-17.6671

>  <SCORE.INTER.norm>
-0.161606

>  <SCORE.INTRA>
-21.1643

>  <SCORE.INTRA.DIHEDRAL>
-8.48331

>  <SCORE.INTRA.DIHEDRAL.0>
19.0336

>  <SCORE.INTRA.POLAR>
0

>  <SCORE.INTRA.POLAR.0>
0

>  <SCORE.INTRA.REPUL>
0.00189436

>  <SCORE.INTRA.REPUL.0>
0

>  <SCORE.INTRA.SOLV>
-0.481531

>  <SCORE.INTRA.SOLV.lig_0>
-97.5861

>  <SCORE.INTRA.VDW>
-16.6913

>  <SCORE.INTRA.VDW.0>
11.7669

>  <SCORE.INTRA.norm>
-0.529107

>  <SCORE.RESTR>
0.0387618

>  <SCORE.RESTR.CAVITY>
0.0387618

>  <SCORE.RESTR.norm>
0.000969046

>  <SCORE.SYSTEM>
0

>  <SCORE.SYSTEM.CONST>
0

>  <SCORE.SYSTEM.DIHEDRAL>
0

>  <SCORE.SYSTEM.SOLV>
0

>  <SCORE.SYSTEM.norm>
0

>  <SCORE.heavy>
40

>  <SCORE.norm>
-0.689745

>  <RMSD>
6.518

$$$$
1nta_lig
 OpenBabel11021811403D
libRbt.so/2013.1/901 2013/11/27
 40 42  0  0  0  0  0  0  0  0999 V2000
   -1.3133   33.4513    4.8093 C   0  0  0  0  0  0  0  0  0  0  0  0
   -1.0236   32.2592    5.1768 N   0  0  0  0  0  0  0  0  0  0  0  0
    0.6559   35.3695   -3.8136 C   0  0  0  0  0  0  0  0  0  0  0  0
    1.8497   35.3387   -3.6107 O   0  0  0  0  0  0  0  0  0  0  0  0
   -1.9480   32.1742   -1.4870 C   0  0  0  0  0  0  0  0  0  0  0  0
   -2.4725   31.2079   -0.7792 N   0  0  0  0  0  0  0  0  0  0  0  0
   -1.9608   36.6263   -5.4368 C   0  0  0  0  0  0  0  0  0  0  0  0
    2.8644   40.4562   -3.3354 C   0  0  0  0  0  0  0  0  0  0  0  0
   -1.3259   34.2923    2.5972 C   0  0  2  0  0  0  0  0  0  0  0  0
   -0.5470   33.9560    3.8539 N   0  0  0  0  0  0  0  0  0  0  0  0
   -1.7500   36.8759   -1.8614 C   0  0  2  0  0  0  0  0  0  0  0  0
    1.7027   37.9123   -1.7419 C   0  0  1  0  0  0  0  0  0  0  0  0
    0.3209   37.9530   -1.6611 O   0  0  0  0  0  0  0  0  0  0  0  0
   -0.7997   33.4626    1.4108 C   0  0  1  0  0  0  0  0  0  0  0  0
   -1.0401   32.1205    1.7087 O   0  0  0  0  0  0  0  0  0  0  0  0
   -0.2499   36.8577   -2.1341 C   0  0  2  0  0  0  0  0  0  0  0  0
    2.4080   39.2155   -1.4367 C   0  0  1  0  0  0  0  0  0  0  0  0
    1.8837   40.2269   -2.2877 N   0  0  0  0  0  0  0  0  0  0  0  0
   -1.5379   33.7797    0.1034 C   0  0  2  0  0  0  0  0  0  0  0  0
   -1.0535   33.0017   -1.0620 N   0  0  0  0  0  0  0  0  0  0  0  0
   -0.2284   36.5632   -3.5706 C   0  0  1  0  0  0  0  0  0  0  0  0
    0.2523   37.7332   -4.2356 O   0  0  0  0  0  0  0  0  0  0  0  0
    2.2123   39.5922   -0.1154 C   0  0  2  0  0  0  0  0  0  0  0  0
    3.1199   40.6262    0.1713 O   0  0  0  0  0  0  0  0  0  0  0  0
   -1.3715   35.2635   -0.1838 C   0  0  1  0  0  0  0  0  0  0  0  0
   -2.0588   35.5518   -1.3914 O   0  0  0  0  0  0  0  0  0  0  0  0
   -1.6026   36.3058   -4.0188 C   0  0  1  0  0  0  0  0  0  0  0  0
   -2.4075   37.0318   -3.0979 O   0  0  0  0  0  0  0  0  0  0  0  0
    2.4693   38.4282    0.8052 C   0  0  1  0  0  0  0  0  0  0  0  0
    2.0362   38.7622    2.0910 O   0  0  0  0  0  0  0  0  0  0  0  0
   -1.9424   36.1056    0.9925 C   0  0  2  0  0  0  0  0  0  0  0  0
   -1.7867   37.4932    0.7001 O   0  0  0  0  0  0  0  0  0  0  0  0
    1.6951   37.2405    0.3441 C   0  0  1  0  0  0  0  0  0  0  0  0
    2.1388   36.9130   -0.9409 O   0  0  0  0  0  0  0  0  0  0  0  0
   -1.1686   35.7649    2.2834 C   0  0  1  0  0  0  0  0  0  0  0  0
   -1.6813   36.5346    3.3832 O   0  0  0  0  0  0  0  0  0  0  0  0
    1.9479   36.0201    1.2513 C   0  0  0  0  0  0  0  0  0  0  0  0
    3.3378   35.7147    1.2483 O   0  0  0  0  0  0  0  0  0  0  0  0
   -2.2816   34.1210    5.3345 N   0  0  0  0  0  0  0  0  0  0  0  0
   -2.3018   32.3329   -2.7020 N   0  0  0  0  0  0  0  0  0  0  0  0
  1  2  1  0  0  0  0
  1 39  1  0  0  0  0
  3  4  1  0  0  0  0
  5  6  1  0  0  0  0
  5 40  1  0  0  0  0
  9 10  1  1  0  0  0
  9 14  1  0  0  0  0
  9 35  1  0  0  0  0
 10  1  1  0  0  0  0
 11 16  1  0  0  0  0
 11 28  1  0  0  0  0
 11 26  1  6  0  0  0
 12 17  1  0  0  0  0
 12 34  1  0  0  0  0
 12 13  1  1  0  0  0
 14 15  1  1  0  0  0
 14 19  1  0  0  0  0
 16 13  1  6  0  0  0
 16 21  1  0  0  0  0
 17 18  1  6  0  0  0
 17 23  1  0  0  0  0
 18  8  1  0  0  0  0
 19 20  1  6  0  0  0
 19 25  1  0  0  0  0
 20  5  1  0  0  0  0
 21  3  1  6  0  0  0
 21 22  1  0  0  0  0
 21 27  1  0  0  0  0
 23 24  1  1  0  0  0
 23 29  1  0  0  0  0
 25 26  1  6  0  0  0
 25 31  1  0  0  0  0
 27  7  1  6  0  0  0
 27 28  1  0  0  0  0
 29 30  1  1  0  0  0
 29 33  1  0  0  0  0
 31 32  1  6  0  0  0
 31 35  1  0  0  0  0
 33 34  1  0  0  0  0
 33 37  1  1  0  0  0
 35 36  1  1  0  0  0
 37 38  1  0  0  0  0
M  END
>  <CHROM.1>
-118.65744115,118.28022495,62.19966666,170.18285030,172.80362911,-103.46068036
113.02075420,-60.02832695,-64.73096159,-169.50114635,-58.84563005,-0.09747961
36.05586270,-0.33521324,-2.22494444,-0.92961457,-1.33826623

>  <Name>
1nta_lig

>  <RI>
0

>  <Rbt.Current_Directory>
/home/itssahil/PROJECTS/Mol_Feturizer/New_Systems/rnas/1nta

>  <Rbt.Executable>
rbdock ($Id: //depot/dev/client3/rdock/2013.1/src/exe/rbdock.cxx#4 $)

>  <Rbt.Library>
libRbt.so (2013.1, Build901 2013/11/27)

>  <Rbt.Parameter_File>
/export/apps/rDock/src/rDock_2013.1_src/data/scripts/dock_solv.prm

>  <Rbt.Receptor>
prm/pocket_docking_6.prm

>  <SCORE>
-27.4569

>  <SCORE.INTER>
-2.13431

>  <SCORE.INTER.CONST>
1

>  <SCORE.INTER.POLAR>
-2.07914

>  <SCORE.INTER.ROT>
11

>  <SCORE.INTER.SOLV>
14.6492

>  <SCORE.INTER.VDW>
-10.3088

>  <SCORE.INTER.norm>
-0.0533577

>  <SCORE.INTRA>
-25.3226

>  <SCORE.INTRA.DIHEDRAL>
-12.8879

>  <SCORE.INTRA.DIHEDRAL.0>
19.0336

>  <SCORE.INTRA.POLAR>
0

>  <SCORE.INTRA.POLAR.0>
0

>  <SCORE.INTRA.REPUL>
0

>  <SCORE.INTRA.REPUL.0>
0

>  <SCORE.INTRA.SOLV>
-3.68351

>  <SCORE.INTRA.SOLV.lig_0>
-97.5861

>  <SCORE.INTRA.VDW>
-17.0369

>  <SCORE.INTRA.VDW.0>
11.7669

>  <SCORE.INTRA.norm>
-0.633065

>  <SCORE.RESTR>
0

>  <SCORE.RESTR.CAVITY>
0

>  <SCORE.RESTR.norm>
0

>  <SCORE.SYSTEM>
0

>  <SCORE.SYSTEM.CONST>
0

>  <SCORE.SYSTEM.DIHEDRAL>
0

>  <SCORE.SYSTEM.SOLV>
0

>  <SCORE.SYSTEM.norm>
0

>  <SCORE.heavy>
40

>  <SCORE.norm>
-0.686423

>  <RMSD>
6.528

$$$$
1nta_lig
 OpenBabel11021811403D
libRbt.so/2013.1/901 2013/11/27
 40 42  0  0  0  0  0  0  0  0999 V2000
   -2.3694   32.4935   -6.8364 C   0  0  0  0  0  0  0  0  0  0  0  0
   -1.6193   32.2179   -7.8372 N   0  0  0  0  0  0  0  0  0  0  0  0
    4.1845   33.1751   -0.1444 C   0  0  0  0  0  0  0  0  0  0  0  0
    5.2245   32.5565   -0.0888 O   0  0  0  0  0  0  0  0  0  0  0  0
   -2.4691   34.2582   -1.1698 C   0  0  0  0  0  0  0  0  0  0  0  0
   -3.6856   34.7130   -1.3215 N   0  0  0  0  0  0  0  0  0  0  0  0
    5.0783   33.6501   -3.3125 C   0  0  0  0  0  0  0  0  0  0  0  0
    5.3350   38.2921    1.0227 C   0  0  0  0  0  0  0  0  0  0  0  0
   -1.6523   31.6859   -4.7307 C   0  0  2  0  0  0  0  0  0  0  0  0
   -2.5287   31.5164   -5.9564 N   0  0  0  0  0  0  0  0  0  0  0  0
    1.8494   34.7130   -2.1570 C   0  0  2  0  0  0  0  0  0  0  0  0
    2.9686   36.2293    0.9157 C   0  0  1  0  0  0  0  0  0  0  0  0
    2.4999   36.0950   -0.3804 O   0  0  0  0  0  0  0  0  0  0  0  0
   -2.0341   32.9768   -3.9818 C   0  0  1  0  0  0  0  0  0  0  0  0
   -3.3493   32.8227   -3.5409 O   0  0  0  0  0  0  0  0  0  0  0  0
    2.5774   34.8515   -0.8243 C   0  0  2  0  0  0  0  0  0  0  0  0
    3.1432   37.6528    1.3971 C   0  0  1  0  0  0  0  0  0  0  0  0
    3.9865   38.3423    0.4829 N   0  0  0  0  0  0  0  0  0  0  0  0
   -1.1613   33.2124   -2.7418 C   0  0  2  0  0  0  0  0  0  0  0  0
   -1.4983   34.4500   -1.9984 N   0  0  0  0  0  0  0  0  0  0  0  0
    3.8760   34.2525   -1.1492 C   0  0  1  0  0  0  0  0  0  0  0  0
    4.8445   35.3030   -1.1262 O   0  0  0  0  0  0  0  0  0  0  0  0
    1.9227   38.3098    1.4675 C   0  0  2  0  0  0  0  0  0  0  0  0
    2.1205   39.4989    2.1901 O   0  0  0  0  0  0  0  0  0  0  0  0
    0.2892   33.2811   -3.1927 C   0  0  1  0  0  0  0  0  0  0  0  0
    1.0918   33.4955   -2.0422 O   0  0  0  0  0  0  0  0  0  0  0  0
    3.8150   33.7067   -2.5108 C   0  0  1  0  0  0  0  0  0  0  0  0
    2.8209   34.4947   -3.1541 O   0  0  0  0  0  0  0  0  0  0  0  0
    0.9067   37.4537    2.1768 C   0  0  1  0  0  0  0  0  0  0  0  0
   -0.3578   38.0278    2.0223 O   0  0  0  0  0  0  0  0  0  0  0  0
    0.6917   31.9614   -3.9103 C   0  0  2  0  0  0  0  0  0  0  0  0
    2.0571   32.0410   -4.3160 O   0  0  0  0  0  0  0  0  0  0  0  0
    0.8808   36.0932    1.5678 C   0  0  1  0  0  0  0  0  0  0  0  0
    2.1489   35.5269    1.7313 O   0  0  0  0  0  0  0  0  0  0  0  0
   -0.2009   31.7668   -5.1539 C   0  0  1  0  0  0  0  0  0  0  0  0
    0.1566   30.5515   -5.8321 O   0  0  0  0  0  0  0  0  0  0  0  0
   -0.1349   35.1790    2.2811 C   0  0  0  0  0  0  0  0  0  0  0  0
   -1.4516   35.6567    2.0297 O   0  0  0  0  0  0  0  0  0  0  0  0
   -2.9376   33.6420   -6.6934 N   0  0  0  0  0  0  0  0  0  0  0  0
   -2.1691   33.5885   -0.1268 N   0  0  0  0  0  0  0  0  0  0  0  0
  1  2  1  0  0  0  0
  1 39  1  0  0  0  0
  3  4  1  0  0  0  0
  5  6  1  0  0  0  0
  5 40  1  0  0  0  0
  9 10  1  6  0  0  0
  9 14  1  0  0  0  0
  9 35  1  0  0  0  0
 10  1  1  0  0  0  0
 11 16  1  0  0  0  0
 11 28  1  0  0  0  0
 11 26  1  1  0  0  0
 12 17  1  0  0  0  0
 12 34  1  0  0  0  0
 12 13  1  6  0  0  0
 14 15  1  1  0  0  0
 14 19  1  0  0  0  0
 16 13  1  6  0  0  0
 16 21  1  0  0  0  0
 17 18  1  6  0  0  0
 17 23  1  0  0  0  0
 18  8  1  0  0  0  0
 19 20  1  6  0  0  0
 19 25  1  0  0  0  0
 20  5  1  0  0  0  0
 21  3  1  1  0  0  0
 21 22  1  0  0  0  0
 21 27  1  0  0  0  0
 23 24  1  1  0  0  0
 23 29  1  0  0  0  0
 25 26  1  1  0  0  0
 25 31  1  0  0  0  0
 27  7  1  6  0  0  0
 27 28  1  0  0  0  0
 29 30  1  6  0  0  0
 29 33  1  0  0  0  0
 31 32  1  6  0  0  0
 31 35  1  0  0  0  0
 33 34  1  0  0  0  0
 33 37  1  1  0  0  0
 35 36  1  1  0  0  0
 37 38  1  0  0  0  0
M  END
>  <CHROM.1>
62.69556324,100.46649737,176.28224778,169.41301020,170.89748020,-96.24066590
84.53983955,-107.74635889,-174.78664004,-120.74477448,67.42796064,0.91054657
34.50925329,-1.64174691,2.05876999,0.01993390,-2.21111835

>  <Name>
1nta_lig

>  <RI>
0

>  <Rbt.Current_Directory>
/home/itssahil/PROJECTS/Mol_Feturizer/New_Systems/rnas/1nta

>  <Rbt.Executable>
rbdock ($Id: //depot/dev/client3/rdock/2013.1/src/exe/rbdock.cxx#4 $)

>  <Rbt.Library>
libRbt.so (2013.1, Build901 2013/11/27)

>  <Rbt.Parameter_File>
/export/apps/rDock/src/rDock_2013.1_src/data/scripts/dock_solv.prm

>  <Rbt.Receptor>
prm/pocket_docking_5.prm

>  <SCORE>
-26.8653

>  <SCORE.INTER>
-6.90017

>  <SCORE.INTER.CONST>
1

>  <SCORE.INTER.POLAR>
-0.531363

>  <SCORE.INTER.ROT>
11

>  <SCORE.INTER.SOLV>
10.5791

>  <SCORE.INTER.VDW>
-17.2886

>  <SCORE.INTER.norm>
-0.172504

>  <SCORE.INTRA>
-19.9652

>  <SCORE.INTRA.DIHEDRAL>
-8.15891

>  <SCORE.INTRA.DIHEDRAL.0>
19.0336

>  <SCORE.INTRA.POLAR>
0

>  <SCORE.INTRA.POLAR.0>
0

>  <SCORE.INTRA.REPUL>
0

>  <SCORE.INTRA.REPUL.0>
0

>  <SCORE.INTRA.SOLV>
-0.37307

>  <SCORE.INTRA.SOLV.lig_0>
-97.5861

>  <SCORE.INTRA.VDW>
-15.6992

>  <SCORE.INTRA.VDW.0>
11.7669

>  <SCORE.INTRA.norm>
-0.499129

>  <SCORE.RESTR>
0

>  <SCORE.RESTR.CAVITY>
0

>  <SCORE.RESTR.norm>
0

>  <SCORE.SYSTEM>
0

>  <SCORE.SYSTEM.CONST>
0

>  <SCORE.SYSTEM.DIHEDRAL>
0

>  <SCORE.SYSTEM.SOLV>
0

>  <SCORE.SYSTEM.norm>
0

>  <SCORE.heavy>
40

>  <SCORE.norm>
-0.671633

>  <RMSD>
6.532

$$$$
1nta_lig
 OpenBabel11021811403D
libRbt.so/2013.1/901 2013/11/27
 40 42  0  0  0  0  0  0  0  0999 V2000
    4.4869   42.1918   -1.5957 C   0  0  0  0  0  0  0  0  0  0  0  0
    4.7990   42.0744   -0.3592 N   0  0  0  0  0  0  0  0  0  0  0  0
   -3.2774   37.4340   -5.1395 C   0  0  0  0  0  0  0  0  0  0  0  0
   -3.9841   37.9361   -5.9855 O   0  0  0  0  0  0  0  0  0  0  0  0
    0.1103   37.5012   -0.3154 C   0  0  0  0  0  0  0  0  0  0  0  0
   -1.0972   37.4366   -0.8131 N   0  0  0  0  0  0  0  0  0  0  0  0
   -0.9495   37.6476   -7.5052 C   0  0  0  0  0  0  0  0  0  0  0  0
   -4.0859   33.6743   -1.2381 C   0  0  0  0  0  0  0  0  0  0  0  0
    3.0345   40.5373   -2.4638 C   0  0  2  0  0  0  0  0  0  0  0  0
    4.4461   41.0608   -2.2839 N   0  0  0  0  0  0  0  0  0  0  0  0
   -0.0717   36.6137   -4.1809 C   0  0  2  0  0  0  0  0  0  0  0  0
   -1.3496   34.4917   -2.5934 C   0  0  1  0  0  0  0  0  0  0  0  0
   -1.5364   34.8024   -3.9299 O   0  0  0  0  0  0  0  0  0  0  0  0
    2.8342   39.2584   -1.6289 C   0  0  1  0  0  0  0  0  0  0  0  0
    2.9832   39.6152   -0.2879 O   0  0  0  0  0  0  0  0  0  0  0  0
   -1.5089   36.1046   -4.1593 C   0  0  2  0  0  0  0  0  0  0  0  0
   -2.0024   33.2082   -2.1294 C   0  0  1  0  0  0  0  0  0  0  0  0
   -3.3880   33.2625   -2.4445 N   0  0  0  0  0  0  0  0  0  0  0  0
    1.4264   38.6696   -1.7912 C   0  0  2  0  0  0  0  0  0  0  0  0
    1.1995   37.4337   -1.0043 N   0  0  0  0  0  0  0  0  0  0  0  0
   -2.0210   36.6535   -5.4191 C   0  0  1  0  0  0  0  0  0  0  0  0
   -2.2568   35.5507   -6.2968 O   0  0  0  0  0  0  0  0  0  0  0  0
   -1.4402   32.1059   -2.7579 C   0  0  2  0  0  0  0  0  0  0  0  0
   -1.8760   30.9580   -2.0742 O   0  0  0  0  0  0  0  0  0  0  0  0
    1.2085   38.3689   -3.2656 C   0  0  1  0  0  0  0  0  0  0  0  0
   -0.0955   37.8282   -3.4103 O   0  0  0  0  0  0  0  0  0  0  0  0
   -0.9867   37.5084   -6.0149 C   0  0  1  0  0  0  0  0  0  0  0  0
    0.2322   36.9797   -5.5073 O   0  0  0  0  0  0  0  0  0  0  0  0
    0.0631   32.1823   -2.7048 C   0  0  1  0  0  0  0  0  0  0  0  0
    0.5973   31.2005   -3.5433 O   0  0  0  0  0  0  0  0  0  0  0  0
    1.3660   39.6670   -4.1075 C   0  0  2  0  0  0  0  0  0  0  0  0
    1.1479   39.3667   -5.4851 O   0  0  0  0  0  0  0  0  0  0  0  0
    0.5176   33.5148   -3.1950 C   0  0  1  0  0  0  0  0  0  0  0  0
   -0.0192   34.4887   -2.3472 O   0  0  0  0  0  0  0  0  0  0  0  0
    2.7947   40.2206   -3.9247 C   0  0  1  0  0  0  0  0  0  0  0  0
    2.9607   41.4213   -4.6966 O   0  0  0  0  0  0  0  0  0  0  0  0
    2.0530   33.6394   -3.1370 C   0  0  0  0  0  0  0  0  0  0  0  0
    2.4350   34.9324   -3.5924 O   0  0  0  0  0  0  0  0  0  0  0  0
    4.2336   43.3329   -2.1399 N   0  0  0  0  0  0  0  0  0  0  0  0
    0.2699   37.6662    0.9391 N   0  0  0  0  0  0  0  0  0  0  0  0
  1  2  1  0  0  0  0
  1 39  1  0  0  0  0
  3  4  1  0  0  0  0
  5  6  1  0  0  0  0
  5 40  1  0  0  0  0
  9 10  1  6  0  0  0
  9 14  1  0  0  0  0
  9 35  1  0  0  0  0
 10  1  1  0  0  0  0
 11 16  1  0  0  0  0
 11 28  1  0  0  0  0
 11 26  1  1  0  0  0
 12 17  1  0  0  0  0
 12 34  1  0  0  0  0
 12 13  1  6  0  0  0
 14 15  1  1  0  0  0
 14 19  1  0  0  0  0
 16 13  1  6  0  0  0
 16 21  1  0  0  0  0
 17 18  1  6  0  0  0
 17 23  1  0  0  0  0
 18  8  1  0  0  0  0
 19 20  1  1  0  0  0
 19 25  1  0  0  0  0
 20  5  1  0  0  0  0
 21  3  1  1  0  0  0
 21 22  1  0  0  0  0
 21 27  1  0  0  0  0
 23 24  1  1  0  0  0
 23 29  1  0  0  0  0
 25 26  1  1  0  0  0
 25 31  1  0  0  0  0
 27  7  1  6  0  0  0
 27 28  1  0  0  0  0
 29 30  1  6  0  0  0
 29 33  1  0  0  0  0
 31 32  1  6  0  0  0
 31 35  1  0  0  0  0
 33 34  1  0  0  0  0
 33 37  1  1  0  0  0
 35 36  1  6  0  0  0
 37 38  1  0  0  0  0
M  END
>  <CHROM.1>
-110.18824682,99.94203310,175.87242975,151.44779664,78.40335314,-98.07305799
130.19504711,72.32987471,-174.96862667,-130.24504661,-179.03337169,0.30833792
36.92877712,-3.14929833,-0.63182660,0.82124172,2.48642361

>  <Name>
1nta_lig

>  <RI>
0

>  <Rbt.Current_Directory>
/home/itssahil/PROJECTS/Mol_Feturizer/New_Systems/rnas/1nta

>  <Rbt.Executable>
rbdock ($Id: //depot/dev/client3/rdock/2013.1/src/exe/rbdock.cxx#4 $)

>  <Rbt.Library>
libRbt.so (2013.1, Build901 2013/11/27)

>  <Rbt.Parameter_File>
/export/apps/rDock/src/rDock_2013.1_src/data/scripts/dock_solv.prm

>  <Rbt.Receptor>
prm/pocket_docking_6.prm

>  <SCORE>
-22.8531

>  <SCORE.INTER>
-2.01531

>  <SCORE.INTER.CONST>
1

>  <SCORE.INTER.POLAR>
-0.824621

>  <SCORE.INTER.ROT>
11

>  <SCORE.INTER.SOLV>
9.71353

>  <SCORE.INTER.VDW>
-12.766

>  <SCORE.INTER.norm>
-0.0503828

>  <SCORE.INTRA>
-20.8378

>  <SCORE.INTRA.DIHEDRAL>
-2.82023

>  <SCORE.INTRA.DIHEDRAL.0>
19.0336

>  <SCORE.INTRA.POLAR>
0

>  <SCORE.INTRA.POLAR.0>
0

>  <SCORE.INTRA.REPUL>
0

>  <SCORE.INTRA.REPUL.0>
0

>  <SCORE.INTRA.SOLV>
-1.85635

>  <SCORE.INTRA.SOLV.lig_0>
-97.5861

>  <SCORE.INTRA.VDW>
-18.4995

>  <SCORE.INTRA.VDW.0>
11.7669

>  <SCORE.INTRA.norm>
-0.520946

>  <SCORE.RESTR>
0

>  <SCORE.RESTR.CAVITY>
0

>  <SCORE.RESTR.norm>
0

>  <SCORE.SYSTEM>
0

>  <SCORE.SYSTEM.CONST>
0

>  <SCORE.SYSTEM.DIHEDRAL>
0

>  <SCORE.SYSTEM.SOLV>
0

>  <SCORE.SYSTEM.norm>
0

>  <SCORE.heavy>
40

>  <SCORE.norm>
-0.571328

>  <RMSD>
6.536

$$$$
1nta_lig
 OpenBabel11021811403D
libRbt.so/2013.1/901 2013/11/27
 40 42  0  0  0  0  0  0  0  0999 V2000
   -2.3291   30.7778   -2.5739 C   0  0  0  0  0  0  0  0  0  0  0  0
   -2.4633   29.9566   -3.5474 N   0  0  0  0  0  0  0  0  0  0  0  0
    4.6731   36.2144    2.2735 C   0  0  0  0  0  0  0  0  0  0  0  0
    4.4980   37.3111    2.7571 O   0  0  0  0  0  0  0  0  0  0  0  0
   -0.2590   34.4554    2.0413 C   0  0  0  0  0  0  0  0  0  0  0  0
    0.6390   33.8834    2.8004 N   0  0  0  0  0  0  0  0  0  0  0  0
    6.5898   33.9749    0.7333 C   0  0  0  0  0  0  0  0  0  0  0  0
    6.2296   40.0945    0.7710 C   0  0  0  0  0  0  0  0  0  0  0  0
   -0.5630   32.2311   -1.9660 C   0  0  2  0  0  0  0  0  0  0  0  0
   -1.7393   31.9257   -2.8727 N   0  0  0  0  0  0  0  0  0  0  0  0
    3.5669   35.1466   -0.8094 C   0  0  2  0  0  0  0  0  0  0  0  0
    3.6527   38.6415   -0.1660 C   0  0  1  0  0  0  0  0  0  0  0  0
    3.9826   37.4523   -0.7941 O   0  0  0  0  0  0  0  0  0  0  0  0
   -0.9152   33.3909   -1.0153 C   0  0  1  0  0  0  0  0  0  0  0  0
   -1.9672   32.9558   -0.2079 O   0  0  0  0  0  0  0  0  0  0  0  0
    3.8593   36.4038    0.0025 C   0  0  2  0  0  0  0  0  0  0  0  0
    4.4138   39.8588   -0.6432 C   0  0  1  0  0  0  0  0  0  0  0  0
    5.8071   39.5985   -0.5280 N   0  0  0  0  0  0  0  0  0  0  0  0
    0.2502   33.7599   -0.0876 C   0  0  2  0  0  0  0  0  0  0  0  0
   -0.0523   34.8769    0.8391 N   0  0  0  0  0  0  0  0  0  0  0  0
    4.9865   35.9520    0.8248 C   0  0  1  0  0  0  0  0  0  0  0  0
    6.1436   36.6669    0.3866 O   0  0  0  0  0  0  0  0  0  0  0  0
    4.1171   40.1462   -1.9681 C   0  0  2  0  0  0  0  0  0  0  0  0
    4.6141   41.4309   -2.2467 O   0  0  0  0  0  0  0  0  0  0  0  0
    1.4404   34.1396   -0.9543 C   0  0  1  0  0  0  0  0  0  0  0  0
    2.5157   34.4762   -0.0917 O   0  0  0  0  0  0  0  0  0  0  0  0
    5.2041   34.5209    0.5795 C   0  0  1  0  0  0  0  0  0  0  0  0
    4.7030   34.3163   -0.7357 O   0  0  0  0  0  0  0  0  0  0  0  0
    2.6273   40.1250   -2.1882 C   0  0  1  0  0  0  0  0  0  0  0  0
    2.3705   40.1767   -3.5607 O   0  0  0  0  0  0  0  0  0  0  0  0
    1.8271   32.9548   -1.8845 C   0  0  2  0  0  0  0  0  0  0  0  0
    2.9508   33.3262   -2.6813 O   0  0  0  0  0  0  0  0  0  0  0  0
    2.0567   38.8562   -1.6525 C   0  0  1  0  0  0  0  0  0  0  0  0
    2.3159   38.8167   -0.2789 O   0  0  0  0  0  0  0  0  0  0  0  0
    0.6346   32.6220   -2.8056 C   0  0  1  0  0  0  0  0  0  0  0  0
    0.9729   31.5288   -3.6747 O   0  0  0  0  0  0  0  0  0  0  0  0
    0.5276   38.8056   -1.8413 C   0  0  0  0  0  0  0  0  0  0  0  0
   -0.0642   39.9091   -1.1652 O   0  0  0  0  0  0  0  0  0  0  0  0
   -2.7348   30.5079   -1.3802 N   0  0  0  0  0  0  0  0  0  0  0  0
   -1.4491   34.6078    2.4736 N   0  0  0  0  0  0  0  0  0  0  0  0
  1  2  1  0  0  0  0
  1 39  1  0  0  0  0
  3  4  1  0  0  0  0
  5  6  1  0  0  0  0
  5 40  1  0  0  0  0
  9 10  1  6  0  0  0
  9 14  1  0  0  0  0
  9 35  1  0  0  0  0
 10  1  1  0  0  0  0
 11 16  1  0  0  0  0
 11 28  1  0  0  0  0
 11 26  1  1  0  0  0
 12 17  1  0  0  0  0
 12 34  1  0  0  0  0
 12 13  1  6  0  0  0
 14 15  1  1  0  0  0
 14 19  1  0  0  0  0
 16 13  1  6  0  0  0
 16 21  1  0  0  0  0
 17 18  1  6  0  0  0
 17 23  1  0  0  0  0
 18  8  1  0  0  0  0
 19 20  1  1  0  0  0
 19 25  1  0  0  0  0
 20  5  1  0  0  0  0
 21  3  1  1  0  0  0
 21 22  1  0  0  0  0
 21 27  1  0  0  0  0
 23 24  1  1  0  0  0
 23 29  1  0  0  0  0
 25 26  1  1  0  0  0
 25 31  1  0  0  0  0
 27  7  1  6  0  0  0
 27 28  1  0  0  0  0
 29 30  1  6  0  0  0
 29 33  1  0  0  0  0
 31 32  1  6  0  0  0
 31 35  1  0  0  0  0
 33 34  1  0  0  0  0
 33 37  1  1  0  0  0
 35 36  1  6  0  0  0
 37 38  1  0  0  0  0
M  END
>  <CHROM.1>
-108.78731024,-126.81697716,129.34830490,148.33455481,152.82036108,-92.82553883
104.57405222,65.27620948,-62.95119482,-166.21892627,-59.26415067,2.13090712
35.71484443,-0.70120551,2.33833748,0.51374514,2.84776420

>  <Name>
1nta_lig

>  <RI>
0

>  <Rbt.Current_Directory>
/home/itssahil/PROJECTS/Mol_Feturizer/New_Systems/rnas/1nta

>  <Rbt.Executable>
rbdock ($Id: //depot/dev/client3/rdock/2013.1/src/exe/rbdock.cxx#4 $)

>  <Rbt.Library>
libRbt.so (2013.1, Build901 2013/11/27)

>  <Rbt.Parameter_File>
/export/apps/rDock/src/rDock_2013.1_src/data/scripts/dock_solv.prm

>  <Rbt.Receptor>
prm/pocket_docking_8.prm

>  <SCORE>
-25.7328

>  <SCORE.INTER>
-5.9364

>  <SCORE.INTER.CONST>
1

>  <SCORE.INTER.POLAR>
-0.343429

>  <SCORE.INTER.ROT>
11

>  <SCORE.INTER.SOLV>
20.8512

>  <SCORE.INTER.VDW>
-20.6966

>  <SCORE.INTER.norm>
-0.14841

>  <SCORE.INTRA>
-19.7986

>  <SCORE.INTRA.DIHEDRAL>
-0.419009

>  <SCORE.INTRA.DIHEDRAL.0>
19.0336

>  <SCORE.INTRA.POLAR>
0

>  <SCORE.INTRA.POLAR.0>
0

>  <SCORE.INTRA.REPUL>
0

>  <SCORE.INTRA.REPUL.0>
0

>  <SCORE.INTRA.SOLV>
-4.86619

>  <SCORE.INTRA.SOLV.lig_0>
-97.5861

>  <SCORE.INTRA.VDW>
-17.156

>  <SCORE.INTRA.VDW.0>
11.7669

>  <SCORE.INTRA.norm>
-0.494964

>  <SCORE.RESTR>
0.00216883

>  <SCORE.RESTR.CAVITY>
0.00216883

>  <SCORE.RESTR.norm>
5.42208e-05

>  <SCORE.SYSTEM>
0

>  <SCORE.SYSTEM.CONST>
0

>  <SCORE.SYSTEM.DIHEDRAL>
0

>  <SCORE.SYSTEM.SOLV>
0

>  <SCORE.SYSTEM.norm>
0

>  <SCORE.heavy>
40

>  <SCORE.norm>
-0.64332

>  <RMSD>
6.542

$$$$
1nta_lig
 OpenBabel11021811403D
libRbt.so/2013.1/901 2013/11/27
 40 42  0  0  0  0  0  0  0  0999 V2000
   -1.4858   30.8687   -5.8540 C   0  0  0  0  0  0  0  0  0  0  0  0
   -2.1063   31.3762   -6.8528 N   0  0  0  0  0  0  0  0  0  0  0  0
    2.7051   35.3744    1.9750 C   0  0  0  0  0  0  0  0  0  0  0  0
    1.6991   34.7077    2.0787 O   0  0  0  0  0  0  0  0  0  0  0  0
    0.6023   36.7621   -4.1563 C   0  0  0  0  0  0  0  0  0  0  0  0
    0.2481   37.1749   -5.3454 N   0  0  0  0  0  0  0  0  0  0  0  0
    5.0968   33.6850    0.3979 C   0  0  0  0  0  0  0  0  0  0  0  0
   -0.8010   37.3044    0.3999 C   0  0  0  0  0  0  0  0  0  0  0  0
   -0.2187   32.2779   -4.4367 C   0  0  2  0  0  0  0  0  0  0  0  0
   -0.2709   31.3482   -5.6333 N   0  0  0  0  0  0  0  0  0  0  0  0
    2.6334   35.5142   -1.4665 C   0  0  2  0  0  0  0  0  0  0  0  0
    1.8258   38.3753   -0.9445 C   0  0  1  0  0  0  0  0  0  0  0  0
    2.9208   37.6396   -0.5234 O   0  0  0  0  0  0  0  0  0  0  0  0
    0.5543   33.5608   -4.7968 C   0  0  1  0  0  0  0  0  0  0  0  0
   -0.1674   34.2075   -5.8012 O   0  0  0  0  0  0  0  0  0  0  0  0
    2.6093   36.3908   -0.2190 C   0  0  2  0  0  0  0  0  0  0  0  0
    0.9028   38.8506    0.1559 C   0  0  1  0  0  0  0  0  0  0  0  0
    0.4890   37.7253    0.9205 N   0  0  0  0  0  0  0  0  0  0  0  0
    0.6592   34.5312   -3.6127 C   0  0  2  0  0  0  0  0  0  0  0  0
    1.4020   35.7764   -3.9226 N   0  0  0  0  0  0  0  0  0  0  0  0
    3.4538   35.6093    0.6905 C   0  0  1  0  0  0  0  0  0  0  0  0
    4.6560   36.3539    0.8968 O   0  0  0  0  0  0  0  0  0  0  0  0
    1.5453   39.7522    0.9927 C   0  0  2  0  0  0  0  0  0  0  0  0
    0.5646   40.3656    1.7909 O   0  0  0  0  0  0  0  0  0  0  0  0
    1.3543   33.8074   -2.4704 C   0  0  1  0  0  0  0  0  0  0  0  0
    1.4454   34.7078   -1.3774 O   0  0  0  0  0  0  0  0  0  0  0  0
    3.7996   34.3404    0.0379 C   0  0  1  0  0  0  0  0  0  0  0  0
    3.7299   34.6368   -1.3514 O   0  0  0  0  0  0  0  0  0  0  0  0
    2.2617   40.8005    0.1825 C   0  0  1  0  0  0  0  0  0  0  0  0
    3.0883   41.5427    1.0299 O   0  0  0  0  0  0  0  0  0  0  0  0
    0.5526   32.5350   -2.0740 C   0  0  2  0  0  0  0  0  0  0  0  0
    1.2141   31.8761   -0.9953 O   0  0  0  0  0  0  0  0  0  0  0  0
    3.1160   40.1442   -0.8481 C   0  0  1  0  0  0  0  0  0  0  0  0
    2.2790   39.4079   -1.6922 O   0  0  0  0  0  0  0  0  0  0  0  0
    0.4785   31.5832   -3.2863 C   0  0  1  0  0  0  0  0  0  0  0  0
   -0.2586   30.3994   -2.9395 O   0  0  0  0  0  0  0  0  0  0  0  0
    3.8518   41.1868   -1.7129 C   0  0  0  0  0  0  0  0  0  0  0  0
    4.5207   40.5225   -2.7788 O   0  0  0  0  0  0  0  0  0  0  0  0
   -2.0028   29.9488   -5.1132 N   0  0  0  0  0  0  0  0  0  0  0  0
    0.1658   37.3651   -3.1208 N   0  0  0  0  0  0  0  0  0  0  0  0
  1  2  1  0  0  0  0
  1 39  1  0  0  0  0
  3  4  1  0  0  0  0
  5  6  1  0  0  0  0
  5 40  1  0  0  0  0
  9 10  1  6  0  0  0
  9 14  1  0  0  0  0
  9 35  1  0  0  0  0
 10  1  1  0  0  0  0
 11 16  1  0  0  0  0
 11 28  1  0  0  0  0
 11 26  1  1  0  0  0
 12 17  1  0  0  0  0
 12 34  1  0  0  0  0
 12 13  1  1  0  0  0
 14 15  1  6  0  0  0
 14 19  1  0  0  0  0
 16 13  1  6  0  0  0
 16 21  1  0  0  0  0
 17 18  1  1  0  0  0
 17 23  1  0  0  0  0
 18  8  1  0  0  0  0
 19 20  1  6  0  0  0
 19 25  1  0  0  0  0
 20  5  1  0  0  0  0
 21  3  1  1  0  0  0
 21 22  1  0  0  0  0
 21 27  1  0  0  0  0
 23 24  1  1  0  0  0
 23 29  1  0  0  0  0
 25 26  1  1  0  0  0
 25 31  1  0  0  0  0
 27  7  1  1  0  0  0
 27 28  1  0  0  0  0
 29 30  1  1  0  0  0
 29 33  1  0  0  0  0
 31 32  1  1  0  0  0
 31 35  1  0  0  0  0
 33 34  1  0  0  0  0
 33 37  1  6  0  0  0
 35 36  1  1  0  0  0
 37 38  1  0  0  0  0
M  END
>  <CHROM.1>
-132.94671565,105.54707166,-178.48292582,77.56659526,85.61118744,-96.06659180
100.28787916,-98.15166150,65.76427942,-87.00509889,-172.95500575,1.50561859
35.78719048,-1.75336349,2.35145160,1.09070553,2.97963173

>  <Name>
1nta_lig

>  <RI>
0

>  <Rbt.Current_Directory>
/home/itssahil/PROJECTS/Mol_Feturizer/New_Systems/rnas/1nta

>  <Rbt.Executable>
rbdock ($Id: //depot/dev/client3/rdock/2013.1/src/exe/rbdock.cxx#4 $)

>  <Rbt.Library>
libRbt.so (2013.1, Build901 2013/11/27)

>  <Rbt.Parameter_File>
/export/apps/rDock/src/rDock_2013.1_src/data/scripts/dock_solv.prm

>  <Rbt.Receptor>
prm/pocket_docking_5.prm

>  <SCORE>
-25.1809

>  <SCORE.INTER>
-3.71664

>  <SCORE.INTER.CONST>
1

>  <SCORE.INTER.POLAR>
-0.824621

>  <SCORE.INTER.ROT>
11

>  <SCORE.INTER.SOLV>
15.0881

>  <SCORE.INTER.VDW>
-15.6917

>  <SCORE.INTER.norm>
-0.0929161

>  <SCORE.INTRA>
-21.4642

>  <SCORE.INTRA.DIHEDRAL>
-7.58335

>  <SCORE.INTRA.DIHEDRAL.0>
19.0336

>  <SCORE.INTRA.POLAR>
0

>  <SCORE.INTRA.POLAR.0>
0

>  <SCORE.INTRA.REPUL>
0

>  <SCORE.INTRA.REPUL.0>
0

>  <SCORE.INTRA.SOLV>
0.427628

>  <SCORE.INTRA.SOLV.lig_0>
-97.5861

>  <SCORE.INTRA.VDW>
-17.8864

>  <SCORE.INTRA.VDW.0>
11.7669

>  <SCORE.INTRA.norm>
-0.536606

>  <SCORE.RESTR>
0

>  <SCORE.RESTR.CAVITY>
0

>  <SCORE.RESTR.norm>
0

>  <SCORE.SYSTEM>
0

>  <SCORE.SYSTEM.CONST>
0

>  <SCORE.SYSTEM.DIHEDRAL>
0

>  <SCORE.SYSTEM.SOLV>
0

>  <SCORE.SYSTEM.norm>
0

>  <SCORE.heavy>
40

>  <SCORE.norm>
-0.629522

>  <RMSD>
6.560

$$$$
1nta_lig
 OpenBabel11021811403D
libRbt.so/2013.1/901 2013/11/27
 40 42  0  0  0  0  0  0  0  0999 V2000
    4.5919   43.0199    0.1548 C   0  0  0  0  0  0  0  0  0  0  0  0
    5.1168   43.8804   -0.6351 N   0  0  0  0  0  0  0  0  0  0  0  0
   -1.5070   35.8807   -2.1992 C   0  0  0  0  0  0  0  0  0  0  0  0
   -1.7181   36.7627   -1.3962 O   0  0  0  0  0  0  0  0  0  0  0  0
   -0.1940   38.9712    0.5283 C   0  0  0  0  0  0  0  0  0  0  0  0
   -1.3019   39.4583    0.0333 N   0  0  0  0  0  0  0  0  0  0  0  0
   -2.1173   36.7647   -5.3468 C   0  0  0  0  0  0  0  0  0  0  0  0
    1.0300   31.9408   -3.7525 C   0  0  0  0  0  0  0  0  0  0  0  0
    3.4214   41.2991   -0.9719 C   0  0  2  0  0  0  0  0  0  0  0  0
    4.6689   41.7586   -0.2427 N   0  0  0  0  0  0  0  0  0  0  0  0
    1.0224   37.5789   -3.8075 C   0  0  2  0  0  0  0  0  0  0  0  0
    1.6351   34.4014   -2.2308 C   0  0  1  0  0  0  0  0  0  0  0  0
    1.7064   35.4377   -3.1466 O   0  0  0  0  0  0  0  0  0  0  0  0
    2.7400   40.1609   -0.1889 C   0  0  1  0  0  0  0  0  0  0  0  0
    2.3392   40.6892    1.0393 O   0  0  0  0  0  0  0  0  0  0  0  0
    0.7365   36.3233   -2.9909 C   0  0  2  0  0  0  0  0  0  0  0  0
    2.5236   33.2133   -2.5268 C   0  0  1  0  0  0  0  0  0  0  0  0
    2.2367   32.7460   -3.8388 N   0  0  0  0  0  0  0  0  0  0  0  0
    1.4811   39.6389   -0.8942 C   0  0  2  0  0  0  0  0  0  0  0  0
    0.8014   38.5382   -0.1700 N   0  0  0  0  0  0  0  0  0  0  0  0
   -0.6328   36.0161   -3.4171 C   0  0  1  0  0  0  0  0  0  0  0  0
   -0.5785   34.8074   -4.1775 O   0  0  0  0  0  0  0  0  0  0  0  0
    3.8650   33.5623   -2.4560 C   0  0  2  0  0  0  0  0  0  0  0  0
    4.6142   32.3734   -2.4448 O   0  0  0  0  0  0  0  0  0  0  0  0
    1.8837   39.1518   -2.2772 C   0  0  1  0  0  0  0  0  0  0  0  0
    0.7157   38.6737   -2.9261 O   0  0  0  0  0  0  0  0  0  0  0  0
   -1.1062   37.0951   -4.2930 C   0  0  1  0  0  0  0  0  0  0  0  0
    0.0850   37.6282   -4.8583 O   0  0  0  0  0  0  0  0  0  0  0  0
    4.1384   34.3406   -1.1958 C   0  0  1  0  0  0  0  0  0  0  0  0
    5.4251   34.8808   -1.2661 O   0  0  0  0  0  0  0  0  0  0  0  0
    2.5319   40.3104   -3.0872 C   0  0  2  0  0  0  0  0  0  0  0  0
    2.8928   39.8371   -4.3837 O   0  0  0  0  0  0  0  0  0  0  0  0
    3.1651   35.4634   -1.0757 C   0  0  1  0  0  0  0  0  0  0  0  0
    1.8822   34.9118   -1.0024 O   0  0  0  0  0  0  0  0  0  0  0  0
    3.7968   40.7993   -2.3508 C   0  0  1  0  0  0  0  0  0  0  0  0
    4.4116   41.8707   -3.0849 O   0  0  0  0  0  0  0  0  0  0  0  0
    3.4002   36.2734    0.2146 C   0  0  0  0  0  0  0  0  0  0  0  0
    3.1665   35.4364    1.3415 O   0  0  0  0  0  0  0  0  0  0  0  0
    4.0212   43.3544    1.2615 N   0  0  0  0  0  0  0  0  0  0  0  0
   -0.0329   38.9227    1.7924 N   0  0  0  0  0  0  0  0  0  0  0  0
  1  2  1  0  0  0  0
  1 39  1  0  0  0  0
  3  4  1  0  0  0  0
  5  6  1  0  0  0  0
  5 40  1  0  0  0  0
  9 10  1  1  0  0  0
  9 14  1  0  0  0  0
  9 35  1  0  0  0  0
 10  1  1  0  0  0  0
 11 16  1  0  0  0  0
 11 28  1  0  0  0  0
 11 26  1  1  0  0  0
 12 17  1  0  0  0  0
 12 34  1  0  0  0  0
 12 13  1  6  0  0  0
 14 15  1  1  0  0  0
 14 19  1  0  0  0  0
 16 13  1  6  0  0  0
 16 21  1  0  0  0  0
 17 18  1  6  0  0  0
 17 23  1  0  0  0  0
 18  8  1  0  0  0  0
 19 20  1  1  0  0  0
 19 25  1  0  0  0  0
 20  5  1  0  0  0  0
 21  3  1  1  0  0  0
 21 22  1  0  0  0  0
 21 27  1  0  0  0  0
 23 24  1  1  0  0  0
 23 29  1  0  0  0  0
 25 26  1  6  0  0  0
 25 31  1  0  0  0  0
 27  7  1  6  0  0  0
 27 28  1  0  0  0  0
 29 30  1  6  0  0  0
 29 33  1  0  0  0  0
 31 32  1  6  0  0  0
 31 35  1  0  0  0  0
 33 34  1  0  0  0  0
 33 37  1  1  0  0  0
 35 36  1  6  0  0  0
 37 38  1  0  0  0  0
M  END
>  <CHROM.1>
-116.96551713,-95.39399622,95.95765866,167.64365541,167.87048903,-79.91497544
98.17032916,68.04985031,61.59105699,-147.29139511,-63.57475795,1.91850218
37.56383179,-1.82585385,-1.29667949,0.45588061,-2.94673119

>  <Name>
1nta_lig

>  <RI>
0

>  <Rbt.Current_Directory>
/home/itssahil/PROJECTS/Mol_Feturizer/New_Systems/rnas/1nta

>  <Rbt.Executable>
rbdock ($Id: //depot/dev/client3/rdock/2013.1/src/exe/rbdock.cxx#4 $)

>  <Rbt.Library>
libRbt.so (2013.1, Build901 2013/11/27)

>  <Rbt.Parameter_File>
/export/apps/rDock/src/rDock_2013.1_src/data/scripts/dock_solv.prm

>  <Rbt.Receptor>
prm/pocket_docking_8.prm

>  <SCORE>
-28.3007

>  <SCORE.INTER>
-6.36542

>  <SCORE.INTER.CONST>
1

>  <SCORE.INTER.POLAR>
-1.35078

>  <SCORE.INTER.ROT>
11

>  <SCORE.INTER.SOLV>
11.8127

>  <SCORE.INTER.VDW>
-14.6119

>  <SCORE.INTER.norm>
-0.159135

>  <SCORE.INTRA>
-21.9353

>  <SCORE.INTRA.DIHEDRAL>
-5.00422

>  <SCORE.INTRA.DIHEDRAL.0>
19.0336

>  <SCORE.INTRA.POLAR>
0

>  <SCORE.INTRA.POLAR.0>
0

>  <SCORE.INTRA.REPUL>
0

>  <SCORE.INTRA.REPUL.0>
0

>  <SCORE.INTRA.SOLV>
-2.27542

>  <SCORE.INTRA.SOLV.lig_0>
-97.5861

>  <SCORE.INTRA.VDW>
-18.2955

>  <SCORE.INTRA.VDW.0>
11.7669

>  <SCORE.INTRA.norm>
-0.548383

>  <SCORE.RESTR>
0

>  <SCORE.RESTR.CAVITY>
0

>  <SCORE.RESTR.norm>
0

>  <SCORE.SYSTEM>
0

>  <SCORE.SYSTEM.CONST>
0

>  <SCORE.SYSTEM.DIHEDRAL>
0

>  <SCORE.SYSTEM.SOLV>
0

>  <SCORE.SYSTEM.norm>
0

>  <SCORE.heavy>
40

>  <SCORE.norm>
-0.707519

>  <RMSD>
6.569

$$$$
1nta_lig
 OpenBabel11021811403D
libRbt.so/2013.1/901 2013/11/27
 40 42  0  0  0  0  0  0  0  0999 V2000
   -1.8893   31.5096   -8.2597 C   0  0  0  0  0  0  0  0  0  0  0  0
   -2.0966   30.2502   -8.3647 N   0  0  0  0  0  0  0  0  0  0  0  0
    3.3868   33.1080   -0.4126 C   0  0  0  0  0  0  0  0  0  0  0  0
    3.2385   33.1805    0.7875 O   0  0  0  0  0  0  0  0  0  0  0  0
   -0.6032   36.6215   -4.8286 C   0  0  0  0  0  0  0  0  0  0  0  0
   -1.0355   37.2439   -5.8942 N   0  0  0  0  0  0  0  0  0  0  0  0
    4.8478   33.6705   -3.3469 C   0  0  0  0  0  0  0  0  0  0  0  0
    5.1257   38.0036    1.1405 C   0  0  0  0  0  0  0  0  0  0  0  0
   -0.7152   32.3653   -6.3916 C   0  0  2  0  0  0  0  0  0  0  0  0
   -0.6889   31.8557   -7.8194 N   0  0  0  0  0  0  0  0  0  0  0  0
    1.6290   35.0849   -2.6195 C   0  0  2  0  0  0  0  0  0  0  0  0
    2.5211   36.2330    0.6848 C   0  0  1  0  0  0  0  0  0  0  0  0
    2.1410   36.2406   -0.6468 O   0  0  0  0  0  0  0  0  0  0  0  0
   -0.1792   33.8084   -6.3350 C   0  0  1  0  0  0  0  0  0  0  0  0
   -1.0527   34.6010   -7.0812 O   0  0  0  0  0  0  0  0  0  0  0  0
    2.1363   35.0314   -1.1825 C   0  0  2  0  0  0  0  0  0  0  0  0
    2.8536   37.5874    1.2711 C   0  0  1  0  0  0  0  0  0  0  0  0
    3.8534   38.1990    0.4659 N   0  0  0  0  0  0  0  0  0  0  0  0
   -0.1608   34.3690   -4.9067 C   0  0  2  0  0  0  0  0  0  0  0  0
    0.3543   35.7561   -4.8141 N   0  0  0  0  0  0  0  0  0  0  0  0
    3.3862   34.2834   -1.3529 C   0  0  1  0  0  0  0  0  0  0  0  0
    4.4603   35.1872   -1.0851 O   0  0  0  0  0  0  0  0  0  0  0  0
    1.7345   38.4077    1.3004 C   0  0  2  0  0  0  0  0  0  0  0  0
    2.0385   39.5135    2.1128 O   0  0  0  0  0  0  0  0  0  0  0  0
    0.7068   33.4571   -4.0538 C   0  0  1  0  0  0  0  0  0  0  0  0
    0.7175   33.9779   -2.7338 O   0  0  0  0  0  0  0  0  0  0  0  0
    3.4855   33.8451   -2.7506 C   0  0  1  0  0  0  0  0  0  0  0  0
    2.7182   34.8039   -3.4681 O   0  0  0  0  0  0  0  0  0  0  0  0
    0.5571   37.6677    1.8787 C   0  0  1  0  0  0  0  0  0  0  0  0
   -0.5994   38.4252    1.6755 O   0  0  0  0  0  0  0  0  0  0  0  0
    0.1431   32.0078   -4.0724 C   0  0  2  0  0  0  0  0  0  0  0  0
    0.9636   31.1706   -3.2592 O   0  0  0  0  0  0  0  0  0  0  0  0
    0.3901   36.3615    1.1798 C   0  0  1  0  0  0  0  0  0  0  0  0
    1.5505   35.6108    1.3927 O   0  0  0  0  0  0  0  0  0  0  0  0
    0.1504   31.4786   -5.5219 C   0  0  1  0  0  0  0  0  0  0  0  0
   -0.3667   30.1384   -5.5601 O   0  0  0  0  0  0  0  0  0  0  0  0
   -0.7954   35.5638    1.7582 C   0  0  0  0  0  0  0  0  0  0  0  0
   -2.0138   36.1838    1.3630 O   0  0  0  0  0  0  0  0  0  0  0  0
   -2.7874   32.3856   -8.5566 N   0  0  0  0  0  0  0  0  0  0  0  0
   -1.1235   36.8755   -3.6923 N   0  0  0  0  0  0  0  0  0  0  0  0
  1  2  1  0  0  0  0
  1 39  1  0  0  0  0
  3  4  1  0  0  0  0
  5  6  1  0  0  0  0
  5 40  1  0  0  0  0
  9 10  1  6  0  0  0
  9 14  1  0  0  0  0
  9 35  1  0  0  0  0
 10  1  1  0  0  0  0
 11 16  1  0  0  0  0
 11 28  1  0  0  0  0
 11 26  1  1  0  0  0
 12 17  1  0  0  0  0
 12 34  1  0  0  0  0
 12 13  1  6  0  0  0
 14 15  1  6  0  0  0
 14 19  1  0  0  0  0
 16 13  1  6  0  0  0
 16 21  1  0  0  0  0
 17 18  1  6  0  0  0
 17 23  1  0  0  0  0
 18  8  1  0  0  0  0
 19 20  1  6  0  0  0
 19 25  1  0  0  0  0
 20  5  1  0  0  0  0
 21  3  1  1  0  0  0
 21 22  1  0  0  0  0
 21 27  1  0  0  0  0
 23 24  1  1  0  0  0
 23 29  1  0  0  0  0
 25 26  1  1  0  0  0
 25 31  1  0  0  0  0
 27  7  1  6  0  0  0
 27 28  1  0  0  0  0
 29 30  1  6  0  0  0
 29 33  1  0  0  0  0
 31 32  1  1  0  0  0
 31 35  1  0  0  0  0
 33 34  1  0  0  0  0
 33 37  1  1  0  0  0
 35 36  1  1  0  0  0
 37 38  1  0  0  0  0
M  END
>  <CHROM.1>
-120.50683882,-106.68080697,-149.08332735,166.62827831,176.49202510,-100.02635549
95.16134734,-95.12159439,-55.75170544,-79.23338330,71.77209689,0.99291022
34.81383447,-2.49267931,1.94260147,0.55237485,-2.31621740

>  <Name>
1nta_lig

>  <RI>
0

>  <Rbt.Current_Directory>
/home/itssahil/PROJECTS/Mol_Feturizer/New_Systems/rnas/1nta

>  <Rbt.Executable>
rbdock ($Id: //depot/dev/client3/rdock/2013.1/src/exe/rbdock.cxx#4 $)

>  <Rbt.Library>
libRbt.so (2013.1, Build901 2013/11/27)

>  <Rbt.Parameter_File>
/export/apps/rDock/src/rDock_2013.1_src/data/scripts/dock_solv.prm

>  <Rbt.Receptor>
prm/pocket_docking_7.prm

>  <SCORE>
-29.2603

>  <SCORE.INTER>
-9.42894

>  <SCORE.INTER.CONST>
1

>  <SCORE.INTER.POLAR>
-0.691381

>  <SCORE.INTER.ROT>
11

>  <SCORE.INTER.SOLV>
12.3565

>  <SCORE.INTER.VDW>
-19.0335

>  <SCORE.INTER.norm>
-0.235723

>  <SCORE.INTRA>
-19.8314

>  <SCORE.INTRA.DIHEDRAL>
-8.17753

>  <SCORE.INTRA.DIHEDRAL.0>
19.0336

>  <SCORE.INTRA.POLAR>
0

>  <SCORE.INTRA.POLAR.0>
0

>  <SCORE.INTRA.REPUL>
0

>  <SCORE.INTRA.REPUL.0>
0

>  <SCORE.INTRA.SOLV>
-3.06044

>  <SCORE.INTRA.SOLV.lig_0>
-97.5861

>  <SCORE.INTRA.VDW>
-14.2124

>  <SCORE.INTRA.VDW.0>
11.7669

>  <SCORE.INTRA.norm>
-0.495785

>  <SCORE.RESTR>
0

>  <SCORE.RESTR.CAVITY>
0

>  <SCORE.RESTR.norm>
0

>  <SCORE.SYSTEM>
0

>  <SCORE.SYSTEM.CONST>
0

>  <SCORE.SYSTEM.DIHEDRAL>
0

>  <SCORE.SYSTEM.SOLV>
0

>  <SCORE.SYSTEM.norm>
0

>  <SCORE.heavy>
40

>  <SCORE.norm>
-0.731509

>  <RMSD>
6.572

$$$$
1nta_lig
 OpenBabel11021811403D
libRbt.so/2013.1/901 2013/11/27
 40 42  0  0  0  0  0  0  0  0999 V2000
    5.7061   43.3392   -1.0838 C   0  0  0  0  0  0  0  0  0  0  0  0
    6.5699   43.0335   -0.1891 N   0  0  0  0  0  0  0  0  0  0  0  0
   -2.1634   37.4307   -2.4720 C   0  0  0  0  0  0  0  0  0  0  0  0
   -2.5016   36.4410   -1.8610 O   0  0  0  0  0  0  0  0  0  0  0  0
    2.9479   37.9650    0.3866 C   0  0  0  0  0  0  0  0  0  0  0  0
    1.7229   37.8597    0.8317 N   0  0  0  0  0  0  0  0  0  0  0  0
   -1.9976   39.3427   -5.1883 C   0  0  0  0  0  0  0  0  0  0  0  0
   -2.0846   33.0198   -5.1452 C   0  0  0  0  0  0  0  0  0  0  0  0
    4.1992   41.7198   -1.9250 C   0  0  2  0  0  0  0  0  0  0  0  0
    5.5298   42.4379   -2.0384 N   0  0  0  0  0  0  0  0  0  0  0  0
    0.9898   37.9604   -3.7547 C   0  0  2  0  0  0  0  0  0  0  0  0
   -0.1956   34.6243   -3.1363 C   0  0  1  0  0  0  0  0  0  0  0  0
    0.4227   35.6873   -3.7730 O   0  0  0  0  0  0  0  0  0  0  0  0
    4.4173   40.2764   -1.4330 C   0  0  1  0  0  0  0  0  0  0  0  0
    4.9629   40.3570   -0.1509 O   0  0  0  0  0  0  0  0  0  0  0  0
    0.0388   36.8599   -3.2968 C   0  0  2  0  0  0  0  0  0  0  0  0
   -0.1643   33.3119   -3.8883 C   0  0  1  0  0  0  0  0  0  0  0  0
   -0.7188   33.5152   -5.1818 N   0  0  0  0  0  0  0  0  0  0  0  0
    3.1029   39.4925   -1.3216 C   0  0  2  0  0  0  0  0  0  0  0  0
    3.2759   38.0960   -0.8548 N   0  0  0  0  0  0  0  0  0  0  0  0
   -1.2574   37.4329   -3.6741 C   0  0  1  0  0  0  0  0  0  0  0  0
   -1.7774   36.6375   -4.7413 O   0  0  0  0  0  0  0  0  0  0  0  0
    1.1353   32.8442   -4.0236 C   0  0  2  0  0  0  0  0  0  0  0  0
    1.0643   31.5086   -4.4550 O   0  0  0  0  0  0  0  0  0  0  0  0
    2.4430   39.4820   -2.6914 C   0  0  1  0  0  0  0  0  0  0  0  0
    1.2268   38.7592   -2.5819 O   0  0  0  0  0  0  0  0  0  0  0  0
   -1.0415   38.7966   -4.1736 C   0  0  1  0  0  0  0  0  0  0  0  0
    0.2920   38.7759   -4.6677 O   0  0  0  0  0  0  0  0  0  0  0  0
    1.8556   32.9081   -2.7023 C   0  0  1  0  0  0  0  0  0  0  0  0
    3.2150   32.6639   -2.9142 O   0  0  0  0  0  0  0  0  0  0  0  0
    2.1805   40.9375   -3.1723 C   0  0  2  0  0  0  0  0  0  0  0  0
    1.5523   40.9066   -4.4528 O   0  0  0  0  0  0  0  0  0  0  0  0
    1.7106   34.2704   -2.1145 C   0  0  1  0  0  0  0  0  0  0  0  0
    0.3479   34.5025   -1.9033 O   0  0  0  0  0  0  0  0  0  0  0  0
    3.5249   41.6871   -3.2801 C   0  0  1  0  0  0  0  0  0  0  0  0
    3.3034   43.0355   -3.7245 O   0  0  0  0  0  0  0  0  0  0  0  0
    2.4190   34.3700   -0.7490 C   0  0  0  0  0  0  0  0  0  0  0  0
    1.8378   33.4316    0.1491 O   0  0  0  0  0  0  0  0  0  0  0  0
    5.0530   44.4506   -1.0637 N   0  0  0  0  0  0  0  0  0  0  0  0
    3.9224   37.9661    1.2093 N   0  0  0  0  0  0  0  0  0  0  0  0
  1  2  1  0  0  0  0
  1 39  1  0  0  0  0
  3  4  1  0  0  0  0
  5  6  1  0  0  0  0
  5 40  1  0  0  0  0
  9 10  1  6  0  0  0
  9 14  1  0  0  0  0
  9 35  1  0  0  0  0
 10  1  1  0  0  0  0
 11 16  1  0  0  0  0
 11 28  1  0  0  0  0
 11 26  1  1  0  0  0
 12 17  1  0  0  0  0
 12 34  1  0  0  0  0
 12 13  1  6  0  0  0
 14 15  1  1  0  0  0
 14 19  1  0  0  0  0
 16 13  1  6  0  0  0
 16 21  1  0  0  0  0
 17 18  1  6  0  0  0
 17 23  1  0  0  0  0
 18  8  1  0  0  0  0
 19 20  1  6  0  0  0
 19 25  1  0  0  0  0
 20  5  1  0  0  0  0
 21  3  1  1  0  0  0
 21 22  1  0  0  0  0
 21 27  1  0  0  0  0
 23 24  1  1  0  0  0
 23 29  1  0  0  0  0
 25 26  1  1  0  0  0
 25 31  1  0  0  0  0
 27  7  1  6  0  0  0
 27 28  1  0  0  0  0
 29 30  1  6  0  0  0
 29 33  1  0  0  0  0
 31 32  1  6  0  0  0
 31 35  1  0  0  0  0
 33 34  1  0  0  0  0
 33 37  1  1  0  0  0
 35 36  1  1  0  0  0
 37 38  1  0  0  0  0
M  END
>  <CHROM.1>
-107.19517447,108.24107376,157.44787370,161.13460895,165.17537208,-100.78511257
102.93223421,79.57231599,-59.91514533,-141.96392261,-60.47306154,1.64132452
37.65902258,-2.55009450,-0.92232032,0.66720703,2.94001394

>  <Name>
1nta_lig

>  <RI>
0

>  <Rbt.Current_Directory>
/home/itssahil/PROJECTS/Mol_Feturizer/New_Systems/rnas/1nta

>  <Rbt.Executable>
rbdock ($Id: //depot/dev/client3/rdock/2013.1/src/exe/rbdock.cxx#4 $)

>  <Rbt.Library>
libRbt.so (2013.1, Build901 2013/11/27)

>  <Rbt.Parameter_File>
/export/apps/rDock/src/rDock_2013.1_src/data/scripts/dock_solv.prm

>  <Rbt.Receptor>
prm/pocket_docking_7.prm

>  <SCORE>
-22.3182

>  <SCORE.INTER>
-0.0707522

>  <SCORE.INTER.CONST>
1

>  <SCORE.INTER.POLAR>
-0.0274277

>  <SCORE.INTER.ROT>
11

>  <SCORE.INTER.SOLV>
10.4105

>  <SCORE.INTER.VDW>
-14.3592

>  <SCORE.INTER.norm>
-0.0017688

>  <SCORE.INTRA>
-22.2518

>  <SCORE.INTRA.DIHEDRAL>
-4.85155

>  <SCORE.INTRA.DIHEDRAL.0>
19.0336

>  <SCORE.INTRA.POLAR>
0

>  <SCORE.INTRA.POLAR.0>
0

>  <SCORE.INTRA.REPUL>
0

>  <SCORE.INTRA.REPUL.0>
0

>  <SCORE.INTRA.SOLV>
-3.52495

>  <SCORE.INTRA.SOLV.lig_0>
-97.5861

>  <SCORE.INTRA.VDW>
-18.0635

>  <SCORE.INTRA.VDW.0>
11.7669

>  <SCORE.INTRA.norm>
-0.556294

>  <SCORE.RESTR>
0.00426549

>  <SCORE.RESTR.CAVITY>
0.00426549

>  <SCORE.RESTR.norm>
0.000106637

>  <SCORE.SYSTEM>
0

>  <SCORE.SYSTEM.CONST>
0

>  <SCORE.SYSTEM.DIHEDRAL>
0

>  <SCORE.SYSTEM.SOLV>
0

>  <SCORE.SYSTEM.norm>
0

>  <SCORE.heavy>
40

>  <SCORE.norm>
-0.557956

>  <RMSD>
6.588

$$$$
1nta_lig
 OpenBabel11021811403D
libRbt.so/2013.1/901 2013/11/27
 40 42  0  0  0  0  0  0  0  0999 V2000
   -0.7252   34.3719   -6.4464 C   0  0  0  0  0  0  0  0  0  0  0  0
   -0.8816   33.1794   -6.0066 N   0  0  0  0  0  0  0  0  0  0  0  0
    4.6781   39.9073   -0.0888 C   0  0  0  0  0  0  0  0  0  0  0  0
    4.9532   38.7441   -0.2855 O   0  0  0  0  0  0  0  0  0  0  0  0
    1.9448   35.7946   -0.5467 C   0  0  0  0  0  0  0  0  0  0  0  0
    2.7985   36.6090    0.0171 N   0  0  0  0  0  0  0  0  0  0  0  0
    4.6772   41.5065   -3.0049 C   0  0  0  0  0  0  0  0  0  0  0  0
    0.6084   40.7008    4.1445 C   0  0  0  0  0  0  0  0  0  0  0  0
   -0.0009   35.9837   -4.8721 C   0  0  2  0  0  0  0  0  0  0  0  0
   -1.1383   35.3369   -5.6384 N   0  0  0  0  0  0  0  0  0  0  0  0
    1.7058   39.8692   -1.8301 C   0  0  2  0  0  0  0  0  0  0  0  0
    0.5238   40.1665    0.9240 C   0  0  1  0  0  0  0  0  0  0  0  0
    1.4718   40.9190    0.2513 O   0  0  0  0  0  0  0  0  0  0  0  0
   -0.1641   35.7226   -3.3628 C   0  0  1  0  0  0  0  0  0  0  0  0
   -0.0700   34.3433   -3.1714 O   0  0  0  0  0  0  0  0  0  0  0  0
    2.3020   40.1750   -0.4603 C   0  0  2  0  0  0  0  0  0  0  0  0
   -0.2413   40.9022    2.0020 C   0  0  1  0  0  0  0  0  0  0  0  0
    0.6901   41.4701    2.9142 N   0  0  0  0  0  0  0  0  0  0  0  0
    0.9495   36.3759   -2.5334 C   0  0  2  0  0  0  0  0  0  0  0  0
    0.8213   36.1488   -1.0739 N   0  0  0  0  0  0  0  0  0  0  0  0
    3.6259   40.6817   -0.8364 C   0  0  1  0  0  0  0  0  0  0  0  0
    3.6532   42.0740   -0.5158 O   0  0  0  0  0  0  0  0  0  0  0  0
   -1.0174   41.9171    1.4601 C   0  0  2  0  0  0  0  0  0  0  0  0
   -1.9081   42.3505    2.4570 O   0  0  0  0  0  0  0  0  0  0  0  0
    0.9270   37.8710   -2.8090 C   0  0  1  0  0  0  0  0  0  0  0  0
    1.9606   38.4694   -2.0426 O   0  0  0  0  0  0  0  0  0  0  0  0
    3.7907   40.5359   -2.2880 C   0  0  1  0  0  0  0  0  0  0  0  0
    2.4608   40.5703   -2.7913 O   0  0  0  0  0  0  0  0  0  0  0  0
   -1.7971   41.4060    0.2771 C   0  0  1  0  0  0  0  0  0  0  0  0
   -2.3749   42.4903   -0.3884 O   0  0  0  0  0  0  0  0  0  0  0  0
    1.1362   38.1406   -4.3264 C   0  0  2  0  0  0  0  0  0  0  0  0
    1.1225   39.5474   -4.5632 O   0  0  0  0  0  0  0  0  0  0  0  0
   -0.8788   40.7109   -0.6695 C   0  0  1  0  0  0  0  0  0  0  0  0
   -0.3096   39.6264    0.0051 O   0  0  0  0  0  0  0  0  0  0  0  0
   -0.0069   37.4768   -5.1224 C   0  0  1  0  0  0  0  0  0  0  0  0
    0.1681   37.7156   -6.5286 O   0  0  0  0  0  0  0  0  0  0  0  0
   -1.6444   40.1548   -1.8865 C   0  0  0  0  0  0  0  0  0  0  0  0
   -2.0679   41.2373   -2.7074 O   0  0  0  0  0  0  0  0  0  0  0  0
   -0.2057   34.6214   -7.5996 N   0  0  0  0  0  0  0  0  0  0  0  0
    2.2131   34.5502   -0.6238 N   0  0  0  0  0  0  0  0  0  0  0  0
  1  2  1  0  0  0  0
  1 39  1  0  0  0  0
  3  4  1  0  0  0  0
  5  6  1  0  0  0  0
  5 40  1  0  0  0  0
  9 10  1  6  0  0  0
  9 14  1  0  0  0  0
  9 35  1  0  0  0  0
 10  1  1  0  0  0  0
 11 16  1  0  0  0  0
 11 28  1  0  0  0  0
 11 26  1  6  0  0  0
 12 17  1  0  0  0  0
 12 34  1  0  0  0  0
 12 13  1  6  0  0  0
 14 15  1  6  0  0  0
 14 19  1  0  0  0  0
 16 13  1  6  0  0  0
 16 21  1  0  0  0  0
 17 18  1  1  0  0  0
 17 23  1  0  0  0  0
 18  8  1  0  0  0  0
 19 20  1  1  0  0  0
 19 25  1  0  0  0  0
 20  5  1  0  0  0  0
 21  3  1  1  0  0  0
 21 22  1  0  0  0  0
 21 27  1  0  0  0  0
 23 24  1  1  0  0  0
 23 29  1  0  0  0  0
 25 26  1  1  0  0  0
 25 31  1  0  0  0  0
 27  7  1  6  0  0  0
 27 28  1  0  0  0  0
 29 30  1  6  0  0  0
 29 33  1  0  0  0  0
 31 32  1  1  0  0  0
 31 35  1  0  0  0  0
 33 34  1  0  0  0  0
 33 37  1  6  0  0  0
 35 36  1  6  0  0  0
 37 38  1  0  0  0  0
M  END
>  <CHROM.1>
-115.63695465,100.33286694,147.66424218,166.08470087,84.98482268,-108.00919963
133.63167318,94.59442633,69.49688459,-157.82553157,70.66216329,0.84559496
38.81140837,-1.75169730,1.64733543,0.14301041,-2.34052123

>  <Name>
1nta_lig

>  <RI>
0

>  <Rbt.Current_Directory>
/home/itssahil/PROJECTS/Mol_Feturizer/New_Systems/rnas/1nta

>  <Rbt.Executable>
rbdock ($Id: //depot/dev/client3/rdock/2013.1/src/exe/rbdock.cxx#4 $)

>  <Rbt.Library>
libRbt.so (2013.1, Build901 2013/11/27)

>  <Rbt.Parameter_File>
/export/apps/rDock/src/rDock_2013.1_src/data/scripts/dock_solv.prm

>  <Rbt.Receptor>
prm/pocket_docking_5.prm

>  <SCORE>
-17.2285

>  <SCORE.INTER>
2.6153

>  <SCORE.INTER.CONST>
1

>  <SCORE.INTER.POLAR>
0

>  <SCORE.INTER.ROT>
11

>  <SCORE.INTER.SOLV>
8.32827

>  <SCORE.INTER.VDW>
-11.9659

>  <SCORE.INTER.norm>
0.0653825

>  <SCORE.INTRA>
-19.8438

>  <SCORE.INTRA.DIHEDRAL>
-4.11392

>  <SCORE.INTRA.DIHEDRAL.0>
19.0336

>  <SCORE.INTRA.POLAR>
0

>  <SCORE.INTRA.POLAR.0>
0

>  <SCORE.INTRA.REPUL>
0

>  <SCORE.INTRA.REPUL.0>
0

>  <SCORE.INTRA.SOLV>
-1.98459

>  <SCORE.INTRA.SOLV.lig_0>
-97.5861

>  <SCORE.INTRA.VDW>
-16.7945

>  <SCORE.INTRA.VDW.0>
11.7669

>  <SCORE.INTRA.norm>
-0.496094

>  <SCORE.RESTR>
0

>  <SCORE.RESTR.CAVITY>
0

>  <SCORE.RESTR.norm>
0

>  <SCORE.SYSTEM>
0

>  <SCORE.SYSTEM.CONST>
0

>  <SCORE.SYSTEM.DIHEDRAL>
0

>  <SCORE.SYSTEM.SOLV>
0

>  <SCORE.SYSTEM.norm>
0

>  <SCORE.heavy>
40

>  <SCORE.norm>
-0.430712

>  <RMSD>
6.601

$$$$
1nta_lig
 OpenBabel11021811403D
libRbt.so/2013.1/901 2013/11/27
 40 42  0  0  0  0  0  0  0  0999 V2000
   -3.6932   30.5297   -1.7311 C   0  0  0  0  0  0  0  0  0  0  0  0
   -4.8978   30.4402   -2.1566 N   0  0  0  0  0  0  0  0  0  0  0  0
    5.0498   34.5511    0.6740 C   0  0  0  0  0  0  0  0  0  0  0  0
    6.1255   33.9942    0.6821 O   0  0  0  0  0  0  0  0  0  0  0  0
   -0.9726   34.7963    1.6840 C   0  0  0  0  0  0  0  0  0  0  0  0
   -0.0076   34.4307    2.4870 N   0  0  0  0  0  0  0  0  0  0  0  0
    5.2501   34.0106   -2.6015 C   0  0  0  0  0  0  0  0  0  0  0  0
    6.6244   38.2916    1.2402 C   0  0  0  0  0  0  0  0  0  0  0  0
   -1.6527   31.7278   -1.6889 C   0  0  2  0  0  0  0  0  0  0  0  0
   -2.8880   31.2941   -2.4538 N   0  0  0  0  0  0  0  0  0  0  0  0
    2.2246   35.2908   -1.1533 C   0  0  2  0  0  0  0  0  0  0  0  0
    3.4584   37.7140    1.1482 C   0  0  1  0  0  0  0  0  0  0  0  0
    3.0744   37.1888   -0.0741 O   0  0  0  0  0  0  0  0  0  0  0  0
   -1.8968   33.0942   -1.0208 C   0  0  1  0  0  0  0  0  0  0  0  0
   -2.9263   32.9209   -0.0945 O   0  0  0  0  0  0  0  0  0  0  0  0
    3.1840   35.8716   -0.1202 C   0  0  2  0  0  0  0  0  0  0  0  0
    4.3975   38.8980    1.0783 C   0  0  1  0  0  0  0  0  0  0  0  0
    5.5354   38.5315    0.3082 N   0  0  0  0  0  0  0  0  0  0  0  0
   -0.6682   33.5950   -0.2499 C   0  0  2  0  0  0  0  0  0  0  0  0
   -0.8661   34.9114    0.4029 N   0  0  0  0  0  0  0  0  0  0  0  0
    4.4452   35.2392   -0.5205 C   0  0  1  0  0  0  0  0  0  0  0  0
    5.2918   36.2700   -1.0332 O   0  0  0  0  0  0  0  0  0  0  0  0
    3.7822   39.9895    0.4815 C   0  0  2  0  0  0  0  0  0  0  0  0
    4.5903   41.1150    0.7167 O   0  0  0  0  0  0  0  0  0  0  0  0
    0.4933   33.6925   -1.2263 C   0  0  1  0  0  0  0  0  0  0  0  0
    1.6272   34.1525   -0.5077 O   0  0  0  0  0  0  0  0  0  0  0  0
    4.1704   34.2836   -1.6007 C   0  0  1  0  0  0  0  0  0  0  0  0
    2.9968   34.7933   -2.2218 O   0  0  0  0  0  0  0  0  0  0  0  0
    2.4190   40.2153    1.0811 C   0  0  1  0  0  0  0  0  0  0  0  0
    1.7329   41.1549    0.3073 O   0  0  0  0  0  0  0  0  0  0  0  0
    0.7717   32.3044   -1.8700 C   0  0  2  0  0  0  0  0  0  0  0  0
    1.8700   32.4139   -2.7740 O   0  0  0  0  0  0  0  0  0  0  0  0
    1.6447   38.9415    1.0665 C   0  0  1  0  0  0  0  0  0  0  0  0
    2.3379   38.0103    1.8462 O   0  0  0  0  0  0  0  0  0  0  0  0
   -0.4819   31.8419   -2.6419 C   0  0  1  0  0  0  0  0  0  0  0  0
   -0.2440   30.5598   -3.2456 O   0  0  0  0  0  0  0  0  0  0  0  0
    0.2480   39.1274    1.6918 C   0  0  0  0  0  0  0  0  0  0  0  0
    0.3920   39.5944    3.0283 O   0  0  0  0  0  0  0  0  0  0  0  0
   -3.2856   29.9150   -0.6737 N   0  0  0  0  0  0  0  0  0  0  0  0
   -2.1301   35.0456    2.1577 N   0  0  0  0  0  0  0  0  0  0  0  0
  1  2  1  0  0  0  0
  1 39  1  0  0  0  0
  3  4  1  0  0  0  0
  5  6  1  0  0  0  0
  5 40  1  0  0  0  0
  9 10  1  6  0  0  0
  9 14  1  0  0  0  0
  9 35  1  0  0  0  0
 10  1  1  0  0  0  0
 11 16  1  0  0  0  0
 11 28  1  0  0  0  0
 11 26  1  1  0  0  0
 12 17  1  0  0  0  0
 12 34  1  0  0  0  0
 12 13  1  6  0  0  0
 14 15  1  1  0  0  0
 14 19  1  0  0  0  0
 16 13  1  6  0  0  0
 16 21  1  0  0  0  0
 17 18  1  6  0  0  0
 17 23  1  0  0  0  0
 18  8  1  0  0  0  0
 19 20  1  6  0  0  0
 19 25  1  0  0  0  0
 20  5  1  0  0  0  0
 21  3  1  1  0  0  0
 21 22  1  0  0  0  0
 21 27  1  0  0  0  0
 23 24  1  1  0  0  0
 23 29  1  0  0  0  0
 25 26  1  1  0  0  0
 25 31  1  0  0  0  0
 27  7  1  6  0  0  0
 27 28  1  0  0  0  0
 29 30  1  6  0  0  0
 29 33  1  0  0  0  0
 31 32  1  6  0  0  0
 31 35  1  0  0  0  0
 33 34  1  0  0  0  0
 33 37  1  1  0  0  0
 35 36  1  1  0  0  0
 37 38  1  0  0  0  0
M  END
>  <CHROM.1>
-93.08474664,161.10974804,166.50602468,132.31452271,154.79488772,-103.53742063
107.41447523,67.77562746,-176.15634329,-127.92255835,-58.34302979,1.47792985
35.30595364,-0.23661125,2.26601833,-0.21592953,-2.65272868

>  <Name>
1nta_lig

>  <RI>
0

>  <Rbt.Current_Directory>
/home/itssahil/PROJECTS/Mol_Feturizer/New_Systems/rnas/1nta

>  <Rbt.Executable>
rbdock ($Id: //depot/dev/client3/rdock/2013.1/src/exe/rbdock.cxx#4 $)

>  <Rbt.Library>
libRbt.so (2013.1, Build901 2013/11/27)

>  <Rbt.Parameter_File>
/export/apps/rDock/src/rDock_2013.1_src/data/scripts/dock_solv.prm

>  <Rbt.Receptor>
prm/pocket_docking_7.prm

>  <SCORE>
-25.6565

>  <SCORE.INTER>
-7.02281

>  <SCORE.INTER.CONST>
1

>  <SCORE.INTER.POLAR>
-0.871615

>  <SCORE.INTER.ROT>
11

>  <SCORE.INTER.SOLV>
16.9507

>  <SCORE.INTER.VDW>
-18.3601

>  <SCORE.INTER.norm>
-0.17557

>  <SCORE.INTRA>
-18.6337

>  <SCORE.INTRA.DIHEDRAL>
2.2342

>  <SCORE.INTRA.DIHEDRAL.0>
19.0336

>  <SCORE.INTRA.POLAR>
0

>  <SCORE.INTRA.POLAR.0>
0

>  <SCORE.INTRA.REPUL>
0

>  <SCORE.INTRA.REPUL.0>
0

>  <SCORE.INTRA.SOLV>
-3.91471

>  <SCORE.INTRA.SOLV.lig_0>
-97.5861

>  <SCORE.INTRA.VDW>
-17.7934

>  <SCORE.INTRA.VDW.0>
11.7669

>  <SCORE.INTRA.norm>
-0.465842

>  <SCORE.RESTR>
0

>  <SCORE.RESTR.CAVITY>
0

>  <SCORE.RESTR.norm>
0

>  <SCORE.SYSTEM>
0

>  <SCORE.SYSTEM.CONST>
0

>  <SCORE.SYSTEM.DIHEDRAL>
0

>  <SCORE.SYSTEM.SOLV>
0

>  <SCORE.SYSTEM.norm>
0

>  <SCORE.heavy>
40

>  <SCORE.norm>
-0.641412

>  <RMSD>
6.606

$$$$
1nta_lig
 OpenBabel11021811403D
libRbt.so/2013.1/901 2013/11/27
 40 42  0  0  0  0  0  0  0  0999 V2000
    0.3362   31.3958   -5.0506 C   0  0  0  0  0  0  0  0  0  0  0  0
    0.4780   31.6016   -6.3066 N   0  0  0  0  0  0  0  0  0  0  0  0
   -0.3809   39.9392    0.1866 C   0  0  0  0  0  0  0  0  0  0  0  0
   -1.0621   39.7644   -0.7997 O   0  0  0  0  0  0  0  0  0  0  0  0
   -0.3993   37.4738   -4.5308 C   0  0  0  0  0  0  0  0  0  0  0  0
   -1.4812   37.6870   -3.8280 N   0  0  0  0  0  0  0  0  0  0  0  0
   -1.0069   37.5847    2.4506 C   0  0  0  0  0  0  0  0  0  0  0  0
    2.6875   40.5855   -3.3045 C   0  0  0  0  0  0  0  0  0  0  0  0
    0.6932   33.1159   -3.4650 C   0  0  2  0  0  0  0  0  0  0  0  0
    1.2487   31.9596   -4.2733 N   0  0  0  0  0  0  0  0  0  0  0  0
    1.4158   37.0177   -0.1377 C   0  0  2  0  0  0  0  0  0  0  0  0
    3.6692   38.7467   -0.8637 C   0  0  1  0  0  0  0  0  0  0  0  0
    2.8204   38.8575    0.2247 O   0  0  0  0  0  0  0  0  0  0  0  0
    0.9643   34.4473   -4.1908 C   0  0  1  0  0  0  0  0  0  0  0  0
    0.2681   34.4058   -5.3997 O   0  0  0  0  0  0  0  0  0  0  0  0
    1.5720   38.5329   -0.0672 C   0  0  2  0  0  0  0  0  0  0  0  0
    4.0580   40.0543   -1.5178 C   0  0  1  0  0  0  0  0  0  0  0  0
    2.8730   40.7555   -1.8731 N   0  0  0  0  0  0  0  0  0  0  0  0
    0.4430   35.6577   -3.4048 C   0  0  2  0  0  0  0  0  0  0  0  0
    0.6914   36.9579   -4.0726 N   0  0  0  0  0  0  0  0  0  0  0  0
    0.4750   38.8871    0.8395 C   0  0  1  0  0  0  0  0  0  0  0  0
    1.0642   39.3514    2.0558 O   0  0  0  0  0  0  0  0  0  0  0  0
    4.8059   40.8423   -0.6541 C   0  0  2  0  0  0  0  0  0  0  0  0
    5.3730   41.8824   -1.4100 O   0  0  0  0  0  0  0  0  0  0  0  0
    1.1173   35.6605   -2.0420 C   0  0  1  0  0  0  0  0  0  0  0  0
    0.6291   36.7793   -1.3183 O   0  0  0  0  0  0  0  0  0  0  0  0
   -0.3027   37.6768    1.1325 C   0  0  1  0  0  0  0  0  0  0  0  0
    0.6306   36.6172    0.9617 O   0  0  0  0  0  0  0  0  0  0  0  0
    5.9017   40.0281   -0.0179 C   0  0  1  0  0  0  0  0  0  0  0  0
    6.4791   40.7721    1.0143 O   0  0  0  0  0  0  0  0  0  0  0  0
    0.8089   34.3359   -1.2875 C   0  0  2  0  0  0  0  0  0  0  0  0
    1.4407   34.3619   -0.0086 O   0  0  0  0  0  0  0  0  0  0  0  0
    5.3292   38.7819    0.5667 C   0  0  1  0  0  0  0  0  0  0  0  0
    4.7579   38.0439   -0.4746 O   0  0  0  0  0  0  0  0  0  0  0  0
    1.3565   33.1468   -2.1044 C   0  0  1  0  0  0  0  0  0  0  0  0
    1.0819   31.9121   -1.4225 O   0  0  0  0  0  0  0  0  0  0  0  0
    6.4252   37.9102    1.2111 C   0  0  0  0  0  0  0  0  0  0  0  0
    6.8925   38.5457    2.3955 O   0  0  0  0  0  0  0  0  0  0  0  0
   -0.6255   30.6839   -4.5704 N   0  0  0  0  0  0  0  0  0  0  0  0
   -0.3844   37.7616   -5.7731 N   0  0  0  0  0  0  0  0  0  0  0  0
  1  2  1  0  0  0  0
  1 39  1  0  0  0  0
  3  4  1  0  0  0  0
  5  6  1  0  0  0  0
  5 40  1  0  0  0  0
  9 10  1  6  0  0  0
  9 14  1  0  0  0  0
  9 35  1  0  0  0  0
 10  1  1  0  0  0  0
 11 16  1  0  0  0  0
 11 28  1  0  0  0  0
 11 26  1  6  0  0  0
 12 17  1  0  0  0  0
 12 34  1  0  0  0  0
 12 13  1  1  0  0  0
 14 15  1  6  0  0  0
 14 19  1  0  0  0  0
 16 13  1  1  0  0  0
 16 21  1  0  0  0  0
 17 18  1  1  0  0  0
 17 23  1  0  0  0  0
 18  8  1  0  0  0  0
 19 20  1  6  0  0  0
 19 25  1  0  0  0  0
 20  5  1  0  0  0  0
 21  3  1  6  0  0  0
 21 22  1  0  0  0  0
 21 27  1  0  0  0  0
 23 24  1  6  0  0  0
 23 29  1  0  0  0  0
 25 26  1  1  0  0  0
 25 31  1  0  0  0  0
 27  7  1  1  0  0  0
 27 28  1  0  0  0  0
 29 30  1  1  0  0  0
 29 33  1  0  0  0  0
 31 32  1  1  0  0  0
 31 35  1  0  0  0  0
 33 34  1  0  0  0  0
 33 37  1  6  0  0  0
 35 36  1  1  0  0  0
 37 38  1  0  0  0  0
M  END
>  <CHROM.1>
-95.32554409,109.27452951,138.85736648,103.46962274,77.41524652,-102.60454462
108.62247513,53.83494291,66.91338739,-167.83498923,70.57255108,1.85506852
37.04832255,-1.47727250,-2.09519764,-0.45354021,0.33921268

>  <Name>
1nta_lig

>  <RI>
0

>  <Rbt.Current_Directory>
/home/itssahil/PROJECTS/Mol_Feturizer/New_Systems/rnas/1nta

>  <Rbt.Executable>
rbdock ($Id: //depot/dev/client3/rdock/2013.1/src/exe/rbdock.cxx#4 $)

>  <Rbt.Library>
libRbt.so (2013.1, Build901 2013/11/27)

>  <Rbt.Parameter_File>
/export/apps/rDock/src/rDock_2013.1_src/data/scripts/dock_solv.prm

>  <Rbt.Receptor>
prm/pocket_docking_6.prm

>  <SCORE>
-25.7526

>  <SCORE.INTER>
-6.69784

>  <SCORE.INTER.CONST>
1

>  <SCORE.INTER.POLAR>
0

>  <SCORE.INTER.ROT>
11

>  <SCORE.INTER.SOLV>
18.7943

>  <SCORE.INTER.VDW>
-21.6633

>  <SCORE.INTER.norm>
-0.167446

>  <SCORE.INTRA>
-19.0547

>  <SCORE.INTRA.DIHEDRAL>
-0.921425

>  <SCORE.INTRA.DIHEDRAL.0>
19.0336

>  <SCORE.INTRA.POLAR>
0

>  <SCORE.INTRA.POLAR.0>
0

>  <SCORE.INTRA.REPUL>
0

>  <SCORE.INTRA.REPUL.0>
0

>  <SCORE.INTRA.SOLV>
-4.55224

>  <SCORE.INTRA.SOLV.lig_0>
-97.5861

>  <SCORE.INTRA.VDW>
-16.3179

>  <SCORE.INTRA.VDW.0>
11.7669

>  <SCORE.INTRA.norm>
-0.476369

>  <SCORE.RESTR>
0

>  <SCORE.RESTR.CAVITY>
0

>  <SCORE.RESTR.norm>
0

>  <SCORE.SYSTEM>
0

>  <SCORE.SYSTEM.CONST>
0

>  <SCORE.SYSTEM.DIHEDRAL>
0

>  <SCORE.SYSTEM.SOLV>
0

>  <SCORE.SYSTEM.norm>
0

>  <SCORE.heavy>
40

>  <SCORE.norm>
-0.643815

>  <RMSD>
6.636

$$$$
1nta_lig
 OpenBabel11021811403D
libRbt.so/2013.1/901 2013/11/27
 40 42  0  0  0  0  0  0  0  0999 V2000
   -0.9344   33.5190    2.9671 C   0  0  0  0  0  0  0  0  0  0  0  0
   -0.4908   32.3335    3.1622 N   0  0  0  0  0  0  0  0  0  0  0  0
    2.2945   41.6547   -0.0386 C   0  0  0  0  0  0  0  0  0  0  0  0
    2.4346   42.8100    0.2975 O   0  0  0  0  0  0  0  0  0  0  0  0
    0.3960   39.5349    2.9275 C   0  0  0  0  0  0  0  0  0  0  0  0
   -0.6104   39.2720    3.7199 N   0  0  0  0  0  0  0  0  0  0  0  0
    5.6038   41.6061    0.2888 C   0  0  0  0  0  0  0  0  0  0  0  0
    2.0624   41.4900   -5.3505 C   0  0  0  0  0  0  0  0  0  0  0  0
    0.5410   35.0856    1.9825 C   0  0  2  0  0  0  0  0  0  0  0  0
   -0.5811   34.0789    1.8198 N   0  0  0  0  0  0  0  0  0  0  0  0
    3.7866   38.5567   -0.2495 C   0  0  2  0  0  0  0  0  0  0  0  0
    1.4889   39.5797   -2.7916 C   0  0  1  0  0  0  0  0  0  0  0  0
    2.6641   39.1092   -2.2303 O   0  0  0  0  0  0  0  0  0  0  0  0
   -0.0038   36.5167    1.8151 C   0  0  1  0  0  0  0  0  0  0  0  0
   -0.9164   36.7327    2.8488 O   0  0  0  0  0  0  0  0  0  0  0  0
    2.8122   39.4821   -0.9701 C   0  0  2  0  0  0  0  0  0  0  0  0
    1.4264   39.5280   -4.3023 C   0  0  1  0  0  0  0  0  0  0  0  0
    2.5493   40.2241   -4.8283 N   0  0  0  0  0  0  0  0  0  0  0  0
    1.0955   37.5792    1.9469 C   0  0  2  0  0  0  0  0  0  0  0  0
    0.6069   38.9698    1.7864 N   0  0  0  0  0  0  0  0  0  0  0  0
    3.3746   40.7956   -0.6395 C   0  0  1  0  0  0  0  0  0  0  0  0
    3.8929   41.3511   -1.8498 O   0  0  0  0  0  0  0  0  0  0  0  0
    1.4541   38.2178   -4.7591 C   0  0  2  0  0  0  0  0  0  0  0  0
    1.0979   38.2333   -6.1185 O   0  0  0  0  0  0  0  0  0  0  0  0
    2.1524   37.2972    0.8908 C   0  0  1  0  0  0  0  0  0  0  0  0
    3.1678   38.2801    1.0194 O   0  0  0  0  0  0  0  0  0  0  0  0
    4.4876   40.6082    0.2995 C   0  0  1  0  0  0  0  0  0  0  0  0
    4.9563   39.2945    0.0210 O   0  0  0  0  0  0  0  0  0  0  0  0
    0.4706   37.3740   -3.9914 C   0  0  1  0  0  0  0  0  0  0  0  0
    0.6885   36.0288   -4.3001 O   0  0  0  0  0  0  0  0  0  0  0  0
    2.7369   35.8690    1.0839 C   0  0  2  0  0  0  0  0  0  0  0  0
    3.7329   35.6274    0.0914 O   0  0  0  0  0  0  0  0  0  0  0  0
    0.6829   37.5589   -2.5274 C   0  0  1  0  0  0  0  0  0  0  0  0
    0.4587   38.9066   -2.2293 O   0  0  0  0  0  0  0  0  0  0  0  0
    1.6039   34.8321    0.9346 C   0  0  1  0  0  0  0  0  0  0  0  0
    2.1248   33.5042    1.1089 O   0  0  0  0  0  0  0  0  0  0  0  0
   -0.3203   36.7252   -1.7059 C   0  0  0  0  0  0  0  0  0  0  0  0
   -1.6427   37.1597   -2.0017 O   0  0  0  0  0  0  0  0  0  0  0  0
   -1.6716   34.1323    3.8288 N   0  0  0  0  0  0  0  0  0  0  0  0
    1.2453   40.4272    3.2574 N   0  0  0  0  0  0  0  0  0  0  0  0
  1  2  1  0  0  0  0
  1 39  1  0  0  0  0
  3  4  1  0  0  0  0
  5  6  1  0  0  0  0
  5 40  1  0  0  0  0
  9 10  1  6  0  0  0
  9 14  1  0  0  0  0
  9 35  1  0  0  0  0
 10  1  1  0  0  0  0
 11 16  1  0  0  0  0
 11 28  1  0  0  0  0
 11 26  1  1  0  0  0
 12 17  1  0  0  0  0
 12 34  1  0  0  0  0
 12 13  1  1  0  0  0
 14 15  1  1  0  0  0
 14 19  1  0  0  0  0
 16 13  1  6  0  0  0
 16 21  1  0  0  0  0
 17 18  1  6  0  0  0
 17 23  1  0  0  0  0
 18  8  1  0  0  0  0
 19 20  1  6  0  0  0
 19 25  1  0  0  0  0
 20  5  1  0  0  0  0
 21  3  1  1  0  0  0
 21 22  1  0  0  0  0
 21 27  1  0  0  0  0
 23 24  1  6  0  0  0
 23 29  1  0  0  0  0
 25 26  1  1  0  0  0
 25 31  1  0  0  0  0
 27  7  1  6  0  0  0
 27 28  1  0  0  0  0
 29 30  1  1  0  0  0
 29 33  1  0  0  0  0
 31 32  1  6  0  0  0
 31 35  1  0  0  0  0
 33 34  1  0  0  0  0
 33 37  1  1  0  0  0
 35 36  1  1  0  0  0
 37 38  1  0  0  0  0
M  END
>  <CHROM.1>
-107.46946275,-102.19827096,78.91997187,163.78947697,158.66492362,-105.93010575
97.63131284,-73.82564798,-177.43346883,-149.57130267,-61.62274613,1.54044397
38.01585894,-0.36053104,2.30044030,1.05890595,1.67640688

>  <Name>
1nta_lig

>  <RI>
0

>  <Rbt.Current_Directory>
/home/itssahil/PROJECTS/Mol_Feturizer/New_Systems/rnas/1nta

>  <Rbt.Executable>
rbdock ($Id: //depot/dev/client3/rdock/2013.1/src/exe/rbdock.cxx#4 $)

>  <Rbt.Library>
libRbt.so (2013.1, Build901 2013/11/27)

>  <Rbt.Parameter_File>
/export/apps/rDock/src/rDock_2013.1_src/data/scripts/dock_solv.prm

>  <Rbt.Receptor>
prm/pocket_docking_5.prm

>  <SCORE>
-23.7507

>  <SCORE.INTER>
-0.00199218

>  <SCORE.INTER.CONST>
1

>  <SCORE.INTER.POLAR>
0

>  <SCORE.INTER.ROT>
11

>  <SCORE.INTER.SOLV>
16.1431

>  <SCORE.INTER.VDW>
-16.3157

>  <SCORE.INTER.norm>
-4.98044e-05

>  <SCORE.INTRA>
-23.7526

>  <SCORE.INTRA.DIHEDRAL>
-6.1285

>  <SCORE.INTRA.DIHEDRAL.0>
19.0336

>  <SCORE.INTRA.POLAR>
0

>  <SCORE.INTRA.POLAR.0>
0

>  <SCORE.INTRA.REPUL>
0

>  <SCORE.INTRA.REPUL.0>
0

>  <SCORE.INTRA.SOLV>
-3.17834

>  <SCORE.INTRA.SOLV.lig_0>
-97.5861

>  <SCORE.INTRA.VDW>
-19.0991

>  <SCORE.INTRA.VDW.0>
11.7669

>  <SCORE.INTRA.norm>
-0.593814

>  <SCORE.RESTR>
0.00384066

>  <SCORE.RESTR.CAVITY>
0.00384066

>  <SCORE.RESTR.norm>
9.60166e-05

>  <SCORE.SYSTEM>
0

>  <SCORE.SYSTEM.CONST>
0

>  <SCORE.SYSTEM.DIHEDRAL>
0

>  <SCORE.SYSTEM.SOLV>
0

>  <SCORE.SYSTEM.norm>
0

>  <SCORE.heavy>
40

>  <SCORE.norm>
-0.593768

>  <RMSD>
6.643

$$$$
1nta_lig
 OpenBabel11021811403D
libRbt.so/2013.1/901 2013/11/27
 40 42  0  0  0  0  0  0  0  0999 V2000
    3.9891   42.8493    0.5004 C   0  0  0  0  0  0  0  0  0  0  0  0
    4.6025   43.8454   -0.0207 N   0  0  0  0  0  0  0  0  0  0  0  0
   -1.4921   35.7529   -2.1298 C   0  0  0  0  0  0  0  0  0  0  0  0
   -2.6392   35.3660   -2.0878 O   0  0  0  0  0  0  0  0  0  0  0  0
   -0.5744   38.9547    0.4283 C   0  0  0  0  0  0  0  0  0  0  0  0
   -1.7072   39.5054    0.0771 N   0  0  0  0  0  0  0  0  0  0  0  0
   -2.2492   36.3357   -5.3155 C   0  0  0  0  0  0  0  0  0  0  0  0
    0.9549   31.9862   -3.7347 C   0  0  0  0  0  0  0  0  0  0  0  0
    3.0233   41.2325   -0.9327 C   0  0  2  0  0  0  0  0  0  0  0  0
    4.1986   41.6800   -0.0857 N   0  0  0  0  0  0  0  0  0  0  0  0
    0.8595   37.4971   -3.9453 C   0  0  2  0  0  0  0  0  0  0  0  0
    1.6774   34.4294   -2.2309 C   0  0  1  0  0  0  0  0  0  0  0  0
    1.7196   35.4712   -3.1422 O   0  0  0  0  0  0  0  0  0  0  0  0
    2.2584   40.1009   -0.2205 C   0  0  1  0  0  0  0  0  0  0  0  0
    1.7457   40.6329    0.9636 O   0  0  0  0  0  0  0  0  0  0  0  0
    0.6903   36.2932   -3.0249 C   0  0  2  0  0  0  0  0  0  0  0  0
    2.5286   33.2284   -2.5801 C   0  0  1  0  0  0  0  0  0  0  0  0
    2.1664   32.7760   -3.8786 N   0  0  0  0  0  0  0  0  0  0  0  0
    1.0688   39.5911   -1.0449 C   0  0  2  0  0  0  0  0  0  0  0  0
    0.3116   38.4970   -0.3910 N   0  0  0  0  0  0  0  0  0  0  0  0
   -0.6627   35.8539   -3.3819 C   0  0  1  0  0  0  0  0  0  0  0  0
   -0.5375   34.5956   -4.0474 O   0  0  0  0  0  0  0  0  0  0  0  0
    3.8777   33.5538   -2.5763 C   0  0  2  0  0  0  0  0  0  0  0  0
    4.6055   32.3521   -2.6116 O   0  0  0  0  0  0  0  0  0  0  0  0
    1.5986   39.1002   -2.3829 C   0  0  1  0  0  0  0  0  0  0  0  0
    0.4945   38.6335   -3.1423 O   0  0  0  0  0  0  0  0  0  0  0  0
   -1.2387   36.8221   -4.3234 C   0  0  1  0  0  0  0  0  0  0  0  0
   -0.1061   37.3938   -4.9663 O   0  0  0  0  0  0  0  0  0  0  0  0
    4.2292   34.3178   -1.3268 C   0  0  1  0  0  0  0  0  0  0  0  0
    5.5199   34.8363   -1.4598 O   0  0  0  0  0  0  0  0  0  0  0  0
    2.3333   40.2527   -3.1251 C   0  0  2  0  0  0  0  0  0  0  0  0
    2.8135   39.7760   -4.3812 O   0  0  0  0  0  0  0  0  0  0  0  0
    3.2832   35.4562   -1.1492 C   0  0  1  0  0  0  0  0  0  0  0  0
    1.9964   34.9262   -1.0135 O   0  0  0  0  0  0  0  0  0  0  0  0
    3.5256   40.7292   -2.2693 C   0  0  1  0  0  0  0  0  0  0  0  0
    4.2188   41.7947   -2.9393 O   0  0  0  0  0  0  0  0  0  0  0  0
    3.5986   36.2523    0.1326 C   0  0  0  0  0  0  0  0  0  0  0  0
    2.6982   37.3495    0.2354 O   0  0  0  0  0  0  0  0  0  0  0  0
    3.2147   42.9721    1.5238 N   0  0  0  0  0  0  0  0  0  0  0  0
   -0.2710   38.8633    1.6636 N   0  0  0  0  0  0  0  0  0  0  0  0
  1  2  1  0  0  0  0
  1 39  1  0  0  0  0
  3  4  1  0  0  0  0
  5  6  1  0  0  0  0
  5 40  1  0  0  0  0
  9 10  1  1  0  0  0
  9 14  1  0  0  0  0
  9 35  1  0  0  0  0
 10  1  1  0  0  0  0
 11 16  1  0  0  0  0
 11 28  1  0  0  0  0
 11 26  1  1  0  0  0
 12 17  1  0  0  0  0
 12 34  1  0  0  0  0
 12 13  1  6  0  0  0
 14 15  1  1  0  0  0
 14 19  1  0  0  0  0
 16 13  1  6  0  0  0
 16 21  1  0  0  0  0
 17 18  1  6  0  0  0
 17 23  1  0  0  0  0
 18  8  1  0  0  0  0
 19 20  1  1  0  0  0
 19 25  1  0  0  0  0
 20  5  1  0  0  0  0
 21  3  1  1  0  0  0
 21 22  1  0  0  0  0
 21 27  1  0  0  0  0
 23 24  1  1  0  0  0
 23 29  1  0  0  0  0
 25 26  1  6  0  0  0
 25 31  1  0  0  0  0
 27  7  1  6  0  0  0
 27 28  1  0  0  0  0
 29 30  1  6  0  0  0
 29 33  1  0  0  0  0
 31 32  1  6  0  0  0
 31 35  1  0  0  0  0
 33 34  1  0  0  0  0
 33 37  1  1  0  0  0
 35 36  1  6  0  0  0
 37 38  1  0  0  0  0
M  END
>  <CHROM.1>
-105.60332622,-104.43130413,85.52023899,160.64570106,174.00696783,-80.15713138
84.88774460,74.90016748,-177.03536120,-144.65248870,178.18680563,1.70490919
37.50758652,-1.88389790,-1.34954987,0.31216614,-2.84643092

>  <Name>
1nta_lig

>  <RI>
0

>  <Rbt.Current_Directory>
/home/itssahil/PROJECTS/Mol_Feturizer/New_Systems/rnas/1nta

>  <Rbt.Executable>
rbdock ($Id: //depot/dev/client3/rdock/2013.1/src/exe/rbdock.cxx#4 $)

>  <Rbt.Library>
libRbt.so (2013.1, Build901 2013/11/27)

>  <Rbt.Parameter_File>
/export/apps/rDock/src/rDock_2013.1_src/data/scripts/dock_solv.prm

>  <Rbt.Receptor>
prm/pocket_docking_7.prm

>  <SCORE>
-27.4272

>  <SCORE.INTER>
-5.4028

>  <SCORE.INTER.CONST>
1

>  <SCORE.INTER.POLAR>
-1.37958

>  <SCORE.INTER.ROT>
11

>  <SCORE.INTER.SOLV>
11.1873

>  <SCORE.INTER.VDW>
-13.6657

>  <SCORE.INTER.norm>
-0.13507

>  <SCORE.INTRA>
-22.0244

>  <SCORE.INTRA.DIHEDRAL>
-6.67292

>  <SCORE.INTRA.DIHEDRAL.0>
19.0336

>  <SCORE.INTRA.POLAR>
0

>  <SCORE.INTRA.POLAR.0>
0

>  <SCORE.INTRA.REPUL>
0

>  <SCORE.INTRA.REPUL.0>
0

>  <SCORE.INTRA.SOLV>
-2.03678

>  <SCORE.INTRA.SOLV.lig_0>
-97.5861

>  <SCORE.INTRA.VDW>
-17.6696

>  <SCORE.INTRA.VDW.0>
11.7669

>  <SCORE.INTRA.norm>
-0.550611

>  <SCORE.RESTR>
0

>  <SCORE.RESTR.CAVITY>
0

>  <SCORE.RESTR.norm>
0

>  <SCORE.SYSTEM>
0

>  <SCORE.SYSTEM.CONST>
0

>  <SCORE.SYSTEM.DIHEDRAL>
0

>  <SCORE.SYSTEM.SOLV>
0

>  <SCORE.SYSTEM.norm>
0

>  <SCORE.heavy>
40

>  <SCORE.norm>
-0.685681

>  <RMSD>
6.644

$$$$
1nta_lig
 OpenBabel11021811403D
libRbt.so/2013.1/901 2013/11/27
 40 42  0  0  0  0  0  0  0  0999 V2000
    0.1595   32.4679   -5.8287 C   0  0  0  0  0  0  0  0  0  0  0  0
   -0.7980   33.0076   -6.4861 N   0  0  0  0  0  0  0  0  0  0  0  0
   -2.5300   34.4773    2.5299 C   0  0  0  0  0  0  0  0  0  0  0  0
   -3.4881   34.5771    3.2644 O   0  0  0  0  0  0  0  0  0  0  0  0
   -3.3771   31.5791   -0.9668 C   0  0  0  0  0  0  0  0  0  0  0  0
   -4.4151   31.4047   -1.7427 N   0  0  0  0  0  0  0  0  0  0  0  0
   -1.5199   32.1826    4.7152 C   0  0  0  0  0  0  0  0  0  0  0  0
   -1.2173   36.0010   -1.4872 C   0  0  0  0  0  0  0  0  0  0  0  0
    0.4030   32.5159   -3.4752 C   0  0  2  0  0  0  0  0  0  0  0  0
    0.6314   33.1822   -4.8179 N   0  0  0  0  0  0  0  0  0  0  0  0
    0.3427   32.7657    1.7016 C   0  0  2  0  0  0  0  0  0  0  0  0
    1.2233   35.4444    0.6800 C   0  0  1  0  0  0  0  0  0  0  0  0
    0.7418   35.0638    1.9213 O   0  0  0  0  0  0  0  0  0  0  0  0
   -0.9876   32.8904   -2.9285 C   0  0  1  0  0  0  0  0  0  0  0  0
   -1.9315   32.3771   -3.8193 O   0  0  0  0  0  0  0  0  0  0  0  0
   -0.2311   34.1717    1.8391 C   0  0  2  0  0  0  0  0  0  0  0  0
    0.4601   36.5622    0.0041 C   0  0  1  0  0  0  0  0  0  0  0  0
   -0.9103   36.1919   -0.0796 N   0  0  0  0  0  0  0  0  0  0  0  0
   -1.2646   32.2611   -1.5566 C   0  0  2  0  0  0  0  0  0  0  0  0
   -2.5940   32.6046   -0.9974 N   0  0  0  0  0  0  0  0  0  0  0  0
   -1.1709   33.9850    2.9494 C   0  0  1  0  0  0  0  0  0  0  0  0
   -0.6563   34.7124    4.0667 O   0  0  0  0  0  0  0  0  0  0  0  0
    0.5642   37.7446    0.7232 C   0  0  2  0  0  0  0  0  0  0  0  0
    0.0954   38.7847   -0.0975 O   0  0  0  0  0  0  0  0  0  0  0  0
   -0.1834   32.7302   -0.5960 C   0  0  1  0  0  0  0  0  0  0  0  0
   -0.4423   32.1428    0.6695 O   0  0  0  0  0  0  0  0  0  0  0  0
   -1.2075   32.5597    3.3002 C   0  0  1  0  0  0  0  0  0  0  0  0
    0.0663   32.0723    2.8968 O   0  0  0  0  0  0  0  0  0  0  0  0
    1.9997   38.0067    1.0962 C   0  0  1  0  0  0  0  0  0  0  0  0
    2.0454   39.0598    2.0134 O   0  0  0  0  0  0  0  0  0  0  0  0
    1.2198   32.3148   -1.1224 C   0  0  2  0  0  0  0  0  0  0  0  0
    2.2189   32.7541   -0.2036 O   0  0  0  0  0  0  0  0  0  0  0  0
    2.5813   36.7963    1.7435 C   0  0  1  0  0  0  0  0  0  0  0  0
    2.5341   35.7506    0.8163 O   0  0  0  0  0  0  0  0  0  0  0  0
    1.4627   32.9745   -2.4961 C   0  0  1  0  0  0  0  0  0  0  0  0
    2.7563   32.6031   -2.9996 O   0  0  0  0  0  0  0  0  0  0  0  0
    4.0589   37.0187    2.1225 C   0  0  0  0  0  0  0  0  0  0  0  0
    4.6113   35.7936    2.5907 O   0  0  0  0  0  0  0  0  0  0  0  0
    0.6387   31.3095   -6.1299 N   0  0  0  0  0  0  0  0  0  0  0  0
   -3.0935   30.7049   -0.0826 N   0  0  0  0  0  0  0  0  0  0  0  0
  1  2  1  0  0  0  0
  1 39  1  0  0  0  0
  3  4  1  0  0  0  0
  5  6  1  0  0  0  0
  5 40  1  0  0  0  0
  9 10  1  6  0  0  0
  9 14  1  0  0  0  0
  9 35  1  0  0  0  0
 10  1  1  0  0  0  0
 11 16  1  0  0  0  0
 11 28  1  0  0  0  0
 11 26  1  6  0  0  0
 12 17  1  0  0  0  0
 12 34  1  0  0  0  0
 12 13  1  1  0  0  0
 14 15  1  6  0  0  0
 14 19  1  0  0  0  0
 16 13  1  1  0  0  0
 16 21  1  0  0  0  0
 17 18  1  1  0  0  0
 17 23  1  0  0  0  0
 18  8  1  0  0  0  0
 19 20  1  1  0  0  0
 19 25  1  0  0  0  0
 20  5  1  0  0  0  0
 21  3  1  6  0  0  0
 21 22  1  0  0  0  0
 21 27  1  0  0  0  0
 23 24  1  6  0  0  0
 23 29  1  0  0  0  0
 25 26  1  1  0  0  0
 25 31  1  0  0  0  0
 27  7  1  1  0  0  0
 27 28  1  0  0  0  0
 29 30  1  1  0  0  0
 29 33  1  0  0  0  0
 31 32  1  1  0  0  0
 31 35  1  0  0  0  0
 33 34  1  0  0  0  0
 33 37  1  6  0  0  0
 35 36  1  6  0  0  0
 37 38  1  0  0  0  0
M  END
>  <CHROM.1>
-86.56446802,115.70145192,68.78062532,85.49224927,83.79334386,-112.59630966
111.20084272,-108.80976812,-172.58321767,-166.81840767,-173.27873334,-0.00596387
34.06595510,-0.10615994,-1.90746533,0.74191625,1.24356579

>  <Name>
1nta_lig

>  <RI>
0

>  <Rbt.Current_Directory>
/home/itssahil/PROJECTS/Mol_Feturizer/New_Systems/rnas/1nta

>  <Rbt.Executable>
rbdock ($Id: //depot/dev/client3/rdock/2013.1/src/exe/rbdock.cxx#4 $)

>  <Rbt.Library>
libRbt.so (2013.1, Build901 2013/11/27)

>  <Rbt.Parameter_File>
/export/apps/rDock/src/rDock_2013.1_src/data/scripts/dock_solv.prm

>  <Rbt.Receptor>
prm/pocket_docking_7.prm

>  <SCORE>
-27.1753

>  <SCORE.INTER>
-3.81234

>  <SCORE.INTER.CONST>
1

>  <SCORE.INTER.POLAR>
-0.774597

>  <SCORE.INTER.ROT>
11

>  <SCORE.INTER.SOLV>
15.4865

>  <SCORE.INTER.VDW>
-16.0551

>  <SCORE.INTER.norm>
-0.0953084

>  <SCORE.INTRA>
-23.3629

>  <SCORE.INTRA.DIHEDRAL>
-8.52641

>  <SCORE.INTRA.DIHEDRAL.0>
19.0336

>  <SCORE.INTRA.POLAR>
0

>  <SCORE.INTRA.POLAR.0>
0

>  <SCORE.INTRA.REPUL>
0

>  <SCORE.INTRA.REPUL.0>
0

>  <SCORE.INTRA.SOLV>
-2.90716

>  <SCORE.INTRA.SOLV.lig_0>
-97.5861

>  <SCORE.INTRA.VDW>
-17.6461

>  <SCORE.INTRA.VDW.0>
11.7669

>  <SCORE.INTRA.norm>
-0.584073

>  <SCORE.RESTR>
0

>  <SCORE.RESTR.CAVITY>
0

>  <SCORE.RESTR.norm>
0

>  <SCORE.SYSTEM>
0

>  <SCORE.SYSTEM.CONST>
0

>  <SCORE.SYSTEM.DIHEDRAL>
0

>  <SCORE.SYSTEM.SOLV>
0

>  <SCORE.SYSTEM.norm>
0

>  <SCORE.heavy>
40

>  <SCORE.norm>
-0.679381

>  <RMSD>
6.660

$$$$
1nta_lig
 OpenBabel11021811403D
libRbt.so/2013.1/901 2013/11/27
 40 42  0  0  0  0  0  0  0  0999 V2000
    1.4496   42.9365   -1.9678 C   0  0  0  0  0  0  0  0  0  0  0  0
    2.5382   43.5732   -1.7448 N   0  0  0  0  0  0  0  0  0  0  0  0
    2.4039   32.9049   -2.1169 C   0  0  0  0  0  0  0  0  0  0  0  0
    2.1159   33.4992   -3.1323 O   0  0  0  0  0  0  0  0  0  0  0  0
    0.3504   37.0718   -4.0771 C   0  0  0  0  0  0  0  0  0  0  0  0
    1.4916   36.4838   -4.3253 N   0  0  0  0  0  0  0  0  0  0  0  0
    5.2670   33.9473   -0.7836 C   0  0  0  0  0  0  0  0  0  0  0  0
   -1.9444   34.9118   -1.9946 C   0  0  0  0  0  0  0  0  0  0  0  0
    1.6447   40.6593   -1.3539 C   0  0  2  0  0  0  0  0  0  0  0  0
    1.1111   42.0452   -1.0482 N   0  0  0  0  0  0  0  0  0  0  0  0
    2.2025   35.6860   -0.0936 C   0  0  2  0  0  0  0  0  0  0  0  0
   -0.2817   34.5784    0.9070 C   0  0  1  0  0  0  0  0  0  0  0  0
    0.9224   33.9133    0.7481 O   0  0  0  0  0  0  0  0  0  0  0  0
    0.5413   39.7973   -1.9961 C   0  0  1  0  0  0  0  0  0  0  0  0
    0.2060   40.3969   -3.2110 O   0  0  0  0  0  0  0  0  0  0  0  0
    1.5864   34.3103   -0.3246 C   0  0  2  0  0  0  0  0  0  0  0  0
   -1.4326   34.0395    0.0862 C   0  0  1  0  0  0  0  0  0  0  0  0
   -1.0457   34.0193   -1.2820 N   0  0  0  0  0  0  0  0  0  0  0  0
    1.0196   38.3727   -2.3064 C   0  0  2  0  0  0  0  0  0  0  0  0
   -0.0195   37.5126   -2.9218 N   0  0  0  0  0  0  0  0  0  0  0  0
    2.7499   33.5580   -0.8056 C   0  0  1  0  0  0  0  0  0  0  0  0
    3.0807   32.6001    0.2019 O   0  0  0  0  0  0  0  0  0  0  0  0
   -1.7665   32.7510    0.4791 C   0  0  2  0  0  0  0  0  0  0  0  0
   -3.0052   32.4354   -0.1048 O   0  0  0  0  0  0  0  0  0  0  0  0
    1.4855   37.7382   -1.0055 C   0  0  1  0  0  0  0  0  0  0  0  0
    1.9299   36.4228   -1.2987 O   0  0  0  0  0  0  0  0  0  0  0  0
    3.8797   34.4836   -0.9553 C   0  0  1  0  0  0  0  0  0  0  0  0
    3.6003   35.5223   -0.0247 O   0  0  0  0  0  0  0  0  0  0  0  0
   -1.8835   32.6739    1.9787 C   0  0  1  0  0  0  0  0  0  0  0  0
   -1.9798   31.3326    2.3581 O   0  0  0  0  0  0  0  0  0  0  0  0
    2.6306   38.5819   -0.3765 C   0  0  2  0  0  0  0  0  0  0  0  0
    3.0609   37.9657    0.8362 O   0  0  0  0  0  0  0  0  0  0  0  0
   -0.6632   33.2527    2.6099 C   0  0  1  0  0  0  0  0  0  0  0  0
   -0.5787   34.5949    2.2269 O   0  0  0  0  0  0  0  0  0  0  0  0
    2.1072   40.0011   -0.0714 C   0  0  1  0  0  0  0  0  0  0  0  0
    3.1517   40.7969    0.5121 O   0  0  0  0  0  0  0  0  0  0  0  0
   -0.7539   33.2102    4.1481 C   0  0  0  0  0  0  0  0  0  0  0  0
   -0.2706   31.9543    4.6109 O   0  0  0  0  0  0  0  0  0  0  0  0
    0.7306   43.1423   -3.0180 N   0  0  0  0  0  0  0  0  0  0  0  0
   -0.4812   37.2657   -5.0244 N   0  0  0  0  0  0  0  0  0  0  0  0
  1  2  1  0  0  0  0
  1 39  1  0  0  0  0
  3  4  1  0  0  0  0
  5  6  1  0  0  0  0
  5 40  1  0  0  0  0
  9 10  1  1  0  0  0
  9 14  1  0  0  0  0
  9 35  1  0  0  0  0
 10  1  1  0  0  0  0
 11 16  1  0  0  0  0
 11 28  1  0  0  0  0
 11 26  1  6  0  0  0
 12 17  1  0  0  0  0
 12 34  1  0  0  0  0
 12 13  1  1  0  0  0
 14 15  1  6  0  0  0
 14 19  1  0  0  0  0
 16 13  1  1  0  0  0
 16 21  1  0  0  0  0
 17 18  1  6  0  0  0
 17 23  1  0  0  0  0
 18  8  1  0  0  0  0
 19 20  1  1  0  0  0
 19 25  1  0  0  0  0
 20  5  1  0  0  0  0
 21  3  1  6  0  0  0
 21 22  1  0  0  0  0
 21 27  1  0  0  0  0
 23 24  1  6  0  0  0
 23 29  1  0  0  0  0
 25 26  1  6  0  0  0
 25 31  1  0  0  0  0
 27  7  1  1  0  0  0
 27 28  1  0  0  0  0
 29 30  1  6  0  0  0
 29 33  1  0  0  0  0
 31 32  1  1  0  0  0
 31 35  1  0  0  0  0
 33 34  1  0  0  0  0
 33 37  1  1  0  0  0
 35 36  1  6  0  0  0
 37 38  1  0  0  0  0
M  END
>  <CHROM.1>
-99.15500861,-91.67872870,135.97085338,81.98862216,74.24677250,-117.88426257
121.03443452,50.56925725,63.01398236,-171.48039529,86.97155354,0.93230607
36.21627041,-0.60663164,0.83572337,1.25251516,0.31706486

>  <Name>
1nta_lig

>  <RI>
0

>  <Rbt.Current_Directory>
/home/itssahil/PROJECTS/Mol_Feturizer/New_Systems/rnas/1nta

>  <Rbt.Executable>
rbdock ($Id: //depot/dev/client3/rdock/2013.1/src/exe/rbdock.cxx#4 $)

>  <Rbt.Library>
libRbt.so (2013.1, Build901 2013/11/27)

>  <Rbt.Parameter_File>
/export/apps/rDock/src/rDock_2013.1_src/data/scripts/dock_solv.prm

>  <Rbt.Receptor>
prm/pocket_docking_8.prm

>  <SCORE>
-19.7954

>  <SCORE.INTER>
-0.938442

>  <SCORE.INTER.CONST>
1

>  <SCORE.INTER.POLAR>
-1.18322

>  <SCORE.INTER.ROT>
11

>  <SCORE.INTER.SOLV>
12.6626

>  <SCORE.INTER.VDW>
-11.8358

>  <SCORE.INTER.norm>
-0.023461

>  <SCORE.INTRA>
-18.8569

>  <SCORE.INTRA.DIHEDRAL>
-2.70564

>  <SCORE.INTRA.DIHEDRAL.0>
19.0336

>  <SCORE.INTRA.POLAR>
0

>  <SCORE.INTRA.POLAR.0>
0

>  <SCORE.INTRA.REPUL>
0.0120489

>  <SCORE.INTRA.REPUL.0>
0

>  <SCORE.INTRA.SOLV>
-2.19246

>  <SCORE.INTRA.SOLV.lig_0>
-97.5861

>  <SCORE.INTRA.VDW>
-16.4681

>  <SCORE.INTRA.VDW.0>
11.7669

>  <SCORE.INTRA.norm>
-0.471423

>  <SCORE.RESTR>
0

>  <SCORE.RESTR.CAVITY>
0

>  <SCORE.RESTR.norm>
0

>  <SCORE.SYSTEM>
0

>  <SCORE.SYSTEM.CONST>
0

>  <SCORE.SYSTEM.DIHEDRAL>
0

>  <SCORE.SYSTEM.SOLV>
0

>  <SCORE.SYSTEM.norm>
0

>  <SCORE.heavy>
40

>  <SCORE.norm>
-0.494884

>  <RMSD>
6.661

$$$$
1nta_lig
 OpenBabel11021811403D
libRbt.so/2013.1/901 2013/11/27
 40 42  0  0  0  0  0  0  0  0999 V2000
    4.3998   41.4995   -1.7852 C   0  0  0  0  0  0  0  0  0  0  0  0
    4.3334   40.6526   -2.7436 N   0  0  0  0  0  0  0  0  0  0  0  0
   -1.1080   37.3390    4.4608 C   0  0  0  0  0  0  0  0  0  0  0  0
   -1.6210   37.9546    5.3692 O   0  0  0  0  0  0  0  0  0  0  0  0
    3.3972   35.6600    0.5998 C   0  0  0  0  0  0  0  0  0  0  0  0
    3.2159   35.5385    1.8891 N   0  0  0  0  0  0  0  0  0  0  0  0
   -2.2205   39.9061    2.6627 C   0  0  0  0  0  0  0  0  0  0  0  0
   -0.6606   32.0664    3.1770 C   0  0  0  0  0  0  0  0  0  0  0  0
    4.3814   40.2417    0.2194 C   0  0  2  0  0  0  0  0  0  0  0  0
    5.1373   41.1313   -0.7483 N   0  0  0  0  0  0  0  0  0  0  0  0
   -0.0274   37.4732    1.1924 C   0  0  2  0  0  0  0  0  0  0  0  0
   -0.3640   34.5279    1.2614 C   0  0  1  0  0  0  0  0  0  0  0  0
   -1.2583   35.5247    1.6138 O   0  0  0  0  0  0  0  0  0  0  0  0
    4.0688   38.8861   -0.4421 C   0  0  1  0  0  0  0  0  0  0  0  0
    5.2911   38.2696   -0.7137 O   0  0  0  0  0  0  0  0  0  0  0  0
   -0.6722   36.5456    2.2167 C   0  0  2  0  0  0  0  0  0  0  0  0
   -0.9535   33.1392    1.1482 C   0  0  1  0  0  0  0  0  0  0  0  0
   -1.6058   32.8207    2.3709 N   0  0  0  0  0  0  0  0  0  0  0  0
    3.2819   37.9511    0.4860 C   0  0  2  0  0  0  0  0  0  0  0  0
    2.9593   36.6373   -0.1205 N   0  0  0  0  0  0  0  0  0  0  0  0
   -1.4577   37.5002    3.0057 C   0  0  1  0  0  0  0  0  0  0  0  0
   -2.8369   37.2268    2.7503 O   0  0  0  0  0  0  0  0  0  0  0  0
   -1.8764   33.0708    0.1140 C   0  0  2  0  0  0  0  0  0  0  0  0
   -2.1528   31.7130   -0.1207 O   0  0  0  0  0  0  0  0  0  0  0  0
    1.9896   38.6514    0.8749 C   0  0  1  0  0  0  0  0  0  0  0  0
    1.2678   37.7843    1.7356 O   0  0  0  0  0  0  0  0  0  0  0  0
   -1.1585   38.8584    2.5352 C   0  0  1  0  0  0  0  0  0  0  0  0
   -0.7629   38.6751    1.1814 O   0  0  0  0  0  0  0  0  0  0  0  0
   -1.3101   33.6917   -1.1359 C   0  0  1  0  0  0  0  0  0  0  0  0
   -2.3322   33.8264   -2.0791 O   0  0  0  0  0  0  0  0  0  0  0  0
    2.3018   40.0003    1.5833 C   0  0  2  0  0  0  0  0  0  0  0  0
    1.0785   40.6367    1.9493 O   0  0  0  0  0  0  0  0  0  0  0  0
   -0.7761   35.0489   -0.8271 C   0  0  1  0  0  0  0  0  0  0  0  0
    0.2477   34.9021    0.1140 O   0  0  0  0  0  0  0  0  0  0  0  0
    3.0836   40.9132    0.6154 C   0  0  1  0  0  0  0  0  0  0  0  0
    3.3812   42.1666    1.2519 O   0  0  0  0  0  0  0  0  0  0  0  0
   -0.1683   35.7106   -2.0797 C   0  0  0  0  0  0  0  0  0  0  0  0
    0.2770   37.0206   -1.7475 O   0  0  0  0  0  0  0  0  0  0  0  0
    3.7875   42.6335   -1.8205 N   0  0  0  0  0  0  0  0  0  0  0  0
    4.0720   34.7802   -0.0302 N   0  0  0  0  0  0  0  0  0  0  0  0
  1  2  1  0  0  0  0
  1 39  1  0  0  0  0
  3  4  1  0  0  0  0
  5  6  1  0  0  0  0
  5 40  1  0  0  0  0
  9 10  1  6  0  0  0
  9 14  1  0  0  0  0
  9 35  1  0  0  0  0
 10  1  1  0  0  0  0
 11 16  1  0  0  0  0
 11 28  1  0  0  0  0
 11 26  1  1  0  0  0
 12 17  1  0  0  0  0
 12 34  1  0  0  0  0
 12 13  1  6  0  0  0
 14 15  1  1  0  0  0
 14 19  1  0  0  0  0
 16 13  1  6  0  0  0
 16 21  1  0  0  0  0
 17 18  1  1  0  0  0
 17 23  1  0  0  0  0
 18  8  1  0  0  0  0
 19 20  1  6  0  0  0
 19 25  1  0  0  0  0
 20  5  1  0  0  0  0
 21  3  1  1  0  0  0
 21 22  1  0  0  0  0
 21 27  1  0  0  0  0
 23 24  1  6  0  0  0
 23 29  1  0  0  0  0
 25 26  1  1  0  0  0
 25 31  1  0  0  0  0
 27  7  1  6  0  0  0
 27 28  1  0  0  0  0
 29 30  1  6  0  0  0
 29 33  1  0  0  0  0
 31 32  1  6  0  0  0
 31 35  1  0  0  0  0
 33 34  1  0  0  0  0
 33 37  1  6  0  0  0
 35 36  1  1  0  0  0
 37 38  1  0  0  0  0
M  END
>  <CHROM.1>
67.14161496,-82.95954159,179.98017855,154.12687494,80.58420191,-95.52365107
124.03669652,48.70659518,-177.45069131,-121.10181285,177.66242925,0.87006363
37.20458496,0.76346323,-0.64275431,-0.68534223,-2.66395897

>  <Name>
1nta_lig

>  <RI>
0

>  <Rbt.Current_Directory>
/home/itssahil/PROJECTS/Mol_Feturizer/New_Systems/rnas/1nta

>  <Rbt.Executable>
rbdock ($Id: //depot/dev/client3/rdock/2013.1/src/exe/rbdock.cxx#4 $)

>  <Rbt.Library>
libRbt.so (2013.1, Build901 2013/11/27)

>  <Rbt.Parameter_File>
/export/apps/rDock/src/rDock_2013.1_src/data/scripts/dock_solv.prm

>  <Rbt.Receptor>
prm/pocket_docking_5.prm

>  <SCORE>
-14.175

>  <SCORE.INTER>
4.44683

>  <SCORE.INTER.CONST>
1

>  <SCORE.INTER.POLAR>
-0.283733

>  <SCORE.INTER.ROT>
11

>  <SCORE.INTER.SOLV>
14.2381

>  <SCORE.INTER.VDW>
-11.7691

>  <SCORE.INTER.norm>
0.111171

>  <SCORE.INTRA>
-18.626

>  <SCORE.INTRA.DIHEDRAL>
-3.49104

>  <SCORE.INTRA.DIHEDRAL.0>
19.0336

>  <SCORE.INTRA.POLAR>
0

>  <SCORE.INTRA.POLAR.0>
0

>  <SCORE.INTRA.REPUL>
0

>  <SCORE.INTRA.REPUL.0>
0

>  <SCORE.INTRA.SOLV>
0.397652

>  <SCORE.INTRA.SOLV.lig_0>
-97.5861

>  <SCORE.INTRA.VDW>
-17.0794

>  <SCORE.INTRA.VDW.0>
11.7669

>  <SCORE.INTRA.norm>
-0.465651

>  <SCORE.RESTR>
0.00417784

>  <SCORE.RESTR.CAVITY>
0.00417784

>  <SCORE.RESTR.norm>
0.000104446

>  <SCORE.SYSTEM>
0

>  <SCORE.SYSTEM.CONST>
0

>  <SCORE.SYSTEM.DIHEDRAL>
0

>  <SCORE.SYSTEM.SOLV>
0

>  <SCORE.SYSTEM.norm>
0

>  <SCORE.heavy>
40

>  <SCORE.norm>
-0.354376

>  <RMSD>
6.714

$$$$
1nta_lig
 OpenBabel11021811403D
libRbt.so/2013.1/901 2013/11/27
 40 42  0  0  0  0  0  0  0  0999 V2000
   -1.0136   30.9713   -5.3369 C   0  0  0  0  0  0  0  0  0  0  0  0
   -0.7058   31.1990   -6.5590 N   0  0  0  0  0  0  0  0  0  0  0  0
   -0.9979   38.8361    0.6451 C   0  0  0  0  0  0  0  0  0  0  0  0
   -1.9608   39.1695    1.2999 O   0  0  0  0  0  0  0  0  0  0  0  0
    0.6991   37.1849   -4.2869 C   0  0  0  0  0  0  0  0  0  0  0  0
   -0.3881   37.6437   -3.7237 N   0  0  0  0  0  0  0  0  0  0  0  0
   -1.1627   36.1154    2.5509 C   0  0  0  0  0  0  0  0  0  0  0  0
    2.0640   40.2850   -3.1933 C   0  0  0  0  0  0  0  0  0  0  0  0
   -0.3907   32.6155   -3.7530 C   0  0  2  0  0  0  0  0  0  0  0  0
   -0.0910   31.3002   -4.4452 N   0  0  0  0  0  0  0  0  0  0  0  0
    1.0959   36.2464   -0.2369 C   0  0  2  0  0  0  0  0  0  0  0  0
    3.1230   38.1622   -0.7942 C   0  0  1  0  0  0  0  0  0  0  0  0
    2.3005   38.1772    0.3198 O   0  0  0  0  0  0  0  0  0  0  0  0
    0.6090   33.6943   -4.2110 C   0  0  1  0  0  0  0  0  0  0  0  0
    0.4109   33.8840   -5.5795 O   0  0  0  0  0  0  0  0  0  0  0  0
    1.0793   37.7424    0.0578 C   0  0  2  0  0  0  0  0  0  0  0  0
    3.3609   39.5085   -1.4418 C   0  0  1  0  0  0  0  0  0  0  0  0
    2.1023   40.0925   -1.7533 N   0  0  0  0  0  0  0  0  0  0  0  0
    0.3672   35.0444   -3.5230 C   0  0  2  0  0  0  0  0  0  0  0  0
    1.3155   36.1062   -3.9372 N   0  0  0  0  0  0  0  0  0  0  0  0
    0.0242   37.8175    1.0736 C   0  0  1  0  0  0  0  0  0  0  0  0
    0.6500   38.1701    2.3090 O   0  0  0  0  0  0  0  0  0  0  0  0
    4.0532   40.3577   -0.5898 C   0  0  2  0  0  0  0  0  0  0  0  0
    4.4918   41.4566   -1.3481 O   0  0  0  0  0  0  0  0  0  0  0  0
    0.4788   34.8346   -2.0212 C   0  0  1  0  0  0  0  0  0  0  0  0
    0.2509   36.0850   -1.3900 O   0  0  0  0  0  0  0  0  0  0  0  0
   -0.5812   36.4883    1.2225 C   0  0  1  0  0  0  0  0  0  0  0  0
    0.4528   35.5927    0.8329 O   0  0  0  0  0  0  0  0  0  0  0  0
    5.2427   39.6494    0.0035 C   0  0  1  0  0  0  0  0  0  0  0  0
    5.7747   40.4363    1.0282 O   0  0  0  0  0  0  0  0  0  0  0  0
   -0.5598   33.7782   -1.5478 C   0  0  2  0  0  0  0  0  0  0  0  0
   -0.4468   33.6031   -0.1365 O   0  0  0  0  0  0  0  0  0  0  0  0
    4.8138   38.3468    0.5879 C   0  0  1  0  0  0  0  0  0  0  0  0
    4.2869   37.5666   -0.4461 O   0  0  0  0  0  0  0  0  0  0  0  0
   -0.2768   32.4358   -2.2541 C   0  0  1  0  0  0  0  0  0  0  0  0
   -1.2266   31.4450   -1.8286 O   0  0  0  0  0  0  0  0  0  0  0  0
    6.0093   37.5812    1.1886 C   0  0  0  0  0  0  0  0  0  0  0  0
    6.4635   38.2618    2.3528 O   0  0  0  0  0  0  0  0  0  0  0  0
   -2.1425   30.4521   -4.9931 N   0  0  0  0  0  0  0  0  0  0  0  0
    1.2108   37.8070   -5.2756 N   0  0  0  0  0  0  0  0  0  0  0  0
  1  2  1  0  0  0  0
  1 39  1  0  0  0  0
  3  4  1  0  0  0  0
  5  6  1  0  0  0  0
  5 40  1  0  0  0  0
  9 10  1  6  0  0  0
  9 14  1  0  0  0  0
  9 35  1  0  0  0  0
 10  1  1  0  0  0  0
 11 16  1  0  0  0  0
 11 28  1  0  0  0  0
 11 26  1  6  0  0  0
 12 17  1  0  0  0  0
 12 34  1  0  0  0  0
 12 13  1  1  0  0  0
 14 15  1  6  0  0  0
 14 19  1  0  0  0  0
 16 13  1  1  0  0  0
 16 21  1  0  0  0  0
 17 18  1  1  0  0  0
 17 23  1  0  0  0  0
 18  8  1  0  0  0  0
 19 20  1  6  0  0  0
 19 25  1  0  0  0  0
 20  5  1  0  0  0  0
 21  3  1  6  0  0  0
 21 22  1  0  0  0  0
 21 27  1  0  0  0  0
 23 24  1  6  0  0  0
 23 29  1  0  0  0  0
 25 26  1  1  0  0  0
 25 31  1  0  0  0  0
 27  7  1  1  0  0  0
 27 28  1  0  0  0  0
 29 30  1  1  0  0  0
 29 33  1  0  0  0  0
 31 32  1  1  0  0  0
 31 35  1  0  0  0  0
 33 34  1  0  0  0  0
 33 37  1  6  0  0  0
 35 36  1  1  0  0  0
 37 38  1  0  0  0  0
M  END
>  <CHROM.1>
-109.79567189,101.28941086,162.42958646,103.02574482,69.13298638,-119.33763259
129.43536840,36.45187715,-176.60039157,-142.97494966,69.46426655,1.28984166
36.43920550,-1.42204283,-2.31203872,0.79009741,1.14723971

>  <Name>
1nta_lig

>  <RI>
0

>  <Rbt.Current_Directory>
/home/itssahil/PROJECTS/Mol_Feturizer/New_Systems/rnas/1nta

>  <Rbt.Executable>
rbdock ($Id: //depot/dev/client3/rdock/2013.1/src/exe/rbdock.cxx#4 $)

>  <Rbt.Library>
libRbt.so (2013.1, Build901 2013/11/27)

>  <Rbt.Parameter_File>
/export/apps/rDock/src/rDock_2013.1_src/data/scripts/dock_solv.prm

>  <Rbt.Receptor>
prm/pocket_docking_4.prm

>  <SCORE>
-22.8025

>  <SCORE.INTER>
-4.94934

>  <SCORE.INTER.CONST>
1

>  <SCORE.INTER.POLAR>
-0.713754

>  <SCORE.INTER.ROT>
11

>  <SCORE.INTER.SOLV>
16.7501

>  <SCORE.INTER.VDW>
-17.4371

>  <SCORE.INTER.norm>
-0.123733

>  <SCORE.INTRA>
-18.3237

>  <SCORE.INTRA.DIHEDRAL>
-1.45862

>  <SCORE.INTRA.DIHEDRAL.0>
19.0336

>  <SCORE.INTRA.POLAR>
0

>  <SCORE.INTRA.POLAR.0>
0

>  <SCORE.INTRA.REPUL>
0

>  <SCORE.INTRA.REPUL.0>
0

>  <SCORE.INTRA.SOLV>
-2.19384

>  <SCORE.INTRA.SOLV.lig_0>
-97.5861

>  <SCORE.INTRA.VDW>
-16.4975

>  <SCORE.INTRA.VDW.0>
11.7669

>  <SCORE.INTRA.norm>
-0.458094

>  <SCORE.RESTR>
0.470587

>  <SCORE.RESTR.CAVITY>
0.470587

>  <SCORE.RESTR.norm>
0.0117647

>  <SCORE.SYSTEM>
0

>  <SCORE.SYSTEM.CONST>
0

>  <SCORE.SYSTEM.DIHEDRAL>
0

>  <SCORE.SYSTEM.SOLV>
0

>  <SCORE.SYSTEM.norm>
0

>  <SCORE.heavy>
40

>  <SCORE.norm>
-0.570062

>  <RMSD>
6.719

$$$$
1nta_lig
 OpenBabel11021811403D
libRbt.so/2013.1/901 2013/11/27
 40 42  0  0  0  0  0  0  0  0999 V2000
    4.3998   42.8128   -2.3732 C   0  0  0  0  0  0  0  0  0  0  0  0
    5.2585   42.0971   -2.9980 N   0  0  0  0  0  0  0  0  0  0  0  0
   -0.1031   35.5584    2.0600 C   0  0  0  0  0  0  0  0  0  0  0  0
    0.2895   34.4233    2.2173 O   0  0  0  0  0  0  0  0  0  0  0  0
    4.8726   37.2521    0.5573 C   0  0  0  0  0  0  0  0  0  0  0  0
    4.2923   36.2574    1.1767 N   0  0  0  0  0  0  0  0  0  0  0  0
   -2.3405   37.8700    1.2163 C   0  0  0  0  0  0  0  0  0  0  0  0
    3.9397   33.2327   -0.9940 C   0  0  0  0  0  0  0  0  0  0  0  0
    3.8616   41.7273   -0.3403 C   0  0  2  0  0  0  0  0  0  0  0  0
    4.5527   42.8698   -1.0586 N   0  0  0  0  0  0  0  0  0  0  0  0
    0.7040   37.5203   -0.6544 C   0  0  2  0  0  0  0  0  0  0  0  0
    1.6941   35.3178   -2.0197 C   0  0  1  0  0  0  0  0  0  0  0  0
    0.5500   35.2576   -1.2419 O   0  0  0  0  0  0  0  0  0  0  0  0
    4.4876   40.3834   -0.7589 C   0  0  1  0  0  0  0  0  0  0  0  0
    5.8185   40.4012   -0.3388 O   0  0  0  0  0  0  0  0  0  0  0  0
    0.5994   36.0689   -0.1987 C   0  0  2  0  0  0  0  0  0  0  0  0
    2.2772   33.9800   -2.4188 C   0  0  1  0  0  0  0  0  0  0  0  0
    2.5079   33.2150   -1.2425 N   0  0  0  0  0  0  0  0  0  0  0  0
    3.8099   39.1865   -0.0786 C   0  0  2  0  0  0  0  0  0  0  0  0
    4.3847   37.8748   -0.4625 N   0  0  0  0  0  0  0  0  0  0  0  0
   -0.5238   36.1491    0.7410 C   0  0  1  0  0  0  0  0  0  0  0  0
   -1.6164   35.4372    0.1565 O   0  0  0  0  0  0  0  0  0  0  0  0
    1.4082   33.2829   -3.2464 C   0  0  2  0  0  0  0  0  0  0  0  0
    2.1226   32.2104   -3.8070 O   0  0  0  0  0  0  0  0  0  0  0  0
    2.3342   39.2102   -0.4441 C   0  0  1  0  0  0  0  0  0  0  0  0
    1.7119   38.1037    0.1901 O   0  0  0  0  0  0  0  0  0  0  0  0
   -0.9132   37.5568    0.8898 C   0  0  1  0  0  0  0  0  0  0  0  0
   -0.5119   38.1572   -0.3355 O   0  0  0  0  0  0  0  0  0  0  0  0
    0.9002   34.1780   -4.3461 C   0  0  1  0  0  0  0  0  0  0  0  0
   -0.1441   33.5311   -5.0119 O   0  0  0  0  0  0  0  0  0  0  0  0
    1.6881   40.5476    0.0169 C   0  0  2  0  0  0  0  0  0  0  0  0
    0.3031   40.5465   -0.3251 O   0  0  0  0  0  0  0  0  0  0  0  0
    0.3705   35.4432   -3.7619 C   0  0  1  0  0  0  0  0  0  0  0  0
    1.4238   36.0837   -3.1017 O   0  0  0  0  0  0  0  0  0  0  0  0
    2.3899   41.7228   -0.6956 C   0  0  1  0  0  0  0  0  0  0  0  0
    1.8058   42.9692   -0.2830 O   0  0  0  0  0  0  0  0  0  0  0  0
   -0.1415   36.3963   -4.8599 C   0  0  0  0  0  0  0  0  0  0  0  0
   -1.3057   35.8381   -5.4584 O   0  0  0  0  0  0  0  0  0  0  0  0
    3.4457   43.4340   -2.9781 N   0  0  0  0  0  0  0  0  0  0  0  0
    5.9969   37.6874    0.9730 N   0  0  0  0  0  0  0  0  0  0  0  0
  1  2  1  0  0  0  0
  1 39  1  0  0  0  0
  3  4  1  0  0  0  0
  5  6  1  0  0  0  0
  5 40  1  0  0  0  0
  9 10  1  6  0  0  0
  9 14  1  0  0  0  0
  9 35  1  0  0  0  0
 10  1  1  0  0  0  0
 11 16  1  0  0  0  0
 11 28  1  0  0  0  0
 11 26  1  1  0  0  0
 12 17  1  0  0  0  0
 12 34  1  0  0  0  0
 12 13  1  6  0  0  0
 14 15  1  1  0  0  0
 14 19  1  0  0  0  0
 16 13  1  6  0  0  0
 16 21  1  0  0  0  0
 17 18  1  1  0  0  0
 17 23  1  0  0  0  0
 18  8  1  0  0  0  0
 19 20  1  6  0  0  0
 19 25  1  0  0  0  0
 20  5  1  0  0  0  0
 21  3  1  1  0  0  0
 21 22  1  0  0  0  0
 21 27  1  0  0  0  0
 23 24  1  6  0  0  0
 23 29  1  0  0  0  0
 25 26  1  1  0  0  0
 25 31  1  0  0  0  0
 27  7  1  6  0  0  0
 27 28  1  0  0  0  0
 29 30  1  1  0  0  0
 29 33  1  0  0  0  0
 31 32  1  6  0  0  0
 31 35  1  0  0  0  0
 33 34  1  0  0  0  0
 33 37  1  6  0  0  0
 35 36  1  1  0  0  0
 37 38  1  0  0  0  0
M  END
>  <CHROM.1>
63.07291855,-86.53874323,154.40417682,133.22638583,62.34388621,-104.68128715
118.87793931,102.64784355,-58.71023546,-142.50041251,68.20990535,1.86807889
37.50629578,-1.15304265,-1.01068800,-0.74166485,-2.54823171

>  <Name>
1nta_lig

>  <RI>
0

>  <Rbt.Current_Directory>
/home/itssahil/PROJECTS/Mol_Feturizer/New_Systems/rnas/1nta

>  <Rbt.Executable>
rbdock ($Id: //depot/dev/client3/rdock/2013.1/src/exe/rbdock.cxx#4 $)

>  <Rbt.Library>
libRbt.so (2013.1, Build901 2013/11/27)

>  <Rbt.Parameter_File>
/export/apps/rDock/src/rDock_2013.1_src/data/scripts/dock_solv.prm

>  <Rbt.Receptor>
prm/pocket_docking_5.prm

>  <SCORE>
-16.9329

>  <SCORE.INTER>
-0.393383

>  <SCORE.INTER.CONST>
1

>  <SCORE.INTER.POLAR>
-0.471761

>  <SCORE.INTER.ROT>
11

>  <SCORE.INTER.SOLV>
16.5044

>  <SCORE.INTER.VDW>
-15.1245

>  <SCORE.INTER.norm>
-0.00983459

>  <SCORE.INTRA>
-16.5395

>  <SCORE.INTRA.DIHEDRAL>
-1.31384

>  <SCORE.INTRA.DIHEDRAL.0>
19.0336

>  <SCORE.INTRA.POLAR>
0

>  <SCORE.INTRA.POLAR.0>
0

>  <SCORE.INTRA.REPUL>
0.00161392

>  <SCORE.INTRA.REPUL.0>
0

>  <SCORE.INTRA.SOLV>
-1.2748

>  <SCORE.INTRA.SOLV.lig_0>
-97.5861

>  <SCORE.INTRA.VDW>
-15.2533

>  <SCORE.INTRA.VDW.0>
11.7669

>  <SCORE.INTRA.norm>
-0.413489

>  <SCORE.RESTR>
0

>  <SCORE.RESTR.CAVITY>
0

>  <SCORE.RESTR.norm>
0

>  <SCORE.SYSTEM>
0

>  <SCORE.SYSTEM.CONST>
0

>  <SCORE.SYSTEM.DIHEDRAL>
0

>  <SCORE.SYSTEM.SOLV>
0

>  <SCORE.SYSTEM.norm>
0

>  <SCORE.heavy>
40

>  <SCORE.norm>
-0.423323

>  <RMSD>
6.737

$$$$
1nta_lig
 OpenBabel11021811403D
libRbt.so/2013.1/901 2013/11/27
 40 42  0  0  0  0  0  0  0  0999 V2000
   -2.8531   29.2800   -3.7990 C   0  0  0  0  0  0  0  0  0  0  0  0
   -3.8175   29.0334   -2.9931 N   0  0  0  0  0  0  0  0  0  0  0  0
    0.9199   36.5051    0.4423 C   0  0  0  0  0  0  0  0  0  0  0  0
    1.0245   37.0497    1.5191 O   0  0  0  0  0  0  0  0  0  0  0  0
   -0.9403   32.7299    1.1287 C   0  0  0  0  0  0  0  0  0  0  0  0
    0.0830   32.3120    1.8272 N   0  0  0  0  0  0  0  0  0  0  0  0
    4.1641   35.9344    0.9014 C   0  0  0  0  0  0  0  0  0  0  0  0
    1.8214   40.1446   -3.5226 C   0  0  0  0  0  0  0  0  0  0  0  0
   -1.3059   30.9136   -3.0654 C   0  0  2  0  0  0  0  0  0  0  0  0
   -2.5137   30.5556   -3.9093 N   0  0  0  0  0  0  0  0  0  0  0  0
    2.4106   34.3693   -1.8126 C   0  0  2  0  0  0  0  0  0  0  0  0
    0.5604   37.2454   -2.9340 C   0  0  1  0  0  0  0  0  0  0  0  0
    1.5415   36.2702   -2.8710 O   0  0  0  0  0  0  0  0  0  0  0  0
   -1.7069   31.9154   -1.9660 C   0  0  1  0  0  0  0  0  0  0  0  0
   -2.6242   31.2694   -1.1358 O   0  0  0  0  0  0  0  0  0  0  0  0
    1.5364   35.6154   -1.7220 C   0  0  2  0  0  0  0  0  0  0  0  0
    0.6820   38.2129   -4.0907 C   0  0  1  0  0  0  0  0  0  0  0  0
    1.9758   38.8020   -4.0572 N   0  0  0  0  0  0  0  0  0  0  0  0
   -0.5157   32.3324   -1.0933 C   0  0  2  0  0  0  0  0  0  0  0  0
   -0.8647   33.3008   -0.0263 N   0  0  0  0  0  0  0  0  0  0  0  0
    2.0609   36.2392   -0.5028 C   0  0  1  0  0  0  0  0  0  0  0  0
    2.7262   37.4416   -0.8949 O   0  0  0  0  0  0  0  0  0  0  0  0
    0.5142   37.5631   -5.3055 C   0  0  2  0  0  0  0  0  0  0  0  0
    0.3437   38.5469   -6.2945 O   0  0  0  0  0  0  0  0  0  0  0  0
    0.5395   32.9474   -1.9989 C   0  0  1  0  0  0  0  0  0  0  0  0
    1.6398   33.3278   -1.1875 O   0  0  0  0  0  0  0  0  0  0  0  0
    3.0498   35.3365    0.0997 C   0  0  1  0  0  0  0  0  0  0  0  0
    3.5422   34.5809   -1.0001 O   0  0  0  0  0  0  0  0  0  0  0  0
   -0.7033   36.6774   -5.2625 C   0  0  1  0  0  0  0  0  0  0  0  0
   -0.7116   35.8618   -6.3970 O   0  0  0  0  0  0  0  0  0  0  0  0
    0.9796   31.9231   -3.0834 C   0  0  2  0  0  0  0  0  0  0  0  0
    1.9762   32.5143   -3.9157 O   0  0  0  0  0  0  0  0  0  0  0  0
   -0.6475   35.8022   -4.0569 C   0  0  1  0  0  0  0  0  0  0  0  0
   -0.6434   36.6279   -2.9284 O   0  0  0  0  0  0  0  0  0  0  0  0
   -0.2423   31.5377   -3.9435 C   0  0  1  0  0  0  0  0  0  0  0  0
    0.1445   30.5914   -4.9534 O   0  0  0  0  0  0  0  0  0  0  0  0
   -1.8890   34.8929   -3.9665 C   0  0  0  0  0  0  0  0  0  0  0  0
   -1.8329   33.9199   -5.0033 O   0  0  0  0  0  0  0  0  0  0  0  0
   -2.2532   28.3527   -4.4642 N   0  0  0  0  0  0  0  0  0  0  0  0
   -2.1230   32.5599    1.5745 N   0  0  0  0  0  0  0  0  0  0  0  0
  1  2  1  0  0  0  0
  1 39  1  0  0  0  0
  3  4  1  0  0  0  0
  5  6  1  0  0  0  0
  5 40  1  0  0  0  0
  9 10  1  6  0  0  0
  9 14  1  0  0  0  0
  9 35  1  0  0  0  0
 10  1  1  0  0  0  0
 11 16  1  0  0  0  0
 11 28  1  0  0  0  0
 11 26  1  1  0  0  0
 12 17  1  0  0  0  0
 12 34  1  0  0  0  0
 12 13  1  6  0  0  0
 14 15  1  1  0  0  0
 14 19  1  0  0  0  0
 16 13  1  6  0  0  0
 16 21  1  0  0  0  0
 17 18  1  6  0  0  0
 17 23  1  0  0  0  0
 18  8  1  0  0  0  0
 19 20  1  1  0  0  0
 19 25  1  0  0  0  0
 20  5  1  0  0  0  0
 21  3  1  1  0  0  0
 21 22  1  0  0  0  0
 21 27  1  0  0  0  0
 23 24  1  6  0  0  0
 23 29  1  0  0  0  0
 25 26  1  1  0  0  0
 25 31  1  0  0  0  0
 27  7  1  6  0  0  0
 27 28  1  0  0  0  0
 29 30  1  6  0  0  0
 29 33  1  0  0  0  0
 31 32  1  6  0  0  0
 31 35  1  0  0  0  0
 33 34  1  0  0  0  0
 33 37  1  1  0  0  0
 35 36  1  6  0  0  0
 37 38  1  0  0  0  0
M  END
>  <CHROM.1>
-115.11338711,98.91801027,71.56524052,168.17909732,167.55215927,-103.19344656
103.20568756,73.19817041,-177.69954671,-156.30637876,69.65710414,0.17519500
34.31314927,-2.43317605,2.59168680,1.01883279,2.23380013

>  <Name>
1nta_lig

>  <RI>
0

>  <Rbt.Current_Directory>
/home/itssahil/PROJECTS/Mol_Feturizer/New_Systems/rnas/1nta

>  <Rbt.Executable>
rbdock ($Id: //depot/dev/client3/rdock/2013.1/src/exe/rbdock.cxx#4 $)

>  <Rbt.Library>
libRbt.so (2013.1, Build901 2013/11/27)

>  <Rbt.Parameter_File>
/export/apps/rDock/src/rDock_2013.1_src/data/scripts/dock_solv.prm

>  <Rbt.Receptor>
prm/pocket_docking_7.prm

>  <SCORE>
-26.6391

>  <SCORE.INTER>
-1.42019

>  <SCORE.INTER.CONST>
1

>  <SCORE.INTER.POLAR>
-0.332065

>  <SCORE.INTER.ROT>
11

>  <SCORE.INTER.SOLV>
14.1432

>  <SCORE.INTER.VDW>
-15.4877

>  <SCORE.INTER.norm>
-0.0355047

>  <SCORE.INTRA>
-25.2189

>  <SCORE.INTRA.DIHEDRAL>
-9.59733

>  <SCORE.INTRA.DIHEDRAL.0>
19.0336

>  <SCORE.INTRA.POLAR>
0

>  <SCORE.INTRA.POLAR.0>
0

>  <SCORE.INTRA.REPUL>
0

>  <SCORE.INTRA.REPUL.0>
0

>  <SCORE.INTRA.SOLV>
-3.36456

>  <SCORE.INTRA.SOLV.lig_0>
-97.5861

>  <SCORE.INTRA.VDW>
-18.738

>  <SCORE.INTRA.VDW.0>
11.7669

>  <SCORE.INTRA.norm>
-0.630474

>  <SCORE.RESTR>
0

>  <SCORE.RESTR.CAVITY>
0

>  <SCORE.RESTR.norm>
0

>  <SCORE.SYSTEM>
0

>  <SCORE.SYSTEM.CONST>
0

>  <SCORE.SYSTEM.DIHEDRAL>
0

>  <SCORE.SYSTEM.SOLV>
0

>  <SCORE.SYSTEM.norm>
0

>  <SCORE.heavy>
40

>  <SCORE.norm>
-0.665978

>  <RMSD>
6.740

$$$$
1nta_lig
 OpenBabel11021811403D
libRbt.so/2013.1/901 2013/11/27
 40 42  0  0  0  0  0  0  0  0999 V2000
   -2.9802   32.4385   -7.8938 C   0  0  0  0  0  0  0  0  0  0  0  0
   -3.5147   33.3867   -8.5686 N   0  0  0  0  0  0  0  0  0  0  0  0
    3.4128   33.0199   -0.3590 C   0  0  0  0  0  0  0  0  0  0  0  0
    3.2249   33.0799    0.8361 O   0  0  0  0  0  0  0  0  0  0  0  0
   -1.0596   36.7938   -3.9769 C   0  0  0  0  0  0  0  0  0  0  0  0
   -1.6372   36.8756   -2.8067 N   0  0  0  0  0  0  0  0  0  0  0  0
    4.8502   33.5985   -3.3019 C   0  0  0  0  0  0  0  0  0  0  0  0
    5.0858   37.9117    1.3527 C   0  0  0  0  0  0  0  0  0  0  0  0
   -1.4222   32.8475   -6.1600 C   0  0  2  0  0  0  0  0  0  0  0  0
   -1.6904   32.5834   -7.6288 N   0  0  0  0  0  0  0  0  0  0  0  0
    1.6389   35.0116   -2.5395 C   0  0  2  0  0  0  0  0  0  0  0  0
    2.5020   36.1326    0.7795 C   0  0  1  0  0  0  0  0  0  0  0  0
    2.1683   36.1549   -0.5642 O   0  0  0  0  0  0  0  0  0  0  0  0
   -0.9112   34.2878   -5.9662 C   0  0  1  0  0  0  0  0  0  0  0  0
   -1.9365   35.1454   -6.3679 O   0  0  0  0  0  0  0  0  0  0  0  0
    2.1579   34.9490   -1.1071 C   0  0  2  0  0  0  0  0  0  0  0  0
    2.8131   37.4804    1.3922 C   0  0  1  0  0  0  0  0  0  0  0  0
    3.8399   38.1012    0.6289 N   0  0  0  0  0  0  0  0  0  0  0  0
   -0.6001   34.6043   -4.4973 C   0  0  2  0  0  0  0  0  0  0  0  0
   -0.1009   35.9824   -4.2742 N   0  0  0  0  0  0  0  0  0  0  0  0
    3.4057   34.2009   -1.2922 C   0  0  1  0  0  0  0  0  0  0  0  0
    4.4828   35.1020   -1.0280 O   0  0  0  0  0  0  0  0  0  0  0  0
    1.6932   38.3002    1.3918 C   0  0  2  0  0  0  0  0  0  0  0  0
    1.9681   39.3968    2.2265 O   0  0  0  0  0  0  0  0  0  0  0  0
    0.4441   33.6112   -4.0122 C   0  0  1  0  0  0  0  0  0  0  0  0
    0.7253   33.9062   -2.6529 O   0  0  0  0  0  0  0  0  0  0  0  0
    3.4930   33.7708   -2.6933 C   0  0  1  0  0  0  0  0  0  0  0  0
    2.7208   34.7346   -3.3988 O   0  0  0  0  0  0  0  0  0  0  0  0
    0.4968   37.5535    1.9205 C   0  0  1  0  0  0  0  0  0  0  0  0
   -0.6523   38.3130    1.6858 O   0  0  0  0  0  0  0  0  0  0  0  0
   -0.0859   32.1571   -4.1648 C   0  0  2  0  0  0  0  0  0  0  0  0
    0.9025   31.2417   -3.6954 O   0  0  0  0  0  0  0  0  0  0  0  0
    0.3550   36.2552    1.2018 C   0  0  1  0  0  0  0  0  0  0  0  0
    1.5077   35.5023    1.4464 O   0  0  0  0  0  0  0  0  0  0  0  0
   -0.3769   31.8763   -5.6540 C   0  0  1  0  0  0  0  0  0  0  0  0
   -0.8674   30.5354   -5.8162 O   0  0  0  0  0  0  0  0  0  0  0  0
   -0.8495   35.4509    1.7297 C   0  0  0  0  0  0  0  0  0  0  0  0
   -0.6517   35.1636    3.1094 O   0  0  0  0  0  0  0  0  0  0  0  0
   -3.6474   31.4077   -7.5009 N   0  0  0  0  0  0  0  0  0  0  0  0
   -1.4579   37.5378   -4.9330 N   0  0  0  0  0  0  0  0  0  0  0  0
  1  2  1  0  0  0  0
  1 39  1  0  0  0  0
  3  4  1  0  0  0  0
  5  6  1  0  0  0  0
  5 40  1  0  0  0  0
  9 10  1  6  0  0  0
  9 14  1  0  0  0  0
  9 35  1  0  0  0  0
 10  1  1  0  0  0  0
 11 16  1  0  0  0  0
 11 28  1  0  0  0  0
 11 26  1  1  0  0  0
 12 17  1  0  0  0  0
 12 34  1  0  0  0  0
 12 13  1  6  0  0  0
 14 15  1  1  0  0  0
 14 19  1  0  0  0  0
 16 13  1  6  0  0  0
 16 21  1  0  0  0  0
 17 18  1  6  0  0  0
 17 23  1  0  0  0  0
 18  8  1  0  0  0  0
 19 20  1  6  0  0  0
 19 25  1  0  0  0  0
 20  5  1  0  0  0  0
 21  3  1  1  0  0  0
 21 22  1  0  0  0  0
 21 27  1  0  0  0  0
 23 24  1  1  0  0  0
 23 29  1  0  0  0  0
 25 26  1  1  0  0  0
 25 31  1  0  0  0  0
 27  7  1  6  0  0  0
 27 28  1  0  0  0  0
 29 30  1  6  0  0  0
 29 33  1  0  0  0  0
 31 32  1  6  0  0  0
 31 35  1  0  0  0  0
 33 34  1  0  0  0  0
 33 37  1  1  0  0  0
 35 36  1  1  0  0  0
 37 38  1  0  0  0  0
M  END
>  <CHROM.1>
-111.53512784,110.33115051,-163.87235781,167.83940221,173.81207645,-100.66195554
93.40279333,77.29827136,-52.85192803,-80.19918890,-61.15416523,0.76510963
34.91415264,-2.27101914,2.05819905,0.51302693,-2.29350359

>  <Name>
1nta_lig

>  <RI>
0

>  <Rbt.Current_Directory>
/home/itssahil/PROJECTS/Mol_Feturizer/New_Systems/rnas/1nta

>  <Rbt.Executable>
rbdock ($Id: //depot/dev/client3/rdock/2013.1/src/exe/rbdock.cxx#4 $)

>  <Rbt.Library>
libRbt.so (2013.1, Build901 2013/11/27)

>  <Rbt.Parameter_File>
/export/apps/rDock/src/rDock_2013.1_src/data/scripts/dock_solv.prm

>  <Rbt.Receptor>
prm/pocket_docking_8.prm

>  <SCORE>
-28.9204

>  <SCORE.INTER>
-6.31534

>  <SCORE.INTER.CONST>
1

>  <SCORE.INTER.POLAR>
-0.659325

>  <SCORE.INTER.ROT>
11

>  <SCORE.INTER.SOLV>
10.2638

>  <SCORE.INTER.VDW>
-16.3671

>  <SCORE.INTER.norm>
-0.157884

>  <SCORE.INTRA>
-22.7856

>  <SCORE.INTRA.DIHEDRAL>
-10.8397

>  <SCORE.INTRA.DIHEDRAL.0>
19.0336

>  <SCORE.INTRA.POLAR>
0

>  <SCORE.INTRA.POLAR.0>
0

>  <SCORE.INTRA.REPUL>
0

>  <SCORE.INTRA.REPUL.0>
0

>  <SCORE.INTRA.SOLV>
-3.5382

>  <SCORE.INTRA.SOLV.lig_0>
-97.5861

>  <SCORE.INTRA.VDW>
-15.5967

>  <SCORE.INTRA.VDW.0>
11.7669

>  <SCORE.INTRA.norm>
-0.56964

>  <SCORE.RESTR>
0.180574

>  <SCORE.RESTR.CAVITY>
0.180574

>  <SCORE.RESTR.norm>
0.00451435

>  <SCORE.SYSTEM>
0

>  <SCORE.SYSTEM.CONST>
0

>  <SCORE.SYSTEM.DIHEDRAL>
0

>  <SCORE.SYSTEM.SOLV>
0

>  <SCORE.SYSTEM.norm>
0

>  <SCORE.heavy>
40

>  <SCORE.norm>
-0.723009

>  <RMSD>
6.742

$$$$
1nta_lig
 OpenBabel11021811403D
libRbt.so/2013.1/901 2013/11/27
 40 42  0  0  0  0  0  0  0  0999 V2000
   -1.1184   35.8781   -8.4835 C   0  0  0  0  0  0  0  0  0  0  0  0
   -2.0541   35.1115   -8.9041 N   0  0  0  0  0  0  0  0  0  0  0  0
   -1.6580   34.2451    0.5232 C   0  0  0  0  0  0  0  0  0  0  0  0
   -2.8559   34.4191    0.5676 O   0  0  0  0  0  0  0  0  0  0  0  0
   -0.6077   32.3806   -3.3556 C   0  0  0  0  0  0  0  0  0  0  0  0
   -0.8761   31.3917   -4.1678 N   0  0  0  0  0  0  0  0  0  0  0  0
    1.3949   34.3980    1.8340 C   0  0  0  0  0  0  0  0  0  0  0  0
   -3.8099   35.9674   -3.2136 C   0  0  0  0  0  0  0  0  0  0  0  0
   -0.5368   36.0731   -6.1979 C   0  0  2  0  0  0  0  0  0  0  0  0
   -1.3817   36.5404   -7.3670 N   0  0  0  0  0  0  0  0  0  0  0  0
    0.5954   36.2593   -1.1303 C   0  0  2  0  0  0  0  0  0  0  0  0
   -1.7285   38.0624   -1.5054 C   0  0  1  0  0  0  0  0  0  0  0  0
   -1.2411   37.4841   -0.3454 O   0  0  0  0  0  0  0  0  0  0  0  0
   -1.3061   35.0213   -5.3763 C   0  0  1  0  0  0  0  0  0  0  0  0
   -1.5164   33.9218   -6.2098 O   0  0  0  0  0  0  0  0  0  0  0  0
   -0.8082   36.2488   -0.5345 C   0  0  2  0  0  0  0  0  0  0  0  0
   -3.1615   37.7187   -1.8480 C   0  0  1  0  0  0  0  0  0  0  0  0
   -3.2904   36.3034   -1.8986 N   0  0  0  0  0  0  0  0  0  0  0  0
   -0.5060   34.5284   -4.1632 C   0  0  2  0  0  0  0  0  0  0  0  0
   -1.2188   33.5174   -3.3460 N   0  0  0  0  0  0  0  0  0  0  0  0
   -0.6257   35.3379    0.6002 C   0  0  1  0  0  0  0  0  0  0  0  0
   -0.7532   36.1156    1.7923 O   0  0  0  0  0  0  0  0  0  0  0  0
   -4.0369   38.2170   -0.8933 C   0  0  2  0  0  0  0  0  0  0  0  0
   -5.3372   38.1239   -1.4183 O   0  0  0  0  0  0  0  0  0  0  0  0
   -0.1794   35.7321   -3.2935 C   0  0  1  0  0  0  0  0  0  0  0  0
    0.5633   35.2713   -2.1755 O   0  0  0  0  0  0  0  0  0  0  0  0
    0.7346   34.7878    0.5479 C   0  0  1  0  0  0  0  0  0  0  0  0
    1.4816   35.7801   -0.1451 O   0  0  0  0  0  0  0  0  0  0  0  0
   -3.7187   39.6579   -0.5915 C   0  0  1  0  0  0  0  0  0  0  0  0
   -4.4476   40.0581    0.5314 O   0  0  0  0  0  0  0  0  0  0  0  0
    0.6361   36.7771   -4.1070 C   0  0  2  0  0  0  0  0  0  0  0  0
    0.9414   37.8928   -3.2720 O   0  0  0  0  0  0  0  0  0  0  0  0
   -2.2671   39.7994   -0.2824 C   0  0  1  0  0  0  0  0  0  0  0  0
   -1.5479   39.4001   -1.4131 O   0  0  0  0  0  0  0  0  0  0  0  0
   -0.2054   37.2534   -5.3096 C   0  0  1  0  0  0  0  0  0  0  0  0
    0.5314   38.2215   -6.0743 O   0  0  0  0  0  0  0  0  0  0  0  0
   -1.8974   41.2664    0.0130 C   0  0  0  0  0  0  0  0  0  0  0  0
   -2.4967   41.6618    1.2416 O   0  0  0  0  0  0  0  0  0  0  0  0
    0.0044   36.0039   -9.1046 N   0  0  0  0  0  0  0  0  0  0  0  0
    0.3047   32.2465   -2.4747 N   0  0  0  0  0  0  0  0  0  0  0  0
  1  2  1  0  0  0  0
  1 39  1  0  0  0  0
  3  4  1  0  0  0  0
  5  6  1  0  0  0  0
  5 40  1  0  0  0  0
  9 10  1  6  0  0  0
  9 14  1  0  0  0  0
  9 35  1  0  0  0  0
 10  1  1  0  0  0  0
 11 16  1  0  0  0  0
 11 28  1  0  0  0  0
 11 26  1  6  0  0  0
 12 17  1  0  0  0  0
 12 34  1  0  0  0  0
 12 13  1  1  0  0  0
 14 15  1  6  0  0  0
 14 19  1  0  0  0  0
 16 13  1  1  0  0  0
 16 21  1  0  0  0  0
 17 18  1  1  0  0  0
 17 23  1  0  0  0  0
 18  8  1  0  0  0  0
 19 20  1  1  0  0  0
 19 25  1  0  0  0  0
 20  5  1  0  0  0  0
 21  3  1  6  0  0  0
 21 22  1  0  0  0  0
 21 27  1  0  0  0  0
 23 24  1  6  0  0  0
 23 29  1  0  0  0  0
 25 26  1  1  0  0  0
 25 31  1  0  0  0  0
 27  7  1  1  0  0  0
 27 28  1  0  0  0  0
 29 30  1  1  0  0  0
 29 33  1  0  0  0  0
 31 32  1  1  0  0  0
 31 35  1  0  0  0  0
 33 34  1  0  0  0  0
 33 37  1  6  0  0  0
 35 36  1  6  0  0  0
 37 38  1  0  0  0  0
M  END
>  <CHROM.1>
-94.97748187,111.84913748,72.88620956,83.13851531,80.58446711,-123.65172677
116.15771861,-94.55804063,-61.46172931,-164.03188754,68.37083721,-1.26109200
36.41365962,-2.47037038,1.10189075,1.13344191,-1.60106965

>  <Name>
1nta_lig

>  <RI>
0

>  <Rbt.Current_Directory>
/home/itssahil/PROJECTS/Mol_Feturizer/New_Systems/rnas/1nta

>  <Rbt.Executable>
rbdock ($Id: //depot/dev/client3/rdock/2013.1/src/exe/rbdock.cxx#4 $)

>  <Rbt.Library>
libRbt.so (2013.1, Build901 2013/11/27)

>  <Rbt.Parameter_File>
/export/apps/rDock/src/rDock_2013.1_src/data/scripts/dock_solv.prm

>  <Rbt.Receptor>
prm/pocket_docking_4.prm

>  <SCORE>
-13.7469

>  <SCORE.INTER>
9.50033

>  <SCORE.INTER.CONST>
1

>  <SCORE.INTER.POLAR>
0

>  <SCORE.INTER.ROT>
11

>  <SCORE.INTER.SOLV>
6.02493

>  <SCORE.INTER.VDW>
-6.60809

>  <SCORE.INTER.norm>
0.237508

>  <SCORE.INTRA>
-23.2591

>  <SCORE.INTRA.DIHEDRAL>
-8.3145

>  <SCORE.INTRA.DIHEDRAL.0>
19.0336

>  <SCORE.INTRA.POLAR>
0

>  <SCORE.INTRA.POLAR.0>
0

>  <SCORE.INTRA.REPUL>
0

>  <SCORE.INTRA.REPUL.0>
0

>  <SCORE.INTRA.SOLV>
-1.41139

>  <SCORE.INTRA.SOLV.lig_0>
-97.5861

>  <SCORE.INTRA.VDW>
-18.3961

>  <SCORE.INTRA.VDW.0>
11.7669

>  <SCORE.INTRA.norm>
-0.581476

>  <SCORE.RESTR>
0.0118023

>  <SCORE.RESTR.CAVITY>
0.0118023

>  <SCORE.RESTR.norm>
0.000295057

>  <SCORE.SYSTEM>
0

>  <SCORE.SYSTEM.CONST>
0

>  <SCORE.SYSTEM.DIHEDRAL>
0

>  <SCORE.SYSTEM.SOLV>
0

>  <SCORE.SYSTEM.norm>
0

>  <SCORE.heavy>
40

>  <SCORE.norm>
-0.343673

>  <RMSD>
6.763

$$$$
1nta_lig
 OpenBabel11021811403D
libRbt.so/2013.1/901 2013/11/27
 40 42  0  0  0  0  0  0  0  0999 V2000
   -3.5186   34.7417   -3.3503 C   0  0  0  0  0  0  0  0  0  0  0  0
   -4.5923   34.6699   -2.6559 N   0  0  0  0  0  0  0  0  0  0  0  0
    4.2966   36.0146    2.0946 C   0  0  0  0  0  0  0  0  0  0  0  0
    4.8864   35.6925    3.1024 O   0  0  0  0  0  0  0  0  0  0  0  0
    0.0689   34.0628    1.8044 C   0  0  0  0  0  0  0  0  0  0  0  0
    0.7035   32.9354    1.9945 N   0  0  0  0  0  0  0  0  0  0  0  0
    6.4075   33.8725    0.6745 C   0  0  0  0  0  0  0  0  0  0  0  0
    6.0845   40.4310    0.6957 C   0  0  0  0  0  0  0  0  0  0  0  0
   -1.3485   34.9494   -2.4294 C   0  0  2  0  0  0  0  0  0  0  0  0
   -2.6191   35.6145   -2.9217 N   0  0  0  0  0  0  0  0  0  0  0  0
    3.7009   35.2805   -1.2182 C   0  0  2  0  0  0  0  0  0  0  0  0
    3.6834   38.6904   -0.2526 C   0  0  1  0  0  0  0  0  0  0  0  0
    4.1436   37.5599   -0.9068 O   0  0  0  0  0  0  0  0  0  0  0  0
   -1.1024   35.3076   -0.9515 C   0  0  1  0  0  0  0  0  0  0  0  0
   -2.1657   34.7793   -0.2178 O   0  0  0  0  0  0  0  0  0  0  0  0
    3.8738   36.4448   -0.2489 C   0  0  2  0  0  0  0  0  0  0  0  0
    4.2967   39.9965   -0.7070 C   0  0  1  0  0  0  0  0  0  0  0  0
    5.7114   39.8957   -0.6028 N   0  0  0  0  0  0  0  0  0  0  0  0
    0.1865   34.6790   -0.4051 C   0  0  2  0  0  0  0  0  0  0  0  0
    0.4577   35.0071    1.0151 N   0  0  0  0  0  0  0  0  0  0  0  0
    4.8419   35.8816    0.6979 C   0  0  1  0  0  0  0  0  0  0  0  0
    6.0665   36.5980    0.5279 O   0  0  0  0  0  0  0  0  0  0  0  0
    3.9607   40.2749   -2.0245 C   0  0  2  0  0  0  0  0  0  0  0  0
    4.3052   41.6136   -2.2779 O   0  0  0  0  0  0  0  0  0  0  0  0
    1.3466   35.1651   -1.2593 C   0  0  1  0  0  0  0  0  0  0  0  0
    2.5350   34.5784   -0.7521 O   0  0  0  0  0  0  0  0  0  0  0  0
    5.0751   34.4741    0.3510 C   0  0  1  0  0  0  0  0  0  0  0  0
    4.7960   34.4114   -1.0422 O   0  0  0  0  0  0  0  0  0  0  0  0
    2.4818   40.0872   -2.2391 C   0  0  1  0  0  0  0  0  0  0  0  0
    2.2121   40.1370   -3.6092 O   0  0  0  0  0  0  0  0  0  0  0  0
    1.1232   34.7663   -2.7458 C   0  0  2  0  0  0  0  0  0  0  0  0
    2.2258   35.2213   -3.5285 O   0  0  0  0  0  0  0  0  0  0  0  0
    2.0640   38.7505   -1.7279 C   0  0  1  0  0  0  0  0  0  0  0  0
    2.3346   38.7131   -0.3566 O   0  0  0  0  0  0  0  0  0  0  0  0
   -0.1746   35.4248   -3.2588 C   0  0  1  0  0  0  0  0  0  0  0  0
   -0.3984   35.0686   -4.6328 O   0  0  0  0  0  0  0  0  0  0  0  0
    0.5496   38.5284   -1.9118 C   0  0  0  0  0  0  0  0  0  0  0  0
   -0.1609   39.5299   -1.1926 O   0  0  0  0  0  0  0  0  0  0  0  0
   -3.3239   34.0185   -4.3998 N   0  0  0  0  0  0  0  0  0  0  0  0
   -1.0341   34.2779    2.4072 N   0  0  0  0  0  0  0  0  0  0  0  0
  1  2  1  0  0  0  0
  1 39  1  0  0  0  0
  3  4  1  0  0  0  0
  5  6  1  0  0  0  0
  5 40  1  0  0  0  0
  9 10  1  6  0  0  0
  9 14  1  0  0  0  0
  9 35  1  0  0  0  0
 10  1  1  0  0  0  0
 11 16  1  0  0  0  0
 11 28  1  0  0  0  0
 11 26  1  1  0  0  0
 12 17  1  0  0  0  0
 12 34  1  0  0  0  0
 12 13  1  6  0  0  0
 14 15  1  1  0  0  0
 14 19  1  0  0  0  0
 16 13  1  6  0  0  0
 16 21  1  0  0  0  0
 17 18  1  6  0  0  0
 17 23  1  0  0  0  0
 18  8  1  0  0  0  0
 19 20  1  1  0  0  0
 19 25  1  0  0  0  0
 20  5  1  0  0  0  0
 21  3  1  1  0  0  0
 21 22  1  0  0  0  0
 21 27  1  0  0  0  0
 23 24  1  1  0  0  0
 23 29  1  0  0  0  0
 25 26  1  1  0  0  0
 25 31  1  0  0  0  0
 27  7  1  6  0  0  0
 27 28  1  0  0  0  0
 29 30  1  6  0  0  0
 29 33  1  0  0  0  0
 31 32  1  6  0  0  0
 31 35  1  0  0  0  0
 33 34  1  0  0  0  0
 33 37  1  1  0  0  0
 35 36  1  6  0  0  0
 37 38  1  0  0  0  0
M  END
>  <CHROM.1>
-120.49642240,113.79347564,84.45921552,162.45313180,150.32136364,-93.75946731
97.80038862,76.76958587,-176.78850292,-162.33676562,-60.19246419,1.89179224
36.48116141,-0.96391521,2.90089402,0.47175564,2.59289521

>  <Name>
1nta_lig

>  <RI>
0

>  <Rbt.Current_Directory>
/home/itssahil/PROJECTS/Mol_Feturizer/New_Systems/rnas/1nta

>  <Rbt.Executable>
rbdock ($Id: //depot/dev/client3/rdock/2013.1/src/exe/rbdock.cxx#4 $)

>  <Rbt.Library>
libRbt.so (2013.1, Build901 2013/11/27)

>  <Rbt.Parameter_File>
/export/apps/rDock/src/rDock_2013.1_src/data/scripts/dock_solv.prm

>  <Rbt.Receptor>
prm/pocket_docking_5.prm

>  <SCORE>
-25.6245

>  <SCORE.INTER>
-1.87462

>  <SCORE.INTER.CONST>
1

>  <SCORE.INTER.POLAR>
-0.824621

>  <SCORE.INTER.ROT>
11

>  <SCORE.INTER.SOLV>
15.1236

>  <SCORE.INTER.VDW>
-14.4756

>  <SCORE.INTER.norm>
-0.0468654

>  <SCORE.INTRA>
-23.7522

>  <SCORE.INTRA.DIHEDRAL>
-6.05097

>  <SCORE.INTRA.DIHEDRAL.0>
19.0336

>  <SCORE.INTRA.POLAR>
0

>  <SCORE.INTRA.POLAR.0>
0

>  <SCORE.INTRA.REPUL>
0.00286266

>  <SCORE.INTRA.REPUL.0>
0

>  <SCORE.INTRA.SOLV>
-4.68231

>  <SCORE.INTRA.SOLV.lig_0>
-97.5861

>  <SCORE.INTRA.VDW>
-18.3999

>  <SCORE.INTRA.VDW.0>
11.7669

>  <SCORE.INTRA.norm>
-0.593806

>  <SCORE.RESTR>
0.00238836

>  <SCORE.RESTR.CAVITY>
0.00238836

>  <SCORE.RESTR.norm>
5.97091e-05

>  <SCORE.SYSTEM>
0

>  <SCORE.SYSTEM.CONST>
0

>  <SCORE.SYSTEM.DIHEDRAL>
0

>  <SCORE.SYSTEM.SOLV>
0

>  <SCORE.SYSTEM.norm>
0

>  <SCORE.heavy>
40

>  <SCORE.norm>
-0.640611

>  <RMSD>
6.783

$$$$
1nta_lig
 OpenBabel11021811403D
libRbt.so/2013.1/901 2013/11/27
 40 42  0  0  0  0  0  0  0  0999 V2000
   -1.9947   32.0018   -8.0199 C   0  0  0  0  0  0  0  0  0  0  0  0
   -1.9944   32.6980   -9.0948 N   0  0  0  0  0  0  0  0  0  0  0  0
    3.3617   33.3417    0.1616 C   0  0  0  0  0  0  0  0  0  0  0  0
    4.2460   32.5692    0.4591 O   0  0  0  0  0  0  0  0  0  0  0  0
   -0.3163   36.6246   -4.6325 C   0  0  0  0  0  0  0  0  0  0  0  0
   -0.5533   37.3532   -5.6921 N   0  0  0  0  0  0  0  0  0  0  0  0
    5.0577   33.5095   -2.6943 C   0  0  0  0  0  0  0  0  0  0  0  0
   -0.9330   34.8554    0.8546 C   0  0  0  0  0  0  0  0  0  0  0  0
   -0.7558   32.3588   -6.0355 C   0  0  2  0  0  0  0  0  0  0  0  0
   -0.8102   31.8255   -7.4538 N   0  0  0  0  0  0  0  0  0  0  0  0
    1.8214   35.0381   -2.4109 C   0  0  2  0  0  0  0  0  0  0  0  0
    0.9199   36.9444   -0.4616 C   0  0  1  0  0  0  0  0  0  0  0  0
    2.2017   36.4311   -0.5660 O   0  0  0  0  0  0  0  0  0  0  0  0
   -0.1275   33.7652   -6.0228 C   0  0  1  0  0  0  0  0  0  0  0  0
   -0.9735   34.6001   -6.7544 O   0  0  0  0  0  0  0  0  0  0  0  0
    2.2142   35.1635   -0.9429 C   0  0  2  0  0  0  0  0  0  0  0  0
    0.2828   36.8231    0.9052 C   0  0  1  0  0  0  0  0  0  0  0  0
    0.3119   35.4576    1.3013 N   0  0  0  0  0  0  0  0  0  0  0  0
   -0.0252   34.3464   -4.6063 C   0  0  2  0  0  0  0  0  0  0  0  0
    0.5799   35.6990   -4.5559 N   0  0  0  0  0  0  0  0  0  0  0  0
    3.4582   34.3872   -0.9169 C   0  0  1  0  0  0  0  0  0  0  0  0
    4.5263   35.3067   -0.6810 O   0  0  0  0  0  0  0  0  0  0  0  0
    0.9686   37.5796    1.8453 C   0  0  2  0  0  0  0  0  0  0  0  0
    0.1661   37.6576    2.9963 O   0  0  0  0  0  0  0  0  0  0  0  0
    0.8110   33.3946   -3.7657 C   0  0  1  0  0  0  0  0  0  0  0  0
    0.8993   33.9349   -2.4565 O   0  0  0  0  0  0  0  0  0  0  0  0
    3.6570   33.7728   -2.2355 C   0  0  1  0  0  0  0  0  0  0  0  0
    2.9674   34.6397   -3.1276 O   0  0  0  0  0  0  0  0  0  0  0  0
    1.2249   38.9663    1.3162 C   0  0  1  0  0  0  0  0  0  0  0  0
    2.1152   39.6209    2.1714 O   0  0  0  0  0  0  0  0  0  0  0  0
    0.1559   31.9843   -3.7394 C   0  0  2  0  0  0  0  0  0  0  0  0
    0.9484   31.1094   -2.9383 O   0  0  0  0  0  0  0  0  0  0  0  0
    1.8493   38.8828   -0.0350 C   0  0  1  0  0  0  0  0  0  0  0  0
    0.9491   38.2299   -0.8828 O   0  0  0  0  0  0  0  0  0  0  0  0
    0.0806   31.4324   -5.1785 C   0  0  1  0  0  0  0  0  0  0  0  0
   -0.5218   30.1278   -5.1753 O   0  0  0  0  0  0  0  0  0  0  0  0
    2.1092   40.2851   -0.6199 C   0  0  0  0  0  0  0  0  0  0  0  0
    2.8389   40.1574   -1.8349 O   0  0  0  0  0  0  0  0  0  0  0  0
   -3.0724   31.4997   -7.5212 N   0  0  0  0  0  0  0  0  0  0  0  0
   -0.9825   36.8258   -3.5639 N   0  0  0  0  0  0  0  0  0  0  0  0
  1  2  1  0  0  0  0
  1 39  1  0  0  0  0
  3  4  1  0  0  0  0
  5  6  1  0  0  0  0
  5 40  1  0  0  0  0
  9 10  1  6  0  0  0
  9 14  1  0  0  0  0
  9 35  1  0  0  0  0
 10  1  1  0  0  0  0
 11 16  1  0  0  0  0
 11 28  1  0  0  0  0
 11 26  1  1  0  0  0
 12 17  1  0  0  0  0
 12 34  1  0  0  0  0
 12 13  1  1  0  0  0
 14 15  1  6  0  0  0
 14 19  1  0  0  0  0
 16 13  1  6  0  0  0
 16 21  1  0  0  0  0
 17 18  1  1  0  0  0
 17 23  1  0  0  0  0
 18  8  1  0  0  0  0
 19 20  1  6  0  0  0
 19 25  1  0  0  0  0
 20  5  1  0  0  0  0
 21  3  1  1  0  0  0
 21 22  1  0  0  0  0
 21 27  1  0  0  0  0
 23 24  1  1  0  0  0
 23 29  1  0  0  0  0
 25 26  1  1  0  0  0
 25 31  1  0  0  0  0
 27  7  1  6  0  0  0
 27 28  1  0  0  0  0
 29 30  1  1  0  0  0
 29 33  1  0  0  0  0
 31 32  1  1  0  0  0
 31 35  1  0  0  0  0
 33 34  1  0  0  0  0
 33 37  1  6  0  0  0
 35 36  1  1  0  0  0
 37 38  1  0  0  0  0
M  END
>  <CHROM.1>
-97.59170171,120.92277589,-159.21595285,91.33881451,71.75332375,-91.38598016
91.45224727,-104.85999580,-177.58800523,-75.61920431,173.49016854,0.97613564
35.04588954,-2.51757902,2.08606000,0.92891723,-2.63006566

>  <Name>
1nta_lig

>  <RI>
0

>  <Rbt.Current_Directory>
/home/itssahil/PROJECTS/Mol_Feturizer/New_Systems/rnas/1nta

>  <Rbt.Executable>
rbdock ($Id: //depot/dev/client3/rdock/2013.1/src/exe/rbdock.cxx#4 $)

>  <Rbt.Library>
libRbt.so (2013.1, Build901 2013/11/27)

>  <Rbt.Parameter_File>
/export/apps/rDock/src/rDock_2013.1_src/data/scripts/dock_solv.prm

>  <Rbt.Receptor>
prm/pocket_docking_5.prm

>  <SCORE>
-23.358

>  <SCORE.INTER>
-3.55988

>  <SCORE.INTER.CONST>
1

>  <SCORE.INTER.POLAR>
-0.479497

>  <SCORE.INTER.ROT>
11

>  <SCORE.INTER.SOLV>
12.3103

>  <SCORE.INTER.VDW>
-15.8117

>  <SCORE.INTER.norm>
-0.0889971

>  <SCORE.INTRA>
-19.7981

>  <SCORE.INTRA.DIHEDRAL>
-8.23442

>  <SCORE.INTRA.DIHEDRAL.0>
19.0336

>  <SCORE.INTRA.POLAR>
0

>  <SCORE.INTRA.POLAR.0>
0

>  <SCORE.INTRA.REPUL>
0

>  <SCORE.INTRA.REPUL.0>
0

>  <SCORE.INTRA.SOLV>
-2.53622

>  <SCORE.INTRA.SOLV.lig_0>
-97.5861

>  <SCORE.INTRA.VDW>
-14.4128

>  <SCORE.INTRA.VDW.0>
11.7669

>  <SCORE.INTRA.norm>
-0.494952

>  <SCORE.RESTR>
0

>  <SCORE.RESTR.CAVITY>
0

>  <SCORE.RESTR.norm>
0

>  <SCORE.SYSTEM>
0

>  <SCORE.SYSTEM.CONST>
0

>  <SCORE.SYSTEM.DIHEDRAL>
0

>  <SCORE.SYSTEM.SOLV>
0

>  <SCORE.SYSTEM.norm>
0

>  <SCORE.heavy>
40

>  <SCORE.norm>
-0.583949

>  <RMSD>
6.803

$$$$
1nta_lig
 OpenBabel11021811403D
libRbt.so/2013.1/901 2013/11/27
 40 42  0  0  0  0  0  0  0  0999 V2000
   -0.7034   36.0081   -8.3462 C   0  0  0  0  0  0  0  0  0  0  0  0
   -0.1676   37.0273   -8.9067 N   0  0  0  0  0  0  0  0  0  0  0  0
    2.1067   34.8215    1.0608 C   0  0  0  0  0  0  0  0  0  0  0  0
    0.9377   34.5783    1.2644 O   0  0  0  0  0  0  0  0  0  0  0  0
    0.2724   32.5438   -3.8115 C   0  0  0  0  0  0  0  0  0  0  0  0
   -0.3548   31.5367   -4.3613 N   0  0  0  0  0  0  0  0  0  0  0  0
    3.3894   33.2185   -1.5558 C   0  0  0  0  0  0  0  0  0  0  0  0
    6.2524   38.0102    1.1965 C   0  0  0  0  0  0  0  0  0  0  0  0
   -0.6403   36.2298   -5.9909 C   0  0  2  0  0  0  0  0  0  0  0  0
   -1.4419   36.2670   -7.2774 N   0  0  0  0  0  0  0  0  0  0  0  0
    1.5455   36.2645   -2.0167 C   0  0  2  0  0  0  0  0  0  0  0  0
    3.0820   38.1127    0.6693 C   0  0  1  0  0  0  0  0  0  0  0  0
    2.7675   37.6840   -0.6093 O   0  0  0  0  0  0  0  0  0  0  0  0
   -0.8689   34.8911   -5.2637 C   0  0  1  0  0  0  0  0  0  0  0  0
   -0.3784   33.8827   -6.0947 O   0  0  0  0  0  0  0  0  0  0  0  0
    2.0567   36.5687   -0.6127 C   0  0  2  0  0  0  0  0  0  0  0  0
    4.2452   39.0755    0.7620 C   0  0  1  0  0  0  0  0  0  0  0  0
    5.3771   38.4833    0.1373 N   0  0  0  0  0  0  0  0  0  0  0  0
   -0.0982   34.8069   -3.9394 C   0  0  2  0  0  0  0  0  0  0  0  0
   -0.2989   33.5322   -3.2095 N   0  0  0  0  0  0  0  0  0  0  0  0
    2.6731   35.2873   -0.2538 C   0  0  1  0  0  0  0  0  0  0  0  0
    4.0845   35.5005   -0.1862 O   0  0  0  0  0  0  0  0  0  0  0  0
    3.9543   40.2736    0.1248 C   0  0  2  0  0  0  0  0  0  0  0  0
    4.9371   41.2052    0.5006 O   0  0  0  0  0  0  0  0  0  0  0  0
   -0.5475   35.9619   -3.0585 C   0  0  1  0  0  0  0  0  0  0  0  0
    0.1706   35.8813   -1.8372 O   0  0  0  0  0  0  0  0  0  0  0  0
    2.4004   34.3182   -1.3225 C   0  0  1  0  0  0  0  0  0  0  0  0
    2.2281   35.1231   -2.4823 O   0  0  0  0  0  0  0  0  0  0  0  0
    2.5983   40.7758    0.5464 C   0  0  1  0  0  0  0  0  0  0  0  0
    2.2316   41.8409   -0.2804 O   0  0  0  0  0  0  0  0  0  0  0  0
   -0.2772   37.3176   -3.7710 C   0  0  2  0  0  0  0  0  0  0  0  0
   -0.6952   38.3879   -2.9255 O   0  0  0  0  0  0  0  0  0  0  0  0
    1.5878   39.6912    0.3888 C   0  0  1  0  0  0  0  0  0  0  0  0
    1.9622   38.6329    1.2226 O   0  0  0  0  0  0  0  0  0  0  0  0
   -1.0760   37.3661   -5.0903 C   0  0  1  0  0  0  0  0  0  0  0  0
   -0.8400   38.6132   -5.7641 O   0  0  0  0  0  0  0  0  0  0  0  0
    0.1876   40.1612    0.8301 C   0  0  0  0  0  0  0  0  0  0  0  0
   -0.7277   39.0778    0.7144 O   0  0  0  0  0  0  0  0  0  0  0  0
   -0.5342   34.8080   -8.7861 N   0  0  0  0  0  0  0  0  0  0  0  0
    1.5471   32.5810   -3.8282 N   0  0  0  0  0  0  0  0  0  0  0  0
  1  2  1  0  0  0  0
  1 39  1  0  0  0  0
  3  4  1  0  0  0  0
  5  6  1  0  0  0  0
  5 40  1  0  0  0  0
  9 10  1  6  0  0  0
  9 14  1  0  0  0  0
  9 35  1  0  0  0  0
 10  1  1  0  0  0  0
 11 16  1  0  0  0  0
 11 28  1  0  0  0  0
 11 26  1  1  0  0  0
 12 17  1  0  0  0  0
 12 34  1  0  0  0  0
 12 13  1  6  0  0  0
 14 15  1  6  0  0  0
 14 19  1  0  0  0  0
 16 13  1  6  0  0  0
 16 21  1  0  0  0  0
 17 18  1  6  0  0  0
 17 23  1  0  0  0  0
 18  8  1  0  0  0  0
 19 20  1  1  0  0  0
 19 25  1  0  0  0  0
 20  5  1  0  0  0  0
 21  3  1  1  0  0  0
 21 22  1  0  0  0  0
 21 27  1  0  0  0  0
 23 24  1  1  0  0  0
 23 29  1  0  0  0  0
 25 26  1  1  0  0  0
 25 31  1  0  0  0  0
 27  7  1  6  0  0  0
 27 28  1  0  0  0  0
 29 30  1  6  0  0  0
 29 33  1  0  0  0  0
 31 32  1  1  0  0  0
 31 35  1  0  0  0  0
 33 34  1  0  0  0  0
 33 37  1  1  0  0  0
 35 36  1  6  0  0  0
 37 38  1  0  0  0  0
M  END
>  <CHROM.1>
-100.74226552,-90.25864620,162.13803717,160.30218266,170.75550820,-103.16998222
70.25354502,-113.90588949,61.03274363,72.77836418,-177.58214293,1.34065217
36.69023305,-2.25749358,2.56037034,1.02779568,-3.02201310

>  <Name>
1nta_lig

>  <RI>
0

>  <Rbt.Current_Directory>
/home/itssahil/PROJECTS/Mol_Feturizer/New_Systems/rnas/1nta

>  <Rbt.Executable>
rbdock ($Id: //depot/dev/client3/rdock/2013.1/src/exe/rbdock.cxx#4 $)

>  <Rbt.Library>
libRbt.so (2013.1, Build901 2013/11/27)

>  <Rbt.Parameter_File>
/export/apps/rDock/src/rDock_2013.1_src/data/scripts/dock_solv.prm

>  <Rbt.Receptor>
prm/pocket_docking_5.prm

>  <SCORE>
-22.9327

>  <SCORE.INTER>
-1.9839

>  <SCORE.INTER.CONST>
1

>  <SCORE.INTER.POLAR>
-0.355261

>  <SCORE.INTER.ROT>
11

>  <SCORE.INTER.SOLV>
11.8175

>  <SCORE.INTER.VDW>
-15.0109

>  <SCORE.INTER.norm>
-0.0495974

>  <SCORE.INTRA>
-20.9488

>  <SCORE.INTRA.DIHEDRAL>
-11.4624

>  <SCORE.INTRA.DIHEDRAL.0>
19.0336

>  <SCORE.INTRA.POLAR>
0

>  <SCORE.INTRA.POLAR.0>
0

>  <SCORE.INTRA.REPUL>
0

>  <SCORE.INTRA.REPUL.0>
0

>  <SCORE.INTRA.SOLV>
-0.277368

>  <SCORE.INTRA.SOLV.lig_0>
-97.5861

>  <SCORE.INTRA.VDW>
-15.0789

>  <SCORE.INTRA.VDW.0>
11.7669

>  <SCORE.INTRA.norm>
-0.52372

>  <SCORE.RESTR>
0

>  <SCORE.RESTR.CAVITY>
0

>  <SCORE.RESTR.norm>
0

>  <SCORE.SYSTEM>
0

>  <SCORE.SYSTEM.CONST>
0

>  <SCORE.SYSTEM.DIHEDRAL>
0

>  <SCORE.SYSTEM.SOLV>
0

>  <SCORE.SYSTEM.norm>
0

>  <SCORE.heavy>
40

>  <SCORE.norm>
-0.573317

>  <RMSD>
6.824

$$$$
1nta_lig
 OpenBabel11021811403D
libRbt.so/2013.1/901 2013/11/27
 40 42  0  0  0  0  0  0  0  0999 V2000
   -0.0054   31.7417   -4.8823 C   0  0  0  0  0  0  0  0  0  0  0  0
    0.3306   30.6961   -5.5410 N   0  0  0  0  0  0  0  0  0  0  0  0
   -0.0749   40.3609    0.3356 C   0  0  0  0  0  0  0  0  0  0  0  0
   -1.0187   40.9728    0.7850 O   0  0  0  0  0  0  0  0  0  0  0  0
   -0.0512   37.9711   -4.4768 C   0  0  0  0  0  0  0  0  0  0  0  0
   -1.0613   38.4977   -3.8348 N   0  0  0  0  0  0  0  0  0  0  0  0
   -1.1298   38.0489    2.4811 C   0  0  0  0  0  0  0  0  0  0  0  0
    3.2524   40.5949   -3.2748 C   0  0  0  0  0  0  0  0  0  0  0  0
    0.4918   33.5259   -3.4092 C   0  0  2  0  0  0  0  0  0  0  0  0
    0.9717   32.3307   -4.2092 N   0  0  0  0  0  0  0  0  0  0  0  0
    1.3990   37.2594    0.0578 C   0  0  2  0  0  0  0  0  0  0  0  0
    3.8854   38.6571   -0.4352 C   0  0  1  0  0  0  0  0  0  0  0  0
    2.9718   38.9181    0.5721 O   0  0  0  0  0  0  0  0  0  0  0  0
    0.9494   34.8327   -4.0843 C   0  0  1  0  0  0  0  0  0  0  0  0
    0.3320   34.8877   -5.3348 O   0  0  0  0  0  0  0  0  0  0  0  0
    1.7199   38.7450    0.1824 C   0  0  2  0  0  0  0  0  0  0  0  0
    4.2288   39.8356   -1.3195 C   0  0  1  0  0  0  0  0  0  0  0  0
    3.0245   40.3670   -1.8577 N   0  0  0  0  0  0  0  0  0  0  0  0
    0.5106   36.0784   -3.3030 C   0  0  2  0  0  0  0  0  0  0  0  0
    0.9386   37.3556   -3.9223 N   0  0  0  0  0  0  0  0  0  0  0  0
    0.6056   39.2045    1.0179 C   0  0  1  0  0  0  0  0  0  0  0  0
    1.1513   39.5735    2.2860 O   0  0  0  0  0  0  0  0  0  0  0  0
    4.8772   40.8289   -0.5991 C   0  0  2  0  0  0  0  0  0  0  0  0
    5.4204   41.7386   -1.5223 O   0  0  0  0  0  0  0  0  0  0  0  0
    1.0921   35.9846   -1.9013 C   0  0  1  0  0  0  0  0  0  0  0  0
    0.6804   37.1367   -1.1824 O   0  0  0  0  0  0  0  0  0  0  0  0
   -0.3237   38.0859    1.2198 C   0  0  1  0  0  0  0  0  0  0  0  0
    0.4939   36.9298    1.0863 O   0  0  0  0  0  0  0  0  0  0  0  0
    5.9838   40.2357    0.2327 C   0  0  1  0  0  0  0  0  0  0  0  0
    6.4556   41.2069    1.1196 O   0  0  0  0  0  0  0  0  0  0  0  0
    0.5965   34.6881   -1.1998 C   0  0  2  0  0  0  0  0  0  0  0  0
    1.1437   34.6234    0.1161 O   0  0  0  0  0  0  0  0  0  0  0  0
    5.4574   39.0905    1.0289 C   0  0  1  0  0  0  0  0  0  0  0  0
    4.9918   38.1238    0.1322 O   0  0  0  0  0  0  0  0  0  0  0  0
    1.0656   33.4613   -2.0097 C   0  0  1  0  0  0  0  0  0  0  0  0
    0.6177   32.2517   -1.3763 O   0  0  0  0  0  0  0  0  0  0  0  0
    6.5672   38.4426    1.8802 C   0  0  0  0  0  0  0  0  0  0  0  0
    7.4984   37.7951    1.0207 O   0  0  0  0  0  0  0  0  0  0  0  0
   -1.2134   32.1919   -4.8682 N   0  0  0  0  0  0  0  0  0  0  0  0
   -0.0120   38.0267   -5.7503 N   0  0  0  0  0  0  0  0  0  0  0  0
  1  2  1  0  0  0  0
  1 39  1  0  0  0  0
  3  4  1  0  0  0  0
  5  6  1  0  0  0  0
  5 40  1  0  0  0  0
  9 10  1  6  0  0  0
  9 14  1  0  0  0  0
  9 35  1  0  0  0  0
 10  1  1  0  0  0  0
 11 16  1  0  0  0  0
 11 28  1  0  0  0  0
 11 26  1  6  0  0  0
 12 17  1  0  0  0  0
 12 34  1  0  0  0  0
 12 13  1  1  0  0  0
 14 15  1  6  0  0  0
 14 19  1  0  0  0  0
 16 13  1  1  0  0  0
 16 21  1  0  0  0  0
 17 18  1  1  0  0  0
 17 23  1  0  0  0  0
 18  8  1  0  0  0  0
 19 20  1  6  0  0  0
 19 25  1  0  0  0  0
 20  5  1  0  0  0  0
 21  3  1  6  0  0  0
 21 22  1  0  0  0  0
 21 27  1  0  0  0  0
 23 24  1  6  0  0  0
 23 29  1  0  0  0  0
 25 26  1  1  0  0  0
 25 31  1  0  0  0  0
 27  7  1  1  0  0  0
 27 28  1  0  0  0  0
 29 30  1  1  0  0  0
 29 33  1  0  0  0  0
 31 32  1  1  0  0  0
 31 35  1  0  0  0  0
 33 34  1  0  0  0  0
 33 37  1  6  0  0  0
 35 36  1  1  0  0  0
 37 38  1  0  0  0  0
M  END
>  <CHROM.1>
-106.17166900,-177.65017326,138.81289349,88.59236008,73.91461488,-134.39906207
106.30273989,67.38995430,-178.78698053,-168.53159109,-68.41123258,1.89767265
37.31649444,-1.31845273,-2.06263070,0.06264452,0.63696225

>  <Name>
1nta_lig

>  <RI>
0

>  <Rbt.Current_Directory>
/home/itssahil/PROJECTS/Mol_Feturizer/New_Systems/rnas/1nta

>  <Rbt.Executable>
rbdock ($Id: //depot/dev/client3/rdock/2013.1/src/exe/rbdock.cxx#4 $)

>  <Rbt.Library>
libRbt.so (2013.1, Build901 2013/11/27)

>  <Rbt.Parameter_File>
/export/apps/rDock/src/rDock_2013.1_src/data/scripts/dock_solv.prm

>  <Rbt.Receptor>
prm/pocket_docking_6.prm

>  <SCORE>
-24.7036

>  <SCORE.INTER>
-5.71082

>  <SCORE.INTER.CONST>
1

>  <SCORE.INTER.POLAR>
-0.0820798

>  <SCORE.INTER.ROT>
11

>  <SCORE.INTER.SOLV>
18.6626

>  <SCORE.INTER.VDW>
-20.6878

>  <SCORE.INTER.norm>
-0.142771

>  <SCORE.INTRA>
-18.9928

>  <SCORE.INTRA.DIHEDRAL>
-3.62159

>  <SCORE.INTRA.DIHEDRAL.0>
19.0336

>  <SCORE.INTRA.POLAR>
0

>  <SCORE.INTRA.POLAR.0>
0

>  <SCORE.INTRA.REPUL>
0

>  <SCORE.INTRA.REPUL.0>
0

>  <SCORE.INTRA.SOLV>
-5.07643

>  <SCORE.INTRA.SOLV.lig_0>
-97.5861

>  <SCORE.INTRA.VDW>
-14.6438

>  <SCORE.INTRA.VDW.0>
11.7669

>  <SCORE.INTRA.norm>
-0.474819

>  <SCORE.RESTR>
0

>  <SCORE.RESTR.CAVITY>
0

>  <SCORE.RESTR.norm>
0

>  <SCORE.SYSTEM>
0

>  <SCORE.SYSTEM.CONST>
0

>  <SCORE.SYSTEM.DIHEDRAL>
0

>  <SCORE.SYSTEM.SOLV>
0

>  <SCORE.SYSTEM.norm>
0

>  <SCORE.heavy>
40

>  <SCORE.norm>
-0.61759

>  <RMSD>
6.833

$$$$
1nta_lig
 OpenBabel11021811403D
libRbt.so/2013.1/901 2013/11/27
 40 42  0  0  0  0  0  0  0  0999 V2000
   -0.8670   30.8030   -6.6804 C   0  0  0  0  0  0  0  0  0  0  0  0
   -0.8850   31.1972   -7.8987 N   0  0  0  0  0  0  0  0  0  0  0  0
   -0.5958   37.4263    0.6580 C   0  0  0  0  0  0  0  0  0  0  0  0
   -0.9353   38.5890    0.6533 O   0  0  0  0  0  0  0  0  0  0  0  0
   -0.8025   36.7502   -5.5183 C   0  0  0  0  0  0  0  0  0  0  0  0
   -1.1379   36.7556   -6.7822 N   0  0  0  0  0  0  0  0  0  0  0  0
    1.1953   34.8254    1.7015 C   0  0  0  0  0  0  0  0  0  0  0  0
    1.8728   40.7360    1.6422 C   0  0  0  0  0  0  0  0  0  0  0  0
   -0.1783   32.2756   -4.9606 C   0  0  2  0  0  0  0  0  0  0  0  0
    0.1769   31.1992   -5.9676 N   0  0  0  0  0  0  0  0  0  0  0  0
    1.5332   36.0310   -1.6635 C   0  0  2  0  0  0  0  0  0  0  0  0
    1.5848   39.5620   -1.2043 C   0  0  1  0  0  0  0  0  0  0  0  0
    2.0776   38.2681   -1.2297 O   0  0  0  0  0  0  0  0  0  0  0  0
    0.1930   33.6634   -5.5165 C   0  0  1  0  0  0  0  0  0  0  0  0
   -0.5902   33.8745   -6.6522 O   0  0  0  0  0  0  0  0  0  0  0  0
    1.1369   37.3602   -1.0299 C   0  0  2  0  0  0  0  0  0  0  0  0
    2.5005   40.5917   -0.5799 C   0  0  1  0  0  0  0  0  0  0  0  0
    2.8459   40.1590    0.7299 N   0  0  0  0  0  0  0  0  0  0  0  0
   -0.1236   34.7927   -4.5270 C   0  0  2  0  0  0  0  0  0  0  0  0
    0.2258   36.1437   -5.0279 N   0  0  0  0  0  0  0  0  0  0  0  0
    0.7870   36.9315    0.3283 C   0  0  1  0  0  0  0  0  0  0  0  0
    1.7751   37.4689    1.2097 O   0  0  0  0  0  0  0  0  0  0  0  0
    3.6615   40.7452   -1.3246 C   0  0  2  0  0  0  0  0  0  0  0  0
    4.3122   41.9029   -0.8649 O   0  0  0  0  0  0  0  0  0  0  0  0
    0.6447   34.5232   -3.2428 C   0  0  1  0  0  0  0  0  0  0  0  0
    0.3456   35.5681   -2.3305 O   0  0  0  0  0  0  0  0  0  0  0  0
    0.8557   35.4663    0.3916 C   0  0  1  0  0  0  0  0  0  0  0  0
    1.7941   35.1209   -0.6198 O   0  0  0  0  0  0  0  0  0  0  0  0
    3.3304   40.9013   -2.7856 C   0  0  1  0  0  0  0  0  0  0  0  0
    4.5093   40.8117   -3.5303 O   0  0  0  0  0  0  0  0  0  0  0  0
    0.2394   33.1418   -2.6544 C   0  0  2  0  0  0  0  0  0  0  0  0
    0.9622   32.9119   -1.4460 O   0  0  0  0  0  0  0  0  0  0  0  0
    2.4199   39.8022   -3.2163 C   0  0  1  0  0  0  0  0  0  0  0  0
    1.2429   39.9036   -2.4680 O   0  0  0  0  0  0  0  0  0  0  0  0
    0.5822   32.0352   -3.6738 C   0  0  1  0  0  0  0  0  0  0  0  0
    0.2157   30.7493   -3.1475 O   0  0  0  0  0  0  0  0  0  0  0  0
    2.0411   39.9388   -4.7043 C   0  0  0  0  0  0  0  0  0  0  0  0
    1.3364   41.1599   -4.8976 O   0  0  0  0  0  0  0  0  0  0  0  0
   -1.7978   30.0657   -6.1781 N   0  0  0  0  0  0  0  0  0  0  0  0
   -1.5041   37.3997   -4.6744 N   0  0  0  0  0  0  0  0  0  0  0  0
  1  2  1  0  0  0  0
  1 39  1  0  0  0  0
  3  4  1  0  0  0  0
  5  6  1  0  0  0  0
  5 40  1  0  0  0  0
  9 10  1  6  0  0  0
  9 14  1  0  0  0  0
  9 35  1  0  0  0  0
 10  1  1  0  0  0  0
 11 16  1  0  0  0  0
 11 28  1  0  0  0  0
 11 26  1  6  0  0  0
 12 17  1  0  0  0  0
 12 34  1  0  0  0  0
 12 13  1  6  0  0  0
 14 15  1  6  0  0  0
 14 19  1  0  0  0  0
 16 13  1  1  0  0  0
 16 21  1  0  0  0  0
 17 18  1  1  0  0  0
 17 23  1  0  0  0  0
 18  8  1  0  0  0  0
 19 20  1  6  0  0  0
 19 25  1  0  0  0  0
 20  5  1  0  0  0  0
 21  3  1  1  0  0  0
 21 22  1  0  0  0  0
 21 27  1  0  0  0  0
 23 24  1  1  0  0  0
 23 29  1  0  0  0  0
 25 26  1  1  0  0  0
 25 31  1  0  0  0  0
 27  7  1  1  0  0  0
 27 28  1  0  0  0  0
 29 30  1  6  0  0  0
 29 33  1  0  0  0  0
 31 32  1  1  0  0  0
 31 35  1  0  0  0  0
 33 34  1  0  0  0  0
 33 37  1  6  0  0  0
 35 36  1  1  0  0  0
 37 38  1  0  0  0  0
M  END
>  <CHROM.1>
-98.82729517,107.04823794,165.06537802,143.50736125,154.41465331,-91.88147666
97.84923870,-94.39579617,-58.61894226,-136.23428242,-62.18832062,0.94472098
36.48181173,-2.70276974,-3.02950246,1.26469219,1.96552874

>  <Name>
1nta_lig

>  <RI>
0

>  <Rbt.Current_Directory>
/home/itssahil/PROJECTS/Mol_Feturizer/New_Systems/rnas/1nta

>  <Rbt.Executable>
rbdock ($Id: //depot/dev/client3/rdock/2013.1/src/exe/rbdock.cxx#4 $)

>  <Rbt.Library>
libRbt.so (2013.1, Build901 2013/11/27)

>  <Rbt.Parameter_File>
/export/apps/rDock/src/rDock_2013.1_src/data/scripts/dock_solv.prm

>  <Rbt.Receptor>
prm/pocket_docking_6.prm

>  <SCORE>
-21.8499

>  <SCORE.INTER>
-1.39479

>  <SCORE.INTER.CONST>
1

>  <SCORE.INTER.POLAR>
0

>  <SCORE.INTER.ROT>
11

>  <SCORE.INTER.SOLV>
11.4065

>  <SCORE.INTER.VDW>
-15.6653

>  <SCORE.INTER.norm>
-0.0348698

>  <SCORE.INTRA>
-20.4551

>  <SCORE.INTRA.DIHEDRAL>
-0.989201

>  <SCORE.INTRA.DIHEDRAL.0>
19.0336

>  <SCORE.INTRA.POLAR>
0

>  <SCORE.INTRA.POLAR.0>
0

>  <SCORE.INTRA.REPUL>
0

>  <SCORE.INTRA.REPUL.0>
0

>  <SCORE.INTRA.SOLV>
-3.45043

>  <SCORE.INTRA.SOLV.lig_0>
-97.5861

>  <SCORE.INTRA.VDW>
-18.2353

>  <SCORE.INTRA.VDW.0>
11.7669

>  <SCORE.INTRA.norm>
-0.511379

>  <SCORE.RESTR>
0

>  <SCORE.RESTR.CAVITY>
0

>  <SCORE.RESTR.norm>
0

>  <SCORE.SYSTEM>
0

>  <SCORE.SYSTEM.CONST>
0

>  <SCORE.SYSTEM.DIHEDRAL>
0

>  <SCORE.SYSTEM.SOLV>
0

>  <SCORE.SYSTEM.norm>
0

>  <SCORE.heavy>
40

>  <SCORE.norm>
-0.546248

>  <RMSD>
6.887

$$$$
1nta_lig
 OpenBabel11021811403D
libRbt.so/2013.1/901 2013/11/27
 40 42  0  0  0  0  0  0  0  0999 V2000
   -0.1083   39.7972    1.5873 C   0  0  0  0  0  0  0  0  0  0  0  0
    0.7979   40.6336    1.2421 N   0  0  0  0  0  0  0  0  0  0  0  0
    0.4295   31.9741   -2.1428 C   0  0  0  0  0  0  0  0  0  0  0  0
   -0.0289   30.9018   -2.4705 O   0  0  0  0  0  0  0  0  0  0  0  0
   -2.1353   34.7137    0.8655 C   0  0  0  0  0  0  0  0  0  0  0  0
   -1.9051   34.5945    2.1472 N   0  0  0  0  0  0  0  0  0  0  0  0
    0.2805   32.4899   -5.4251 C   0  0  0  0  0  0  0  0  0  0  0  0
    6.0516   31.9435   -1.1362 C   0  0  0  0  0  0  0  0  0  0  0  0
   -1.3829   38.8293   -0.1560 C   0  0  2  0  0  0  0  0  0  0  0  0
   -1.2506   39.8866    0.9226 N   0  0  0  0  0  0  0  0  0  0  0  0
    0.9186   35.2214   -3.1840 C   0  0  2  0  0  0  0  0  0  0  0  0
    3.2121   33.8816   -0.8411 C   0  0  1  0  0  0  0  0  0  0  0  0
    2.7977   34.3834   -2.0633 O   0  0  0  0  0  0  0  0  0  0  0  0
   -1.2554   37.4241    0.4622 C   0  0  1  0  0  0  0  0  0  0  0  0
   -2.3263   37.2636    1.3427 O   0  0  0  0  0  0  0  0  0  0  0  0
    1.5255   34.1245   -2.3158 C   0  0  2  0  0  0  0  0  0  0  0  0
    4.7100   33.7677   -0.6619 C   0  0  1  0  0  0  0  0  0  0  0  0
    5.2385   32.9916   -1.7298 N   0  0  0  0  0  0  0  0  0  0  0  0
   -1.3583   36.3117   -0.5898 C   0  0  2  0  0  0  0  0  0  0  0  0
   -1.2351   34.9444   -0.0300 N   0  0  0  0  0  0  0  0  0  0  0  0
    1.1407   32.9254   -3.0674 C   0  0  1  0  0  0  0  0  0  0  0  0
    2.3382   32.3597   -3.6043 O   0  0  0  0  0  0  0  0  0  0  0  0
    5.3113   35.0185   -0.6733 C   0  0  2  0  0  0  0  0  0  0  0  0
    6.6295   34.8614   -0.2121 O   0  0  0  0  0  0  0  0  0  0  0  0
   -0.2585   36.5310   -1.6166 C   0  0  1  0  0  0  0  0  0  0  0  0
   -0.3606   35.5021   -2.5885 O   0  0  0  0  0  0  0  0  0  0  0  0
    0.2757   33.3271   -4.1837 C   0  0  1  0  0  0  0  0  0  0  0  0
    0.6629   34.6686   -4.4546 O   0  0  0  0  0  0  0  0  0  0  0  0
    4.5704   35.9646    0.2347 C   0  0  1  0  0  0  0  0  0  0  0  0
    5.0433   37.2621    0.0214 O   0  0  0  0  0  0  0  0  0  0  0  0
   -0.4102   37.9316   -2.2753 C   0  0  2  0  0  0  0  0  0  0  0  0
    0.6231   38.1143   -3.2418 O   0  0  0  0  0  0  0  0  0  0  0  0
    3.1153   35.9375   -0.0883 C   0  0  1  0  0  0  0  0  0  0  0  0
    2.6522   34.6366    0.1320 O   0  0  0  0  0  0  0  0  0  0  0  0
   -0.2914   39.0199   -1.1878 C   0  0  1  0  0  0  0  0  0  0  0  0
   -0.4282   40.3232   -1.7774 O   0  0  0  0  0  0  0  0  0  0  0  0
    2.3185   36.8801    0.8352 C   0  0  0  0  0  0  0  0  0  0  0  0
    2.5427   36.5073    2.1902 O   0  0  0  0  0  0  0  0  0  0  0  0
    0.0726   38.9278    2.5220 N   0  0  0  0  0  0  0  0  0  0  0  0
   -3.3224   34.5760    0.4201 N   0  0  0  0  0  0  0  0  0  0  0  0
  1  2  1  0  0  0  0
  1 39  1  0  0  0  0
  3  4  1  0  0  0  0
  5  6  1  0  0  0  0
  5 40  1  0  0  0  0
  9 10  1  1  0  0  0
  9 14  1  0  0  0  0
  9 35  1  0  0  0  0
 10  1  1  0  0  0  0
 11 16  1  0  0  0  0
 11 28  1  0  0  0  0
 11 26  1  1  0  0  0
 12 17  1  0  0  0  0
 12 34  1  0  0  0  0
 12 13  1  6  0  0  0
 14 15  1  1  0  0  0
 14 19  1  0  0  0  0
 16 13  1  6  0  0  0
 16 21  1  0  0  0  0
 17 18  1  6  0  0  0
 17 23  1  0  0  0  0
 18  8  1  0  0  0  0
 19 20  1  1  0  0  0
 19 25  1  0  0  0  0
 20  5  1  0  0  0  0
 21  3  1  1  0  0  0
 21 22  1  0  0  0  0
 21 27  1  0  0  0  0
 23 24  1  1  0  0  0
 23 29  1  0  0  0  0
 25 26  1  6  0  0  0
 25 31  1  0  0  0  0
 27  7  1  6  0  0  0
 27 28  1  0  0  0  0
 29 30  1  6  0  0  0
 29 33  1  0  0  0  0
 31 32  1  6  0  0  0
 31 35  1  0  0  0  0
 33 34  1  0  0  0  0
 33 37  1  1  0  0  0
 35 36  1  6  0  0  0
 37 38  1  0  0  0  0
M  END
>  <CHROM.1>
57.43219576,101.04002227,90.61011598,162.48599964,149.84263860,-128.39607305
58.17032923,-109.74699490,178.87498917,-152.02016296,-57.33548957,1.16330041
35.66398093,-0.94088691,-2.19394651,0.19390427,-2.53657371

>  <Name>
1nta_lig

>  <RI>
0

>  <Rbt.Current_Directory>
/home/itssahil/PROJECTS/Mol_Feturizer/New_Systems/rnas/1nta

>  <Rbt.Executable>
rbdock ($Id: //depot/dev/client3/rdock/2013.1/src/exe/rbdock.cxx#4 $)

>  <Rbt.Library>
libRbt.so (2013.1, Build901 2013/11/27)

>  <Rbt.Parameter_File>
/export/apps/rDock/src/rDock_2013.1_src/data/scripts/dock_solv.prm

>  <Rbt.Receptor>
prm/pocket_docking_3.prm

>  <SCORE>
-16.7546

>  <SCORE.INTER>
0.866357

>  <SCORE.INTER.CONST>
1

>  <SCORE.INTER.POLAR>
0

>  <SCORE.INTER.ROT>
11

>  <SCORE.INTER.SOLV>
11.054

>  <SCORE.INTER.VDW>
-14.0404

>  <SCORE.INTER.norm>
0.0216589

>  <SCORE.INTRA>
-17.6249

>  <SCORE.INTRA.DIHEDRAL>
-4.88499

>  <SCORE.INTRA.DIHEDRAL.0>
19.0336

>  <SCORE.INTRA.POLAR>
0

>  <SCORE.INTRA.POLAR.0>
0

>  <SCORE.INTRA.REPUL>
0.0393838

>  <SCORE.INTRA.REPUL.0>
0

>  <SCORE.INTRA.SOLV>
0.0979345

>  <SCORE.INTRA.SOLV.lig_0>
-97.5861

>  <SCORE.INTRA.VDW>
-15.4282

>  <SCORE.INTRA.VDW.0>
11.7669

>  <SCORE.INTRA.norm>
-0.440621

>  <SCORE.RESTR>
0.00392313

>  <SCORE.RESTR.CAVITY>
0.00392313

>  <SCORE.RESTR.norm>
9.80782e-05

>  <SCORE.SYSTEM>
0

>  <SCORE.SYSTEM.CONST>
0

>  <SCORE.SYSTEM.DIHEDRAL>
0

>  <SCORE.SYSTEM.SOLV>
0

>  <SCORE.SYSTEM.norm>
0

>  <SCORE.heavy>
40

>  <SCORE.norm>
-0.418864

>  <RMSD>
6.899

$$$$
1nta_lig
 OpenBabel11021811403D
libRbt.so/2013.1/901 2013/11/27
 40 42  0  0  0  0  0  0  0  0999 V2000
    5.0215   41.9305   -0.0796 C   0  0  0  0  0  0  0  0  0  0  0  0
    5.8032   42.8342   -0.5405 N   0  0  0  0  0  0  0  0  0  0  0  0
   -1.2506   39.9652   -7.1575 C   0  0  0  0  0  0  0  0  0  0  0  0
   -1.3200   40.8061   -8.0266 O   0  0  0  0  0  0  0  0  0  0  0  0
   -0.0316   37.8504   -1.2441 C   0  0  0  0  0  0  0  0  0  0  0  0
   -1.1158   38.3914   -1.7359 N   0  0  0  0  0  0  0  0  0  0  0  0
    1.8906   39.7541   -8.2297 C   0  0  0  0  0  0  0  0  0  0  0  0
   -4.7010   36.4223   -5.6196 C   0  0  0  0  0  0  0  0  0  0  0  0
    3.6446   40.6860   -1.5479 C   0  0  2  0  0  0  0  0  0  0  0  0
    4.9533   40.8167   -0.7933 N   0  0  0  0  0  0  0  0  0  0  0  0
    0.8788   38.0661   -5.2267 C   0  0  2  0  0  0  0  0  0  0  0  0
   -1.6256   36.3361   -4.9845 C   0  0  1  0  0  0  0  0  0  0  0  0
   -0.8928   36.7857   -6.0700 O   0  0  0  0  0  0  0  0  0  0  0  0
    3.0321   39.2932   -1.3071 C   0  0  1  0  0  0  0  0  0  0  0  0
    2.7436   39.2008    0.0553 O   0  0  0  0  0  0  0  0  0  0  0  0
   -0.4773   38.0327   -5.9234 C   0  0  2  0  0  0  0  0  0  0  0  0
   -2.6948   35.3143   -5.3033 C   0  0  1  0  0  0  0  0  0  0  0  0
   -3.5529   35.8500   -6.3026 N   0  0  0  0  0  0  0  0  0  0  0  0
    1.7139   39.0956   -2.0675 C   0  0  2  0  0  0  0  0  0  0  0  0
    1.0979   37.7628   -1.8624 N   0  0  0  0  0  0  0  0  0  0  0  0
   -0.2134   38.8762   -7.0937 C   0  0  1  0  0  0  0  0  0  0  0  0
   -0.2516   38.0287   -8.2437 O   0  0  0  0  0  0  0  0  0  0  0  0
   -2.1347   34.1354   -5.7751 C   0  0  2  0  0  0  0  0  0  0  0  0
   -3.1395   33.1529   -5.7651 O   0  0  0  0  0  0  0  0  0  0  0  0
    1.9905   39.2941   -3.5494 C   0  0  1  0  0  0  0  0  0  0  0  0
    0.7681   39.1139   -4.2472 O   0  0  0  0  0  0  0  0  0  0  0  0
    1.1383   39.4368   -6.9746 C   0  0  1  0  0  0  0  0  0  0  0  0
    1.8341   38.4918   -6.1710 O   0  0  0  0  0  0  0  0  0  0  0  0
   -0.9990   33.7019   -4.8858 C   0  0  1  0  0  0  0  0  0  0  0  0
   -0.3065   32.6606   -5.5091 O   0  0  0  0  0  0  0  0  0  0  0  0
    2.5677   40.7160   -3.8023 C   0  0  2  0  0  0  0  0  0  0  0  0
    2.8105   40.8867   -5.1977 O   0  0  0  0  0  0  0  0  0  0  0  0
   -0.0547   34.8377   -4.6845 C   0  0  1  0  0  0  0  0  0  0  0  0
   -0.7566   35.8718   -4.0573 O   0  0  0  0  0  0  0  0  0  0  0  0
    3.8944   40.8704   -3.0296 C   0  0  1  0  0  0  0  0  0  0  0  0
    4.4448   42.1791   -3.2515 O   0  0  0  0  0  0  0  0  0  0  0  0
    1.1135   34.4386   -3.7613 C   0  0  0  0  0  0  0  0  0  0  0  0
    1.9815   35.5541   -3.5960 O   0  0  0  0  0  0  0  0  0  0  0  0
    4.3407   42.0914    1.0034 N   0  0  0  0  0  0  0  0  0  0  0  0
   -0.0399   37.3818   -0.0581 N   0  0  0  0  0  0  0  0  0  0  0  0
  1  2  1  0  0  0  0
  1 39  1  0  0  0  0
  3  4  1  0  0  0  0
  5  6  1  0  0  0  0
  5 40  1  0  0  0  0
  9 10  1  1  0  0  0
  9 14  1  0  0  0  0
  9 35  1  0  0  0  0
 10  1  1  0  0  0  0
 11 16  1  0  0  0  0
 11 28  1  0  0  0  0
 11 26  1  1  0  0  0
 12 17  1  0  0  0  0
 12 34  1  0  0  0  0
 12 13  1  6  0  0  0
 14 15  1  1  0  0  0
 14 19  1  0  0  0  0
 16 13  1  6  0  0  0
 16 21  1  0  0  0  0
 17 18  1  6  0  0  0
 17 23  1  0  0  0  0
 18  8  1  0  0  0  0
 19 20  1  6  0  0  0
 19 25  1  0  0  0  0
 20  5  1  0  0  0  0
 21  3  1  6  0  0  0
 21 22  1  0  0  0  0
 21 27  1  0  0  0  0
 23 24  1  1  0  0  0
 23 29  1  0  0  0  0
 25 26  1  6  0  0  0
 25 31  1  0  0  0  0
 27  7  1  6  0  0  0
 27 28  1  0  0  0  0
 29 30  1  6  0  0  0
 29 33  1  0  0  0  0
 31 32  1  6  0  0  0
 31 35  1  0  0  0  0
 33 34  1  0  0  0  0
 33 37  1  1  0  0  0
 35 36  1  1  0  0  0
 37 38  1  0  0  0  0
M  END
>  <CHROM.1>
-130.61629380,-106.93891281,-177.72160292,149.32478442,88.96716081,-96.27612992
114.79891393,67.52596514,-178.34664705,-122.12076217,-179.76238522,0.78688519
38.15330882,-4.11291879,0.07072654,0.89329022,2.15854629

>  <Name>
1nta_lig

>  <RI>
0

>  <Rbt.Current_Directory>
/home/itssahil/PROJECTS/Mol_Feturizer/New_Systems/rnas/1nta

>  <Rbt.Executable>
rbdock ($Id: //depot/dev/client3/rdock/2013.1/src/exe/rbdock.cxx#4 $)

>  <Rbt.Library>
libRbt.so (2013.1, Build901 2013/11/27)

>  <Rbt.Parameter_File>
/export/apps/rDock/src/rDock_2013.1_src/data/scripts/dock_solv.prm

>  <Rbt.Receptor>
prm/pocket_docking_7.prm

>  <SCORE>
-25.3401

>  <SCORE.INTER>
-4.84193

>  <SCORE.INTER.CONST>
1

>  <SCORE.INTER.POLAR>
-0.824621

>  <SCORE.INTER.ROT>
11

>  <SCORE.INTER.SOLV>
10.6263

>  <SCORE.INTER.VDW>
-14.9547

>  <SCORE.INTER.norm>
-0.121048

>  <SCORE.INTRA>
-20.4982

>  <SCORE.INTRA.DIHEDRAL>
-0.262394

>  <SCORE.INTRA.DIHEDRAL.0>
19.0336

>  <SCORE.INTRA.POLAR>
0

>  <SCORE.INTRA.POLAR.0>
0

>  <SCORE.INTRA.REPUL>
0

>  <SCORE.INTRA.REPUL.0>
0

>  <SCORE.INTRA.SOLV>
-2.40488

>  <SCORE.INTRA.SOLV.lig_0>
-97.5861

>  <SCORE.INTRA.VDW>
-19.1645

>  <SCORE.INTRA.VDW.0>
11.7669

>  <SCORE.INTRA.norm>
-0.512454

>  <SCORE.RESTR>
0

>  <SCORE.RESTR.CAVITY>
0

>  <SCORE.RESTR.norm>
0

>  <SCORE.SYSTEM>
0

>  <SCORE.SYSTEM.CONST>
0

>  <SCORE.SYSTEM.DIHEDRAL>
0

>  <SCORE.SYSTEM.SOLV>
0

>  <SCORE.SYSTEM.norm>
0

>  <SCORE.heavy>
40

>  <SCORE.norm>
-0.633503

>  <RMSD>
6.925

$$$$
1nta_lig
 OpenBabel11021811403D
libRbt.so/2013.1/901 2013/11/27
 40 42  0  0  0  0  0  0  0  0999 V2000
   -1.7630   31.0232   -8.3347 C   0  0  0  0  0  0  0  0  0  0  0  0
   -2.4483   31.7978   -9.0900 N   0  0  0  0  0  0  0  0  0  0  0  0
    2.4300   33.6470    0.1198 C   0  0  0  0  0  0  0  0  0  0  0  0
    2.0974   33.9863    1.2340 O   0  0  0  0  0  0  0  0  0  0  0  0
   -0.9826   36.4430   -5.3401 C   0  0  0  0  0  0  0  0  0  0  0  0
   -1.9763   36.6247   -4.5098 N   0  0  0  0  0  0  0  0  0  0  0  0
    4.6047   33.5272   -2.3937 C   0  0  0  0  0  0  0  0  0  0  0  0
   -1.3305   37.5457    1.4239 C   0  0  0  0  0  0  0  0  0  0  0  0
   -0.7162   32.1090   -6.5111 C   0  0  2  0  0  0  0  0  0  0  0  0
   -0.6124   31.5180   -7.9035 N   0  0  0  0  0  0  0  0  0  0  0  0
    1.4251   35.1399   -2.8179 C   0  0  2  0  0  0  0  0  0  0  0  0
    0.2793   37.2414   -1.2849 C   0  0  1  0  0  0  0  0  0  0  0  0
    1.5258   36.6828   -1.0576 O   0  0  0  0  0  0  0  0  0  0  0  0
   -0.3043   33.5932   -6.5343 C   0  0  1  0  0  0  0  0  0  0  0  0
   -1.2225   34.2621   -7.3452 O   0  0  0  0  0  0  0  0  0  0  0  0
    1.5590   35.3868   -1.3191 C   0  0  2  0  0  0  0  0  0  0  0  0
   -0.1034   38.3717   -0.3549 C   0  0  1  0  0  0  0  0  0  0  0  0
    0.0057   37.9138    0.9869 N   0  0  0  0  0  0  0  0  0  0  0  0
   -0.3678   34.2387   -5.1437 C   0  0  2  0  0  0  0  0  0  0  0  0
    0.0271   35.6677   -5.1278 N   0  0  0  0  0  0  0  0  0  0  0  0
    2.7509   34.5908   -1.0080 C   0  0  1  0  0  0  0  0  0  0  0  0
    3.7931   35.5059   -0.6639 O   0  0  0  0  0  0  0  0  0  0  0  0
    0.7332   39.4656   -0.5271 C   0  0  2  0  0  0  0  0  0  0  0  0
    0.1479   40.5577    0.1360 O   0  0  0  0  0  0  0  0  0  0  0  0
    0.5519   33.4571   -4.2189 C   0  0  1  0  0  0  0  0  0  0  0  0
    0.4866   34.0559   -2.9340 O   0  0  0  0  0  0  0  0  0  0  0  0
    3.1555   33.8583   -2.2144 C   0  0  1  0  0  0  0  0  0  0  0  0
    2.6640   34.6567   -3.2839 O   0  0  0  0  0  0  0  0  0  0  0  0
    0.8812   39.7871   -1.9911 C   0  0  1  0  0  0  0  0  0  0  0  0
    1.9046   40.7252   -2.1487 O   0  0  0  0  0  0  0  0  0  0  0  0
    0.1119   31.9667   -4.1580 C   0  0  2  0  0  0  0  0  0  0  0  0
    0.9793   31.2530   -3.2785 O   0  0  0  0  0  0  0  0  0  0  0  0
    1.2556   38.5550   -2.7423 C   0  0  1  0  0  0  0  0  0  0  0  0
    0.2236   37.6252   -2.5811 O   0  0  0  0  0  0  0  0  0  0  0  0
    0.1989   31.3533   -5.5713 C   0  0  1  0  0  0  0  0  0  0  0  0
   -0.2032   29.9742   -5.5358 O   0  0  0  0  0  0  0  0  0  0  0  0
    1.3970   38.8395   -4.2508 C   0  0  0  0  0  0  0  0  0  0  0  0
    0.1641   39.3463   -4.7490 O   0  0  0  0  0  0  0  0  0  0  0  0
   -2.1599   29.8385   -8.0167 N   0  0  0  0  0  0  0  0  0  0  0  0
   -0.9819   37.0401   -6.4670 N   0  0  0  0  0  0  0  0  0  0  0  0
  1  2  1  0  0  0  0
  1 39  1  0  0  0  0
  3  4  1  0  0  0  0
  5  6  1  0  0  0  0
  5 40  1  0  0  0  0
  9 10  1  6  0  0  0
  9 14  1  0  0  0  0
  9 35  1  0  0  0  0
 10  1  1  0  0  0  0
 11 16  1  0  0  0  0
 11 28  1  0  0  0  0
 11 26  1  1  0  0  0
 12 17  1  0  0  0  0
 12 34  1  0  0  0  0
 12 13  1  1  0  0  0
 14 15  1  6  0  0  0
 14 19  1  0  0  0  0
 16 13  1  6  0  0  0
 16 21  1  0  0  0  0
 17 18  1  1  0  0  0
 17 23  1  0  0  0  0
 18  8  1  0  0  0  0
 19 20  1  6  0  0  0
 19 25  1  0  0  0  0
 20  5  1  0  0  0  0
 21  3  1  1  0  0  0
 21 22  1  0  0  0  0
 21 27  1  0  0  0  0
 23 24  1  1  0  0  0
 23 29  1  0  0  0  0
 25 26  1  1  0  0  0
 25 31  1  0  0  0  0
 27  7  1  6  0  0  0
 27 28  1  0  0  0  0
 29 30  1  1  0  0  0
 29 33  1  0  0  0  0
 31 32  1  1  0  0  0
 31 35  1  0  0  0  0
 33 34  1  0  0  0  0
 33 37  1  6  0  0  0
 35 36  1  1  0  0  0
 37 38  1  0  0  0  0
M  END
>  <CHROM.1>
-121.66431975,97.12267838,-162.87114179,146.45414132,68.95588807,-98.49905991
89.12270544,68.96447867,-61.78465681,-86.50502135,-58.85128330,0.52739271
35.25626015,-3.39669063,1.98756049,1.02784348,-2.74979349

>  <Name>
1nta_lig

>  <RI>
0

>  <Rbt.Current_Directory>
/home/itssahil/PROJECTS/Mol_Feturizer/New_Systems/rnas/1nta

>  <Rbt.Executable>
rbdock ($Id: //depot/dev/client3/rdock/2013.1/src/exe/rbdock.cxx#4 $)

>  <Rbt.Library>
libRbt.so (2013.1, Build901 2013/11/27)

>  <Rbt.Parameter_File>
/export/apps/rDock/src/rDock_2013.1_src/data/scripts/dock_solv.prm

>  <Rbt.Receptor>
prm/pocket_docking_6.prm

>  <SCORE>
-24.0628

>  <SCORE.INTER>
-4.42172

>  <SCORE.INTER.CONST>
1

>  <SCORE.INTER.POLAR>
-0.596638

>  <SCORE.INTER.ROT>
11

>  <SCORE.INTER.SOLV>
9.3568

>  <SCORE.INTER.VDW>
-15.0113

>  <SCORE.INTER.norm>
-0.110543

>  <SCORE.INTRA>
-19.6411

>  <SCORE.INTRA.DIHEDRAL>
-6.04322

>  <SCORE.INTRA.DIHEDRAL.0>
19.0336

>  <SCORE.INTRA.POLAR>
0

>  <SCORE.INTRA.POLAR.0>
0

>  <SCORE.INTRA.REPUL>
0

>  <SCORE.INTRA.REPUL.0>
0

>  <SCORE.INTRA.SOLV>
0.633237

>  <SCORE.INTRA.SOLV.lig_0>
-97.5861

>  <SCORE.INTRA.VDW>
-16.9361

>  <SCORE.INTRA.VDW.0>
11.7669

>  <SCORE.INTRA.norm>
-0.491028

>  <SCORE.RESTR>
0

>  <SCORE.RESTR.CAVITY>
0

>  <SCORE.RESTR.norm>
0

>  <SCORE.SYSTEM>
0

>  <SCORE.SYSTEM.CONST>
0

>  <SCORE.SYSTEM.DIHEDRAL>
0

>  <SCORE.SYSTEM.SOLV>
0

>  <SCORE.SYSTEM.norm>
0

>  <SCORE.heavy>
40

>  <SCORE.norm>
-0.601571

>  <RMSD>
6.942

$$$$
1nta_lig
 OpenBabel11021811403D
libRbt.so/2013.1/901 2013/11/27
 40 42  0  0  0  0  0  0  0  0999 V2000
    0.2957   38.3270   -5.0314 C   0  0  0  0  0  0  0  0  0  0  0  0
    1.4995   37.9144   -4.8879 N   0  0  0  0  0  0  0  0  0  0  0  0
   -0.9796   35.7652    2.8634 C   0  0  0  0  0  0  0  0  0  0  0  0
   -1.8830   36.4275    2.4024 O   0  0  0  0  0  0  0  0  0  0  0  0
   -3.8012   36.9421   -0.5979 C   0  0  0  0  0  0  0  0  0  0  0  0
   -4.2590   35.7416   -0.3546 N   0  0  0  0  0  0  0  0  0  0  0  0
   -1.8785   32.5655    2.9872 C   0  0  0  0  0  0  0  0  0  0  0  0
    0.5147   38.3977   -0.4097 C   0  0  0  0  0  0  0  0  0  0  0  0
   -1.0916   36.5125   -4.4121 C   0  0  2  0  0  0  0  0  0  0  0  0
   -0.5630   37.4316   -5.4959 N   0  0  0  0  0  0  0  0  0  0  0  0
   -0.4198   33.9284    0.0031 C   0  0  2  0  0  0  0  0  0  0  0  0
    2.0941   35.5528   -0.1325 C   0  0  1  0  0  0  0  0  0  0  0  0
    1.5776   34.7737    0.8891 O   0  0  0  0  0  0  0  0  0  0  0  0
   -1.5773   37.3401   -3.2070 C   0  0  1  0  0  0  0  0  0  0  0  0
   -2.6429   38.1252   -3.6500 O   0  0  0  0  0  0  0  0  0  0  0  0
    0.2624   34.8705    0.9891 C   0  0  2  0  0  0  0  0  0  0  0  0
    2.2707   37.0188    0.1969 C   0  0  1  0  0  0  0  0  0  0  0  0
    1.0249   37.5379    0.6450 N   0  0  0  0  0  0  0  0  0  0  0  0
   -2.1029   36.4581   -2.0666 C   0  0  2  0  0  0  0  0  0  0  0  0
   -2.5750   37.2223   -0.8871 N   0  0  0  0  0  0  0  0  0  0  0  0
   -0.4215   34.5154    2.2369 C   0  0  1  0  0  0  0  0  0  0  0  0
    0.5391   33.8743    3.0786 O   0  0  0  0  0  0  0  0  0  0  0  0
    3.2181   37.1962    1.1954 C   0  0  2  0  0  0  0  0  0  0  0  0
    3.5412   38.5632    1.2376 O   0  0  0  0  0  0  0  0  0  0  0  0
   -0.9825   35.5234   -1.6391 C   0  0  1  0  0  0  0  0  0  0  0  0
   -1.4749   34.7080   -0.5872 O   0  0  0  0  0  0  0  0  0  0  0  0
   -1.4875   33.5530    1.9319 C   0  0  1  0  0  0  0  0  0  0  0  0
   -1.0387   32.9049    0.7480 O   0  0  0  0  0  0  0  0  0  0  0  0
    4.4571   36.3960    0.8905 C   0  0  1  0  0  0  0  0  0  0  0  0
    5.2878   36.3998    2.0141 O   0  0  0  0  0  0  0  0  0  0  0  0
   -0.5196   34.6542   -2.8428 C   0  0  2  0  0  0  0  0  0  0  0  0
    0.5234   33.7775   -2.4198 O   0  0  0  0  0  0  0  0  0  0  0  0
    4.0840   34.9845    0.5888 C   0  0  1  0  0  0  0  0  0  0  0  0
    3.2566   34.9922   -0.5385 O   0  0  0  0  0  0  0  0  0  0  0  0
    0.0094   35.5762   -3.9614 C   0  0  1  0  0  0  0  0  0  0  0  0
    0.4435   34.7908   -5.0837 O   0  0  0  0  0  0  0  0  0  0  0  0
    5.3261   34.1363    0.2512 C   0  0  0  0  0  0  0  0  0  0  0  0
    6.0795   33.9168    1.4383 O   0  0  0  0  0  0  0  0  0  0  0  0
   -0.0604   39.5335   -4.7488 N   0  0  0  0  0  0  0  0  0  0  0  0
   -4.5971   37.9384   -0.5815 N   0  0  0  0  0  0  0  0  0  0  0  0
  1  2  1  0  0  0  0
  1 39  1  0  0  0  0
  3  4  1  0  0  0  0
  5  6  1  0  0  0  0
  5 40  1  0  0  0  0
  9 10  1  6  0  0  0
  9 14  1  0  0  0  0
  9 35  1  0  0  0  0
 10  1  1  0  0  0  0
 11 16  1  0  0  0  0
 11 28  1  0  0  0  0
 11 26  1  1  0  0  0
 12 17  1  0  0  0  0
 12 34  1  0  0  0  0
 12 13  1  1  0  0  0
 14 15  1  6  0  0  0
 14 19  1  0  0  0  0
 16 13  1  1  0  0  0
 16 21  1  0  0  0  0
 17 18  1  1  0  0  0
 17 23  1  0  0  0  0
 18  8  1  0  0  0  0
 19 20  1  1  0  0  0
 19 25  1  0  0  0  0
 20  5  1  0  0  0  0
 21  3  1  1  0  0  0
 21 22  1  0  0  0  0
 21 27  1  0  0  0  0
 23 24  1  6  0  0  0
 23 29  1  0  0  0  0
 25 26  1  1  0  0  0
 25 31  1  0  0  0  0
 27  7  1  1  0  0  0
 27 28  1  0  0  0  0
 29 30  1  1  0  0  0
 29 33  1  0  0  0  0
 31 32  1  1  0  0  0
 31 35  1  0  0  0  0
 33 34  1  0  0  0  0
 33 37  1  6  0  0  0
 35 36  1  6  0  0  0
 37 38  1  0  0  0  0
M  END
>  <CHROM.1>
49.28876047,82.16244929,82.06799002,80.58574055,83.50613981,-108.01652668
123.37200969,56.04611439,67.64949437,-171.70021668,71.79095569,0.33521583
35.89547411,-0.63726145,-2.32211087,0.04404962,2.00736577

>  <Name>
1nta_lig

>  <RI>
0

>  <Rbt.Current_Directory>
/home/itssahil/PROJECTS/Mol_Feturizer/New_Systems/rnas/1nta

>  <Rbt.Executable>
rbdock ($Id: //depot/dev/client3/rdock/2013.1/src/exe/rbdock.cxx#4 $)

>  <Rbt.Library>
libRbt.so (2013.1, Build901 2013/11/27)

>  <Rbt.Parameter_File>
/export/apps/rDock/src/rDock_2013.1_src/data/scripts/dock_solv.prm

>  <Rbt.Receptor>
prm/pocket_docking_4.prm

>  <SCORE>
-14.1559

>  <SCORE.INTER>
5.75342

>  <SCORE.INTER.CONST>
1

>  <SCORE.INTER.POLAR>
0

>  <SCORE.INTER.ROT>
11

>  <SCORE.INTER.SOLV>
10.6167

>  <SCORE.INTER.VDW>
-10.6366

>  <SCORE.INTER.norm>
0.143835

>  <SCORE.INTRA>
-19.9233

>  <SCORE.INTRA.DIHEDRAL>
-7.62983

>  <SCORE.INTRA.DIHEDRAL.0>
19.0336

>  <SCORE.INTRA.POLAR>
0

>  <SCORE.INTRA.POLAR.0>
0

>  <SCORE.INTRA.REPUL>
0

>  <SCORE.INTRA.REPUL.0>
0

>  <SCORE.INTRA.SOLV>
0.469682

>  <SCORE.INTRA.SOLV.lig_0>
-97.5861

>  <SCORE.INTRA.VDW>
-16.3432

>  <SCORE.INTRA.VDW.0>
11.7669

>  <SCORE.INTRA.norm>
-0.498082

>  <SCORE.RESTR>
0.013954

>  <SCORE.RESTR.CAVITY>
0.013954

>  <SCORE.RESTR.norm>
0.000348851

>  <SCORE.SYSTEM>
0

>  <SCORE.SYSTEM.CONST>
0

>  <SCORE.SYSTEM.DIHEDRAL>
0

>  <SCORE.SYSTEM.SOLV>
0

>  <SCORE.SYSTEM.norm>
0

>  <SCORE.heavy>
40

>  <SCORE.norm>
-0.353897

>  <RMSD>
6.946

$$$$
1nta_lig
 OpenBabel11021811403D
libRbt.so/2013.1/901 2013/11/27
 40 42  0  0  0  0  0  0  0  0999 V2000
   -0.3311   37.6456   -7.5934 C   0  0  0  0  0  0  0  0  0  0  0  0
    0.3928   38.5808   -8.0848 N   0  0  0  0  0  0  0  0  0  0  0  0
    4.2784   35.3281    0.9753 C   0  0  0  0  0  0  0  0  0  0  0  0
    5.4638   35.3830    1.2187 O   0  0  0  0  0  0  0  0  0  0  0  0
    1.0213   33.4154   -3.4635 C   0  0  0  0  0  0  0  0  0  0  0  0
    0.4338   32.6841   -4.3745 N   0  0  0  0  0  0  0  0  0  0  0  0
    4.6116   38.6275    0.7219 C   0  0  0  0  0  0  0  0  0  0  0  0
    1.0233   32.5515    0.0067 C   0  0  0  0  0  0  0  0  0  0  0  0
    0.2644   37.4594   -5.3106 C   0  0  2  0  0  0  0  0  0  0  0  0
   -0.7620   37.8472   -6.3571 N   0  0  0  0  0  0  0  0  0  0  0  0
    1.5456   37.0314   -0.2489 C   0  0  2  0  0  0  0  0  0  0  0  0
   -0.0293   35.1112    1.3566 C   0  0  1  0  0  0  0  0  0  0  0  0
    1.0381   35.9048    1.7417 O   0  0  0  0  0  0  0  0  0  0  0  0
   -0.1414   36.1347   -4.6371 C   0  0  1  0  0  0  0  0  0  0  0  0
   -0.1275   35.1496   -5.6257 O   0  0  0  0  0  0  0  0  0  0  0  0
    1.9624   36.0074    0.8013 C   0  0  2  0  0  0  0  0  0  0  0  0
    0.0514   33.6633    1.7876 C   0  0  1  0  0  0  0  0  0  0  0  0
    1.2786   33.1172    1.3208 N   0  0  0  0  0  0  0  0  0  0  0  0
    0.8519   35.7044   -3.5495 C   0  0  2  0  0  0  0  0  0  0  0  0
    0.4897   34.4342   -2.8760 N   0  0  0  0  0  0  0  0  0  0  0  0
    3.3140   36.4736    1.1281 C   0  0  1  0  0  0  0  0  0  0  0  0
    3.2779   36.9717    2.4671 O   0  0  0  0  0  0  0  0  0  0  0  0
    0.0047   33.5499    3.1700 C   0  0  2  0  0  0  0  0  0  0  0  0
   -0.2144   32.1966    3.4790 O   0  0  0  0  0  0  0  0  0  0  0  0
    0.9262   36.8145   -2.5131 C   0  0  1  0  0  0  0  0  0  0  0  0
    1.8483   36.4130   -1.5121 O   0  0  0  0  0  0  0  0  0  0  0  0
    3.6596   37.5820    0.2294 C   0  0  1  0  0  0  0  0  0  0  0  0
    2.4019   38.1435   -0.1252 O   0  0  0  0  0  0  0  0  0  0  0  0
   -1.1213   34.3812    3.7265 C   0  0  1  0  0  0  0  0  0  0  0  0
   -0.9969   34.4413    5.1169 O   0  0  0  0  0  0  0  0  0  0  0  0
    1.3788   38.1438   -3.1816 C   0  0  2  0  0  0  0  0  0  0  0  0
    1.4524   39.1694   -2.1926 O   0  0  0  0  0  0  0  0  0  0  0  0
   -1.0368   35.7690    3.1884 C   0  0  1  0  0  0  0  0  0  0  0  0
   -1.1661   35.6974    1.7979 O   0  0  0  0  0  0  0  0  0  0  0  0
    0.3508   38.5459   -4.2598 C   0  0  1  0  0  0  0  0  0  0  0  0
    0.7513   39.7740   -4.8893 O   0  0  0  0  0  0  0  0  0  0  0  0
   -2.1866   36.6473    3.7202 C   0  0  0  0  0  0  0  0  0  0  0  0
   -2.0350   37.9705    3.2190 O   0  0  0  0  0  0  0  0  0  0  0  0
   -0.6197   36.5756   -8.2521 N   0  0  0  0  0  0  0  0  0  0  0  0
    2.2014   33.1213   -3.0798 N   0  0  0  0  0  0  0  0  0  0  0  0
  1  2  1  0  0  0  0
  1 39  1  0  0  0  0
  3  4  1  0  0  0  0
  5  6  1  0  0  0  0
  5 40  1  0  0  0  0
  9 10  1  6  0  0  0
  9 14  1  0  0  0  0
  9 35  1  0  0  0  0
 10  1  1  0  0  0  0
 11 16  1  0  0  0  0
 11 28  1  0  0  0  0
 11 26  1  6  0  0  0
 12 17  1  0  0  0  0
 12 34  1  0  0  0  0
 12 13  1  1  0  0  0
 14 15  1  6  0  0  0
 14 19  1  0  0  0  0
 16 13  1  1  0  0  0
 16 21  1  0  0  0  0
 17 18  1  1  0  0  0
 17 23  1  0  0  0  0
 18  8  1  0  0  0  0
 19 20  1  1  0  0  0
 19 25  1  0  0  0  0
 20  5  1  0  0  0  0
 21  3  1  6  0  0  0
 21 22  1  0  0  0  0
 21 27  1  0  0  0  0
 23 24  1  6  0  0  0
 23 29  1  0  0  0  0
 25 26  1  1  0  0  0
 25 31  1  0  0  0  0
 27  7  1  1  0  0  0
 27 28  1  0  0  0  0
 29 30  1  1  0  0  0
 29 33  1  0  0  0  0
 31 32  1  1  0  0  0
 31 35  1  0  0  0  0
 33 34  1  0  0  0  0
 33 37  1  1  0  0  0
 35 36  1  6  0  0  0
 37 38  1  0  0  0  0
M  END
>  <CHROM.1>
-105.43243770,-83.31581702,147.54490274,95.12322879,79.82630775,-90.71352455
91.09685237,-94.58220343,-177.28642937,-153.06766336,177.89080977,0.89820242
36.01746697,-0.95944969,1.59724765,-0.93288030,-1.30959822

>  <Name>
1nta_lig

>  <RI>
0

>  <Rbt.Current_Directory>
/home/itssahil/PROJECTS/Mol_Feturizer/New_Systems/rnas/1nta

>  <Rbt.Executable>
rbdock ($Id: //depot/dev/client3/rdock/2013.1/src/exe/rbdock.cxx#4 $)

>  <Rbt.Library>
libRbt.so (2013.1, Build901 2013/11/27)

>  <Rbt.Parameter_File>
/export/apps/rDock/src/rDock_2013.1_src/data/scripts/dock_solv.prm

>  <Rbt.Receptor>
prm/pocket_docking_7.prm

>  <SCORE>
-22.228

>  <SCORE.INTER>
-2.25171

>  <SCORE.INTER.CONST>
1

>  <SCORE.INTER.POLAR>
0

>  <SCORE.INTER.ROT>
11

>  <SCORE.INTER.SOLV>
15.3088

>  <SCORE.INTER.VDW>
-17.5374

>  <SCORE.INTER.norm>
-0.0562928

>  <SCORE.INTRA>
-19.9763

>  <SCORE.INTRA.DIHEDRAL>
-2.09442

>  <SCORE.INTRA.DIHEDRAL.0>
19.0336

>  <SCORE.INTRA.POLAR>
0

>  <SCORE.INTRA.POLAR.0>
0

>  <SCORE.INTRA.REPUL>
0

>  <SCORE.INTRA.REPUL.0>
0

>  <SCORE.INTRA.SOLV>
-3.35205

>  <SCORE.INTRA.SOLV.lig_0>
-97.5861

>  <SCORE.INTRA.VDW>
-17.2531

>  <SCORE.INTRA.VDW.0>
11.7669

>  <SCORE.INTRA.norm>
-0.499408

>  <SCORE.RESTR>
0

>  <SCORE.RESTR.CAVITY>
0

>  <SCORE.RESTR.norm>
0

>  <SCORE.SYSTEM>
0

>  <SCORE.SYSTEM.CONST>
0

>  <SCORE.SYSTEM.DIHEDRAL>
0

>  <SCORE.SYSTEM.SOLV>
0

>  <SCORE.SYSTEM.norm>
0

>  <SCORE.heavy>
40

>  <SCORE.norm>
-0.555701

>  <RMSD>
6.952

$$$$
1nta_lig
 OpenBabel11021811403D
libRbt.so/2013.1/901 2013/11/27
 40 42  0  0  0  0  0  0  0  0999 V2000
    4.2280   41.0577   -2.5596 C   0  0  0  0  0  0  0  0  0  0  0  0
    5.0718   41.8867   -2.0689 N   0  0  0  0  0  0  0  0  0  0  0  0
   -1.0728   37.0013    4.0555 C   0  0  0  0  0  0  0  0  0  0  0  0
   -1.6201   37.1118    5.1304 O   0  0  0  0  0  0  0  0  0  0  0  0
    0.5613   40.7995    2.7655 C   0  0  0  0  0  0  0  0  0  0  0  0
   -0.7024   40.9787    3.0496 N   0  0  0  0  0  0  0  0  0  0  0  0
   -4.1835   37.1059    2.8834 C   0  0  0  0  0  0  0  0  0  0  0  0
   -0.9342   32.0559    3.3575 C   0  0  0  0  0  0  0  0  0  0  0  0
    2.5598   39.9245   -1.3212 C   0  0  2  0  0  0  0  0  0  0  0  0
    3.9894   39.9829   -1.8230 N   0  0  0  0  0  0  0  0  0  0  0  0
   -1.3904   37.1354    0.6277 C   0  0  2  0  0  0  0  0  0  0  0  0
    0.5177   34.5299    2.2238 C   0  0  1  0  0  0  0  0  0  0  0  0
   -0.3044   35.1771    1.3167 O   0  0  0  0  0  0  0  0  0  0  0  0
    2.5413   39.8671    0.2180 C   0  0  1  0  0  0  0  0  0  0  0  0
    3.1016   41.0587    0.6807 O   0  0  0  0  0  0  0  0  0  0  0  0
   -0.7127   36.3577    1.7507 C   0  0  2  0  0  0  0  0  0  0  0  0
    0.6699   33.0397    2.0116 C   0  0  1  0  0  0  0  0  0  0  0  0
   -0.6232   32.4482    1.9932 N   0  0  0  0  0  0  0  0  0  0  0  0
    1.1168   39.7829    0.7823 C   0  0  2  0  0  0  0  0  0  0  0  0
    1.0614   39.7212    2.2625 N   0  0  0  0  0  0  0  0  0  0  0  0
   -1.7213   36.4575    2.8108 C   0  0  1  0  0  0  0  0  0  0  0  0
   -2.2561   35.1476    3.0110 O   0  0  0  0  0  0  0  0  0  0  0  0
    1.3065   32.7687    0.8085 C   0  0  2  0  0  0  0  0  0  0  0  0
    1.6747   31.4124    0.8179 O   0  0  0  0  0  0  0  0  0  0  0  0
    0.4546   38.5411    0.2065 C   0  0  1  0  0  0  0  0  0  0  0  0
   -0.8630   38.4701    0.7285 O   0  0  0  0  0  0  0  0  0  0  0  0
   -2.8037   37.3356    2.3492 C   0  0  1  0  0  0  0  0  0  0  0  0
   -2.7637   37.2170    0.9324 O   0  0  0  0  0  0  0  0  0  0  0  0
    2.5384   33.6230    0.6632 C   0  0  1  0  0  0  0  0  0  0  0  0
    3.0191   33.5077   -0.6438 O   0  0  0  0  0  0  0  0  0  0  0  0
    0.4313   38.6160   -1.3467 C   0  0  2  0  0  0  0  0  0  0  0  0
   -0.2023   37.4486   -1.8672 O   0  0  0  0  0  0  0  0  0  0  0  0
    2.1929   35.0519    0.9108 C   0  0  1  0  0  0  0  0  0  0  0  0
    1.7170   35.1562    2.2215 O   0  0  0  0  0  0  0  0  0  0  0  0
    1.8799   38.6897   -1.8734 C   0  0  1  0  0  0  0  0  0  0  0  0
    1.8797   38.7587   -3.3087 O   0  0  0  0  0  0  0  0  0  0  0  0
    3.4345   35.9577    0.7907 C   0  0  0  0  0  0  0  0  0  0  0  0
    3.8506   36.0033   -0.5694 O   0  0  0  0  0  0  0  0  0  0  0  0
    3.6507   41.2496   -3.6963 N   0  0  0  0  0  0  0  0  0  0  0  0
    1.3947   41.7444    2.9631 N   0  0  0  0  0  0  0  0  0  0  0  0
  1  2  1  0  0  0  0
  1 39  1  0  0  0  0
  3  4  1  0  0  0  0
  5  6  1  0  0  0  0
  5 40  1  0  0  0  0
  9 10  1  6  0  0  0
  9 14  1  0  0  0  0
  9 35  1  0  0  0  0
 10  1  1  0  0  0  0
 11 16  1  0  0  0  0
 11 28  1  0  0  0  0
 11 26  1  1  0  0  0
 12 17  1  0  0  0  0
 12 34  1  0  0  0  0
 12 13  1  6  0  0  0
 14 15  1  1  0  0  0
 14 19  1  0  0  0  0
 16 13  1  6  0  0  0
 16 21  1  0  0  0  0
 17 18  1  6  0  0  0
 17 23  1  0  0  0  0
 18  8  1  0  0  0  0
 19 20  1  1  0  0  0
 19 25  1  0  0  0  0
 20  5  1  0  0  0  0
 21  3  1  1  0  0  0
 21 22  1  0  0  0  0
 21 27  1  0  0  0  0
 23 24  1  1  0  0  0
 23 29  1  0  0  0  0
 25 26  1  1  0  0  0
 25 31  1  0  0  0  0
 27  7  1  1  0  0  0
 27 28  1  0  0  0  0
 29 30  1  6  0  0  0
 29 33  1  0  0  0  0
 31 32  1  6  0  0  0
 31 35  1  0  0  0  0
 33 34  1  0  0  0  0
 33 37  1  1  0  0  0
 35 36  1  6  0  0  0
 37 38  1  0  0  0  0
M  END
>  <CHROM.1>
-121.72555283,115.11180477,76.54499430,161.63240986,169.43216848,-91.16073116
111.24267491,92.69691211,-174.54811946,-159.83118028,68.99749025,0.79970655
37.20863202,0.83606053,-0.94061597,-0.71731937,3.06399925

>  <Name>
1nta_lig

>  <RI>
0

>  <Rbt.Current_Directory>
/home/itssahil/PROJECTS/Mol_Feturizer/New_Systems/rnas/1nta

>  <Rbt.Executable>
rbdock ($Id: //depot/dev/client3/rdock/2013.1/src/exe/rbdock.cxx#4 $)

>  <Rbt.Library>
libRbt.so (2013.1, Build901 2013/11/27)

>  <Rbt.Parameter_File>
/export/apps/rDock/src/rDock_2013.1_src/data/scripts/dock_solv.prm

>  <Rbt.Receptor>
prm/pocket_docking_7.prm

>  <SCORE>
-21.1435

>  <SCORE.INTER>
3.54278

>  <SCORE.INTER.CONST>
1

>  <SCORE.INTER.POLAR>
0

>  <SCORE.INTER.ROT>
11

>  <SCORE.INTER.SOLV>
16.6899

>  <SCORE.INTER.VDW>
-14.1348

>  <SCORE.INTER.norm>
0.0885695

>  <SCORE.INTRA>
-24.6863

>  <SCORE.INTRA.DIHEDRAL>
-9.3702

>  <SCORE.INTRA.DIHEDRAL.0>
19.0336

>  <SCORE.INTRA.POLAR>
0

>  <SCORE.INTRA.POLAR.0>
0

>  <SCORE.INTRA.REPUL>
0

>  <SCORE.INTRA.REPUL.0>
0

>  <SCORE.INTRA.SOLV>
-3.87389

>  <SCORE.INTRA.SOLV.lig_0>
-97.5861

>  <SCORE.INTRA.VDW>
-18.0643

>  <SCORE.INTRA.VDW.0>
11.7669

>  <SCORE.INTRA.norm>
-0.617158

>  <SCORE.RESTR>
0

>  <SCORE.RESTR.CAVITY>
0

>  <SCORE.RESTR.norm>
0

>  <SCORE.SYSTEM>
0

>  <SCORE.SYSTEM.CONST>
0

>  <SCORE.SYSTEM.DIHEDRAL>
0

>  <SCORE.SYSTEM.SOLV>
0

>  <SCORE.SYSTEM.norm>
0

>  <SCORE.heavy>
40

>  <SCORE.norm>
-0.528588

>  <RMSD>
6.960

$$$$
1nta_lig
 OpenBabel11021811403D
libRbt.so/2013.1/901 2013/11/27
 40 42  0  0  0  0  0  0  0  0999 V2000
    0.1577   41.0105    0.3188 C   0  0  0  0  0  0  0  0  0  0  0  0
    1.2021   41.6142   -0.1111 N   0  0  0  0  0  0  0  0  0  0  0  0
    0.6322   32.4880   -1.0530 C   0  0  0  0  0  0  0  0  0  0  0  0
    1.0298   32.2715    0.0705 O   0  0  0  0  0  0  0  0  0  0  0  0
   -2.5522   35.4128   -0.4158 C   0  0  0  0  0  0  0  0  0  0  0  0
   -2.7864   34.5553   -1.3747 N   0  0  0  0  0  0  0  0  0  0  0  0
    0.7576   32.0400   -4.3462 C   0  0  0  0  0  0  0  0  0  0  0  0
    5.9976   32.2638   -0.9906 C   0  0  0  0  0  0  0  0  0  0  0  0
   -0.9512   39.6921   -1.3038 C   0  0  2  0  0  0  0  0  0  0  0  0
   -0.8708   40.9849   -0.5156 N   0  0  0  0  0  0  0  0  0  0  0  0
    1.3163   35.2928   -2.9328 C   0  0  2  0  0  0  0  0  0  0  0  0
    3.5365   34.1597   -0.3226 C   0  0  1  0  0  0  0  0  0  0  0  0
    3.0714   34.7903   -1.4644 O   0  0  0  0  0  0  0  0  0  0  0  0
   -1.1588   38.5020   -0.3480 C   0  0  1  0  0  0  0  0  0  0  0  0
   -2.3908   38.6893    0.2804 O   0  0  0  0  0  0  0  0  0  0  0  0
    1.8143   34.4848   -1.7394 C   0  0  2  0  0  0  0  0  0  0  0  0
    5.0373   34.1863   -0.1337 C   0  0  1  0  0  0  0  0  0  0  0  0
    5.6519   33.6422   -1.2949 N   0  0  0  0  0  0  0  0  0  0  0  0
   -1.2242   37.1609   -1.0910 C   0  0  2  0  0  0  0  0  0  0  0  0
   -1.4189   35.9916   -0.2006 N   0  0  0  0  0  0  0  0  0  0  0  0
    1.4467   33.1248   -2.1470 C   0  0  1  0  0  0  0  0  0  0  0  0
    2.6614   32.4146   -2.3964 O   0  0  0  0  0  0  0  0  0  0  0  0
    5.4947   35.4833    0.0525 C   0  0  2  0  0  0  0  0  0  0  0  0
    6.8211   35.4053    0.5104 O   0  0  0  0  0  0  0  0  0  0  0  0
    0.0728   36.9874   -1.8653 C   0  0  1  0  0  0  0  0  0  0  0  0
    0.0055   35.7480   -2.5530 O   0  0  0  0  0  0  0  0  0  0  0  0
    0.6861   33.1988   -3.4006 C   0  0  1  0  0  0  0  0  0  0  0  0
    1.1407   34.4011   -4.0096 O   0  0  0  0  0  0  0  0  0  0  0  0
    4.6504   36.1950    1.0768 C   0  0  1  0  0  0  0  0  0  0  0  0
    4.9755   37.5539    1.0679 O   0  0  0  0  0  0  0  0  0  0  0  0
    0.2640   38.1646   -2.8635 C   0  0  2  0  0  0  0  0  0  0  0  0
    1.4795   37.9786   -3.5870 O   0  0  0  0  0  0  0  0  0  0  0  0
    3.2083   36.0562    0.7255 C   0  0  1  0  0  0  0  0  0  0  0  0
    2.8932   34.6939    0.7411 O   0  0  0  0  0  0  0  0  0  0  0  0
    0.3343   39.4906   -2.0776 C   0  0  1  0  0  0  0  0  0  0  0  0
    0.5120   40.5919   -2.9835 O   0  0  0  0  0  0  0  0  0  0  0  0
    2.3087   36.7559    1.7636 C   0  0  0  0  0  0  0  0  0  0  0  0
    2.5209   38.1614    1.6948 O   0  0  0  0  0  0  0  0  0  0  0  0
    0.1043   40.4670    1.4867 N   0  0  0  0  0  0  0  0  0  0  0  0
   -3.4933   35.7491    0.3765 N   0  0  0  0  0  0  0  0  0  0  0  0
  1  2  1  0  0  0  0
  1 39  1  0  0  0  0
  3  4  1  0  0  0  0
  5  6  1  0  0  0  0
  5 40  1  0  0  0  0
  9 10  1  1  0  0  0
  9 14  1  0  0  0  0
  9 35  1  0  0  0  0
 10  1  1  0  0  0  0
 11 16  1  0  0  0  0
 11 28  1  0  0  0  0
 11 26  1  1  0  0  0
 12 17  1  0  0  0  0
 12 34  1  0  0  0  0
 12 13  1  6  0  0  0
 14 15  1  6  0  0  0
 14 19  1  0  0  0  0
 16 13  1  6  0  0  0
 16 21  1  0  0  0  0
 17 18  1  6  0  0  0
 17 23  1  0  0  0  0
 18  8  1  0  0  0  0
 19 20  1  1  0  0  0
 19 25  1  0  0  0  0
 20  5  1  0  0  0  0
 21  3  1  1  0  0  0
 21 22  1  0  0  0  0
 21 27  1  0  0  0  0
 23 24  1  1  0  0  0
 23 29  1  0  0  0  0
 25 26  1  6  0  0  0
 25 31  1  0  0  0  0
 27  7  1  6  0  0  0
 27 28  1  0  0  0  0
 29 30  1  6  0  0  0
 29 33  1  0  0  0  0
 31 32  1  1  0  0  0
 31 35  1  0  0  0  0
 33 34  1  0  0  0  0
 33 37  1  1  0  0  0
 35 36  1  6  0  0  0
 37 38  1  0  0  0  0
M  END
>  <CHROM.1>
62.25419380,97.22568343,88.38856373,165.65486317,175.22542728,-99.60947909
115.12377004,81.59731274,-62.26873404,-160.58280333,66.95657223,1.41157173
36.17559687,-0.93841922,-2.28345838,0.31609481,-2.80289732

>  <Name>
1nta_lig

>  <RI>
0

>  <Rbt.Current_Directory>
/home/itssahil/PROJECTS/Mol_Feturizer/New_Systems/rnas/1nta

>  <Rbt.Executable>
rbdock ($Id: //depot/dev/client3/rdock/2013.1/src/exe/rbdock.cxx#4 $)

>  <Rbt.Library>
libRbt.so (2013.1, Build901 2013/11/27)

>  <Rbt.Parameter_File>
/export/apps/rDock/src/rDock_2013.1_src/data/scripts/dock_solv.prm

>  <Rbt.Receptor>
prm/pocket_docking_3.prm

>  <SCORE>
-22.0117

>  <SCORE.INTER>
-0.489704

>  <SCORE.INTER.CONST>
1

>  <SCORE.INTER.POLAR>
0

>  <SCORE.INTER.ROT>
11

>  <SCORE.INTER.SOLV>
9.08929

>  <SCORE.INTER.VDW>
-14.2896

>  <SCORE.INTER.norm>
-0.0122426

>  <SCORE.INTRA>
-21.522

>  <SCORE.INTRA.DIHEDRAL>
-9.34988

>  <SCORE.INTRA.DIHEDRAL.0>
19.0336

>  <SCORE.INTRA.POLAR>
0

>  <SCORE.INTRA.POLAR.0>
0

>  <SCORE.INTRA.REPUL>
0

>  <SCORE.INTRA.REPUL.0>
0

>  <SCORE.INTRA.SOLV>
-0.609333

>  <SCORE.INTRA.SOLV.lig_0>
-97.5861

>  <SCORE.INTRA.VDW>
-16.5424

>  <SCORE.INTRA.VDW.0>
11.7669

>  <SCORE.INTRA.norm>
-0.53805

>  <SCORE.RESTR>
0

>  <SCORE.RESTR.CAVITY>
0

>  <SCORE.RESTR.norm>
0

>  <SCORE.SYSTEM>
0

>  <SCORE.SYSTEM.CONST>
0

>  <SCORE.SYSTEM.DIHEDRAL>
0

>  <SCORE.SYSTEM.SOLV>
0

>  <SCORE.SYSTEM.norm>
0

>  <SCORE.heavy>
40

>  <SCORE.norm>
-0.550293

>  <RMSD>
6.978

$$$$
1nta_lig
 OpenBabel11021811403D
libRbt.so/2013.1/901 2013/11/27
 40 42  0  0  0  0  0  0  0  0999 V2000
    2.5447   42.0593    0.4933 C   0  0  0  0  0  0  0  0  0  0  0  0
    2.4809   42.8980   -0.4724 N   0  0  0  0  0  0  0  0  0  0  0  0
    0.4944   32.8224    1.0948 C   0  0  0  0  0  0  0  0  0  0  0  0
   -0.1632   31.9808    1.6663 O   0  0  0  0  0  0  0  0  0  0  0  0
   -0.5388   37.0298    2.5913 C   0  0  0  0  0  0  0  0  0  0  0  0
   -0.9771   38.1665    3.0662 N   0  0  0  0  0  0  0  0  0  0  0  0
   -1.7822   32.3877   -1.2904 C   0  0  0  0  0  0  0  0  0  0  0  0
    3.7032   36.1494    1.8991 C   0  0  0  0  0  0  0  0  0  0  0  0
    1.9668   39.8417   -0.0973 C   0  0  2  0  0  0  0  0  0  0  0  0
    3.0433   40.8713    0.1855 N   0  0  0  0  0  0  0  0  0  0  0  0
    0.6255   35.0395   -1.5387 C   0  0  2  0  0  0  0  0  0  0  0  0
    3.5478   34.8051   -1.2691 C   0  0  1  0  0  0  0  0  0  0  0  0
    2.6034   33.7964   -1.3594 O   0  0  0  0  0  0  0  0  0  0  0  0
    1.8206   38.8861    1.1020 C   0  0  1  0  0  0  0  0  0  0  0  0
    1.3956   39.6520    2.1886 O   0  0  0  0  0  0  0  0  0  0  0  0
    1.4850   34.0860   -0.7156 C   0  0  2  0  0  0  0  0  0  0  0  0
    4.2845   34.8866    0.0498 C   0  0  1  0  0  0  0  0  0  0  0  0
    3.3300   34.9955    1.0982 N   0  0  0  0  0  0  0  0  0  0  0  0
    0.7580   37.8054    0.8615 C   0  0  2  0  0  0  0  0  0  0  0  0
    0.5938   36.8640    1.9950 N   0  0  0  0  0  0  0  0  0  0  0  0
    0.5126   33.0360   -0.3951 C   0  0  1  0  0  0  0  0  0  0  0  0
    0.9108   31.8599   -1.1025 O   0  0  0  0  0  0  0  0  0  0  0  0
    5.0583   33.7540    0.2608 C   0  0  2  0  0  0  0  0  0  0  0  0
    5.9256   34.0247    1.3330 O   0  0  0  0  0  0  0  0  0  0  0  0
    1.1532   37.0245   -0.3818 C   0  0  1  0  0  0  0  0  0  0  0  0
    0.1658   36.0293   -0.6015 O   0  0  0  0  0  0  0  0  0  0  0  0
   -0.8069   33.4502   -0.8880 C   0  0  1  0  0  0  0  0  0  0  0  0
   -0.5119   34.3271   -1.9682 O   0  0  0  0  0  0  0  0  0  0  0  0
    5.8653   33.4337   -0.9699 C   0  0  1  0  0  0  0  0  0  0  0  0
    6.4424   32.1702   -0.8182 O   0  0  0  0  0  0  0  0  0  0  0  0
    1.2583   37.9793   -1.6049 C   0  0  2  0  0  0  0  0  0  0  0  0
    1.6194   37.2274   -2.7623 O   0  0  0  0  0  0  0  0  0  0  0  0
    4.9727   33.4006   -2.1635 C   0  0  1  0  0  0  0  0  0  0  0  0
    4.4040   34.6699   -2.3079 O   0  0  0  0  0  0  0  0  0  0  0  0
    2.3416   39.0427   -1.3274 C   0  0  1  0  0  0  0  0  0  0  0  0
    2.4547   39.9352   -2.4479 O   0  0  0  0  0  0  0  0  0  0  0  0
    5.7667   33.0950   -3.4489 C   0  0  0  0  0  0  0  0  0  0  0  0
    5.6812   31.7030   -3.7319 O   0  0  0  0  0  0  0  0  0  0  0  0
    2.1469   42.3457    1.6858 N   0  0  0  0  0  0  0  0  0  0  0  0
   -1.2418   35.9743    2.7260 N   0  0  0  0  0  0  0  0  0  0  0  0
  1  2  1  0  0  0  0
  1 39  1  0  0  0  0
  3  4  1  0  0  0  0
  5  6  1  0  0  0  0
  5 40  1  0  0  0  0
  9 10  1  1  0  0  0
  9 14  1  0  0  0  0
  9 35  1  0  0  0  0
 10  1  1  0  0  0  0
 11 16  1  0  0  0  0
 11 28  1  0  0  0  0
 11 26  1  1  0  0  0
 12 17  1  0  0  0  0
 12 34  1  0  0  0  0
 12 13  1  1  0  0  0
 14 15  1  1  0  0  0
 14 19  1  0  0  0  0
 16 13  1  6  0  0  0
 16 21  1  0  0  0  0
 17 18  1  1  0  0  0
 17 23  1  0  0  0  0
 18  8  1  0  0  0  0
 19 20  1  1  0  0  0
 19 25  1  0  0  0  0
 20  5  1  0  0  0  0
 21  3  1  1  0  0  0
 21 22  1  0  0  0  0
 21 27  1  0  0  0  0
 23 24  1  1  0  0  0
 23 29  1  0  0  0  0
 25 26  1  6  0  0  0
 25 31  1  0  0  0  0
 27  7  1  6  0  0  0
 27 28  1  0  0  0  0
 29 30  1  1  0  0  0
 29 33  1  0  0  0  0
 31 32  1  6  0  0  0
 31 35  1  0  0  0  0
 33 34  1  0  0  0  0
 33 37  1  6  0  0  0
 35 36  1  6  0  0  0
 37 38  1  0  0  0  0
M  END
>  <CHROM.1>
-103.84541833,-97.09194100,81.66178725,76.87077734,78.58205167,-127.71885187
110.35325506,-53.88505605,-176.61239279,-165.29033604,96.35283201,2.14973458
35.92917014,-0.26038925,-1.83262465,-0.40066727,-2.98543293

>  <Name>
1nta_lig

>  <RI>
0

>  <Rbt.Current_Directory>
/home/itssahil/PROJECTS/Mol_Feturizer/New_Systems/rnas/1nta

>  <Rbt.Executable>
rbdock ($Id: //depot/dev/client3/rdock/2013.1/src/exe/rbdock.cxx#4 $)

>  <Rbt.Library>
libRbt.so (2013.1, Build901 2013/11/27)

>  <Rbt.Parameter_File>
/export/apps/rDock/src/rDock_2013.1_src/data/scripts/dock_solv.prm

>  <Rbt.Receptor>
prm/pocket_docking_5.prm

>  <SCORE>
-27.489

>  <SCORE.INTER>
-6.08898

>  <SCORE.INTER.CONST>
1

>  <SCORE.INTER.POLAR>
-1.04112

>  <SCORE.INTER.ROT>
11

>  <SCORE.INTER.SOLV>
14.5116

>  <SCORE.INTER.VDW>
-16.3595

>  <SCORE.INTER.norm>
-0.152225

>  <SCORE.INTRA>
-21.4141

>  <SCORE.INTRA.DIHEDRAL>
-4.79445

>  <SCORE.INTRA.DIHEDRAL.0>
19.0336

>  <SCORE.INTRA.POLAR>
0

>  <SCORE.INTRA.POLAR.0>
0

>  <SCORE.INTRA.REPUL>
0

>  <SCORE.INTRA.REPUL.0>
0

>  <SCORE.INTRA.SOLV>
-2.40771

>  <SCORE.INTRA.SOLV.lig_0>
-97.5861

>  <SCORE.INTRA.VDW>
-17.813

>  <SCORE.INTRA.VDW.0>
11.7669

>  <SCORE.INTRA.norm>
-0.535352

>  <SCORE.RESTR>
0.0140768

>  <SCORE.RESTR.CAVITY>
0.0140768

>  <SCORE.RESTR.norm>
0.00035192

>  <SCORE.SYSTEM>
0

>  <SCORE.SYSTEM.CONST>
0

>  <SCORE.SYSTEM.DIHEDRAL>
0

>  <SCORE.SYSTEM.SOLV>
0

>  <SCORE.SYSTEM.norm>
0

>  <SCORE.heavy>
40

>  <SCORE.norm>
-0.687224

>  <RMSD>
6.981

$$$$
1nta_lig
 OpenBabel11021811403D
libRbt.so/2013.1/901 2013/11/27
 40 42  0  0  0  0  0  0  0  0999 V2000
   -0.8672   31.2565   -5.9608 C   0  0  0  0  0  0  0  0  0  0  0  0
   -1.8477   30.4908   -5.6571 N   0  0  0  0  0  0  0  0  0  0  0  0
    0.4766   38.5818    0.7167 C   0  0  0  0  0  0  0  0  0  0  0  0
   -0.3768   39.2215    1.2910 O   0  0  0  0  0  0  0  0  0  0  0  0
    0.7847   37.1876   -4.0028 C   0  0  0  0  0  0  0  0  0  0  0  0
   -0.3325   37.3983   -4.6487 N   0  0  0  0  0  0  0  0  0  0  0  0
   -0.8771   36.0622    2.4139 C   0  0  0  0  0  0  0  0  0  0  0  0
    5.1951   39.6024   -0.4809 C   0  0  0  0  0  0  0  0  0  0  0  0
   -0.1140   32.5281   -4.1125 C   0  0  2  0  0  0  0  0  0  0  0  0
    0.0872   31.3513   -5.0471 N   0  0  0  0  0  0  0  0  0  0  0  0
    1.5710   35.4281   -0.1347 C   0  0  2  0  0  0  0  0  0  0  0  0
    4.2252   36.8324   -0.3899 C   0  0  1  0  0  0  0  0  0  0  0  0
    3.3245   36.7635    0.6596 O   0  0  0  0  0  0  0  0  0  0  0  0
    0.7653   33.7125   -4.5563 C   0  0  1  0  0  0  0  0  0  0  0  0
    0.3242   34.1002   -5.8225 O   0  0  0  0  0  0  0  0  0  0  0  0
    2.0662   36.8164    0.2558 C   0  0  2  0  0  0  0  0  0  0  0  0
    5.5947   37.3678   -0.0340 C   0  0  1  0  0  0  0  0  0  0  0  0
    5.4401   38.6407    0.5808 N   0  0  0  0  0  0  0  0  0  0  0  0
    0.6196   34.9273   -3.6301 C   0  0  2  0  0  0  0  0  0  0  0  0
    1.4563   36.0857   -4.0252 N   0  0  0  0  0  0  0  0  0  0  0  0
    1.0041   37.2471    1.1708 C   0  0  1  0  0  0  0  0  0  0  0  0
    1.5731   37.3106    2.4801 O   0  0  0  0  0  0  0  0  0  0  0  0
    6.2500   36.5187    0.8467 C   0  0  2  0  0  0  0  0  0  0  0  0
    7.5976   36.9144    0.8964 O   0  0  0  0  0  0  0  0  0  0  0  0
    0.9995   34.4950   -2.2227 C   0  0  1  0  0  0  0  0  0  0  0  0
    0.8596   35.6207   -1.3701 O   0  0  0  0  0  0  0  0  0  0  0  0
   -0.0554   36.2307    1.1736 C   0  0  1  0  0  0  0  0  0  0  0  0
    0.6191   35.0283    0.8244 O   0  0  0  0  0  0  0  0  0  0  0  0
    6.1619   35.0943    0.3651 C   0  0  1  0  0  0  0  0  0  0  0  0
    6.6125   34.2440    1.3781 O   0  0  0  0  0  0  0  0  0  0  0  0
    0.0842   33.3283   -1.7538 C   0  0  2  0  0  0  0  0  0  0  0  0
    0.4487   32.9442   -0.4290 O   0  0  0  0  0  0  0  0  0  0  0  0
    4.7429   34.7515    0.0625 C   0  0  1  0  0  0  0  0  0  0  0  0
    4.3038   35.6052   -0.9541 O   0  0  0  0  0  0  0  0  0  0  0  0
    0.2671   32.1260   -2.7035 C   0  0  1  0  0  0  0  0  0  0  0  0
   -0.5708   31.0358   -2.2859 O   0  0  0  0  0  0  0  0  0  0  0  0
    4.6137   33.3047   -0.4536 C   0  0  0  0  0  0  0  0  0  0  0  0
    4.8961   32.4017    0.6094 O   0  0  0  0  0  0  0  0  0  0  0  0
   -0.8107   31.8981   -7.0776 N   0  0  0  0  0  0  0  0  0  0  0  0
    1.2977   38.1226   -3.3035 N   0  0  0  0  0  0  0  0  0  0  0  0
  1  2  1  0  0  0  0
  1 39  1  0  0  0  0
  3  4  1  0  0  0  0
  5  6  1  0  0  0  0
  5 40  1  0  0  0  0
  9 10  1  6  0  0  0
  9 14  1  0  0  0  0
  9 35  1  0  0  0  0
 10  1  1  0  0  0  0
 11 16  1  0  0  0  0
 11 28  1  0  0  0  0
 11 26  1  6  0  0  0
 12 17  1  0  0  0  0
 12 34  1  0  0  0  0
 12 13  1  1  0  0  0
 14 15  1  6  0  0  0
 14 19  1  0  0  0  0
 16 13  1  1  0  0  0
 16 21  1  0  0  0  0
 17 18  1  1  0  0  0
 17 23  1  0  0  0  0
 18  8  1  0  0  0  0
 19 20  1  6  0  0  0
 19 25  1  0  0  0  0
 20  5  1  0  0  0  0
 21  3  1  6  0  0  0
 21 22  1  0  0  0  0
 21 27  1  0  0  0  0
 23 24  1  6  0  0  0
 23 29  1  0  0  0  0
 25 26  1  1  0  0  0
 25 31  1  0  0  0  0
 27  7  1  1  0  0  0
 27 28  1  0  0  0  0
 29 30  1  1  0  0  0
 29 33  1  0  0  0  0
 31 32  1  1  0  0  0
 31 35  1  0  0  0  0
 33 34  1  0  0  0  0
 33 37  1  6  0  0  0
 35 36  1  1  0  0  0
 37 38  1  0  0  0  0
M  END
>  <CHROM.1>
-98.97823020,-93.46594027,146.44740015,154.69642636,85.17094317,-78.23209108
133.63408880,-55.04540097,-177.46316893,-162.35539613,69.07998393,1.98270213
35.22036157,-1.32688878,-2.22346943,-0.37392405,0.62656373

>  <Name>
1nta_lig

>  <RI>
0

>  <Rbt.Current_Directory>
/home/itssahil/PROJECTS/Mol_Feturizer/New_Systems/rnas/1nta

>  <Rbt.Executable>
rbdock ($Id: //depot/dev/client3/rdock/2013.1/src/exe/rbdock.cxx#4 $)

>  <Rbt.Library>
libRbt.so (2013.1, Build901 2013/11/27)

>  <Rbt.Parameter_File>
/export/apps/rDock/src/rDock_2013.1_src/data/scripts/dock_solv.prm

>  <Rbt.Receptor>
prm/pocket_docking_4.prm

>  <SCORE>
-26.8022

>  <SCORE.INTER>
-7.32939

>  <SCORE.INTER.CONST>
1

>  <SCORE.INTER.POLAR>
-1.10592

>  <SCORE.INTER.ROT>
11

>  <SCORE.INTER.SOLV>
19.5428

>  <SCORE.INTER.VDW>
-18.6475

>  <SCORE.INTER.norm>
-0.183235

>  <SCORE.INTRA>
-19.495

>  <SCORE.INTRA.DIHEDRAL>
-4.0452

>  <SCORE.INTRA.DIHEDRAL.0>
19.0336

>  <SCORE.INTRA.POLAR>
0

>  <SCORE.INTRA.POLAR.0>
0

>  <SCORE.INTRA.REPUL>
0

>  <SCORE.INTRA.REPUL.0>
0

>  <SCORE.INTRA.SOLV>
-4.09401

>  <SCORE.INTRA.SOLV.lig_0>
-97.5861

>  <SCORE.INTRA.VDW>
-15.4254

>  <SCORE.INTRA.VDW.0>
11.7669

>  <SCORE.INTRA.norm>
-0.487374

>  <SCORE.RESTR>
0.0221133

>  <SCORE.RESTR.CAVITY>
0.0221133

>  <SCORE.RESTR.norm>
0.000552832

>  <SCORE.SYSTEM>
0

>  <SCORE.SYSTEM.CONST>
0

>  <SCORE.SYSTEM.DIHEDRAL>
0

>  <SCORE.SYSTEM.SOLV>
0

>  <SCORE.SYSTEM.norm>
0

>  <SCORE.heavy>
40

>  <SCORE.norm>
-0.670056

>  <RMSD>
6.982

$$$$
1nta_lig
 OpenBabel11021811403D
libRbt.so/2013.1/901 2013/11/27
 40 42  0  0  0  0  0  0  0  0999 V2000
   -1.4715   29.9160   -6.6297 C   0  0  0  0  0  0  0  0  0  0  0  0
   -0.5215   30.2450   -7.4230 N   0  0  0  0  0  0  0  0  0  0  0  0
   -1.0509   34.8691    2.0811 C   0  0  0  0  0  0  0  0  0  0  0  0
   -1.9707   35.0225    1.3080 O   0  0  0  0  0  0  0  0  0  0  0  0
    1.9180   34.1245   -3.3699 C   0  0  0  0  0  0  0  0  0  0  0  0
    0.9824   34.9000   -3.8525 N   0  0  0  0  0  0  0  0  0  0  0  0
   -0.5617   31.6853    2.9094 C   0  0  0  0  0  0  0  0  0  0  0  0
    0.0311   37.1466   -1.6250 C   0  0  0  0  0  0  0  0  0  0  0  0
   -1.1211   30.7785   -4.4540 C   0  0  2  0  0  0  0  0  0  0  0  0
   -1.1017   29.5932   -5.3994 N   0  0  0  0  0  0  0  0  0  0  0  0
    0.8511   33.0141   -0.1120 C   0  0  2  0  0  0  0  0  0  0  0  0
    2.4602   35.4918   -0.3637 C   0  0  1  0  0  0  0  0  0  0  0  0
    2.0653   34.8106    0.7754 O   0  0  0  0  0  0  0  0  0  0  0  0
    0.3164   31.2590   -4.1785 C   0  0  1  0  0  0  0  0  0  0  0  0
    0.8430   31.6985   -5.3940 O   0  0  0  0  0  0  0  0  0  0  0  0
    0.8415   34.3190    0.6769 C   0  0  2  0  0  0  0  0  0  0  0  0
    2.0097   36.9338   -0.4449 C   0  0  1  0  0  0  0  0  0  0  0  0
    0.5961   36.9780   -0.2967 N   0  0  0  0  0  0  0  0  0  0  0  0
    0.3592   32.4455   -3.2064 C   0  0  2  0  0  0  0  0  0  0  0  0
    1.7291   32.9317   -2.9145 N   0  0  0  0  0  0  0  0  0  0  0  0
    0.0974   33.9179    1.8754 C   0  0  1  0  0  0  0  0  0  0  0  0
    1.0156   33.9380    2.9703 O   0  0  0  0  0  0  0  0  0  0  0  0
    2.5919   37.6966    0.5577 C   0  0  2  0  0  0  0  0  0  0  0  0
    2.3710   39.0491    0.2463 O   0  0  0  0  0  0  0  0  0  0  0  0
   -0.3041   32.0149   -1.9078 C   0  0  1  0  0  0  0  0  0  0  0  0
   -0.2649   33.1165   -1.0141 O   0  0  0  0  0  0  0  0  0  0  0  0
   -0.3795   32.5412    1.6944 C   0  0  1  0  0  0  0  0  0  0  0  0
    0.5535   31.9696    0.7857 O   0  0  0  0  0  0  0  0  0  0  0  0
    4.0731   37.4316    0.6248 C   0  0  1  0  0  0  0  0  0  0  0  0
    4.5874   38.0197    1.7832 O   0  0  0  0  0  0  0  0  0  0  0  0
   -1.7705   31.5711   -2.1751 C   0  0  2  0  0  0  0  0  0  0  0  0
   -2.3784   31.1812   -0.9448 O   0  0  0  0  0  0  0  0  0  0  0  0
    4.3197   35.9631    0.6960 C   0  0  1  0  0  0  0  0  0  0  0  0
    3.8049   35.3857   -0.4689 O   0  0  0  0  0  0  0  0  0  0  0  0
   -1.7691   30.3727   -3.1473 C   0  0  1  0  0  0  0  0  0  0  0  0
   -3.1168   29.9466   -3.4065 O   0  0  0  0  0  0  0  0  0  0  0  0
    5.8282   35.6498    0.7458 C   0  0  0  0  0  0  0  0  0  0  0  0
    6.0106   34.2428    0.8550 O   0  0  0  0  0  0  0  0  0  0  0  0
   -2.7061   29.8940   -7.0006 N   0  0  0  0  0  0  0  0  0  0  0  0
    3.1274   34.5288   -3.3497 N   0  0  0  0  0  0  0  0  0  0  0  0
  1  2  1  0  0  0  0
  1 39  1  0  0  0  0
  3  4  1  0  0  0  0
  5  6  1  0  0  0  0
  5 40  1  0  0  0  0
  9 10  1  6  0  0  0
  9 14  1  0  0  0  0
  9 35  1  0  0  0  0
 10  1  1  0  0  0  0
 11 16  1  0  0  0  0
 11 28  1  0  0  0  0
 11 26  1  6  0  0  0
 12 17  1  0  0  0  0
 12 34  1  0  0  0  0
 12 13  1  1  0  0  0
 14 15  1  6  0  0  0
 14 19  1  0  0  0  0
 16 13  1  1  0  0  0
 16 21  1  0  0  0  0
 17 18  1  1  0  0  0
 17 23  1  0  0  0  0
 18  8  1  0  0  0  0
 19 20  1  1  0  0  0
 19 25  1  0  0  0  0
 20  5  1  0  0  0  0
 21  3  1  1  0  0  0
 21 22  1  0  0  0  0
 21 27  1  0  0  0  0
 23 24  1  6  0  0  0
 23 29  1  0  0  0  0
 25 26  1  1  0  0  0
 25 31  1  0  0  0  0
 27  7  1  1  0  0  0
 27 28  1  0  0  0  0
 29 30  1  1  0  0  0
 29 33  1  0  0  0  0
 31 32  1  1  0  0  0
 31 35  1  0  0  0  0
 33 34  1  0  0  0  0
 33 37  1  6  0  0  0
 35 36  1  6  0  0  0
 37 38  1  0  0  0  0
M  END
>  <CHROM.1>
-104.58907976,91.99361656,174.43796551,83.78089800,80.57084301,-101.53426241
114.02316348,9.52041481,62.54387236,-96.91185106,178.19883098,0.83431530
33.68702185,-1.26159969,-2.22799973,0.69126160,1.23878207

>  <Name>
1nta_lig

>  <RI>
0

>  <Rbt.Current_Directory>
/home/itssahil/PROJECTS/Mol_Feturizer/New_Systems/rnas/1nta

>  <Rbt.Executable>
rbdock ($Id: //depot/dev/client3/rdock/2013.1/src/exe/rbdock.cxx#4 $)

>  <Rbt.Library>
libRbt.so (2013.1, Build901 2013/11/27)

>  <Rbt.Parameter_File>
/export/apps/rDock/src/rDock_2013.1_src/data/scripts/dock_solv.prm

>  <Rbt.Receptor>
prm/pocket_docking_6.prm

>  <SCORE>
-27.0066

>  <SCORE.INTER>
-6.35555

>  <SCORE.INTER.CONST>
1

>  <SCORE.INTER.POLAR>
-0.576246

>  <SCORE.INTER.ROT>
11

>  <SCORE.INTER.SOLV>
21.7155

>  <SCORE.INTER.VDW>
-20.488

>  <SCORE.INTER.norm>
-0.158889

>  <SCORE.INTRA>
-20.6511

>  <SCORE.INTRA.DIHEDRAL>
-5.34797

>  <SCORE.INTRA.DIHEDRAL.0>
19.0336

>  <SCORE.INTRA.POLAR>
0

>  <SCORE.INTRA.POLAR.0>
0

>  <SCORE.INTRA.REPUL>
0

>  <SCORE.INTRA.REPUL.0>
0

>  <SCORE.INTRA.SOLV>
0.484509

>  <SCORE.INTRA.SOLV.lig_0>
-97.5861

>  <SCORE.INTRA.VDW>
-18.2193

>  <SCORE.INTRA.VDW.0>
11.7669

>  <SCORE.INTRA.norm>
-0.516277

>  <SCORE.RESTR>
0

>  <SCORE.RESTR.CAVITY>
0

>  <SCORE.RESTR.norm>
0

>  <SCORE.SYSTEM>
0

>  <SCORE.SYSTEM.CONST>
0

>  <SCORE.SYSTEM.DIHEDRAL>
0

>  <SCORE.SYSTEM.SOLV>
0

>  <SCORE.SYSTEM.norm>
0

>  <SCORE.heavy>
40

>  <SCORE.norm>
-0.675165

>  <RMSD>
6.993

$$$$
1nta_lig
 OpenBabel11021811403D
libRbt.so/2013.1/901 2013/11/27
 40 42  0  0  0  0  0  0  0  0999 V2000
   -2.5226   35.1654    4.3641 C   0  0  0  0  0  0  0  0  0  0  0  0
   -2.5590   36.0407    5.2982 N   0  0  0  0  0  0  0  0  0  0  0  0
    0.5950   36.1298   -4.1495 C   0  0  0  0  0  0  0  0  0  0  0  0
    1.7344   35.8763   -3.8259 O   0  0  0  0  0  0  0  0  0  0  0  0
   -2.5103   33.4906   -1.9107 C   0  0  0  0  0  0  0  0  0  0  0  0
   -2.7516   32.2988   -1.4298 N   0  0  0  0  0  0  0  0  0  0  0  0
   -1.5945   37.7851   -6.0277 C   0  0  0  0  0  0  0  0  0  0  0  0
    3.9044   40.9815   -3.2354 C   0  0  0  0  0  0  0  0  0  0  0  0
   -2.1487   35.7362    2.0980 C   0  0  2  0  0  0  0  0  0  0  0  0
   -1.5819   35.3459    3.4491 N   0  0  0  0  0  0  0  0  0  0  0  0
   -1.6163   38.1579   -2.4568 C   0  0  2  0  0  0  0  0  0  0  0  0
    1.9485   38.5096   -2.0489 C   0  0  1  0  0  0  0  0  0  0  0  0
    0.6025   38.8281   -2.1152 O   0  0  0  0  0  0  0  0  0  0  0  0
   -1.5949   34.8049    1.0031 C   0  0  1  0  0  0  0  0  0  0  0  0
   -2.0458   33.5162    1.2925 O   0  0  0  0  0  0  0  0  0  0  0  0
   -0.1317   37.8409   -2.6004 C   0  0  2  0  0  0  0  0  0  0  0  0
    2.8649   39.6476   -1.6565 C   0  0  1  0  0  0  0  0  0  0  0  0
    2.6482   40.7344   -2.5477 N   0  0  0  0  0  0  0  0  0  0  0  0
   -2.1180   35.1691   -0.3928 C   0  0  2  0  0  0  0  0  0  0  0  0
   -1.6010   34.2953   -1.4732 N   0  0  0  0  0  0  0  0  0  0  0  0
   -0.0568   37.4804   -4.0200 C   0  0  1  0  0  0  0  0  0  0  0  0
    0.6917   38.5045   -4.6780 O   0  0  0  0  0  0  0  0  0  0  0  0
    2.6095   40.0706   -0.3596 C   0  0  2  0  0  0  0  0  0  0  0  0
    3.6707   40.9041    0.0331 O   0  0  0  0  0  0  0  0  0  0  0  0
   -1.7225   36.6082   -0.6836 C   0  0  1  0  0  0  0  0  0  0  0  0
   -2.2116   36.9408   -1.9735 O   0  0  0  0  0  0  0  0  0  0  0  0
   -1.4161   37.4692   -4.5750 C   0  0  1  0  0  0  0  0  0  0  0  0
   -2.1334   38.3781   -3.7490 O   0  0  0  0  0  0  0  0  0  0  0  0
    2.5277   38.8889    0.5707 C   0  0  1  0  0  0  0  0  0  0  0  0
    2.0364   39.3173    1.8066 O   0  0  0  0  0  0  0  0  0  0  0  0
   -2.3174   37.5571    0.3955 C   0  0  2  0  0  0  0  0  0  0  0  0
   -1.9446   38.9021    0.1000 O   0  0  0  0  0  0  0  0  0  0  0  0
    1.5841   37.8761    0.0172 C   0  0  1  0  0  0  0  0  0  0  0  0
    2.0869   37.4519   -1.2167 O   0  0  0  0  0  0  0  0  0  0  0  0
   -1.7604   37.1644    1.7799 C   0  0  1  0  0  0  0  0  0  0  0  0
   -2.2982   38.0314    2.7918 O   0  0  0  0  0  0  0  0  0  0  0  0
    1.4883   36.6398    0.9330 C   0  0  0  0  0  0  0  0  0  0  0  0
    2.7748   36.0429    1.0494 O   0  0  0  0  0  0  0  0  0  0  0  0
   -3.3474   34.1759    4.3108 N   0  0  0  0  0  0  0  0  0  0  0  0
   -3.1860   33.9217   -2.9027 N   0  0  0  0  0  0  0  0  0  0  0  0
  1  2  1  0  0  0  0
  1 39  1  0  0  0  0
  3  4  1  0  0  0  0
  5  6  1  0  0  0  0
  5 40  1  0  0  0  0
  9 10  1  1  0  0  0
  9 14  1  0  0  0  0
  9 35  1  0  0  0  0
 10  1  1  0  0  0  0
 11 16  1  0  0  0  0
 11 28  1  0  0  0  0
 11 26  1  6  0  0  0
 12 17  1  0  0  0  0
 12 34  1  0  0  0  0
 12 13  1  1  0  0  0
 14 15  1  1  0  0  0
 14 19  1  0  0  0  0
 16 13  1  6  0  0  0
 16 21  1  0  0  0  0
 17 18  1  6  0  0  0
 17 23  1  0  0  0  0
 18  8  1  0  0  0  0
 19 20  1  6  0  0  0
 19 25  1  0  0  0  0
 20  5  1  0  0  0  0
 21  3  1  6  0  0  0
 21 22  1  0  0  0  0
 21 27  1  0  0  0  0
 23 24  1  1  0  0  0
 23 29  1  0  0  0  0
 25 26  1  6  0  0  0
 25 31  1  0  0  0  0
 27  7  1  6  0  0  0
 27 28  1  0  0  0  0
 29 30  1  1  0  0  0
 29 33  1  0  0  0  0
 31 32  1  6  0  0  0
 31 35  1  0  0  0  0
 33 34  1  0  0  0  0
 33 37  1  1  0  0  0
 35 36  1  1  0  0  0
 37 38  1  0  0  0  0
M  END
>  <CHROM.1>
-127.83878330,-110.92752270,64.19889429,173.13217097,171.43643830,-118.67331428
107.20713907,-89.49295469,-63.53261225,-166.20194328,-60.20061878,-0.30091561
37.09965394,-0.73630505,-2.41600568,-0.76242943,-1.54398106

>  <Name>
1nta_lig

>  <RI>
0

>  <Rbt.Current_Directory>
/home/itssahil/PROJECTS/Mol_Feturizer/New_Systems/rnas/1nta

>  <Rbt.Executable>
rbdock ($Id: //depot/dev/client3/rdock/2013.1/src/exe/rbdock.cxx#4 $)

>  <Rbt.Library>
libRbt.so (2013.1, Build901 2013/11/27)

>  <Rbt.Parameter_File>
/export/apps/rDock/src/rDock_2013.1_src/data/scripts/dock_solv.prm

>  <Rbt.Receptor>
prm/pocket_docking_4.prm

>  <SCORE>
-21.7305

>  <SCORE.INTER>
3.97007

>  <SCORE.INTER.CONST>
1

>  <SCORE.INTER.POLAR>
-0.816317

>  <SCORE.INTER.ROT>
11

>  <SCORE.INTER.SOLV>
6.10807

>  <SCORE.INTER.VDW>
-7.60159

>  <SCORE.INTER.norm>
0.0992517

>  <SCORE.INTRA>
-25.7006

>  <SCORE.INTRA.DIHEDRAL>
-12.7283

>  <SCORE.INTRA.DIHEDRAL.0>
19.0336

>  <SCORE.INTRA.POLAR>
0

>  <SCORE.INTRA.POLAR.0>
0

>  <SCORE.INTRA.REPUL>
0

>  <SCORE.INTRA.REPUL.0>
0

>  <SCORE.INTRA.SOLV>
-3.67174

>  <SCORE.INTRA.SOLV.lig_0>
-97.5861

>  <SCORE.INTRA.VDW>
-17.5006

>  <SCORE.INTRA.VDW.0>
11.7669

>  <SCORE.INTRA.norm>
-0.642515

>  <SCORE.RESTR>
0

>  <SCORE.RESTR.CAVITY>
0

>  <SCORE.RESTR.norm>
0

>  <SCORE.SYSTEM>
0

>  <SCORE.SYSTEM.CONST>
0

>  <SCORE.SYSTEM.DIHEDRAL>
0

>  <SCORE.SYSTEM.SOLV>
0

>  <SCORE.SYSTEM.norm>
0

>  <SCORE.heavy>
40

>  <SCORE.norm>
-0.543264

>  <RMSD>
7.005

$$$$
1nta_lig
 OpenBabel11021811403D
libRbt.so/2013.1/901 2013/11/27
 40 42  0  0  0  0  0  0  0  0999 V2000
   -0.3319   40.6569   -0.7269 C   0  0  0  0  0  0  0  0  0  0  0  0
    0.8420   41.1670   -0.6841 N   0  0  0  0  0  0  0  0  0  0  0  0
   -0.2069   32.7113   -1.7810 C   0  0  0  0  0  0  0  0  0  0  0  0
    0.0614   32.7173   -0.5998 O   0  0  0  0  0  0  0  0  0  0  0  0
   -3.7003   35.8916   -2.7091 C   0  0  0  0  0  0  0  0  0  0  0  0
   -3.9563   35.2290   -3.8069 N   0  0  0  0  0  0  0  0  0  0  0  0
    0.2060   31.5787   -4.8807 C   0  0  0  0  0  0  0  0  0  0  0  0
    5.5722   32.5606   -0.9821 C   0  0  0  0  0  0  0  0  0  0  0  0
   -1.0394   39.6340   -2.7403 C   0  0  2  0  0  0  0  0  0  0  0  0
   -1.0024   40.8614   -1.8509 N   0  0  0  0  0  0  0  0  0  0  0  0
    0.8607   35.0220   -4.1025 C   0  0  2  0  0  0  0  0  0  0  0  0
    2.7316   34.3331   -1.0934 C   0  0  1  0  0  0  0  0  0  0  0  0
    2.4227   34.7481   -2.3779 O   0  0  0  0  0  0  0  0  0  0  0  0
   -1.7765   38.4852   -2.0262 C   0  0  1  0  0  0  0  0  0  0  0  0
   -3.0938   38.9019   -1.8286 O   0  0  0  0  0  0  0  0  0  0  0  0
    1.1795   34.4569   -2.7225 C   0  0  2  0  0  0  0  0  0  0  0  0
    4.1972   34.4034   -0.7249 C   0  0  1  0  0  0  0  0  0  0  0  0
    4.9438   33.6665   -1.6850 N   0  0  0  0  0  0  0  0  0  0  0  0
   -1.8241   37.2063   -2.8729 C   0  0  2  0  0  0  0  0  0  0  0  0
   -2.5230   36.0771   -2.2138 N   0  0  0  0  0  0  0  0  0  0  0  0
    0.7548   33.0625   -2.8844 C   0  0  1  0  0  0  0  0  0  0  0  0
    1.9328   32.2543   -2.8489 O   0  0  0  0  0  0  0  0  0  0  0  0
    4.6477   35.7160   -0.7147 C   0  0  2  0  0  0  0  0  0  0  0  0
    5.9050   35.7298   -0.0870 O   0  0  0  0  0  0  0  0  0  0  0  0
   -0.3941   36.7939   -3.1843 C   0  0  1  0  0  0  0  0  0  0  0  0
   -0.4440   35.6133   -3.9700 O   0  0  0  0  0  0  0  0  0  0  0  0
    0.1276   32.9117   -4.2032 C   0  0  1  0  0  0  0  0  0  0  0  0
    0.7262   33.9350   -4.9890 O   0  0  0  0  0  0  0  0  0  0  0  0
    3.6929   36.5919    0.0533 C   0  0  1  0  0  0  0  0  0  0  0  0
    4.0374   37.9301   -0.1545 O   0  0  0  0  0  0  0  0  0  0  0  0
    0.3402   37.9345   -3.9450 C   0  0  2  0  0  0  0  0  0  0  0  0
    1.6753   37.5251   -4.2370 O   0  0  0  0  0  0  0  0  0  0  0  0
    2.3040   36.3828   -0.4464 C   0  0  1  0  0  0  0  0  0  0  0  0
    1.9686   35.0426   -0.2303 O   0  0  0  0  0  0  0  0  0  0  0  0
    0.3748   39.1965   -3.0578 C   0  0  1  0  0  0  0  0  0  0  0  0
    1.0510   40.2629   -3.7436 O   0  0  0  0  0  0  0  0  0  0  0  0
    1.2926   37.2490    0.3301 C   0  0  0  0  0  0  0  0  0  0  0  0
   -0.0179   36.9921   -0.1615 O   0  0  0  0  0  0  0  0  0  0  0  0
   -0.8336   39.9922    0.2573 N   0  0  0  0  0  0  0  0  0  0  0  0
   -4.6549   36.4321   -2.0587 N   0  0  0  0  0  0  0  0  0  0  0  0
  1  2  1  0  0  0  0
  1 39  1  0  0  0  0
  3  4  1  0  0  0  0
  5  6  1  0  0  0  0
  5 40  1  0  0  0  0
  9 10  1  1  0  0  0
  9 14  1  0  0  0  0
  9 35  1  0  0  0  0
 10  1  1  0  0  0  0
 11 16  1  0  0  0  0
 11 28  1  0  0  0  0
 11 26  1  1  0  0  0
 12 17  1  0  0  0  0
 12 34  1  0  0  0  0
 12 13  1  6  0  0  0
 14 15  1  6  0  0  0
 14 19  1  0  0  0  0
 16 13  1  6  0  0  0
 16 21  1  0  0  0  0
 17 18  1  6  0  0  0
 17 23  1  0  0  0  0
 18  8  1  0  0  0  0
 19 20  1  1  0  0  0
 19 25  1  0  0  0  0
 20  5  1  0  0  0  0
 21  3  1  1  0  0  0
 21 22  1  0  0  0  0
 21 27  1  0  0  0  0
 23 24  1  1  0  0  0
 23 29  1  0  0  0  0
 25 26  1  6  0  0  0
 25 31  1  0  0  0  0
 27  7  1  6  0  0  0
 27 28  1  0  0  0  0
 29 30  1  6  0  0  0
 29 33  1  0  0  0  0
 31 32  1  1  0  0  0
 31 35  1  0  0  0  0
 33 34  1  0  0  0  0
 33 37  1  1  0  0  0
 35 36  1  6  0  0  0
 37 38  1  0  0  0  0
M  END
>  <CHROM.1>
62.62734718,103.79106560,70.98375775,169.28007688,175.93841713,-116.71636353
104.35063671,81.95682646,-62.09038182,-169.45779293,-178.68557738,0.73602304
36.17167668,-2.06504069,-2.41339132,0.37101442,-2.84935876

>  <Name>
1nta_lig

>  <RI>
0

>  <Rbt.Current_Directory>
/home/itssahil/PROJECTS/Mol_Feturizer/New_Systems/rnas/1nta

>  <Rbt.Executable>
rbdock ($Id: //depot/dev/client3/rdock/2013.1/src/exe/rbdock.cxx#4 $)

>  <Rbt.Library>
libRbt.so (2013.1, Build901 2013/11/27)

>  <Rbt.Parameter_File>
/export/apps/rDock/src/rDock_2013.1_src/data/scripts/dock_solv.prm

>  <Rbt.Receptor>
prm/pocket_docking_4.prm

>  <SCORE>
-22.936

>  <SCORE.INTER>
0.0586288

>  <SCORE.INTER.CONST>
1

>  <SCORE.INTER.POLAR>
-0.313402

>  <SCORE.INTER.ROT>
11

>  <SCORE.INTER.SOLV>
8.12517

>  <SCORE.INTER.VDW>
-12.558

>  <SCORE.INTER.norm>
0.00146572

>  <SCORE.INTRA>
-22.9947

>  <SCORE.INTRA.DIHEDRAL>
-13.6912

>  <SCORE.INTRA.DIHEDRAL.0>
19.0336

>  <SCORE.INTRA.POLAR>
0

>  <SCORE.INTRA.POLAR.0>
0

>  <SCORE.INTRA.REPUL>
0.0290578

>  <SCORE.INTRA.REPUL.0>
0

>  <SCORE.INTRA.SOLV>
0.704428

>  <SCORE.INTRA.SOLV.lig_0>
-97.5861

>  <SCORE.INTRA.VDW>
-16.6466

>  <SCORE.INTRA.VDW.0>
11.7669

>  <SCORE.INTRA.norm>
-0.574866

>  <SCORE.RESTR>
0

>  <SCORE.RESTR.CAVITY>
0

>  <SCORE.RESTR.norm>
0

>  <SCORE.SYSTEM>
0

>  <SCORE.SYSTEM.CONST>
0

>  <SCORE.SYSTEM.DIHEDRAL>
0

>  <SCORE.SYSTEM.SOLV>
0

>  <SCORE.SYSTEM.norm>
0

>  <SCORE.heavy>
40

>  <SCORE.norm>
-0.573401

>  <RMSD>
7.035

$$$$
1nta_lig
 OpenBabel11021811403D
libRbt.so/2013.1/901 2013/11/27
 40 42  0  0  0  0  0  0  0  0999 V2000
    0.7735   41.0625   -0.7771 C   0  0  0  0  0  0  0  0  0  0  0  0
    1.7187   41.4581   -1.5454 N   0  0  0  0  0  0  0  0  0  0  0  0
    0.6517   31.4855   -2.6673 C   0  0  0  0  0  0  0  0  0  0  0  0
   -0.4187   31.5624   -2.1056 O   0  0  0  0  0  0  0  0  0  0  0  0
   -2.1532   36.9709   -4.7881 C   0  0  0  0  0  0  0  0  0  0  0  0
   -2.9307   36.6316   -3.7930 N   0  0  0  0  0  0  0  0  0  0  0  0
    0.4531   32.2597   -5.8957 C   0  0  0  0  0  0  0  0  0  0  0  0
    6.4935   32.4644   -2.6975 C   0  0  0  0  0  0  0  0  0  0  0  0
    0.1139   39.0119   -1.7571 C   0  0  2  0  0  0  0  0  0  0  0  0
   -0.2286   40.4398   -1.3792 N   0  0  0  0  0  0  0  0  0  0  0  0
    0.8197   34.8414   -3.4277 C   0  0  2  0  0  0  0  0  0  0  0  0
    3.4250   33.1778   -1.5650 C   0  0  1  0  0  0  0  0  0  0  0  0
    2.7719   34.0995   -2.3658 O   0  0  0  0  0  0  0  0  0  0  0  0
   -0.5440   38.6482   -3.1017 C   0  0  1  0  0  0  0  0  0  0  0  0
    0.0114   39.4851   -4.0708 O   0  0  0  0  0  0  0  0  0  0  0  0
    1.5314   33.7397   -2.6498 C   0  0  2  0  0  0  0  0  0  0  0  0
    4.8971   33.4438   -1.3392 C   0  0  1  0  0  0  0  0  0  0  0  0
    5.5385   33.5558   -2.6034 N   0  0  0  0  0  0  0  0  0  0  0  0
   -0.2498   37.2025   -3.5236 C   0  0  2  0  0  0  0  0  0  0  0  0
   -0.8721   36.8162   -4.8126 N   0  0  0  0  0  0  0  0  0  0  0  0
    1.2662   32.5765   -3.5027 C   0  0  1  0  0  0  0  0  0  0  0  0
    2.5134   32.1781   -4.0752 O   0  0  0  0  0  0  0  0  0  0  0  0
    5.0892   34.6215   -0.6305 C   0  0  2  0  0  0  0  0  0  0  0  0
    6.4287   34.6493   -0.2063 O   0  0  0  0  0  0  0  0  0  0  0  0
   -0.7585   36.2791   -2.4280 C   0  0  1  0  0  0  0  0  0  0  0  0
   -0.4808   34.9443   -2.8215 O   0  0  0  0  0  0  0  0  0  0  0  0
    0.3660   32.9845   -4.5884 C   0  0  1  0  0  0  0  0  0  0  0  0
    0.6196   34.3755   -4.7424 O   0  0  0  0  0  0  0  0  0  0  0  0
    4.1808   34.6651    0.5700 C   0  0  1  0  0  0  0  0  0  0  0  0
    4.2190   35.9482    1.1218 O   0  0  0  0  0  0  0  0  0  0  0  0
   -0.0634   36.6140   -1.0776 C   0  0  2  0  0  0  0  0  0  0  0  0
   -0.5454   35.7314   -0.0658 O   0  0  0  0  0  0  0  0  0  0  0  0
    2.7791   34.3767    0.1521 C   0  0  1  0  0  0  0  0  0  0  0  0
    2.7517   33.0900   -0.3947 O   0  0  0  0  0  0  0  0  0  0  0  0
   -0.3912   38.0699   -0.6850 C   0  0  1  0  0  0  0  0  0  0  0  0
    0.2420   38.3987    0.5623 O   0  0  0  0  0  0  0  0  0  0  0  0
    1.8200   34.3924    1.3588 C   0  0  0  0  0  0  0  0  0  0  0  0
    1.6662   35.7308    1.8170 O   0  0  0  0  0  0  0  0  0  0  0  0
    0.7895   41.2594    0.4970 N   0  0  0  0  0  0  0  0  0  0  0  0
   -2.6601   37.4755   -5.8439 N   0  0  0  0  0  0  0  0  0  0  0  0
  1  2  1  0  0  0  0
  1 39  1  0  0  0  0
  3  4  1  0  0  0  0
  5  6  1  0  0  0  0
  5 40  1  0  0  0  0
  9 10  1  1  0  0  0
  9 14  1  0  0  0  0
  9 35  1  0  0  0  0
 10  1  1  0  0  0  0
 11 16  1  0  0  0  0
 11 28  1  0  0  0  0
 11 26  1  1  0  0  0
 12 17  1  0  0  0  0
 12 34  1  0  0  0  0
 12 13  1  6  0  0  0
 14 15  1  6  0  0  0
 14 19  1  0  0  0  0
 16 13  1  6  0  0  0
 16 21  1  0  0  0  0
 17 18  1  6  0  0  0
 17 23  1  0  0  0  0
 18  8  1  0  0  0  0
 19 20  1  6  0  0  0
 19 25  1  0  0  0  0
 20  5  1  0  0  0  0
 21  3  1  1  0  0  0
 21 22  1  0  0  0  0
 21 27  1  0  0  0  0
 23 24  1  1  0  0  0
 23 29  1  0  0  0  0
 25 26  1  6  0  0  0
 25 31  1  0  0  0  0
 27  7  1  6  0  0  0
 27 28  1  0  0  0  0
 29 30  1  6  0  0  0
 29 33  1  0  0  0  0
 31 32  1  1  0  0  0
 31 35  1  0  0  0  0
 33 34  1  0  0  0  0
 33 37  1  1  0  0  0
 35 36  1  1  0  0  0
 37 38  1  0  0  0  0
M  END
>  <CHROM.1>
-143.70603208,76.71874303,126.51807355,172.95559659,175.02663698,-116.45544370
-57.44374000,-43.08943772,63.43840239,40.69346746,70.73841957,1.31532648
35.63049511,-2.02582364,-2.40119711,0.67767377,-2.62561837

>  <Name>
1nta_lig

>  <RI>
0

>  <Rbt.Current_Directory>
/home/itssahil/PROJECTS/Mol_Feturizer/New_Systems/rnas/1nta

>  <Rbt.Executable>
rbdock ($Id: //depot/dev/client3/rdock/2013.1/src/exe/rbdock.cxx#4 $)

>  <Rbt.Library>
libRbt.so (2013.1, Build901 2013/11/27)

>  <Rbt.Parameter_File>
/export/apps/rDock/src/rDock_2013.1_src/data/scripts/dock_solv.prm

>  <Rbt.Receptor>
prm/pocket_docking_3.prm

>  <SCORE>
-14.0658

>  <SCORE.INTER>
-0.417032

>  <SCORE.INTER.CONST>
1

>  <SCORE.INTER.POLAR>
0

>  <SCORE.INTER.ROT>
11

>  <SCORE.INTER.SOLV>
8.84424

>  <SCORE.INTER.VDW>
-14.1594

>  <SCORE.INTER.norm>
-0.0104258

>  <SCORE.INTRA>
-14.1749

>  <SCORE.INTRA.DIHEDRAL>
-6.08489

>  <SCORE.INTRA.DIHEDRAL.0>
19.0336

>  <SCORE.INTRA.POLAR>
0

>  <SCORE.INTRA.POLAR.0>
0

>  <SCORE.INTRA.REPUL>
0

>  <SCORE.INTRA.REPUL.0>
0

>  <SCORE.INTRA.SOLV>
-0.588687

>  <SCORE.INTRA.SOLV.lig_0>
-97.5861

>  <SCORE.INTRA.VDW>
-10.8381

>  <SCORE.INTRA.VDW.0>
11.7669

>  <SCORE.INTRA.norm>
-0.354373

>  <SCORE.RESTR>
0.526116

>  <SCORE.RESTR.CAVITY>
0.526116

>  <SCORE.RESTR.norm>
0.0131529

>  <SCORE.SYSTEM>
0

>  <SCORE.SYSTEM.CONST>
0

>  <SCORE.SYSTEM.DIHEDRAL>
0

>  <SCORE.SYSTEM.SOLV>
0

>  <SCORE.SYSTEM.norm>
0

>  <SCORE.heavy>
40

>  <SCORE.norm>
-0.351646

>  <RMSD>
7.045

$$$$
1nta_lig
 OpenBabel11021811403D
libRbt.so/2013.1/901 2013/11/27
 40 42  0  0  0  0  0  0  0  0999 V2000
   -1.7949   29.6748   -3.9056 C   0  0  0  0  0  0  0  0  0  0  0  0
   -2.9380   29.1877   -4.2158 N   0  0  0  0  0  0  0  0  0  0  0  0
    2.0907   36.2786    1.6435 C   0  0  0  0  0  0  0  0  0  0  0  0
    2.8090   35.9617    0.7210 O   0  0  0  0  0  0  0  0  0  0  0  0
    2.6262   33.7163   -2.5533 C   0  0  0  0  0  0  0  0  0  0  0  0
    2.5284   34.6062   -3.5064 N   0  0  0  0  0  0  0  0  0  0  0  0
    0.7880   39.1311    0.5357 C   0  0  0  0  0  0  0  0  0  0  0  0
   -1.0956   36.6643    6.0591 C   0  0  0  0  0  0  0  0  0  0  0  0
   -1.3812   31.6189   -2.6212 C   0  0  2  0  0  0  0  0  0  0  0  0
   -1.6872   30.1346   -2.6680 N   0  0  0  0  0  0  0  0  0  0  0  0
   -0.9514   36.0286    0.0461 C   0  0  2  0  0  0  0  0  0  0  0  0
   -0.4622   34.8038    3.4049 C   0  0  1  0  0  0  0  0  0  0  0  0
   -1.0810   35.2927    2.2666 O   0  0  0  0  0  0  0  0  0  0  0  0
    0.0614   31.8465   -2.1315 C   0  0  1  0  0  0  0  0  0  0  0  0
    0.9121   31.2709   -3.0765 O   0  0  0  0  0  0  0  0  0  0  0  0
   -0.2185   35.6301    1.3225 C   0  0  2  0  0  0  0  0  0  0  0  0
   -1.3033   34.8319    4.6621 C   0  0  1  0  0  0  0  0  0  0  0  0
   -1.7648   36.1605    4.8714 N   0  0  0  0  0  0  0  0  0  0  0  0
    0.4196   33.3360   -2.0418 C   0  0  2  0  0  0  0  0  0  0  0  0
    1.8010   33.5925   -1.5687 N   0  0  0  0  0  0  0  0  0  0  0  0
    0.6774   36.7772    1.5025 C   0  0  1  0  0  0  0  0  0  0  0  0
    0.2364   37.4804    2.6657 O   0  0  0  0  0  0  0  0  0  0  0  0
   -2.3985   33.9869    4.5497 C   0  0  2  0  0  0  0  0  0  0  0  0
   -2.9540   33.8373    5.8319 O   0  0  0  0  0  0  0  0  0  0  0  0
   -0.5641   34.0007   -1.0919 C   0  0  1  0  0  0  0  0  0  0  0  0
   -0.2307   35.3779   -1.0154 O   0  0  0  0  0  0  0  0  0  0  0  0
    0.5417   37.6669    0.3425 C   0  0  1  0  0  0  0  0  0  0  0  0
   -0.7748   37.4151   -0.1332 O   0  0  0  0  0  0  0  0  0  0  0  0
   -1.9706   32.6407    4.0271 C   0  0  1  0  0  0  0  0  0  0  0  0
   -3.1082   31.8991    3.6980 O   0  0  0  0  0  0  0  0  0  0  0  0
   -2.0194   33.8113   -1.6067 C   0  0  2  0  0  0  0  0  0  0  0  0
   -2.9257   34.4500   -0.7089 O   0  0  0  0  0  0  0  0  0  0  0  0
   -1.1527   32.8159    2.7931 C   0  0  1  0  0  0  0  0  0  0  0  0
   -0.0161   33.5555    3.1344 O   0  0  0  0  0  0  0  0  0  0  0  0
   -2.3425   32.3039   -1.6732 C   0  0  1  0  0  0  0  0  0  0  0  0
   -3.6850   32.1078   -2.1464 O   0  0  0  0  0  0  0  0  0  0  0  0
   -0.6779   31.4584    2.2380 C   0  0  0  0  0  0  0  0  0  0  0  0
   -1.7588   30.8249    1.5632 O   0  0  0  0  0  0  0  0  0  0  0  0
   -0.8132   29.7211   -4.7402 N   0  0  0  0  0  0  0  0  0  0  0  0
    3.5815   32.8717   -2.5713 N   0  0  0  0  0  0  0  0  0  0  0  0
  1  2  1  0  0  0  0
  1 39  1  0  0  0  0
  3  4  1  0  0  0  0
  5  6  1  0  0  0  0
  5 40  1  0  0  0  0
  9 10  1  1  0  0  0
  9 14  1  0  0  0  0
  9 35  1  0  0  0  0
 10  1  1  0  0  0  0
 11 16  1  0  0  0  0
 11 28  1  0  0  0  0
 11 26  1  6  0  0  0
 12 17  1  0  0  0  0
 12 34  1  0  0  0  0
 12 13  1  6  0  0  0
 14 15  1  6  0  0  0
 14 19  1  0  0  0  0
 16 13  1  1  0  0  0
 16 21  1  0  0  0  0
 17 18  1  6  0  0  0
 17 23  1  0  0  0  0
 18  8  1  0  0  0  0
 19 20  1  1  0  0  0
 19 25  1  0  0  0  0
 20  5  1  0  0  0  0
 21  3  1  1  0  0  0
 21 22  1  0  0  0  0
 21 27  1  0  0  0  0
 23 24  1  1  0  0  0
 23 29  1  0  0  0  0
 25 26  1  6  0  0  0
 25 31  1  0  0  0  0
 27  7  1  1  0  0  0
 27 28  1  0  0  0  0
 29 30  1  6  0  0  0
 29 33  1  0  0  0  0
 31 32  1  1  0  0  0
 31 35  1  0  0  0  0
 33 34  1  0  0  0  0
 33 37  1  1  0  0  0
 35 36  1  6  0  0  0
 37 38  1  0  0  0  0
M  END
>  <CHROM.1>
-109.70244613,-118.23145325,77.88878100,160.49797909,174.35546477,-111.73472353
93.27867439,58.65789628,80.92208004,-169.28934361,77.11637000,-0.59115913
33.88984000,0.38810059,1.52527004,-0.87063906,-2.16980265

>  <Name>
1nta_lig

>  <RI>
0

>  <Rbt.Current_Directory>
/home/itssahil/PROJECTS/Mol_Feturizer/New_Systems/rnas/1nta

>  <Rbt.Executable>
rbdock ($Id: //depot/dev/client3/rdock/2013.1/src/exe/rbdock.cxx#4 $)

>  <Rbt.Library>
libRbt.so (2013.1, Build901 2013/11/27)

>  <Rbt.Parameter_File>
/export/apps/rDock/src/rDock_2013.1_src/data/scripts/dock_solv.prm

>  <Rbt.Receptor>
prm/pocket_docking_6.prm

>  <SCORE>
-23.3072

>  <SCORE.INTER>
-0.197287

>  <SCORE.INTER.CONST>
1

>  <SCORE.INTER.POLAR>
-1.17972

>  <SCORE.INTER.ROT>
11

>  <SCORE.INTER.SOLV>
21.7283

>  <SCORE.INTER.VDW>
-14.3752

>  <SCORE.INTER.norm>
-0.00493219

>  <SCORE.INTRA>
-23.1099

>  <SCORE.INTRA.DIHEDRAL>
-8.51183

>  <SCORE.INTRA.DIHEDRAL.0>
19.0336

>  <SCORE.INTRA.POLAR>
0

>  <SCORE.INTRA.POLAR.0>
0

>  <SCORE.INTRA.REPUL>
0.0233672

>  <SCORE.INTRA.REPUL.0>
0

>  <SCORE.INTRA.SOLV>
-4.02363

>  <SCORE.INTRA.SOLV.lig_0>
-97.5861

>  <SCORE.INTRA.VDW>
-16.959

>  <SCORE.INTRA.VDW.0>
11.7669

>  <SCORE.INTRA.norm>
-0.577747

>  <SCORE.RESTR>
0

>  <SCORE.RESTR.CAVITY>
0

>  <SCORE.RESTR.norm>
0

>  <SCORE.SYSTEM>
0

>  <SCORE.SYSTEM.CONST>
0

>  <SCORE.SYSTEM.DIHEDRAL>
0

>  <SCORE.SYSTEM.SOLV>
0

>  <SCORE.SYSTEM.norm>
0

>  <SCORE.heavy>
40

>  <SCORE.norm>
-0.582679

>  <RMSD>
7.053

$$$$
1nta_lig
 OpenBabel11021811403D
libRbt.so/2013.1/901 2013/11/27
 40 42  0  0  0  0  0  0  0  0999 V2000
    1.6998   42.2471    2.2620 C   0  0  0  0  0  0  0  0  0  0  0  0
    0.8902   42.1141    3.2454 N   0  0  0  0  0  0  0  0  0  0  0  0
   -1.5670   35.3022   -3.3266 C   0  0  0  0  0  0  0  0  0  0  0  0
   -2.2003   35.9794   -2.5470 O   0  0  0  0  0  0  0  0  0  0  0  0
   -2.4854   38.6346   -0.8094 C   0  0  0  0  0  0  0  0  0  0  0  0
   -2.9813   38.7911   -2.0092 N   0  0  0  0  0  0  0  0  0  0  0  0
   -1.2300   36.5858   -6.3762 C   0  0  0  0  0  0  0  0  0  0  0  0
    1.0995   32.0514   -3.7222 C   0  0  0  0  0  0  0  0  0  0  0  0
    1.4545   40.7985    0.4068 C   0  0  2  0  0  0  0  0  0  0  0  0
    2.1345   41.1175    1.7239 N   0  0  0  0  0  0  0  0  0  0  0  0
    0.9346   37.6392   -3.7124 C   0  0  2  0  0  0  0  0  0  0  0  0
    1.6855   34.5114   -2.1556 C   0  0  1  0  0  0  0  0  0  0  0  0
    1.7912   35.5607   -3.0529 O   0  0  0  0  0  0  0  0  0  0  0  0
    0.4164   39.6778    0.6052 C   0  0  1  0  0  0  0  0  0  0  0  0
   -0.5587   40.1697    1.4743 O   0  0  0  0  0  0  0  0  0  0  0  0
    0.6612   36.2352   -3.1840 C   0  0  2  0  0  0  0  0  0  0  0  0
    2.5629   33.3150   -2.4516 C   0  0  1  0  0  0  0  0  0  0  0  0
    2.2973   32.8726   -3.7767 N   0  0  0  0  0  0  0  0  0  0  0  0
   -0.2886   39.2964   -0.7034 C   0  0  2  0  0  0  0  0  0  0  0  0
   -1.2923   38.2161   -0.5503 N   0  0  0  0  0  0  0  0  0  0  0  0
   -0.3775   35.7815   -4.1147 C   0  0  1  0  0  0  0  0  0  0  0  0
    0.1933   34.7424   -4.9126 O   0  0  0  0  0  0  0  0  0  0  0  0
    3.9073   33.6430   -2.3470 C   0  0  2  0  0  0  0  0  0  0  0  0
    4.6389   32.4431   -2.3390 O   0  0  0  0  0  0  0  0  0  0  0  0
    0.7724   38.8537   -1.6985 C   0  0  1  0  0  0  0  0  0  0  0  0
    0.1157   38.5057   -2.9073 O   0  0  0  0  0  0  0  0  0  0  0  0
   -0.7399   36.8982   -4.9963 C   0  0  1  0  0  0  0  0  0  0  0  0
    0.4293   37.7076   -5.0260 O   0  0  0  0  0  0  0  0  0  0  0  0
    4.1650   34.3974   -1.0691 C   0  0  1  0  0  0  0  0  0  0  0  0
    5.4606   34.9195   -1.1036 O   0  0  0  0  0  0  0  0  0  0  0  0
    1.7977   39.9989   -1.9354 C   0  0  2  0  0  0  0  0  0  0  0  0
    2.7779   39.5686   -2.8785 O   0  0  0  0  0  0  0  0  0  0  0  0
    3.2056   35.5324   -0.9516 C   0  0  1  0  0  0  0  0  0  0  0  0
    1.9137   34.9987   -0.9142 O   0  0  0  0  0  0  0  0  0  0  0  0
    2.4898   40.3452   -0.6004 C   0  0  1  0  0  0  0  0  0  0  0  0
    3.4430   41.4021   -0.7988 O   0  0  0  0  0  0  0  0  0  0  0  0
    3.4248   36.3185    0.3561 C   0  0  0  0  0  0  0  0  0  0  0  0
    2.4620   37.3630    0.4412 O   0  0  0  0  0  0  0  0  0  0  0  0
    2.0735   43.4010    1.8249 N   0  0  0  0  0  0  0  0  0  0  0  0
   -3.1921   38.9277    0.2109 N   0  0  0  0  0  0  0  0  0  0  0  0
  1  2  1  0  0  0  0
  1 39  1  0  0  0  0
  3  4  1  0  0  0  0
  5  6  1  0  0  0  0
  5 40  1  0  0  0  0
  9 10  1  1  0  0  0
  9 14  1  0  0  0  0
  9 35  1  0  0  0  0
 10  1  1  0  0  0  0
 11 16  1  0  0  0  0
 11 28  1  0  0  0  0
 11 26  1  1  0  0  0
 12 17  1  0  0  0  0
 12 34  1  0  0  0  0
 12 13  1  6  0  0  0
 14 15  1  1  0  0  0
 14 19  1  0  0  0  0
 16 13  1  6  0  0  0
 16 21  1  0  0  0  0
 17 18  1  6  0  0  0
 17 23  1  0  0  0  0
 18  8  1  0  0  0  0
 19 20  1  1  0  0  0
 19 25  1  0  0  0  0
 20  5  1  0  0  0  0
 21  3  1  1  0  0  0
 21 22  1  0  0  0  0
 21 27  1  0  0  0  0
 23 24  1  1  0  0  0
 23 29  1  0  0  0  0
 25 26  1  6  0  0  0
 25 31  1  0  0  0  0
 27  7  1  6  0  0  0
 27 28  1  0  0  0  0
 29 30  1  6  0  0  0
 29 33  1  0  0  0  0
 31 32  1  6  0  0  0
 31 35  1  0  0  0  0
 33 34  1  0  0  0  0
 33 37  1  1  0  0  0
 35 36  1  6  0  0  0
 37 38  1  0  0  0  0
M  END
>  <CHROM.1>
-104.34026977,103.58884459,84.91770992,148.95312785,157.92561631,-81.55973084
115.51224884,79.65465808,59.15197103,-158.91121248,-178.24238015,1.11800847
37.39034939,-1.63671233,-1.68642730,0.46813250,-2.53821941

>  <Name>
1nta_lig

>  <RI>
0

>  <Rbt.Current_Directory>
/home/itssahil/PROJECTS/Mol_Feturizer/New_Systems/rnas/1nta

>  <Rbt.Executable>
rbdock ($Id: //depot/dev/client3/rdock/2013.1/src/exe/rbdock.cxx#4 $)

>  <Rbt.Library>
libRbt.so (2013.1, Build901 2013/11/27)

>  <Rbt.Parameter_File>
/export/apps/rDock/src/rDock_2013.1_src/data/scripts/dock_solv.prm

>  <Rbt.Receptor>
prm/pocket_docking_6.prm

>  <SCORE>
-26.1782

>  <SCORE.INTER>
-3.93696

>  <SCORE.INTER.CONST>
1

>  <SCORE.INTER.POLAR>
-1.26995

>  <SCORE.INTER.ROT>
11

>  <SCORE.INTER.SOLV>
9.9349

>  <SCORE.INTER.VDW>
-12.6364

>  <SCORE.INTER.norm>
-0.0984241

>  <SCORE.INTRA>
-22.2413

>  <SCORE.INTRA.DIHEDRAL>
-4.68214

>  <SCORE.INTRA.DIHEDRAL.0>
19.0336

>  <SCORE.INTRA.POLAR>
0

>  <SCORE.INTRA.POLAR.0>
0

>  <SCORE.INTRA.REPUL>
0

>  <SCORE.INTRA.REPUL.0>
0

>  <SCORE.INTRA.SOLV>
-1.09817

>  <SCORE.INTRA.SOLV.lig_0>
-97.5861

>  <SCORE.INTRA.VDW>
-19.3511

>  <SCORE.INTRA.VDW.0>
11.7669

>  <SCORE.INTRA.norm>
-0.556032

>  <SCORE.RESTR>
0

>  <SCORE.RESTR.CAVITY>
0

>  <SCORE.RESTR.norm>
0

>  <SCORE.SYSTEM>
0

>  <SCORE.SYSTEM.CONST>
0

>  <SCORE.SYSTEM.DIHEDRAL>
0

>  <SCORE.SYSTEM.SOLV>
0

>  <SCORE.SYSTEM.norm>
0

>  <SCORE.heavy>
40

>  <SCORE.norm>
-0.654456

>  <RMSD>
7.068

$$$$
1nta_lig
 OpenBabel11021811403D
libRbt.so/2013.1/901 2013/11/27
 40 42  0  0  0  0  0  0  0  0999 V2000
    1.6642   41.6490   -5.5478 C   0  0  0  0  0  0  0  0  0  0  0  0
    1.8170   42.8668   -5.1821 N   0  0  0  0  0  0  0  0  0  0  0  0
   -0.2012   37.0056    2.2105 C   0  0  0  0  0  0  0  0  0  0  0  0
    0.7406   37.5698    2.7223 O   0  0  0  0  0  0  0  0  0  0  0  0
   -0.5941   40.3569    0.0999 C   0  0  0  0  0  0  0  0  0  0  0  0
   -0.2407   41.5850    0.3768 N   0  0  0  0  0  0  0  0  0  0  0  0
   -2.3076   34.5419    1.4659 C   0  0  0  0  0  0  0  0  0  0  0  0
    5.2800   37.5918    0.7112 C   0  0  0  0  0  0  0  0  0  0  0  0
    1.1264   39.8998   -4.0472 C   0  0  2  0  0  0  0  0  0  0  0  0
    2.1838   40.7400   -4.7364 N   0  0  0  0  0  0  0  0  0  0  0  0
    0.0045   35.7612   -0.9953 C   0  0  2  0  0  0  0  0  0  0  0  0
    2.8782   36.0433   -0.7472 C   0  0  1  0  0  0  0  0  0  0  0  0
    2.0150   35.4715    0.1723 O   0  0  0  0  0  0  0  0  0  0  0  0
    1.1990   40.1048   -2.5222 C   0  0  1  0  0  0  0  0  0  0  0  0
    0.9003   41.4451   -2.2727 O   0  0  0  0  0  0  0  0  0  0  0  0
    0.8485   36.0920    0.2308 C   0  0  2  0  0  0  0  0  0  0  0  0
    4.3507   35.8334   -0.4708 C   0  0  1  0  0  0  0  0  0  0  0  0
    4.6375   36.2950    0.8433 N   0  0  0  0  0  0  0  0  0  0  0  0
    0.1638   39.2584   -1.7693 C   0  0  2  0  0  0  0  0  0  0  0  0
    0.2084   39.4273   -0.2971 N   0  0  0  0  0  0  0  0  0  0  0  0
   -0.0997   35.8025    1.3116 C   0  0  1  0  0  0  0  0  0  0  0  0
    0.3873   34.6521    2.0054 O   0  0  0  0  0  0  0  0  0  0  0  0
    4.6897   34.4906   -0.5608 C   0  0  2  0  0  0  0  0  0  0  0  0
    6.0923   34.4066   -0.5893 O   0  0  0  0  0  0  0  0  0  0  0  0
    0.4111   37.7976   -2.1112 C   0  0  1  0  0  0  0  0  0  0  0  0
   -0.5507   37.0200   -1.4155 O   0  0  0  0  0  0  0  0  0  0  0  0
   -1.4016   35.4711    0.7193 C   0  0  1  0  0  0  0  0  0  0  0  0
   -1.0753   34.9629   -0.5684 O   0  0  0  0  0  0  0  0  0  0  0  0
    4.1245   33.8905   -1.8213 C   0  0  1  0  0  0  0  0  0  0  0  0
    4.2714   32.5020   -1.7684 O   0  0  0  0  0  0  0  0  0  0  0  0
    0.2946   37.5781   -3.6464 C   0  0  2  0  0  0  0  0  0  0  0  0
    0.5192   36.2014   -3.9458 O   0  0  0  0  0  0  0  0  0  0  0  0
    2.6705   34.2042   -1.9209 C   0  0  1  0  0  0  0  0  0  0  0  0
    2.5355   35.5949   -1.9769 O   0  0  0  0  0  0  0  0  0  0  0  0
    1.3563   38.4374   -4.3644 C   0  0  1  0  0  0  0  0  0  0  0  0
    1.2654   38.2476   -5.7858 O   0  0  0  0  0  0  0  0  0  0  0  0
    2.0587   33.6228   -3.2108 C   0  0  0  0  0  0  0  0  0  0  0  0
    1.8357   32.2283   -3.0357 O   0  0  0  0  0  0  0  0  0  0  0  0
    1.0510   41.3249   -6.6345 N   0  0  0  0  0  0  0  0  0  0  0  0
   -1.8106   40.0011    0.2412 N   0  0  0  0  0  0  0  0  0  0  0  0
  1  2  1  0  0  0  0
  1 39  1  0  0  0  0
  3  4  1  0  0  0  0
  5  6  1  0  0  0  0
  5 40  1  0  0  0  0
  9 10  1  6  0  0  0
  9 14  1  0  0  0  0
  9 35  1  0  0  0  0
 10  1  1  0  0  0  0
 11 16  1  0  0  0  0
 11 28  1  0  0  0  0
 11 26  1  1  0  0  0
 12 17  1  0  0  0  0
 12 34  1  0  0  0  0
 12 13  1  1  0  0  0
 14 15  1  6  0  0  0
 14 19  1  0  0  0  0
 16 13  1  1  0  0  0
 16 21  1  0  0  0  0
 17 18  1  1  0  0  0
 17 23  1  0  0  0  0
 18  8  1  0  0  0  0
 19 20  1  1  0  0  0
 19 25  1  0  0  0  0
 20  5  1  0  0  0  0
 21  3  1  1  0  0  0
 21 22  1  0  0  0  0
 21 27  1  0  0  0  0
 23 24  1  6  0  0  0
 23 29  1  0  0  0  0
 25 26  1  1  0  0  0
 25 31  1  0  0  0  0
 27  7  1  1  0  0  0
 27 28  1  0  0  0  0
 29 30  1  1  0  0  0
 29 33  1  0  0  0  0
 31 32  1  1  0  0  0
 31 35  1  0  0  0  0
 33 34  1  0  0  0  0
 33 37  1  6  0  0  0
 35 36  1  6  0  0  0
 37 38  1  0  0  0  0
M  END
>  <CHROM.1>
-117.58472840,112.17691723,77.61987349,154.15169327,74.24986035,-102.47807330
91.61759919,-98.59487257,-52.71423033,-145.01009883,78.11798997,1.39336887
37.14072270,-1.45678709,-1.86533719,-0.82372842,2.40188621

>  <Name>
1nta_lig

>  <RI>
0

>  <Rbt.Current_Directory>
/home/itssahil/PROJECTS/Mol_Feturizer/New_Systems/rnas/1nta

>  <Rbt.Executable>
rbdock ($Id: //depot/dev/client3/rdock/2013.1/src/exe/rbdock.cxx#4 $)

>  <Rbt.Library>
libRbt.so (2013.1, Build901 2013/11/27)

>  <Rbt.Parameter_File>
/export/apps/rDock/src/rDock_2013.1_src/data/scripts/dock_solv.prm

>  <Rbt.Receptor>
prm/pocket_docking_7.prm

>  <SCORE>
-22.0243

>  <SCORE.INTER>
-0.272829

>  <SCORE.INTER.CONST>
1

>  <SCORE.INTER.POLAR>
-0.449992

>  <SCORE.INTER.ROT>
11

>  <SCORE.INTER.SOLV>
11.2259

>  <SCORE.INTER.VDW>
-13.3572

>  <SCORE.INTER.norm>
-0.00682073

>  <SCORE.INTRA>
-21.7514

>  <SCORE.INTRA.DIHEDRAL>
-4.17161

>  <SCORE.INTRA.DIHEDRAL.0>
19.0336

>  <SCORE.INTRA.POLAR>
0

>  <SCORE.INTRA.POLAR.0>
0

>  <SCORE.INTRA.REPUL>
0

>  <SCORE.INTRA.REPUL.0>
0

>  <SCORE.INTRA.SOLV>
-3.31082

>  <SCORE.INTRA.SOLV.lig_0>
-97.5861

>  <SCORE.INTRA.VDW>
-18.0102

>  <SCORE.INTRA.VDW.0>
11.7669

>  <SCORE.INTRA.norm>
-0.543786

>  <SCORE.RESTR>
0

>  <SCORE.RESTR.CAVITY>
0

>  <SCORE.RESTR.norm>
0

>  <SCORE.SYSTEM>
0

>  <SCORE.SYSTEM.CONST>
0

>  <SCORE.SYSTEM.DIHEDRAL>
0

>  <SCORE.SYSTEM.SOLV>
0

>  <SCORE.SYSTEM.norm>
0

>  <SCORE.heavy>
40

>  <SCORE.norm>
-0.550607

>  <RMSD>
7.085

$$$$
1nta_lig
 OpenBabel11021811403D
libRbt.so/2013.1/901 2013/11/27
 40 42  0  0  0  0  0  0  0  0999 V2000
   -0.2404   33.4817   -6.5656 C   0  0  0  0  0  0  0  0  0  0  0  0
    0.5025   33.9021   -7.5203 N   0  0  0  0  0  0  0  0  0  0  0  0
    1.3929   38.7269    0.3974 C   0  0  0  0  0  0  0  0  0  0  0  0
    0.5889   39.0043   -0.4651 O   0  0  0  0  0  0  0  0  0  0  0  0
   -0.4737   38.0681   -3.2811 C   0  0  0  0  0  0  0  0  0  0  0  0
   -0.0909   38.6062   -4.4097 N   0  0  0  0  0  0  0  0  0  0  0  0
   -0.4099   37.9304    3.0764 C   0  0  0  0  0  0  0  0  0  0  0  0
    6.0053   37.9567    1.3953 C   0  0  0  0  0  0  0  0  0  0  0  0
   -0.1918   33.7252   -4.2121 C   0  0  2  0  0  0  0  0  0  0  0  0
    0.3986   33.1106   -5.4662 N   0  0  0  0  0  0  0  0  0  0  0  0
    0.5439   35.4029    0.7115 C   0  0  2  0  0  0  0  0  0  0  0  0
    3.8898   36.0962   -0.1218 C   0  0  1  0  0  0  0  0  0  0  0  0
    2.8673   35.7040    0.7257 O   0  0  0  0  0  0  0  0  0  0  0  0
    0.3072   35.1732   -4.0473 C   0  0  1  0  0  0  0  0  0  0  0  0
   -0.1722   35.9000   -5.1381 O   0  0  0  0  0  0  0  0  0  0  0  0
    1.7301   36.3320    0.4774 C   0  0  2  0  0  0  0  0  0  0  0  0
    5.2861   35.9727    0.4472 C   0  0  1  0  0  0  0  0  0  0  0  0
    5.3437   36.6927    1.6721 N   0  0  0  0  0  0  0  0  0  0  0  0
   -0.2413   35.8391   -2.7782 C   0  0  2  0  0  0  0  0  0  0  0  0
    0.2228   37.2338   -2.5850 N   0  0  0  0  0  0  0  0  0  0  0  0
    1.3326   37.5010    1.2688 C   0  0  1  0  0  0  0  0  0  0  0  0
    2.2284   37.5854    2.3790 O   0  0  0  0  0  0  0  0  0  0  0  0
    5.6117   34.6454    0.6890 C   0  0  2  0  0  0  0  0  0  0  0  0
    6.9954   34.5831    0.9266 O   0  0  0  0  0  0  0  0  0  0  0  0
    0.1869   35.0013   -1.5838 C   0  0  1  0  0  0  0  0  0  0  0  0
   -0.3258   35.6192   -0.4138 O   0  0  0  0  0  0  0  0  0  0  0  0
   -0.0250   37.2816    1.7830 C   0  0  1  0  0  0  0  0  0  0  0  0
   -0.1434   35.8659    1.8512 O   0  0  0  0  0  0  0  0  0  0  0  0
    5.2681   33.7953   -0.5059 C   0  0  1  0  0  0  0  0  0  0  0  0
    5.3785   32.4483   -0.1514 O   0  0  0  0  0  0  0  0  0  0  0  0
   -0.3530   33.5495   -1.7249 C   0  0  2  0  0  0  0  0  0  0  0  0
    0.0498   32.7828   -0.5912 O   0  0  0  0  0  0  0  0  0  0  0  0
    3.8605   34.0562   -0.9220 C   0  0  1  0  0  0  0  0  0  0  0  0
    3.7624   35.4049   -1.2779 O   0  0  0  0  0  0  0  0  0  0  0  0
    0.2284   32.9137   -3.0051 C   0  0  1  0  0  0  0  0  0  0  0  0
   -0.2585   31.5698   -3.1529 O   0  0  0  0  0  0  0  0  0  0  0  0
    3.4767   33.2177   -2.1573 C   0  0  0  0  0  0  0  0  0  0  0  0
    4.3331   33.5612   -3.2406 O   0  0  0  0  0  0  0  0  0  0  0  0
   -1.5243   33.4174   -6.6650 N   0  0  0  0  0  0  0  0  0  0  0  0
   -1.6049   38.3809   -2.7821 N   0  0  0  0  0  0  0  0  0  0  0  0
  1  2  1  0  0  0  0
  1 39  1  0  0  0  0
  3  4  1  0  0  0  0
  5  6  1  0  0  0  0
  5 40  1  0  0  0  0
  9 10  1  6  0  0  0
  9 14  1  0  0  0  0
  9 35  1  0  0  0  0
 10  1  1  0  0  0  0
 11 16  1  0  0  0  0
 11 28  1  0  0  0  0
 11 26  1  6  0  0  0
 12 17  1  0  0  0  0
 12 34  1  0  0  0  0
 12 13  1  1  0  0  0
 14 15  1  6  0  0  0
 14 19  1  0  0  0  0
 16 13  1  1  0  0  0
 16 21  1  0  0  0  0
 17 18  1  1  0  0  0
 17 23  1  0  0  0  0
 18  8  1  0  0  0  0
 19 20  1  1  0  0  0
 19 25  1  0  0  0  0
 20  5  1  0  0  0  0
 21  3  1  6  0  0  0
 21 22  1  0  0  0  0
 21 27  1  0  0  0  0
 23 24  1  6  0  0  0
 23 29  1  0  0  0  0
 25 26  1  1  0  0  0
 25 31  1  0  0  0  0
 27  7  1  1  0  0  0
 27 28  1  0  0  0  0
 29 30  1  1  0  0  0
 29 33  1  0  0  0  0
 31 32  1  1  0  0  0
 31 35  1  0  0  0  0
 33 34  1  0  0  0  0
 33 37  1  6  0  0  0
 35 36  1  6  0  0  0
 37 38  1  0  0  0  0
M  END
>  <CHROM.1>
-79.99690333,130.73313312,74.83276512,152.24225736,144.75920433,-101.67351550
81.76536627,-101.72704463,74.42065265,-148.51548517,-60.50943056,1.66988209
35.44419160,-1.38710811,-2.24144974,-0.51135916,0.89272227

>  <Name>
1nta_lig

>  <RI>
0

>  <Rbt.Current_Directory>
/home/itssahil/PROJECTS/Mol_Feturizer/New_Systems/rnas/1nta

>  <Rbt.Executable>
rbdock ($Id: //depot/dev/client3/rdock/2013.1/src/exe/rbdock.cxx#4 $)

>  <Rbt.Library>
libRbt.so (2013.1, Build901 2013/11/27)

>  <Rbt.Parameter_File>
/export/apps/rDock/src/rDock_2013.1_src/data/scripts/dock_solv.prm

>  <Rbt.Receptor>
prm/pocket_docking_3.prm

>  <SCORE>
-21.6949

>  <SCORE.INTER>
-1.08143

>  <SCORE.INTER.CONST>
1

>  <SCORE.INTER.POLAR>
0

>  <SCORE.INTER.ROT>
11

>  <SCORE.INTER.SOLV>
14.9881

>  <SCORE.INTER.VDW>
-16.6503

>  <SCORE.INTER.norm>
-0.0270358

>  <SCORE.INTRA>
-20.6359

>  <SCORE.INTRA.DIHEDRAL>
-3.11284

>  <SCORE.INTRA.DIHEDRAL.0>
19.0336

>  <SCORE.INTRA.POLAR>
0

>  <SCORE.INTRA.POLAR.0>
0

>  <SCORE.INTRA.REPUL>
0.0163977

>  <SCORE.INTRA.REPUL.0>
0

>  <SCORE.INTRA.SOLV>
-1.34217

>  <SCORE.INTRA.SOLV.lig_0>
-97.5861

>  <SCORE.INTRA.VDW>
-18.4904

>  <SCORE.INTRA.VDW.0>
11.7669

>  <SCORE.INTRA.norm>
-0.515898

>  <SCORE.RESTR>
0.0224235

>  <SCORE.RESTR.CAVITY>
0.0224235

>  <SCORE.RESTR.norm>
0.000560588

>  <SCORE.SYSTEM>
0

>  <SCORE.SYSTEM.CONST>
0

>  <SCORE.SYSTEM.DIHEDRAL>
0

>  <SCORE.SYSTEM.SOLV>
0

>  <SCORE.SYSTEM.norm>
0

>  <SCORE.heavy>
40

>  <SCORE.norm>
-0.542373

>  <RMSD>
7.094

$$$$
1nta_lig
 OpenBabel11021811403D
libRbt.so/2013.1/901 2013/11/27
 40 42  0  0  0  0  0  0  0  0999 V2000
    0.0880   31.2950   -6.5002 C   0  0  0  0  0  0  0  0  0  0  0  0
   -1.0010   30.6342   -6.3679 N   0  0  0  0  0  0  0  0  0  0  0  0
    1.6230   38.2497   -0.6723 C   0  0  0  0  0  0  0  0  0  0  0  0
    2.6844   38.5237   -1.1877 O   0  0  0  0  0  0  0  0  0  0  0  0
   -0.4646   36.8539   -4.1464 C   0  0  0  0  0  0  0  0  0  0  0  0
   -0.7218   36.9952   -5.4206 N   0  0  0  0  0  0  0  0  0  0  0  0
   -0.4894   37.9358    1.8773 C   0  0  0  0  0  0  0  0  0  0  0  0
    5.1189   37.3818    2.3622 C   0  0  0  0  0  0  0  0  0  0  0  0
    0.1804   32.3035   -4.3613 C   0  0  2  0  0  0  0  0  0  0  0  0
    0.8228   31.4096   -5.4040 N   0  0  0  0  0  0  0  0  0  0  0  0
    0.6202   35.0386    0.0702 C   0  0  2  0  0  0  0  0  0  0  0  0
    4.1090   35.9416   -0.0536 C   0  0  1  0  0  0  0  0  0  0  0  0
    2.9379   35.2924    0.2998 O   0  0  0  0  0  0  0  0  0  0  0  0
    0.6469   33.7591   -4.5525 C   0  0  1  0  0  0  0  0  0  0  0  0
    0.1902   34.1763   -5.8037 O   0  0  0  0  0  0  0  0  0  0  0  0
    1.8591   35.8937   -0.1731 C   0  0  2  0  0  0  0  0  0  0  0  0
    5.3011   35.6554    0.8328 C   0  0  1  0  0  0  0  0  0  0  0  0
    4.9487   35.9503    2.1785 N   0  0  0  0  0  0  0  0  0  0  0  0
    0.0448   34.7074   -3.5071 C   0  0  2  0  0  0  0  0  0  0  0  0
    0.4765   36.1177   -3.6583 N   0  0  0  0  0  0  0  0  0  0  0  0
    1.4221   37.1836    0.3711 C   0  0  1  0  0  0  0  0  0  0  0  0
    2.1943   37.4302    1.5480 O   0  0  0  0  0  0  0  0  0  0  0  0
    5.6789   34.3227    0.7475 C   0  0  2  0  0  0  0  0  0  0  0  0
    6.9436   34.1996    1.3478 O   0  0  0  0  0  0  0  0  0  0  0  0
    0.4490   34.2075   -2.1292 C   0  0  1  0  0  0  0  0  0  0  0  0
   -0.1131   35.0856   -1.1666 O   0  0  0  0  0  0  0  0  0  0  0  0
    0.0093   37.0775    0.7563 C   0  0  1  0  0  0  0  0  0  0  0  0
   -0.1691   35.6944    1.0359 O   0  0  0  0  0  0  0  0  0  0  0  0
    5.7625   33.8927   -0.6935 C   0  0  1  0  0  0  0  0  0  0  0  0
    5.9056   32.5037   -0.7451 O   0  0  0  0  0  0  0  0  0  0  0  0
   -0.0590   32.7533   -1.9152 C   0  0  2  0  0  0  0  0  0  0  0  0
    0.3205   32.3062   -0.6146 O   0  0  0  0  0  0  0  0  0  0  0  0
    4.5040   34.2605   -1.4030 C   0  0  1  0  0  0  0  0  0  0  0  0
    4.3728   35.6516   -1.3486 O   0  0  0  0  0  0  0  0  0  0  0  0
    0.5756   31.8320   -2.9780 C   0  0  1  0  0  0  0  0  0  0  0  0
    0.1188   30.4818   -2.7963 O   0  0  0  0  0  0  0  0  0  0  0  0
    4.5589   33.8539   -2.8889 C   0  0  0  0  0  0  0  0  0  0  0  0
    4.6079   32.4349   -2.9842 O   0  0  0  0  0  0  0  0  0  0  0  0
    0.4468   31.8197   -7.6219 N   0  0  0  0  0  0  0  0  0  0  0  0
   -1.1570   37.4918   -3.2862 N   0  0  0  0  0  0  0  0  0  0  0  0
  1  2  1  0  0  0  0
  1 39  1  0  0  0  0
  3  4  1  0  0  0  0
  5  6  1  0  0  0  0
  5 40  1  0  0  0  0
  9 10  1  6  0  0  0
  9 14  1  0  0  0  0
  9 35  1  0  0  0  0
 10  1  1  0  0  0  0
 11 16  1  0  0  0  0
 11 28  1  0  0  0  0
 11 26  1  6  0  0  0
 12 17  1  0  0  0  0
 12 34  1  0  0  0  0
 12 13  1  1  0  0  0
 14 15  1  6  0  0  0
 14 19  1  0  0  0  0
 16 13  1  1  0  0  0
 16 21  1  0  0  0  0
 17 18  1  1  0  0  0
 17 23  1  0  0  0  0
 18  8  1  0  0  0  0
 19 20  1  6  0  0  0
 19 25  1  0  0  0  0
 20  5  1  0  0  0  0
 21  3  1  6  0  0  0
 21 22  1  0  0  0  0
 21 27  1  0  0  0  0
 23 24  1  6  0  0  0
 23 29  1  0  0  0  0
 25 26  1  1  0  0  0
 25 31  1  0  0  0  0
 27  7  1  1  0  0  0
 27 28  1  0  0  0  0
 29 30  1  1  0  0  0
 29 33  1  0  0  0  0
 31 32  1  1  0  0  0
 31 35  1  0  0  0  0
 33 34  1  0  0  0  0
 33 37  1  6  0  0  0
 35 36  1  1  0  0  0
 37 38  1  0  0  0  0
M  END
>  <CHROM.1>
-90.97588069,-69.39943842,78.70628038,158.01666979,171.87961694,-82.74325420
105.82807835,-84.97871604,-58.38091961,-156.61034889,65.65030713,1.91431424
34.71702158,-1.73334908,-2.15759876,-0.50226007,0.73764252

>  <Name>
1nta_lig

>  <RI>
0

>  <Rbt.Current_Directory>
/home/itssahil/PROJECTS/Mol_Feturizer/New_Systems/rnas/1nta

>  <Rbt.Executable>
rbdock ($Id: //depot/dev/client3/rdock/2013.1/src/exe/rbdock.cxx#4 $)

>  <Rbt.Library>
libRbt.so (2013.1, Build901 2013/11/27)

>  <Rbt.Parameter_File>
/export/apps/rDock/src/rDock_2013.1_src/data/scripts/dock_solv.prm

>  <Rbt.Receptor>
prm/pocket_docking_8.prm

>  <SCORE>
-30.1629

>  <SCORE.INTER>
-6.93381

>  <SCORE.INTER.CONST>
1

>  <SCORE.INTER.POLAR>
-0.792753

>  <SCORE.INTER.ROT>
11

>  <SCORE.INTER.SOLV>
18.6924

>  <SCORE.INTER.VDW>
-19.1442

>  <SCORE.INTER.norm>
-0.173345

>  <SCORE.INTRA>
-23.2291

>  <SCORE.INTRA.DIHEDRAL>
-8.87207

>  <SCORE.INTRA.DIHEDRAL.0>
19.0336

>  <SCORE.INTRA.POLAR>
0

>  <SCORE.INTRA.POLAR.0>
0

>  <SCORE.INTRA.REPUL>
0

>  <SCORE.INTRA.REPUL.0>
0

>  <SCORE.INTRA.SOLV>
-3.05883

>  <SCORE.INTRA.SOLV.lig_0>
-97.5861

>  <SCORE.INTRA.VDW>
-17.2636

>  <SCORE.INTRA.VDW.0>
11.7669

>  <SCORE.INTRA.norm>
-0.580727

>  <SCORE.RESTR>
0

>  <SCORE.RESTR.CAVITY>
0

>  <SCORE.RESTR.norm>
0

>  <SCORE.SYSTEM>
0

>  <SCORE.SYSTEM.CONST>
0

>  <SCORE.SYSTEM.DIHEDRAL>
0

>  <SCORE.SYSTEM.SOLV>
0

>  <SCORE.SYSTEM.norm>
0

>  <SCORE.heavy>
40

>  <SCORE.norm>
-0.754073

>  <RMSD>
7.122

$$$$
1nta_lig
 OpenBabel11021811403D
libRbt.so/2013.1/901 2013/11/27
 40 42  0  0  0  0  0  0  0  0999 V2000
   -3.2490   37.9664   -4.5183 C   0  0  0  0  0  0  0  0  0  0  0  0
   -4.1208   38.0187   -3.5817 N   0  0  0  0  0  0  0  0  0  0  0  0
    1.3966   34.6763    1.5030 C   0  0  0  0  0  0  0  0  0  0  0  0
    1.5476   33.9872    2.4877 O   0  0  0  0  0  0  0  0  0  0  0  0
   -2.2024   33.0689   -1.0027 C   0  0  0  0  0  0  0  0  0  0  0  0
   -1.5675   31.9592   -1.2773 N   0  0  0  0  0  0  0  0  0  0  0  0
    3.9073   32.8199    0.3579 C   0  0  0  0  0  0  0  0  0  0  0  0
   -1.5408   37.5858   -0.2588 C   0  0  0  0  0  0  0  0  0  0  0  0
   -2.1639   35.8668   -4.6392 C   0  0  2  0  0  0  0  0  0  0  0  0
   -3.2010   36.8258   -5.1902 N   0  0  0  0  0  0  0  0  0  0  0  0
    2.1279   35.0268   -1.8452 C   0  0  2  0  0  0  0  0  0  0  0  0
    1.5324   37.9102   -1.3339 C   0  0  1  0  0  0  0  0  0  0  0  0
    2.3998   37.0456   -0.6878 O   0  0  0  0  0  0  0  0  0  0  0  0
   -2.4757   35.5393   -3.1666 C   0  0  1  0  0  0  0  0  0  0  0  0
   -3.7085   34.8854   -3.1429 O   0  0  0  0  0  0  0  0  0  0  0  0
    1.9056   35.8250   -0.5651 C   0  0  2  0  0  0  0  0  0  0  0  0
    0.5276   38.6060   -0.4422 C   0  0  1  0  0  0  0  0  0  0  0  0
   -0.1939   37.6204    0.2860 N   0  0  0  0  0  0  0  0  0  0  0  0
   -1.4422   34.5883   -2.5484 C   0  0  2  0  0  0  0  0  0  0  0  0
   -1.7089   34.2548   -1.1286 N   0  0  0  0  0  0  0  0  0  0  0  0
    2.4386   34.8994    0.4399 C   0  0  1  0  0  0  0  0  0  0  0  0
    3.6290   35.4875    0.9682 O   0  0  0  0  0  0  0  0  0  0  0  0
    1.1595   39.4561    0.4545 C   0  0  2  0  0  0  0  0  0  0  0  0
    0.1737   40.2741    1.0325 O   0  0  0  0  0  0  0  0  0  0  0  0
   -0.0743   35.2430   -2.6582 C   0  0  1  0  0  0  0  0  0  0  0  0
    0.8776   34.3581   -2.0885 O   0  0  0  0  0  0  0  0  0  0  0  0
    2.7978   33.6400   -0.2238 C   0  0  1  0  0  0  0  0  0  0  0  0
    3.0772   34.0241   -1.5645 O   0  0  0  0  0  0  0  0  0  0  0  0
    2.1697   40.3148   -0.2601 C   0  0  1  0  0  0  0  0  0  0  0  0
    2.9517   40.9799    0.6878 O   0  0  0  0  0  0  0  0  0  0  0  0
    0.2634   35.5347   -4.1480 C   0  0  2  0  0  0  0  0  0  0  0  0
    1.5533   36.1386   -4.2312 O   0  0  0  0  0  0  0  0  0  0  0  0
    3.0653   39.4569   -1.0873 C   0  0  1  0  0  0  0  0  0  0  0  0
    2.2736   38.7996   -2.0341 O   0  0  0  0  0  0  0  0  0  0  0  0
   -0.7915   36.4998   -4.7284 C   0  0  1  0  0  0  0  0  0  0  0  0
   -0.4960   36.7828   -6.1059 O   0  0  0  0  0  0  0  0  0  0  0  0
    4.1027   40.3029   -1.8517 C   0  0  0  0  0  0  0  0  0  0  0  0
    3.4240   41.2025   -2.7208 O   0  0  0  0  0  0  0  0  0  0  0  0
   -2.4651   38.9533   -4.7896 N   0  0  0  0  0  0  0  0  0  0  0  0
   -3.4111   33.0233   -0.5986 N   0  0  0  0  0  0  0  0  0  0  0  0
  1  2  1  0  0  0  0
  1 39  1  0  0  0  0
  3  4  1  0  0  0  0
  5  6  1  0  0  0  0
  5 40  1  0  0  0  0
  9 10  1  1  0  0  0
  9 14  1  0  0  0  0
  9 35  1  0  0  0  0
 10  1  1  0  0  0  0
 11 16  1  0  0  0  0
 11 28  1  0  0  0  0
 11 26  1  1  0  0  0
 12 17  1  0  0  0  0
 12 34  1  0  0  0  0
 12 13  1  1  0  0  0
 14 15  1  6  0  0  0
 14 19  1  0  0  0  0
 16 13  1  6  0  0  0
 16 21  1  0  0  0  0
 17 18  1  1  0  0  0
 17 23  1  0  0  0  0
 18  8  1  0  0  0  0
 19 20  1  1  0  0  0
 19 25  1  0  0  0  0
 20  5  1  0  0  0  0
 21  3  1  1  0  0  0
 21 22  1  0  0  0  0
 21 27  1  0  0  0  0
 23 24  1  6  0  0  0
 23 29  1  0  0  0  0
 25 26  1  6  0  0  0
 25 31  1  0  0  0  0
 27  7  1  1  0  0  0
 27 28  1  0  0  0  0
 29 30  1  1  0  0  0
 29 33  1  0  0  0  0
 31 32  1  1  0  0  0
 31 35  1  0  0  0  0
 33 34  1  0  0  0  0
 33 37  1  6  0  0  0
 35 36  1  6  0  0  0
 37 38  1  0  0  0  0
M  END
>  <CHROM.1>
59.38497764,-94.11220867,78.44028168,87.01466828,82.76597159,-108.63140830
103.75703013,66.04450217,-178.08176965,-165.45162968,-60.66577776,0.40949100
36.50737362,-1.63668796,2.89282056,0.65910046,2.80465206

>  <Name>
1nta_lig

>  <RI>
0

>  <Rbt.Current_Directory>
/home/itssahil/PROJECTS/Mol_Feturizer/New_Systems/rnas/1nta

>  <Rbt.Executable>
rbdock ($Id: //depot/dev/client3/rdock/2013.1/src/exe/rbdock.cxx#4 $)

>  <Rbt.Library>
libRbt.so (2013.1, Build901 2013/11/27)

>  <Rbt.Parameter_File>
/export/apps/rDock/src/rDock_2013.1_src/data/scripts/dock_solv.prm

>  <Rbt.Receptor>
prm/pocket_docking_6.prm

>  <SCORE>
-19.13

>  <SCORE.INTER>
2.11955

>  <SCORE.INTER.CONST>
1

>  <SCORE.INTER.POLAR>
-0.790031

>  <SCORE.INTER.ROT>
11

>  <SCORE.INTER.SOLV>
8.53911

>  <SCORE.INTER.VDW>
-9.73324

>  <SCORE.INTER.norm>
0.0529886

>  <SCORE.INTRA>
-21.2496

>  <SCORE.INTRA.DIHEDRAL>
-7.63064

>  <SCORE.INTRA.DIHEDRAL.0>
19.0336

>  <SCORE.INTRA.POLAR>
0

>  <SCORE.INTRA.POLAR.0>
0

>  <SCORE.INTRA.REPUL>
0

>  <SCORE.INTRA.REPUL.0>
0

>  <SCORE.INTRA.SOLV>
-1.13605

>  <SCORE.INTRA.SOLV.lig_0>
-97.5861

>  <SCORE.INTRA.VDW>
-16.8662

>  <SCORE.INTRA.VDW.0>
11.7669

>  <SCORE.INTRA.norm>
-0.53124

>  <SCORE.RESTR>
0

>  <SCORE.RESTR.CAVITY>
0

>  <SCORE.RESTR.norm>
0

>  <SCORE.SYSTEM>
0

>  <SCORE.SYSTEM.CONST>
0

>  <SCORE.SYSTEM.DIHEDRAL>
0

>  <SCORE.SYSTEM.SOLV>
0

>  <SCORE.SYSTEM.norm>
0

>  <SCORE.heavy>
40

>  <SCORE.norm>
-0.478251

>  <RMSD>
7.127

$$$$
1nta_lig
 OpenBabel11021811403D
libRbt.so/2013.1/901 2013/11/27
 40 42  0  0  0  0  0  0  0  0999 V2000
   -0.7921   41.2451    0.6285 C   0  0  0  0  0  0  0  0  0  0  0  0
   -0.0317   42.2287    0.3212 N   0  0  0  0  0  0  0  0  0  0  0  0
    0.0732   32.3759   -2.2908 C   0  0  0  0  0  0  0  0  0  0  0  0
    0.4643   31.9822   -1.2141 O   0  0  0  0  0  0  0  0  0  0  0  0
   -2.8622   35.3194   -0.9492 C   0  0  0  0  0  0  0  0  0  0  0  0
   -3.4915   35.0150   -2.0543 N   0  0  0  0  0  0  0  0  0  0  0  0
    0.0102   32.5053   -5.6136 C   0  0  0  0  0  0  0  0  0  0  0  0
    5.3659   33.7407   -3.5512 C   0  0  0  0  0  0  0  0  0  0  0  0
   -0.4728   39.1930   -0.5062 C   0  0  2  0  0  0  0  0  0  0  0  0
   -0.1959   40.0645    0.7032 N   0  0  0  0  0  0  0  0  0  0  0  0
    1.0585   35.3593   -3.7040 C   0  0  2  0  0  0  0  0  0  0  0  0
    3.1910   33.5593   -1.4199 C   0  0  1  0  0  0  0  0  0  0  0  0
    2.7843   34.3866   -2.4533 O   0  0  0  0  0  0  0  0  0  0  0  0
   -0.9027   37.7840   -0.0557 C   0  0  1  0  0  0  0  0  0  0  0  0
   -2.1013   37.9244    0.6454 O   0  0  0  0  0  0  0  0  0  0  0  0
    1.4878   34.2964   -2.6985 C   0  0  2  0  0  0  0  0  0  0  0  0
    4.6622   33.2071   -1.4129 C   0  0  1  0  0  0  0  0  0  0  0  0
    5.0009   32.6418   -2.6730 N   0  0  0  0  0  0  0  0  0  0  0  0
   -1.1741   36.8491   -1.2418 C   0  0  2  0  0  0  0  0  0  0  0  0
   -1.5861   35.4814   -0.8446 N   0  0  0  0  0  0  0  0  0  0  0  0
    0.9239   33.0877   -3.3084 C   0  0  1  0  0  0  0  0  0  0  0  0
    2.0206   32.2846   -3.7492 O   0  0  0  0  0  0  0  0  0  0  0  0
    5.4448   34.3331   -1.1992 C   0  0  2  0  0  0  0  0  0  0  0  0
    6.7492   33.8966   -0.9114 O   0  0  0  0  0  0  0  0  0  0  0  0
    0.0946   36.7651   -2.0755 C   0  0  1  0  0  0  0  0  0  0  0  0
   -0.1629   35.9025   -3.1725 O   0  0  0  0  0  0  0  0  0  0  0  0
    0.1327   33.4781   -4.4820 C   0  0  1  0  0  0  0  0  0  0  0  0
    0.7224   34.7016   -4.9041 O   0  0  0  0  0  0  0  0  0  0  0  0
    4.9127   35.1282   -0.0359 C   0  0  1  0  0  0  0  0  0  0  0  0
    5.5634   36.3641    0.0047 O   0  0  0  0  0  0  0  0  0  0  0  0
    0.5073   38.1808   -2.5697 C   0  0  2  0  0  0  0  0  0  0  0  0
    1.6923   38.0800   -3.3577 O   0  0  0  0  0  0  0  0  0  0  0  0
    3.4535   35.3731   -0.2181 C   0  0  1  0  0  0  0  0  0  0  0  0
    2.8122   34.1309   -0.2536 O   0  0  0  0  0  0  0  0  0  0  0  0
    0.7799   39.0852   -1.3495 C   0  0  1  0  0  0  0  0  0  0  0  0
    1.1640   40.3993   -1.7858 O   0  0  0  0  0  0  0  0  0  0  0  0
    2.8666   36.1686    0.9647 C   0  0  0  0  0  0  0  0  0  0  0  0
    1.4571   36.2780    0.8016 O   0  0  0  0  0  0  0  0  0  0  0  0
   -2.0546   41.3886    0.8464 N   0  0  0  0  0  0  0  0  0  0  0  0
   -3.5233   35.5018    0.1260 N   0  0  0  0  0  0  0  0  0  0  0  0
  1  2  1  0  0  0  0
  1 39  1  0  0  0  0
  3  4  1  0  0  0  0
  5  6  1  0  0  0  0
  5 40  1  0  0  0  0
  9 10  1  1  0  0  0
  9 14  1  0  0  0  0
  9 35  1  0  0  0  0
 10  1  1  0  0  0  0
 11 16  1  0  0  0  0
 11 28  1  0  0  0  0
 11 26  1  1  0  0  0
 12 17  1  0  0  0  0
 12 34  1  0  0  0  0
 12 13  1  6  0  0  0
 14 15  1  6  0  0  0
 14 19  1  0  0  0  0
 16 13  1  6  0  0  0
 16 21  1  0  0  0  0
 17 18  1  6  0  0  0
 17 23  1  0  0  0  0
 18  8  1  0  0  0  0
 19 20  1  1  0  0  0
 19 25  1  0  0  0  0
 20  5  1  0  0  0  0
 21  3  1  1  0  0  0
 21 22  1  0  0  0  0
 21 27  1  0  0  0  0
 23 24  1  1  0  0  0
 23 29  1  0  0  0  0
 25 26  1  6  0  0  0
 25 31  1  0  0  0  0
 27  7  1  6  0  0  0
 27 28  1  0  0  0  0
 29 30  1  6  0  0  0
 29 33  1  0  0  0  0
 31 32  1  6  0  0  0
 31 35  1  0  0  0  0
 33 34  1  0  0  0  0
 33 37  1  1  0  0  0
 35 36  1  6  0  0  0
 37 38  1  0  0  0  0
M  END
>  <CHROM.1>
-131.45645918,-103.37386885,75.17202390,158.02509933,172.14583511,88.16497203
101.19147601,83.24697297,-57.87110433,-157.70930139,-175.09591504,1.18834974
35.86806721,-1.53919629,-2.20428780,0.17696084,-2.65420527

>  <Name>
1nta_lig

>  <RI>
0

>  <Rbt.Current_Directory>
/home/itssahil/PROJECTS/Mol_Feturizer/New_Systems/rnas/1nta

>  <Rbt.Executable>
rbdock ($Id: //depot/dev/client3/rdock/2013.1/src/exe/rbdock.cxx#4 $)

>  <Rbt.Library>
libRbt.so (2013.1, Build901 2013/11/27)

>  <Rbt.Parameter_File>
/export/apps/rDock/src/rDock_2013.1_src/data/scripts/dock_solv.prm

>  <Rbt.Receptor>
prm/pocket_docking_3.prm

>  <SCORE>
-15.4092

>  <SCORE.INTER>
-4.80207

>  <SCORE.INTER.CONST>
1

>  <SCORE.INTER.POLAR>
-0.811027

>  <SCORE.INTER.ROT>
11

>  <SCORE.INTER.SOLV>
10.6356

>  <SCORE.INTER.VDW>
-14.9765

>  <SCORE.INTER.norm>
-0.120052

>  <SCORE.INTRA>
-10.6072

>  <SCORE.INTRA.DIHEDRAL>
-9.37817

>  <SCORE.INTRA.DIHEDRAL.0>
19.0336

>  <SCORE.INTRA.POLAR>
0

>  <SCORE.INTRA.POLAR.0>
0

>  <SCORE.INTRA.REPUL>
0

>  <SCORE.INTRA.REPUL.0>
0

>  <SCORE.INTRA.SOLV>
-2.77444

>  <SCORE.INTRA.SOLV.lig_0>
-97.5861

>  <SCORE.INTRA.VDW>
-4.53087

>  <SCORE.INTRA.VDW.0>
11.7669

>  <SCORE.INTRA.norm>
-0.265179

>  <SCORE.RESTR>
0

>  <SCORE.RESTR.CAVITY>
0

>  <SCORE.RESTR.norm>
0

>  <SCORE.SYSTEM>
0

>  <SCORE.SYSTEM.CONST>
0

>  <SCORE.SYSTEM.DIHEDRAL>
0

>  <SCORE.SYSTEM.SOLV>
0

>  <SCORE.SYSTEM.norm>
0

>  <SCORE.heavy>
40

>  <SCORE.norm>
-0.385231

>  <RMSD>
7.168

$$$$
1nta_lig
 OpenBabel11021811403D
libRbt.so/2013.1/901 2013/11/27
 40 42  0  0  0  0  0  0  0  0999 V2000
    1.3214   39.7112   -4.8284 C   0  0  0  0  0  0  0  0  0  0  0  0
    1.8328   40.7118   -4.2142 N   0  0  0  0  0  0  0  0  0  0  0  0
   -0.2286   32.5350    1.0569 C   0  0  0  0  0  0  0  0  0  0  0  0
   -0.0684   31.9890    2.1263 O   0  0  0  0  0  0  0  0  0  0  0  0
    1.1044   37.2568    1.3001 C   0  0  0  0  0  0  0  0  0  0  0  0
    0.1841   37.2196    2.2282 N   0  0  0  0  0  0  0  0  0  0  0  0
   -3.3019   33.0262    2.2295 C   0  0  0  0  0  0  0  0  0  0  0  0
   -2.2626   28.9878   -2.9651 C   0  0  0  0  0  0  0  0  0  0  0  0
    0.6214   38.1273   -3.2154 C   0  0  2  0  0  0  0  0  0  0  0  0
    1.5936   38.5232   -4.3095 N   0  0  0  0  0  0  0  0  0  0  0  0
   -2.2557   34.5816   -0.8326 C   0  0  2  0  0  0  0  0  0  0  0  0
   -0.7071   31.6320   -2.2199 C   0  0  1  0  0  0  0  0  0  0  0  0
   -1.5885   32.6835   -2.0331 O   0  0  0  0  0  0  0  0  0  0  0  0
    1.3850   37.5186   -2.0240 C   0  0  1  0  0  0  0  0  0  0  0  0
    2.2116   38.5193   -1.5109 O   0  0  0  0  0  0  0  0  0  0  0  0
   -1.3449   33.3621   -0.9243 C   0  0  2  0  0  0  0  0  0  0  0  0
   -0.9327   30.8121   -3.4711 C   0  0  1  0  0  0  0  0  0  0  0  0
   -2.2771   30.3486   -3.4752 N   0  0  0  0  0  0  0  0  0  0  0  0
    0.4465   37.0769   -0.8932 C   0  0  2  0  0  0  0  0  0  0  0  0
    1.1480   36.4813    0.2693 N   0  0  0  0  0  0  0  0  0  0  0  0
   -1.5611   32.7497    0.3906 C   0  0  1  0  0  0  0  0  0  0  0  0
   -2.2596   31.5217    0.1762 O   0  0  0  0  0  0  0  0  0  0  0  0
   -0.7144   31.5712   -4.6123 C   0  0  2  0  0  0  0  0  0  0  0  0
   -0.6494   30.6891   -5.7043 O   0  0  0  0  0  0  0  0  0  0  0  0
   -0.5296   36.0589   -1.4614 C   0  0  1  0  0  0  0  0  0  0  0  0
   -1.3969   35.6567   -0.4128 O   0  0  0  0  0  0  0  0  0  0  0  0
   -2.4165   33.6374    1.1882 C   0  0  1  0  0  0  0  0  0  0  0  0
   -3.1677   34.3561    0.2176 O   0  0  0  0  0  0  0  0  0  0  0  0
    0.5834   32.3271   -4.4987 C   0  0  1  0  0  0  0  0  0  0  0  0
    0.6597   33.2567   -5.5391 O   0  0  0  0  0  0  0  0  0  0  0  0
   -1.3344   36.6842   -2.6362 C   0  0  2  0  0  0  0  0  0  0  0  0
   -2.2509   35.7184   -3.1486 O   0  0  0  0  0  0  0  0  0  0  0  0
    0.6240   33.0673   -3.2053 C   0  0  1  0  0  0  0  0  0  0  0  0
    0.5509   32.1280   -2.1721 O   0  0  0  0  0  0  0  0  0  0  0  0
   -0.3573   37.1053   -3.7538 C   0  0  1  0  0  0  0  0  0  0  0  0
   -1.0827   37.6853   -4.8503 O   0  0  0  0  0  0  0  0  0  0  0  0
    1.9484   33.8391   -3.0426 C   0  0  0  0  0  0  0  0  0  0  0  0
    1.8521   35.0832   -3.7267 O   0  0  0  0  0  0  0  0  0  0  0  0
    0.5940   39.8458   -5.8844 N   0  0  0  0  0  0  0  0  0  0  0  0
    2.0361   38.1250    1.3668 N   0  0  0  0  0  0  0  0  0  0  0  0
  1  2  1  0  0  0  0
  1 39  1  0  0  0  0
  3  4  1  0  0  0  0
  5  6  1  0  0  0  0
  5 40  1  0  0  0  0
  9 10  1  6  0  0  0
  9 14  1  0  0  0  0
  9 35  1  0  0  0  0
 10  1  1  0  0  0  0
 11 16  1  0  0  0  0
 11 28  1  0  0  0  0
 11 26  1  1  0  0  0
 12 17  1  0  0  0  0
 12 34  1  0  0  0  0
 12 13  1  6  0  0  0
 14 15  1  1  0  0  0
 14 19  1  0  0  0  0
 16 13  1  6  0  0  0
 16 21  1  0  0  0  0
 17 18  1  6  0  0  0
 17 23  1  0  0  0  0
 18  8  1  0  0  0  0
 19 20  1  1  0  0  0
 19 25  1  0  0  0  0
 20  5  1  0  0  0  0
 21  3  1  1  0  0  0
 21 22  1  0  0  0  0
 21 27  1  0  0  0  0
 23 24  1  6  0  0  0
 23 29  1  0  0  0  0
 25 26  1  1  0  0  0
 25 31  1  0  0  0  0
 27  7  1  1  0  0  0
 27 28  1  0  0  0  0
 29 30  1  6  0  0  0
 29 33  1  0  0  0  0
 31 32  1  6  0  0  0
 31 35  1  0  0  0  0
 33 34  1  0  0  0  0
 33 37  1  1  0  0  0
 35 36  1  6  0  0  0
 37 38  1  0  0  0  0
M  END
>  <CHROM.1>
-136.32995812,86.42098877,72.14464405,179.89625889,174.70624724,-97.70021219
109.74337029,91.75961585,-176.31402967,-173.51422310,83.18815948,-0.31732891
34.76291875,-1.98010242,-0.26986046,-1.21797241,-2.06531906

>  <Name>
1nta_lig

>  <RI>
0

>  <Rbt.Current_Directory>
/home/itssahil/PROJECTS/Mol_Feturizer/New_Systems/rnas/1nta

>  <Rbt.Executable>
rbdock ($Id: //depot/dev/client3/rdock/2013.1/src/exe/rbdock.cxx#4 $)

>  <Rbt.Library>
libRbt.so (2013.1, Build901 2013/11/27)

>  <Rbt.Parameter_File>
/export/apps/rDock/src/rDock_2013.1_src/data/scripts/dock_solv.prm

>  <Rbt.Receptor>
prm/pocket_docking_7.prm

>  <SCORE>
-27.9674

>  <SCORE.INTER>
-4.04315

>  <SCORE.INTER.CONST>
1

>  <SCORE.INTER.POLAR>
-1.19805

>  <SCORE.INTER.ROT>
11

>  <SCORE.INTER.SOLV>
12.453

>  <SCORE.INTER.VDW>
-13.7863

>  <SCORE.INTER.norm>
-0.101079

>  <SCORE.INTRA>
-23.9243

>  <SCORE.INTRA.DIHEDRAL>
-11.8407

>  <SCORE.INTRA.DIHEDRAL.0>
19.0336

>  <SCORE.INTRA.POLAR>
0

>  <SCORE.INTRA.POLAR.0>
0

>  <SCORE.INTRA.REPUL>
0

>  <SCORE.INTRA.REPUL.0>
0

>  <SCORE.INTRA.SOLV>
-3.38145

>  <SCORE.INTRA.SOLV.lig_0>
-97.5861

>  <SCORE.INTRA.VDW>
-16.3132

>  <SCORE.INTRA.VDW.0>
11.7669

>  <SCORE.INTRA.norm>
-0.598107

>  <SCORE.RESTR>
0

>  <SCORE.RESTR.CAVITY>
0

>  <SCORE.RESTR.norm>
0

>  <SCORE.SYSTEM>
0

>  <SCORE.SYSTEM.CONST>
0

>  <SCORE.SYSTEM.DIHEDRAL>
0

>  <SCORE.SYSTEM.SOLV>
0

>  <SCORE.SYSTEM.norm>
0

>  <SCORE.heavy>
40

>  <SCORE.norm>
-0.699186

>  <RMSD>
7.198

$$$$
1nta_lig
 OpenBabel11021811403D
libRbt.so/2013.1/901 2013/11/27
 40 42  0  0  0  0  0  0  0  0999 V2000
   -2.0421   40.6640    0.3645 C   0  0  0  0  0  0  0  0  0  0  0  0
   -1.3589   41.7415    0.2544 N   0  0  0  0  0  0  0  0  0  0  0  0
    0.5017   32.0817   -2.3102 C   0  0  0  0  0  0  0  0  0  0  0  0
   -0.6302   32.2384   -1.9085 O   0  0  0  0  0  0  0  0  0  0  0  0
   -3.2298   34.4867   -1.8852 C   0  0  0  0  0  0  0  0  0  0  0  0
   -3.2990   34.4780   -3.1909 N   0  0  0  0  0  0  0  0  0  0  0  0
    0.4150   32.0573   -5.6348 C   0  0  0  0  0  0  0  0  0  0  0  0
    6.2059   33.1345   -2.5322 C   0  0  0  0  0  0  0  0  0  0  0  0
   -1.3993   38.6697   -0.7355 C   0  0  2  0  0  0  0  0  0  0  0  0
   -1.3357   39.5513    0.4965 N   0  0  0  0  0  0  0  0  0  0  0  0
    0.7756   35.1514   -3.8497 C   0  0  2  0  0  0  0  0  0  0  0  0
    3.3097   33.8915   -1.6073 C   0  0  1  0  0  0  0  0  0  0  0  0
    2.6774   34.6538   -2.5750 O   0  0  0  0  0  0  0  0  0  0  0  0
   -1.7894   37.2333   -0.3386 C   0  0  1  0  0  0  0  0  0  0  0  0
   -3.0739   37.2912    0.2044 O   0  0  0  0  0  0  0  0  0  0  0  0
    1.4368   34.2578   -2.8059 C   0  0  2  0  0  0  0  0  0  0  0  0
    4.7085   34.3378   -1.2428 C   0  0  1  0  0  0  0  0  0  0  0  0
    5.4913   34.3957   -2.4286 N   0  0  0  0  0  0  0  0  0  0  0  0
   -1.8464   36.2887   -1.5466 C   0  0  2  0  0  0  0  0  0  0  0  0
   -2.2148   34.8950   -1.2004 N   0  0  0  0  0  0  0  0  0  0  0  0
    1.1671   32.9279   -3.3623 C   0  0  1  0  0  0  0  0  0  0  0  0
    2.4198   32.3814   -3.7796 O   0  0  0  0  0  0  0  0  0  0  0  0
    4.6943   35.5928   -0.6505 C   0  0  2  0  0  0  0  0  0  0  0  0
    5.9602   35.8083   -0.0793 O   0  0  0  0  0  0  0  0  0  0  0  0
   -0.4794   36.2922   -2.2124 C   0  0  1  0  0  0  0  0  0  0  0  0
   -0.5387   35.4203   -3.3303 O   0  0  0  0  0  0  0  0  0  0  0  0
    0.3088   33.0775   -4.5441 C   0  0  1  0  0  0  0  0  0  0  0  0
    0.6015   34.3856   -5.0196 O   0  0  0  0  0  0  0  0  0  0  0  0
    3.6410   35.6534    0.4243 C   0  0  1  0  0  0  0  0  0  0  0  0
    3.4846   36.9806    0.8323 O   0  0  0  0  0  0  0  0  0  0  0  0
   -0.1013   37.7345   -2.6548 C   0  0  2  0  0  0  0  0  0  0  0  0
    1.1781   37.7155   -3.2858 O   0  0  0  0  0  0  0  0  0  0  0  0
    2.3382   35.1739   -0.1192 C   0  0  1  0  0  0  0  0  0  0  0  0
    2.5050   33.8449   -0.5206 O   0  0  0  0  0  0  0  0  0  0  0  0
   -0.0454   38.6485   -1.4128 C   0  0  1  0  0  0  0  0  0  0  0  0
    0.3039   39.9872   -1.8011 O   0  0  0  0  0  0  0  0  0  0  0  0
    1.2367   35.2020    0.9589 C   0  0  0  0  0  0  0  0  0  0  0  0
    1.6101   34.3448    2.0317 O   0  0  0  0  0  0  0  0  0  0  0  0
   -3.3312   40.6571    0.3438 N   0  0  0  0  0  0  0  0  0  0  0  0
   -4.2273   34.0918   -1.1956 N   0  0  0  0  0  0  0  0  0  0  0  0
  1  2  1  0  0  0  0
  1 39  1  0  0  0  0
  3  4  1  0  0  0  0
  5  6  1  0  0  0  0
  5 40  1  0  0  0  0
  9 10  1  1  0  0  0
  9 14  1  0  0  0  0
  9 35  1  0  0  0  0
 10  1  1  0  0  0  0
 11 16  1  0  0  0  0
 11 28  1  0  0  0  0
 11 26  1  1  0  0  0
 12 17  1  0  0  0  0
 12 34  1  0  0  0  0
 12 13  1  6  0  0  0
 14 15  1  6  0  0  0
 14 19  1  0  0  0  0
 16 13  1  6  0  0  0
 16 21  1  0  0  0  0
 17 18  1  6  0  0  0
 17 23  1  0  0  0  0
 18  8  1  0  0  0  0
 19 20  1  1  0  0  0
 19 25  1  0  0  0  0
 20  5  1  0  0  0  0
 21  3  1  1  0  0  0
 21 22  1  0  0  0  0
 21 27  1  0  0  0  0
 23 24  1  1  0  0  0
 23 29  1  0  0  0  0
 25 26  1  6  0  0  0
 25 31  1  0  0  0  0
 27  7  1  6  0  0  0
 27 28  1  0  0  0  0
 29 30  1  6  0  0  0
 29 33  1  0  0  0  0
 31 32  1  1  0  0  0
 31 35  1  0  0  0  0
 33 34  1  0  0  0  0
 33 37  1  1  0  0  0
 35 36  1  6  0  0  0
 37 38  1  0  0  0  0
M  END
>  <CHROM.1>
-128.67602213,-109.33728628,71.17522803,-176.91313486,178.48555860,-95.52096256
125.39978543,56.04147609,70.58769927,-168.04371813,-60.74283157,0.68922342
35.66197752,-1.60048594,-2.37498941,0.20661464,-2.58731131

>  <Name>
1nta_lig

>  <RI>
0

>  <Rbt.Current_Directory>
/home/itssahil/PROJECTS/Mol_Feturizer/New_Systems/rnas/1nta

>  <Rbt.Executable>
rbdock ($Id: //depot/dev/client3/rdock/2013.1/src/exe/rbdock.cxx#4 $)

>  <Rbt.Library>
libRbt.so (2013.1, Build901 2013/11/27)

>  <Rbt.Parameter_File>
/export/apps/rDock/src/rDock_2013.1_src/data/scripts/dock_solv.prm

>  <Rbt.Receptor>
prm/pocket_docking_7.prm

>  <SCORE>
-25.6457

>  <SCORE.INTER>
-2.12049

>  <SCORE.INTER.CONST>
1

>  <SCORE.INTER.POLAR>
-0.260778

>  <SCORE.INTER.ROT>
11

>  <SCORE.INTER.SOLV>
10.2349

>  <SCORE.INTER.VDW>
-14.8894

>  <SCORE.INTER.norm>
-0.0530123

>  <SCORE.INTRA>
-23.5252

>  <SCORE.INTRA.DIHEDRAL>
-12.8068

>  <SCORE.INTRA.DIHEDRAL.0>
19.0336

>  <SCORE.INTRA.POLAR>
0

>  <SCORE.INTRA.POLAR.0>
0

>  <SCORE.INTRA.REPUL>
0.0684014

>  <SCORE.INTRA.REPUL.0>
0

>  <SCORE.INTRA.SOLV>
-2.93725

>  <SCORE.INTRA.SOLV.lig_0>
-97.5861

>  <SCORE.INTRA.VDW>
-15.9952

>  <SCORE.INTRA.VDW.0>
11.7669

>  <SCORE.INTRA.norm>
-0.588129

>  <SCORE.RESTR>
0

>  <SCORE.RESTR.CAVITY>
0

>  <SCORE.RESTR.norm>
0

>  <SCORE.SYSTEM>
0

>  <SCORE.SYSTEM.CONST>
0

>  <SCORE.SYSTEM.DIHEDRAL>
0

>  <SCORE.SYSTEM.SOLV>
0

>  <SCORE.SYSTEM.norm>
0

>  <SCORE.heavy>
40

>  <SCORE.norm>
-0.641142

>  <RMSD>
7.208

$$$$
1nta_lig
 OpenBabel11021811403D
libRbt.so/2013.1/901 2013/11/27
 40 42  0  0  0  0  0  0  0  0999 V2000
   -2.0148   33.5049    5.5897 C   0  0  0  0  0  0  0  0  0  0  0  0
   -2.4876   34.4153    6.3563 N   0  0  0  0  0  0  0  0  0  0  0  0
    1.1631   34.9111   -3.3157 C   0  0  0  0  0  0  0  0  0  0  0  0
    0.0825   35.0319   -3.8495 O   0  0  0  0  0  0  0  0  0  0  0  0
    0.7288   37.1562    0.8600 C   0  0  0  0  0  0  0  0  0  0  0  0
    0.2199   38.1612    1.5239 N   0  0  0  0  0  0  0  0  0  0  0  0
    4.2930   33.8055   -3.1091 C   0  0  0  0  0  0  0  0  0  0  0  0
   -0.1423   30.8071   -5.8253 C   0  0  0  0  0  0  0  0  0  0  0  0
   -0.9428   33.7985    3.5004 C   0  0  2  0  0  0  0  0  0  0  0  0
   -2.2291   33.6814    4.2945 N   0  0  0  0  0  0  0  0  0  0  0  0
    1.8215   32.7156   -0.7438 C   0  0  2  0  0  0  0  0  0  0  0  0
   -0.8231   32.0839   -3.1074 C   0  0  1  0  0  0  0  0  0  0  0  0
    0.2137   31.8596   -2.2173 O   0  0  0  0  0  0  0  0  0  0  0  0
   -1.0814   34.8952    2.4275 C   0  0  1  0  0  0  0  0  0  0  0  0
   -1.2740   36.1042    3.0978 O   0  0  0  0  0  0  0  0  0  0  0  0
    0.8669   32.9667   -1.9061 C   0  0  2  0  0  0  0  0  0  0  0  0
   -1.3260   30.8584   -3.8382 C   0  0  1  0  0  0  0  0  0  0  0  0
   -0.2274   30.2355   -4.4919 N   0  0  0  0  0  0  0  0  0  0  0  0
    0.1864   35.0422    1.5756 C   0  0  2  0  0  0  0  0  0  0  0  0
    0.0867   36.0869    0.5283 N   0  0  0  0  0  0  0  0  0  0  0  0
    1.7647   33.6035   -2.8753 C   0  0  1  0  0  0  0  0  0  0  0  0
    1.9274   32.6923   -3.9640 O   0  0  0  0  0  0  0  0  0  0  0  0
   -1.8994   29.9517   -2.9577 C   0  0  2  0  0  0  0  0  0  0  0  0
   -2.5967   28.9998   -3.7211 O   0  0  0  0  0  0  0  0  0  0  0  0
    0.4694   33.7014    0.9167 C   0  0  1  0  0  0  0  0  0  0  0  0
    1.6442   33.8420    0.1333 O   0  0  0  0  0  0  0  0  0  0  0  0
    3.0730   33.8079   -2.2411 C   0  0  1  0  0  0  0  0  0  0  0  0
    3.1359   32.7941   -1.2455 O   0  0  0  0  0  0  0  0  0  0  0  0
   -2.8581   30.6540   -2.0325 C   0  0  1  0  0  0  0  0  0  0  0  0
   -3.2327   29.7741   -1.0137 O   0  0  0  0  0  0  0  0  0  0  0  0
    0.6543   32.5997    1.9987 C   0  0  2  0  0  0  0  0  0  0  0  0
    0.9289   31.3528    1.3621 O   0  0  0  0  0  0  0  0  0  0  0  0
   -2.1876   31.8316   -1.4111 C   0  0  1  0  0  0  0  0  0  0  0  0
   -1.8207   32.7066   -2.4383 O   0  0  0  0  0  0  0  0  0  0  0  0
   -0.6429   32.4770    2.8254 C   0  0  1  0  0  0  0  0  0  0  0  0
   -0.4923   31.4620    3.8313 O   0  0  0  0  0  0  0  0  0  0  0  0
   -3.1449   32.5901   -0.4706 C   0  0  0  0  0  0  0  0  0  0  0  0
   -2.4737   33.7254    0.0639 O   0  0  0  0  0  0  0  0  0  0  0  0
   -1.3767   32.4808    6.0439 N   0  0  0  0  0  0  0  0  0  0  0  0
    1.9424   37.2041    0.4708 N   0  0  0  0  0  0  0  0  0  0  0  0
  1  2  1  0  0  0  0
  1 39  1  0  0  0  0
  3  4  1  0  0  0  0
  5  6  1  0  0  0  0
  5 40  1  0  0  0  0
  9 10  1  6  0  0  0
  9 14  1  0  0  0  0
  9 35  1  0  0  0  0
 10  1  1  0  0  0  0
 11 16  1  0  0  0  0
 11 28  1  0  0  0  0
 11 26  1  1  0  0  0
 12 17  1  0  0  0  0
 12 34  1  0  0  0  0
 12 13  1  1  0  0  0
 14 15  1  1  0  0  0
 14 19  1  0  0  0  0
 16 13  1  6  0  0  0
 16 21  1  0  0  0  0
 17 18  1  1  0  0  0
 17 23  1  0  0  0  0
 18  8  1  0  0  0  0
 19 20  1  6  0  0  0
 19 25  1  0  0  0  0
 20  5  1  0  0  0  0
 21  3  1  6  0  0  0
 21 22  1  0  0  0  0
 21 27  1  0  0  0  0
 23 24  1  6  0  0  0
 23 29  1  0  0  0  0
 25 26  1  1  0  0  0
 25 31  1  0  0  0  0
 27  7  1  6  0  0  0
 27 28  1  0  0  0  0
 29 30  1  1  0  0  0
 29 33  1  0  0  0  0
 31 32  1  6  0  0  0
 31 35  1  0  0  0  0
 33 34  1  0  0  0  0
 33 37  1  1  0  0  0
 35 36  1  1  0  0  0
 37 38  1  0  0  0  0
M  END
>  <CHROM.1>
-139.40823320,119.16750743,78.82529221,161.52517718,169.68668461,-90.68147856
103.51734988,-89.81925964,-59.11282093,-167.60316102,-178.20667278,-0.25039870
33.13252942,-0.27464238,1.75676596,0.79590952,1.10121973

>  <Name>
1nta_lig

>  <RI>
0

>  <Rbt.Current_Directory>
/home/itssahil/PROJECTS/Mol_Feturizer/New_Systems/rnas/1nta

>  <Rbt.Executable>
rbdock ($Id: //depot/dev/client3/rdock/2013.1/src/exe/rbdock.cxx#4 $)

>  <Rbt.Library>
libRbt.so (2013.1, Build901 2013/11/27)

>  <Rbt.Parameter_File>
/export/apps/rDock/src/rDock_2013.1_src/data/scripts/dock_solv.prm

>  <Rbt.Receptor>
prm/pocket_docking_7.prm

>  <SCORE>
-33.5689

>  <SCORE.INTER>
-8.87536

>  <SCORE.INTER.CONST>
1

>  <SCORE.INTER.POLAR>
-0.892348

>  <SCORE.INTER.ROT>
11

>  <SCORE.INTER.SOLV>
15.1266

>  <SCORE.INTER.VDW>
-18.918

>  <SCORE.INTER.norm>
-0.221884

>  <SCORE.INTRA>
-24.6935

>  <SCORE.INTRA.DIHEDRAL>
-10.928

>  <SCORE.INTRA.DIHEDRAL.0>
19.0336

>  <SCORE.INTRA.POLAR>
0

>  <SCORE.INTRA.POLAR.0>
0

>  <SCORE.INTRA.REPUL>
0

>  <SCORE.INTRA.REPUL.0>
0

>  <SCORE.INTRA.SOLV>
-3.15237

>  <SCORE.INTRA.SOLV.lig_0>
-97.5861

>  <SCORE.INTRA.VDW>
-17.6533

>  <SCORE.INTRA.VDW.0>
11.7669

>  <SCORE.INTRA.norm>
-0.617338

>  <SCORE.RESTR>
0

>  <SCORE.RESTR.CAVITY>
0

>  <SCORE.RESTR.norm>
0

>  <SCORE.SYSTEM>
0

>  <SCORE.SYSTEM.CONST>
0

>  <SCORE.SYSTEM.DIHEDRAL>
0

>  <SCORE.SYSTEM.SOLV>
0

>  <SCORE.SYSTEM.norm>
0

>  <SCORE.heavy>
40

>  <SCORE.norm>
-0.839222

>  <RMSD>
7.212

$$$$
1nta_lig
 OpenBabel11021811403D
libRbt.so/2013.1/901 2013/11/27
 40 42  0  0  0  0  0  0  0  0999 V2000
   -1.4155   38.9319    3.2303 C   0  0  0  0  0  0  0  0  0  0  0  0
   -1.1842   38.0578    4.1372 N   0  0  0  0  0  0  0  0  0  0  0  0
   -0.3940   34.5849   -4.7855 C   0  0  0  0  0  0  0  0  0  0  0  0
    0.8060   34.6480   -4.6328 O   0  0  0  0  0  0  0  0  0  0  0  0
   -2.2649   33.8773   -0.5842 C   0  0  0  0  0  0  0  0  0  0  0  0
   -3.2618   33.4035   -1.2851 N   0  0  0  0  0  0  0  0  0  0  0  0
   -3.2498   34.6863   -6.4870 C   0  0  0  0  0  0  0  0  0  0  0  0
    1.8153   38.9224   -8.0396 C   0  0  0  0  0  0  0  0  0  0  0  0
   -1.6460   38.1695    1.0018 C   0  0  2  0  0  0  0  0  0  0  0  0
   -0.7666   38.7557    2.0890 N   0  0  0  0  0  0  0  0  0  0  0  0
   -2.5210   37.1818   -4.0108 C   0  0  2  0  0  0  0  0  0  0  0  0
    0.8802   37.7623   -5.0668 C   0  0  1  0  0  0  0  0  0  0  0  0
   -0.4689   37.9631   -4.8280 O   0  0  0  0  0  0  0  0  0  0  0  0
   -1.1162   36.7853    0.5819 C   0  0  1  0  0  0  0  0  0  0  0  0
   -1.2137   35.9519    1.6972 O   0  0  0  0  0  0  0  0  0  0  0  0
   -1.0773   36.8727   -4.3920 C   0  0  2  0  0  0  0  0  0  0  0  0
    1.5979   38.9137   -5.7363 C   0  0  1  0  0  0  0  0  0  0  0  0
    0.9159   39.2358   -6.9418 N   0  0  0  0  0  0  0  0  0  0  0  0
   -1.9565   36.1529   -0.5356 C   0  0  2  0  0  0  0  0  0  0  0  0
   -1.4718   34.8203   -0.9685 N   0  0  0  0  0  0  0  0  0  0  0  0
   -1.2606   35.7148   -5.2733 C   0  0  1  0  0  0  0  0  0  0  0  0
   -0.9106   36.1293   -6.5953 O   0  0  0  0  0  0  0  0  0  0  0  0
    1.6185   40.0338   -4.9172 C   0  0  2  0  0  0  0  0  0  0  0  0
    2.5384   40.9445   -5.4646 O   0  0  0  0  0  0  0  0  0  0  0  0
   -1.9451   37.0984   -1.7263 C   0  0  1  0  0  0  0  0  0  0  0  0
   -2.7261   36.5106   -2.7550 O   0  0  0  0  0  0  0  0  0  0  0  0
   -2.6794   35.3373   -5.2652 C   0  0  1  0  0  0  0  0  0  0  0  0
   -3.3567   36.5480   -4.9517 O   0  0  0  0  0  0  0  0  0  0  0  0
    2.0520   39.6572   -3.5248 C   0  0  1  0  0  0  0  0  0  0  0  0
    1.8338   40.7426   -2.6723 O   0  0  0  0  0  0  0  0  0  0  0  0
   -2.5209   38.4840   -1.3174 C   0  0  2  0  0  0  0  0  0  0  0  0
   -2.5116   39.3528   -2.4489 O   0  0  0  0  0  0  0  0  0  0  0  0
    1.2378   38.5076   -3.0371 C   0  0  1  0  0  0  0  0  0  0  0  0
    1.4665   37.4269   -3.8945 O   0  0  0  0  0  0  0  0  0  0  0  0
   -1.6441   39.0889   -0.2009 C   0  0  1  0  0  0  0  0  0  0  0  0
   -2.1600   40.3717    0.1906 O   0  0  0  0  0  0  0  0  0  0  0  0
    1.6661   38.0787   -1.6197 C   0  0  0  0  0  0  0  0  0  0  0  0
    1.4365   39.1537   -0.7161 O   0  0  0  0  0  0  0  0  0  0  0  0
   -2.2213   39.9217    3.4130 N   0  0  0  0  0  0  0  0  0  0  0  0
   -2.0367   33.4174    0.5832 N   0  0  0  0  0  0  0  0  0  0  0  0
  1  2  1  0  0  0  0
  1 39  1  0  0  0  0
  3  4  1  0  0  0  0
  5  6  1  0  0  0  0
  5 40  1  0  0  0  0
  9 10  1  1  0  0  0
  9 14  1  0  0  0  0
  9 35  1  0  0  0  0
 10  1  1  0  0  0  0
 11 16  1  0  0  0  0
 11 28  1  0  0  0  0
 11 26  1  1  0  0  0
 12 17  1  0  0  0  0
 12 34  1  0  0  0  0
 12 13  1  1  0  0  0
 14 15  1  1  0  0  0
 14 19  1  0  0  0  0
 16 13  1  6  0  0  0
 16 21  1  0  0  0  0
 17 18  1  6  0  0  0
 17 23  1  0  0  0  0
 18  8  1  0  0  0  0
 19 20  1  6  0  0  0
 19 25  1  0  0  0  0
 20  5  1  0  0  0  0
 21  3  1  1  0  0  0
 21 22  1  0  0  0  0
 21 27  1  0  0  0  0
 23 24  1  6  0  0  0
 23 29  1  0  0  0  0
 25 26  1  6  0  0  0
 25 31  1  0  0  0  0
 27  7  1  6  0  0  0
 27 28  1  0  0  0  0
 29 30  1  1  0  0  0
 29 33  1  0  0  0  0
 31 32  1  6  0  0  0
 31 35  1  0  0  0  0
 33 34  1  0  0  0  0
 33 37  1  1  0  0  0
 35 36  1  1  0  0  0
 37 38  1  0  0  0  0
M  END
>  <CHROM.1>
-116.78987826,102.67398177,67.18872675,172.36654027,174.24118817,-114.08107773
108.62994381,91.61233409,-56.57121201,-166.78821308,62.49515483,-0.73533891
37.47440898,-2.48471795,-2.03214614,-0.94277957,-1.92921133

>  <Name>
1nta_lig

>  <RI>
0

>  <Rbt.Current_Directory>
/home/itssahil/PROJECTS/Mol_Feturizer/New_Systems/rnas/1nta

>  <Rbt.Executable>
rbdock ($Id: //depot/dev/client3/rdock/2013.1/src/exe/rbdock.cxx#4 $)

>  <Rbt.Library>
libRbt.so (2013.1, Build901 2013/11/27)

>  <Rbt.Parameter_File>
/export/apps/rDock/src/rDock_2013.1_src/data/scripts/dock_solv.prm

>  <Rbt.Receptor>
prm/pocket_docking_5.prm

>  <SCORE>
-20.9961

>  <SCORE.INTER>
4.21694

>  <SCORE.INTER.CONST>
1

>  <SCORE.INTER.POLAR>
-0.15836

>  <SCORE.INTER.ROT>
11

>  <SCORE.INTER.SOLV>
5.86455

>  <SCORE.INTER.VDW>
-9.54903

>  <SCORE.INTER.norm>
0.105423

>  <SCORE.INTRA>
-25.2131

>  <SCORE.INTRA.DIHEDRAL>
-12.7049

>  <SCORE.INTRA.DIHEDRAL.0>
19.0336

>  <SCORE.INTRA.POLAR>
0

>  <SCORE.INTRA.POLAR.0>
0

>  <SCORE.INTRA.REPUL>
0.00885732

>  <SCORE.INTRA.REPUL.0>
0

>  <SCORE.INTRA.SOLV>
-3.15471

>  <SCORE.INTRA.SOLV.lig_0>
-97.5861

>  <SCORE.INTRA.VDW>
-17.3275

>  <SCORE.INTRA.VDW.0>
11.7669

>  <SCORE.INTRA.norm>
-0.630327

>  <SCORE.RESTR>
0

>  <SCORE.RESTR.CAVITY>
0

>  <SCORE.RESTR.norm>
0

>  <SCORE.SYSTEM>
0

>  <SCORE.SYSTEM.CONST>
0

>  <SCORE.SYSTEM.DIHEDRAL>
0

>  <SCORE.SYSTEM.SOLV>
0

>  <SCORE.SYSTEM.norm>
0

>  <SCORE.heavy>
40

>  <SCORE.norm>
-0.524903

>  <RMSD>
7.220

$$$$
1nta_lig
 OpenBabel11021811403D
libRbt.so/2013.1/901 2013/11/27
 40 42  0  0  0  0  0  0  0  0999 V2000
   -1.1223   30.7599   -7.6170 C   0  0  0  0  0  0  0  0  0  0  0  0
   -1.6275   29.9140   -6.7989 N   0  0  0  0  0  0  0  0  0  0  0  0
    1.9536   39.7603   -4.5021 C   0  0  0  0  0  0  0  0  0  0  0  0
    3.0130   40.3475   -4.5128 O   0  0  0  0  0  0  0  0  0  0  0  0
    0.7698   34.5058   -3.3493 C   0  0  0  0  0  0  0  0  0  0  0  0
    0.8222   33.4538   -2.5745 N   0  0  0  0  0  0  0  0  0  0  0  0
    2.1688   39.9623   -7.8148 C   0  0  0  0  0  0  0  0  0  0  0  0
   -1.7875   43.6455   -4.6078 C   0  0  0  0  0  0  0  0  0  0  0  0
   -0.9247   33.1046   -7.3641 C   0  0  2  0  0  0  0  0  0  0  0  0
   -1.7775   31.9056   -7.7304 N   0  0  0  0  0  0  0  0  0  0  0  0
   -0.5279   38.1593   -6.2761 C   0  0  2  0  0  0  0  0  0  0  0  0
   -1.2835   40.6711   -3.7984 C   0  0  1  0  0  0  0  0  0  0  0  0
   -1.4005   39.8464   -4.9046 O   0  0  0  0  0  0  0  0  0  0  0  0
   -1.0284   33.3858   -5.8531 C   0  0  1  0  0  0  0  0  0  0  0  0
   -0.5009   32.2760   -5.1912 O   0  0  0  0  0  0  0  0  0  0  0  0
   -0.2996   39.1532   -5.1424 C   0  0  2  0  0  0  0  0  0  0  0  0
   -2.4137   41.6577   -3.6034 C   0  0  1  0  0  0  0  0  0  0  0  0
   -2.5569   42.4263   -4.7912 N   0  0  0  0  0  0  0  0  0  0  0  0
   -0.2015   34.6067   -5.4282 C   0  0  2  0  0  0  0  0  0  0  0  0
   -0.2818   34.9098   -3.9792 N   0  0  0  0  0  0  0  0  0  0  0  0
    0.9231   39.8232   -5.5974 C   0  0  1  0  0  0  0  0  0  0  0  0
    0.5709   41.1680   -5.9283 O   0  0  0  0  0  0  0  0  0  0  0  0
   -3.6095   41.0029   -3.3436 C   0  0  2  0  0  0  0  0  0  0  0  0
   -4.5294   41.9619   -2.8865 O   0  0  0  0  0  0  0  0  0  0  0  0
   -0.6964   35.8086   -6.2170 C   0  0  1  0  0  0  0  0  0  0  0  0
    0.0736   36.9335   -5.8230 O   0  0  0  0  0  0  0  0  0  0  0  0
    1.4006   39.1553   -6.8145 C   0  0  1  0  0  0  0  0  0  0  0  0
    0.2242   38.5954   -7.3850 O   0  0  0  0  0  0  0  0  0  0  0  0
   -3.4117   39.9510   -2.2839 C   0  0  1  0  0  0  0  0  0  0  0  0
   -4.5575   39.1542   -2.2158 O   0  0  0  0  0  0  0  0  0  0  0  0
   -0.5518   35.5460   -7.7431 C   0  0  2  0  0  0  0  0  0  0  0  0
   -1.0109   36.6876   -8.4651 O   0  0  0  0  0  0  0  0  0  0  0  0
   -2.2570   39.0807   -2.6470 C   0  0  1  0  0  0  0  0  0  0  0  0
   -1.1161   39.8869   -2.7086 O   0  0  0  0  0  0  0  0  0  0  0  0
   -1.4039   34.3192   -8.1303 C   0  0  1  0  0  0  0  0  0  0  0  0
   -1.2843   34.0605   -9.5387 O   0  0  0  0  0  0  0  0  0  0  0  0
   -2.0095   38.0015   -1.5744 C   0  0  0  0  0  0  0  0  0  0  0  0
   -1.7419   38.6335   -0.3278 O   0  0  0  0  0  0  0  0  0  0  0  0
   -0.0508   30.5154   -8.2910 N   0  0  0  0  0  0  0  0  0  0  0  0
    1.8080   35.2299   -3.5047 N   0  0  0  0  0  0  0  0  0  0  0  0
  1  2  1  0  0  0  0
  1 39  1  0  0  0  0
  3  4  1  0  0  0  0
  5  6  1  0  0  0  0
  5 40  1  0  0  0  0
  9 10  1  1  0  0  0
  9 14  1  0  0  0  0
  9 35  1  0  0  0  0
 10  1  1  0  0  0  0
 11 16  1  0  0  0  0
 11 28  1  0  0  0  0
 11 26  1  1  0  0  0
 12 17  1  0  0  0  0
 12 34  1  0  0  0  0
 12 13  1  6  0  0  0
 14 15  1  1  0  0  0
 14 19  1  0  0  0  0
 16 13  1  6  0  0  0
 16 21  1  0  0  0  0
 17 18  1  6  0  0  0
 17 23  1  0  0  0  0
 18  8  1  0  0  0  0
 19 20  1  1  0  0  0
 19 25  1  0  0  0  0
 20  5  1  0  0  0  0
 21  3  1  1  0  0  0
 21 22  1  0  0  0  0
 21 27  1  0  0  0  0
 23 24  1  1  0  0  0
 23 29  1  0  0  0  0
 25 26  1  1  0  0  0
 25 31  1  0  0  0  0
 27  7  1  6  0  0  0
 27 28  1  0  0  0  0
 29 30  1  6  0  0  0
 29 33  1  0  0  0  0
 31 32  1  6  0  0  0
 31 35  1  0  0  0  0
 33 34  1  0  0  0  0
 33 37  1  1  0  0  0
 35 36  1  6  0  0  0
 37 38  1  0  0  0  0
M  END
>  <CHROM.1>
-88.34279325,120.60473297,142.12076528,170.25728201,174.12024186,-94.65349685
101.95542324,-105.30288517,-171.50486966,-166.30205702,-59.49831492,-0.80930397
37.30966421,-5.17099889,1.35352470,-1.01321499,-2.95766086

>  <Name>
1nta_lig

>  <RI>
0

>  <Rbt.Current_Directory>
/home/itssahil/PROJECTS/Mol_Feturizer/New_Systems/rnas/1nta

>  <Rbt.Executable>
rbdock ($Id: //depot/dev/client3/rdock/2013.1/src/exe/rbdock.cxx#4 $)

>  <Rbt.Library>
libRbt.so (2013.1, Build901 2013/11/27)

>  <Rbt.Parameter_File>
/export/apps/rDock/src/rDock_2013.1_src/data/scripts/dock_solv.prm

>  <Rbt.Receptor>
prm/pocket_docking_8.prm

>  <SCORE>
-20.3511

>  <SCORE.INTER>
1.83283

>  <SCORE.INTER.CONST>
1

>  <SCORE.INTER.POLAR>
-0.820749

>  <SCORE.INTER.ROT>
11

>  <SCORE.INTER.SOLV>
11.6408

>  <SCORE.INTER.VDW>
-10.8559

>  <SCORE.INTER.norm>
0.0458208

>  <SCORE.INTRA>
-22.1839

>  <SCORE.INTRA.DIHEDRAL>
-9.07731

>  <SCORE.INTRA.DIHEDRAL.0>
19.0336

>  <SCORE.INTRA.POLAR>
0

>  <SCORE.INTRA.POLAR.0>
0

>  <SCORE.INTRA.REPUL>
0

>  <SCORE.INTRA.REPUL.0>
0

>  <SCORE.INTRA.SOLV>
-4.73577

>  <SCORE.INTRA.SOLV.lig_0>
-97.5861

>  <SCORE.INTRA.VDW>
-15.2774

>  <SCORE.INTRA.VDW.0>
11.7669

>  <SCORE.INTRA.norm>
-0.554598

>  <SCORE.RESTR>
0

>  <SCORE.RESTR.CAVITY>
0

>  <SCORE.RESTR.norm>
0

>  <SCORE.SYSTEM>
0

>  <SCORE.SYSTEM.CONST>
0

>  <SCORE.SYSTEM.DIHEDRAL>
0

>  <SCORE.SYSTEM.SOLV>
0

>  <SCORE.SYSTEM.norm>
0

>  <SCORE.heavy>
40

>  <SCORE.norm>
-0.508777

>  <RMSD>
7.239

$$$$
1nta_lig
 OpenBabel11021811403D
libRbt.so/2013.1/901 2013/11/27
 40 42  0  0  0  0  0  0  0  0999 V2000
   -1.0865   31.7649   -7.4577 C   0  0  0  0  0  0  0  0  0  0  0  0
   -1.6616   30.6456   -7.2202 N   0  0  0  0  0  0  0  0  0  0  0  0
   -0.1351   35.5529    1.7521 C   0  0  0  0  0  0  0  0  0  0  0  0
   -0.9746   35.5505    2.6253 O   0  0  0  0  0  0  0  0  0  0  0  0
   -0.3228   36.7872   -3.6198 C   0  0  0  0  0  0  0  0  0  0  0  0
   -0.8594   37.2401   -2.5168 N   0  0  0  0  0  0  0  0  0  0  0  0
   -0.4051   32.2521    2.0569 C   0  0  0  0  0  0  0  0  0  0  0  0
    4.1507   38.7769    0.1334 C   0  0  0  0  0  0  0  0  0  0  0  0
   -0.2436   32.5265   -5.3817 C   0  0  2  0  0  0  0  0  0  0  0  0
    0.0256   31.9914   -6.7746 N   0  0  0  0  0  0  0  0  0  0  0  0
    1.5309   33.6779   -0.6095 C   0  0  2  0  0  0  0  0  0  0  0  0
    3.6738   35.6096   -0.4134 C   0  0  1  0  0  0  0  0  0  0  0  0
    3.0073   35.0024    0.6376 O   0  0  0  0  0  0  0  0  0  0  0  0
    0.3171   33.9549   -5.2462 C   0  0  1  0  0  0  0  0  0  0  0  0
   -0.3820   34.7584   -6.1483 O   0  0  0  0  0  0  0  0  0  0  0  0
    1.7221   34.8163    0.3868 C   0  0  2  0  0  0  0  0  0  0  0  0
    4.7843   36.5567   -0.0154 C   0  0  1  0  0  0  0  0  0  0  0  0
    4.2545   37.5311    0.8746 N   0  0  0  0  0  0  0  0  0  0  0  0
    0.0933   34.5397   -3.8452 C   0  0  2  0  0  0  0  0  0  0  0  0
    0.6252   35.9133   -3.6774 N   0  0  0  0  0  0  0  0  0  0  0  0
    0.8019   34.4129    1.4552 C   0  0  1  0  0  0  0  0  0  0  0  0
    1.5975   34.0611    2.5889 O   0  0  0  0  0  0  0  0  0  0  0  0
    5.8152   35.8791    0.6203 C   0  0  2  0  0  0  0  0  0  0  0  0
    6.9169   36.7489    0.6902 O   0  0  0  0  0  0  0  0  0  0  0  0
    0.7636   33.6190   -2.8377 C   0  0  1  0  0  0  0  0  0  0  0  0
    0.5505   34.1623   -1.5442 O   0  0  0  0  0  0  0  0  0  0  0  0
    0.0654   33.2209    1.0167 C   0  0  1  0  0  0  0  0  0  0  0  0
    0.9381   32.6014    0.0799 O   0  0  0  0  0  0  0  0  0  0  0  0
    6.1948   34.6491   -0.1617 C   0  0  1  0  0  0  0  0  0  0  0  0
    7.0550   33.8664    0.6127 O   0  0  0  0  0  0  0  0  0  0  0  0
    0.1685   32.1858   -2.9409 C   0  0  2  0  0  0  0  0  0  0  0  0
    0.8019   31.3405   -1.9820 O   0  0  0  0  0  0  0  0  0  0  0  0
    4.9748   33.8468   -0.4625 C   0  0  1  0  0  0  0  0  0  0  0  0
    4.1234   34.6376   -1.2402 O   0  0  0  0  0  0  0  0  0  0  0  0
    0.4224   31.6313   -4.3584 C   0  0  1  0  0  0  0  0  0  0  0  0
   -0.1200   30.3057   -4.4737 O   0  0  0  0  0  0  0  0  0  0  0  0
    5.3202   32.5870   -1.2810 C   0  0  0  0  0  0  0  0  0  0  0  0
    6.0365   31.6749   -0.4563 O   0  0  0  0  0  0  0  0  0  0  0  0
   -1.5572   32.6193   -8.3007 N   0  0  0  0  0  0  0  0  0  0  0  0
   -0.7543   37.1961   -4.7481 N   0  0  0  0  0  0  0  0  0  0  0  0
  1  2  1  0  0  0  0
  1 39  1  0  0  0  0
  3  4  1  0  0  0  0
  5  6  1  0  0  0  0
  5 40  1  0  0  0  0
  9 10  1  6  0  0  0
  9 14  1  0  0  0  0
  9 35  1  0  0  0  0
 10  1  1  0  0  0  0
 11 16  1  0  0  0  0
 11 28  1  0  0  0  0
 11 26  1  6  0  0  0
 12 17  1  0  0  0  0
 12 34  1  0  0  0  0
 12 13  1  1  0  0  0
 14 15  1  6  0  0  0
 14 19  1  0  0  0  0
 16 13  1  1  0  0  0
 16 21  1  0  0  0  0
 17 18  1  1  0  0  0
 17 23  1  0  0  0  0
 18  8  1  0  0  0  0
 19 20  1  6  0  0  0
 19 25  1  0  0  0  0
 20  5  1  0  0  0  0
 21  3  1  1  0  0  0
 21 22  1  0  0  0  0
 21 27  1  0  0  0  0
 23 24  1  6  0  0  0
 23 29  1  0  0  0  0
 25 26  1  1  0  0  0
 25 31  1  0  0  0  0
 27  7  1  1  0  0  0
 27 28  1  0  0  0  0
 29 30  1  1  0  0  0
 29 33  1  0  0  0  0
 31 32  1  1  0  0  0
 31 35  1  0  0  0  0
 33 34  1  0  0  0  0
 33 37  1  6  0  0  0
 35 36  1  1  0  0  0
 37 38  1  0  0  0  0
M  END
>  <CHROM.1>
-115.80233252,-82.57911435,148.64035986,145.38348314,73.63998581,-106.40671032
107.58180950,94.33955353,-176.64391756,-158.20732247,69.82622396,1.73866175
34.15525000,-1.74843618,-2.18846149,-0.11355325,1.11603176

>  <Name>
1nta_lig

>  <RI>
0

>  <Rbt.Current_Directory>
/home/itssahil/PROJECTS/Mol_Feturizer/New_Systems/rnas/1nta

>  <Rbt.Executable>
rbdock ($Id: //depot/dev/client3/rdock/2013.1/src/exe/rbdock.cxx#4 $)

>  <Rbt.Library>
libRbt.so (2013.1, Build901 2013/11/27)

>  <Rbt.Parameter_File>
/export/apps/rDock/src/rDock_2013.1_src/data/scripts/dock_solv.prm

>  <Rbt.Receptor>
prm/pocket_docking_5.prm

>  <SCORE>
-26.7616

>  <SCORE.INTER>
-6.6101

>  <SCORE.INTER.CONST>
1

>  <SCORE.INTER.POLAR>
0

>  <SCORE.INTER.ROT>
11

>  <SCORE.INTER.SOLV>
14.5984

>  <SCORE.INTER.VDW>
-20.2062

>  <SCORE.INTER.norm>
-0.165252

>  <SCORE.INTRA>
-20.166

>  <SCORE.INTRA.DIHEDRAL>
-2.81419

>  <SCORE.INTRA.DIHEDRAL.0>
19.0336

>  <SCORE.INTRA.POLAR>
0

>  <SCORE.INTRA.POLAR.0>
0

>  <SCORE.INTRA.REPUL>
0

>  <SCORE.INTRA.REPUL.0>
0

>  <SCORE.INTRA.SOLV>
-5.3741

>  <SCORE.INTRA.SOLV.lig_0>
-97.5861

>  <SCORE.INTRA.VDW>
-16.0719

>  <SCORE.INTRA.VDW.0>
11.7669

>  <SCORE.INTRA.norm>
-0.504151

>  <SCORE.RESTR>
0.0145419

>  <SCORE.RESTR.CAVITY>
0.0145419

>  <SCORE.RESTR.norm>
0.000363549

>  <SCORE.SYSTEM>
0

>  <SCORE.SYSTEM.CONST>
0

>  <SCORE.SYSTEM.DIHEDRAL>
0

>  <SCORE.SYSTEM.SOLV>
0

>  <SCORE.SYSTEM.norm>
0

>  <SCORE.heavy>
40

>  <SCORE.norm>
-0.66904

>  <RMSD>
7.273

$$$$
1nta_lig
 OpenBabel11021811403D
libRbt.so/2013.1/901 2013/11/27
 40 42  0  0  0  0  0  0  0  0999 V2000
   -0.3235   34.6712   -5.4629 C   0  0  0  0  0  0  0  0  0  0  0  0
   -0.9631   35.1663   -6.4558 N   0  0  0  0  0  0  0  0  0  0  0  0
   -0.5059   41.9317    0.7386 C   0  0  0  0  0  0  0  0  0  0  0  0
    0.1654   42.7616    0.1660 O   0  0  0  0  0  0  0  0  0  0  0  0
   -2.2227   40.1292   -2.5824 C   0  0  0  0  0  0  0  0  0  0  0  0
   -3.2206   39.8283   -1.7928 N   0  0  0  0  0  0  0  0  0  0  0  0
   -1.5688   40.4434    3.5165 C   0  0  0  0  0  0  0  0  0  0  0  0
    4.4835   41.5491   -1.9246 C   0  0  0  0  0  0  0  0  0  0  0  0
   -0.2242   36.0765   -3.5614 C   0  0  2  0  0  0  0  0  0  0  0  0
    0.4486   35.5199   -4.8010 N   0  0  0  0  0  0  0  0  0  0  0  0
    0.2151   38.5750    1.0230 C   0  0  2  0  0  0  0  0  0  0  0  0
    2.8014   39.3100   -0.2165 C   0  0  1  0  0  0  0  0  0  0  0  0
    2.1648   39.8661    0.8803 O   0  0  0  0  0  0  0  0  0  0  0  0
   -0.2858   37.6138   -3.6380 C   0  0  1  0  0  0  0  0  0  0  0  0
   -1.0867   37.9391   -4.7337 O   0  0  0  0  0  0  0  0  0  0  0  0
    0.8523   39.9290    0.7303 C   0  0  2  0  0  0  0  0  0  0  0  0
    4.2186   39.7842   -0.4523 C   0  0  1  0  0  0  0  0  0  0  0  0
    4.2150   41.2036   -0.5387 N   0  0  0  0  0  0  0  0  0  0  0  0
   -0.9377   38.2347   -2.3953 C   0  0  2  0  0  0  0  0  0  0  0  0
   -1.0095   39.7151   -2.4329 N   0  0  0  0  0  0  0  0  0  0  0  0
    0.0435   40.8102    1.5789 C   0  0  1  0  0  0  0  0  0  0  0  0
    0.8926   41.2874    2.6246 O   0  0  0  0  0  0  0  0  0  0  0  0
    5.0542   39.3981    0.5864 C   0  0  2  0  0  0  0  0  0  0  0  0
    6.3791   39.6055    0.1662 O   0  0  0  0  0  0  0  0  0  0  0  0
   -0.1347   37.8054   -1.1776 C   0  0  1  0  0  0  0  0  0  0  0  0
   -0.7437   38.3792   -0.0315 O   0  0  0  0  0  0  0  0  0  0  0  0
   -1.0372   40.0204    2.1822 C   0  0  1  0  0  0  0  0  0  0  0  0
   -0.5173   38.6971    2.2206 O   0  0  0  0  0  0  0  0  0  0  0  0
    4.8512   37.9409    0.9084 C   0  0  1  0  0  0  0  0  0  0  0  0
    5.5179   37.6421    2.0995 O   0  0  0  0  0  0  0  0  0  0  0  0
   -0.1076   36.2540   -1.0718 C   0  0  2  0  0  0  0  0  0  0  0  0
    0.6406   35.8715    0.0811 O   0  0  0  0  0  0  0  0  0  0  0  0
    3.3991   37.6652    1.1027 C   0  0  1  0  0  0  0  0  0  0  0  0
    2.7427   37.9637   -0.0953 O   0  0  0  0  0  0  0  0  0  0  0  0
    0.5626   35.6705   -2.3333 C   0  0  1  0  0  0  0  0  0  0  0  0
    0.5981   34.2362   -2.2541 O   0  0  0  0  0  0  0  0  0  0  0  0
    3.1480   36.1766    1.4150 C   0  0  0  0  0  0  0  0  0  0  0  0
    3.6649   35.8758    2.7063 O   0  0  0  0  0  0  0  0  0  0  0  0
   -0.4177   33.4294   -5.1292 N   0  0  0  0  0  0  0  0  0  0  0  0
   -2.4233   40.8668   -3.6032 N   0  0  0  0  0  0  0  0  0  0  0  0
  1  2  1  0  0  0  0
  1 39  1  0  0  0  0
  3  4  1  0  0  0  0
  5  6  1  0  0  0  0
  5 40  1  0  0  0  0
  9 10  1  6  0  0  0
  9 14  1  0  0  0  0
  9 35  1  0  0  0  0
 10  1  1  0  0  0  0
 11 16  1  0  0  0  0
 11 28  1  0  0  0  0
 11 26  1  6  0  0  0
 12 17  1  0  0  0  0
 12 34  1  0  0  0  0
 12 13  1  1  0  0  0
 14 15  1  6  0  0  0
 14 19  1  0  0  0  0
 16 13  1  1  0  0  0
 16 21  1  0  0  0  0
 17 18  1  1  0  0  0
 17 23  1  0  0  0  0
 18  8  1  0  0  0  0
 19 20  1  6  0  0  0
 19 25  1  0  0  0  0
 20  5  1  0  0  0  0
 21  3  1  6  0  0  0
 21 22  1  0  0  0  0
 21 27  1  0  0  0  0
 23 24  1  6  0  0  0
 23 29  1  0  0  0  0
 25 26  1  1  0  0  0
 25 31  1  0  0  0  0
 27  7  1  1  0  0  0
 27 28  1  0  0  0  0
 29 30  1  1  0  0  0
 29 33  1  0  0  0  0
 31 32  1  1  0  0  0
 31 35  1  0  0  0  0
 33 34  1  0  0  0  0
 33 37  1  6  0  0  0
 35 36  1  1  0  0  0
 37 38  1  0  0  0  0
M  END
>  <CHROM.1>
-121.97870999,97.20417910,85.62626641,151.38087784,80.16052068,-109.47424322
109.67975992,56.54777545,-62.83112031,-152.86966833,68.94985273,1.01684115
38.40400668,-0.74814177,-2.14221437,-0.45731016,0.72377430

>  <Name>
1nta_lig

>  <RI>
0

>  <Rbt.Current_Directory>
/home/itssahil/PROJECTS/Mol_Feturizer/New_Systems/rnas/1nta

>  <Rbt.Executable>
rbdock ($Id: //depot/dev/client3/rdock/2013.1/src/exe/rbdock.cxx#4 $)

>  <Rbt.Library>
libRbt.so (2013.1, Build901 2013/11/27)

>  <Rbt.Parameter_File>
/export/apps/rDock/src/rDock_2013.1_src/data/scripts/dock_solv.prm

>  <Rbt.Receptor>
prm/pocket_docking_4.prm

>  <SCORE>
-18.5605

>  <SCORE.INTER>
3.23926

>  <SCORE.INTER.CONST>
1

>  <SCORE.INTER.POLAR>
0

>  <SCORE.INTER.ROT>
11

>  <SCORE.INTER.SOLV>
9.35262

>  <SCORE.INTER.VDW>
-11.8914

>  <SCORE.INTER.norm>
0.0809814

>  <SCORE.INTRA>
-21.8021

>  <SCORE.INTRA.DIHEDRAL>
-2.8988

>  <SCORE.INTRA.DIHEDRAL.0>
19.0336

>  <SCORE.INTRA.POLAR>
0

>  <SCORE.INTRA.POLAR.0>
0

>  <SCORE.INTRA.REPUL>
0

>  <SCORE.INTRA.REPUL.0>
0

>  <SCORE.INTRA.SOLV>
-4.26721

>  <SCORE.INTRA.SOLV.lig_0>
-97.5861

>  <SCORE.INTRA.VDW>
-18.2191

>  <SCORE.INTRA.VDW.0>
11.7669

>  <SCORE.INTRA.norm>
-0.545052

>  <SCORE.RESTR>
0.00236413

>  <SCORE.RESTR.CAVITY>
0.00236413

>  <SCORE.RESTR.norm>
5.91032e-05

>  <SCORE.SYSTEM>
0

>  <SCORE.SYSTEM.CONST>
0

>  <SCORE.SYSTEM.DIHEDRAL>
0

>  <SCORE.SYSTEM.SOLV>
0

>  <SCORE.SYSTEM.norm>
0

>  <SCORE.heavy>
40

>  <SCORE.norm>
-0.464012

>  <RMSD>
7.276

$$$$
1nta_lig
 OpenBabel11021811403D
libRbt.so/2013.1/901 2013/11/27
 40 42  0  0  0  0  0  0  0  0999 V2000
   -1.5950   41.9997   -2.4208 C   0  0  0  0  0  0  0  0  0  0  0  0
   -2.5978   42.3547   -1.7079 N   0  0  0  0  0  0  0  0  0  0  0  0
   -0.0951   32.7662   -1.5533 C   0  0  0  0  0  0  0  0  0  0  0  0
   -1.2265   33.1852   -1.4455 O   0  0  0  0  0  0  0  0  0  0  0  0
   -3.3648   35.7663   -2.4120 C   0  0  0  0  0  0  0  0  0  0  0  0
   -3.4056   35.1155   -3.5454 N   0  0  0  0  0  0  0  0  0  0  0  0
    0.2431   31.6254   -4.6591 C   0  0  0  0  0  0  0  0  0  0  0  0
    5.4228   32.5701   -0.7027 C   0  0  0  0  0  0  0  0  0  0  0  0
   -0.9328   39.7473   -2.7190 C   0  0  2  0  0  0  0  0  0  0  0  0
   -0.8492   41.0294   -1.9138 N   0  0  0  0  0  0  0  0  0  0  0  0
    0.9431   35.0642   -3.9006 C   0  0  2  0  0  0  0  0  0  0  0  0
    2.8387   34.4662   -0.8937 C   0  0  1  0  0  0  0  0  0  0  0  0
    2.5386   34.7796   -2.2087 O   0  0  0  0  0  0  0  0  0  0  0  0
   -1.5832   38.6344   -1.8755 C   0  0  1  0  0  0  0  0  0  0  0  0
   -2.8885   39.0409   -1.5946 O   0  0  0  0  0  0  0  0  0  0  0  0
    1.2860   34.4985   -2.5267 C   0  0  2  0  0  0  0  0  0  0  0  0
    4.2991   34.5839   -0.5167 C   0  0  1  0  0  0  0  0  0  0  0  0
    5.0657   33.7876   -1.4114 N   0  0  0  0  0  0  0  0  0  0  0  0
   -1.6726   37.3035   -2.6341 C   0  0  2  0  0  0  0  0  0  0  0  0
   -2.2899   36.2072   -1.8497 N   0  0  0  0  0  0  0  0  0  0  0  0
    0.8462   33.1075   -2.6772 C   0  0  1  0  0  0  0  0  0  0  0  0
    2.0178   32.2893   -2.6651 O   0  0  0  0  0  0  0  0  0  0  0  0
    4.7324   35.8997   -0.6005 C   0  0  2  0  0  0  0  0  0  0  0  0
    5.9824   35.9777    0.0369 O   0  0  0  0  0  0  0  0  0  0  0  0
   -0.2646   36.8957   -3.0379 C   0  0  1  0  0  0  0  0  0  0  0  0
   -0.3535   35.6668   -3.7418 O   0  0  0  0  0  0  0  0  0  0  0  0
    0.1902   32.9600   -3.9824 C   0  0  1  0  0  0  0  0  0  0  0  0
    0.7808   33.9770   -4.7822 O   0  0  0  0  0  0  0  0  0  0  0  0
    3.7580   36.8175    0.0900 C   0  0  1  0  0  0  0  0  0  0  0  0
    4.0874   38.1409   -0.2140 O   0  0  0  0  0  0  0  0  0  0  0  0
    0.3793   37.9974   -3.9270 C   0  0  2  0  0  0  0  0  0  0  0  0
    1.6944   37.5924   -4.3039 O   0  0  0  0  0  0  0  0  0  0  0  0
    2.3775   36.5525   -0.4065 C   0  0  1  0  0  0  0  0  0  0  0  0
    2.0571   35.2278   -0.0939 O   0  0  0  0  0  0  0  0  0  0  0  0
    0.4595   39.3139   -3.1260 C   0  0  1  0  0  0  0  0  0  0  0  0
    1.0534   40.3455   -3.9311 O   0  0  0  0  0  0  0  0  0  0  0  0
    1.3464   37.4604    0.2927 C   0  0  0  0  0  0  0  0  0  0  0  0
    1.3392   37.1733    1.6865 O   0  0  0  0  0  0  0  0  0  0  0  0
   -1.3225   42.5502   -3.5544 N   0  0  0  0  0  0  0  0  0  0  0  0
   -4.4485   36.0272   -1.7924 N   0  0  0  0  0  0  0  0  0  0  0  0
  1  2  1  0  0  0  0
  1 39  1  0  0  0  0
  3  4  1  0  0  0  0
  5  6  1  0  0  0  0
  5 40  1  0  0  0  0
  9 10  1  1  0  0  0
  9 14  1  0  0  0  0
  9 35  1  0  0  0  0
 10  1  1  0  0  0  0
 11 16  1  0  0  0  0
 11 28  1  0  0  0  0
 11 26  1  1  0  0  0
 12 17  1  0  0  0  0
 12 34  1  0  0  0  0
 12 13  1  6  0  0  0
 14 15  1  6  0  0  0
 14 19  1  0  0  0  0
 16 13  1  6  0  0  0
 16 21  1  0  0  0  0
 17 18  1  6  0  0  0
 17 23  1  0  0  0  0
 18  8  1  0  0  0  0
 19 20  1  1  0  0  0
 19 25  1  0  0  0  0
 20  5  1  0  0  0  0
 21  3  1  1  0  0  0
 21 22  1  0  0  0  0
 21 27  1  0  0  0  0
 23 24  1  1  0  0  0
 23 29  1  0  0  0  0
 25 26  1  6  0  0  0
 25 31  1  0  0  0  0
 27  7  1  6  0  0  0
 27 28  1  0  0  0  0
 29 30  1  6  0  0  0
 29 33  1  0  0  0  0
 31 32  1  1  0  0  0
 31 35  1  0  0  0  0
 33 34  1  0  0  0  0
 33 37  1  1  0  0  0
 35 36  1  6  0  0  0
 37 38  1  0  0  0  0
M  END
>  <CHROM.1>
-115.18459632,112.66805404,75.00434191,171.96428664,170.85783694,-102.70883104
118.91341778,67.68579049,71.68541690,-167.21465408,-62.57082361,0.70814607
36.38566349,-2.07173149,-2.31088161,0.38794213,-2.97578109

>  <Name>
1nta_lig

>  <RI>
0

>  <Rbt.Current_Directory>
/home/itssahil/PROJECTS/Mol_Feturizer/New_Systems/rnas/1nta

>  <Rbt.Executable>
rbdock ($Id: //depot/dev/client3/rdock/2013.1/src/exe/rbdock.cxx#4 $)

>  <Rbt.Library>
libRbt.so (2013.1, Build901 2013/11/27)

>  <Rbt.Parameter_File>
/export/apps/rDock/src/rDock_2013.1_src/data/scripts/dock_solv.prm

>  <Rbt.Receptor>
prm/pocket_docking_6.prm

>  <SCORE>
-24.2256

>  <SCORE.INTER>
0.394104

>  <SCORE.INTER.CONST>
1

>  <SCORE.INTER.POLAR>
-0.229962

>  <SCORE.INTER.ROT>
11

>  <SCORE.INTER.SOLV>
8.2712

>  <SCORE.INTER.VDW>
-12.6611

>  <SCORE.INTER.norm>
0.0098526

>  <SCORE.INTRA>
-24.6197

>  <SCORE.INTRA.DIHEDRAL>
-11.2859

>  <SCORE.INTRA.DIHEDRAL.0>
19.0336

>  <SCORE.INTRA.POLAR>
0

>  <SCORE.INTRA.POLAR.0>
0

>  <SCORE.INTRA.REPUL>
0.0606915

>  <SCORE.INTRA.REPUL.0>
0

>  <SCORE.INTRA.SOLV>
-3.29584

>  <SCORE.INTRA.SOLV.lig_0>
-97.5861

>  <SCORE.INTRA.VDW>
-17.6323

>  <SCORE.INTRA.VDW.0>
11.7669

>  <SCORE.INTRA.norm>
-0.615493

>  <SCORE.RESTR>
0

>  <SCORE.RESTR.CAVITY>
0

>  <SCORE.RESTR.norm>
0

>  <SCORE.SYSTEM>
0

>  <SCORE.SYSTEM.CONST>
0

>  <SCORE.SYSTEM.DIHEDRAL>
0

>  <SCORE.SYSTEM.SOLV>
0

>  <SCORE.SYSTEM.norm>
0

>  <SCORE.heavy>
40

>  <SCORE.norm>
-0.60564

>  <RMSD>
7.279

$$$$
1nta_lig
 OpenBabel11021811403D
libRbt.so/2013.1/901 2013/11/27
 40 42  0  0  0  0  0  0  0  0999 V2000
   -0.8829   34.4173   -6.2663 C   0  0  0  0  0  0  0  0  0  0  0  0
   -2.0740   33.9919   -6.0650 N   0  0  0  0  0  0  0  0  0  0  0  0
   -0.0502   41.0886    1.1377 C   0  0  0  0  0  0  0  0  0  0  0  0
    0.5750   42.1246    1.0827 O   0  0  0  0  0  0  0  0  0  0  0  0
    0.5781   39.8947   -4.3215 C   0  0  0  0  0  0  0  0  0  0  0  0
   -0.1975   40.8000   -3.7840 N   0  0  0  0  0  0  0  0  0  0  0  0
   -1.2859   38.4288    2.7062 C   0  0  0  0  0  0  0  0  0  0  0  0
    4.5054   41.7052   -1.7664 C   0  0  0  0  0  0  0  0  0  0  0  0
   -0.3467   35.4421   -4.2017 C   0  0  2  0  0  0  0  0  0  0  0  0
   -0.0705   34.3550   -5.2220 N   0  0  0  0  0  0  0  0  0  0  0  0
    1.1413   38.0304    0.0908 C   0  0  2  0  0  0  0  0  0  0  0  0
    3.7234   39.0800   -0.1035 C   0  0  1  0  0  0  0  0  0  0  0  0
    2.8591   39.3812    0.9356 O   0  0  0  0  0  0  0  0  0  0  0  0
    0.5599   36.6589   -4.4666 C   0  0  1  0  0  0  0  0  0  0  0  0
    0.2158   37.1625   -5.7220 O   0  0  0  0  0  0  0  0  0  0  0  0
    1.5933   39.4113    0.5534 C   0  0  2  0  0  0  0  0  0  0  0  0
    4.9102   40.0069   -0.2483 C   0  0  1  0  0  0  0  0  0  0  0  0
    4.4338   41.3420   -0.3610 N   0  0  0  0  0  0  0  0  0  0  0  0
    0.3396   37.7843   -3.4470 C   0  0  2  0  0  0  0  0  0  0  0  0
    1.2002   38.9710   -3.6692 N   0  0  0  0  0  0  0  0  0  0  0  0
    0.5316   39.7503    1.5067 C   0  0  1  0  0  0  0  0  0  0  0  0
    1.1192   39.7596    2.8093 O   0  0  0  0  0  0  0  0  0  0  0  0
    5.7499   39.9196    0.8532 C   0  0  2  0  0  0  0  0  0  0  0  0
    6.9537   40.5653    0.5231 O   0  0  0  0  0  0  0  0  0  0  0  0
    0.6121   37.2237   -2.0601 C   0  0  1  0  0  0  0  0  0  0  0  0
    0.4035   38.2671   -1.1213 O   0  0  0  0  0  0  0  0  0  0  0  0
   -0.4910   38.6975    1.4661 C   0  0  1  0  0  0  0  0  0  0  0  0
    0.2200   37.5422    1.0387 O   0  0  0  0  0  0  0  0  0  0  0  0
    6.0283   38.4775    1.1872 C   0  0  1  0  0  0  0  0  0  0  0  0
    6.6690   38.4143    2.4273 O   0  0  0  0  0  0  0  0  0  0  0  0
   -0.3325   36.0223   -1.7714 C   0  0  2  0  0  0  0  0  0  0  0  0
   -0.0691   35.5173   -0.4634 O   0  0  0  0  0  0  0  0  0  0  0  0
    4.7445   37.7259    1.2845 C   0  0  1  0  0  0  0  0  0  0  0  0
    4.1141   37.7924    0.0381 O   0  0  0  0  0  0  0  0  0  0  0  0
   -0.0733   34.9113   -2.8104 C   0  0  1  0  0  0  0  0  0  0  0  0
   -0.9369   33.7906   -2.5597 O   0  0  0  0  0  0  0  0  0  0  0  0
    4.9890   36.2382    1.6059 C   0  0  0  0  0  0  0  0  0  0  0  0
    3.7390   35.5608    1.6657 O   0  0  0  0  0  0  0  0  0  0  0  0
   -0.4973   34.8807   -7.4060 N   0  0  0  0  0  0  0  0  0  0  0  0
    0.7424   39.8718   -5.5860 N   0  0  0  0  0  0  0  0  0  0  0  0
  1  2  1  0  0  0  0
  1 39  1  0  0  0  0
  3  4  1  0  0  0  0
  5  6  1  0  0  0  0
  5 40  1  0  0  0  0
  9 10  1  6  0  0  0
  9 14  1  0  0  0  0
  9 35  1  0  0  0  0
 10  1  1  0  0  0  0
 11 16  1  0  0  0  0
 11 28  1  0  0  0  0
 11 26  1  6  0  0  0
 12 17  1  0  0  0  0
 12 34  1  0  0  0  0
 12 13  1  1  0  0  0
 14 15  1  6  0  0  0
 14 19  1  0  0  0  0
 16 13  1  1  0  0  0
 16 21  1  0  0  0  0
 17 18  1  1  0  0  0
 17 23  1  0  0  0  0
 18  8  1  0  0  0  0
 19 20  1  6  0  0  0
 19 25  1  0  0  0  0
 20  5  1  0  0  0  0
 21  3  1  6  0  0  0
 21 22  1  0  0  0  0
 21 27  1  0  0  0  0
 23 24  1  6  0  0  0
 23 29  1  0  0  0  0
 25 26  1  1  0  0  0
 25 31  1  0  0  0  0
 27  7  1  1  0  0  0
 27 28  1  0  0  0  0
 29 30  1  1  0  0  0
 29 33  1  0  0  0  0
 31 32  1  1  0  0  0
 31 35  1  0  0  0  0
 33 34  1  0  0  0  0
 33 37  1  6  0  0  0
 35 36  1  1  0  0  0
 37 38  1  0  0  0  0
M  END
>  <CHROM.1>
-93.70162679,-75.89435304,144.09690740,130.73977672,64.28705834,-102.11117753
97.37838191,85.22898529,-59.63701663,-155.92630842,-179.01484009,1.67118189
38.03318586,-1.20356773,-2.45240178,0.79484414,1.73010376

>  <Name>
1nta_lig

>  <RI>
0

>  <Rbt.Current_Directory>
/home/itssahil/PROJECTS/Mol_Feturizer/New_Systems/rnas/1nta

>  <Rbt.Executable>
rbdock ($Id: //depot/dev/client3/rdock/2013.1/src/exe/rbdock.cxx#4 $)

>  <Rbt.Library>
libRbt.so (2013.1, Build901 2013/11/27)

>  <Rbt.Parameter_File>
/export/apps/rDock/src/rDock_2013.1_src/data/scripts/dock_solv.prm

>  <Rbt.Receptor>
prm/pocket_docking_6.prm

>  <SCORE>
-22.5239

>  <SCORE.INTER>
-2.97594

>  <SCORE.INTER.CONST>
1

>  <SCORE.INTER.POLAR>
0

>  <SCORE.INTER.ROT>
11

>  <SCORE.INTER.SOLV>
12.0016

>  <SCORE.INTER.VDW>
-16.9178

>  <SCORE.INTER.norm>
-0.0743984

>  <SCORE.INTRA>
-19.5479

>  <SCORE.INTRA.DIHEDRAL>
-1.30056

>  <SCORE.INTRA.DIHEDRAL.0>
19.0336

>  <SCORE.INTRA.POLAR>
0

>  <SCORE.INTRA.POLAR.0>
0

>  <SCORE.INTRA.REPUL>
0.00651252

>  <SCORE.INTRA.REPUL.0>
0

>  <SCORE.INTRA.SOLV>
-5.19125

>  <SCORE.INTRA.SOLV.lig_0>
-97.5861

>  <SCORE.INTRA.VDW>
-16.3346

>  <SCORE.INTRA.VDW.0>
11.7669

>  <SCORE.INTRA.norm>
-0.488698

>  <SCORE.RESTR>
0

>  <SCORE.RESTR.CAVITY>
0

>  <SCORE.RESTR.norm>
0

>  <SCORE.SYSTEM>
0

>  <SCORE.SYSTEM.CONST>
0

>  <SCORE.SYSTEM.DIHEDRAL>
0

>  <SCORE.SYSTEM.SOLV>
0

>  <SCORE.SYSTEM.norm>
0

>  <SCORE.heavy>
40

>  <SCORE.norm>
-0.563097

>  <RMSD>
7.280

$$$$
1nta_lig
 OpenBabel11021811403D
libRbt.so/2013.1/901 2013/11/27
 40 42  0  0  0  0  0  0  0  0999 V2000
   -0.9071   31.4952   -4.6780 C   0  0  0  0  0  0  0  0  0  0  0  0
   -0.2132   31.5634   -5.7522 N   0  0  0  0  0  0  0  0  0  0  0  0
    2.1055   39.0467    1.0871 C   0  0  0  0  0  0  0  0  0  0  0  0
    1.6593   39.7337    0.1948 O   0  0  0  0  0  0  0  0  0  0  0  0
   -2.9788   36.7726   -1.4407 C   0  0  0  0  0  0  0  0  0  0  0  0
   -3.6472   36.4763   -2.5248 N   0  0  0  0  0  0  0  0  0  0  0  0
   -0.3428   37.7606    2.9346 C   0  0  0  0  0  0  0  0  0  0  0  0
    6.1358   38.0600    1.3093 C   0  0  0  0  0  0  0  0  0  0  0  0
   -0.9382   33.4278   -3.3125 C   0  0  2  0  0  0  0  0  0  0  0  0
   -1.6045   32.5810   -4.3792 N   0  0  0  0  0  0  0  0  0  0  0  0
    0.7310   36.1053   -0.0650 C   0  0  2  0  0  0  0  0  0  0  0  0
    4.1479   36.1533   -0.3245 C   0  0  1  0  0  0  0  0  0  0  0  0
    3.0119   35.8620    0.4119 O   0  0  0  0  0  0  0  0  0  0  0  0
   -1.9987   34.2305   -2.5353 C   0  0  1  0  0  0  0  0  0  0  0  0
   -2.8202   33.3069   -1.8873 O   0  0  0  0  0  0  0  0  0  0  0  0
    2.0625   36.7710    0.2654 C   0  0  2  0  0  0  0  0  0  0  0  0
    5.4555   36.0324    0.4268 C   0  0  1  0  0  0  0  0  0  0  0  0
    5.3882   36.8460    1.5912 N   0  0  0  0  0  0  0  0  0  0  0  0
   -1.3775   35.1260   -1.4551 C   0  0  2  0  0  0  0  0  0  0  0  0
   -2.3701   35.9177   -0.6895 N   0  0  0  0  0  0  0  0  0  0  0  0
    1.6749   37.6354    1.3849 C   0  0  1  0  0  0  0  0  0  0  0  0
    2.3048   37.1169    2.5581 O   0  0  0  0  0  0  0  0  0  0  0  0
    5.6935   34.7193    0.8079 C   0  0  2  0  0  0  0  0  0  0  0  0
    7.0327   34.6333    1.2253 O   0  0  0  0  0  0  0  0  0  0  0  0
   -0.4003   36.0734   -2.1330 C   0  0  1  0  0  0  0  0  0  0  0  0
    0.1736   36.8964   -1.1295 O   0  0  0  0  0  0  0  0  0  0  0  0
    0.2200   37.5508    1.5630 C   0  0  1  0  0  0  0  0  0  0  0  0
   -0.1164   36.2680    1.0489 O   0  0  0  0  0  0  0  0  0  0  0  0
    5.4682   33.7874   -0.3537 C   0  0  1  0  0  0  0  0  0  0  0  0
    5.4780   32.4702    0.1126 O   0  0  0  0  0  0  0  0  0  0  0  0
    0.6981   35.2664   -2.8820 C   0  0  2  0  0  0  0  0  0  0  0  0
    1.6100   36.1715   -3.5020 O   0  0  0  0  0  0  0  0  0  0  0  0
    4.1359   34.0576   -0.9656 C   0  0  1  0  0  0  0  0  0  0  0  0
    4.1386   35.3759   -1.4319 O   0  0  0  0  0  0  0  0  0  0  0  0
    0.0345   34.3881   -3.9634 C   0  0  1  0  0  0  0  0  0  0  0  0
    1.0344   33.6343   -4.6683 O   0  0  0  0  0  0  0  0  0  0  0  0
    3.8763   33.1352   -2.1731 C   0  0  0  0  0  0  0  0  0  0  0  0
    2.4853   33.1380   -2.4735 O   0  0  0  0  0  0  0  0  0  0  0  0
   -0.9248   30.4442   -3.9315 N   0  0  0  0  0  0  0  0  0  0  0  0
   -2.8755   37.9894   -1.0734 N   0  0  0  0  0  0  0  0  0  0  0  0
  1  2  1  0  0  0  0
  1 39  1  0  0  0  0
  3  4  1  0  0  0  0
  5  6  1  0  0  0  0
  5 40  1  0  0  0  0
  9 10  1  6  0  0  0
  9 14  1  0  0  0  0
  9 35  1  0  0  0  0
 10  1  1  0  0  0  0
 11 16  1  0  0  0  0
 11 28  1  0  0  0  0
 11 26  1  6  0  0  0
 12 17  1  0  0  0  0
 12 34  1  0  0  0  0
 12 13  1  1  0  0  0
 14 15  1  1  0  0  0
 14 19  1  0  0  0  0
 16 13  1  1  0  0  0
 16 21  1  0  0  0  0
 17 18  1  1  0  0  0
 17 23  1  0  0  0  0
 18  8  1  0  0  0  0
 19 20  1  6  0  0  0
 19 25  1  0  0  0  0
 20  5  1  0  0  0  0
 21  3  1  6  0  0  0
 21 22  1  0  0  0  0
 21 27  1  0  0  0  0
 23 24  1  6  0  0  0
 23 29  1  0  0  0  0
 25 26  1  1  0  0  0
 25 31  1  0  0  0  0
 27  7  1  1  0  0  0
 27 28  1  0  0  0  0
 29 30  1  1  0  0  0
 29 33  1  0  0  0  0
 31 32  1  6  0  0  0
 31 35  1  0  0  0  0
 33 34  1  0  0  0  0
 33 37  1  6  0  0  0
 35 36  1  1  0  0  0
 37 38  1  0  0  0  0
M  END
>  <CHROM.1>
-152.83782270,-100.81982651,137.69318481,132.68097859,130.19841739,-101.93531846
-64.71373667,56.66179228,65.85215689,53.02747159,162.92289863,1.37289512
35.35954549,-1.04873740,-2.49148526,-0.25882701,0.70970101

>  <Name>
1nta_lig

>  <RI>
0

>  <Rbt.Current_Directory>
/home/itssahil/PROJECTS/Mol_Feturizer/New_Systems/rnas/1nta

>  <Rbt.Executable>
rbdock ($Id: //depot/dev/client3/rdock/2013.1/src/exe/rbdock.cxx#4 $)

>  <Rbt.Library>
libRbt.so (2013.1, Build901 2013/11/27)

>  <Rbt.Parameter_File>
/export/apps/rDock/src/rDock_2013.1_src/data/scripts/dock_solv.prm

>  <Rbt.Receptor>
prm/pocket_docking_3.prm

>  <SCORE>
-11.7194

>  <SCORE.INTER>
0.517563

>  <SCORE.INTER.CONST>
1

>  <SCORE.INTER.POLAR>
-0.430302

>  <SCORE.INTER.ROT>
11

>  <SCORE.INTER.SOLV>
13.6092

>  <SCORE.INTER.VDW>
-13.6903

>  <SCORE.INTER.norm>
0.0129391

>  <SCORE.INTRA>
-12.5512

>  <SCORE.INTRA.DIHEDRAL>
3.79394

>  <SCORE.INTRA.DIHEDRAL.0>
19.0336

>  <SCORE.INTRA.POLAR>
0

>  <SCORE.INTRA.POLAR.0>
0

>  <SCORE.INTRA.REPUL>
0

>  <SCORE.INTRA.REPUL.0>
0

>  <SCORE.INTRA.SOLV>
0.793057

>  <SCORE.INTRA.SOLV.lig_0>
-97.5861

>  <SCORE.INTRA.VDW>
-14.8447

>  <SCORE.INTRA.VDW.0>
11.7669

>  <SCORE.INTRA.norm>
-0.31378

>  <SCORE.RESTR>
0.314213

>  <SCORE.RESTR.CAVITY>
0.314213

>  <SCORE.RESTR.norm>
0.00785534

>  <SCORE.SYSTEM>
0

>  <SCORE.SYSTEM.CONST>
0

>  <SCORE.SYSTEM.DIHEDRAL>
0

>  <SCORE.SYSTEM.SOLV>
0

>  <SCORE.SYSTEM.norm>
0

>  <SCORE.heavy>
40

>  <SCORE.norm>
-0.292986

>  <RMSD>
7.282

$$$$
1nta_lig
 OpenBabel11021811403D
libRbt.so/2013.1/901 2013/11/27
 40 42  0  0  0  0  0  0  0  0999 V2000
    1.4473   42.0822   -6.4252 C   0  0  0  0  0  0  0  0  0  0  0  0
    2.0381   43.1154   -6.8978 N   0  0  0  0  0  0  0  0  0  0  0  0
    4.4660   35.6784    0.6896 C   0  0  0  0  0  0  0  0  0  0  0  0
    3.8023   34.7196    1.0176 O   0  0  0  0  0  0  0  0  0  0  0  0
    0.6991   36.8492   -3.4704 C   0  0  0  0  0  0  0  0  0  0  0  0
    1.6389   36.0325   -3.8697 N   0  0  0  0  0  0  0  0  0  0  0  0
    6.5641   38.2132    1.1731 C   0  0  0  0  0  0  0  0  0  0  0  0
   -1.2202   35.4261    1.7949 C   0  0  0  0  0  0  0  0  0  0  0  0
    1.9746   41.0514   -4.3612 C   0  0  2  0  0  0  0  0  0  0  0  0
    1.2024   42.1103   -5.1237 N   0  0  0  0  0  0  0  0  0  0  0  0
    3.1504   38.8316    0.2486 C   0  0  2  0  0  0  0  0  0  0  0  0
    0.7791   37.9787    1.5351 C   0  0  1  0  0  0  0  0  0  0  0  0
    2.0586   37.6751    1.9690 O   0  0  0  0  0  0  0  0  0  0  0  0
    1.0180   39.9462   -3.8752 C   0  0  1  0  0  0  0  0  0  0  0  0
    0.4801   39.3390   -5.0110 O   0  0  0  0  0  0  0  0  0  0  0  0
    2.9098   37.5101    0.9703 C   0  0  2  0  0  0  0  0  0  0  0  0
   -0.3411   37.4735    2.4176 C   0  0  1  0  0  0  0  0  0  0  0  0
   -0.1877   36.0703    2.5893 N   0  0  0  0  0  0  0  0  0  0  0  0
    1.7434   38.8563   -3.0748 C   0  0  2  0  0  0  0  0  0  0  0  0
    0.8513   37.7775   -2.5866 N   0  0  0  0  0  0  0  0  0  0  0  0
    4.2867   37.0737    1.2250 C   0  0  1  0  0  0  0  0  0  0  0  0
    4.4975   37.1395    2.6368 O   0  0  0  0  0  0  0  0  0  0  0  0
   -0.3113   38.0857    3.6627 C   0  0  2  0  0  0  0  0  0  0  0  0
   -1.5269   37.7994    4.3071 O   0  0  0  0  0  0  0  0  0  0  0  0
    2.4223   39.5178   -1.8859 C   0  0  1  0  0  0  0  0  0  0  0  0
    3.0943   38.5064   -1.1516 O   0  0  0  0  0  0  0  0  0  0  0  0
    5.2066   38.0145    0.5736 C   0  0  1  0  0  0  0  0  0  0  0  0
    4.4738   39.2323    0.5201 O   0  0  0  0  0  0  0  0  0  0  0  0
   -0.1621   39.5767    3.5104 C   0  0  1  0  0  0  0  0  0  0  0  0
    0.1056   40.1364    4.7624 O   0  0  0  0  0  0  0  0  0  0  0  0
    3.4224   40.6040   -2.3745 C   0  0  2  0  0  0  0  0  0  0  0  0
    4.0561   41.2052   -1.2466 O   0  0  0  0  0  0  0  0  0  0  0  0
    0.9850   39.8789    2.6074 C   0  0  1  0  0  0  0  0  0  0  0  0
    0.7051   39.3179    1.3575 O   0  0  0  0  0  0  0  0  0  0  0  0
    2.6535   41.6836   -3.1648 C   0  0  1  0  0  0  0  0  0  0  0  0
    3.5612   42.6982   -3.6246 O   0  0  0  0  0  0  0  0  0  0  0  0
    1.1580   41.3979    2.4100 C   0  0  0  0  0  0  0  0  0  0  0  0
    2.1880   41.6315    1.4563 O   0  0  0  0  0  0  0  0  0  0  0  0
    1.1155   41.0775   -7.1618 N   0  0  0  0  0  0  0  0  0  0  0  0
   -0.4660   36.7731   -3.9835 N   0  0  0  0  0  0  0  0  0  0  0  0
  1  2  1  0  0  0  0
  1 39  1  0  0  0  0
  3  4  1  0  0  0  0
  5  6  1  0  0  0  0
  5 40  1  0  0  0  0
  9 10  1  1  0  0  0
  9 14  1  0  0  0  0
  9 35  1  0  0  0  0
 10  1  1  0  0  0  0
 11 16  1  0  0  0  0
 11 28  1  0  0  0  0
 11 26  1  6  0  0  0
 12 17  1  0  0  0  0
 12 34  1  0  0  0  0
 12 13  1  1  0  0  0
 14 15  1  6  0  0  0
 14 19  1  0  0  0  0
 16 13  1  1  0  0  0
 16 21  1  0  0  0  0
 17 18  1  1  0  0  0
 17 23  1  0  0  0  0
 18  8  1  0  0  0  0
 19 20  1  1  0  0  0
 19 25  1  0  0  0  0
 20  5  1  0  0  0  0
 21  3  1  6  0  0  0
 21 22  1  0  0  0  0
 21 27  1  0  0  0  0
 23 24  1  6  0  0  0
 23 29  1  0  0  0  0
 25 26  1  6  0  0  0
 25 31  1  0  0  0  0
 27  7  1  1  0  0  0
 27 28  1  0  0  0  0
 29 30  1  1  0  0  0
 29 33  1  0  0  0  0
 31 32  1  1  0  0  0
 31 35  1  0  0  0  0
 33 34  1  0  0  0  0
 33 37  1  6  0  0  0
 35 36  1  6  0  0  0
 37 38  1  0  0  0  0
M  END
>  <CHROM.1>
-108.66649020,-114.70742006,140.44437540,148.41242947,67.70802722,-106.74918417
86.55154040,67.60390624,-57.35012825,-149.67373583,-175.12933789,1.92910685
38.94977674,-0.58856151,1.51330674,-0.18067034,-1.19190342

>  <Name>
1nta_lig

>  <RI>
0

>  <Rbt.Current_Directory>
/home/itssahil/PROJECTS/Mol_Feturizer/New_Systems/rnas/1nta

>  <Rbt.Executable>
rbdock ($Id: //depot/dev/client3/rdock/2013.1/src/exe/rbdock.cxx#4 $)

>  <Rbt.Library>
libRbt.so (2013.1, Build901 2013/11/27)

>  <Rbt.Parameter_File>
/export/apps/rDock/src/rDock_2013.1_src/data/scripts/dock_solv.prm

>  <Rbt.Receptor>
prm/pocket_docking_8.prm

>  <SCORE>
-25.6905

>  <SCORE.INTER>
-5.70324

>  <SCORE.INTER.CONST>
1

>  <SCORE.INTER.POLAR>
-0.756862

>  <SCORE.INTER.ROT>
11

>  <SCORE.INTER.SOLV>
16.6543

>  <SCORE.INTER.VDW>
-17.7641

>  <SCORE.INTER.norm>
-0.142581

>  <SCORE.INTRA>
-19.9872

>  <SCORE.INTRA.DIHEDRAL>
-1.94008

>  <SCORE.INTRA.DIHEDRAL.0>
19.0336

>  <SCORE.INTRA.POLAR>
0

>  <SCORE.INTRA.POLAR.0>
0

>  <SCORE.INTRA.REPUL>
0.0534858

>  <SCORE.INTRA.REPUL.0>
0

>  <SCORE.INTRA.SOLV>
-4.64672

>  <SCORE.INTRA.SOLV.lig_0>
-97.5861

>  <SCORE.INTRA.VDW>
-16.9613

>  <SCORE.INTRA.VDW.0>
11.7669

>  <SCORE.INTRA.norm>
-0.499681

>  <SCORE.RESTR>
0

>  <SCORE.RESTR.CAVITY>
0

>  <SCORE.RESTR.norm>
0

>  <SCORE.SYSTEM>
0

>  <SCORE.SYSTEM.CONST>
0

>  <SCORE.SYSTEM.DIHEDRAL>
0

>  <SCORE.SYSTEM.SOLV>
0

>  <SCORE.SYSTEM.norm>
0

>  <SCORE.heavy>
40

>  <SCORE.norm>
-0.642262

>  <RMSD>
7.284

$$$$
1nta_lig
 OpenBabel11021811403D
libRbt.so/2013.1/901 2013/11/27
 40 42  0  0  0  0  0  0  0  0999 V2000
   -1.5891   41.2762    0.8444 C   0  0  0  0  0  0  0  0  0  0  0  0
   -1.5011   42.3038    0.0852 N   0  0  0  0  0  0  0  0  0  0  0  0
    0.7945   32.3291   -1.1298 C   0  0  0  0  0  0  0  0  0  0  0  0
   -0.3310   32.5879   -0.7642 O   0  0  0  0  0  0  0  0  0  0  0  0
   -2.0717   35.4158    1.0199 C   0  0  0  0  0  0  0  0  0  0  0  0
   -2.0113   35.3501    2.3245 N   0  0  0  0  0  0  0  0  0  0  0  0
    0.6905   32.1999   -4.4515 C   0  0  0  0  0  0  0  0  0  0  0  0
    6.2953   31.8977   -0.9029 C   0  0  0  0  0  0  0  0  0  0  0  0
   -0.7153   39.3344   -0.1884 C   0  0  2  0  0  0  0  0  0  0  0  0
   -0.5491   40.4563    0.8180 N   0  0  0  0  0  0  0  0  0  0  0  0
    1.3785   35.2992   -2.7747 C   0  0  2  0  0  0  0  0  0  0  0  0
    3.7007   34.0837   -0.3155 C   0  0  1  0  0  0  0  0  0  0  0  0
    3.2242   34.6507   -1.4855 O   0  0  0  0  0  0  0  0  0  0  0  0
   -0.8124   37.9805    0.5399 C   0  0  1  0  0  0  0  0  0  0  0  0
   -1.9664   38.0172    1.3240 O   0  0  0  0  0  0  0  0  0  0  0  0
    1.9481   34.3781   -1.7014 C   0  0  2  0  0  0  0  0  0  0  0  0
    5.1922   33.8329   -0.2779 C   0  0  1  0  0  0  0  0  0  0  0  0
    5.5489   33.0400   -1.4031 N   0  0  0  0  0  0  0  0  0  0  0  0
   -0.9586   36.8031   -0.4332 C   0  0  2  0  0  0  0  0  0  0  0  0
   -1.0502   35.4823    0.2339 N   0  0  0  0  0  0  0  0  0  0  0  0
    1.5393   33.0651   -2.2112 C   0  0  1  0  0  0  0  0  0  0  0  0
    2.7266   32.3774   -2.6105 O   0  0  0  0  0  0  0  0  0  0  0  0
    5.9008   35.0254   -0.3241 C   0  0  2  0  0  0  0  0  0  0  0  0
    7.2357   34.7404    0.0103 O   0  0  0  0  0  0  0  0  0  0  0  0
    0.2436   36.8090   -1.3641 C   0  0  1  0  0  0  0  0  0  0  0  0
    0.1015   35.7208   -2.2637 O   0  0  0  0  0  0  0  0  0  0  0  0
    0.6958   33.2625   -3.3966 C   0  0  1  0  0  0  0  0  0  0  0  0
    1.1206   34.5160   -3.9174 O   0  0  0  0  0  0  0  0  0  0  0  0
    5.3343   36.0104    0.6645 C   0  0  1  0  0  0  0  0  0  0  0  0
    5.9014   37.2658    0.4301 O   0  0  0  0  0  0  0  0  0  0  0  0
    0.3196   38.1578   -2.1346 C   0  0  2  0  0  0  0  0  0  0  0  0
    1.4465   38.1401   -3.0093 O   0  0  0  0  0  0  0  0  0  0  0  0
    3.8594   36.1206    0.4774 C   0  0  1  0  0  0  0  0  0  0  0  0
    3.3022   34.8608    0.7178 O   0  0  0  0  0  0  0  0  0  0  0  0
    0.4756   39.3126   -1.1229 C   0  0  1  0  0  0  0  0  0  0  0  0
    0.5487   40.5690   -1.8163 O   0  0  0  0  0  0  0  0  0  0  0  0
    3.2384   37.1067    1.4864 C   0  0  0  0  0  0  0  0  0  0  0  0
    3.4905   36.6442    2.8084 O   0  0  0  0  0  0  0  0  0  0  0  0
   -2.6210   41.0481    1.5829 N   0  0  0  0  0  0  0  0  0  0  0  0
   -3.2057   35.3920    0.4368 N   0  0  0  0  0  0  0  0  0  0  0  0
  1  2  1  0  0  0  0
  1 39  1  0  0  0  0
  3  4  1  0  0  0  0
  5  6  1  0  0  0  0
  5 40  1  0  0  0  0
  9 10  1  1  0  0  0
  9 14  1  0  0  0  0
  9 35  1  0  0  0  0
 10  1  1  0  0  0  0
 11 16  1  0  0  0  0
 11 28  1  0  0  0  0
 11 26  1  1  0  0  0
 12 17  1  0  0  0  0
 12 34  1  0  0  0  0
 12 13  1  6  0  0  0
 14 15  1  1  0  0  0
 14 19  1  0  0  0  0
 16 13  1  6  0  0  0
 16 21  1  0  0  0  0
 17 18  1  6  0  0  0
 17 23  1  0  0  0  0
 18  8  1  0  0  0  0
 19 20  1  1  0  0  0
 19 25  1  0  0  0  0
 20  5  1  0  0  0  0
 21  3  1  1  0  0  0
 21 22  1  0  0  0  0
 21 27  1  0  0  0  0
 23 24  1  1  0  0  0
 23 29  1  0  0  0  0
 25 26  1  6  0  0  0
 25 31  1  0  0  0  0
 27  7  1  6  0  0  0
 27 28  1  0  0  0  0
 29 30  1  6  0  0  0
 29 33  1  0  0  0  0
 31 32  1  6  0  0  0
 31 35  1  0  0  0  0
 33 34  1  0  0  0  0
 33 37  1  1  0  0  0
 35 36  1  6  0  0  0
 37 38  1  0  0  0  0
M  END
>  <CHROM.1>
-114.02239609,-92.87963739,82.74161760,155.04696935,165.21574386,-127.47503644
60.37077110,-111.51674256,73.24249811,-155.47201417,-60.33487721,1.46275517
36.04744694,-0.61688213,-2.34446335,0.18776646,-2.70973553

>  <Name>
1nta_lig

>  <RI>
0

>  <Rbt.Current_Directory>
/home/itssahil/PROJECTS/Mol_Feturizer/New_Systems/rnas/1nta

>  <Rbt.Executable>
rbdock ($Id: //depot/dev/client3/rdock/2013.1/src/exe/rbdock.cxx#4 $)

>  <Rbt.Library>
libRbt.so (2013.1, Build901 2013/11/27)

>  <Rbt.Parameter_File>
/export/apps/rDock/src/rDock_2013.1_src/data/scripts/dock_solv.prm

>  <Rbt.Receptor>
prm/pocket_docking_2.prm

>  <SCORE>
-16.9416

>  <SCORE.INTER>
2.02019

>  <SCORE.INTER.CONST>
1

>  <SCORE.INTER.POLAR>
0

>  <SCORE.INTER.ROT>
11

>  <SCORE.INTER.SOLV>
10.7913

>  <SCORE.INTER.VDW>
-13.1836

>  <SCORE.INTER.norm>
0.0505048

>  <SCORE.INTRA>
-21.1012

>  <SCORE.INTRA.DIHEDRAL>
-6.54292

>  <SCORE.INTRA.DIHEDRAL.0>
19.0336

>  <SCORE.INTRA.POLAR>
0

>  <SCORE.INTRA.POLAR.0>
0

>  <SCORE.INTRA.REPUL>
0.015938

>  <SCORE.INTRA.REPUL.0>
0

>  <SCORE.INTRA.SOLV>
-3.04491

>  <SCORE.INTRA.SOLV.lig_0>
-97.5861

>  <SCORE.INTRA.VDW>
-16.387

>  <SCORE.INTRA.VDW.0>
11.7669

>  <SCORE.INTRA.norm>
-0.527529

>  <SCORE.RESTR>
2.13938

>  <SCORE.RESTR.CAVITY>
2.13938

>  <SCORE.RESTR.norm>
0.0534846

>  <SCORE.SYSTEM>
0

>  <SCORE.SYSTEM.CONST>
0

>  <SCORE.SYSTEM.DIHEDRAL>
0

>  <SCORE.SYSTEM.SOLV>
0

>  <SCORE.SYSTEM.norm>
0

>  <SCORE.heavy>
40

>  <SCORE.norm>
-0.42354

>  <RMSD>
7.291

$$$$
1nta_lig
 OpenBabel11021811403D
libRbt.so/2013.1/901 2013/11/27
 40 42  0  0  0  0  0  0  0  0999 V2000
    1.9042   41.2734   -4.6256 C   0  0  0  0  0  0  0  0  0  0  0  0
    1.9541   40.9204   -5.8557 N   0  0  0  0  0  0  0  0  0  0  0  0
    0.5569   33.3512    0.6838 C   0  0  0  0  0  0  0  0  0  0  0  0
    1.3114   33.0429    1.5799 O   0  0  0  0  0  0  0  0  0  0  0  0
    2.0099   38.7622    0.8384 C   0  0  0  0  0  0  0  0  0  0  0  0
    2.1695   39.9677    1.3193 N   0  0  0  0  0  0  0  0  0  0  0  0
   -1.2529   32.7990   -2.0514 C   0  0  0  0  0  0  0  0  0  0  0  0
    4.9648   36.1502    1.2919 C   0  0  0  0  0  0  0  0  0  0  0  0
    0.4212   40.0457   -3.2494 C   0  0  2  0  0  0  0  0  0  0  0  0
    0.6958   41.2820   -4.0830 N   0  0  0  0  0  0  0  0  0  0  0  0
    1.5363   35.0578   -2.1440 C   0  0  2  0  0  0  0  0  0  0  0  0
    4.2147   34.5860   -1.5440 C   0  0  1  0  0  0  0  0  0  0  0  0
    3.2263   33.6321   -1.3692 O   0  0  0  0  0  0  0  0  0  0  0  0
    1.5385   39.8517   -2.2068 C   0  0  1  0  0  0  0  0  0  0  0  0
    1.4985   40.9537   -1.3513 O   0  0  0  0  0  0  0  0  0  0  0  0
    2.0625   34.1602   -1.0292 C   0  0  2  0  0  0  0  0  0  0  0  0
    5.2537   34.6509   -0.4463 C   0  0  1  0  0  0  0  0  0  0  0  0
    4.5904   34.8357    0.7979 N   0  0  0  0  0  0  0  0  0  0  0  0
    1.3243   38.5985   -1.3476 C   0  0  2  0  0  0  0  0  0  0  0  0
    2.3848   38.3777   -0.3352 N   0  0  0  0  0  0  0  0  0  0  0  0
    0.8965   33.3057   -0.7819 C   0  0  1  0  0  0  0  0  0  0  0  0
    1.2384   31.9873   -1.2144 O   0  0  0  0  0  0  0  0  0  0  0  0
    5.9965   33.4799   -0.3913 C   0  0  2  0  0  0  0  0  0  0  0  0
    7.1116   33.7212    0.4293 O   0  0  0  0  0  0  0  0  0  0  0  0
    1.2631   37.3956   -2.2757 C   0  0  1  0  0  0  0  0  0  0  0  0
    1.0615   36.2405   -1.4766 O   0  0  0  0  0  0  0  0  0  0  0  0
   -0.2224   33.7877   -1.6013 C   0  0  1  0  0  0  0  0  0  0  0  0
    0.4080   34.4267   -2.7045 O   0  0  0  0  0  0  0  0  0  0  0  0
    6.4619   33.0890   -1.7694 C   0  0  1  0  0  0  0  0  0  0  0  0
    6.9928   31.7975   -1.7199 O   0  0  0  0  0  0  0  0  0  0  0  0
    0.1072   37.5674   -3.3019 C   0  0  2  0  0  0  0  0  0  0  0  0
    0.0594   36.4256   -4.1560 O   0  0  0  0  0  0  0  0  0  0  0  0
    5.3048   33.0839   -2.7095 C   0  0  1  0  0  0  0  0  0  0  0  0
    4.7839   34.3808   -2.7542 O   0  0  0  0  0  0  0  0  0  0  0  0
    0.3648   38.8303   -4.1504 C   0  0  1  0  0  0  0  0  0  0  0  0
   -0.6933   39.0061   -5.1066 O   0  0  0  0  0  0  0  0  0  0  0  0
    5.7449   32.7074   -4.1380 C   0  0  0  0  0  0  0  0  0  0  0  0
    6.1479   31.3427   -4.1591 O   0  0  0  0  0  0  0  0  0  0  0  0
    2.9561   41.6038   -3.9575 N   0  0  0  0  0  0  0  0  0  0  0  0
    1.4679   37.8600    1.5585 N   0  0  0  0  0  0  0  0  0  0  0  0
  1  2  1  0  0  0  0
  1 39  1  0  0  0  0
  3  4  1  0  0  0  0
  5  6  1  0  0  0  0
  5 40  1  0  0  0  0
  9 10  1  6  0  0  0
  9 14  1  0  0  0  0
  9 35  1  0  0  0  0
 10  1  1  0  0  0  0
 11 16  1  0  0  0  0
 11 28  1  0  0  0  0
 11 26  1  1  0  0  0
 12 17  1  0  0  0  0
 12 34  1  0  0  0  0
 12 13  1  1  0  0  0
 14 15  1  1  0  0  0
 14 19  1  0  0  0  0
 16 13  1  6  0  0  0
 16 21  1  0  0  0  0
 17 18  1  1  0  0  0
 17 23  1  0  0  0  0
 18  8  1  0  0  0  0
 19 20  1  1  0  0  0
 19 25  1  0  0  0  0
 20  5  1  0  0  0  0
 21  3  1  1  0  0  0
 21 22  1  0  0  0  0
 21 27  1  0  0  0  0
 23 24  1  1  0  0  0
 23 29  1  0  0  0  0
 25 26  1  1  0  0  0
 25 31  1  0  0  0  0
 27  7  1  6  0  0  0
 27 28  1  0  0  0  0
 29 30  1  1  0  0  0
 29 33  1  0  0  0  0
 31 32  1  6  0  0  0
 31 35  1  0  0  0  0
 33 34  1  0  0  0  0
 33 37  1  6  0  0  0
 35 36  1  6  0  0  0
 37 38  1  0  0  0  0
M  END
>  <CHROM.1>
53.34083119,99.99207631,146.18883522,106.41789280,63.41306836,-113.98649509
100.66722242,-89.21534294,-58.19581530,-155.79184307,68.19973847,2.51065524
36.04359850,-1.78924873,-2.03413775,0.04746975,2.90511812

>  <Name>
1nta_lig

>  <RI>
0

>  <Rbt.Current_Directory>
/home/itssahil/PROJECTS/Mol_Feturizer/New_Systems/rnas/1nta

>  <Rbt.Executable>
rbdock ($Id: //depot/dev/client3/rdock/2013.1/src/exe/rbdock.cxx#4 $)

>  <Rbt.Library>
libRbt.so (2013.1, Build901 2013/11/27)

>  <Rbt.Parameter_File>
/export/apps/rDock/src/rDock_2013.1_src/data/scripts/dock_solv.prm

>  <Rbt.Receptor>
prm/pocket_docking_5.prm

>  <SCORE>
-22.4697

>  <SCORE.INTER>
-5.40237

>  <SCORE.INTER.CONST>
1

>  <SCORE.INTER.POLAR>
-0.810537

>  <SCORE.INTER.ROT>
11

>  <SCORE.INTER.SOLV>
18.1527

>  <SCORE.INTER.VDW>
-17.884

>  <SCORE.INTER.norm>
-0.135059

>  <SCORE.INTRA>
-17.0673

>  <SCORE.INTRA.DIHEDRAL>
-2.39028

>  <SCORE.INTRA.DIHEDRAL.0>
19.0336

>  <SCORE.INTRA.POLAR>
0

>  <SCORE.INTRA.POLAR.0>
0

>  <SCORE.INTRA.REPUL>
0

>  <SCORE.INTRA.REPUL.0>
0

>  <SCORE.INTRA.SOLV>
-1.9444

>  <SCORE.INTRA.SOLV.lig_0>
-97.5861

>  <SCORE.INTRA.VDW>
-14.8999

>  <SCORE.INTRA.VDW.0>
11.7669

>  <SCORE.INTRA.norm>
-0.426682

>  <SCORE.RESTR>
0

>  <SCORE.RESTR.CAVITY>
0

>  <SCORE.RESTR.norm>
0

>  <SCORE.SYSTEM>
0

>  <SCORE.SYSTEM.CONST>
0

>  <SCORE.SYSTEM.DIHEDRAL>
0

>  <SCORE.SYSTEM.SOLV>
0

>  <SCORE.SYSTEM.norm>
0

>  <SCORE.heavy>
40

>  <SCORE.norm>
-0.561741

>  <RMSD>
7.298

$$$$
1nta_lig
 OpenBabel11021811403D
libRbt.so/2013.1/901 2013/11/27
 40 42  0  0  0  0  0  0  0  0999 V2000
   -1.6972   41.4765    0.5180 C   0  0  0  0  0  0  0  0  0  0  0  0
   -2.1109   42.0908   -0.5268 N   0  0  0  0  0  0  0  0  0  0  0  0
    0.6282   32.5213   -1.0558 C   0  0  0  0  0  0  0  0  0  0  0  0
    0.9986   32.2967    0.0754 O   0  0  0  0  0  0  0  0  0  0  0  0
   -2.5485   35.6616    0.2554 C   0  0  0  0  0  0  0  0  0  0  0  0
   -3.5321   35.9649   -0.5511 N   0  0  0  0  0  0  0  0  0  0  0  0
    0.7309   32.2422   -4.3684 C   0  0  0  0  0  0  0  0  0  0  0  0
    5.9981   31.9734   -0.9442 C   0  0  0  0  0  0  0  0  0  0  0  0
   -0.6969   39.6376   -0.5858 C   0  0  2  0  0  0  0  0  0  0  0  0
   -0.5651   40.8040    0.3738 N   0  0  0  0  0  0  0  0  0  0  0  0
    1.4013   35.3962   -2.7894 C   0  0  2  0  0  0  0  0  0  0  0  0
    3.5805   34.0765   -0.2345 C   0  0  1  0  0  0  0  0  0  0  0  0
    3.1420   34.7596   -1.3564 O   0  0  0  0  0  0  0  0  0  0  0  0
   -0.9443   38.3340    0.1968 C   0  0  1  0  0  0  0  0  0  0  0  0
   -2.1658   38.4762    0.8569 O   0  0  0  0  0  0  0  0  0  0  0  0
    1.8748   34.5108   -1.6418 C   0  0  2  0  0  0  0  0  0  0  0  0
    5.0811   33.9277   -0.1121 C   0  0  1  0  0  0  0  0  0  0  0  0
    5.5762   33.3184   -1.2978 N   0  0  0  0  0  0  0  0  0  0  0  0
   -1.0627   37.1130   -0.7250 C   0  0  2  0  0  0  0  0  0  0  0  0
   -1.2967   35.8387   -0.0043 N   0  0  0  0  0  0  0  0  0  0  0  0
    1.4610   33.1870   -2.1184 C   0  0  1  0  0  0  0  0  0  0  0  0
    2.6507   32.4508   -2.4095 O   0  0  0  0  0  0  0  0  0  0  0  0
    5.6942   35.1622    0.0499 C   0  0  2  0  0  0  0  0  0  0  0  0
    7.0214   34.9291    0.4490 O   0  0  0  0  0  0  0  0  0  0  0  0
    0.2236   37.0024   -1.5281 C   0  0  1  0  0  0  0  0  0  0  0  0
    0.1073   35.8742   -2.3810 O   0  0  0  0  0  0  0  0  0  0  0  0
    0.7003   33.3516   -3.3633 C   0  0  1  0  0  0  0  0  0  0  0  0
    1.1934   34.5683   -3.9106 O   0  0  0  0  0  0  0  0  0  0  0  0
    4.9846   35.9650    1.1084 C   0  0  1  0  0  0  0  0  0  0  0  0
    5.4650   37.2768    1.0813 O   0  0  0  0  0  0  0  0  0  0  0  0
    0.4540   38.2996   -2.3545 C   0  0  2  0  0  0  0  0  0  0  0  0
    1.6586   38.1725   -3.1083 O   0  0  0  0  0  0  0  0  0  0  0  0
    3.5220   35.9959    0.8217 C   0  0  1  0  0  0  0  0  0  0  0  0
    3.0514   34.6795    0.8550 O   0  0  0  0  0  0  0  0  0  0  0  0
    0.5769   39.4996   -1.3923 C   0  0  1  0  0  0  0  0  0  0  0  0
    0.7914   40.7093   -2.1377 O   0  0  0  0  0  0  0  0  0  0  0  0
    2.7568   36.7932    1.8964 C   0  0  0  0  0  0  0  0  0  0  0  0
    1.3633   36.7435    1.6123 O   0  0  0  0  0  0  0  0  0  0  0  0
   -2.3388   41.5036    1.6359 N   0  0  0  0  0  0  0  0  0  0  0  0
   -2.8010   35.1724    1.4058 N   0  0  0  0  0  0  0  0  0  0  0  0
  1  2  1  0  0  0  0
  1 39  1  0  0  0  0
  3  4  1  0  0  0  0
  5  6  1  0  0  0  0
  5 40  1  0  0  0  0
  9 10  1  1  0  0  0
  9 14  1  0  0  0  0
  9 35  1  0  0  0  0
 10  1  1  0  0  0  0
 11 16  1  0  0  0  0
 11 28  1  0  0  0  0
 11 26  1  1  0  0  0
 12 17  1  0  0  0  0
 12 34  1  0  0  0  0
 12 13  1  6  0  0  0
 14 15  1  6  0  0  0
 14 19  1  0  0  0  0
 16 13  1  6  0  0  0
 16 21  1  0  0  0  0
 17 18  1  6  0  0  0
 17 23  1  0  0  0  0
 18  8  1  0  0  0  0
 19 20  1  1  0  0  0
 19 25  1  0  0  0  0
 20  5  1  0  0  0  0
 21  3  1  1  0  0  0
 21 22  1  0  0  0  0
 21 27  1  0  0  0  0
 23 24  1  1  0  0  0
 23 29  1  0  0  0  0
 25 26  1  6  0  0  0
 25 31  1  0  0  0  0
 27  7  1  6  0  0  0
 27 28  1  0  0  0  0
 29 30  1  6  0  0  0
 29 33  1  0  0  0  0
 31 32  1  1  0  0  0
 31 35  1  0  0  0  0
 33 34  1  0  0  0  0
 33 37  1  1  0  0  0
 35 36  1  6  0  0  0
 37 38  1  0  0  0  0
M  END
>  <CHROM.1>
-96.94228732,-65.80887230,83.01579943,160.13697297,173.96050136,-109.63966975
84.20150894,38.95838372,-58.18061731,-158.24237160,-177.42476421,1.31384023
36.16673122,-0.70067334,-2.34441852,0.25088849,-2.75918058

>  <Name>
1nta_lig

>  <RI>
0

>  <Rbt.Current_Directory>
/home/itssahil/PROJECTS/Mol_Feturizer/New_Systems/rnas/1nta

>  <Rbt.Executable>
rbdock ($Id: //depot/dev/client3/rdock/2013.1/src/exe/rbdock.cxx#4 $)

>  <Rbt.Library>
libRbt.so (2013.1, Build901 2013/11/27)

>  <Rbt.Parameter_File>
/export/apps/rDock/src/rDock_2013.1_src/data/scripts/dock_solv.prm

>  <Rbt.Receptor>
prm/pocket_docking_3.prm

>  <SCORE>
-24.1765

>  <SCORE.INTER>
-0.473784

>  <SCORE.INTER.CONST>
1

>  <SCORE.INTER.POLAR>
0

>  <SCORE.INTER.ROT>
11

>  <SCORE.INTER.SOLV>
9.20629

>  <SCORE.INTER.VDW>
-14.318

>  <SCORE.INTER.norm>
-0.0118446

>  <SCORE.INTRA>
-23.7027

>  <SCORE.INTRA.DIHEDRAL>
-8.68713

>  <SCORE.INTRA.DIHEDRAL.0>
19.0336

>  <SCORE.INTRA.POLAR>
0

>  <SCORE.INTRA.POLAR.0>
0

>  <SCORE.INTRA.REPUL>
0

>  <SCORE.INTRA.REPUL.0>
0

>  <SCORE.INTRA.SOLV>
-3.14652

>  <SCORE.INTRA.SOLV.lig_0>
-97.5861

>  <SCORE.INTRA.VDW>
-17.7859

>  <SCORE.INTRA.VDW.0>
11.7669

>  <SCORE.INTRA.norm>
-0.592568

>  <SCORE.RESTR>
0

>  <SCORE.RESTR.CAVITY>
0

>  <SCORE.RESTR.norm>
0

>  <SCORE.SYSTEM>
0

>  <SCORE.SYSTEM.CONST>
0

>  <SCORE.SYSTEM.DIHEDRAL>
0

>  <SCORE.SYSTEM.SOLV>
0

>  <SCORE.SYSTEM.norm>
0

>  <SCORE.heavy>
40

>  <SCORE.norm>
-0.604412

>  <RMSD>
7.303

$$$$
1nta_lig
 OpenBabel11021811403D
libRbt.so/2013.1/901 2013/11/27
 40 42  0  0  0  0  0  0  0  0999 V2000
   -2.4246   40.8031   -0.1644 C   0  0  0  0  0  0  0  0  0  0  0  0
   -2.5058   41.7385   -1.0353 N   0  0  0  0  0  0  0  0  0  0  0  0
    0.4350   32.1304   -2.4869 C   0  0  0  0  0  0  0  0  0  0  0  0
   -0.6320   32.3929   -1.9772 O   0  0  0  0  0  0  0  0  0  0  0  0
   -3.1516   34.6663   -1.8949 C   0  0  0  0  0  0  0  0  0  0  0  0
   -3.3021   34.6089   -3.1926 N   0  0  0  0  0  0  0  0  0  0  0  0
    0.3112   32.0757   -5.8100 C   0  0  0  0  0  0  0  0  0  0  0  0
    6.1550   33.2319   -2.9080 C   0  0  0  0  0  0  0  0  0  0  0  0
   -1.4172   39.0146   -1.3421 C   0  0  2  0  0  0  0  0  0  0  0  0
   -1.3379   40.0491   -0.2364 N   0  0  0  0  0  0  0  0  0  0  0  0
    0.7516   35.1792   -4.0595 C   0  0  2  0  0  0  0  0  0  0  0  0
    3.3104   33.8413   -1.8917 C   0  0  1  0  0  0  0  0  0  0  0  0
    2.6573   34.6567   -2.8006 O   0  0  0  0  0  0  0  0  0  0  0  0
   -1.7534   37.6326   -0.7505 C   0  0  1  0  0  0  0  0  0  0  0  0
   -3.0204   37.7297   -0.1731 O   0  0  0  0  0  0  0  0  0  0  0  0
    1.4068   34.2829   -3.0142 C   0  0  2  0  0  0  0  0  0  0  0  0
    4.6888   34.3072   -1.4773 C   0  0  1  0  0  0  0  0  0  0  0  0
    5.4777   34.4908   -2.6462 N   0  0  0  0  0  0  0  0  0  0  0  0
   -1.8235   36.5389   -1.8246 C   0  0  2  0  0  0  0  0  0  0  0  0
   -2.1409   35.1932   -1.2895 N   0  0  0  0  0  0  0  0  0  0  0  0
    1.1050   32.9533   -3.5544 C   0  0  1  0  0  0  0  0  0  0  0  0
    2.3422   32.3783   -3.9798 O   0  0  0  0  0  0  0  0  0  0  0  0
    4.6233   35.5081   -0.7848 C   0  0  2  0  0  0  0  0  0  0  0  0
    5.8759   35.7223   -0.1846 O   0  0  0  0  0  0  0  0  0  0  0  0
   -0.4799   36.4889   -2.5345 C   0  0  1  0  0  0  0  0  0  0  0  0
   -0.5514   35.4788   -3.5286 O   0  0  0  0  0  0  0  0  0  0  0  0
    0.2369   33.1083   -4.7283 C   0  0  1  0  0  0  0  0  0  0  0  0
    0.5498   34.4057   -5.2199 O   0  0  0  0  0  0  0  0  0  0  0  0
    3.5604   35.4418    0.2803 C   0  0  1  0  0  0  0  0  0  0  0  0
    3.3514   36.7245    0.7935 O   0  0  0  0  0  0  0  0  0  0  0  0
   -0.1573   37.8705   -3.1715 C   0  0  2  0  0  0  0  0  0  0  0  0
    1.1006   37.8006   -3.8410 O   0  0  0  0  0  0  0  0  0  0  0  0
    2.2805   34.9611   -0.3142 C   0  0  1  0  0  0  0  0  0  0  0  0
    2.4999   33.6764   -0.8210 O   0  0  0  0  0  0  0  0  0  0  0  0
   -0.0863   38.9383   -2.0598 C   0  0  1  0  0  0  0  0  0  0  0  0
    0.2122   40.2235   -2.6289 O   0  0  0  0  0  0  0  0  0  0  0  0
    1.1708   34.8602    0.7509 C   0  0  0  0  0  0  0  0  0  0  0  0
    0.1283   34.0235    0.2628 O   0  0  0  0  0  0  0  0  0  0  0  0
   -3.3391   40.6017    0.7218 N   0  0  0  0  0  0  0  0  0  0  0  0
   -4.0595   34.1987   -1.1311 N   0  0  0  0  0  0  0  0  0  0  0  0
  1  2  1  0  0  0  0
  1 39  1  0  0  0  0
  3  4  1  0  0  0  0
  5  6  1  0  0  0  0
  5 40  1  0  0  0  0
  9 10  1  1  0  0  0
  9 14  1  0  0  0  0
  9 35  1  0  0  0  0
 10  1  1  0  0  0  0
 11 16  1  0  0  0  0
 11 28  1  0  0  0  0
 11 26  1  1  0  0  0
 12 17  1  0  0  0  0
 12 34  1  0  0  0  0
 12 13  1  6  0  0  0
 14 15  1  6  0  0  0
 14 19  1  0  0  0  0
 16 13  1  6  0  0  0
 16 21  1  0  0  0  0
 17 18  1  6  0  0  0
 17 23  1  0  0  0  0
 18  8  1  0  0  0  0
 19 20  1  1  0  0  0
 19 25  1  0  0  0  0
 20  5  1  0  0  0  0
 21  3  1  1  0  0  0
 21 22  1  0  0  0  0
 21 27  1  0  0  0  0
 23 24  1  1  0  0  0
 23 29  1  0  0  0  0
 25 26  1  6  0  0  0
 25 31  1  0  0  0  0
 27  7  1  6  0  0  0
 27 28  1  0  0  0  0
 29 30  1  6  0  0  0
 29 33  1  0  0  0  0
 31 32  1  1  0  0  0
 31 35  1  0  0  0  0
 33 34  1  0  0  0  0
 33 37  1  1  0  0  0
 35 36  1  6  0  0  0
 37 38  1  0  0  0  0
M  END
>  <CHROM.1>
-101.88326180,-78.44596425,78.67688908,-173.03968291,-177.84643635,-90.89849004
126.52575680,48.42741608,62.60667677,-168.21825290,-161.79073688,0.58537370
35.72197854,-1.92469273,-2.37699159,0.19998965,-2.66200742

>  <Name>
1nta_lig

>  <RI>
0

>  <Rbt.Current_Directory>
/home/itssahil/PROJECTS/Mol_Feturizer/New_Systems/rnas/1nta

>  <Rbt.Executable>
rbdock ($Id: //depot/dev/client3/rdock/2013.1/src/exe/rbdock.cxx#4 $)

>  <Rbt.Library>
libRbt.so (2013.1, Build901 2013/11/27)

>  <Rbt.Parameter_File>
/export/apps/rDock/src/rDock_2013.1_src/data/scripts/dock_solv.prm

>  <Rbt.Receptor>
prm/pocket_docking_4.prm

>  <SCORE>
-24.6186

>  <SCORE.INTER>
-2.91951

>  <SCORE.INTER.CONST>
1

>  <SCORE.INTER.POLAR>
-0.435032

>  <SCORE.INTER.ROT>
11

>  <SCORE.INTER.SOLV>
9.76402

>  <SCORE.INTER.VDW>
-14.6842

>  <SCORE.INTER.norm>
-0.0729877

>  <SCORE.INTRA>
-21.6991

>  <SCORE.INTRA.DIHEDRAL>
-10.9784

>  <SCORE.INTRA.DIHEDRAL.0>
19.0336

>  <SCORE.INTRA.POLAR>
0

>  <SCORE.INTRA.POLAR.0>
0

>  <SCORE.INTRA.REPUL>
0.010919

>  <SCORE.INTRA.REPUL.0>
0

>  <SCORE.INTRA.SOLV>
-1.64841

>  <SCORE.INTRA.SOLV.lig_0>
-97.5861

>  <SCORE.INTRA.VDW>
-15.4403

>  <SCORE.INTRA.VDW.0>
11.7669

>  <SCORE.INTRA.norm>
-0.542478

>  <SCORE.RESTR>
0

>  <SCORE.RESTR.CAVITY>
0

>  <SCORE.RESTR.norm>
0

>  <SCORE.SYSTEM>
0

>  <SCORE.SYSTEM.CONST>
0

>  <SCORE.SYSTEM.DIHEDRAL>
0

>  <SCORE.SYSTEM.SOLV>
0

>  <SCORE.SYSTEM.norm>
0

>  <SCORE.heavy>
40

>  <SCORE.norm>
-0.615466

>  <RMSD>
7.304

$$$$
1nta_lig
 OpenBabel11021811403D
libRbt.so/2013.1/901 2013/11/27
 40 42  0  0  0  0  0  0  0  0999 V2000
    1.3960   41.9987   -6.5279 C   0  0  0  0  0  0  0  0  0  0  0  0
    2.0009   43.0328   -6.9805 N   0  0  0  0  0  0  0  0  0  0  0  0
    4.7070   35.9150    0.7048 C   0  0  0  0  0  0  0  0  0  0  0  0
    4.1686   34.8842    1.0436 O   0  0  0  0  0  0  0  0  0  0  0  0
    0.7527   36.7501   -3.5027 C   0  0  0  0  0  0  0  0  0  0  0  0
    1.7340   35.9300   -3.7757 N   0  0  0  0  0  0  0  0  0  0  0  0
    6.4699   38.6980    1.1615 C   0  0  0  0  0  0  0  0  0  0  0  0
   -1.0421   35.0956    1.7095 C   0  0  0  0  0  0  0  0  0  0  0  0
    1.8884   41.0000   -4.4396 C   0  0  2  0  0  0  0  0  0  0  0  0
    1.1066   42.0269   -5.2355 N   0  0  0  0  0  0  0  0  0  0  0  0
    3.0076   38.8735    0.2277 C   0  0  2  0  0  0  0  0  0  0  0  0
    0.7682   37.8191    1.5246 C   0  0  1  0  0  0  0  0  0  0  0  0
    2.0657   37.6083    1.9601 O   0  0  0  0  0  0  0  0  0  0  0  0
    0.9509   39.8742   -3.9635 C   0  0  1  0  0  0  0  0  0  0  0  0
    0.4601   39.2378   -5.1045 O   0  0  0  0  0  0  0  0  0  0  0  0
    2.9330   37.5402    0.9639 C   0  0  2  0  0  0  0  0  0  0  0  0
   -0.3114   37.1872    2.3756 C   0  0  1  0  0  0  0  0  0  0  0  0
   -0.0405   35.7964    2.4955 N   0  0  0  0  0  0  0  0  0  0  0  0
    1.6858   38.8156   -3.1304 C   0  0  2  0  0  0  0  0  0  0  0  0
    0.8120   37.7179   -2.6510 N   0  0  0  0  0  0  0  0  0  0  0  0
    4.3531   37.2826    1.2244 C   0  0  1  0  0  0  0  0  0  0  0  0
    4.5510   37.3899    2.6356 O   0  0  0  0  0  0  0  0  0  0  0  0
   -0.3426   37.7511    3.6433 C   0  0  2  0  0  0  0  0  0  0  0  0
   -1.5342   37.3382    4.2636 O   0  0  0  0  0  0  0  0  0  0  0  0
    2.3147   39.5110   -1.9335 C   0  0  1  0  0  0  0  0  0  0  0  0
    2.9956   38.5285   -1.1688 O   0  0  0  0  0  0  0  0  0  0  0  0
    5.1492   38.3241    0.5632 C   0  0  1  0  0  0  0  0  0  0  0  0
    4.2698   39.4398    0.4957 O   0  0  0  0  0  0  0  0  0  0  0  0
   -0.3196   39.2541    3.5492 C   0  0  1  0  0  0  0  0  0  0  0  0
   -0.1094   39.7856    4.8243 O   0  0  0  0  0  0  0  0  0  0  0  0
    3.2961   40.6191   -2.4107 C   0  0  2  0  0  0  0  0  0  0  0  0
    3.8831   41.2522   -1.2750 O   0  0  0  0  0  0  0  0  0  0  0  0
    0.8042   39.6869    2.6704 C   0  0  1  0  0  0  0  0  0  0  0  0
    0.5819   39.1531    1.3972 O   0  0  0  0  0  0  0  0  0  0  0  0
    2.5179   41.6663   -3.2347 C   0  0  1  0  0  0  0  0  0  0  0  0
    3.4082   42.7006   -3.6846 O   0  0  0  0  0  0  0  0  0  0  0  0
    0.8489   41.2216    2.5326 C   0  0  0  0  0  0  0  0  0  0  0  0
    1.9638   41.5868    1.7272 O   0  0  0  0  0  0  0  0  0  0  0  0
    1.0916   40.9931   -7.2750 N   0  0  0  0  0  0  0  0  0  0  0  0
   -0.3581   36.6353   -4.1185 N   0  0  0  0  0  0  0  0  0  0  0  0
  1  2  1  0  0  0  0
  1 39  1  0  0  0  0
  3  4  1  0  0  0  0
  5  6  1  0  0  0  0
  5 40  1  0  0  0  0
  9 10  1  1  0  0  0
  9 14  1  0  0  0  0
  9 35  1  0  0  0  0
 10  1  1  0  0  0  0
 11 16  1  0  0  0  0
 11 28  1  0  0  0  0
 11 26  1  6  0  0  0
 12 17  1  0  0  0  0
 12 34  1  0  0  0  0
 12 13  1  1  0  0  0
 14 15  1  6  0  0  0
 14 19  1  0  0  0  0
 16 13  1  1  0  0  0
 16 21  1  0  0  0  0
 17 18  1  1  0  0  0
 17 23  1  0  0  0  0
 18  8  1  0  0  0  0
 19 20  1  1  0  0  0
 19 25  1  0  0  0  0
 20  5  1  0  0  0  0
 21  3  1  6  0  0  0
 21 22  1  0  0  0  0
 21 27  1  0  0  0  0
 23 24  1  6  0  0  0
 23 29  1  0  0  0  0
 25 26  1  6  0  0  0
 25 31  1  0  0  0  0
 27  7  1  1  0  0  0
 27 28  1  0  0  0  0
 29 30  1  1  0  0  0
 29 33  1  0  0  0  0
 31 32  1  1  0  0  0
 31 35  1  0  0  0  0
 33 34  1  0  0  0  0
 33 37  1  6  0  0  0
 35 36  1  6  0  0  0
 37 38  1  0  0  0  0
M  END
>  <CHROM.1>
-109.31742571,-112.81367039,146.21518544,147.73053342,64.33012828,-108.99480553
89.19200537,70.27374736,-57.40401652,-149.74313262,177.89194480,1.88724286
38.89643835,-0.60869993,1.50390567,-0.50716180,-1.21584140

>  <Name>
1nta_lig

>  <RI>
0

>  <Rbt.Current_Directory>
/home/itssahil/PROJECTS/Mol_Feturizer/New_Systems/rnas/1nta

>  <Rbt.Executable>
rbdock ($Id: //depot/dev/client3/rdock/2013.1/src/exe/rbdock.cxx#4 $)

>  <Rbt.Library>
libRbt.so (2013.1, Build901 2013/11/27)

>  <Rbt.Parameter_File>
/export/apps/rDock/src/rDock_2013.1_src/data/scripts/dock_solv.prm

>  <Rbt.Receptor>
prm/pocket_docking_7.prm

>  <SCORE>
-26.2103

>  <SCORE.INTER>
-6.05146

>  <SCORE.INTER.CONST>
1

>  <SCORE.INTER.POLAR>
-0.778609

>  <SCORE.INTER.ROT>
11

>  <SCORE.INTER.SOLV>
16.8853

>  <SCORE.INTER.VDW>
-18.0007

>  <SCORE.INTER.norm>
-0.151286

>  <SCORE.INTRA>
-20.1588

>  <SCORE.INTRA.DIHEDRAL>
-2.95643

>  <SCORE.INTRA.DIHEDRAL.0>
19.0336

>  <SCORE.INTRA.POLAR>
0

>  <SCORE.INTRA.POLAR.0>
0

>  <SCORE.INTRA.REPUL>
0.0395068

>  <SCORE.INTRA.REPUL.0>
0

>  <SCORE.INTRA.SOLV>
-4.80076

>  <SCORE.INTRA.SOLV.lig_0>
-97.5861

>  <SCORE.INTRA.VDW>
-16.4778

>  <SCORE.INTRA.VDW.0>
11.7669

>  <SCORE.INTRA.norm>
-0.503971

>  <SCORE.RESTR>
0

>  <SCORE.RESTR.CAVITY>
0

>  <SCORE.RESTR.norm>
0

>  <SCORE.SYSTEM>
0

>  <SCORE.SYSTEM.CONST>
0

>  <SCORE.SYSTEM.DIHEDRAL>
0

>  <SCORE.SYSTEM.SOLV>
0

>  <SCORE.SYSTEM.norm>
0

>  <SCORE.heavy>
40

>  <SCORE.norm>
-0.655257

>  <RMSD>
7.308

$$$$
1nta_lig
 OpenBabel11021811403D
libRbt.so/2013.1/901 2013/11/27
 40 42  0  0  0  0  0  0  0  0999 V2000
   -0.6946   33.8007   -7.5347 C   0  0  0  0  0  0  0  0  0  0  0  0
   -1.3753   34.6612   -8.1952 N   0  0  0  0  0  0  0  0  0  0  0  0
   -0.0253   35.5805    1.6230 C   0  0  0  0  0  0  0  0  0  0  0  0
   -0.5871   36.0637    2.5813 O   0  0  0  0  0  0  0  0  0  0  0  0
   -2.7632   35.8524   -1.8692 C   0  0  0  0  0  0  0  0  0  0  0  0
   -3.2854   36.8844   -2.4793 N   0  0  0  0  0  0  0  0  0  0  0  0
   -0.7660   32.7384    3.1835 C   0  0  0  0  0  0  0  0  0  0  0  0
    2.6366   37.8168    1.3556 C   0  0  0  0  0  0  0  0  0  0  0  0
   -0.4787   33.7524   -5.1785 C   0  0  2  0  0  0  0  0  0  0  0  0
    0.0003   34.2834   -6.5155 N   0  0  0  0  0  0  0  0  0  0  0  0
    0.5240   32.6886   -0.1668 C   0  0  2  0  0  0  0  0  0  0  0  0
    3.0710   35.0011   -0.4553 C   0  0  1  0  0  0  0  0  0  0  0  0
    2.5077   33.8930    0.1548 O   0  0  0  0  0  0  0  0  0  0  0  0
   -0.7642   34.9212   -4.2166 C   0  0  1  0  0  0  0  0  0  0  0  0
   -1.8062   35.6655   -4.7718 O   0  0  0  0  0  0  0  0  0  0  0  0
    1.1935   33.9872    0.2697 C   0  0  2  0  0  0  0  0  0  0  0  0
    3.7425   35.9835    0.4790 C   0  0  1  0  0  0  0  0  0  0  0  0
    2.8063   36.3783    1.4738 N   0  0  0  0  0  0  0  0  0  0  0  0
   -1.2311   34.4407   -2.8361 C   0  0  2  0  0  0  0  0  0  0  0  0
   -1.5110   35.5404   -1.8820 N   0  0  0  0  0  0  0  0  0  0  0  0
    0.5701   34.1987    1.5802 C   0  0  1  0  0  0  0  0  0  0  0  0
    1.5881   34.0207    2.5671 O   0  0  0  0  0  0  0  0  0  0  0  0
    4.8441   35.4106    1.0990 C   0  0  2  0  0  0  0  0  0  0  0  0
    5.5769   36.4450    1.7057 O   0  0  0  0  0  0  0  0  0  0  0  0
   -0.1482   33.5431   -2.2585 C   0  0  1  0  0  0  0  0  0  0  0  0
   -0.5866   33.0990   -0.9840 O   0  0  0  0  0  0  0  0  0  0  0  0
   -0.4585   33.1710    1.7834 C   0  0  1  0  0  0  0  0  0  0  0  0
   -0.0198   32.0807    0.9823 O   0  0  0  0  0  0  0  0  0  0  0  0
    5.7098   34.7087    0.0858 C   0  0  1  0  0  0  0  0  0  0  0  0
    6.6680   33.9459    0.7583 O   0  0  0  0  0  0  0  0  0  0  0  0
    0.1116   32.3373   -3.2056 C   0  0  2  0  0  0  0  0  0  0  0  0
    1.1219   31.5024   -2.6422 O   0  0  0  0  0  0  0  0  0  0  0  0
    4.8752   33.7901   -0.7401 C   0  0  1  0  0  0  0  0  0  0  0  0
    3.9230   34.5638   -1.4110 O   0  0  0  0  0  0  0  0  0  0  0  0
    0.5874   32.8617   -4.5767 C   0  0  1  0  0  0  0  0  0  0  0  0
    0.8341   31.7610   -5.4670 O   0  0  0  0  0  0  0  0  0  0  0  0
    5.7237   33.0666   -1.8045 C   0  0  0  0  0  0  0  0  0  0  0  0
    6.5603   32.1096   -1.1647 O   0  0  0  0  0  0  0  0  0  0  0  0
   -0.6797   32.5483   -7.8405 N   0  0  0  0  0  0  0  0  0  0  0  0
   -3.5083   35.0818   -1.1783 N   0  0  0  0  0  0  0  0  0  0  0  0
  1  2  1  0  0  0  0
  1 39  1  0  0  0  0
  3  4  1  0  0  0  0
  5  6  1  0  0  0  0
  5 40  1  0  0  0  0
  9 10  1  6  0  0  0
  9 14  1  0  0  0  0
  9 35  1  0  0  0  0
 10  1  1  0  0  0  0
 11 16  1  0  0  0  0
 11 28  1  0  0  0  0
 11 26  1  6  0  0  0
 12 17  1  0  0  0  0
 12 34  1  0  0  0  0
 12 13  1  1  0  0  0
 14 15  1  6  0  0  0
 14 19  1  0  0  0  0
 16 13  1  1  0  0  0
 16 21  1  0  0  0  0
 17 18  1  1  0  0  0
 17 23  1  0  0  0  0
 18  8  1  0  0  0  0
 19 20  1  1  0  0  0
 19 25  1  0  0  0  0
 20  5  1  0  0  0  0
 21  3  1  1  0  0  0
 21 22  1  0  0  0  0
 21 27  1  0  0  0  0
 23 24  1  6  0  0  0
 23 29  1  0  0  0  0
 25 26  1  1  0  0  0
 25 31  1  0  0  0  0
 27  7  1  1  0  0  0
 27 28  1  0  0  0  0
 29 30  1  1  0  0  0
 29 33  1  0  0  0  0
 31 32  1  1  0  0  0
 31 35  1  0  0  0  0
 33 34  1  0  0  0  0
 33 37  1  6  0  0  0
 35 36  1  6  0  0  0
 37 38  1  0  0  0  0
M  END
>  <CHROM.1>
-127.48228618,115.33214818,74.64673109,102.19298928,133.86952468,-119.53783087
95.36126974,-101.27656793,-178.43473716,-158.05838471,71.21046501,1.15658652
34.24085647,-1.39481697,-2.21837742,-0.15221910,1.34676880

>  <Name>
1nta_lig

>  <RI>
0

>  <Rbt.Current_Directory>
/home/itssahil/PROJECTS/Mol_Feturizer/New_Systems/rnas/1nta

>  <Rbt.Executable>
rbdock ($Id: //depot/dev/client3/rdock/2013.1/src/exe/rbdock.cxx#4 $)

>  <Rbt.Library>
libRbt.so (2013.1, Build901 2013/11/27)

>  <Rbt.Parameter_File>
/export/apps/rDock/src/rDock_2013.1_src/data/scripts/dock_solv.prm

>  <Rbt.Receptor>
prm/pocket_docking_5.prm

>  <SCORE>
-22.0779

>  <SCORE.INTER>
-2.78675

>  <SCORE.INTER.CONST>
1

>  <SCORE.INTER.POLAR>
0

>  <SCORE.INTER.ROT>
11

>  <SCORE.INTER.SOLV>
12.0218

>  <SCORE.INTER.VDW>
-16.7984

>  <SCORE.INTER.norm>
-0.0696687

>  <SCORE.INTRA>
-19.2911

>  <SCORE.INTRA.DIHEDRAL>
0.622812

>  <SCORE.INTRA.DIHEDRAL.0>
19.0336

>  <SCORE.INTRA.POLAR>
0

>  <SCORE.INTRA.POLAR.0>
0

>  <SCORE.INTRA.REPUL>
0

>  <SCORE.INTRA.REPUL.0>
0

>  <SCORE.INTRA.SOLV>
-3.35418

>  <SCORE.INTRA.SOLV.lig_0>
-97.5861

>  <SCORE.INTRA.VDW>
-17.9254

>  <SCORE.INTRA.VDW.0>
11.7669

>  <SCORE.INTRA.norm>
-0.482278

>  <SCORE.RESTR>
0

>  <SCORE.RESTR.CAVITY>
0

>  <SCORE.RESTR.norm>
0

>  <SCORE.SYSTEM>
0

>  <SCORE.SYSTEM.CONST>
0

>  <SCORE.SYSTEM.DIHEDRAL>
0

>  <SCORE.SYSTEM.SOLV>
0

>  <SCORE.SYSTEM.norm>
0

>  <SCORE.heavy>
40

>  <SCORE.norm>
-0.551947

>  <RMSD>
7.325

$$$$
1nta_lig
 OpenBabel11021811403D
libRbt.so/2013.1/901 2013/11/27
 40 42  0  0  0  0  0  0  0  0999 V2000
   -0.7968   34.0581   -6.2782 C   0  0  0  0  0  0  0  0  0  0  0  0
   -1.3623   32.9522   -5.9661 N   0  0  0  0  0  0  0  0  0  0  0  0
    3.4510   39.6939   -0.6145 C   0  0  0  0  0  0  0  0  0  0  0  0
    3.8550   40.8260   -0.4652 O   0  0  0  0  0  0  0  0  0  0  0  0
    0.2023   39.8594   -3.6743 C   0  0  0  0  0  0  0  0  0  0  0  0
   -0.4481   40.5609   -2.7828 N   0  0  0  0  0  0  0  0  0  0  0  0
    1.5743   40.4488    2.0255 C   0  0  0  0  0  0  0  0  0  0  0  0
    6.5189   37.7821    1.2218 C   0  0  0  0  0  0  0  0  0  0  0  0
   -0.1250   35.2997   -4.3788 C   0  0  2  0  0  0  0  0  0  0  0  0
    0.2479   34.3942   -5.5363 N   0  0  0  0  0  0  0  0  0  0  0  0
    1.0502   37.3766    0.2428 C   0  0  2  0  0  0  0  0  0  0  0  0
    4.4107   36.2902   -0.2884 C   0  0  1  0  0  0  0  0  0  0  0  0
    3.2071   36.4710    0.3721 O   0  0  0  0  0  0  0  0  0  0  0  0
    0.6249   36.6404   -4.4931 C   0  0  1  0  0  0  0  0  0  0  0  0
    0.1890   37.2566   -5.6670 O   0  0  0  0  0  0  0  0  0  0  0  0
    2.5355   37.5209   -0.0704 C   0  0  2  0  0  0  0  0  0  0  0  0
    5.5504   35.7851    0.5688 C   0  0  1  0  0  0  0  0  0  0  0  0
    5.7109   36.6629    1.6760 N   0  0  0  0  0  0  0  0  0  0  0  0
    0.3030   37.5905   -3.3318 C   0  0  2  0  0  0  0  0  0  0  0  0
    1.0119   38.8904   -3.4071 N   0  0  0  0  0  0  0  0  0  0  0  0
    2.8064   38.8608    0.4608 C   0  0  1  0  0  0  0  0  0  0  0  0
    3.6553   38.7013    1.5993 O   0  0  0  0  0  0  0  0  0  0  0  0
    5.2915   34.5062    1.0416 C   0  0  2  0  0  0  0  0  0  0  0  0
    6.4908   33.9956    1.5669 O   0  0  0  0  0  0  0  0  0  0  0  0
    0.6781   36.8925   -2.0341 C   0  0  1  0  0  0  0  0  0  0  0  0
    0.3752   37.7737   -0.9639 O   0  0  0  0  0  0  0  0  0  0  0  0
    1.5399   39.4556    0.9055 C   0  0  1  0  0  0  0  0  0  0  0  0
    0.7252   38.3342    1.2242 O   0  0  0  0  0  0  0  0  0  0  0  0
    4.8159   33.6193   -0.0791 C   0  0  1  0  0  0  0  0  0  0  0  0
    4.3376   32.4226    0.4609 O   0  0  0  0  0  0  0  0  0  0  0  0
   -0.1106   35.5595   -1.8937 C   0  0  2  0  0  0  0  0  0  0  0  0
    0.2468   34.9254   -0.6667 O   0  0  0  0  0  0  0  0  0  0  0  0
    3.6981   34.2839   -0.8080 C   0  0  1  0  0  0  0  0  0  0  0  0
    4.1883   35.4775   -1.3469 O   0  0  0  0  0  0  0  0  0  0  0  0
    0.2477   34.6308   -3.0728 C   0  0  1  0  0  0  0  0  0  0  0  0
   -0.4712   33.3917   -2.9605 O   0  0  0  0  0  0  0  0  0  0  0  0
    3.1961   33.4142   -1.9776 C   0  0  0  0  0  0  0  0  0  0  0  0
    2.2240   32.4947   -1.4933 O   0  0  0  0  0  0  0  0  0  0  0  0
   -1.2157   34.8005   -7.2455 N   0  0  0  0  0  0  0  0  0  0  0  0
    0.0361   40.1022   -4.9152 N   0  0  0  0  0  0  0  0  0  0  0  0
  1  2  1  0  0  0  0
  1 39  1  0  0  0  0
  3  4  1  0  0  0  0
  5  6  1  0  0  0  0
  5 40  1  0  0  0  0
  9 10  1  6  0  0  0
  9 14  1  0  0  0  0
  9 35  1  0  0  0  0
 10  1  1  0  0  0  0
 11 16  1  0  0  0  0
 11 28  1  0  0  0  0
 11 26  1  6  0  0  0
 12 17  1  0  0  0  0
 12 34  1  0  0  0  0
 12 13  1  1  0  0  0
 14 15  1  6  0  0  0
 14 19  1  0  0  0  0
 16 13  1  1  0  0  0
 16 21  1  0  0  0  0
 17 18  1  1  0  0  0
 17 23  1  0  0  0  0
 18  8  1  0  0  0  0
 19 20  1  6  0  0  0
 19 25  1  0  0  0  0
 20  5  1  0  0  0  0
 21  3  1  6  0  0  0
 21 22  1  0  0  0  0
 21 27  1  0  0  0  0
 23 24  1  6  0  0  0
 23 29  1  0  0  0  0
 25 26  1  1  0  0  0
 25 31  1  0  0  0  0
 27  7  1  1  0  0  0
 27 28  1  0  0  0  0
 29 30  1  1  0  0  0
 29 33  1  0  0  0  0
 31 32  1  1  0  0  0
 31 35  1  0  0  0  0
 33 34  1  0  0  0  0
 33 37  1  6  0  0  0
 35 36  1  1  0  0  0
 37 38  1  0  0  0  0
M  END
>  <CHROM.1>
-119.81501267,-93.79908525,63.81299998,143.70866634,157.28607188,-83.03959622
109.99309372,88.97314227,-176.16388977,-162.75876112,85.96881188,2.03739431
36.48848701,-1.53039953,-2.73918338,-0.81929921,0.32440596

>  <Name>
1nta_lig

>  <RI>
0

>  <Rbt.Current_Directory>
/home/itssahil/PROJECTS/Mol_Feturizer/New_Systems/rnas/1nta

>  <Rbt.Executable>
rbdock ($Id: //depot/dev/client3/rdock/2013.1/src/exe/rbdock.cxx#4 $)

>  <Rbt.Library>
libRbt.so (2013.1, Build901 2013/11/27)

>  <Rbt.Parameter_File>
/export/apps/rDock/src/rDock_2013.1_src/data/scripts/dock_solv.prm

>  <Rbt.Receptor>
prm/pocket_docking_5.prm

>  <SCORE>
-23.1617

>  <SCORE.INTER>
-1.31612

>  <SCORE.INTER.CONST>
1

>  <SCORE.INTER.POLAR>
0

>  <SCORE.INTER.ROT>
11

>  <SCORE.INTER.SOLV>
12.5923

>  <SCORE.INTER.VDW>
-16.0082

>  <SCORE.INTER.norm>
-0.0329031

>  <SCORE.INTRA>
-21.8456

>  <SCORE.INTRA.DIHEDRAL>
-4.45952

>  <SCORE.INTRA.DIHEDRAL.0>
19.0336

>  <SCORE.INTRA.POLAR>
0

>  <SCORE.INTRA.POLAR.0>
0

>  <SCORE.INTRA.REPUL>
0

>  <SCORE.INTRA.REPUL.0>
0

>  <SCORE.INTRA.SOLV>
-2.8911

>  <SCORE.INTRA.SOLV.lig_0>
-97.5861

>  <SCORE.INTRA.VDW>
-18.1703

>  <SCORE.INTRA.VDW.0>
11.7669

>  <SCORE.INTRA.norm>
-0.54614

>  <SCORE.RESTR>
0

>  <SCORE.RESTR.CAVITY>
0

>  <SCORE.RESTR.norm>
0

>  <SCORE.SYSTEM>
0

>  <SCORE.SYSTEM.CONST>
0

>  <SCORE.SYSTEM.DIHEDRAL>
0

>  <SCORE.SYSTEM.SOLV>
0

>  <SCORE.SYSTEM.norm>
0

>  <SCORE.heavy>
40

>  <SCORE.norm>
-0.579043

>  <RMSD>
7.329

$$$$
1nta_lig
 OpenBabel11021811403D
libRbt.so/2013.1/901 2013/11/27
 40 42  0  0  0  0  0  0  0  0999 V2000
   -3.2871   35.3040   -5.7084 C   0  0  0  0  0  0  0  0  0  0  0  0
   -2.8475   34.6543   -6.7207 N   0  0  0  0  0  0  0  0  0  0  0  0
    1.7933   38.6216    1.7211 C   0  0  0  0  0  0  0  0  0  0  0  0
    0.6441   38.2615    1.8510 O   0  0  0  0  0  0  0  0  0  0  0  0
   -1.9850   36.9059    0.4397 C   0  0  0  0  0  0  0  0  0  0  0  0
   -1.4929   36.0914    1.3365 N   0  0  0  0  0  0  0  0  0  0  0  0
    3.8568   36.0748    2.2845 C   0  0  0  0  0  0  0  0  0  0  0  0
    5.6146   41.3149    0.1790 C   0  0  0  0  0  0  0  0  0  0  0  0
   -1.6927   35.8628   -4.0512 C   0  0  2  0  0  0  0  0  0  0  0  0
   -2.5001   36.2738   -5.2670 N   0  0  0  0  0  0  0  0  0  0  0  0
    2.4679   36.5987   -0.9846 C   0  0  2  0  0  0  0  0  0  0  0  0
    3.0174   40.1587   -1.1186 C   0  0  1  0  0  0  0  0  0  0  0  0
    3.1644   38.8035   -1.3621 O   0  0  0  0  0  0  0  0  0  0  0  0
   -1.9264   36.8589   -2.8997 C   0  0  1  0  0  0  0  0  0  0  0  0
   -3.2765   36.7797   -2.5549 O   0  0  0  0  0  0  0  0  0  0  0  0
    2.4471   38.0569   -0.5392 C   0  0  2  0  0  0  0  0  0  0  0  0
    4.1582   41.0302   -1.5959 C   0  0  1  0  0  0  0  0  0  0  0  0
    5.3691   40.5455   -1.0292 N   0  0  0  0  0  0  0  0  0  0  0  0
   -1.1136   36.5047   -1.6472 C   0  0  2  0  0  0  0  0  0  0  0  0
   -1.3107   37.4462   -0.5190 N   0  0  0  0  0  0  0  0  0  0  0  0
    2.8231   37.9255    0.8722 C   0  0  1  0  0  0  0  0  0  0  0  0
    4.1218   38.5032    1.0199 O   0  0  0  0  0  0  0  0  0  0  0  0
    4.2647   41.0007   -2.9794 C   0  0  2  0  0  0  0  0  0  0  0  0
    5.1292   42.0405   -3.3620 O   0  0  0  0  0  0  0  0  0  0  0  0
    0.3578   36.4865   -2.0299 C   0  0  1  0  0  0  0  0  0  0  0  0
    1.1042   36.1550   -0.8694 O   0  0  0  0  0  0  0  0  0  0  0  0
    2.9090   36.4982    1.2055 C   0  0  1  0  0  0  0  0  0  0  0  0
    3.2132   35.8721   -0.0348 O   0  0  0  0  0  0  0  0  0  0  0  0
    2.9148   41.2102   -3.6137 C   0  0  1  0  0  0  0  0  0  0  0  0
    3.0085   40.9378   -4.9809 O   0  0  0  0  0  0  0  0  0  0  0  0
    0.6055   35.4494   -3.1621 C   0  0  2  0  0  0  0  0  0  0  0  0
    1.9916   35.4395   -3.4997 O   0  0  0  0  0  0  0  0  0  0  0  0
    1.9253   40.2691   -3.0155 C   0  0  1  0  0  0  0  0  0  0  0  0
    1.8367   40.5527   -1.6491 O   0  0  0  0  0  0  0  0  0  0  0  0
   -0.2205   35.8460   -4.4037 C   0  0  1  0  0  0  0  0  0  0  0  0
   -0.0043   34.8992   -5.4628 O   0  0  0  0  0  0  0  0  0  0  0  0
    0.5237   40.4668   -3.6259 C   0  0  0  0  0  0  0  0  0  0  0  0
    0.0738   41.7877   -3.3465 O   0  0  0  0  0  0  0  0  0  0  0  0
   -4.4170   35.0327   -5.1498 N   0  0  0  0  0  0  0  0  0  0  0  0
   -3.2262   37.1980    0.4629 N   0  0  0  0  0  0  0  0  0  0  0  0
  1  2  1  0  0  0  0
  1 39  1  0  0  0  0
  3  4  1  0  0  0  0
  5  6  1  0  0  0  0
  5 40  1  0  0  0  0
  9 10  1  6  0  0  0
  9 14  1  0  0  0  0
  9 35  1  0  0  0  0
 10  1  1  0  0  0  0
 11 16  1  0  0  0  0
 11 28  1  0  0  0  0
 11 26  1  1  0  0  0
 12 17  1  0  0  0  0
 12 34  1  0  0  0  0
 12 13  1  6  0  0  0
 14 15  1  1  0  0  0
 14 19  1  0  0  0  0
 16 13  1  6  0  0  0
 16 21  1  0  0  0  0
 17 18  1  1  0  0  0
 17 23  1  0  0  0  0
 18  8  1  0  0  0  0
 19 20  1  1  0  0  0
 19 25  1  0  0  0  0
 20  5  1  0  0  0  0
 21  3  1  1  0  0  0
 21 22  1  0  0  0  0
 21 27  1  0  0  0  0
 23 24  1  6  0  0  0
 23 29  1  0  0  0  0
 25 26  1  1  0  0  0
 25 31  1  0  0  0  0
 27  7  1  1  0  0  0
 27 28  1  0  0  0  0
 29 30  1  6  0  0  0
 29 33  1  0  0  0  0
 31 32  1  6  0  0  0
 31 35  1  0  0  0  0
 33 34  1  0  0  0  0
 33 37  1  6  0  0  0
 35 36  1  6  0  0  0
 37 38  1  0  0  0  0
M  END
>  <CHROM.1>
-125.24349625,-100.20759391,84.58332016,156.63187501,171.01980989,-94.79265370
109.02227100,79.76392757,67.24143803,-158.01728540,-61.71219242,1.04158284
37.91841499,-1.88885298,-3.00776118,0.68932371,1.99117293

>  <Name>
1nta_lig

>  <RI>
0

>  <Rbt.Current_Directory>
/home/itssahil/PROJECTS/Mol_Feturizer/New_Systems/rnas/1nta

>  <Rbt.Executable>
rbdock ($Id: //depot/dev/client3/rdock/2013.1/src/exe/rbdock.cxx#4 $)

>  <Rbt.Library>
libRbt.so (2013.1, Build901 2013/11/27)

>  <Rbt.Parameter_File>
/export/apps/rDock/src/rDock_2013.1_src/data/scripts/dock_solv.prm

>  <Rbt.Receptor>
prm/pocket_docking_7.prm

>  <SCORE>
-26.1279

>  <SCORE.INTER>
-2.81899

>  <SCORE.INTER.CONST>
1

>  <SCORE.INTER.POLAR>
-0.804966

>  <SCORE.INTER.ROT>
11

>  <SCORE.INTER.SOLV>
10.9045

>  <SCORE.INTER.VDW>
-13.7643

>  <SCORE.INTER.norm>
-0.0704748

>  <SCORE.INTRA>
-23.309

>  <SCORE.INTRA.DIHEDRAL>
-7.0477

>  <SCORE.INTRA.DIHEDRAL.0>
19.0336

>  <SCORE.INTRA.POLAR>
0

>  <SCORE.INTRA.POLAR.0>
0

>  <SCORE.INTRA.REPUL>
0.00435462

>  <SCORE.INTRA.REPUL.0>
0

>  <SCORE.INTRA.SOLV>
-2.73468

>  <SCORE.INTRA.SOLV.lig_0>
-97.5861

>  <SCORE.INTRA.VDW>
-18.4395

>  <SCORE.INTRA.VDW.0>
11.7669

>  <SCORE.INTRA.norm>
-0.582724

>  <SCORE.RESTR>
0

>  <SCORE.RESTR.CAVITY>
0

>  <SCORE.RESTR.norm>
0

>  <SCORE.SYSTEM>
0

>  <SCORE.SYSTEM.CONST>
0

>  <SCORE.SYSTEM.DIHEDRAL>
0

>  <SCORE.SYSTEM.SOLV>
0

>  <SCORE.SYSTEM.norm>
0

>  <SCORE.heavy>
40

>  <SCORE.norm>
-0.653199

>  <RMSD>
7.335

$$$$
1nta_lig
 OpenBabel11021811403D
libRbt.so/2013.1/901 2013/11/27
 40 42  0  0  0  0  0  0  0  0999 V2000
    1.0101   39.5754   -7.9411 C   0  0  0  0  0  0  0  0  0  0  0  0
    1.7036   40.6319   -8.1482 N   0  0  0  0  0  0  0  0  0  0  0  0
    0.5154   32.7506   -0.7082 C   0  0  0  0  0  0  0  0  0  0  0  0
    0.8423   32.6810    0.4561 O   0  0  0  0  0  0  0  0  0  0  0  0
   -2.4396   35.8094   -4.6124 C   0  0  0  0  0  0  0  0  0  0  0  0
   -2.9581   36.1865   -3.4728 N   0  0  0  0  0  0  0  0  0  0  0  0
    0.6735   31.9643   -3.9359 C   0  0  0  0  0  0  0  0  0  0  0  0
    5.9462   31.9267   -0.7909 C   0  0  0  0  0  0  0  0  0  0  0  0
    0.6124   38.4948   -5.8735 C   0  0  2  0  0  0  0  0  0  0  0  0
    0.2529   39.5938   -6.8544 N   0  0  0  0  0  0  0  0  0  0  0  0
    1.5253   35.2715   -2.8280 C   0  0  2  0  0  0  0  0  0  0  0  0
    3.5940   34.0670   -0.1251 C   0  0  1  0  0  0  0  0  0  0  0  0
    3.1847   34.7484   -1.2590 O   0  0  0  0  0  0  0  0  0  0  0  0
   -0.5092   37.4400   -5.8265 C   0  0  1  0  0  0  0  0  0  0  0  0
   -0.5851   36.8636   -7.0954 O   0  0  0  0  0  0  0  0  0  0  0  0
    1.9101   34.5422   -1.5453 C   0  0  2  0  0  0  0  0  0  0  0  0
    5.0907   33.9123    0.0327 C   0  0  1  0  0  0  0  0  0  0  0  0
    5.6107   33.2972   -1.1392 N   0  0  0  0  0  0  0  0  0  0  0  0
   -0.2091   36.3124   -4.8299 C   0  0  2  0  0  0  0  0  0  0  0  0
   -1.2710   35.2805   -4.7551 N   0  0  0  0  0  0  0  0  0  0  0  0
    1.4162   33.1911   -1.8308 C   0  0  1  0  0  0  0  0  0  0  0  0
    2.5582   32.3431   -1.9685 O   0  0  0  0  0  0  0  0  0  0  0  0
    5.7051   35.1447    0.2052 C   0  0  2  0  0  0  0  0  0  0  0  0
    7.0216   34.9074    0.6359 O   0  0  0  0  0  0  0  0  0  0  0  0
   -0.0220   36.9356   -3.4557 C   0  0  1  0  0  0  0  0  0  0  0  0
    0.2587   35.8894   -2.5390 O   0  0  0  0  0  0  0  0  0  0  0  0
    0.6973   33.2134   -3.1107 C   0  0  1  0  0  0  0  0  0  0  0  0
    1.2860   34.2978   -3.8181 O   0  0  0  0  0  0  0  0  0  0  0  0
    4.9745   35.9538    1.2445 C   0  0  1  0  0  0  0  0  0  0  0  0
    5.4609   37.2636    1.2246 O   0  0  0  0  0  0  0  0  0  0  0  0
    1.1395   37.9693   -3.4884 C   0  0  2  0  0  0  0  0  0  0  0  0
    1.3063   38.5348   -2.1892 O   0  0  0  0  0  0  0  0  0  0  0  0
    3.5191   35.9899    0.9236 C   0  0  1  0  0  0  0  0  0  0  0  0
    3.0422   34.6756    0.9499 O   0  0  0  0  0  0  0  0  0  0  0  0
    0.7951   39.0888   -4.4930 C   0  0  1  0  0  0  0  0  0  0  0  0
    1.8571   40.0557   -4.5370 O   0  0  0  0  0  0  0  0  0  0  0  0
    2.7324   36.7938    1.9777 C   0  0  0  0  0  0  0  0  0  0  0  0
    1.3500   36.7810    1.6402 O   0  0  0  0  0  0  0  0  0  0  0  0
    1.0470   38.5577   -8.7317 N   0  0  0  0  0  0  0  0  0  0  0  0
   -3.1145   35.9344   -5.6872 N   0  0  0  0  0  0  0  0  0  0  0  0
  1  2  1  0  0  0  0
  1 39  1  0  0  0  0
  3  4  1  0  0  0  0
  5  6  1  0  0  0  0
  5 40  1  0  0  0  0
  9 10  1  6  0  0  0
  9 14  1  0  0  0  0
  9 35  1  0  0  0  0
 10  1  1  0  0  0  0
 11 16  1  0  0  0  0
 11 28  1  0  0  0  0
 11 26  1  1  0  0  0
 12 17  1  0  0  0  0
 12 34  1  0  0  0  0
 12 13  1  6  0  0  0
 14 15  1  6  0  0  0
 14 19  1  0  0  0  0
 16 13  1  6  0  0  0
 16 21  1  0  0  0  0
 17 18  1  6  0  0  0
 17 23  1  0  0  0  0
 18  8  1  0  0  0  0
 19 20  1  1  0  0  0
 19 25  1  0  0  0  0
 20  5  1  0  0  0  0
 21  3  1  1  0  0  0
 21 22  1  0  0  0  0
 21 27  1  0  0  0  0
 23 24  1  1  0  0  0
 23 29  1  0  0  0  0
 25 26  1  1  0  0  0
 25 31  1  0  0  0  0
 27  7  1  6  0  0  0
 27 28  1  0  0  0  0
 29 30  1  6  0  0  0
 29 33  1  0  0  0  0
 31 32  1  1  0  0  0
 31 35  1  0  0  0  0
 33 34  1  0  0  0  0
 33 37  1  1  0  0  0
 35 36  1  6  0  0  0
 37 38  1  0  0  0  0
M  END
>  <CHROM.1>
-110.21641190,-119.35225459,161.15847066,162.44131684,-177.89534128,-106.38967659
-49.20668378,-83.64626073,-57.95152543,66.09354344,-179.06590066,1.72008993
35.85189181,-2.65586194,-2.26351088,0.66592143,2.55118192

>  <Name>
1nta_lig

>  <RI>
0

>  <Rbt.Current_Directory>
/home/itssahil/PROJECTS/Mol_Feturizer/New_Systems/rnas/1nta

>  <Rbt.Executable>
rbdock ($Id: //depot/dev/client3/rdock/2013.1/src/exe/rbdock.cxx#4 $)

>  <Rbt.Library>
libRbt.so (2013.1, Build901 2013/11/27)

>  <Rbt.Parameter_File>
/export/apps/rDock/src/rDock_2013.1_src/data/scripts/dock_solv.prm

>  <Rbt.Receptor>
prm/pocket_docking_8.prm

>  <SCORE>
-26.6239

>  <SCORE.INTER>
-5.81734

>  <SCORE.INTER.CONST>
1

>  <SCORE.INTER.POLAR>
0

>  <SCORE.INTER.ROT>
11

>  <SCORE.INTER.SOLV>
11.1168

>  <SCORE.INTER.VDW>
-18.5172

>  <SCORE.INTER.norm>
-0.145433

>  <SCORE.INTRA>
-20.8065

>  <SCORE.INTRA.DIHEDRAL>
-12.2939

>  <SCORE.INTRA.DIHEDRAL.0>
19.0336

>  <SCORE.INTRA.POLAR>
0

>  <SCORE.INTRA.POLAR.0>
0

>  <SCORE.INTRA.REPUL>
0

>  <SCORE.INTRA.REPUL.0>
0

>  <SCORE.INTRA.SOLV>
-2.0933

>  <SCORE.INTRA.SOLV.lig_0>
-97.5861

>  <SCORE.INTRA.VDW>
-13.6129

>  <SCORE.INTRA.VDW.0>
11.7669

>  <SCORE.INTRA.norm>
-0.520163

>  <SCORE.RESTR>
0

>  <SCORE.RESTR.CAVITY>
0

>  <SCORE.RESTR.norm>
0

>  <SCORE.SYSTEM>
0

>  <SCORE.SYSTEM.CONST>
0

>  <SCORE.SYSTEM.DIHEDRAL>
0

>  <SCORE.SYSTEM.SOLV>
0

>  <SCORE.SYSTEM.norm>
0

>  <SCORE.heavy>
40

>  <SCORE.norm>
-0.665597

>  <RMSD>
7.338

$$$$
1nta_lig
 OpenBabel11021811403D
libRbt.so/2013.1/901 2013/11/27
 40 42  0  0  0  0  0  0  0  0999 V2000
   -3.3495   33.4564    3.5062 C   0  0  0  0  0  0  0  0  0  0  0  0
   -4.0760   34.4062    3.0479 N   0  0  0  0  0  0  0  0  0  0  0  0
    1.1371   34.7134   -3.5249 C   0  0  0  0  0  0  0  0  0  0  0  0
    1.0813   35.7622   -2.9213 O   0  0  0  0  0  0  0  0  0  0  0  0
    0.4593   37.1856    0.5295 C   0  0  0  0  0  0  0  0  0  0  0  0
   -0.1381   38.2892    0.8969 N   0  0  0  0  0  0  0  0  0  0  0  0
    4.2600   33.6364   -3.1386 C   0  0  0  0  0  0  0  0  0  0  0  0
   -0.7218   30.0001   -5.7044 C   0  0  0  0  0  0  0  0  0  0  0  0
   -1.0362   33.9457    3.4062 C   0  0  2  0  0  0  0  0  0  0  0  0
   -2.3053   33.8342    4.2284 N   0  0  0  0  0  0  0  0  0  0  0  0
    1.7076   32.6844   -0.7998 C   0  0  2  0  0  0  0  0  0  0  0  0
   -0.9205   31.9160   -3.1258 C   0  0  1  0  0  0  0  0  0  0  0  0
    0.1554   31.7318   -2.2737 O   0  0  0  0  0  0  0  0  0  0  0  0
   -1.2318   34.9639    2.2669 C   0  0  1  0  0  0  0  0  0  0  0  0
   -1.4593   36.2064    2.8604 O   0  0  0  0  0  0  0  0  0  0  0  0
    0.7947   32.8588   -2.0087 C   0  0  2  0  0  0  0  0  0  0  0  0
   -1.5588   30.6472   -3.6468 C   0  0  1  0  0  0  0  0  0  0  0  0
   -0.5548   29.8545   -4.2680 N   0  0  0  0  0  0  0  0  0  0  0  0
    0.0167   35.1007    1.3852 C   0  0  2  0  0  0  0  0  0  0  0  0
   -0.1377   36.0702    0.2743 N   0  0  0  0  0  0  0  0  0  0  0  0
    1.7253   33.4382   -2.9829 C   0  0  1  0  0  0  0  0  0  0  0  0
    1.9289   32.4620   -4.0065 O   0  0  0  0  0  0  0  0  0  0  0  0
   -2.1350   29.9179   -2.6162 C   0  0  2  0  0  0  0  0  0  0  0  0
   -2.9492   28.9305   -3.1969 O   0  0  0  0  0  0  0  0  0  0  0  0
    0.3397   33.7308    0.8100 C   0  0  1  0  0  0  0  0  0  0  0  0
    1.4966   33.8622   -0.0012 O   0  0  0  0  0  0  0  0  0  0  0  0
    3.0096   33.6873   -2.3165 C   0  0  1  0  0  0  0  0  0  0  0  0
    3.0390   32.7374   -1.2583 O   0  0  0  0  0  0  0  0  0  0  0  0
   -2.9757   30.8146   -1.7458 C   0  0  1  0  0  0  0  0  0  0  0  0
   -3.3427   30.1145   -0.5936 O   0  0  0  0  0  0  0  0  0  0  0  0
    0.5818   32.7097    1.9579 C   0  0  2  0  0  0  0  0  0  0  0  0
    0.8933   31.4346    1.3989 O   0  0  0  0  0  0  0  0  0  0  0  0
   -2.1814   32.0077   -1.3357 C   0  0  1  0  0  0  0  0  0  0  0  0
   -1.8229   32.7024   -2.4951 O   0  0  0  0  0  0  0  0  0  0  0  0
   -0.6973   32.5945    2.8133 C   0  0  1  0  0  0  0  0  0  0  0  0
   -0.4939   31.6537    3.8802 O   0  0  0  0  0  0  0  0  0  0  0  0
   -3.0156   32.9618   -0.4581 C   0  0  0  0  0  0  0  0  0  0  0  0
   -4.1462   33.4092   -1.1974 O   0  0  0  0  0  0  0  0  0  0  0  0
   -3.6100   32.2145    3.2785 N   0  0  0  0  0  0  0  0  0  0  0  0
    1.7254   37.1718    0.3770 N   0  0  0  0  0  0  0  0  0  0  0  0
  1  2  1  0  0  0  0
  1 39  1  0  0  0  0
  3  4  1  0  0  0  0
  5  6  1  0  0  0  0
  5 40  1  0  0  0  0
  9 10  1  6  0  0  0
  9 14  1  0  0  0  0
  9 35  1  0  0  0  0
 10  1  1  0  0  0  0
 11 16  1  0  0  0  0
 11 28  1  0  0  0  0
 11 26  1  1  0  0  0
 12 17  1  0  0  0  0
 12 34  1  0  0  0  0
 12 13  1  1  0  0  0
 14 15  1  1  0  0  0
 14 19  1  0  0  0  0
 16 13  1  6  0  0  0
 16 21  1  0  0  0  0
 17 18  1  1  0  0  0
 17 23  1  0  0  0  0
 18  8  1  0  0  0  0
 19 20  1  6  0  0  0
 19 25  1  0  0  0  0
 20  5  1  0  0  0  0
 21  3  1  6  0  0  0
 21 22  1  0  0  0  0
 21 27  1  0  0  0  0
 23 24  1  6  0  0  0
 23 29  1  0  0  0  0
 25 26  1  6  0  0  0
 25 31  1  0  0  0  0
 27  7  1  6  0  0  0
 27 28  1  0  0  0  0
 29 30  1  1  0  0  0
 29 33  1  0  0  0  0
 31 32  1  6  0  0  0
 31 35  1  0  0  0  0
 33 34  1  0  0  0  0
 33 37  1  1  0  0  0
 35 36  1  1  0  0  0
 37 38  1  0  0  0  0
M  END
>  <CHROM.1>
58.95466085,-94.15363476,82.49585668,170.57460191,164.57895346,-103.44778154
102.96198391,-103.46824831,74.69471161,-167.98162629,-60.42940915,-0.50878122
33.11971716,-0.49914334,1.82896161,0.65553444,0.95087594

>  <Name>
1nta_lig

>  <RI>
0

>  <Rbt.Current_Directory>
/home/itssahil/PROJECTS/Mol_Feturizer/New_Systems/rnas/1nta

>  <Rbt.Executable>
rbdock ($Id: //depot/dev/client3/rdock/2013.1/src/exe/rbdock.cxx#4 $)

>  <Rbt.Library>
libRbt.so (2013.1, Build901 2013/11/27)

>  <Rbt.Parameter_File>
/export/apps/rDock/src/rDock_2013.1_src/data/scripts/dock_solv.prm

>  <Rbt.Receptor>
prm/pocket_docking_8.prm

>  <SCORE>
-26.4305

>  <SCORE.INTER>
-4.59759

>  <SCORE.INTER.CONST>
1

>  <SCORE.INTER.POLAR>
0

>  <SCORE.INTER.ROT>
11

>  <SCORE.INTER.SOLV>
11.8297

>  <SCORE.INTER.VDW>
-17.9416

>  <SCORE.INTER.norm>
-0.11494

>  <SCORE.INTRA>
-21.8329

>  <SCORE.INTRA.DIHEDRAL>
-10.7588

>  <SCORE.INTRA.DIHEDRAL.0>
19.0336

>  <SCORE.INTRA.POLAR>
0

>  <SCORE.INTRA.POLAR.0>
0

>  <SCORE.INTRA.REPUL>
0.0456282

>  <SCORE.INTRA.REPUL.0>
0

>  <SCORE.INTRA.SOLV>
-0.646214

>  <SCORE.INTRA.SOLV.lig_0>
-97.5861

>  <SCORE.INTRA.VDW>
-16.3586

>  <SCORE.INTRA.VDW.0>
11.7669

>  <SCORE.INTRA.norm>
-0.545824

>  <SCORE.RESTR>
0

>  <SCORE.RESTR.CAVITY>
0

>  <SCORE.RESTR.norm>
0

>  <SCORE.SYSTEM>
0

>  <SCORE.SYSTEM.CONST>
0

>  <SCORE.SYSTEM.DIHEDRAL>
0

>  <SCORE.SYSTEM.SOLV>
0

>  <SCORE.SYSTEM.norm>
0

>  <SCORE.heavy>
40

>  <SCORE.norm>
-0.660763

>  <RMSD>
7.339

$$$$
1nta_lig
 OpenBabel11021811403D
libRbt.so/2013.1/901 2013/11/27
 40 42  0  0  0  0  0  0  0  0999 V2000
   -1.6058   35.7043   -8.0118 C   0  0  0  0  0  0  0  0  0  0  0  0
   -1.9963   34.6975   -8.7001 N   0  0  0  0  0  0  0  0  0  0  0  0
    0.2307   35.9313    1.8923 C   0  0  0  0  0  0  0  0  0  0  0  0
    0.8992   36.8246    2.3637 O   0  0  0  0  0  0  0  0  0  0  0  0
   -0.3061   38.7280   -2.5049 C   0  0  0  0  0  0  0  0  0  0  0  0
   -0.8633   38.5564   -1.3345 N   0  0  0  0  0  0  0  0  0  0  0  0
   -0.9759   32.8956    1.2677 C   0  0  0  0  0  0  0  0  0  0  0  0
    3.7188   38.8657    0.2146 C   0  0  0  0  0  0  0  0  0  0  0  0
   -0.6629   35.5243   -5.8487 C   0  0  2  0  0  0  0  0  0  0  0  0
   -0.4690   35.5385   -7.3524 N   0  0  0  0  0  0  0  0  0  0  0  0
    1.1811   34.5159   -1.1014 C   0  0  2  0  0  0  0  0  0  0  0  0
    3.8057   35.7107   -0.5787 C   0  0  1  0  0  0  0  0  0  0  0  0
    3.0286   34.9449    0.2741 O   0  0  0  0  0  0  0  0  0  0  0  0
    0.0331   36.7433   -5.2140 C   0  0  1  0  0  0  0  0  0  0  0  0
   -0.6015   37.8833   -5.7096 O   0  0  0  0  0  0  0  0  0  0  0  0
    1.7358   35.1934    0.1470 C   0  0  2  0  0  0  0  0  0  0  0  0
    4.6656   36.7582    0.0937 C   0  0  1  0  0  0  0  0  0  0  0  0
    3.8316   37.5862    0.8944 N   0  0  0  0  0  0  0  0  0  0  0  0
   -0.1108   36.7681   -3.6865 C   0  0  2  0  0  0  0  0  0  0  0  0
    0.5519   37.9267   -3.0410 N   0  0  0  0  0  0  0  0  0  0  0  0
    0.7823   34.7356    1.1630 C   0  0  1  0  0  0  0  0  0  0  0  0
    1.4865   33.8505    2.0363 O   0  0  0  0  0  0  0  0  0  0  0  0
    5.6277   36.1707    0.9032 C   0  0  2  0  0  0  0  0  0  0  0  0
    6.5576   37.1657    1.2499 O   0  0  0  0  0  0  0  0  0  0  0  0
    0.4858   35.4824   -3.1361 C   0  0  1  0  0  0  0  0  0  0  0  0
    0.3470   35.5089   -1.7241 O   0  0  0  0  0  0  0  0  0  0  0  0
   -0.2865   33.9795    0.4985 C   0  0  1  0  0  0  0  0  0  0  0  0
    0.3292   33.4755   -0.6804 O   0  0  0  0  0  0  0  0  0  0  0  0
    6.3297   35.0625    0.1632 C   0  0  1  0  0  0  0  0  0  0  0  0
    7.1127   34.3387    1.0662 O   0  0  0  0  0  0  0  0  0  0  0  0
   -0.2443   34.2495   -3.7409 C   0  0  2  0  0  0  0  0  0  0  0  0
    0.3219   33.0547   -3.2051 O   0  0  0  0  0  0  0  0  0  0  0  0
    5.3235   34.1368   -0.4309 C   0  0  1  0  0  0  0  0  0  0  0  0
    4.5486   34.8700   -1.3349 O   0  0  0  0  0  0  0  0  0  0  0  0
   -0.0679   34.2564   -5.2739 C   0  0  1  0  0  0  0  0  0  0  0  0
   -0.7355   33.1230   -5.8521 O   0  0  0  0  0  0  0  0  0  0  0  0
    6.0042   32.9976   -1.2153 C   0  0  0  0  0  0  0  0  0  0  0  0
    5.0312   32.3314   -2.0118 O   0  0  0  0  0  0  0  0  0  0  0  0
   -2.2736   36.8058   -7.9571 N   0  0  0  0  0  0  0  0  0  0  0  0
   -0.6230   39.7389   -3.2148 N   0  0  0  0  0  0  0  0  0  0  0  0
  1  2  1  0  0  0  0
  1 39  1  0  0  0  0
  3  4  1  0  0  0  0
  5  6  1  0  0  0  0
  5 40  1  0  0  0  0
  9 10  1  6  0  0  0
  9 14  1  0  0  0  0
  9 35  1  0  0  0  0
 10  1  1  0  0  0  0
 11 16  1  0  0  0  0
 11 28  1  0  0  0  0
 11 26  1  6  0  0  0
 12 17  1  0  0  0  0
 12 34  1  0  0  0  0
 12 13  1  1  0  0  0
 14 15  1  6  0  0  0
 14 19  1  0  0  0  0
 16 13  1  1  0  0  0
 16 21  1  0  0  0  0
 17 18  1  1  0  0  0
 17 23  1  0  0  0  0
 18  8  1  0  0  0  0
 19 20  1  1  0  0  0
 19 25  1  0  0  0  0
 20  5  1  0  0  0  0
 21  3  1  1  0  0  0
 21 22  1  0  0  0  0
 21 27  1  0  0  0  0
 23 24  1  6  0  0  0
 23 29  1  0  0  0  0
 25 26  1  1  0  0  0
 25 31  1  0  0  0  0
 27  7  1  1  0  0  0
 27 28  1  0  0  0  0
 29 30  1  1  0  0  0
 29 33  1  0  0  0  0
 31 32  1  1  0  0  0
 31 35  1  0  0  0  0
 33 34  1  0  0  0  0
 33 37  1  6  0  0  0
 35 36  1  6  0  0  0
 37 38  1  0  0  0  0
M  END
>  <CHROM.1>
-114.65325695,-112.65417318,140.38805641,111.31893969,77.32906727,-106.90214448
113.33460426,81.32083427,-49.27483712,-164.95358421,-166.57752433,1.58797363
35.53685534,-1.92068891,-2.46066819,-0.63999356,1.01450889

>  <Name>
1nta_lig

>  <RI>
0

>  <Rbt.Current_Directory>
/home/itssahil/PROJECTS/Mol_Feturizer/New_Systems/rnas/1nta

>  <Rbt.Executable>
rbdock ($Id: //depot/dev/client3/rdock/2013.1/src/exe/rbdock.cxx#4 $)

>  <Rbt.Library>
libRbt.so (2013.1, Build901 2013/11/27)

>  <Rbt.Parameter_File>
/export/apps/rDock/src/rDock_2013.1_src/data/scripts/dock_solv.prm

>  <Rbt.Receptor>
prm/pocket_docking_4.prm

>  <SCORE>
-22.803

>  <SCORE.INTER>
-3.78958

>  <SCORE.INTER.CONST>
1

>  <SCORE.INTER.POLAR>
-0.734125

>  <SCORE.INTER.ROT>
11

>  <SCORE.INTER.SOLV>
10.0604

>  <SCORE.INTER.VDW>
-14.3661

>  <SCORE.INTER.norm>
-0.0947396

>  <SCORE.INTRA>
-19.038

>  <SCORE.INTRA.DIHEDRAL>
0.960776

>  <SCORE.INTRA.DIHEDRAL.0>
19.0336

>  <SCORE.INTRA.POLAR>
0

>  <SCORE.INTRA.POLAR.0>
0

>  <SCORE.INTRA.REPUL>
0

>  <SCORE.INTRA.REPUL.0>
0

>  <SCORE.INTRA.SOLV>
-4.89407

>  <SCORE.INTRA.SOLV.lig_0>
-97.5861

>  <SCORE.INTRA.VDW>
-17.0714

>  <SCORE.INTRA.VDW.0>
11.7669

>  <SCORE.INTRA.norm>
-0.475951

>  <SCORE.RESTR>
0.024622

>  <SCORE.RESTR.CAVITY>
0.024622

>  <SCORE.RESTR.norm>
0.00061555

>  <SCORE.SYSTEM>
0

>  <SCORE.SYSTEM.CONST>
0

>  <SCORE.SYSTEM.DIHEDRAL>
0

>  <SCORE.SYSTEM.SOLV>
0

>  <SCORE.SYSTEM.norm>
0

>  <SCORE.heavy>
40

>  <SCORE.norm>
-0.570075

>  <RMSD>
7.365

$$$$
1nta_lig
 OpenBabel11021811403D
libRbt.so/2013.1/901 2013/11/27
 40 42  0  0  0  0  0  0  0  0999 V2000
    1.2690   39.2873   -7.8085 C   0  0  0  0  0  0  0  0  0  0  0  0
    0.7056   38.3315   -8.4482 N   0  0  0  0  0  0  0  0  0  0  0  0
    1.2448   40.1798    2.2758 C   0  0  0  0  0  0  0  0  0  0  0  0
    0.6675   40.7942    3.1456 O   0  0  0  0  0  0  0  0  0  0  0  0
    2.6660   42.2077   -2.2335 C   0  0  0  0  0  0  0  0  0  0  0  0
    3.2483   43.0855   -3.0081 N   0  0  0  0  0  0  0  0  0  0  0  0
   -1.6995   38.6693    1.9419 C   0  0  0  0  0  0  0  0  0  0  0  0
    6.2800   38.2225    1.2743 C   0  0  0  0  0  0  0  0  0  0  0  0
    1.4425   39.2172   -5.4493 C   0  0  2  0  0  0  0  0  0  0  0  0
    2.0518   38.9191   -6.8054 N   0  0  0  0  0  0  0  0  0  0  0  0
    0.9422   38.0393   -0.4066 C   0  0  2  0  0  0  0  0  0  0  0  0
    3.6290   37.1747    0.1293 C   0  0  1  0  0  0  0  0  0  0  0  0
    2.6242   37.3414    1.0674 O   0  0  0  0  0  0  0  0  0  0  0  0
    2.4690   39.9380   -4.5550 C   0  0  1  0  0  0  0  0  0  0  0  0
    2.7588   41.1599   -5.1642 O   0  0  0  0  0  0  0  0  0  0  0  0
    1.8313   38.3627    0.7892 C   0  0  2  0  0  0  0  0  0  0  0  0
    4.8815   36.4936    0.6356 C   0  0  1  0  0  0  0  0  0  0  0  0
    5.3627   37.2085    1.7668 N   0  0  0  0  0  0  0  0  0  0  0  0
    1.9129   40.2446   -3.1580 C   0  0  2  0  0  0  0  0  0  0  0  0
    2.8768   40.9348   -2.2678 N   0  0  0  0  0  0  0  0  0  0  0  0
    0.8366   38.8247    1.7629 C   0  0  1  0  0  0  0  0  0  0  0  0
    0.7799   37.8493    2.8057 O   0  0  0  0  0  0  0  0  0  0  0  0
    4.6214   35.1824    1.0085 C   0  0  2  0  0  0  0  0  0  0  0  0
    5.8572   34.5355    1.1797 O   0  0  0  0  0  0  0  0  0  0  0  0
    1.4963   38.9300   -2.5178 C   0  0  1  0  0  0  0  0  0  0  0  0
    0.9798   39.2196   -1.2282 O   0  0  0  0  0  0  0  0  0  0  0  0
   -0.4752   38.8789    1.1057 C   0  0  1  0  0  0  0  0  0  0  0  0
   -0.3798   37.9142    0.0650 O   0  0  0  0  0  0  0  0  0  0  0  0
    3.8305   34.4796   -0.0634 C   0  0  1  0  0  0  0  0  0  0  0  0
    3.3799   33.2543    0.4347 O   0  0  0  0  0  0  0  0  0  0  0  0
    0.4266   38.2202   -3.3958 C   0  0  2  0  0  0  0  0  0  0  0  0
    0.0413   36.9954   -2.7740 O   0  0  0  0  0  0  0  0  0  0  0  0
    2.6422   35.3004   -0.4329 C   0  0  1  0  0  0  0  0  0  0  0  0
    3.1044   36.5217   -0.9332 O   0  0  0  0  0  0  0  0  0  0  0  0
    1.0271   37.9215   -4.7855 C   0  0  1  0  0  0  0  0  0  0  0  0
    0.0532   37.2640   -5.6125 O   0  0  0  0  0  0  0  0  0  0  0  0
    1.8162   34.6226   -1.5441 C   0  0  0  0  0  0  0  0  0  0  0  0
    2.4179   34.8924   -2.8051 O   0  0  0  0  0  0  0  0  0  0  0  0
    1.0856   40.5265   -8.1134 N   0  0  0  0  0  0  0  0  0  0  0  0
    1.8365   42.5975   -1.3467 N   0  0  0  0  0  0  0  0  0  0  0  0
  1  2  1  0  0  0  0
  1 39  1  0  0  0  0
  3  4  1  0  0  0  0
  5  6  1  0  0  0  0
  5 40  1  0  0  0  0
  9 10  1  6  0  0  0
  9 14  1  0  0  0  0
  9 35  1  0  0  0  0
 10  1  1  0  0  0  0
 11 16  1  0  0  0  0
 11 28  1  0  0  0  0
 11 26  1  6  0  0  0
 12 17  1  0  0  0  0
 12 34  1  0  0  0  0
 12 13  1  1  0  0  0
 14 15  1  6  0  0  0
 14 19  1  0  0  0  0
 16 13  1  1  0  0  0
 16 21  1  0  0  0  0
 17 18  1  1  0  0  0
 17 23  1  0  0  0  0
 18  8  1  0  0  0  0
 19 20  1  1  0  0  0
 19 25  1  0  0  0  0
 20  5  1  0  0  0  0
 21  3  1  1  0  0  0
 21 22  1  0  0  0  0
 21 27  1  0  0  0  0
 23 24  1  6  0  0  0
 23 29  1  0  0  0  0
 25 26  1  1  0  0  0
 25 31  1  0  0  0  0
 27  7  1  1  0  0  0
 27 28  1  0  0  0  0
 29 30  1  1  0  0  0
 29 33  1  0  0  0  0
 31 32  1  1  0  0  0
 31 35  1  0  0  0  0
 33 34  1  0  0  0  0
 33 37  1  6  0  0  0
 35 36  1  6  0  0  0
 37 38  1  0  0  0  0
M  END
>  <CHROM.1>
-131.22041636,-107.52283681,119.99594671,153.97334093,71.86790324,-90.04319760
98.88978108,-92.61614070,-175.74230244,-162.46696753,-81.33622381,2.05717712
38.20649639,-1.54447466,-2.11432478,-1.19246696,1.43368671

>  <Name>
1nta_lig

>  <RI>
0

>  <Rbt.Current_Directory>
/home/itssahil/PROJECTS/Mol_Feturizer/New_Systems/rnas/1nta

>  <Rbt.Executable>
rbdock ($Id: //depot/dev/client3/rdock/2013.1/src/exe/rbdock.cxx#4 $)

>  <Rbt.Library>
libRbt.so (2013.1, Build901 2013/11/27)

>  <Rbt.Parameter_File>
/export/apps/rDock/src/rDock_2013.1_src/data/scripts/dock_solv.prm

>  <Rbt.Receptor>
prm/pocket_docking_6.prm

>  <SCORE>
-25.6237

>  <SCORE.INTER>
-5.88621

>  <SCORE.INTER.CONST>
1

>  <SCORE.INTER.POLAR>
-0.438276

>  <SCORE.INTER.ROT>
11

>  <SCORE.INTER.SOLV>
14.0435

>  <SCORE.INTER.VDW>
-18.0777

>  <SCORE.INTER.norm>
-0.147155

>  <SCORE.INTRA>
-19.7469

>  <SCORE.INTRA.DIHEDRAL>
-1.85205

>  <SCORE.INTRA.DIHEDRAL.0>
19.0336

>  <SCORE.INTRA.POLAR>
0

>  <SCORE.INTRA.POLAR.0>
0

>  <SCORE.INTRA.REPUL>
0

>  <SCORE.INTRA.REPUL.0>
0

>  <SCORE.INTRA.SOLV>
-4.44511

>  <SCORE.INTRA.SOLV.lig_0>
-97.5861

>  <SCORE.INTRA.VDW>
-16.5983

>  <SCORE.INTRA.VDW.0>
11.7669

>  <SCORE.INTRA.norm>
-0.493672

>  <SCORE.RESTR>
0.00935899

>  <SCORE.RESTR.CAVITY>
0.00935899

>  <SCORE.RESTR.norm>
0.000233975

>  <SCORE.SYSTEM>
0

>  <SCORE.SYSTEM.CONST>
0

>  <SCORE.SYSTEM.DIHEDRAL>
0

>  <SCORE.SYSTEM.SOLV>
0

>  <SCORE.SYSTEM.norm>
0

>  <SCORE.heavy>
40

>  <SCORE.norm>
-0.640593

>  <RMSD>
7.366

$$$$
1nta_lig
 OpenBabel11021811403D
libRbt.so/2013.1/901 2013/11/27
 40 42  0  0  0  0  0  0  0  0999 V2000
   -1.6525   39.0252    4.4799 C   0  0  0  0  0  0  0  0  0  0  0  0
   -1.0579   40.0550    4.0044 N   0  0  0  0  0  0  0  0  0  0  0  0
    1.4994   32.9749   -2.2550 C   0  0  0  0  0  0  0  0  0  0  0  0
    0.7941   32.4339   -1.4321 O   0  0  0  0  0  0  0  0  0  0  0  0
   -1.2143   33.3547    2.6068 C   0  0  0  0  0  0  0  0  0  0  0  0
   -1.5920   32.9195    3.7805 N   0  0  0  0  0  0  0  0  0  0  0  0
    0.1255   35.2658   -4.2362 C   0  0  0  0  0  0  0  0  0  0  0  0
    6.8519   33.7121    0.3653 C   0  0  0  0  0  0  0  0  0  0  0  0
   -2.3544   37.7282    2.6290 C   0  0  2  0  0  0  0  0  0  0  0  0
   -2.7156   38.6169    3.8033 N   0  0  0  0  0  0  0  0  0  0  0  0
    1.0809   36.1052   -0.8787 C   0  0  2  0  0  0  0  0  0  0  0  0
    3.8262   35.3095    0.3407 C   0  0  1  0  0  0  0  0  0  0  0  0
    3.3399   35.4873   -0.9436 O   0  0  0  0  0  0  0  0  0  0  0  0
   -1.5859   36.4873    3.1215 C   0  0  1  0  0  0  0  0  0  0  0  0
   -2.4529   35.7664    3.9441 O   0  0  0  0  0  0  0  0  0  0  0  0
    2.1169   35.0077   -1.0966 C   0  0  2  0  0  0  0  0  0  0  0  0
    5.3254   35.4461    0.4904 C   0  0  1  0  0  0  0  0  0  0  0  0
    5.9567   34.5498   -0.4152 N   0  0  0  0  0  0  0  0  0  0  0  0
   -1.1731   35.5610    1.9698 C   0  0  2  0  0  0  0  0  0  0  0  0
   -0.4264   34.3573    2.4073 N   0  0  0  0  0  0  0  0  0  0  0  0
    1.6827   34.4630   -2.3872 C   0  0  1  0  0  0  0  0  0  0  0  0
    2.6864   34.7983   -3.3476 O   0  0  0  0  0  0  0  0  0  0  0  0
    5.7402   36.7397    0.2068 C   0  0  2  0  0  0  0  0  0  0  0  0
    7.0688   36.8669    0.6471 O   0  0  0  0  0  0  0  0  0  0  0  0
   -0.3091   36.3613    1.0080 C   0  0  1  0  0  0  0  0  0  0  0  0
    0.0667   35.5013   -0.0564 O   0  0  0  0  0  0  0  0  0  0  0  0
    0.4288   35.1197   -2.7773 C   0  0  1  0  0  0  0  0  0  0  0  0
    0.4828   36.3820   -2.1241 O   0  0  0  0  0  0  0  0  0  0  0  0
    4.8737   37.7382    0.9284 C   0  0  1  0  0  0  0  0  0  0  0  0
    5.1541   39.0178    0.4419 O   0  0  0  0  0  0  0  0  0  0  0  0
   -1.0974   37.5910    0.4740 C   0  0  2  0  0  0  0  0  0  0  0  0
   -0.2748   38.3224   -0.4336 O   0  0  0  0  0  0  0  0  0  0  0  0
    3.4367   37.4417    0.6650 C   0  0  1  0  0  0  0  0  0  0  0  0
    3.1664   36.1616    1.1588 O   0  0  0  0  0  0  0  0  0  0  0  0
   -1.4847   38.4998    1.6594 C   0  0  1  0  0  0  0  0  0  0  0  0
   -2.2140   39.6438    1.1859 O   0  0  0  0  0  0  0  0  0  0  0  0
    2.5154   38.4321    1.4043 C   0  0  0  0  0  0  0  0  0  0  0  0
    2.6839   39.7315    0.8492 O   0  0  0  0  0  0  0  0  0  0  0  0
   -1.2501   38.4258    5.5481 N   0  0  0  0  0  0  0  0  0  0  0  0
   -1.6128   32.7584    1.5522 N   0  0  0  0  0  0  0  0  0  0  0  0
  1  2  1  0  0  0  0
  1 39  1  0  0  0  0
  3  4  1  0  0  0  0
  5  6  1  0  0  0  0
  5 40  1  0  0  0  0
  9 10  1  1  0  0  0
  9 14  1  0  0  0  0
  9 35  1  0  0  0  0
 10  1  1  0  0  0  0
 11 16  1  0  0  0  0
 11 28  1  0  0  0  0
 11 26  1  1  0  0  0
 12 17  1  0  0  0  0
 12 34  1  0  0  0  0
 12 13  1  6  0  0  0
 14 15  1  1  0  0  0
 14 19  1  0  0  0  0
 16 13  1  6  0  0  0
 16 21  1  0  0  0  0
 17 18  1  6  0  0  0
 17 23  1  0  0  0  0
 18  8  1  0  0  0  0
 19 20  1  1  0  0  0
 19 25  1  0  0  0  0
 20  5  1  0  0  0  0
 21  3  1  1  0  0  0
 21 22  1  0  0  0  0
 21 27  1  0  0  0  0
 23 24  1  1  0  0  0
 23 29  1  0  0  0  0
 25 26  1  6  0  0  0
 25 31  1  0  0  0  0
 27  7  1  6  0  0  0
 27 28  1  0  0  0  0
 29 30  1  6  0  0  0
 29 33  1  0  0  0  0
 31 32  1  6  0  0  0
 31 35  1  0  0  0  0
 33 34  1  0  0  0  0
 33 37  1  1  0  0  0
 35 36  1  6  0  0  0
 37 38  1  0  0  0  0
M  END
>  <CHROM.1>
58.91186313,83.60263664,134.37043908,162.56150793,94.18980133,-124.83989539
92.67212069,-103.52992556,54.88394522,-169.38781795,66.80642604,1.19511371
36.26562513,0.69509460,-2.58762401,-0.28028903,-2.45039593

>  <Name>
1nta_lig

>  <RI>
0

>  <Rbt.Current_Directory>
/home/itssahil/PROJECTS/Mol_Feturizer/New_Systems/rnas/1nta

>  <Rbt.Executable>
rbdock ($Id: //depot/dev/client3/rdock/2013.1/src/exe/rbdock.cxx#4 $)

>  <Rbt.Library>
libRbt.so (2013.1, Build901 2013/11/27)

>  <Rbt.Parameter_File>
/export/apps/rDock/src/rDock_2013.1_src/data/scripts/dock_solv.prm

>  <Rbt.Receptor>
prm/pocket_docking_4.prm

>  <SCORE>
-19.6713

>  <SCORE.INTER>
-2.59468

>  <SCORE.INTER.CONST>
1

>  <SCORE.INTER.POLAR>
-0.657003

>  <SCORE.INTER.ROT>
11

>  <SCORE.INTER.SOLV>
10.444

>  <SCORE.INTER.VDW>
-13.9544

>  <SCORE.INTER.norm>
-0.0648669

>  <SCORE.INTRA>
-17.0804

>  <SCORE.INTRA.DIHEDRAL>
-3.22001

>  <SCORE.INTRA.DIHEDRAL.0>
19.0336

>  <SCORE.INTRA.POLAR>
0

>  <SCORE.INTRA.POLAR.0>
0

>  <SCORE.INTRA.REPUL>
0.137652

>  <SCORE.INTRA.REPUL.0>
0

>  <SCORE.INTRA.SOLV>
-2.16955

>  <SCORE.INTRA.SOLV.lig_0>
-97.5861

>  <SCORE.INTRA.VDW>
-15.0739

>  <SCORE.INTRA.VDW.0>
11.7669

>  <SCORE.INTRA.norm>
-0.427011

>  <SCORE.RESTR>
0.00381006

>  <SCORE.RESTR.CAVITY>
0.00381006

>  <SCORE.RESTR.norm>
9.52514e-05

>  <SCORE.SYSTEM>
0

>  <SCORE.SYSTEM.CONST>
0

>  <SCORE.SYSTEM.DIHEDRAL>
0

>  <SCORE.SYSTEM.SOLV>
0

>  <SCORE.SYSTEM.norm>
0

>  <SCORE.heavy>
40

>  <SCORE.norm>
-0.491783

>  <RMSD>
7.379

$$$$
1nta_lig
 OpenBabel11021811403D
libRbt.so/2013.1/901 2013/11/27
 40 42  0  0  0  0  0  0  0  0999 V2000
   -0.8866   40.8382   -6.4496 C   0  0  0  0  0  0  0  0  0  0  0  0
   -1.7084   40.1741   -7.1733 N   0  0  0  0  0  0  0  0  0  0  0  0
   -0.1988   34.3799    1.2616 C   0  0  0  0  0  0  0  0  0  0  0  0
    0.4407   34.5126    2.2818 O   0  0  0  0  0  0  0  0  0  0  0  0
   -0.5337   39.6441   -0.3895 C   0  0  0  0  0  0  0  0  0  0  0  0
   -0.9120   40.8947   -0.4425 N   0  0  0  0  0  0  0  0  0  0  0  0
   -1.4917   32.6799   -1.2879 C   0  0  0  0  0  0  0  0  0  0  0  0
    2.8260   38.2114    0.6185 C   0  0  0  0  0  0  0  0  0  0  0  0
   -0.2106   39.1637   -4.9201 C   0  0  2  0  0  0  0  0  0  0  0  0
    0.1589   40.1585   -6.0030 N   0  0  0  0  0  0  0  0  0  0  0  0
    1.0011   35.1992   -1.8621 C   0  0  2  0  0  0  0  0  0  0  0  0
    3.5973   35.4001   -0.8022 C   0  0  1  0  0  0  0  0  0  0  0  0
    2.7043   34.3960   -0.4680 O   0  0  0  0  0  0  0  0  0  0  0  0
    0.2854   39.6642   -3.5503 C   0  0  1  0  0  0  0  0  0  0  0  0
   -0.3912   40.8541   -3.2777 O   0  0  0  0  0  0  0  0  0  0  0  0
    1.4492   34.8129   -0.4566 C   0  0  2  0  0  0  0  0  0  0  0  0
    4.0545   36.2696    0.3483 C   0  0  1  0  0  0  0  0  0  0  0  0
    2.9085   36.8098    0.9939 N   0  0  0  0  0  0  0  0  0  0  0  0
   -0.0413   38.6830   -2.4167 C   0  0  2  0  0  0  0  0  0  0  0  0
    0.4264   39.1311   -1.0830 N   0  0  0  0  0  0  0  0  0  0  0  0
    0.3648   33.9116   -0.0532 C   0  0  1  0  0  0  0  0  0  0  0  0
    0.9180   32.5970    0.0361 O   0  0  0  0  0  0  0  0  0  0  0  0
    4.7865   35.5345    1.2702 C   0  0  2  0  0  0  0  0  0  0  0  0
    5.4182   36.4445    2.1350 O   0  0  0  0  0  0  0  0  0  0  0  0
    0.6051   37.3474   -2.7486 C   0  0  1  0  0  0  0  0  0  0  0  0
    0.2970   36.4431   -1.6993 O   0  0  0  0  0  0  0  0  0  0  0  0
   -0.6628   33.9129   -1.1019 C   0  0  1  0  0  0  0  0  0  0  0  0
    0.0522   34.2473   -2.2850 O   0  0  0  0  0  0  0  0  0  0  0  0
    5.8275   34.7020    0.5690 C   0  0  1  0  0  0  0  0  0  0  0  0
    6.3803   33.8018    1.4836 O   0  0  0  0  0  0  0  0  0  0  0  0
    0.0731   36.8170   -4.1104 C   0  0  2  0  0  0  0  0  0  0  0  0
    0.6826   35.5598   -4.3991 O   0  0  0  0  0  0  0  0  0  0  0  0
    5.1918   33.9213   -0.5305 C   0  0  1  0  0  0  0  0  0  0  0  0
    4.6456   34.8312   -1.4411 O   0  0  0  0  0  0  0  0  0  0  0  0
    0.4296   37.8255   -5.2226 C   0  0  1  0  0  0  0  0  0  0  0  0
   -0.0533   37.3523   -6.4905 O   0  0  0  0  0  0  0  0  0  0  0  0
    6.2307   33.0698   -1.2867 C   0  0  0  0  0  0  0  0  0  0  0  0
    5.5565   32.2076   -2.1961 O   0  0  0  0  0  0  0  0  0  0  0  0
   -1.0634   42.0838   -6.1677 N   0  0  0  0  0  0  0  0  0  0  0  0
   -1.1152   38.8402    0.4117 N   0  0  0  0  0  0  0  0  0  0  0  0
  1  2  1  0  0  0  0
  1 39  1  0  0  0  0
  3  4  1  0  0  0  0
  5  6  1  0  0  0  0
  5 40  1  0  0  0  0
  9 10  1  6  0  0  0
  9 14  1  0  0  0  0
  9 35  1  0  0  0  0
 10  1  1  0  0  0  0
 11 16  1  0  0  0  0
 11 28  1  0  0  0  0
 11 26  1  1  0  0  0
 12 17  1  0  0  0  0
 12 34  1  0  0  0  0
 12 13  1  1  0  0  0
 14 15  1  1  0  0  0
 14 19  1  0  0  0  0
 16 13  1  6  0  0  0
 16 21  1  0  0  0  0
 17 18  1  1  0  0  0
 17 23  1  0  0  0  0
 18  8  1  0  0  0  0
 19 20  1  1  0  0  0
 19 25  1  0  0  0  0
 20  5  1  0  0  0  0
 21  3  1  1  0  0  0
 21 22  1  0  0  0  0
 21 27  1  0  0  0  0
 23 24  1  1  0  0  0
 23 29  1  0  0  0  0
 25 26  1  1  0  0  0
 25 31  1  0  0  0  0
 27  7  1  6  0  0  0
 27 28  1  0  0  0  0
 29 30  1  1  0  0  0
 29 33  1  0  0  0  0
 31 32  1  6  0  0  0
 31 35  1  0  0  0  0
 33 34  1  0  0  0  0
 33 37  1  6  0  0  0
 35 36  1  6  0  0  0
 37 38  1  0  0  0  0
M  END
>  <CHROM.1>
-107.10557384,-71.88229248,139.57986432,85.45999999,65.97128783,-105.78855888
100.30243985,-86.21842180,-57.86805542,-173.33988432,171.95444283,1.48150955
36.52538700,-1.69974481,-3.08594683,-1.01750366,0.89851674

>  <Name>
1nta_lig

>  <RI>
0

>  <Rbt.Current_Directory>
/home/itssahil/PROJECTS/Mol_Feturizer/New_Systems/rnas/1nta

>  <Rbt.Executable>
rbdock ($Id: //depot/dev/client3/rdock/2013.1/src/exe/rbdock.cxx#4 $)

>  <Rbt.Library>
libRbt.so (2013.1, Build901 2013/11/27)

>  <Rbt.Parameter_File>
/export/apps/rDock/src/rDock_2013.1_src/data/scripts/dock_solv.prm

>  <Rbt.Receptor>
prm/pocket_docking_8.prm

>  <SCORE>
-21.6908

>  <SCORE.INTER>
-1.65067

>  <SCORE.INTER.CONST>
1

>  <SCORE.INTER.POLAR>
-0.8

>  <SCORE.INTER.ROT>
11

>  <SCORE.INTER.SOLV>
8.84369

>  <SCORE.INTER.VDW>
-12.315

>  <SCORE.INTER.norm>
-0.0412668

>  <SCORE.INTRA>
-20.0402

>  <SCORE.INTRA.DIHEDRAL>
-5.76953

>  <SCORE.INTRA.DIHEDRAL.0>
19.0336

>  <SCORE.INTRA.POLAR>
0

>  <SCORE.INTRA.POLAR.0>
0

>  <SCORE.INTRA.REPUL>
0

>  <SCORE.INTRA.REPUL.0>
0

>  <SCORE.INTRA.SOLV>
-3.40735

>  <SCORE.INTRA.SOLV.lig_0>
-97.5861

>  <SCORE.INTRA.VDW>
-15.4517

>  <SCORE.INTRA.VDW.0>
11.7669

>  <SCORE.INTRA.norm>
-0.501004

>  <SCORE.RESTR>
0

>  <SCORE.RESTR.CAVITY>
0

>  <SCORE.RESTR.norm>
0

>  <SCORE.SYSTEM>
0

>  <SCORE.SYSTEM.CONST>
0

>  <SCORE.SYSTEM.DIHEDRAL>
0

>  <SCORE.SYSTEM.SOLV>
0

>  <SCORE.SYSTEM.norm>
0

>  <SCORE.heavy>
40

>  <SCORE.norm>
-0.542271

>  <RMSD>
7.393

$$$$
1nta_lig
 OpenBabel11021811403D
libRbt.so/2013.1/901 2013/11/27
 40 42  0  0  0  0  0  0  0  0999 V2000
   -0.9714   42.6565   -1.1785 C   0  0  0  0  0  0  0  0  0  0  0  0
   -1.9763   43.0650   -1.8592 N   0  0  0  0  0  0  0  0  0  0  0  0
   -0.1112   32.7973   -2.6257 C   0  0  0  0  0  0  0  0  0  0  0  0
   -0.7235   33.2904   -1.7042 O   0  0  0  0  0  0  0  0  0  0  0  0
   -0.8121   36.9981    0.5519 C   0  0  0  0  0  0  0  0  0  0  0  0
   -0.8414   37.5167    1.7519 N   0  0  0  0  0  0  0  0  0  0  0  0
   -1.2156   33.4630   -5.6914 C   0  0  0  0  0  0  0  0  0  0  0  0
    5.7266   32.0737   -4.7287 C   0  0  0  0  0  0  0  0  0  0  0  0
   -0.4546   40.5804   -2.1900 C   0  0  2  0  0  0  0  0  0  0  0  0
   -0.0451   42.0035   -1.8642 N   0  0  0  0  0  0  0  0  0  0  0  0
    0.8236   35.8421   -3.9386 C   0  0  2  0  0  0  0  0  0  0  0  0
    3.2353   33.3693   -2.8860 C   0  0  1  0  0  0  0  0  0  0  0  0
    2.6844   34.4983   -3.4686 O   0  0  0  0  0  0  0  0  0  0  0  0
    0.0255   39.6247   -1.0814 C   0  0  1  0  0  0  0  0  0  0  0  0
   -0.6323   39.9937    0.0929 O   0  0  0  0  0  0  0  0  0  0  0  0
    1.3805   34.5913   -3.2673 C   0  0  2  0  0  0  0  0  0  0  0  0
    4.7392   33.2505   -2.9987 C   0  0  1  0  0  0  0  0  0  0  0  0
    5.1009   33.3358   -4.3713 N   0  0  0  0  0  0  0  0  0  0  0  0
   -0.3418   38.1632   -1.3708 C   0  0  2  0  0  0  0  0  0  0  0  0
    0.1096   37.2137   -0.3254 N   0  0  0  0  0  0  0  0  0  0  0  0
    0.4686   33.5651   -3.7832 C   0  0  1  0  0  0  0  0  0  0  0  0
    1.2257   32.7276   -4.6593 O   0  0  0  0  0  0  0  0  0  0  0  0
    5.3747   34.2682   -2.3012 C   0  0  2  0  0  0  0  0  0  0  0  0
    6.7352   33.9306   -2.2012 O   0  0  0  0  0  0  0  0  0  0  0  0
    0.2840   37.7745   -2.7009 C   0  0  1  0  0  0  0  0  0  0  0  0
   -0.0616   36.4238   -2.9652 O   0  0  0  0  0  0  0  0  0  0  0  0
   -0.5856   34.2227   -4.5654 C   0  0  1  0  0  0  0  0  0  0  0  0
    0.0216   35.4259   -5.0199 O   0  0  0  0  0  0  0  0  0  0  0  0
    4.7876   34.4036   -0.9208 C   0  0  1  0  0  0  0  0  0  0  0  0
    5.2715   35.5762   -0.3349 O   0  0  0  0  0  0  0  0  0  0  0  0
   -0.2328   38.7094   -3.8312 C   0  0  2  0  0  0  0  0  0  0  0  0
    0.3568   38.3229   -5.0715 O   0  0  0  0  0  0  0  0  0  0  0  0
    3.3030   34.5039   -1.0121 C   0  0  1  0  0  0  0  0  0  0  0  0
    2.8295   33.3248   -1.5960 O   0  0  0  0  0  0  0  0  0  0  0  0
    0.1644   40.1650   -3.5077 C   0  0  1  0  0  0  0  0  0  0  0  0
   -0.3040   41.0455   -4.5423 O   0  0  0  0  0  0  0  0  0  0  0  0
    2.6624   34.6239    0.3848 C   0  0  0  0  0  0  0  0  0  0  0  0
    2.7400   33.3655    1.0448 O   0  0  0  0  0  0  0  0  0  0  0  0
   -0.8663   42.8605    0.0902 N   0  0  0  0  0  0  0  0  0  0  0  0
   -1.7326   36.1945    0.1869 N   0  0  0  0  0  0  0  0  0  0  0  0
  1  2  1  0  0  0  0
  1 39  1  0  0  0  0
  3  4  1  0  0  0  0
  5  6  1  0  0  0  0
  5 40  1  0  0  0  0
  9 10  1  1  0  0  0
  9 14  1  0  0  0  0
  9 35  1  0  0  0  0
 10  1  1  0  0  0  0
 11 16  1  0  0  0  0
 11 28  1  0  0  0  0
 11 26  1  1  0  0  0
 12 17  1  0  0  0  0
 12 34  1  0  0  0  0
 12 13  1  1  0  0  0
 14 15  1  1  0  0  0
 14 19  1  0  0  0  0
 16 13  1  6  0  0  0
 16 21  1  0  0  0  0
 17 18  1  6  0  0  0
 17 23  1  0  0  0  0
 18  8  1  0  0  0  0
 19 20  1  1  0  0  0
 19 25  1  0  0  0  0
 20  5  1  0  0  0  0
 21  3  1  1  0  0  0
 21 22  1  0  0  0  0
 21 27  1  0  0  0  0
 23 24  1  1  0  0  0
 23 29  1  0  0  0  0
 25 26  1  6  0  0  0
 25 31  1  0  0  0  0
 27  7  1  6  0  0  0
 27 28  1  0  0  0  0
 29 30  1  6  0  0  0
 29 33  1  0  0  0  0
 31 32  1  6  0  0  0
 31 35  1  0  0  0  0
 33 34  1  0  0  0  0
 33 37  1  1  0  0  0
 35 36  1  6  0  0  0
 37 38  1  0  0  0  0
M  END
>  <CHROM.1>
-91.25937954,-76.61785153,124.97781143,-176.03909789,-179.48712056,-117.65902085
93.56053477,-103.26757059,56.79244113,-160.72612672,-72.69156172,1.22739104
36.34795751,-2.27648264,-2.35673822,0.77695283,-2.36673334

>  <Name>
1nta_lig

>  <RI>
0

>  <Rbt.Current_Directory>
/home/itssahil/PROJECTS/Mol_Feturizer/New_Systems/rnas/1nta

>  <Rbt.Executable>
rbdock ($Id: //depot/dev/client3/rdock/2013.1/src/exe/rbdock.cxx#4 $)

>  <Rbt.Library>
libRbt.so (2013.1, Build901 2013/11/27)

>  <Rbt.Parameter_File>
/export/apps/rDock/src/rDock_2013.1_src/data/scripts/dock_solv.prm

>  <Rbt.Receptor>
prm/pocket_docking_4.prm

>  <SCORE>
-21.9644

>  <SCORE.INTER>
-1.82239

>  <SCORE.INTER.CONST>
1

>  <SCORE.INTER.POLAR>
-0.67882

>  <SCORE.INTER.ROT>
11

>  <SCORE.INTER.SOLV>
11.2289

>  <SCORE.INTER.VDW>
-13.6285

>  <SCORE.INTER.norm>
-0.0455598

>  <SCORE.INTRA>
-20.142

>  <SCORE.INTRA.DIHEDRAL>
-5.8291

>  <SCORE.INTRA.DIHEDRAL.0>
19.0336

>  <SCORE.INTRA.POLAR>
0

>  <SCORE.INTRA.POLAR.0>
0

>  <SCORE.INTRA.REPUL>
0

>  <SCORE.INTRA.REPUL.0>
0

>  <SCORE.INTRA.SOLV>
-3.57006

>  <SCORE.INTRA.SOLV.lig_0>
-97.5861

>  <SCORE.INTRA.VDW>
-15.4424

>  <SCORE.INTRA.VDW.0>
11.7669

>  <SCORE.INTRA.norm>
-0.50355

>  <SCORE.RESTR>
0

>  <SCORE.RESTR.CAVITY>
0

>  <SCORE.RESTR.norm>
0

>  <SCORE.SYSTEM>
0

>  <SCORE.SYSTEM.CONST>
0

>  <SCORE.SYSTEM.DIHEDRAL>
0

>  <SCORE.SYSTEM.SOLV>
0

>  <SCORE.SYSTEM.norm>
0

>  <SCORE.heavy>
40

>  <SCORE.norm>
-0.54911

>  <RMSD>
7.433

$$$$
1nta_lig
 OpenBabel11021811403D
libRbt.so/2013.1/901 2013/11/27
 40 42  0  0  0  0  0  0  0  0999 V2000
   -3.2988   31.7207    0.3041 C   0  0  0  0  0  0  0  0  0  0  0  0
   -3.0609   30.4906    0.0393 N   0  0  0  0  0  0  0  0  0  0  0  0
    0.4533   40.4999   -2.1625 C   0  0  0  0  0  0  0  0  0  0  0  0
   -0.2336   41.4106   -2.5700 O   0  0  0  0  0  0  0  0  0  0  0  0
    1.6152   34.3881   -2.5152 C   0  0  0  0  0  0  0  0  0  0  0  0
    1.7240   33.1311   -2.8587 N   0  0  0  0  0  0  0  0  0  0  0  0
   -1.4062   40.8508    0.5726 C   0  0  0  0  0  0  0  0  0  0  0  0
    3.3542   41.0419   -3.6958 C   0  0  0  0  0  0  0  0  0  0  0  0
   -1.9196   33.6414    0.2057 C   0  0  2  0  0  0  0  0  0  0  0  0
   -2.3249   32.3695    0.9248 N   0  0  0  0  0  0  0  0  0  0  0  0
    0.8857   38.1032    0.2742 C   0  0  2  0  0  0  0  0  0  0  0  0
    3.8522   39.1196   -1.0948 C   0  0  1  0  0  0  0  0  0  0  0  0
    2.8677   39.2835   -0.1350 O   0  0  0  0  0  0  0  0  0  0  0  0
   -0.4342   33.5715   -0.1961 C   0  0  1  0  0  0  0  0  0  0  0  0
   -0.3019   32.5163   -1.1000 O   0  0  0  0  0  0  0  0  0  0  0  0
    1.6513   39.0795   -0.6123 C   0  0  2  0  0  0  0  0  0  0  0  0
    4.3681   40.3977   -1.7186 C   0  0  1  0  0  0  0  0  0  0  0  0
    3.2654   41.1233   -2.2475 N   0  0  0  0  0  0  0  0  0  0  0  0
    0.0385   34.8456   -0.9089 C   0  0  2  0  0  0  0  0  0  0  0  0
    1.4665   34.8150   -1.3063 N   0  0  0  0  0  0  0  0  0  0  0  0
    0.6909   40.1835   -0.7102 C   0  0  1  0  0  0  0  0  0  0  0  0
    1.2473   41.2929   -0.0018 O   0  0  0  0  0  0  0  0  0  0  0  0
    5.0171   41.1860   -0.7787 C   0  0  2  0  0  0  0  0  0  0  0  0
    5.7147   42.1891   -1.4731 O   0  0  0  0  0  0  0  0  0  0  0  0
   -0.1937   36.0222    0.0258 C   0  0  1  0  0  0  0  0  0  0  0  0
    0.2417   37.1976   -0.6395 O   0  0  0  0  0  0  0  0  0  0  0  0
   -0.5547   39.7842   -0.0433 C   0  0  1  0  0  0  0  0  0  0  0  0
   -0.1378   38.8247    0.9203 O   0  0  0  0  0  0  0  0  0  0  0  0
    5.9897   40.3575    0.0188 C   0  0  1  0  0  0  0  0  0  0  0  0
    6.4455   41.1114    1.1034 O   0  0  0  0  0  0  0  0  0  0  0  0
   -1.7002   36.1229    0.3984 C   0  0  2  0  0  0  0  0  0  0  0  0
   -1.8993   37.2375    1.2664 O   0  0  0  0  0  0  0  0  0  0  0  0
    5.3032   39.1443    0.5474 C   0  0  1  0  0  0  0  0  0  0  0  0
    4.8548   38.3959   -0.5455 O   0  0  0  0  0  0  0  0  0  0  0  0
   -2.1325   34.8292    1.1200 C   0  0  1  0  0  0  0  0  0  0  0  0
   -3.5232   34.9032    1.4739 O   0  0  0  0  0  0  0  0  0  0  0  0
    6.2730   38.2583    1.3543 C   0  0  0  0  0  0  0  0  0  0  0  0
    5.5799   37.1032    1.8129 O   0  0  0  0  0  0  0  0  0  0  0  0
   -4.4119   32.2925   -0.0061 N   0  0  0  0  0  0  0  0  0  0  0  0
    1.6785   35.2962   -3.4084 N   0  0  0  0  0  0  0  0  0  0  0  0
  1  2  1  0  0  0  0
  1 39  1  0  0  0  0
  3  4  1  0  0  0  0
  5  6  1  0  0  0  0
  5 40  1  0  0  0  0
  9 10  1  1  0  0  0
  9 14  1  0  0  0  0
  9 35  1  0  0  0  0
 10  1  1  0  0  0  0
 11 16  1  0  0  0  0
 11 28  1  0  0  0  0
 11 26  1  6  0  0  0
 12 17  1  0  0  0  0
 12 34  1  0  0  0  0
 12 13  1  1  0  0  0
 14 15  1  6  0  0  0
 14 19  1  0  0  0  0
 16 13  1  1  0  0  0
 16 21  1  0  0  0  0
 17 18  1  1  0  0  0
 17 23  1  0  0  0  0
 18  8  1  0  0  0  0
 19 20  1  1  0  0  0
 19 25  1  0  0  0  0
 20  5  1  0  0  0  0
 21  3  1  6  0  0  0
 21 22  1  0  0  0  0
 21 27  1  0  0  0  0
 23 24  1  6  0  0  0
 23 29  1  0  0  0  0
 25 26  1  6  0  0  0
 25 31  1  0  0  0  0
 27  7  1  1  0  0  0
 27 28  1  0  0  0  0
 29 30  1  1  0  0  0
 29 33  1  0  0  0  0
 31 32  1  1  0  0  0
 31 35  1  0  0  0  0
 33 34  1  0  0  0  0
 33 37  1  6  0  0  0
 35 36  1  6  0  0  0
 37 38  1  0  0  0  0
M  END
>  <CHROM.1>
-119.91721198,126.22098377,163.45718923,98.97629324,129.43871367,-108.68663708
93.16211292,-86.89888832,-175.79686388,-141.90435074,-178.81630576,1.20146081
37.41214683,-0.44666824,-2.29229794,0.07889253,-0.02435497

>  <Name>
1nta_lig

>  <RI>
0

>  <Rbt.Current_Directory>
/home/itssahil/PROJECTS/Mol_Feturizer/New_Systems/rnas/1nta

>  <Rbt.Executable>
rbdock ($Id: //depot/dev/client3/rdock/2013.1/src/exe/rbdock.cxx#4 $)

>  <Rbt.Library>
libRbt.so (2013.1, Build901 2013/11/27)

>  <Rbt.Parameter_File>
/export/apps/rDock/src/rDock_2013.1_src/data/scripts/dock_solv.prm

>  <Rbt.Receptor>
prm/pocket_docking_6.prm

>  <SCORE>
-23.5371

>  <SCORE.INTER>
-6.22656

>  <SCORE.INTER.CONST>
1

>  <SCORE.INTER.POLAR>
-1.54149

>  <SCORE.INTER.ROT>
11

>  <SCORE.INTER.SOLV>
16.9656

>  <SCORE.INTER.VDW>
-15.6013

>  <SCORE.INTER.norm>
-0.155664

>  <SCORE.INTRA>
-17.3106

>  <SCORE.INTRA.DIHEDRAL>
3.42969

>  <SCORE.INTRA.DIHEDRAL.0>
19.0336

>  <SCORE.INTRA.POLAR>
0

>  <SCORE.INTRA.POLAR.0>
0

>  <SCORE.INTRA.REPUL>
0

>  <SCORE.INTRA.REPUL.0>
0

>  <SCORE.INTRA.SOLV>
-3.9018

>  <SCORE.INTRA.SOLV.lig_0>
-97.5861

>  <SCORE.INTRA.VDW>
-17.0745

>  <SCORE.INTRA.VDW.0>
11.7669

>  <SCORE.INTRA.norm>
-0.432764

>  <SCORE.RESTR>
0

>  <SCORE.RESTR.CAVITY>
0

>  <SCORE.RESTR.norm>
0

>  <SCORE.SYSTEM>
0

>  <SCORE.SYSTEM.CONST>
0

>  <SCORE.SYSTEM.DIHEDRAL>
0

>  <SCORE.SYSTEM.SOLV>
0

>  <SCORE.SYSTEM.norm>
0

>  <SCORE.heavy>
40

>  <SCORE.norm>
-0.588428

>  <RMSD>
7.441

$$$$
1nta_lig
 OpenBabel11021811403D
libRbt.so/2013.1/901 2013/11/27
 40 42  0  0  0  0  0  0  0  0999 V2000
   -1.7636   32.3333   -7.4891 C   0  0  0  0  0  0  0  0  0  0  0  0
   -1.7247   33.1603   -8.4662 N   0  0  0  0  0  0  0  0  0  0  0  0
    0.2475   35.6382    1.6441 C   0  0  0  0  0  0  0  0  0  0  0  0
   -0.6292   35.7571    2.4715 O   0  0  0  0  0  0  0  0  0  0  0  0
    0.8715   36.8155   -3.3479 C   0  0  0  0  0  0  0  0  0  0  0  0
    0.0226   37.6329   -3.9147 N   0  0  0  0  0  0  0  0  0  0  0  0
   -0.6626   32.4440    1.8189 C   0  0  0  0  0  0  0  0  0  0  0  0
    5.1581   37.5846    2.0415 C   0  0  0  0  0  0  0  0  0  0  0  0
   -0.6701   32.8455   -5.4538 C   0  0  2  0  0  0  0  0  0  0  0  0
   -0.6301   32.1876   -6.8192 N   0  0  0  0  0  0  0  0  0  0  0  0
    1.5620   33.5600   -0.7687 C   0  0  2  0  0  0  0  0  0  0  0  0
    3.9804   35.5192   -0.0804 C   0  0  1  0  0  0  0  0  0  0  0  0
    3.2437   34.5273    0.5449 O   0  0  0  0  0  0  0  0  0  0  0  0
    0.3668   33.9827   -5.3840 C   0  0  1  0  0  0  0  0  0  0  0  0
   -0.0110   34.9419   -6.3247 O   0  0  0  0  0  0  0  0  0  0  0  0
    1.9517   34.6035    0.2727 C   0  0  2  0  0  0  0  0  0  0  0  0
    5.3218   35.8242    0.5493 C   0  0  1  0  0  0  0  0  0  0  0  0
    5.1198   36.1368    1.9217 N   0  0  0  0  0  0  0  0  0  0  0  0
    0.3871   34.6710   -4.0126 C   0  0  2  0  0  0  0  0  0  0  0  0
    1.3780   35.7689   -3.9080 N   0  0  0  0  0  0  0  0  0  0  0  0
    0.9512   34.3491    1.3143 C   0  0  1  0  0  0  0  0  0  0  0  0
    1.6424   33.8094    2.4426 O   0  0  0  0  0  0  0  0  0  0  0  0
    6.1767   34.7349    0.4563 C   0  0  2  0  0  0  0  0  0  0  0  0
    7.4694   35.1793    0.7828 O   0  0  0  0  0  0  0  0  0  0  0  0
    0.6976   33.6175   -2.9611 C   0  0  1  0  0  0  0  0  0  0  0  0
    0.7116   34.2585   -1.6952 O   0  0  0  0  0  0  0  0  0  0  0  0
    0.0059   33.3392    0.8221 C   0  0  1  0  0  0  0  0  0  0  0  0
    0.7592   32.5955   -0.1278 O   0  0  0  0  0  0  0  0  0  0  0  0
    6.1737   34.1842   -0.9455 C   0  0  1  0  0  0  0  0  0  0  0  0
    6.8452   32.9589   -0.9533 O   0  0  0  0  0  0  0  0  0  0  0  0
   -0.3726   32.4897   -2.9986 C   0  0  2  0  0  0  0  0  0  0  0  0
   -0.0704   31.5174   -1.9992 O   0  0  0  0  0  0  0  0  0  0  0  0
    4.7706   33.9520   -1.3928 C   0  0  1  0  0  0  0  0  0  0  0  0
    4.1095   35.1842   -1.3848 O   0  0  0  0  0  0  0  0  0  0  0  0
   -0.3543   31.8180   -4.3877 C   0  0  1  0  0  0  0  0  0  0  0  0
   -1.3369   30.7710   -4.4421 O   0  0  0  0  0  0  0  0  0  0  0  0
    4.7247   33.4061   -2.8336 C   0  0  0  0  0  0  0  0  0  0  0  0
    3.3767   33.1069   -3.1779 O   0  0  0  0  0  0  0  0  0  0  0  0
   -2.8307   31.6803   -7.1775 N   0  0  0  0  0  0  0  0  0  0  0  0
    1.2742   37.0449   -2.1598 N   0  0  0  0  0  0  0  0  0  0  0  0
  1  2  1  0  0  0  0
  1 39  1  0  0  0  0
  3  4  1  0  0  0  0
  5  6  1  0  0  0  0
  5 40  1  0  0  0  0
  9 10  1  6  0  0  0
  9 14  1  0  0  0  0
  9 35  1  0  0  0  0
 10  1  1  0  0  0  0
 11 16  1  0  0  0  0
 11 28  1  0  0  0  0
 11 26  1  6  0  0  0
 12 17  1  0  0  0  0
 12 34  1  0  0  0  0
 12 13  1  1  0  0  0
 14 15  1  6  0  0  0
 14 19  1  0  0  0  0
 16 13  1  1  0  0  0
 16 21  1  0  0  0  0
 17 18  1  1  0  0  0
 17 23  1  0  0  0  0
 18  8  1  0  0  0  0
 19 20  1  6  0  0  0
 19 25  1  0  0  0  0
 20  5  1  0  0  0  0
 21  3  1  1  0  0  0
 21 22  1  0  0  0  0
 21 27  1  0  0  0  0
 23 24  1  6  0  0  0
 23 29  1  0  0  0  0
 25 26  1  1  0  0  0
 25 31  1  0  0  0  0
 27  7  1  1  0  0  0
 27 28  1  0  0  0  0
 29 30  1  1  0  0  0
 29 33  1  0  0  0  0
 31 32  1  1  0  0  0
 31 35  1  0  0  0  0
 33 34  1  0  0  0  0
 33 37  1  6  0  0  0
 35 36  1  1  0  0  0
 37 38  1  0  0  0  0
M  END
>  <CHROM.1>
-116.40076726,106.87685848,156.72697780,158.37429201,102.19843575,-100.44630427
134.63252592,-73.74414940,-179.65528623,-153.13867198,175.67252333,1.72736634
34.13622386,-1.89187266,-2.24738869,0.24511404,1.44156717

>  <Name>
1nta_lig

>  <RI>
0

>  <Rbt.Current_Directory>
/home/itssahil/PROJECTS/Mol_Feturizer/New_Systems/rnas/1nta

>  <Rbt.Executable>
rbdock ($Id: //depot/dev/client3/rdock/2013.1/src/exe/rbdock.cxx#4 $)

>  <Rbt.Library>
libRbt.so (2013.1, Build901 2013/11/27)

>  <Rbt.Parameter_File>
/export/apps/rDock/src/rDock_2013.1_src/data/scripts/dock_solv.prm

>  <Rbt.Receptor>
prm/pocket_docking_6.prm

>  <SCORE>
-26.7463

>  <SCORE.INTER>
-8.03643

>  <SCORE.INTER.CONST>
1

>  <SCORE.INTER.POLAR>
-0.77719

>  <SCORE.INTER.ROT>
11

>  <SCORE.INTER.SOLV>
16.0126

>  <SCORE.INTER.VDW>
-19.0379

>  <SCORE.INTER.norm>
-0.200911

>  <SCORE.INTRA>
-18.7098

>  <SCORE.INTRA.DIHEDRAL>
-1.37454

>  <SCORE.INTRA.DIHEDRAL.0>
19.0336

>  <SCORE.INTRA.POLAR>
0

>  <SCORE.INTRA.POLAR.0>
0

>  <SCORE.INTRA.REPUL>
0

>  <SCORE.INTRA.REPUL.0>
0

>  <SCORE.INTRA.SOLV>
-1.48432

>  <SCORE.INTRA.SOLV.lig_0>
-97.5861

>  <SCORE.INTRA.VDW>
-17.2804

>  <SCORE.INTRA.VDW.0>
11.7669

>  <SCORE.INTRA.norm>
-0.467746

>  <SCORE.RESTR>
0

>  <SCORE.RESTR.CAVITY>
0

>  <SCORE.RESTR.norm>
0

>  <SCORE.SYSTEM>
0

>  <SCORE.SYSTEM.CONST>
0

>  <SCORE.SYSTEM.DIHEDRAL>
0

>  <SCORE.SYSTEM.SOLV>
0

>  <SCORE.SYSTEM.norm>
0

>  <SCORE.heavy>
40

>  <SCORE.norm>
-0.668657

>  <RMSD>
7.447

$$$$
1nta_lig
 OpenBabel11021811403D
libRbt.so/2013.1/901 2013/11/27
 40 42  0  0  0  0  0  0  0  0999 V2000
   -4.4005   37.8850    1.1444 C   0  0  0  0  0  0  0  0  0  0  0  0
   -5.5151   37.3660    0.7860 N   0  0  0  0  0  0  0  0  0  0  0  0
    4.4715   33.4496    0.0710 C   0  0  0  0  0  0  0  0  0  0  0  0
    5.6270   33.7246    0.3089 O   0  0  0  0  0  0  0  0  0  0  0  0
   -1.1976   32.7208    0.3922 C   0  0  0  0  0  0  0  0  0  0  0  0
   -2.0002   31.7334    0.6933 N   0  0  0  0  0  0  0  0  0  0  0  0
    1.9082   32.8154   -1.9511 C   0  0  0  0  0  0  0  0  0  0  0  0
    6.5765   38.5308    1.6071 C   0  0  0  0  0  0  0  0  0  0  0  0
   -2.3262   36.8032    1.5013 C   0  0  2  0  0  0  0  0  0  0  0  0
   -3.6993   37.1820    2.0211 N   0  0  0  0  0  0  0  0  0  0  0  0
    1.8682   35.7033    0.1818 C   0  0  2  0  0  0  0  0  0  0  0  0
    3.7596   37.8062    0.3611 C   0  0  1  0  0  0  0  0  0  0  0  0
    3.8642   36.7249   -0.4976 O   0  0  0  0  0  0  0  0  0  0  0  0
   -2.1150   35.2823    1.6248 C   0  0  1  0  0  0  0  0  0  0  0  0
   -3.0607   34.6677    0.8027 O   0  0  0  0  0  0  0  0  0  0  0  0
    3.3822   35.6100    0.0256 C   0  0  2  0  0  0  0  0  0  0  0  0
    4.7993   38.8884    0.1696 C   0  0  1  0  0  0  0  0  0  0  0  0
    6.0906   38.2994    0.2571 N   0  0  0  0  0  0  0  0  0  0  0  0
   -0.7289   34.8435    1.1338 C   0  0  2  0  0  0  0  0  0  0  0  0
   -0.4890   33.3845    1.2426 N   0  0  0  0  0  0  0  0  0  0  0  0
    3.5139   34.3328   -0.6832 C   0  0  1  0  0  0  0  0  0  0  0  0
    3.9779   34.6265   -2.0024 O   0  0  0  0  0  0  0  0  0  0  0  0
    4.6647   39.4970   -1.0703 C   0  0  2  0  0  0  0  0  0  0  0  0
    5.4483   40.6636   -1.0592 O   0  0  0  0  0  0  0  0  0  0  0  0
    0.3170   35.5831    1.9529 C   0  0  1  0  0  0  0  0  0  0  0  0
    1.5963   35.1764    1.4925 O   0  0  0  0  0  0  0  0  0  0  0  0
    2.1872   33.7121   -0.7848 C   0  0  1  0  0  0  0  0  0  0  0  0
    1.2873   34.8126   -0.7428 O   0  0  0  0  0  0  0  0  0  0  0  0
    3.2250   39.8611   -1.3221 C   0  0  1  0  0  0  0  0  0  0  0  0
    3.0810   40.2457   -2.6577 O   0  0  0  0  0  0  0  0  0  0  0  0
    0.1348   37.1195    1.7953 C   0  0  2  0  0  0  0  0  0  0  0  0
    1.1305   37.7951    2.5618 O   0  0  0  0  0  0  0  0  0  0  0  0
    2.3554   38.6746   -1.0802 C   0  0  1  0  0  0  0  0  0  0  0  0
    2.5043   38.3008    0.2590 O   0  0  0  0  0  0  0  0  0  0  0  0
   -1.2645   37.5202    2.3079 C   0  0  1  0  0  0  0  0  0  0  0  0
   -1.4521   38.9383    2.1715 O   0  0  0  0  0  0  0  0  0  0  0  0
    0.8690   39.0132   -1.3085 C   0  0  0  0  0  0  0  0  0  0  0  0
    0.4601   39.9898   -0.3577 O   0  0  0  0  0  0  0  0  0  0  0  0
   -3.9869   39.0180    0.6890 N   0  0  0  0  0  0  0  0  0  0  0  0
   -1.0563   33.0731   -0.8253 N   0  0  0  0  0  0  0  0  0  0  0  0
  1  2  1  0  0  0  0
  1 39  1  0  0  0  0
  3  4  1  0  0  0  0
  5  6  1  0  0  0  0
  5 40  1  0  0  0  0
  9 10  1  1  0  0  0
  9 14  1  0  0  0  0
  9 35  1  0  0  0  0
 10  1  1  0  0  0  0
 11 16  1  0  0  0  0
 11 28  1  0  0  0  0
 11 26  1  1  0  0  0
 12 17  1  0  0  0  0
 12 34  1  0  0  0  0
 12 13  1  6  0  0  0
 14 15  1  6  0  0  0
 14 19  1  0  0  0  0
 16 13  1  6  0  0  0
 16 21  1  0  0  0  0
 17 18  1  6  0  0  0
 17 23  1  0  0  0  0
 18  8  1  0  0  0  0
 19 20  1  1  0  0  0
 19 25  1  0  0  0  0
 20  5  1  0  0  0  0
 21  3  1  1  0  0  0
 21 22  1  0  0  0  0
 21 27  1  0  0  0  0
 23 24  1  1  0  0  0
 23 29  1  0  0  0  0
 25 26  1  6  0  0  0
 25 31  1  0  0  0  0
 27  7  1  6  0  0  0
 27 28  1  0  0  0  0
 29 30  1  6  0  0  0
 29 33  1  0  0  0  0
 31 32  1  1  0  0  0
 31 35  1  0  0  0  0
 33 34  1  0  0  0  0
 33 37  1  1  0  0  0
 35 36  1  6  0  0  0
 37 38  1  0  0  0  0
M  END
>  <CHROM.1>
-126.65265458,120.68357876,161.13290636,152.33245233,68.15524012,-98.36552408
70.26547451,-126.14773216,-59.50814404,70.72169950,-63.70545681,1.19214383
36.55923394,0.26446879,2.88580170,-0.21712111,-3.12112072

>  <Name>
1nta_lig

>  <RI>
0

>  <Rbt.Current_Directory>
/home/itssahil/PROJECTS/Mol_Feturizer/New_Systems/rnas/1nta

>  <Rbt.Executable>
rbdock ($Id: //depot/dev/client3/rdock/2013.1/src/exe/rbdock.cxx#4 $)

>  <Rbt.Library>
libRbt.so (2013.1, Build901 2013/11/27)

>  <Rbt.Parameter_File>
/export/apps/rDock/src/rDock_2013.1_src/data/scripts/dock_solv.prm

>  <Rbt.Receptor>
prm/pocket_docking_5.prm

>  <SCORE>
-20.6235

>  <SCORE.INTER>
-0.952443

>  <SCORE.INTER.CONST>
1

>  <SCORE.INTER.POLAR>
-0.22595

>  <SCORE.INTER.ROT>
11

>  <SCORE.INTER.SOLV>
13.3106

>  <SCORE.INTER.VDW>
-15.252

>  <SCORE.INTER.norm>
-0.0238111

>  <SCORE.INTRA>
-19.6711

>  <SCORE.INTRA.DIHEDRAL>
-10.3099

>  <SCORE.INTRA.DIHEDRAL.0>
19.0336

>  <SCORE.INTRA.POLAR>
0

>  <SCORE.INTRA.POLAR.0>
0

>  <SCORE.INTRA.REPUL>
0

>  <SCORE.INTRA.REPUL.0>
0

>  <SCORE.INTRA.SOLV>
-0.0759807

>  <SCORE.INTRA.SOLV.lig_0>
-97.5861

>  <SCORE.INTRA.VDW>
-14.4782

>  <SCORE.INTRA.VDW.0>
11.7669

>  <SCORE.INTRA.norm>
-0.491777

>  <SCORE.RESTR>
0

>  <SCORE.RESTR.CAVITY>
0

>  <SCORE.RESTR.norm>
0

>  <SCORE.SYSTEM>
0

>  <SCORE.SYSTEM.CONST>
0

>  <SCORE.SYSTEM.DIHEDRAL>
0

>  <SCORE.SYSTEM.SOLV>
0

>  <SCORE.SYSTEM.norm>
0

>  <SCORE.heavy>
40

>  <SCORE.norm>
-0.515589

>  <RMSD>
7.464

$$$$
1nta_lig
 OpenBabel11021811403D
libRbt.so/2013.1/901 2013/11/27
 40 42  0  0  0  0  0  0  0  0999 V2000
   -0.6332   43.3950   -1.7690 C   0  0  0  0  0  0  0  0  0  0  0  0
   -0.4960   43.7637   -2.9878 N   0  0  0  0  0  0  0  0  0  0  0  0
    2.8605   33.9223   -1.6758 C   0  0  0  0  0  0  0  0  0  0  0  0
    3.9692   33.4621   -1.8377 O   0  0  0  0  0  0  0  0  0  0  0  0
    0.5549   37.3728   -4.4182 C   0  0  0  0  0  0  0  0  0  0  0  0
    1.3591   36.3517   -4.2752 N   0  0  0  0  0  0  0  0  0  0  0  0
    4.3036   35.5680    0.8283 C   0  0  0  0  0  0  0  0  0  0  0  0
   -1.4283   34.5996   -3.5280 C   0  0  0  0  0  0  0  0  0  0  0  0
   -0.3129   41.0557   -1.6085 C   0  0  2  0  0  0  0  0  0  0  0  0
   -1.2582   42.2411   -1.5887 N   0  0  0  0  0  0  0  0  0  0  0  0
    0.8989   36.2601   -0.0773 C   0  0  2  0  0  0  0  0  0  0  0  0
   -1.2880   34.3983   -0.3261 C   0  0  1  0  0  0  0  0  0  0  0  0
   -0.0051   34.1064    0.1058 O   0  0  0  0  0  0  0  0  0  0  0  0
   -0.8200   39.9913   -2.5999 C   0  0  1  0  0  0  0  0  0  0  0  0
   -0.7978   40.5688   -3.8703 O   0  0  0  0  0  0  0  0  0  0  0  0
    0.9190   34.8049   -0.5324 C   0  0  2  0  0  0  0  0  0  0  0  0
   -1.7849   33.5673   -1.4885 C   0  0  1  0  0  0  0  0  0  0  0  0
   -0.8557   33.6803   -2.5589 N   0  0  0  0  0  0  0  0  0  0  0  0
    0.0878   38.7549   -2.6442 C   0  0  2  0  0  0  0  0  0  0  0  0
   -0.3732   37.7065   -3.5857 N   0  0  0  0  0  0  0  0  0  0  0  0
    2.3411   34.4813   -0.3783 C   0  0  1  0  0  0  0  0  0  0  0  0
    2.4479   33.5420    0.6933 O   0  0  0  0  0  0  0  0  0  0  0  0
   -1.9026   32.2308   -1.1332 C   0  0  2  0  0  0  0  0  0  0  0  0
   -2.6364   31.5850   -2.1429 O   0  0  0  0  0  0  0  0  0  0  0  0
    0.1568   38.1705   -1.2422 C   0  0  1  0  0  0  0  0  0  0  0  0
    1.0001   37.0301   -1.2882 O   0  0  0  0  0  0  0  0  0  0  0  0
    3.0631   35.7023    0.0005 C   0  0  1  0  0  0  0  0  0  0  0  0
    2.0801   36.4956    0.6540 O   0  0  0  0  0  0  0  0  0  0  0  0
   -2.6300   32.0993    0.1791 C   0  0  1  0  0  0  0  0  0  0  0  0
   -2.5229   30.7801    0.6271 O   0  0  0  0  0  0  0  0  0  0  0  0
    0.7106   39.2285   -0.2459 C   0  0  2  0  0  0  0  0  0  0  0  0
    0.7776   38.6588    1.0603 O   0  0  0  0  0  0  0  0  0  0  0  0
   -2.0019   32.9913    1.1950 C   0  0  1  0  0  0  0  0  0  0  0  0
   -2.1179   34.3080    0.7387 O   0  0  0  0  0  0  0  0  0  0  0  0
   -0.2338   40.4487   -0.2239 C   0  0  1  0  0  0  0  0  0  0  0  0
    0.2608   41.4385    0.6928 O   0  0  0  0  0  0  0  0  0  0  0  0
   -2.7324   32.8999    2.5494 C   0  0  0  0  0  0  0  0  0  0  0  0
   -2.4713   31.6304    3.1370 O   0  0  0  0  0  0  0  0  0  0  0  0
   -0.1982   44.0989   -0.7803 N   0  0  0  0  0  0  0  0  0  0  0  0
    0.6767   38.1376   -5.4315 N   0  0  0  0  0  0  0  0  0  0  0  0
  1  2  1  0  0  0  0
  1 39  1  0  0  0  0
  3  4  1  0  0  0  0
  5  6  1  0  0  0  0
  5 40  1  0  0  0  0
  9 10  1  1  0  0  0
  9 14  1  0  0  0  0
  9 35  1  0  0  0  0
 10  1  1  0  0  0  0
 11 16  1  0  0  0  0
 11 28  1  0  0  0  0
 11 26  1  6  0  0  0
 12 17  1  0  0  0  0
 12 34  1  0  0  0  0
 12 13  1  1  0  0  0
 14 15  1  6  0  0  0
 14 19  1  0  0  0  0
 16 13  1  1  0  0  0
 16 21  1  0  0  0  0
 17 18  1  6  0  0  0
 17 23  1  0  0  0  0
 18  8  1  0  0  0  0
 19 20  1  6  0  0  0
 19 25  1  0  0  0  0
 20  5  1  0  0  0  0
 21  3  1  6  0  0  0
 21 22  1  0  0  0  0
 21 27  1  0  0  0  0
 23 24  1  6  0  0  0
 23 29  1  0  0  0  0
 25 26  1  6  0  0  0
 25 31  1  0  0  0  0
 27  7  1  1  0  0  0
 27 28  1  0  0  0  0
 29 30  1  1  0  0  0
 29 33  1  0  0  0  0
 31 32  1  1  0  0  0
 31 35  1  0  0  0  0
 33 34  1  0  0  0  0
 33 37  1  1  0  0  0
 35 36  1  1  0  0  0
 37 38  1  0  0  0  0
M  END
>  <CHROM.1>
-128.31922310,88.61894472,140.09543812,88.88391657,72.80518804,-102.76090634
126.29784731,96.02762848,-173.81675198,-167.94218803,70.43150986,-0.01944812
36.47769689,-1.00846222,1.47120870,0.28008302,-0.20409011

>  <Name>
1nta_lig

>  <RI>
0

>  <Rbt.Current_Directory>
/home/itssahil/PROJECTS/Mol_Feturizer/New_Systems/rnas/1nta

>  <Rbt.Executable>
rbdock ($Id: //depot/dev/client3/rdock/2013.1/src/exe/rbdock.cxx#4 $)

>  <Rbt.Library>
libRbt.so (2013.1, Build901 2013/11/27)

>  <Rbt.Parameter_File>
/export/apps/rDock/src/rDock_2013.1_src/data/scripts/dock_solv.prm

>  <Rbt.Receptor>
prm/pocket_docking_7.prm

>  <SCORE>
-15.8057

>  <SCORE.INTER>
3.65942

>  <SCORE.INTER.CONST>
1

>  <SCORE.INTER.POLAR>
-1.41727

>  <SCORE.INTER.ROT>
11

>  <SCORE.INTER.SOLV>
10.4028

>  <SCORE.INTER.VDW>
-7.23709

>  <SCORE.INTER.norm>
0.0914855

>  <SCORE.INTRA>
-19.4651

>  <SCORE.INTRA.DIHEDRAL>
-3.86757

>  <SCORE.INTRA.DIHEDRAL.0>
19.0336

>  <SCORE.INTRA.POLAR>
0

>  <SCORE.INTRA.POLAR.0>
0

>  <SCORE.INTRA.REPUL>
0

>  <SCORE.INTRA.REPUL.0>
0

>  <SCORE.INTRA.SOLV>
-1.7313

>  <SCORE.INTRA.SOLV.lig_0>
-97.5861

>  <SCORE.INTRA.VDW>
-16.6657

>  <SCORE.INTRA.VDW.0>
11.7669

>  <SCORE.INTRA.norm>
-0.486627

>  <SCORE.RESTR>
0

>  <SCORE.RESTR.CAVITY>
0

>  <SCORE.RESTR.norm>
0

>  <SCORE.SYSTEM>
0

>  <SCORE.SYSTEM.CONST>
0

>  <SCORE.SYSTEM.DIHEDRAL>
0

>  <SCORE.SYSTEM.SOLV>
0

>  <SCORE.SYSTEM.norm>
0

>  <SCORE.heavy>
40

>  <SCORE.norm>
-0.395142

>  <RMSD>
7.466

$$$$
1nta_lig
 OpenBabel11021811403D
libRbt.so/2013.1/901 2013/11/27
 40 42  0  0  0  0  0  0  0  0999 V2000
   -1.2310   39.5023   -2.5344 C   0  0  0  0  0  0  0  0  0  0  0  0
   -0.1965   39.8250   -1.8520 N   0  0  0  0  0  0  0  0  0  0  0  0
   -3.2862   31.6706   -3.7270 C   0  0  0  0  0  0  0  0  0  0  0  0
   -4.0191   30.7932   -4.1273 O   0  0  0  0  0  0  0  0  0  0  0  0
   -3.8100   34.9071   -5.7948 C   0  0  0  0  0  0  0  0  0  0  0  0
   -4.5865   35.8166   -6.3237 N   0  0  0  0  0  0  0  0  0  0  0  0
   -0.8965   29.7858   -5.0680 C   0  0  0  0  0  0  0  0  0  0  0  0
   -4.0089   31.0473    0.0058 C   0  0  0  0  0  0  0  0  0  0  0  0
   -0.8726   38.1807   -4.4646 C   0  0  2  0  0  0  0  0  0  0  0  0
   -1.0847   39.5505   -3.8500 N   0  0  0  0  0  0  0  0  0  0  0  0
   -0.1202   33.0288   -3.7373 C   0  0  2  0  0  0  0  0  0  0  0  0
   -1.9247   33.2788   -0.7291 C   0  0  1  0  0  0  0  0  0  0  0  0
   -0.9394   32.7689   -1.5577 O   0  0  0  0  0  0  0  0  0  0  0  0
   -2.1324   37.3148   -4.2745 C   0  0  1  0  0  0  0  0  0  0  0  0
   -3.1674   37.9352   -4.9757 O   0  0  0  0  0  0  0  0  0  0  0  0
   -1.3081   32.7353   -2.8274 C   0  0  2  0  0  0  0  0  0  0  0  0
   -2.2342   32.4479    0.4967 C   0  0  1  0  0  0  0  0  0  0  0  0
   -2.5598   31.1275    0.0812 N   0  0  0  0  0  0  0  0  0  0  0  0
   -1.9658   35.9054   -4.8581 C   0  0  2  0  0  0  0  0  0  0  0  0
   -3.1589   35.0419   -4.6886 N   0  0  0  0  0  0  0  0  0  0  0  0
   -1.8216   31.4984   -3.4250 C   0  0  1  0  0  0  0  0  0  0  0  0
   -1.5856   30.4456   -2.4881 O   0  0  0  0  0  0  0  0  0  0  0  0
   -1.1432   32.3947    1.3530 C   0  0  2  0  0  0  0  0  0  0  0  0
   -1.5894   31.8721    2.5789 O   0  0  0  0  0  0  0  0  0  0  0  0
   -0.7754   35.2505   -4.1756 C   0  0  1  0  0  0  0  0  0  0  0  0
   -0.6238   33.9494   -4.7213 O   0  0  0  0  0  0  0  0  0  0  0  0
   -1.0578   31.2133   -4.6461 C   0  0  1  0  0  0  0  0  0  0  0  0
    0.1996   31.8385   -4.4203 O   0  0  0  0  0  0  0  0  0  0  0  0
   -0.5794   33.7744    1.5701 C   0  0  1  0  0  0  0  0  0  0  0  0
    0.6465   33.6648    2.2314 O   0  0  0  0  0  0  0  0  0  0  0  0
    0.5079   36.0991   -4.4030 C   0  0  2  0  0  0  0  0  0  0  0  0
    1.6144   35.4637   -3.7647 O   0  0  0  0  0  0  0  0  0  0  0  0
   -0.3445   34.4356    0.2548 C   0  0  1  0  0  0  0  0  0  0  0  0
   -1.5773   34.5434   -0.3963 O   0  0  0  0  0  0  0  0  0  0  0  0
    0.3033   37.5023   -3.7946 C   0  0  1  0  0  0  0  0  0  0  0  0
    1.4801   38.3025   -3.9938 O   0  0  0  0  0  0  0  0  0  0  0  0
    0.2148   35.8606    0.4357 C   0  0  0  0  0  0  0  0  0  0  0  0
   -0.6844   36.6179    1.2376 O   0  0  0  0  0  0  0  0  0  0  0  0
   -2.3440   39.1577   -1.9823 N   0  0  0  0  0  0  0  0  0  0  0  0
   -3.6750   33.7772   -6.3707 N   0  0  0  0  0  0  0  0  0  0  0  0
  1  2  1  0  0  0  0
  1 39  1  0  0  0  0
  3  4  1  0  0  0  0
  5  6  1  0  0  0  0
  5 40  1  0  0  0  0
  9 10  1  1  0  0  0
  9 14  1  0  0  0  0
  9 35  1  0  0  0  0
 10  1  1  0  0  0  0
 11 16  1  0  0  0  0
 11 28  1  0  0  0  0
 11 26  1  6  0  0  0
 12 17  1  0  0  0  0
 12 34  1  0  0  0  0
 12 13  1  1  0  0  0
 14 15  1  6  0  0  0
 14 19  1  0  0  0  0
 16 13  1  1  0  0  0
 16 21  1  0  0  0  0
 17 18  1  6  0  0  0
 17 23  1  0  0  0  0
 18  8  1  0  0  0  0
 19 20  1  1  0  0  0
 19 25  1  0  0  0  0
 20  5  1  0  0  0  0
 21  3  1  6  0  0  0
 21 22  1  0  0  0  0
 21 27  1  0  0  0  0
 23 24  1  1  0  0  0
 23 29  1  0  0  0  0
 25 26  1  6  0  0  0
 25 31  1  0  0  0  0
 27  7  1  1  0  0  0
 27 28  1  0  0  0  0
 29 30  1  6  0  0  0
 29 33  1  0  0  0  0
 31 32  1  1  0  0  0
 31 35  1  0  0  0  0
 33 34  1  0  0  0  0
 33 37  1  1  0  0  0
 35 36  1  6  0  0  0
 37 38  1  0  0  0  0
M  END
>  <CHROM.1>
65.05154361,101.40341447,75.23081174,130.52498908,144.70904457,-96.20980659
104.86400647,-75.93067276,-173.88867175,-147.20804672,-56.91336844,-1.39413098
34.47299958,-2.56452272,-1.29623642,1.25304427,2.42182703

>  <Name>
1nta_lig

>  <RI>
0

>  <Rbt.Current_Directory>
/home/itssahil/PROJECTS/Mol_Feturizer/New_Systems/rnas/1nta

>  <Rbt.Executable>
rbdock ($Id: //depot/dev/client3/rdock/2013.1/src/exe/rbdock.cxx#4 $)

>  <Rbt.Library>
libRbt.so (2013.1, Build901 2013/11/27)

>  <Rbt.Parameter_File>
/export/apps/rDock/src/rDock_2013.1_src/data/scripts/dock_solv.prm

>  <Rbt.Receptor>
prm/pocket_docking_6.prm

>  <SCORE>
-18.8902

>  <SCORE.INTER>
-1.4107

>  <SCORE.INTER.CONST>
1

>  <SCORE.INTER.POLAR>
-1.41642

>  <SCORE.INTER.ROT>
11

>  <SCORE.INTER.SOLV>
6.4134

>  <SCORE.INTER.VDW>
-9.29021

>  <SCORE.INTER.norm>
-0.0352675

>  <SCORE.INTRA>
-17.4795

>  <SCORE.INTRA.DIHEDRAL>
0.631336

>  <SCORE.INTRA.DIHEDRAL.0>
19.0336

>  <SCORE.INTRA.POLAR>
0

>  <SCORE.INTRA.POLAR.0>
0

>  <SCORE.INTRA.REPUL>
0

>  <SCORE.INTRA.REPUL.0>
0

>  <SCORE.INTRA.SOLV>
0.0784031

>  <SCORE.INTRA.SOLV.lig_0>
-97.5861

>  <SCORE.INTRA.VDW>
-17.8344

>  <SCORE.INTRA.VDW.0>
11.7669

>  <SCORE.INTRA.norm>
-0.436987

>  <SCORE.RESTR>
0

>  <SCORE.RESTR.CAVITY>
0

>  <SCORE.RESTR.norm>
0

>  <SCORE.SYSTEM>
0

>  <SCORE.SYSTEM.CONST>
0

>  <SCORE.SYSTEM.DIHEDRAL>
0

>  <SCORE.SYSTEM.SOLV>
0

>  <SCORE.SYSTEM.norm>
0

>  <SCORE.heavy>
40

>  <SCORE.norm>
-0.472255

>  <RMSD>
7.479

$$$$
1nta_lig
 OpenBabel11021811403D
libRbt.so/2013.1/901 2013/11/27
 40 42  0  0  0  0  0  0  0  0999 V2000
   -0.0291   41.9573    3.3020 C   0  0  0  0  0  0  0  0  0  0  0  0
   -1.0736   41.8369    4.0332 N   0  0  0  0  0  0  0  0  0  0  0  0
   -0.4550   34.2294   -1.5501 C   0  0  0  0  0  0  0  0  0  0  0  0
   -1.2252   33.4215   -2.0206 O   0  0  0  0  0  0  0  0  0  0  0  0
   -2.9033   38.0346   -0.5237 C   0  0  0  0  0  0  0  0  0  0  0  0
   -3.9133   38.5094    0.1576 N   0  0  0  0  0  0  0  0  0  0  0  0
    0.1392   34.8694   -4.7592 C   0  0  0  0  0  0  0  0  0  0  0  0
    1.3576   32.1683    0.7225 C   0  0  0  0  0  0  0  0  0  0  0  0
    0.4361   40.3804    1.5999 C   0  0  2  0  0  0  0  0  0  0  0  0
    0.6147   40.8305    3.0367 N   0  0  0  0  0  0  0  0  0  0  0  0
    1.4752   37.0073   -2.2028 C   0  0  2  0  0  0  0  0  0  0  0  0
    2.6487   35.0325    0.3946 C   0  0  1  0  0  0  0  0  0  0  0  0
    2.6457   35.4234   -0.9338 O   0  0  0  0  0  0  0  0  0  0  0  0
   -0.5988   39.2416    1.5271 C   0  0  1  0  0  0  0  0  0  0  0  0
   -1.8181   39.7659    1.9588 O   0  0  0  0  0  0  0  0  0  0  0  0
    1.4360   35.7288   -1.3726 C   0  0  2  0  0  0  0  0  0  0  0  0
    3.1502   33.6293    0.6558 C   0  0  1  0  0  0  0  0  0  0  0  0
    2.3933   32.7210   -0.1342 N   0  0  0  0  0  0  0  0  0  0  0  0
   -0.8033   38.7290    0.0953 C   0  0  2  0  0  0  0  0  0  0  0  0
   -1.7905   37.6281   -0.0116 N   0  0  0  0  0  0  0  0  0  0  0  0
    0.7188   34.8263   -2.2792 C   0  0  1  0  0  0  0  0  0  0  0  0
    1.6490   33.8299   -2.7082 O   0  0  0  0  0  0  0  0  0  0  0  0
    4.4917   33.5076    0.3215 C   0  0  2  0  0  0  0  0  0  0  0  0
    4.9559   32.2948    0.8586 O   0  0  0  0  0  0  0  0  0  0  0  0
    0.5400   38.2466   -0.4288 C   0  0  1  0  0  0  0  0  0  0  0  0
    0.3459   37.7772   -1.7538 O   0  0  0  0  0  0  0  0  0  0  0  0
    0.2811   35.5899   -3.4544 C   0  0  1  0  0  0  0  0  0  0  0  0
    1.2198   36.6548   -3.5430 O   0  0  0  0  0  0  0  0  0  0  0  0
    5.2825   34.6501    0.9027 C   0  0  1  0  0  0  0  0  0  0  0  0
    6.5687   34.6360    0.3567 O   0  0  0  0  0  0  0  0  0  0  0  0
    1.5761   39.4061   -0.3987 C   0  0  2  0  0  0  0  0  0  0  0  0
    2.8255   38.9373   -0.9032 O   0  0  0  0  0  0  0  0  0  0  0  0
    4.6358   35.9446    0.5442 C   0  0  1  0  0  0  0  0  0  0  0  0
    3.3519   35.9496    1.0982 O   0  0  0  0  0  0  0  0  0  0  0  0
    1.7597   39.8854    1.0566 C   0  0  1  0  0  0  0  0  0  0  0  0
    2.7153   40.9574    1.1057 O   0  0  0  0  0  0  0  0  0  0  0  0
    5.4064   37.1399    1.1391 C   0  0  0  0  0  0  0  0  0  0  0  0
    5.2647   37.1299    2.5550 O   0  0  0  0  0  0  0  0  0  0  0  0
    0.3754   43.0973    2.8560 N   0  0  0  0  0  0  0  0  0  0  0  0
   -2.9900   37.9257   -1.7914 N   0  0  0  0  0  0  0  0  0  0  0  0
  1  2  1  0  0  0  0
  1 39  1  0  0  0  0
  3  4  1  0  0  0  0
  5  6  1  0  0  0  0
  5 40  1  0  0  0  0
  9 10  1  1  0  0  0
  9 14  1  0  0  0  0
  9 35  1  0  0  0  0
 10  1  1  0  0  0  0
 11 16  1  0  0  0  0
 11 28  1  0  0  0  0
 11 26  1  1  0  0  0
 12 17  1  0  0  0  0
 12 34  1  0  0  0  0
 12 13  1  6  0  0  0
 14 15  1  6  0  0  0
 14 19  1  0  0  0  0
 16 13  1  6  0  0  0
 16 21  1  0  0  0  0
 17 18  1  6  0  0  0
 17 23  1  0  0  0  0
 18  8  1  0  0  0  0
 19 20  1  1  0  0  0
 19 25  1  0  0  0  0
 20  5  1  0  0  0  0
 21  3  1  1  0  0  0
 21 22  1  0  0  0  0
 21 27  1  0  0  0  0
 23 24  1  1  0  0  0
 23 29  1  0  0  0  0
 25 26  1  6  0  0  0
 25 31  1  0  0  0  0
 27  7  1  6  0  0  0
 27 28  1  0  0  0  0
 29 30  1  6  0  0  0
 29 33  1  0  0  0  0
 31 32  1  1  0  0  0
 31 35  1  0  0  0  0
 33 34  1  0  0  0  0
 33 37  1  1  0  0  0
 35 36  1  6  0  0  0
 37 38  1  0  0  0  0
M  END
>  <CHROM.1>
-101.95127084,107.54612389,69.13309249,119.42530644,136.20057496,-97.86991978
105.75505954,-89.66061105,-178.30144089,-165.72453817,-68.54698511,1.35714338
36.94943161,-0.02871114,-2.11198293,0.43131000,-2.56225960

>  <Name>
1nta_lig

>  <RI>
0

>  <Rbt.Current_Directory>
/home/itssahil/PROJECTS/Mol_Feturizer/New_Systems/rnas/1nta

>  <Rbt.Executable>
rbdock ($Id: //depot/dev/client3/rdock/2013.1/src/exe/rbdock.cxx#4 $)

>  <Rbt.Library>
libRbt.so (2013.1, Build901 2013/11/27)

>  <Rbt.Parameter_File>
/export/apps/rDock/src/rDock_2013.1_src/data/scripts/dock_solv.prm

>  <Rbt.Receptor>
prm/pocket_docking_5.prm

>  <SCORE>
-20.1047

>  <SCORE.INTER>
-0.141633

>  <SCORE.INTER.CONST>
1

>  <SCORE.INTER.POLAR>
-0.603288

>  <SCORE.INTER.ROT>
11

>  <SCORE.INTER.SOLV>
9.90547

>  <SCORE.INTER.VDW>
-12.3186

>  <SCORE.INTER.norm>
-0.00354082

>  <SCORE.INTRA>
-19.963

>  <SCORE.INTRA.DIHEDRAL>
-0.354256

>  <SCORE.INTRA.DIHEDRAL.0>
19.0336

>  <SCORE.INTRA.POLAR>
0

>  <SCORE.INTRA.POLAR.0>
0

>  <SCORE.INTRA.REPUL>
0

>  <SCORE.INTRA.REPUL.0>
0

>  <SCORE.INTRA.SOLV>
-3.3624

>  <SCORE.INTRA.SOLV.lig_0>
-97.5861

>  <SCORE.INTRA.VDW>
-18.1047

>  <SCORE.INTRA.VDW.0>
11.7669

>  <SCORE.INTRA.norm>
-0.499076

>  <SCORE.RESTR>
0

>  <SCORE.RESTR.CAVITY>
0

>  <SCORE.RESTR.norm>
0

>  <SCORE.SYSTEM>
0

>  <SCORE.SYSTEM.CONST>
0

>  <SCORE.SYSTEM.DIHEDRAL>
0

>  <SCORE.SYSTEM.SOLV>
0

>  <SCORE.SYSTEM.norm>
0

>  <SCORE.heavy>
40

>  <SCORE.norm>
-0.502617

>  <RMSD>
7.482

$$$$
1nta_lig
 OpenBabel11021811403D
libRbt.so/2013.1/901 2013/11/27
 40 42  0  0  0  0  0  0  0  0999 V2000
   -2.1871   41.5962    0.5137 C   0  0  0  0  0  0  0  0  0  0  0  0
   -1.5000   42.5429   -0.0075 N   0  0  0  0  0  0  0  0  0  0  0  0
    1.0212   32.3718   -2.0849 C   0  0  0  0  0  0  0  0  0  0  0  0
    0.4687   31.5352   -2.7647 O   0  0  0  0  0  0  0  0  0  0  0  0
   -1.9995   35.3204    2.0926 C   0  0  0  0  0  0  0  0  0  0  0  0
   -2.9850   34.9055    1.3399 N   0  0  0  0  0  0  0  0  0  0  0  0
    0.3683   34.2847   -4.7260 C   0  0  0  0  0  0  0  0  0  0  0  0
    6.2311   31.8921   -1.2214 C   0  0  0  0  0  0  0  0  0  0  0  0
   -1.3309   39.3911    0.4439 C   0  0  2  0  0  0  0  0  0  0  0  0
   -1.4942   40.6971    1.1965 N   0  0  0  0  0  0  0  0  0  0  0  0
    1.5568   35.7497   -1.6712 C   0  0  2  0  0  0  0  0  0  0  0  0
    4.0489   33.8513   -0.2905 C   0  0  1  0  0  0  0  0  0  0  0  0
    3.5321   34.5226   -1.3859 O   0  0  0  0  0  0  0  0  0  0  0  0
   -1.1904   38.2221    1.4372 C   0  0  1  0  0  0  0  0  0  0  0  0
   -2.3845   38.1474    2.1558 O   0  0  0  0  0  0  0  0  0  0  0  0
    2.2208   34.3885   -1.4939 C   0  0  2  0  0  0  0  0  0  0  0  0
    5.5582   33.8483   -0.1855 C   0  0  1  0  0  0  0  0  0  0  0  0
    6.0974   33.3288   -1.3944 N   0  0  0  0  0  0  0  0  0  0  0  0
   -0.9982   36.8742    0.7293 C   0  0  2  0  0  0  0  0  0  0  0  0
   -0.8546   35.7259    1.6561 N   0  0  0  0  0  0  0  0  0  0  0  0
    1.6345   33.6415   -2.6115 C   0  0  1  0  0  0  0  0  0  0  0  0
    2.6844   33.3846   -3.5463 O   0  0  0  0  0  0  0  0  0  0  0  0
    6.0480   35.1318    0.0115 C   0  0  2  0  0  0  0  0  0  0  0  0
    7.3963   35.0191    0.3918 O   0  0  0  0  0  0  0  0  0  0  0  0
    0.2454   36.9716   -0.1400 C   0  0  1  0  0  0  0  0  0  0  0  0
    0.4164   35.7243   -0.7947 O   0  0  0  0  0  0  0  0  0  0  0  0
    0.6271   34.4863   -3.2651 C   0  0  1  0  0  0  0  0  0  0  0  0
    1.0568   35.8133   -2.9870 O   0  0  0  0  0  0  0  0  0  0  0  0
    5.2748   35.8264    1.1015 C   0  0  1  0  0  0  0  0  0  0  0  0
    5.6227   37.1797    1.1130 O   0  0  0  0  0  0  0  0  0  0  0  0
    0.0890   38.1226   -1.1742 C   0  0  2  0  0  0  0  0  0  0  0  0
    1.2600   38.1913   -1.9862 O   0  0  0  0  0  0  0  0  0  0  0  0
    3.8131   35.7211    0.8280 C   0  0  1  0  0  0  0  0  0  0  0  0
    3.4754   34.3642    0.8224 O   0  0  0  0  0  0  0  0  0  0  0  0
   -0.0919   39.4587   -0.4236 C   0  0  1  0  0  0  0  0  0  0  0  0
   -0.2374   40.5362   -1.3631 O   0  0  0  0  0  0  0  0  0  0  0  0
    2.9852   36.4043    1.9345 C   0  0  0  0  0  0  0  0  0  0  0  0
    3.1356   37.8153    1.8276 O   0  0  0  0  0  0  0  0  0  0  0  0
   -3.4671   41.5165    0.3812 N   0  0  0  0  0  0  0  0  0  0  0  0
   -2.1457   35.3659    3.3586 N   0  0  0  0  0  0  0  0  0  0  0  0
  1  2  1  0  0  0  0
  1 39  1  0  0  0  0
  3  4  1  0  0  0  0
  5  6  1  0  0  0  0
  5 40  1  0  0  0  0
  9 10  1  1  0  0  0
  9 14  1  0  0  0  0
  9 35  1  0  0  0  0
 10  1  1  0  0  0  0
 11 16  1  0  0  0  0
 11 28  1  0  0  0  0
 11 26  1  1  0  0  0
 12 17  1  0  0  0  0
 12 34  1  0  0  0  0
 12 13  1  6  0  0  0
 14 15  1  6  0  0  0
 14 19  1  0  0  0  0
 16 13  1  6  0  0  0
 16 21  1  0  0  0  0
 17 18  1  6  0  0  0
 17 23  1  0  0  0  0
 18  8  1  0  0  0  0
 19 20  1  1  0  0  0
 19 25  1  0  0  0  0
 20  5  1  0  0  0  0
 21  3  1  1  0  0  0
 21 22  1  0  0  0  0
 21 27  1  0  0  0  0
 23 24  1  1  0  0  0
 23 29  1  0  0  0  0
 25 26  1  6  0  0  0
 25 31  1  0  0  0  0
 27  7  1  6  0  0  0
 27 28  1  0  0  0  0
 29 30  1  6  0  0  0
 29 33  1  0  0  0  0
 31 32  1  6  0  0  0
 31 35  1  0  0  0  0
 33 34  1  0  0  0  0
 33 37  1  1  0  0  0
 35 36  1  6  0  0  0
 37 38  1  0  0  0  0
M  END
>  <CHROM.1>
-151.66563185,-104.67772839,140.00205970,174.14858459,129.70432892,-90.48399562
80.51210210,58.42950059,-179.30803113,178.29864239,71.47563245,1.39184482
36.22606970,-0.32902840,-2.40617414,0.22442418,-2.60329369

>  <Name>
1nta_lig

>  <RI>
0

>  <Rbt.Current_Directory>
/home/itssahil/PROJECTS/Mol_Feturizer/New_Systems/rnas/1nta

>  <Rbt.Executable>
rbdock ($Id: //depot/dev/client3/rdock/2013.1/src/exe/rbdock.cxx#4 $)

>  <Rbt.Library>
libRbt.so (2013.1, Build901 2013/11/27)

>  <Rbt.Parameter_File>
/export/apps/rDock/src/rDock_2013.1_src/data/scripts/dock_solv.prm

>  <Rbt.Receptor>
prm/pocket_docking_2.prm

>  <SCORE>
-14.7623

>  <SCORE.INTER>
0.0313522

>  <SCORE.INTER.CONST>
1

>  <SCORE.INTER.POLAR>
0

>  <SCORE.INTER.ROT>
11

>  <SCORE.INTER.SOLV>
9.84693

>  <SCORE.INTER.VDW>
-14.1947

>  <SCORE.INTER.norm>
0.000783804

>  <SCORE.INTRA>
-17.1521

>  <SCORE.INTRA.DIHEDRAL>
-3.47091

>  <SCORE.INTRA.DIHEDRAL.0>
19.0336

>  <SCORE.INTRA.POLAR>
0

>  <SCORE.INTRA.POLAR.0>
0

>  <SCORE.INTRA.REPUL>
0

>  <SCORE.INTRA.REPUL.0>
0

>  <SCORE.INTRA.SOLV>
-4.3086

>  <SCORE.INTRA.SOLV.lig_0>
-97.5861

>  <SCORE.INTRA.VDW>
-13.2623

>  <SCORE.INTRA.VDW.0>
11.7669

>  <SCORE.INTRA.norm>
-0.428802

>  <SCORE.RESTR>
2.35842

>  <SCORE.RESTR.CAVITY>
2.35842

>  <SCORE.RESTR.norm>
0.0589605

>  <SCORE.SYSTEM>
0

>  <SCORE.SYSTEM.CONST>
0

>  <SCORE.SYSTEM.DIHEDRAL>
0

>  <SCORE.SYSTEM.SOLV>
0

>  <SCORE.SYSTEM.norm>
0

>  <SCORE.heavy>
40

>  <SCORE.norm>
-0.369058

>  <RMSD>
7.487

$$$$
1nta_lig
 OpenBabel11021811403D
libRbt.so/2013.1/901 2013/11/27
 40 42  0  0  0  0  0  0  0  0999 V2000
   -1.4592   41.3455    0.2219 C   0  0  0  0  0  0  0  0  0  0  0  0
   -2.6911   41.5271    0.5210 N   0  0  0  0  0  0  0  0  0  0  0  0
   -0.0777   32.5291   -2.6198 C   0  0  0  0  0  0  0  0  0  0  0  0
    0.6203   31.6253   -2.2157 O   0  0  0  0  0  0  0  0  0  0  0  0
   -2.4377   36.4754    0.4983 C   0  0  0  0  0  0  0  0  0  0  0  0
   -1.6199   36.0274    1.4149 N   0  0  0  0  0  0  0  0  0  0  0  0
   -1.5142   34.7239   -4.6645 C   0  0  0  0  0  0  0  0  0  0  0  0
    5.7521   32.0711   -4.7803 C   0  0  0  0  0  0  0  0  0  0  0  0
   -0.7625   39.8686   -1.4909 C   0  0  2  0  0  0  0  0  0  0  0  0
   -1.1926   41.2611   -1.0729 N   0  0  0  0  0  0  0  0  0  0  0  0
    1.0677   35.7707   -2.3999 C   0  0  2  0  0  0  0  0  0  0  0  0
    3.5039   33.2275   -2.5410 C   0  0  1  0  0  0  0  0  0  0  0  0
    2.7733   34.2952   -3.0347 O   0  0  0  0  0  0  0  0  0  0  0  0
   -1.7428   38.8213   -0.9296 C   0  0  1  0  0  0  0  0  0  0  0  0
   -2.9872   39.0698   -1.5108 O   0  0  0  0  0  0  0  0  0  0  0  0
    1.5382   34.3294   -2.5630 C   0  0  2  0  0  0  0  0  0  0  0  0
    4.9668   33.2103   -2.9261 C   0  0  1  0  0  0  0  0  0  0  0  0
    5.0651   33.2749   -4.3433 N   0  0  0  0  0  0  0  0  0  0  0  0
   -1.3425   37.3876   -1.3027 C   0  0  2  0  0  0  0  0  0  0  0  0
   -2.2625   36.3520   -0.7744 N   0  0  0  0  0  0  0  0  0  0  0  0
    0.4278   33.7559   -3.3304 C   0  0  1  0  0  0  0  0  0  0  0  0
    0.9260   33.4549   -4.6355 O   0  0  0  0  0  0  0  0  0  0  0  0
    5.6407   34.2926   -2.3779 C   0  0  2  0  0  0  0  0  0  0  0  0
    7.0181   34.0543   -2.5232 O   0  0  0  0  0  0  0  0  0  0  0  0
    0.0563   37.1336   -0.7637 C   0  0  1  0  0  0  0  0  0  0  0  0
    0.4227   35.8083   -1.1145 O   0  0  0  0  0  0  0  0  0  0  0  0
   -0.6280   34.7681   -3.4584 C   0  0  1  0  0  0  0  0  0  0  0  0
    0.0670   36.0054   -3.3637 O   0  0  0  0  0  0  0  0  0  0  0  0
    5.3063   34.4326   -0.9160 C   0  0  1  0  0  0  0  0  0  0  0  0
    5.7997   35.6549   -0.4526 O   0  0  0  0  0  0  0  0  0  0  0  0
    1.0577   38.1616   -1.3628 C   0  0  2  0  0  0  0  0  0  0  0  0
    2.3647   37.9007   -0.8539 O   0  0  0  0  0  0  0  0  0  0  0  0
    3.8266   34.4258   -0.7346 C   0  0  1  0  0  0  0  0  0  0  0  0
    3.3443   33.1977   -1.1977 O   0  0  0  0  0  0  0  0  0  0  0  0
    0.6261   39.5866   -0.9575 C   0  0  1  0  0  0  0  0  0  0  0  0
    1.5407   40.5523   -1.5015 O   0  0  0  0  0  0  0  0  0  0  0  0
    3.4438   34.5472    0.7537 C   0  0  0  0  0  0  0  0  0  0  0  0
    3.6994   35.8754    1.1957 O   0  0  0  0  0  0  0  0  0  0  0  0
   -0.5373   41.2459    1.1177 N   0  0  0  0  0  0  0  0  0  0  0  0
   -3.5142   37.0654    0.8440 N   0  0  0  0  0  0  0  0  0  0  0  0
  1  2  1  0  0  0  0
  1 39  1  0  0  0  0
  3  4  1  0  0  0  0
  5  6  1  0  0  0  0
  5 40  1  0  0  0  0
  9 10  1  1  0  0  0
  9 14  1  0  0  0  0
  9 35  1  0  0  0  0
 10  1  1  0  0  0  0
 11 16  1  0  0  0  0
 11 28  1  0  0  0  0
 11 26  1  1  0  0  0
 12 17  1  0  0  0  0
 12 34  1  0  0  0  0
 12 13  1  1  0  0  0
 14 15  1  6  0  0  0
 14 19  1  0  0  0  0
 16 13  1  6  0  0  0
 16 21  1  0  0  0  0
 17 18  1  6  0  0  0
 17 23  1  0  0  0  0
 18  8  1  0  0  0  0
 19 20  1  1  0  0  0
 19 25  1  0  0  0  0
 20  5  1  0  0  0  0
 21  3  1  1  0  0  0
 21 22  1  0  0  0  0
 21 27  1  0  0  0  0
 23 24  1  1  0  0  0
 23 29  1  0  0  0  0
 25 26  1  6  0  0  0
 25 31  1  0  0  0  0
 27  7  1  6  0  0  0
 27 28  1  0  0  0  0
 29 30  1  6  0  0  0
 29 33  1  0  0  0  0
 31 32  1  1  0  0  0
 31 35  1  0  0  0  0
 33 34  1  0  0  0  0
 33 37  1  1  0  0  0
 35 36  1  6  0  0  0
 37 38  1  0  0  0  0
M  END
>  <CHROM.1>
48.60466695,-111.23076118,173.74720167,-173.86559536,146.22065252,-119.71430822
-52.83736554,-81.65221284,-49.30573277,89.32761777,72.51551675,1.19809371
36.09587127,-1.56930488,-2.32005938,0.12131581,-2.66291861

>  <Name>
1nta_lig

>  <RI>
0

>  <Rbt.Current_Directory>
/home/itssahil/PROJECTS/Mol_Feturizer/New_Systems/rnas/1nta

>  <Rbt.Executable>
rbdock ($Id: //depot/dev/client3/rdock/2013.1/src/exe/rbdock.cxx#4 $)

>  <Rbt.Library>
libRbt.so (2013.1, Build901 2013/11/27)

>  <Rbt.Parameter_File>
/export/apps/rDock/src/rDock_2013.1_src/data/scripts/dock_solv.prm

>  <Rbt.Receptor>
prm/pocket_docking_2.prm

>  <SCORE>
-7.6168

>  <SCORE.INTER>
3.753

>  <SCORE.INTER.CONST>
1

>  <SCORE.INTER.POLAR>
-0.19368

>  <SCORE.INTER.ROT>
11

>  <SCORE.INTER.SOLV>
11.6721

>  <SCORE.INTER.VDW>
-11.6764

>  <SCORE.INTER.norm>
0.093825

>  <SCORE.INTRA>
-13.4722

>  <SCORE.INTRA.DIHEDRAL>
-7.31149

>  <SCORE.INTRA.DIHEDRAL.0>
19.0336

>  <SCORE.INTRA.POLAR>
0

>  <SCORE.INTRA.POLAR.0>
0

>  <SCORE.INTRA.REPUL>
0

>  <SCORE.INTRA.REPUL.0>
0

>  <SCORE.INTRA.SOLV>
-0.107122

>  <SCORE.INTRA.SOLV.lig_0>
-97.5861

>  <SCORE.INTRA.VDW>
-9.76294

>  <SCORE.INTRA.VDW.0>
11.7669

>  <SCORE.INTRA.norm>
-0.336806

>  <SCORE.RESTR>
2.10245

>  <SCORE.RESTR.CAVITY>
2.10245

>  <SCORE.RESTR.norm>
0.0525612

>  <SCORE.SYSTEM>
0

>  <SCORE.SYSTEM.CONST>
0

>  <SCORE.SYSTEM.DIHEDRAL>
0

>  <SCORE.SYSTEM.SOLV>
0

>  <SCORE.SYSTEM.norm>
0

>  <SCORE.heavy>
40

>  <SCORE.norm>
-0.19042

>  <RMSD>
7.499

$$$$
1nta_lig
 OpenBabel11021811403D
libRbt.so/2013.1/901 2013/11/27
 40 42  0  0  0  0  0  0  0  0999 V2000
    0.0494   32.2019   -7.1312 C   0  0  0  0  0  0  0  0  0  0  0  0
    0.5985   31.1353   -6.6831 N   0  0  0  0  0  0  0  0  0  0  0  0
    1.8463   37.0239    0.9555 C   0  0  0  0  0  0  0  0  0  0  0  0
    1.1389   37.6698    0.2141 O   0  0  0  0  0  0  0  0  0  0  0  0
    0.8087   37.3594   -4.3518 C   0  0  0  0  0  0  0  0  0  0  0  0
    0.1184   38.0011   -3.4455 N   0  0  0  0  0  0  0  0  0  0  0  0
    0.0760   34.5381    2.2778 C   0  0  0  0  0  0  0  0  0  0  0  0
    5.6724   37.7043    1.4550 C   0  0  0  0  0  0  0  0  0  0  0  0
   -0.9722   33.2601   -5.2772 C   0  0  2  0  0  0  0  0  0  0  0  0
   -1.1182   32.5138   -6.5890 N   0  0  0  0  0  0  0  0  0  0  0  0
    1.7130   34.1179   -0.8900 C   0  0  2  0  0  0  0  0  0  0  0  0
    4.8596   35.5307   -0.7591 C   0  0  1  0  0  0  0  0  0  0  0  0
    3.9104   34.6472   -0.2734 O   0  0  0  0  0  0  0  0  0  0  0  0
    0.1010   34.3572   -5.4094 C   0  0  1  0  0  0  0  0  0  0  0  0
   -0.3570   35.2677   -6.3630 O   0  0  0  0  0  0  0  0  0  0  0  0
    2.6848   35.1423   -0.3143 C   0  0  2  0  0  0  0  0  0  0  0  0
    6.0194   35.8113    0.1710 C   0  0  1  0  0  0  0  0  0  0  0  0
    5.5044   36.2612    1.4178 N   0  0  0  0  0  0  0  0  0  0  0  0
    0.3086   35.1318   -4.1011 C   0  0  2  0  0  0  0  0  0  0  0  0
    1.3391   36.1939   -4.1906 N   0  0  0  0  0  0  0  0  0  0  0  0
    1.9911   35.5261    0.9196 C   0  0  1  0  0  0  0  0  0  0  0  0
    2.7686   35.0342    2.0130 O   0  0  0  0  0  0  0  0  0  0  0  0
    6.7780   34.6685    0.3827 C   0  0  2  0  0  0  0  0  0  0  0  0
    7.9786   35.0625    0.9979 O   0  0  0  0  0  0  0  0  0  0  0  0
    0.7101   34.1372   -3.0233 C   0  0  1  0  0  0  0  0  0  0  0  0
    0.8972   34.8580   -1.8154 O   0  0  0  0  0  0  0  0  0  0  0  0
    0.6803   34.8653    0.9474 C   0  0  1  0  0  0  0  0  0  0  0  0
    0.8649   33.6991    0.1545 O   0  0  0  0  0  0  0  0  0  0  0  0
    7.0831   33.9916   -0.9276 C   0  0  1  0  0  0  0  0  0  0  0  0
    7.6322   32.7326   -0.6711 O   0  0  0  0  0  0  0  0  0  0  0  0
   -0.3919   33.0527   -2.8558 C   0  0  2  0  0  0  0  0  0  0  0  0
   -0.0022   32.1361   -1.8343 O   0  0  0  0  0  0  0  0  0  0  0  0
    5.8239   33.8040   -1.7033 C   0  0  1  0  0  0  0  0  0  0  0  0
    5.2853   35.0692   -1.9575 O   0  0  0  0  0  0  0  0  0  0  0  0
   -0.5627   32.2921   -4.1875 C   0  0  1  0  0  0  0  0  0  0  0  0
   -1.5774   31.2837   -4.0527 O   0  0  0  0  0  0  0  0  0  0  0  0
    6.0979   33.1308   -3.0627 C   0  0  0  0  0  0  0  0  0  0  0  0
    5.0951   32.1520   -3.3107 O   0  0  0  0  0  0  0  0  0  0  0  0
    0.5906   32.9243   -8.0518 N   0  0  0  0  0  0  0  0  0  0  0  0
    0.9760   37.8779   -5.5049 N   0  0  0  0  0  0  0  0  0  0  0  0
  1  2  1  0  0  0  0
  1 39  1  0  0  0  0
  3  4  1  0  0  0  0
  5  6  1  0  0  0  0
  5 40  1  0  0  0  0
  9 10  1  6  0  0  0
  9 14  1  0  0  0  0
  9 35  1  0  0  0  0
 10  1  1  0  0  0  0
 11 16  1  0  0  0  0
 11 28  1  0  0  0  0
 11 26  1  6  0  0  0
 12 17  1  0  0  0  0
 12 34  1  0  0  0  0
 12 13  1  1  0  0  0
 14 15  1  6  0  0  0
 14 19  1  0  0  0  0
 16 13  1  1  0  0  0
 16 21  1  0  0  0  0
 17 18  1  1  0  0  0
 17 23  1  0  0  0  0
 18  8  1  0  0  0  0
 19 20  1  6  0  0  0
 19 25  1  0  0  0  0
 20  5  1  0  0  0  0
 21  3  1  1  0  0  0
 21 22  1  0  0  0  0
 21 27  1  0  0  0  0
 23 24  1  6  0  0  0
 23 29  1  0  0  0  0
 25 26  1  1  0  0  0
 25 31  1  0  0  0  0
 27  7  1  1  0  0  0
 27 28  1  0  0  0  0
 29 30  1  1  0  0  0
 29 33  1  0  0  0  0
 31 32  1  1  0  0  0
 31 35  1  0  0  0  0
 33 34  1  0  0  0  0
 33 37  1  6  0  0  0
 35 36  1  1  0  0  0
 37 38  1  0  0  0  0
M  END
>  <CHROM.1>
44.91739820,83.10304988,136.48132223,126.41606702,133.78120879,-102.38181902
99.79992124,69.32301506,68.38279670,-159.52604890,137.91077295,2.35150552
34.54426105,-2.12669824,-2.33159678,-0.24015633,1.05829983

>  <Name>
1nta_lig

>  <RI>
0

>  <Rbt.Current_Directory>
/home/itssahil/PROJECTS/Mol_Feturizer/New_Systems/rnas/1nta

>  <Rbt.Executable>
rbdock ($Id: //depot/dev/client3/rdock/2013.1/src/exe/rbdock.cxx#4 $)

>  <Rbt.Library>
libRbt.so (2013.1, Build901 2013/11/27)

>  <Rbt.Parameter_File>
/export/apps/rDock/src/rDock_2013.1_src/data/scripts/dock_solv.prm

>  <Rbt.Receptor>
prm/pocket_docking_4.prm

>  <SCORE>
-22.0613

>  <SCORE.INTER>
-9.33836

>  <SCORE.INTER.CONST>
1

>  <SCORE.INTER.POLAR>
-1.50456

>  <SCORE.INTER.ROT>
11

>  <SCORE.INTER.SOLV>
21.8762

>  <SCORE.INTER.VDW>
-19.4358

>  <SCORE.INTER.norm>
-0.233459

>  <SCORE.INTRA>
-12.7313

>  <SCORE.INTRA.DIHEDRAL>
9.78913

>  <SCORE.INTRA.DIHEDRAL.0>
19.0336

>  <SCORE.INTRA.POLAR>
0

>  <SCORE.INTRA.POLAR.0>
0

>  <SCORE.INTRA.REPUL>
0

>  <SCORE.INTRA.REPUL.0>
0

>  <SCORE.INTRA.SOLV>
-2.38918

>  <SCORE.INTRA.SOLV.lig_0>
-97.5861

>  <SCORE.INTRA.VDW>
-16.4313

>  <SCORE.INTRA.VDW.0>
11.7669

>  <SCORE.INTRA.norm>
-0.318282

>  <SCORE.RESTR>
0.00838934

>  <SCORE.RESTR.CAVITY>
0.00838934

>  <SCORE.RESTR.norm>
0.000209734

>  <SCORE.SYSTEM>
0

>  <SCORE.SYSTEM.CONST>
0

>  <SCORE.SYSTEM.DIHEDRAL>
0

>  <SCORE.SYSTEM.SOLV>
0

>  <SCORE.SYSTEM.norm>
0

>  <SCORE.heavy>
40

>  <SCORE.norm>
-0.551532

>  <RMSD>
7.504

$$$$
1nta_lig
 OpenBabel11021811403D
libRbt.so/2013.1/901 2013/11/27
 40 42  0  0  0  0  0  0  0  0999 V2000
   -1.3491   37.5946    5.2766 C   0  0  0  0  0  0  0  0  0  0  0  0
   -0.9214   38.8015    5.2532 N   0  0  0  0  0  0  0  0  0  0  0  0
    0.9096   33.2258   -3.0096 C   0  0  0  0  0  0  0  0  0  0  0  0
    1.6302   32.2536   -3.0643 O   0  0  0  0  0  0  0  0  0  0  0  0
   -1.4615   32.4234    2.1083 C   0  0  0  0  0  0  0  0  0  0  0  0
   -2.1088   31.9339    3.1336 N   0  0  0  0  0  0  0  0  0  0  0  0
   -0.0850   36.2585   -3.9448 C   0  0  0  0  0  0  0  0  0  0  0  0
    6.0579   31.7476   -0.7653 C   0  0  0  0  0  0  0  0  0  0  0  0
   -2.1645   36.7549    3.2198 C   0  0  2  0  0  0  0  0  0  0  0  0
   -2.4508   37.3659    4.5776 N   0  0  0  0  0  0  0  0  0  0  0  0
    1.1359   35.6932   -0.6161 C   0  0  2  0  0  0  0  0  0  0  0  0
    3.7154   34.1349    0.0130 C   0  0  1  0  0  0  0  0  0  0  0  0
    3.2354   34.7805   -1.1141 O   0  0  0  0  0  0  0  0  0  0  0  0
   -1.5294   35.3618    3.3898 C   0  0  1  0  0  0  0  0  0  0  0  0
   -2.4742   34.5538    4.0243 O   0  0  0  0  0  0  0  0  0  0  0  0
    1.9395   34.5907   -1.2973 C   0  0  2  0  0  0  0  0  0  0  0  0
    5.1799   33.7581   -0.0307 C   0  0  1  0  0  0  0  0  0  0  0  0
    5.4145   32.9775   -1.1959 N   0  0  0  0  0  0  0  0  0  0  0  0
   -1.1957   34.7039    2.0442 C   0  0  2  0  0  0  0  0  0  0  0  0
   -0.5779   33.3621    2.1702 N   0  0  0  0  0  0  0  0  0  0  0  0
    1.3629   34.6142   -2.6456 C   0  0  1  0  0  0  0  0  0  0  0  0
    2.3748   35.0992   -3.5304 O   0  0  0  0  0  0  0  0  0  0  0  0
    5.9855   34.8874   -0.0751 C   0  0  2  0  0  0  0  0  0  0  0  0
    7.3051   34.4794    0.1841 O   0  0  0  0  0  0  0  0  0  0  0  0
   -0.2441   35.6223    1.2939 C   0  0  1  0  0  0  0  0  0  0  0  0
    0.0582   35.0111    0.0494 O   0  0  0  0  0  0  0  0  0  0  0  0
    0.2402   35.5602   -2.6609 C   0  0  1  0  0  0  0  0  0  0  0  0
    0.5538   36.4845   -1.6263 O   0  0  0  0  0  0  0  0  0  0  0  0
    5.5523   35.8817    0.9699 C   0  0  1  0  0  0  0  0  0  0  0  0
    6.2137   37.0921    0.7465 O   0  0  0  0  0  0  0  0  0  0  0  0
   -0.8995   37.0166    1.0810 C   0  0  2  0  0  0  0  0  0  0  0  0
    0.0033   37.8596    0.3671 O   0  0  0  0  0  0  0  0  0  0  0  0
    4.0852   36.1224    0.8593 C   0  0  1  0  0  0  0  0  0  0  0  0
    3.4336   34.9065    1.0881 O   0  0  0  0  0  0  0  0  0  0  0  0
   -1.2099   37.6469    2.4548 C   0  0  1  0  0  0  0  0  0  0  0  0
   -1.8159   38.9380    2.2793 O   0  0  0  0  0  0  0  0  0  0  0  0
    3.5990   37.1217    1.9275 C   0  0  0  0  0  0  0  0  0  0  0  0
    2.1799   37.2121    1.8722 O   0  0  0  0  0  0  0  0  0  0  0  0
   -0.7535   36.6624    5.9388 N   0  0  0  0  0  0  0  0  0  0  0  0
   -1.6717   31.9509    0.9426 N   0  0  0  0  0  0  0  0  0  0  0  0
  1  2  1  0  0  0  0
  1 39  1  0  0  0  0
  3  4  1  0  0  0  0
  5  6  1  0  0  0  0
  5 40  1  0  0  0  0
  9 10  1  1  0  0  0
  9 14  1  0  0  0  0
  9 35  1  0  0  0  0
 10  1  1  0  0  0  0
 11 16  1  0  0  0  0
 11 28  1  0  0  0  0
 11 26  1  1  0  0  0
 12 17  1  0  0  0  0
 12 34  1  0  0  0  0
 12 13  1  6  0  0  0
 14 15  1  6  0  0  0
 14 19  1  0  0  0  0
 16 13  1  6  0  0  0
 16 21  1  0  0  0  0
 17 18  1  6  0  0  0
 17 23  1  0  0  0  0
 18  8  1  0  0  0  0
 19 20  1  1  0  0  0
 19 25  1  0  0  0  0
 20  5  1  0  0  0  0
 21  3  1  6  0  0  0
 21 22  1  0  0  0  0
 21 27  1  0  0  0  0
 23 24  1  1  0  0  0
 23 29  1  0  0  0  0
 25 26  1  6  0  0  0
 25 31  1  0  0  0  0
 27  7  1  6  0  0  0
 27 28  1  0  0  0  0
 29 30  1  6  0  0  0
 29 33  1  0  0  0  0
 31 32  1  1  0  0  0
 31 35  1  0  0  0  0
 33 34  1  0  0  0  0
 33 37  1  1  0  0  0
 35 36  1  6  0  0  0
 37 38  1  0  0  0  0
M  END
>  <CHROM.1>
64.20209616,99.28614570,143.28194564,153.12832101,91.38684525,-126.34053074
93.77104372,-89.07221874,-59.66234325,-169.52181660,-174.00523555,1.26839402
35.32132449,0.75464549,-2.44554569,-0.12247158,-2.13614950

>  <Name>
1nta_lig

>  <RI>
0

>  <Rbt.Current_Directory>
/home/itssahil/PROJECTS/Mol_Feturizer/New_Systems/rnas/1nta

>  <Rbt.Executable>
rbdock ($Id: //depot/dev/client3/rdock/2013.1/src/exe/rbdock.cxx#4 $)

>  <Rbt.Library>
libRbt.so (2013.1, Build901 2013/11/27)

>  <Rbt.Parameter_File>
/export/apps/rDock/src/rDock_2013.1_src/data/scripts/dock_solv.prm

>  <Rbt.Receptor>
prm/pocket_docking_5.prm

>  <SCORE>
-22.7318

>  <SCORE.INTER>
-4.72007

>  <SCORE.INTER.CONST>
1

>  <SCORE.INTER.POLAR>
-0.891442

>  <SCORE.INTER.ROT>
11

>  <SCORE.INTER.SOLV>
15.2421

>  <SCORE.INTER.VDW>
-16.1893

>  <SCORE.INTER.norm>
-0.118002

>  <SCORE.INTRA>
-18.0117

>  <SCORE.INTRA.DIHEDRAL>
-3.65471

>  <SCORE.INTRA.DIHEDRAL.0>
19.0336

>  <SCORE.INTRA.POLAR>
0

>  <SCORE.INTRA.POLAR.0>
0

>  <SCORE.INTRA.REPUL>
0.00939479

>  <SCORE.INTRA.REPUL.0>
0

>  <SCORE.INTRA.SOLV>
-2.11641

>  <SCORE.INTRA.SOLV.lig_0>
-97.5861

>  <SCORE.INTRA.VDW>
-15.1731

>  <SCORE.INTRA.VDW.0>
11.7669

>  <SCORE.INTRA.norm>
-0.450293

>  <SCORE.RESTR>
0

>  <SCORE.RESTR.CAVITY>
0

>  <SCORE.RESTR.norm>
0

>  <SCORE.SYSTEM>
0

>  <SCORE.SYSTEM.CONST>
0

>  <SCORE.SYSTEM.DIHEDRAL>
0

>  <SCORE.SYSTEM.SOLV>
0

>  <SCORE.SYSTEM.norm>
0

>  <SCORE.heavy>
40

>  <SCORE.norm>
-0.568294

>  <RMSD>
7.521

$$$$
1nta_lig
 OpenBabel11021811403D
libRbt.so/2013.1/901 2013/11/27
 40 42  0  0  0  0  0  0  0  0999 V2000
   -0.6877   40.1036    5.3847 C   0  0  0  0  0  0  0  0  0  0  0  0
   -0.7654   41.3814    5.3468 N   0  0  0  0  0  0  0  0  0  0  0  0
   -0.7548   37.0502   -4.0614 C   0  0  0  0  0  0  0  0  0  0  0  0
   -1.0683   36.0346   -4.6424 O   0  0  0  0  0  0  0  0  0  0  0  0
   -1.4286   35.3806    0.8101 C   0  0  0  0  0  0  0  0  0  0  0  0
   -2.0864   36.1082   -0.0545 N   0  0  0  0  0  0  0  0  0  0  0  0
    1.0136   39.8648   -3.9497 C   0  0  0  0  0  0  0  0  0  0  0  0
    1.0219   32.0880   -3.5074 C   0  0  0  0  0  0  0  0  0  0  0  0
   -0.0672   39.2052    3.2851 C   0  0  2  0  0  0  0  0  0  0  0  0
    0.3176   39.5726    4.7049 N   0  0  0  0  0  0  0  0  0  0  0  0
    1.4213   37.3611   -1.4088 C   0  0  2  0  0  0  0  0  0  0  0  0
    1.8707   34.4343   -1.8937 C   0  0  1  0  0  0  0  0  0  0  0  0
    1.9574   35.5177   -2.7518 O   0  0  0  0  0  0  0  0  0  0  0  0
   -0.0496   37.6746    3.1115 C   0  0  1  0  0  0  0  0  0  0  0  0
   -1.0266   37.1532    3.9609 O   0  0  0  0  0  0  0  0  0  0  0  0
    1.0124   36.4172   -2.5344 C   0  0  2  0  0  0  0  0  0  0  0  0
    2.6551   33.2109   -2.3138 C   0  0  1  0  0  0  0  0  0  0  0  0
    2.2569   32.8444   -3.6288 N   0  0  0  0  0  0  0  0  0  0  0  0
   -0.4095   37.2447    1.6831 C   0  0  2  0  0  0  0  0  0  0  0  0
   -0.3978   35.7764    1.4784 N   0  0  0  0  0  0  0  0  0  0  0  0
    0.6344   37.3732   -3.5803 C   0  0  1  0  0  0  0  0  0  0  0  0
    1.6043   37.2643   -4.6241 O   0  0  0  0  0  0  0  0  0  0  0  0
    4.0192   33.4664   -2.3108 C   0  0  2  0  0  0  0  0  0  0  0  0
    4.6837   32.2325   -2.4160 O   0  0  0  0  0  0  0  0  0  0  0  0
    0.5870   37.8885    0.7321 C   0  0  1  0  0  0  0  0  0  0  0  0
    0.2476   37.4907   -0.5871 O   0  0  0  0  0  0  0  0  0  0  0  0
    0.7013   38.7302   -3.0238 C   0  0  1  0  0  0  0  0  0  0  0  0
    1.6603   38.6276   -1.9785 O   0  0  0  0  0  0  0  0  0  0  0  0
    4.4223   34.1467   -1.0289 C   0  0  1  0  0  0  0  0  0  0  0  0
    5.7366   34.6048   -1.1520 O   0  0  0  0  0  0  0  0  0  0  0  0
    0.5404   39.4367    0.8725 C   0  0  2  0  0  0  0  0  0  0  0  0
    1.4736   40.0222   -0.0339 O   0  0  0  0  0  0  0  0  0  0  0  0
    3.5382   35.3214   -0.7821 C   0  0  1  0  0  0  0  0  0  0  0  0
    2.2271   34.8515   -0.6569 O   0  0  0  0  0  0  0  0  0  0  0  0
    0.9169   39.8271    2.3172 C   0  0  1  0  0  0  0  0  0  0  0  0
    0.8805   41.2557    2.4672 O   0  0  0  0  0  0  0  0  0  0  0  0
    3.9071   36.0339    0.5341 C   0  0  0  0  0  0  0  0  0  0  0  0
    5.1904   36.6336    0.3977 O   0  0  0  0  0  0  0  0  0  0  0  0
   -1.5318   39.3782    6.0353 N   0  0  0  0  0  0  0  0  0  0  0  0
   -1.8142   34.1910    1.0598 N   0  0  0  0  0  0  0  0  0  0  0  0
  1  2  1  0  0  0  0
  1 39  1  0  0  0  0
  3  4  1  0  0  0  0
  5  6  1  0  0  0  0
  5 40  1  0  0  0  0
  9 10  1  1  0  0  0
  9 14  1  0  0  0  0
  9 35  1  0  0  0  0
 10  1  1  0  0  0  0
 11 16  1  0  0  0  0
 11 28  1  0  0  0  0
 11 26  1  1  0  0  0
 12 17  1  0  0  0  0
 12 34  1  0  0  0  0
 12 13  1  6  0  0  0
 14 15  1  1  0  0  0
 14 19  1  0  0  0  0
 16 13  1  6  0  0  0
 16 21  1  0  0  0  0
 17 18  1  6  0  0  0
 17 23  1  0  0  0  0
 18  8  1  0  0  0  0
 19 20  1  1  0  0  0
 19 25  1  0  0  0  0
 20  5  1  0  0  0  0
 21  3  1  6  0  0  0
 21 22  1  0  0  0  0
 21 27  1  0  0  0  0
 23 24  1  1  0  0  0
 23 29  1  0  0  0  0
 25 26  1  6  0  0  0
 25 31  1  0  0  0  0
 27  7  1  6  0  0  0
 27 28  1  0  0  0  0
 29 30  1  6  0  0  0
 29 33  1  0  0  0  0
 31 32  1  6  0  0  0
 31 35  1  0  0  0  0
 33 34  1  0  0  0  0
 33 37  1  1  0  0  0
 35 36  1  6  0  0  0
 37 38  1  0  0  0  0
M  END
>  <CHROM.1>
-112.56055508,-92.25517544,157.21221908,163.87332335,83.92276389,-81.27634364
135.47645839,27.49686311,-65.27355244,-146.85589527,67.39476451,1.14531159
36.82303898,-0.26355427,-2.16444672,0.93821775,-1.71852880

>  <Name>
1nta_lig

>  <RI>
0

>  <Rbt.Current_Directory>
/home/itssahil/PROJECTS/Mol_Feturizer/New_Systems/rnas/1nta

>  <Rbt.Executable>
rbdock ($Id: //depot/dev/client3/rdock/2013.1/src/exe/rbdock.cxx#4 $)

>  <Rbt.Library>
libRbt.so (2013.1, Build901 2013/11/27)

>  <Rbt.Parameter_File>
/export/apps/rDock/src/rDock_2013.1_src/data/scripts/dock_solv.prm

>  <Rbt.Receptor>
prm/pocket_docking_8.prm

>  <SCORE>
-23.3542

>  <SCORE.INTER>
-3.84388

>  <SCORE.INTER.CONST>
1

>  <SCORE.INTER.POLAR>
-1.20859

>  <SCORE.INTER.ROT>
11

>  <SCORE.INTER.SOLV>
12.0887

>  <SCORE.INTER.VDW>
-13.4969

>  <SCORE.INTER.norm>
-0.096097

>  <SCORE.INTRA>
-19.5103

>  <SCORE.INTRA.DIHEDRAL>
-4.7988

>  <SCORE.INTRA.DIHEDRAL.0>
19.0336

>  <SCORE.INTRA.POLAR>
0

>  <SCORE.INTRA.POLAR.0>
0

>  <SCORE.INTRA.REPUL>
0

>  <SCORE.INTRA.REPUL.0>
0

>  <SCORE.INTRA.SOLV>
-4.01152

>  <SCORE.INTRA.SOLV.lig_0>
-97.5861

>  <SCORE.INTRA.VDW>
-15.1052

>  <SCORE.INTRA.VDW.0>
11.7669

>  <SCORE.INTRA.norm>
-0.487758

>  <SCORE.RESTR>
0

>  <SCORE.RESTR.CAVITY>
0

>  <SCORE.RESTR.norm>
0

>  <SCORE.SYSTEM>
0

>  <SCORE.SYSTEM.CONST>
0

>  <SCORE.SYSTEM.DIHEDRAL>
0

>  <SCORE.SYSTEM.SOLV>
0

>  <SCORE.SYSTEM.norm>
0

>  <SCORE.heavy>
40

>  <SCORE.norm>
-0.583855

>  <RMSD>
7.526

$$$$
1nta_lig
 OpenBabel11021811403D
libRbt.so/2013.1/901 2013/11/27
 40 42  0  0  0  0  0  0  0  0999 V2000
   -2.1273   38.2523   -6.3843 C   0  0  0  0  0  0  0  0  0  0  0  0
   -1.6405   37.9211   -7.5216 N   0  0  0  0  0  0  0  0  0  0  0  0
    0.0963   35.0798    2.1411 C   0  0  0  0  0  0  0  0  0  0  0  0
   -0.9607   35.6708    2.1685 O   0  0  0  0  0  0  0  0  0  0  0  0
   -3.4775   36.9745   -0.1891 C   0  0  0  0  0  0  0  0  0  0  0  0
   -4.2431   38.0318   -0.2648 N   0  0  0  0  0  0  0  0  0  0  0  0
   -0.9473   31.9241    2.2573 C   0  0  0  0  0  0  0  0  0  0  0  0
    1.0574   37.9087   -0.4774 C   0  0  0  0  0  0  0  0  0  0  0  0
   -1.6602   37.0258   -4.4151 C   0  0  2  0  0  0  0  0  0  0  0  0
   -1.2958   38.1561   -5.3577 N   0  0  0  0  0  0  0  0  0  0  0  0
   -0.2445   33.4901   -0.8962 C   0  0  2  0  0  0  0  0  0  0  0  0
    2.3407   35.1842   -1.3779 C   0  0  1  0  0  0  0  0  0  0  0  0
    1.9676   34.1637   -0.5194 O   0  0  0  0  0  0  0  0  0  0  0  0
   -1.7809   37.5567   -2.9741 C   0  0  1  0  0  0  0  0  0  0  0  0
   -2.8340   38.4726   -2.9602 O   0  0  0  0  0  0  0  0  0  0  0  0
    0.7353   34.3077   -0.0615 C   0  0  2  0  0  0  0  0  0  0  0  0
    2.8357   36.4466   -0.7070 C   0  0  1  0  0  0  0  0  0  0  0  0
    1.8430   36.8955    0.2070 N   0  0  0  0  0  0  0  0  0  0  0  0
   -2.1262   36.4485   -1.9704 C   0  0  2  0  0  0  0  0  0  0  0  0
   -2.2457   36.9236   -0.5710 N   0  0  0  0  0  0  0  0  0  0  0  0
    0.3845   33.8697    1.2935 C   0  0  1  0  0  0  0  0  0  0  0  0
    1.4892   33.1135    1.7934 O   0  0  0  0  0  0  0  0  0  0  0  0
    4.0150   36.2144   -0.0131 C   0  0  2  0  0  0  0  0  0  0  0  0
    4.5629   37.4636    0.3250 O   0  0  0  0  0  0  0  0  0  0  0  0
   -1.0384   35.3889   -2.0458 C   0  0  1  0  0  0  0  0  0  0  0  0
   -1.3643   34.3652   -1.1186 O   0  0  0  0  0  0  0  0  0  0  0  0
   -0.7854   32.9862    1.2144 C   0  0  1  0  0  0  0  0  0  0  0  0
   -0.7102   32.4304   -0.0926 O   0  0  0  0  0  0  0  0  0  0  0  0
    4.9893   35.4549   -0.8747 C   0  0  1  0  0  0  0  0  0  0  0  0
    6.0587   35.0285   -0.0829 O   0  0  0  0  0  0  0  0  0  0  0  0
   -0.9436   34.8183   -3.4895 C   0  0  2  0  0  0  0  0  0  0  0  0
    0.0739   33.8195   -3.5376 O   0  0  0  0  0  0  0  0  0  0  0  0
    4.3225   34.2513   -1.4487 C   0  0  1  0  0  0  0  0  0  0  0  0
    3.2572   34.6894   -2.2415 O   0  0  0  0  0  0  0  0  0  0  0  0
   -0.5863   35.9598   -4.4643 C   0  0  1  0  0  0  0  0  0  0  0  0
   -0.4930   35.4520   -5.8053 O   0  0  0  0  0  0  0  0  0  0  0  0
    5.2837   33.4567   -2.3548 C   0  0  0  0  0  0  0  0  0  0  0  0
    5.7510   34.3040   -3.3982 O   0  0  0  0  0  0  0  0  0  0  0  0
   -3.3459   38.6487   -6.2424 N   0  0  0  0  0  0  0  0  0  0  0  0
   -3.9352   35.8961    0.3149 N   0  0  0  0  0  0  0  0  0  0  0  0
  1  2  1  0  0  0  0
  1 39  1  0  0  0  0
  3  4  1  0  0  0  0
  5  6  1  0  0  0  0
  5 40  1  0  0  0  0
  9 10  1  6  0  0  0
  9 14  1  0  0  0  0
  9 35  1  0  0  0  0
 10  1  1  0  0  0  0
 11 16  1  0  0  0  0
 11 28  1  0  0  0  0
 11 26  1  1  0  0  0
 12 17  1  0  0  0  0
 12 34  1  0  0  0  0
 12 13  1  1  0  0  0
 14 15  1  6  0  0  0
 14 19  1  0  0  0  0
 16 13  1  6  0  0  0
 16 21  1  0  0  0  0
 17 18  1  1  0  0  0
 17 23  1  0  0  0  0
 18  8  1  0  0  0  0
 19 20  1  1  0  0  0
 19 25  1  0  0  0  0
 20  5  1  0  0  0  0
 21  3  1  1  0  0  0
 21 22  1  0  0  0  0
 21 27  1  0  0  0  0
 23 24  1  6  0  0  0
 23 29  1  0  0  0  0
 25 26  1  1  0  0  0
 25 31  1  0  0  0  0
 27  7  1  1  0  0  0
 27 28  1  0  0  0  0
 29 30  1  1  0  0  0
 29 33  1  0  0  0  0
 31 32  1  1  0  0  0
 31 35  1  0  0  0  0
 33 34  1  0  0  0  0
 33 37  1  6  0  0  0
 35 36  1  6  0  0  0
 37 38  1  0  0  0  0
M  END
>  <CHROM.1>
-126.74367515,-109.99040963,72.55295401,82.79270911,96.22542892,-96.45029828
105.74836401,-93.02081730,82.40138632,-166.35332551,-58.10688416,0.35268282
35.58362612,-1.53439004,-2.46083516,-0.18316829,1.97728154

>  <Name>
1nta_lig

>  <RI>
0

>  <Rbt.Current_Directory>
/home/itssahil/PROJECTS/Mol_Feturizer/New_Systems/rnas/1nta

>  <Rbt.Executable>
rbdock ($Id: //depot/dev/client3/rdock/2013.1/src/exe/rbdock.cxx#4 $)

>  <Rbt.Library>
libRbt.so (2013.1, Build901 2013/11/27)

>  <Rbt.Parameter_File>
/export/apps/rDock/src/rDock_2013.1_src/data/scripts/dock_solv.prm

>  <Rbt.Receptor>
prm/pocket_docking_8.prm

>  <SCORE>
-17.7676

>  <SCORE.INTER>
3.89156

>  <SCORE.INTER.CONST>
1

>  <SCORE.INTER.POLAR>
-0.0665391

>  <SCORE.INTER.ROT>
11

>  <SCORE.INTER.SOLV>
7.53837

>  <SCORE.INTER.VDW>
-10.63

>  <SCORE.INTER.norm>
0.0972891

>  <SCORE.INTRA>
-21.6592

>  <SCORE.INTRA.DIHEDRAL>
-4.74109

>  <SCORE.INTRA.DIHEDRAL.0>
19.0336

>  <SCORE.INTRA.POLAR>
0

>  <SCORE.INTRA.POLAR.0>
0

>  <SCORE.INTRA.REPUL>
0.011791

>  <SCORE.INTRA.REPUL.0>
0

>  <SCORE.INTRA.SOLV>
-1.85611

>  <SCORE.INTRA.SOLV.lig_0>
-97.5861

>  <SCORE.INTRA.VDW>
-18.4195

>  <SCORE.INTRA.VDW.0>
11.7669

>  <SCORE.INTRA.norm>
-0.54148

>  <SCORE.RESTR>
0

>  <SCORE.RESTR.CAVITY>
0

>  <SCORE.RESTR.norm>
0

>  <SCORE.SYSTEM>
0

>  <SCORE.SYSTEM.CONST>
0

>  <SCORE.SYSTEM.DIHEDRAL>
0

>  <SCORE.SYSTEM.SOLV>
0

>  <SCORE.SYSTEM.norm>
0

>  <SCORE.heavy>
40

>  <SCORE.norm>
-0.444191

>  <RMSD>
7.535

$$$$
1nta_lig
 OpenBabel11021811403D
libRbt.so/2013.1/901 2013/11/27
 40 42  0  0  0  0  0  0  0  0999 V2000
   -2.3109   30.1226   -6.0944 C   0  0  0  0  0  0  0  0  0  0  0  0
   -3.5053   30.0129   -6.5431 N   0  0  0  0  0  0  0  0  0  0  0  0
   -0.8967   38.5336   -1.4840 C   0  0  0  0  0  0  0  0  0  0  0  0
   -1.8996   37.8571   -1.4215 O   0  0  0  0  0  0  0  0  0  0  0  0
   -3.5652   35.0762   -2.4216 C   0  0  0  0  0  0  0  0  0  0  0  0
   -3.3227   35.0415   -1.1371 N   0  0  0  0  0  0  0  0  0  0  0  0
    1.5543   37.5682    0.5462 C   0  0  0  0  0  0  0  0  0  0  0  0
    2.6704   41.3785   -4.0154 C   0  0  0  0  0  0  0  0  0  0  0  0
   -1.3507   31.9976   -5.0158 C   0  0  2  0  0  0  0  0  0  0  0  0
   -1.7276   31.2932   -6.3046 N   0  0  0  0  0  0  0  0  0  0  0  0
    1.0828   35.9562   -2.6271 C   0  0  2  0  0  0  0  0  0  0  0  0
    0.6616   39.0141   -4.4981 C   0  0  1  0  0  0  0  0  0  0  0  0
    1.1964   37.8219   -4.0397 O   0  0  0  0  0  0  0  0  0  0  0  0
   -2.2168   33.2577   -4.8289 C   0  0  1  0  0  0  0  0  0  0  0  0
   -3.5403   32.8323   -4.7047 O   0  0  0  0  0  0  0  0  0  0  0  0
    0.5169   37.3153   -3.0244 C   0  0  2  0  0  0  0  0  0  0  0  0
    1.5816   39.8462   -5.3642 C   0  0  1  0  0  0  0  0  0  0  0  0
    2.7907   40.0778   -4.6523 N   0  0  0  0  0  0  0  0  0  0  0  0
   -1.8618   34.0256   -3.5486 C   0  0  2  0  0  0  0  0  0  0  0  0
   -2.6737   35.2483   -3.3389 N   0  0  0  0  0  0  0  0  0  0  0  0
    0.4891   37.9988   -1.7272 C   0  0  1  0  0  0  0  0  0  0  0  0
    1.4668   39.0399   -1.7760 O   0  0  0  0  0  0  0  0  0  0  0  0
    1.8764   39.1923   -6.5523 C   0  0  2  0  0  0  0  0  0  0  0  0
    2.4750   40.1264   -7.4150 O   0  0  0  0  0  0  0  0  0  0  0  0
   -0.3924   34.4094   -3.6215 C   0  0  1  0  0  0  0  0  0  0  0  0
   -0.0688   35.1158   -2.4341 O   0  0  0  0  0  0  0  0  0  0  0  0
    0.8800   37.0432   -0.6833 C   0  0  1  0  0  0  0  0  0  0  0  0
    1.6965   36.1004   -1.3670 O   0  0  0  0  0  0  0  0  0  0  0  0
    0.6172   38.6596   -7.1840 C   0  0  1  0  0  0  0  0  0  0  0  0
    0.9625   37.8091   -8.2374 O   0  0  0  0  0  0  0  0  0  0  0  0
    0.4888   33.1360   -3.7655 C   0  0  2  0  0  0  0  0  0  0  0  0
    1.8629   33.5155   -3.8216 O   0  0  0  0  0  0  0  0  0  0  0  0
   -0.1560   37.8729   -6.1811 C   0  0  1  0  0  0  0  0  0  0  0  0
   -0.4993   38.7340   -5.1341 O   0  0  0  0  0  0  0  0  0  0  0  0
    0.1080   32.3994   -5.0669 C   0  0  1  0  0  0  0  0  0  0  0  0
    0.9130   31.2188   -5.2187 O   0  0  0  0  0  0  0  0  0  0  0  0
   -1.4646   37.3266   -6.7853 C   0  0  0  0  0  0  0  0  0  0  0  0
   -1.1550   36.3025   -7.7236 O   0  0  0  0  0  0  0  0  0  0  0  0
   -1.7104   29.1595   -5.4829 N   0  0  0  0  0  0  0  0  0  0  0  0
   -4.7562   34.9089   -2.8458 N   0  0  0  0  0  0  0  0  0  0  0  0
  1  2  1  0  0  0  0
  1 39  1  0  0  0  0
  3  4  1  0  0  0  0
  5  6  1  0  0  0  0
  5 40  1  0  0  0  0
  9 10  1  6  0  0  0
  9 14  1  0  0  0  0
  9 35  1  0  0  0  0
 10  1  1  0  0  0  0
 11 16  1  0  0  0  0
 11 28  1  0  0  0  0
 11 26  1  1  0  0  0
 12 17  1  0  0  0  0
 12 34  1  0  0  0  0
 12 13  1  6  0  0  0
 14 15  1  1  0  0  0
 14 19  1  0  0  0  0
 16 13  1  6  0  0  0
 16 21  1  0  0  0  0
 17 18  1  1  0  0  0
 17 23  1  0  0  0  0
 18  8  1  0  0  0  0
 19 20  1  6  0  0  0
 19 25  1  0  0  0  0
 20  5  1  0  0  0  0
 21  3  1  1  0  0  0
 21 22  1  0  0  0  0
 21 27  1  0  0  0  0
 23 24  1  6  0  0  0
 23 29  1  0  0  0  0
 25 26  1  1  0  0  0
 25 31  1  0  0  0  0
 27  7  1  1  0  0  0
 27 28  1  0  0  0  0
 29 30  1  6  0  0  0
 29 33  1  0  0  0  0
 31 32  1  6  0  0  0
 31 35  1  0  0  0  0
 33 34  1  0  0  0  0
 33 37  1  6  0  0  0
 35 36  1  1  0  0  0
 37 38  1  0  0  0  0
M  END
>  <CHROM.1>
-111.93743666,118.98174667,93.03420492,163.02010090,175.76200413,-96.13164897
104.81419609,75.07999280,60.19330550,-156.95829731,70.32374530,-0.30000437
35.89364703,-4.19290315,-2.75753740,1.10908326,1.25363797

>  <Name>
1nta_lig

>  <RI>
0

>  <Rbt.Current_Directory>
/home/itssahil/PROJECTS/Mol_Feturizer/New_Systems/rnas/1nta

>  <Rbt.Executable>
rbdock ($Id: //depot/dev/client3/rdock/2013.1/src/exe/rbdock.cxx#4 $)

>  <Rbt.Library>
libRbt.so (2013.1, Build901 2013/11/27)

>  <Rbt.Parameter_File>
/export/apps/rDock/src/rDock_2013.1_src/data/scripts/dock_solv.prm

>  <Rbt.Receptor>
prm/pocket_docking_8.prm

>  <SCORE>
-20.6418

>  <SCORE.INTER>
2.20001

>  <SCORE.INTER.CONST>
1

>  <SCORE.INTER.POLAR>
0

>  <SCORE.INTER.ROT>
11

>  <SCORE.INTER.SOLV>
9.62511

>  <SCORE.INTER.VDW>
-12.675

>  <SCORE.INTER.norm>
0.0550002

>  <SCORE.INTRA>
-22.8434

>  <SCORE.INTRA.DIHEDRAL>
-6.57116

>  <SCORE.INTRA.DIHEDRAL.0>
19.0336

>  <SCORE.INTRA.POLAR>
0

>  <SCORE.INTRA.POLAR.0>
0

>  <SCORE.INTRA.REPUL>
0

>  <SCORE.INTRA.REPUL.0>
0

>  <SCORE.INTRA.SOLV>
-3.21514

>  <SCORE.INTRA.SOLV.lig_0>
-97.5861

>  <SCORE.INTRA.VDW>
-17.9503

>  <SCORE.INTRA.VDW.0>
11.7669

>  <SCORE.INTRA.norm>
-0.571085

>  <SCORE.RESTR>
0.00164839

>  <SCORE.RESTR.CAVITY>
0.00164839

>  <SCORE.RESTR.norm>
4.12098e-05

>  <SCORE.SYSTEM>
0

>  <SCORE.SYSTEM.CONST>
0

>  <SCORE.SYSTEM.DIHEDRAL>
0

>  <SCORE.SYSTEM.SOLV>
0

>  <SCORE.SYSTEM.norm>
0

>  <SCORE.heavy>
40

>  <SCORE.norm>
-0.516044

>  <RMSD>
7.538

$$$$
1nta_lig
 OpenBabel11021811403D
libRbt.so/2013.1/901 2013/11/27
 40 42  0  0  0  0  0  0  0  0999 V2000
   -2.3061   40.6877    2.6587 C   0  0  0  0  0  0  0  0  0  0  0  0
   -3.3256   41.3114    2.1986 N   0  0  0  0  0  0  0  0  0  0  0  0
    1.1341   33.2537   -3.1077 C   0  0  0  0  0  0  0  0  0  0  0  0
    1.9979   32.4197   -2.9478 O   0  0  0  0  0  0  0  0  0  0  0  0
   -3.6052   36.0112   -0.9378 C   0  0  0  0  0  0  0  0  0  0  0  0
   -3.6199   34.7839   -0.4870 N   0  0  0  0  0  0  0  0  0  0  0  0
   -0.1885   35.9361   -4.5626 C   0  0  0  0  0  0  0  0  0  0  0  0
    4.8854   32.7263    0.3556 C   0  0  0  0  0  0  0  0  0  0  0  0
   -1.6313   38.5648    1.8596 C   0  0  2  0  0  0  0  0  0  0  0  0
   -2.4633   39.3833    2.8274 N   0  0  0  0  0  0  0  0  0  0  0  0
    0.6619   35.9947   -1.0749 C   0  0  2  0  0  0  0  0  0  0  0  0
    3.2450   35.2223    0.1262 C   0  0  1  0  0  0  0  0  0  0  0  0
    2.9243   35.4008   -1.2090 O   0  0  0  0  0  0  0  0  0  0  0  0
   -2.5204   38.0240    0.7238 C   0  0  1  0  0  0  0  0  0  0  0  0
   -3.0132   39.1279    0.0263 O   0  0  0  0  0  0  0  0  0  0  0  0
    1.7084   34.9716   -1.5031 C   0  0  2  0  0  0  0  0  0  0  0  0
    4.7171   35.0328    0.4191 C   0  0  1  0  0  0  0  0  0  0  0  0
    5.2011   33.9489   -0.3639 N   0  0  0  0  0  0  0  0  0  0  0  0
   -1.7334   37.1661   -0.2759 C   0  0  2  0  0  0  0  0  0  0  0  0
   -2.5597   36.6245   -1.3813 N   0  0  0  0  0  0  0  0  0  0  0  0
    1.3154   34.7329   -2.8957 C   0  0  1  0  0  0  0  0  0  0  0  0
    2.3462   35.2730   -3.7251 O   0  0  0  0  0  0  0  0  0  0  0  0
    5.4404   36.1746    0.1039 C   0  0  2  0  0  0  0  0  0  0  0  0
    6.7200   36.0372    0.6687 O   0  0  0  0  0  0  0  0  0  0  0  0
   -1.1034   36.0118    0.4873 C   0  0  1  0  0  0  0  0  0  0  0  0
   -0.3742   35.2241   -0.4409 O   0  0  0  0  0  0  0  0  0  0  0  0
    0.0712   35.4642   -3.1656 C   0  0  1  0  0  0  0  0  0  0  0  0
    0.1006   36.5468   -2.2435 O   0  0  0  0  0  0  0  0  0  0  0  0
    4.7677   37.3955    0.6743 C   0  0  1  0  0  0  0  0  0  0  0  0
    5.3748   38.5372    0.1450 O   0  0  0  0  0  0  0  0  0  0  0  0
   -0.1698   36.5540    1.6068 C   0  0  2  0  0  0  0  0  0  0  0  0
    0.4192   35.4575    2.3039 O   0  0  0  0  0  0  0  0  0  0  0  0
    3.3289   37.4066    0.2843 C   0  0  1  0  0  0  0  0  0  0  0  0
    2.7308   36.2626    0.8219 O   0  0  0  0  0  0  0  0  0  0  0  0
   -0.9996   37.4014    2.5940 C   0  0  1  0  0  0  0  0  0  0  0  0
   -0.1539   37.9113    3.6378 O   0  0  0  0  0  0  0  0  0  0  0  0
    2.5996   38.6332    0.8671 C   0  0  0  0  0  0  0  0  0  0  0  0
    1.2909   38.7065    0.3131 O   0  0  0  0  0  0  0  0  0  0  0  0
   -1.2003   41.2857    2.9448 N   0  0  0  0  0  0  0  0  0  0  0  0
   -4.6886   36.6825   -0.9818 N   0  0  0  0  0  0  0  0  0  0  0  0
  1  2  1  0  0  0  0
  1 39  1  0  0  0  0
  3  4  1  0  0  0  0
  5  6  1  0  0  0  0
  5 40  1  0  0  0  0
  9 10  1  1  0  0  0
  9 14  1  0  0  0  0
  9 35  1  0  0  0  0
 10  1  1  0  0  0  0
 11 16  1  0  0  0  0
 11 28  1  0  0  0  0
 11 26  1  6  0  0  0
 12 17  1  0  0  0  0
 12 34  1  0  0  0  0
 12 13  1  6  0  0  0
 14 15  1  6  0  0  0
 14 19  1  0  0  0  0
 16 13  1  6  0  0  0
 16 21  1  0  0  0  0
 17 18  1  6  0  0  0
 17 23  1  0  0  0  0
 18  8  1  0  0  0  0
 19 20  1  6  0  0  0
 19 25  1  0  0  0  0
 20  5  1  0  0  0  0
 21  3  1  6  0  0  0
 21 22  1  0  0  0  0
 21 27  1  0  0  0  0
 23 24  1  1  0  0  0
 23 29  1  0  0  0  0
 25 26  1  6  0  0  0
 25 31  1  0  0  0  0
 27  7  1  6  0  0  0
 27 28  1  0  0  0  0
 29 30  1  6  0  0  0
 29 33  1  0  0  0  0
 31 32  1  1  0  0  0
 31 35  1  0  0  0  0
 33 34  1  0  0  0  0
 33 37  1  1  0  0  0
 35 36  1  1  0  0  0
 37 38  1  0  0  0  0
M  END
>  <CHROM.1>
-102.53307935,111.44516471,154.84155946,151.37617741,79.29115911,-83.37228643
-52.05950702,-80.97971807,-59.72977130,60.29235380,171.58588697,0.73148579
36.59309210,-0.08019906,-2.60362449,0.17351565,-2.33440305

>  <Name>
1nta_lig

>  <RI>
0

>  <Rbt.Current_Directory>
/home/itssahil/PROJECTS/Mol_Feturizer/New_Systems/rnas/1nta

>  <Rbt.Executable>
rbdock ($Id: //depot/dev/client3/rdock/2013.1/src/exe/rbdock.cxx#4 $)

>  <Rbt.Library>
libRbt.so (2013.1, Build901 2013/11/27)

>  <Rbt.Parameter_File>
/export/apps/rDock/src/rDock_2013.1_src/data/scripts/dock_solv.prm

>  <Rbt.Receptor>
prm/pocket_docking_4.prm

>  <SCORE>
-20.6778

>  <SCORE.INTER>
-0.780872

>  <SCORE.INTER.CONST>
1

>  <SCORE.INTER.POLAR>
-0.788543

>  <SCORE.INTER.ROT>
11

>  <SCORE.INTER.SOLV>
8.96936

>  <SCORE.INTER.VDW>
-11.8152

>  <SCORE.INTER.norm>
-0.0195218

>  <SCORE.INTRA>
-19.8969

>  <SCORE.INTRA.DIHEDRAL>
-8.47946

>  <SCORE.INTRA.DIHEDRAL.0>
19.0336

>  <SCORE.INTRA.POLAR>
0

>  <SCORE.INTRA.POLAR.0>
0

>  <SCORE.INTRA.REPUL>
0

>  <SCORE.INTRA.REPUL.0>
0

>  <SCORE.INTRA.SOLV>
-0.833733

>  <SCORE.INTRA.SOLV.lig_0>
-97.5861

>  <SCORE.INTRA.VDW>
-15.2403

>  <SCORE.INTRA.VDW.0>
11.7669

>  <SCORE.INTRA.norm>
-0.497423

>  <SCORE.RESTR>
0

>  <SCORE.RESTR.CAVITY>
0

>  <SCORE.RESTR.norm>
0

>  <SCORE.SYSTEM>
0

>  <SCORE.SYSTEM.CONST>
0

>  <SCORE.SYSTEM.DIHEDRAL>
0

>  <SCORE.SYSTEM.SOLV>
0

>  <SCORE.SYSTEM.norm>
0

>  <SCORE.heavy>
40

>  <SCORE.norm>
-0.516944

>  <RMSD>
7.544

$$$$
1nta_lig
 OpenBabel11021811403D
libRbt.so/2013.1/901 2013/11/27
 40 42  0  0  0  0  0  0  0  0999 V2000
   -3.7686   37.7262    4.7295 C   0  0  0  0  0  0  0  0  0  0  0  0
   -3.7625   37.1760    5.8859 N   0  0  0  0  0  0  0  0  0  0  0  0
    1.3190   33.1704   -2.6473 C   0  0  0  0  0  0  0  0  0  0  0  0
    0.5474   32.5723   -1.9303 O   0  0  0  0  0  0  0  0  0  0  0  0
   -0.3760   33.0856    1.5940 C   0  0  0  0  0  0  0  0  0  0  0  0
   -1.5848   32.5985    1.4871 N   0  0  0  0  0  0  0  0  0  0  0  0
    0.0102   35.7456   -4.2956 C   0  0  0  0  0  0  0  0  0  0  0  0
    6.3793   33.2761   -0.0537 C   0  0  0  0  0  0  0  0  0  0  0  0
   -2.2660   37.2501    2.9642 C   0  0  2  0  0  0  0  0  0  0  0  0
   -2.5771   38.0218    4.2318 N   0  0  0  0  0  0  0  0  0  0  0  0
    1.0659   36.1194   -0.8844 C   0  0  2  0  0  0  0  0  0  0  0  0
    3.7837   35.0965    0.1732 C   0  0  1  0  0  0  0  0  0  0  0  0
    3.2937   35.4212   -1.0806 O   0  0  0  0  0  0  0  0  0  0  0  0
   -1.3288   36.0692    3.2804 C   0  0  1  0  0  0  0  0  0  0  0  0
   -2.0221   35.2116    4.1359 O   0  0  0  0  0  0  0  0  0  0  0  0
    2.0479   35.0156   -1.2618 C   0  0  2  0  0  0  0  0  0  0  0  0
    5.2762   35.2693    0.3501 C   0  0  1  0  0  0  0  0  0  0  0  0
    5.9436   34.5231   -0.6598 N   0  0  0  0  0  0  0  0  0  0  0  0
   -0.9603   35.2643    2.0270 C   0  0  2  0  0  0  0  0  0  0  0  0
   -0.0545   34.1213    2.2938 N   0  0  0  0  0  0  0  0  0  0  0  0
    1.5655   34.6546   -2.5988 C   0  0  1  0  0  0  0  0  0  0  0  0
    2.5644   35.0650   -3.5346 O   0  0  0  0  0  0  0  0  0  0  0  0
    5.6414   36.6037    0.2398 C   0  0  2  0  0  0  0  0  0  0  0  0
    6.9630   36.7230    0.7024 O   0  0  0  0  0  0  0  0  0  0  0  0
   -0.2935   36.2088    1.0395 C   0  0  1  0  0  0  0  0  0  0  0  0
    0.0418   35.4605   -0.1186 O   0  0  0  0  0  0  0  0  0  0  0  0
    0.3346   35.4063   -2.8738 C   0  0  1  0  0  0  0  0  0  0  0  0
    0.4569   36.5740   -2.0710 O   0  0  0  0  0  0  0  0  0  0  0  0
    4.7354   37.4662    1.0789 C   0  0  1  0  0  0  0  0  0  0  0  0
    4.9671   38.8078    0.7648 O   0  0  0  0  0  0  0  0  0  0  0  0
   -1.2539   37.3791    0.6834 C   0  0  2  0  0  0  0  0  0  0  0  0
   -0.6151   38.2477   -0.2509 O   0  0  0  0  0  0  0  0  0  0  0  0
    3.3114   37.1519    0.7690 C   0  0  1  0  0  0  0  0  0  0  0  0
    3.0898   35.8092    1.0903 O   0  0  0  0  0  0  0  0  0  0  0  0
   -1.5916   38.1674    1.9663 C   0  0  1  0  0  0  0  0  0  0  0  0
   -2.4784   39.2550    1.6576 O   0  0  0  0  0  0  0  0  0  0  0  0
    2.3510   38.0019    1.6242 C   0  0  0  0  0  0  0  0  0  0  0  0
    2.4578   39.3657    1.2321 O   0  0  0  0  0  0  0  0  0  0  0  0
   -4.8590   37.9818    4.0908 N   0  0  0  0  0  0  0  0  0  0  0  0
    0.5931   32.5111    0.9964 N   0  0  0  0  0  0  0  0  0  0  0  0
  1  2  1  0  0  0  0
  1 39  1  0  0  0  0
  3  4  1  0  0  0  0
  5  6  1  0  0  0  0
  5 40  1  0  0  0  0
  9 10  1  1  0  0  0
  9 14  1  0  0  0  0
  9 35  1  0  0  0  0
 10  1  1  0  0  0  0
 11 16  1  0  0  0  0
 11 28  1  0  0  0  0
 11 26  1  1  0  0  0
 12 17  1  0  0  0  0
 12 34  1  0  0  0  0
 12 13  1  6  0  0  0
 14 15  1  1  0  0  0
 14 19  1  0  0  0  0
 16 13  1  6  0  0  0
 16 21  1  0  0  0  0
 17 18  1  6  0  0  0
 17 23  1  0  0  0  0
 18  8  1  0  0  0  0
 19 20  1  1  0  0  0
 19 25  1  0  0  0  0
 20  5  1  0  0  0  0
 21  3  1  6  0  0  0
 21 22  1  0  0  0  0
 21 27  1  0  0  0  0
 23 24  1  1  0  0  0
 23 29  1  0  0  0  0
 25 26  1  6  0  0  0
 25 31  1  0  0  0  0
 27  7  1  6  0  0  0
 27 28  1  0  0  0  0
 29 30  1  6  0  0  0
 29 33  1  0  0  0  0
 31 32  1  6  0  0  0
 31 35  1  0  0  0  0
 33 34  1  0  0  0  0
 33 37  1  1  0  0  0
 35 36  1  6  0  0  0
 37 38  1  0  0  0  0
M  END
>  <CHROM.1>
-101.09654609,116.32772337,135.50061481,167.87405866,92.54440460,-99.67132540
140.37779046,-48.55641055,59.37744820,-159.57836590,67.54213313,1.00841961
36.00596902,0.63672390,-2.59566133,-0.21839295,-2.29715738

>  <Name>
1nta_lig

>  <RI>
0

>  <Rbt.Current_Directory>
/home/itssahil/PROJECTS/Mol_Feturizer/New_Systems/rnas/1nta

>  <Rbt.Executable>
rbdock ($Id: //depot/dev/client3/rdock/2013.1/src/exe/rbdock.cxx#4 $)

>  <Rbt.Library>
libRbt.so (2013.1, Build901 2013/11/27)

>  <Rbt.Parameter_File>
/export/apps/rDock/src/rDock_2013.1_src/data/scripts/dock_solv.prm

>  <Rbt.Receptor>
prm/pocket_docking_4.prm

>  <SCORE>
-22.2309

>  <SCORE.INTER>
-2.94125

>  <SCORE.INTER.CONST>
1

>  <SCORE.INTER.POLAR>
-0.788269

>  <SCORE.INTER.ROT>
11

>  <SCORE.INTER.SOLV>
11.7628

>  <SCORE.INTER.VDW>
-14.1875

>  <SCORE.INTER.norm>
-0.0735313

>  <SCORE.INTRA>
-19.2896

>  <SCORE.INTRA.DIHEDRAL>
-2.20716

>  <SCORE.INTRA.DIHEDRAL.0>
19.0336

>  <SCORE.INTRA.POLAR>
0

>  <SCORE.INTRA.POLAR.0>
0

>  <SCORE.INTRA.REPUL>
0

>  <SCORE.INTRA.REPUL.0>
0

>  <SCORE.INTRA.SOLV>
-1.35824

>  <SCORE.INTRA.SOLV.lig_0>
-97.5861

>  <SCORE.INTRA.VDW>
-17.5069

>  <SCORE.INTRA.VDW.0>
11.7669

>  <SCORE.INTRA.norm>
-0.482241

>  <SCORE.RESTR>
0

>  <SCORE.RESTR.CAVITY>
0

>  <SCORE.RESTR.norm>
0

>  <SCORE.SYSTEM>
0

>  <SCORE.SYSTEM.CONST>
0

>  <SCORE.SYSTEM.DIHEDRAL>
0

>  <SCORE.SYSTEM.SOLV>
0

>  <SCORE.SYSTEM.norm>
0

>  <SCORE.heavy>
40

>  <SCORE.norm>
-0.555772

>  <RMSD>
7.547

$$$$
1nta_lig
 OpenBabel11021811403D
libRbt.so/2013.1/901 2013/11/27
 40 42  0  0  0  0  0  0  0  0999 V2000
   -2.6605   32.6185   -7.5413 C   0  0  0  0  0  0  0  0  0  0  0  0
   -3.8049   32.1714   -7.9026 N   0  0  0  0  0  0  0  0  0  0  0  0
   -0.0990   31.7873    2.1292 C   0  0  0  0  0  0  0  0  0  0  0  0
   -0.7839   31.6800    3.1225 O   0  0  0  0  0  0  0  0  0  0  0  0
   -3.7033   30.9606   -1.4187 C   0  0  0  0  0  0  0  0  0  0  0  0
   -3.1876   30.5790   -0.2793 N   0  0  0  0  0  0  0  0  0  0  0  0
    2.6542   32.8055    0.5657 C   0  0  0  0  0  0  0  0  0  0  0  0
   -4.5386   34.8319    3.7600 C   0  0  0  0  0  0  0  0  0  0  0  0
   -2.0891   33.0593   -5.2874 C   0  0  2  0  0  0  0  0  0  0  0  0
   -2.6827   33.5454   -6.5952 N   0  0  0  0  0  0  0  0  0  0  0  0
   -0.5623   34.0644   -0.4141 C   0  0  2  0  0  0  0  0  0  0  0  0
   -2.5971   35.2621    1.3093 C   0  0  1  0  0  0  0  0  0  0  0  0
   -1.3006   34.9081    1.6431 O   0  0  0  0  0  0  0  0  0  0  0  0
   -3.2044   32.8505   -4.2456 C   0  0  1  0  0  0  0  0  0  0  0  0
   -4.0369   31.8410   -4.7311 O   0  0  0  0  0  0  0  0  0  0  0  0
   -0.9064   33.7954    1.0469 C   0  0  2  0  0  0  0  0  0  0  0  0
   -3.3051   36.1477    2.3110 C   0  0  1  0  0  0  0  0  0  0  0  0
   -3.2680   35.5150    3.5840 N   0  0  0  0  0  0  0  0  0  0  0  0
   -2.6577   32.3797   -2.8912 C   0  0  2  0  0  0  0  0  0  0  0  0
   -3.7043   32.1728   -1.8618 N   0  0  0  0  0  0  0  0  0  0  0  0
    0.3003   33.0930    1.4956 C   0  0  1  0  0  0  0  0  0  0  0  0
    0.9739   33.9540    2.4160 O   0  0  0  0  0  0  0  0  0  0  0  0
   -2.6883   37.3873    2.4058 C   0  0  2  0  0  0  0  0  0  0  0  0
   -3.5540   38.2406    3.1111 O   0  0  0  0  0  0  0  0  0  0  0  0
   -1.6688   33.4222   -2.3942 C   0  0  1  0  0  0  0  0  0  0  0  0
   -1.1638   32.9803   -1.1438 O   0  0  0  0  0  0  0  0  0  0  0  0
    1.1760   32.8751    0.3374 C   0  0  1  0  0  0  0  0  0  0  0  0
    0.8327   33.9260   -0.5572 O   0  0  0  0  0  0  0  0  0  0  0  0
   -2.4336   37.9525    1.0331 C   0  0  1  0  0  0  0  0  0  0  0  0
   -1.6058   39.0721    1.1497 O   0  0  0  0  0  0  0  0  0  0  0  0
   -0.5169   33.6037   -3.4233 C   0  0  2  0  0  0  0  0  0  0  0  0
    0.4049   34.5768   -2.9349 O   0  0  0  0  0  0  0  0  0  0  0  0
   -1.7347   36.9389    0.1925 C   0  0  1  0  0  0  0  0  0  0  0  0
   -2.5729   35.8253    0.0794 O   0  0  0  0  0  0  0  0  0  0  0  0
   -1.1063   34.0857   -4.7655 C   0  0  1  0  0  0  0  0  0  0  0  0
   -0.0562   34.2605   -5.7307 O   0  0  0  0  0  0  0  0  0  0  0  0
   -1.4737   37.4739   -1.2295 C   0  0  0  0  0  0  0  0  0  0  0  0
   -0.4702   38.4813   -1.1735 O   0  0  0  0  0  0  0  0  0  0  0  0
   -1.5583   32.2011   -8.0639 N   0  0  0  0  0  0  0  0  0  0  0  0
   -4.2356   30.0984   -2.1931 N   0  0  0  0  0  0  0  0  0  0  0  0
  1  2  1  0  0  0  0
  1 39  1  0  0  0  0
  3  4  1  0  0  0  0
  5  6  1  0  0  0  0
  5 40  1  0  0  0  0
  9 10  1  6  0  0  0
  9 14  1  0  0  0  0
  9 35  1  0  0  0  0
 10  1  1  0  0  0  0
 11 16  1  0  0  0  0
 11 28  1  0  0  0  0
 11 26  1  6  0  0  0
 12 17  1  0  0  0  0
 12 34  1  0  0  0  0
 12 13  1  1  0  0  0
 14 15  1  6  0  0  0
 14 19  1  0  0  0  0
 16 13  1  1  0  0  0
 16 21  1  0  0  0  0
 17 18  1  1  0  0  0
 17 23  1  0  0  0  0
 18  8  1  0  0  0  0
 19 20  1  1  0  0  0
 19 25  1  0  0  0  0
 20  5  1  0  0  0  0
 21  3  1  1  0  0  0
 21 22  1  0  0  0  0
 21 27  1  0  0  0  0
 23 24  1  1  0  0  0
 23 29  1  0  0  0  0
 25 26  1  1  0  0  0
 25 31  1  0  0  0  0
 27  7  1  1  0  0  0
 27 28  1  0  0  0  0
 29 30  1  1  0  0  0
 29 33  1  0  0  0  0
 31 32  1  1  0  0  0
 31 35  1  0  0  0  0
 33 34  1  0  0  0  0
 33 37  1  6  0  0  0
 35 36  1  6  0  0  0
 37 38  1  0  0  0  0
M  END
>  <CHROM.1>
-108.01547151,112.24951467,143.64474607,156.63014010,76.62146366,-97.60519103
121.35200418,101.80518483,-62.47345325,-161.92527157,70.58053962,-1.71259722
34.12220497,-1.08364527,2.14416234,1.44333400,-2.52943284

>  <Name>
1nta_lig

>  <RI>
0

>  <Rbt.Current_Directory>
/home/itssahil/PROJECTS/Mol_Feturizer/New_Systems/rnas/1nta

>  <Rbt.Executable>
rbdock ($Id: //depot/dev/client3/rdock/2013.1/src/exe/rbdock.cxx#4 $)

>  <Rbt.Library>
libRbt.so (2013.1, Build901 2013/11/27)

>  <Rbt.Parameter_File>
/export/apps/rDock/src/rDock_2013.1_src/data/scripts/dock_solv.prm

>  <Rbt.Receptor>
prm/pocket_docking_6.prm

>  <SCORE>
-15.4477

>  <SCORE.INTER>
5.25488

>  <SCORE.INTER.CONST>
1

>  <SCORE.INTER.POLAR>
-0.774597

>  <SCORE.INTER.ROT>
11

>  <SCORE.INTER.SOLV>
5.81497

>  <SCORE.INTER.VDW>
-6.78642

>  <SCORE.INTER.norm>
0.131372

>  <SCORE.INTRA>
-20.7026

>  <SCORE.INTRA.DIHEDRAL>
-4.63857

>  <SCORE.INTRA.DIHEDRAL.0>
19.0336

>  <SCORE.INTRA.POLAR>
0

>  <SCORE.INTRA.POLAR.0>
0

>  <SCORE.INTRA.REPUL>
0.0117999

>  <SCORE.INTRA.REPUL.0>
0

>  <SCORE.INTRA.SOLV>
-4.51786

>  <SCORE.INTRA.SOLV.lig_0>
-97.5861

>  <SCORE.INTRA.VDW>
-16.1834

>  <SCORE.INTRA.VDW.0>
11.7669

>  <SCORE.INTRA.norm>
-0.517565

>  <SCORE.RESTR>
0

>  <SCORE.RESTR.CAVITY>
0

>  <SCORE.RESTR.norm>
0

>  <SCORE.SYSTEM>
0

>  <SCORE.SYSTEM.CONST>
0

>  <SCORE.SYSTEM.DIHEDRAL>
0

>  <SCORE.SYSTEM.SOLV>
0

>  <SCORE.SYSTEM.norm>
0

>  <SCORE.heavy>
40

>  <SCORE.norm>
-0.386193

>  <RMSD>
7.558

$$$$
1nta_lig
 OpenBabel11021811403D
libRbt.so/2013.1/901 2013/11/27
 40 42  0  0  0  0  0  0  0  0999 V2000
    0.4151   41.6526    4.6681 C   0  0  0  0  0  0  0  0  0  0  0  0
    0.5179   42.9273    4.6002 N   0  0  0  0  0  0  0  0  0  0  0  0
   -0.7382   38.1995   -4.5124 C   0  0  0  0  0  0  0  0  0  0  0  0
   -1.6570   38.5736   -3.8173 O   0  0  0  0  0  0  0  0  0  0  0  0
   -1.6623   36.8919    1.2531 C   0  0  0  0  0  0  0  0  0  0  0  0
   -2.3269   36.6599    2.3551 N   0  0  0  0  0  0  0  0  0  0  0  0
    1.7848   40.3661   -4.5534 C   0  0  0  0  0  0  0  0  0  0  0  0
   -1.7500   33.7915   -2.9247 C   0  0  0  0  0  0  0  0  0  0  0  0
    0.7494   40.5569    2.5973 C   0  0  2  0  0  0  0  0  0  0  0  0
    1.2947   40.9701    3.9504 N   0  0  0  0  0  0  0  0  0  0  0  0
    1.5083   37.9494   -1.9126 C   0  0  2  0  0  0  0  0  0  0  0  0
    1.0864   35.0161   -2.2540 C   0  0  1  0  0  0  0  0  0  0  0  0
    1.4372   35.9818   -3.1825 O   0  0  0  0  0  0  0  0  0  0  0  0
    0.4429   39.0473    2.5890 C   0  0  1  0  0  0  0  0  0  0  0  0
   -0.5613   38.8264    3.5329 O   0  0  0  0  0  0  0  0  0  0  0  0
    0.8066   37.1281   -2.9889 C   0  0  2  0  0  0  0  0  0  0  0  0
    0.5607   33.7212   -2.8333 C   0  0  1  0  0  0  0  0  0  0  0  0
   -0.5352   34.0175   -3.6897 N   0  0  0  0  0  0  0  0  0  0  0  0
   -0.0914   38.5674    1.2329 C   0  0  2  0  0  0  0  0  0  0  0  0
   -0.3931   37.1165    1.1873 N   0  0  0  0  0  0  0  0  0  0  0  0
    0.6977   38.1140   -4.0691 C   0  0  1  0  0  0  0  0  0  0  0  0
    1.5616   37.6844   -5.1233 O   0  0  0  0  0  0  0  0  0  0  0  0
    1.5411   33.0670   -3.5660 C   0  0  2  0  0  0  0  0  0  0  0  0
    1.0858   31.7611   -3.8157 O   0  0  0  0  0  0  0  0  0  0  0  0
    0.9499   38.8934    0.1741 C   0  0  1  0  0  0  0  0  0  0  0  0
    0.4495   38.4509   -1.0779 O   0  0  0  0  0  0  0  0  0  0  0  0
    1.1783   39.4099   -3.5737 C   0  0  1  0  0  0  0  0  0  0  0  0
    2.0941   39.0663   -2.5411 O   0  0  0  0  0  0  0  0  0  0  0  0
    2.8282   33.0100   -2.7858 C   0  0  1  0  0  0  0  0  0  0  0  0
    3.8511   32.5687   -3.6293 O   0  0  0  0  0  0  0  0  0  0  0  0
    1.2296   40.4231    0.1489 C   0  0  2  0  0  0  0  0  0  0  0  0
    2.2001   40.7101   -0.8566 O   0  0  0  0  0  0  0  0  0  0  0  0
    3.1810   34.3728   -2.2952 C   0  0  1  0  0  0  0  0  0  0  0  0
    2.1534   34.8027   -1.4499 O   0  0  0  0  0  0  0  0  0  0  0  0
    1.7730   40.8628    1.5246 C   0  0  1  0  0  0  0  0  0  0  0  0
    2.0389   42.2749    1.5213 O   0  0  0  0  0  0  0  0  0  0  0  0
    4.4849   34.3525   -1.4732 C   0  0  0  0  0  0  0  0  0  0  0  0
    4.3131   33.5032   -0.3443 O   0  0  0  0  0  0  0  0  0  0  0  0
   -0.4858   41.0683    5.3818 N   0  0  0  0  0  0  0  0  0  0  0  0
   -2.2713   36.8822    0.1326 N   0  0  0  0  0  0  0  0  0  0  0  0
  1  2  1  0  0  0  0
  1 39  1  0  0  0  0
  3  4  1  0  0  0  0
  5  6  1  0  0  0  0
  5 40  1  0  0  0  0
  9 10  1  1  0  0  0
  9 14  1  0  0  0  0
  9 35  1  0  0  0  0
 10  1  1  0  0  0  0
 11 16  1  0  0  0  0
 11 28  1  0  0  0  0
 11 26  1  1  0  0  0
 12 17  1  0  0  0  0
 12 34  1  0  0  0  0
 12 13  1  6  0  0  0
 14 15  1  1  0  0  0
 14 19  1  0  0  0  0
 16 13  1  6  0  0  0
 16 21  1  0  0  0  0
 17 18  1  6  0  0  0
 17 23  1  0  0  0  0
 18  8  1  0  0  0  0
 19 20  1  1  0  0  0
 19 25  1  0  0  0  0
 20  5  1  0  0  0  0
 21  3  1  6  0  0  0
 21 22  1  0  0  0  0
 21 27  1  0  0  0  0
 23 24  1  1  0  0  0
 23 29  1  0  0  0  0
 25 26  1  6  0  0  0
 25 31  1  0  0  0  0
 27  7  1  6  0  0  0
 27 28  1  0  0  0  0
 29 30  1  6  0  0  0
 29 33  1  0  0  0  0
 31 32  1  6  0  0  0
 31 35  1  0  0  0  0
 33 34  1  0  0  0  0
 33 37  1  1  0  0  0
 35 36  1  6  0  0  0
 37 38  1  0  0  0  0
M  END
>  <CHROM.1>
-106.31455082,-95.98816423,162.59465077,124.07697614,82.26520297,-98.10516263
103.79442352,-92.97965287,63.56399249,-144.51742565,-60.54459445,0.91624029
37.45618477,-0.85717281,2.65986416,1.42219438,-0.32045706

>  <Name>
1nta_lig

>  <RI>
0

>  <Rbt.Current_Directory>
/home/itssahil/PROJECTS/Mol_Feturizer/New_Systems/rnas/1nta

>  <Rbt.Executable>
rbdock ($Id: //depot/dev/client3/rdock/2013.1/src/exe/rbdock.cxx#4 $)

>  <Rbt.Library>
libRbt.so (2013.1, Build901 2013/11/27)

>  <Rbt.Parameter_File>
/export/apps/rDock/src/rDock_2013.1_src/data/scripts/dock_solv.prm

>  <Rbt.Receptor>
prm/pocket_docking_6.prm

>  <SCORE>
-19.4967

>  <SCORE.INTER>
-0.949204

>  <SCORE.INTER.CONST>
1

>  <SCORE.INTER.POLAR>
-0.530371

>  <SCORE.INTER.ROT>
11

>  <SCORE.INTER.SOLV>
10.2549

>  <SCORE.INTER.VDW>
-13.2165

>  <SCORE.INTER.norm>
-0.0237301

>  <SCORE.INTRA>
-18.5546

>  <SCORE.INTRA.DIHEDRAL>
0.311426

>  <SCORE.INTRA.DIHEDRAL.0>
19.0336

>  <SCORE.INTRA.POLAR>
0

>  <SCORE.INTRA.POLAR.0>
0

>  <SCORE.INTRA.REPUL>
0.0443001

>  <SCORE.INTRA.REPUL.0>
0

>  <SCORE.INTRA.SOLV>
-4.42126

>  <SCORE.INTRA.SOLV.lig_0>
-97.5861

>  <SCORE.INTRA.VDW>
-16.7212

>  <SCORE.INTRA.VDW.0>
11.7669

>  <SCORE.INTRA.norm>
-0.463866

>  <SCORE.RESTR>
0.00710298

>  <SCORE.RESTR.CAVITY>
0.00710298

>  <SCORE.RESTR.norm>
0.000177574

>  <SCORE.SYSTEM>
0

>  <SCORE.SYSTEM.CONST>
0

>  <SCORE.SYSTEM.DIHEDRAL>
0

>  <SCORE.SYSTEM.SOLV>
0

>  <SCORE.SYSTEM.norm>
0

>  <SCORE.heavy>
40

>  <SCORE.norm>
-0.487418

>  <RMSD>
7.573

$$$$
1nta_lig
 OpenBabel11021811403D
libRbt.so/2013.1/901 2013/11/27
 40 42  0  0  0  0  0  0  0  0999 V2000
    3.5070   44.1935    1.6618 C   0  0  0  0  0  0  0  0  0  0  0  0
    4.6791   44.0105    2.1443 N   0  0  0  0  0  0  0  0  0  0  0  0
   -0.8223   39.6647   -5.0758 C   0  0  0  0  0  0  0  0  0  0  0  0
   -1.5822   39.1784   -4.2674 O   0  0  0  0  0  0  0  0  0  0  0  0
    0.0993   43.9837   -3.7703 C   0  0  0  0  0  0  0  0  0  0  0  0
    0.3646   44.0764   -5.0474 N   0  0  0  0  0  0  0  0  0  0  0  0
    1.0907   39.6581   -7.7964 C   0  0  0  0  0  0  0  0  0  0  0  0
    0.6590   34.3176   -4.0875 C   0  0  0  0  0  0  0  0  0  0  0  0
    2.9797   42.9611   -0.2885 C   0  0  2  0  0  0  0  0  0  0  0  0
    2.8959   43.1050    1.2186 N   0  0  0  0  0  0  0  0  0  0  0  0
    2.5619   40.0261   -4.5421 C   0  0  2  0  0  0  0  0  0  0  0  0
    0.6622   37.3724   -3.0010 C   0  0  1  0  0  0  0  0  0  0  0  0
    1.7281   38.0952   -3.5100 O   0  0  0  0  0  0  0  0  0  0  0  0
    1.5697   43.0275   -0.9054 C   0  0  1  0  0  0  0  0  0  0  0  0
    1.0604   44.2977   -0.6313 O   0  0  0  0  0  0  0  0  0  0  0  0
    1.3479   39.2134   -4.1051 C   0  0  2  0  0  0  0  0  0  0  0  0
    0.9975   35.9798   -2.5142 C   0  0  1  0  0  0  0  0  0  0  0  0
    1.6294   35.2681   -3.5708 N   0  0  0  0  0  0  0  0  0  0  0  0
    1.5914   42.8635   -2.4310 C   0  0  2  0  0  0  0  0  0  0  0  0
    0.2493   42.9177   -3.0585 N   0  0  0  0  0  0  0  0  0  0  0  0
    0.5736   39.1726   -5.3500 C   0  0  1  0  0  0  0  0  0  0  0  0
    0.5864   37.8206   -5.8126 O   0  0  0  0  0  0  0  0  0  0  0  0
    1.8558   36.0244   -1.4245 C   0  0  2  0  0  0  0  0  0  0  0  0
    1.8839   34.7413   -0.8519 O   0  0  0  0  0  0  0  0  0  0  0  0
    2.2381   41.5253   -2.7518 C   0  0  1  0  0  0  0  0  0  0  0  0
    2.2588   41.3804   -4.1633 O   0  0  0  0  0  0  0  0  0  0  0  0
    1.2455   40.0120   -6.3498 C   0  0  1  0  0  0  0  0  0  0  0  0
    2.6104   39.9990   -5.9501 O   0  0  0  0  0  0  0  0  0  0  0  0
    1.3600   37.0181   -0.4070 C   0  0  1  0  0  0  0  0  0  0  0  0
    2.3545   37.2184    0.5538 O   0  0  0  0  0  0  0  0  0  0  0  0
    3.6789   41.4715   -2.1687 C   0  0  2  0  0  0  0  0  0  0  0  0
    4.2720   40.2141   -2.4887 O   0  0  0  0  0  0  0  0  0  0  0  0
    1.0811   38.3232   -1.0714 C   0  0  1  0  0  0  0  0  0  0  0  0
    0.0828   38.1120   -2.0275 O   0  0  0  0  0  0  0  0  0  0  0  0
    3.6124   41.6302   -0.6352 C   0  0  1  0  0  0  0  0  0  0  0  0
    4.9355   41.5820   -0.0768 O   0  0  0  0  0  0  0  0  0  0  0  0
    0.5515   39.3630   -0.0642 C   0  0  0  0  0  0  0  0  0  0  0  0
    1.5705   39.6567    0.8846 O   0  0  0  0  0  0  0  0  0  0  0  0
    2.9564   45.3579    1.6047 N   0  0  0  0  0  0  0  0  0  0  0  0
   -0.3201   45.0069   -3.1350 N   0  0  0  0  0  0  0  0  0  0  0  0
  1  2  1  0  0  0  0
  1 39  1  0  0  0  0
  3  4  1  0  0  0  0
  5  6  1  0  0  0  0
  5 40  1  0  0  0  0
  9 10  1  1  0  0  0
  9 14  1  0  0  0  0
  9 35  1  0  0  0  0
 10  1  1  0  0  0  0
 11 16  1  0  0  0  0
 11 28  1  0  0  0  0
 11 26  1  6  0  0  0
 12 17  1  0  0  0  0
 12 34  1  0  0  0  0
 12 13  1  1  0  0  0
 14 15  1  6  0  0  0
 14 19  1  0  0  0  0
 16 13  1  6  0  0  0
 16 21  1  0  0  0  0
 17 18  1  6  0  0  0
 17 23  1  0  0  0  0
 18  8  1  0  0  0  0
 19 20  1  1  0  0  0
 19 25  1  0  0  0  0
 20  5  1  0  0  0  0
 21  3  1  1  0  0  0
 21 22  1  0  0  0  0
 21 27  1  0  0  0  0
 23 24  1  1  0  0  0
 23 29  1  0  0  0  0
 25 26  1  6  0  0  0
 25 31  1  0  0  0  0
 27  7  1  6  0  0  0
 27 28  1  0  0  0  0
 29 30  1  1  0  0  0
 29 33  1  0  0  0  0
 31 32  1  1  0  0  0
 31 35  1  0  0  0  0
 33 34  1  0  0  0  0
 33 37  1  1  0  0  0
 35 36  1  6  0  0  0
 37 38  1  0  0  0  0
M  END
>  <CHROM.1>
-116.63370488,-99.98424662,68.12719877,170.22439326,175.23085095,-105.71759230
111.33467032,91.56283142,-58.03388341,-166.49013197,65.12733195,1.66696567
40.19763934,-2.38912645,-0.91664848,1.21272156,3.02006734

>  <Name>
1nta_lig

>  <RI>
0

>  <Rbt.Current_Directory>
/home/itssahil/PROJECTS/Mol_Feturizer/New_Systems/rnas/1nta

>  <Rbt.Executable>
rbdock ($Id: //depot/dev/client3/rdock/2013.1/src/exe/rbdock.cxx#4 $)

>  <Rbt.Library>
libRbt.so (2013.1, Build901 2013/11/27)

>  <Rbt.Parameter_File>
/export/apps/rDock/src/rDock_2013.1_src/data/scripts/dock_solv.prm

>  <Rbt.Receptor>
prm/pocket_docking_7.prm

>  <SCORE>
-25.8765

>  <SCORE.INTER>
-0.558985

>  <SCORE.INTER.CONST>
1

>  <SCORE.INTER.POLAR>
-0.824621

>  <SCORE.INTER.ROT>
11

>  <SCORE.INTER.SOLV>
8.30554

>  <SCORE.INTER.VDW>
-11.3258

>  <SCORE.INTER.norm>
-0.0139746

>  <SCORE.INTRA>
-25.3176

>  <SCORE.INTRA.DIHEDRAL>
-12.4949

>  <SCORE.INTRA.DIHEDRAL.0>
19.0336

>  <SCORE.INTRA.POLAR>
0

>  <SCORE.INTRA.POLAR.0>
0

>  <SCORE.INTRA.REPUL>
0.00529434

>  <SCORE.INTRA.REPUL.0>
0

>  <SCORE.INTRA.SOLV>
-3.17699

>  <SCORE.INTRA.SOLV.lig_0>
-97.5861

>  <SCORE.INTRA.VDW>
-17.5081

>  <SCORE.INTRA.VDW.0>
11.7669

>  <SCORE.INTRA.norm>
-0.632939

>  <SCORE.RESTR>
0

>  <SCORE.RESTR.CAVITY>
0

>  <SCORE.RESTR.norm>
0

>  <SCORE.SYSTEM>
0

>  <SCORE.SYSTEM.CONST>
0

>  <SCORE.SYSTEM.DIHEDRAL>
0

>  <SCORE.SYSTEM.SOLV>
0

>  <SCORE.SYSTEM.norm>
0

>  <SCORE.heavy>
40

>  <SCORE.norm>
-0.646913

>  <RMSD>
7.580

$$$$
1nta_lig
 OpenBabel11021811403D
libRbt.so/2013.1/901 2013/11/27
 40 42  0  0  0  0  0  0  0  0999 V2000
   -5.0498   35.8316   -1.9176 C   0  0  0  0  0  0  0  0  0  0  0  0
   -5.9415   36.0805   -1.0327 N   0  0  0  0  0  0  0  0  0  0  0  0
    4.2615   36.8157    1.8918 C   0  0  0  0  0  0  0  0  0  0  0  0
    4.9791   36.1464    2.6020 O   0  0  0  0  0  0  0  0  0  0  0  0
   -1.2758   37.8769    2.6012 C   0  0  0  0  0  0  0  0  0  0  0  0
   -2.3470   38.3358    3.1943 N   0  0  0  0  0  0  0  0  0  0  0  0
    4.2212   34.1454   -0.0904 C   0  0  0  0  0  0  0  0  0  0  0  0
    5.6628   41.8964    0.3891 C   0  0  0  0  0  0  0  0  0  0  0  0
   -2.8255   36.4515   -1.3991 C   0  0  2  0  0  0  0  0  0  0  0  0
   -4.1364   36.7756   -2.0887 N   0  0  0  0  0  0  0  0  0  0  0  0
    2.2519   37.0369   -0.8976 C   0  0  2  0  0  0  0  0  0  0  0  0
    3.4268   39.9436   -0.7261 C   0  0  1  0  0  0  0  0  0  0  0  0
    3.9330   38.6686   -0.9151 O   0  0  0  0  0  0  0  0  0  0  0  0
   -2.5191   37.5089   -0.3216 C   0  0  1  0  0  0  0  0  0  0  0  0
   -3.5307   37.4251    0.6363 O   0  0  0  0  0  0  0  0  0  0  0  0
    3.3527   37.7693   -0.1381 C   0  0  2  0  0  0  0  0  0  0  0  0
    4.2810   41.0670   -1.2708 C   0  0  1  0  0  0  0  0  0  0  0  0
    5.5860   40.9564   -0.7166 N   0  0  0  0  0  0  0  0  0  0  0  0
   -1.1884   37.2437    0.3951 C   0  0  2  0  0  0  0  0  0  0  0  0
   -0.8588   38.2459    1.4368 N   0  0  0  0  0  0  0  0  0  0  0  0
    4.1190   36.6421    0.4034 C   0  0  1  0  0  0  0  0  0  0  0  0
    5.3842   36.6322   -0.2608 O   0  0  0  0  0  0  0  0  0  0  0  0
    4.3719   41.0003   -2.6541 C   0  0  2  0  0  0  0  0  0  0  0  0
    4.9157   42.2155   -3.1041 O   0  0  0  0  0  0  0  0  0  0  0  0
   -0.0846   37.2302   -0.6506 C   0  0  1  0  0  0  0  0  0  0  0  0
    1.1427   36.9812    0.0168 O   0  0  0  0  0  0  0  0  0  0  0  0
    3.4146   35.3954    0.0794 C   0  0  1  0  0  0  0  0  0  0  0  0
    2.6807   35.7096   -1.0977 O   0  0  0  0  0  0  0  0  0  0  0  0
    3.0069   40.8055   -3.2603 C   0  0  1  0  0  0  0  0  0  0  0  0
    3.1516   40.5026   -4.6166 O   0  0  0  0  0  0  0  0  0  0  0  0
   -0.3676   36.1334   -1.7162 C   0  0  2  0  0  0  0  0  0  0  0  0
    0.6829   36.1293   -2.6814 O   0  0  0  0  0  0  0  0  0  0  0  0
    2.3190   39.6619   -2.5959 C   0  0  1  0  0  0  0  0  0  0  0  0
    2.1761   39.9770   -1.2410 O   0  0  0  0  0  0  0  0  0  0  0  0
   -1.7065   36.4413   -2.4188 C   0  0  1  0  0  0  0  0  0  0  0  0
   -1.9858   35.4383   -3.4091 O   0  0  0  0  0  0  0  0  0  0  0  0
    0.9078   39.4429   -3.1763 C   0  0  0  0  0  0  0  0  0  0  0  0
    0.1262   40.6123   -2.9599 O   0  0  0  0  0  0  0  0  0  0  0  0
   -5.0406   34.7392   -2.6022 N   0  0  0  0  0  0  0  0  0  0  0  0
   -0.5452   37.0147    3.1920 N   0  0  0  0  0  0  0  0  0  0  0  0
  1  2  1  0  0  0  0
  1 39  1  0  0  0  0
  3  4  1  0  0  0  0
  5  6  1  0  0  0  0
  5 40  1  0  0  0  0
  9 10  1  6  0  0  0
  9 14  1  0  0  0  0
  9 35  1  0  0  0  0
 10  1  1  0  0  0  0
 11 16  1  0  0  0  0
 11 28  1  0  0  0  0
 11 26  1  1  0  0  0
 12 17  1  0  0  0  0
 12 34  1  0  0  0  0
 12 13  1  6  0  0  0
 14 15  1  1  0  0  0
 14 19  1  0  0  0  0
 16 13  1  6  0  0  0
 16 21  1  0  0  0  0
 17 18  1  1  0  0  0
 17 23  1  0  0  0  0
 18  8  1  0  0  0  0
 19 20  1  1  0  0  0
 19 25  1  0  0  0  0
 20  5  1  0  0  0  0
 21  3  1  1  0  0  0
 21 22  1  0  0  0  0
 21 27  1  0  0  0  0
 23 24  1  6  0  0  0
 23 29  1  0  0  0  0
 25 26  1  1  0  0  0
 25 31  1  0  0  0  0
 27  7  1  6  0  0  0
 27 28  1  0  0  0  0
 29 30  1  6  0  0  0
 29 33  1  0  0  0  0
 31 32  1  6  0  0  0
 31 35  1  0  0  0  0
 33 34  1  0  0  0  0
 33 37  1  6  0  0  0
 35 36  1  6  0  0  0
 37 38  1  0  0  0  0
M  END
>  <CHROM.1>
-117.76449749,101.30691577,139.10749637,163.42608733,97.38715014,-99.01341441
92.79826302,-102.30204978,-170.25633470,-176.35652065,-60.83872167,1.07572011
37.88241238,-0.84734115,2.87776928,0.28140315,2.29730378

>  <Name>
1nta_lig

>  <RI>
0

>  <Rbt.Current_Directory>
/home/itssahil/PROJECTS/Mol_Feturizer/New_Systems/rnas/1nta

>  <Rbt.Executable>
rbdock ($Id: //depot/dev/client3/rdock/2013.1/src/exe/rbdock.cxx#4 $)

>  <Rbt.Library>
libRbt.so (2013.1, Build901 2013/11/27)

>  <Rbt.Parameter_File>
/export/apps/rDock/src/rDock_2013.1_src/data/scripts/dock_solv.prm

>  <Rbt.Receptor>
prm/pocket_docking_8.prm

>  <SCORE>
-18.5364

>  <SCORE.INTER>
1.19

>  <SCORE.INTER.CONST>
1

>  <SCORE.INTER.POLAR>
0

>  <SCORE.INTER.ROT>
11

>  <SCORE.INTER.SOLV>
11.3582

>  <SCORE.INTER.VDW>
-13.9261

>  <SCORE.INTER.norm>
0.0297501

>  <SCORE.INTRA>
-19.7264

>  <SCORE.INTRA.DIHEDRAL>
-3.16516

>  <SCORE.INTRA.DIHEDRAL.0>
19.0336

>  <SCORE.INTRA.POLAR>
0

>  <SCORE.INTRA.POLAR.0>
0

>  <SCORE.INTRA.REPUL>
0.0235597

>  <SCORE.INTRA.REPUL.0>
0

>  <SCORE.INTRA.SOLV>
-5.0174

>  <SCORE.INTRA.SOLV.lig_0>
-97.5861

>  <SCORE.INTRA.VDW>
-15.7529

>  <SCORE.INTRA.VDW.0>
11.7669

>  <SCORE.INTRA.norm>
-0.49316

>  <SCORE.RESTR>
0

>  <SCORE.RESTR.CAVITY>
0

>  <SCORE.RESTR.norm>
0

>  <SCORE.SYSTEM>
0

>  <SCORE.SYSTEM.CONST>
0

>  <SCORE.SYSTEM.DIHEDRAL>
0

>  <SCORE.SYSTEM.SOLV>
0

>  <SCORE.SYSTEM.norm>
0

>  <SCORE.heavy>
40

>  <SCORE.norm>
-0.46341

>  <RMSD>
7.592

$$$$
1nta_lig
 OpenBabel11021811403D
libRbt.so/2013.1/901 2013/11/27
 40 42  0  0  0  0  0  0  0  0999 V2000
   -4.4268   39.1227    3.1141 C   0  0  0  0  0  0  0  0  0  0  0  0
   -5.0317   40.1711    2.6959 N   0  0  0  0  0  0  0  0  0  0  0  0
    2.3012   34.0853   -0.9428 C   0  0  0  0  0  0  0  0  0  0  0  0
    3.1664   34.6155   -0.2813 O   0  0  0  0  0  0  0  0  0  0  0  0
   -1.1632   33.5820    1.6549 C   0  0  0  0  0  0  0  0  0  0  0  0
   -1.7751   32.9231    0.7056 N   0  0  0  0  0  0  0  0  0  0  0  0
    0.9913   32.7846   -3.7093 C   0  0  0  0  0  0  0  0  0  0  0  0
    1.3761   37.7788    1.8316 C   0  0  0  0  0  0  0  0  0  0  0  0
   -3.0176   37.8761    1.6786 C   0  0  2  0  0  0  0  0  0  0  0  0
   -3.1755   38.9833    2.7024 N   0  0  0  0  0  0  0  0  0  0  0  0
   -0.3838   35.7782   -2.2817 C   0  0  2  0  0  0  0  0  0  0  0  0
    1.0875   38.2125   -1.5225 C   0  0  1  0  0  0  0  0  0  0  0  0
    1.5403   37.1141   -2.2338 O   0  0  0  0  0  0  0  0  0  0  0  0
   -1.9362   36.8803    2.1388 C   0  0  1  0  0  0  0  0  0  0  0  0
   -2.3911   36.2973    3.3226 O   0  0  0  0  0  0  0  0  0  0  0  0
    1.0436   35.9744   -1.7827 C   0  0  2  0  0  0  0  0  0  0  0  0
    1.8876   38.5581   -0.2859 C   0  0  1  0  0  0  0  0  0  0  0  0
    1.9528   37.4094    0.5498 N   0  0  0  0  0  0  0  0  0  0  0  0
   -1.7166   35.7477    1.1270 C   0  0  2  0  0  0  0  0  0  0  0  0
   -0.6779   34.7720    1.5359 N   0  0  0  0  0  0  0  0  0  0  0  0
    1.6512   34.6931   -2.1568 C   0  0  1  0  0  0  0  0  0  0  0  0
    2.5952   34.9595   -3.1960 O   0  0  0  0  0  0  0  0  0  0  0  0
    3.1776   38.9476   -0.6180 C   0  0  2  0  0  0  0  0  0  0  0  0
    3.7545   39.5279    0.5247 O   0  0  0  0  0  0  0  0  0  0  0  0
   -1.3183   36.3727   -0.2007 C   0  0  1  0  0  0  0  0  0  0  0  0
   -1.1200   35.3216   -1.1332 O   0  0  0  0  0  0  0  0  0  0  0  0
    0.6044   33.8150   -2.6941 C   0  0  1  0  0  0  0  0  0  0  0  0
   -0.3713   34.7145   -3.2057 O   0  0  0  0  0  0  0  0  0  0  0  0
    3.1491   39.9578   -1.7348 C   0  0  1  0  0  0  0  0  0  0  0  0
    4.4501   40.1485   -2.2075 O   0  0  0  0  0  0  0  0  0  0  0  0
   -2.4283   37.3455   -0.6909 C   0  0  2  0  0  0  0  0  0  0  0  0
   -2.0415   37.9131   -1.9413 O   0  0  0  0  0  0  0  0  0  0  0  0
    2.3135   39.4443   -2.8575 C   0  0  1  0  0  0  0  0  0  0  0  0
    1.0140   39.2607   -2.3747 O   0  0  0  0  0  0  0  0  0  0  0  0
   -2.6111   38.4721    0.3476 C   0  0  1  0  0  0  0  0  0  0  0  0
   -3.6333   39.3832   -0.0882 O   0  0  0  0  0  0  0  0  0  0  0  0
    2.2431   40.4609   -4.0143 C   0  0  0  0  0  0  0  0  0  0  0  0
    1.4910   39.9005   -5.0845 O   0  0  0  0  0  0  0  0  0  0  0  0
   -4.9951   38.2556    3.8805 N   0  0  0  0  0  0  0  0  0  0  0  0
   -1.0340   33.0553    2.8091 N   0  0  0  0  0  0  0  0  0  0  0  0
  1  2  1  0  0  0  0
  1 39  1  0  0  0  0
  3  4  1  0  0  0  0
  5  6  1  0  0  0  0
  5 40  1  0  0  0  0
  9 10  1  1  0  0  0
  9 14  1  0  0  0  0
  9 35  1  0  0  0  0
 10  1  1  0  0  0  0
 11 16  1  0  0  0  0
 11 28  1  0  0  0  0
 11 26  1  1  0  0  0
 12 17  1  0  0  0  0
 12 34  1  0  0  0  0
 12 13  1  6  0  0  0
 14 15  1  1  0  0  0
 14 19  1  0  0  0  0
 16 13  1  6  0  0  0
 16 21  1  0  0  0  0
 17 18  1  1  0  0  0
 17 23  1  0  0  0  0
 18  8  1  0  0  0  0
 19 20  1  1  0  0  0
 19 25  1  0  0  0  0
 20  5  1  0  0  0  0
 21  3  1  1  0  0  0
 21 22  1  0  0  0  0
 21 27  1  0  0  0  0
 23 24  1  1  0  0  0
 23 29  1  0  0  0  0
 25 26  1  6  0  0  0
 25 31  1  0  0  0  0
 27  7  1  6  0  0  0
 27 28  1  0  0  0  0
 29 30  1  6  0  0  0
 29 33  1  0  0  0  0
 31 32  1  6  0  0  0
 31 35  1  0  0  0  0
 33 34  1  0  0  0  0
 33 37  1  6  0  0  0
 35 36  1  6  0  0  0
 37 38  1  0  0  0  0
M  END
>  <CHROM.1>
-125.72385775,-108.23094169,72.36178160,86.67325009,78.57424922,-121.63144342
119.35893968,57.58963290,-57.88221890,-163.47400244,177.20932913,-0.04694940
37.02804751,-0.46022166,3.10805991,-0.70526044,-3.13539122

>  <Name>
1nta_lig

>  <RI>
0

>  <Rbt.Current_Directory>
/home/itssahil/PROJECTS/Mol_Feturizer/New_Systems/rnas/1nta

>  <Rbt.Executable>
rbdock ($Id: //depot/dev/client3/rdock/2013.1/src/exe/rbdock.cxx#4 $)

>  <Rbt.Library>
libRbt.so (2013.1, Build901 2013/11/27)

>  <Rbt.Parameter_File>
/export/apps/rDock/src/rDock_2013.1_src/data/scripts/dock_solv.prm

>  <Rbt.Receptor>
prm/pocket_docking_4.prm

>  <SCORE>
-19.1416

>  <SCORE.INTER>
4.67868

>  <SCORE.INTER.CONST>
1

>  <SCORE.INTER.POLAR>
-0.154155

>  <SCORE.INTER.ROT>
11

>  <SCORE.INTER.SOLV>
7.00464

>  <SCORE.INTER.VDW>
-9.63524

>  <SCORE.INTER.norm>
0.116967

>  <SCORE.INTRA>
-23.8202

>  <SCORE.INTRA.DIHEDRAL>
-7.5189

>  <SCORE.INTRA.DIHEDRAL.0>
19.0336

>  <SCORE.INTRA.POLAR>
0

>  <SCORE.INTRA.POLAR.0>
0

>  <SCORE.INTRA.REPUL>
0.00107377

>  <SCORE.INTRA.REPUL.0>
0

>  <SCORE.INTRA.SOLV>
-2.70513

>  <SCORE.INTRA.SOLV.lig_0>
-97.5861

>  <SCORE.INTRA.VDW>
-18.7136

>  <SCORE.INTRA.VDW.0>
11.7669

>  <SCORE.INTRA.norm>
-0.595506

>  <SCORE.RESTR>
0

>  <SCORE.RESTR.CAVITY>
0

>  <SCORE.RESTR.norm>
0

>  <SCORE.SYSTEM>
0

>  <SCORE.SYSTEM.CONST>
0

>  <SCORE.SYSTEM.DIHEDRAL>
0

>  <SCORE.SYSTEM.SOLV>
0

>  <SCORE.SYSTEM.norm>
0

>  <SCORE.heavy>
40

>  <SCORE.norm>
-0.478539

>  <RMSD>
7.603

$$$$
1nta_lig
 OpenBabel11021811403D
libRbt.so/2013.1/901 2013/11/27
 40 42  0  0  0  0  0  0  0  0999 V2000
    1.0316   33.9332   -9.9634 C   0  0  0  0  0  0  0  0  0  0  0  0
    1.0847   32.9483  -10.7803 N   0  0  0  0  0  0  0  0  0  0  0  0
   -4.0064   32.2310   -1.6582 C   0  0  0  0  0  0  0  0  0  0  0  0
   -4.4055   32.8578   -2.6148 O   0  0  0  0  0  0  0  0  0  0  0  0
   -2.8524   34.9359   -5.1801 C   0  0  0  0  0  0  0  0  0  0  0  0
   -4.0143   34.3415   -5.2610 N   0  0  0  0  0  0  0  0  0  0  0  0
   -3.9161   28.9333   -2.0810 C   0  0  0  0  0  0  0  0  0  0  0  0
   -0.7154   32.0293    2.6182 C   0  0  0  0  0  0  0  0  0  0  0  0
    0.2952   33.0430   -7.8981 C   0  0  2  0  0  0  0  0  0  0  0  0
    1.4060   33.6652   -8.7214 N   0  0  0  0  0  0  0  0  0  0  0  0
   -1.2413   30.9950   -3.2999 C   0  0  2  0  0  0  0  0  0  0  0  0
   -0.8878   33.1030   -0.4034 C   0  0  1  0  0  0  0  0  0  0  0  0
   -0.6477   32.0881   -1.3144 O   0  0  0  0  0  0  0  0  0  0  0  0
   -0.1677   34.0256   -6.8058 C   0  0  1  0  0  0  0  0  0  0  0  0
   -0.6989   35.1413   -7.4546 O   0  0  0  0  0  0  0  0  0  0  0  0
   -1.6594   31.8986   -2.1448 C   0  0  2  0  0  0  0  0  0  0  0  0
    0.0727   33.1663    0.7637 C   0  0  1  0  0  0  0  0  0  0  0  0
    0.0852   31.9007    1.4120 N   0  0  0  0  0  0  0  0  0  0  0  0
   -1.2781   33.4383   -5.9243 C   0  0  2  0  0  0  0  0  0  0  0  0
   -1.7451   34.3563   -4.8580 N   0  0  0  0  0  0  0  0  0  0  0  0
   -2.8835   31.2292   -1.6926 C   0  0  1  0  0  0  0  0  0  0  0  0
   -2.6132   30.6793   -0.4017 O   0  0  0  0  0  0  0  0  0  0  0  0
    1.3587   33.4667    0.3371 C   0  0  2  0  0  0  0  0  0  0  0  0
    2.1174   33.7984    1.4726 O   0  0  0  0  0  0  0  0  0  0  0  0
   -0.7491   32.1628   -5.2877 C   0  0  1  0  0  0  0  0  0  0  0  0
   -1.7807   31.6222   -4.4769 O   0  0  0  0  0  0  0  0  0  0  0  0
   -3.1843   30.1261   -2.6137 C   0  0  1  0  0  0  0  0  0  0  0  0
   -1.9161   29.7673   -3.1481 O   0  0  0  0  0  0  0  0  0  0  0  0
    1.3364   34.6362   -0.6117 C   0  0  1  0  0  0  0  0  0  0  0  0
    2.5946   34.7623   -1.2064 O   0  0  0  0  0  0  0  0  0  0  0  0
   -0.3221   31.1503   -6.3882 C   0  0  2  0  0  0  0  0  0  0  0  0
    0.1609   29.9577   -5.7720 O   0  0  0  0  0  0  0  0  0  0  0  0
    0.3325   34.3940   -1.6868 C   0  0  1  0  0  0  0  0  0  0  0  0
   -0.9222   34.2733   -1.0814 O   0  0  0  0  0  0  0  0  0  0  0  0
    0.7998   31.7741   -7.2445 C   0  0  1  0  0  0  0  0  0  0  0  0
    1.2094   30.8522   -8.2679 O   0  0  0  0  0  0  0  0  0  0  0  0
    0.2655   35.5804   -2.6688 C   0  0  0  0  0  0  0  0  0  0  0  0
    1.5404   35.7580   -3.2756 O   0  0  0  0  0  0  0  0  0  0  0  0
    0.6363   35.1073  -10.3202 N   0  0  0  0  0  0  0  0  0  0  0  0
   -2.7561   36.1777   -5.4542 N   0  0  0  0  0  0  0  0  0  0  0  0
  1  2  1  0  0  0  0
  1 39  1  0  0  0  0
  3  4  1  0  0  0  0
  5  6  1  0  0  0  0
  5 40  1  0  0  0  0
  9 10  1  1  0  0  0
  9 14  1  0  0  0  0
  9 35  1  0  0  0  0
 10  1  1  0  0  0  0
 11 16  1  0  0  0  0
 11 28  1  0  0  0  0
 11 26  1  6  0  0  0
 12 17  1  0  0  0  0
 12 34  1  0  0  0  0
 12 13  1  6  0  0  0
 14 15  1  6  0  0  0
 14 19  1  0  0  0  0
 16 13  1  1  0  0  0
 16 21  1  0  0  0  0
 17 18  1  6  0  0  0
 17 23  1  0  0  0  0
 18  8  1  0  0  0  0
 19 20  1  1  0  0  0
 19 25  1  0  0  0  0
 20  5  1  0  0  0  0
 21  3  1  1  0  0  0
 21 22  1  0  0  0  0
 21 27  1  0  0  0  0
 23 24  1  1  0  0  0
 23 29  1  0  0  0  0
 25 26  1  6  0  0  0
 25 31  1  0  0  0  0
 27  7  1  1  0  0  0
 27 28  1  0  0  0  0
 29 30  1  6  0  0  0
 29 33  1  0  0  0  0
 31 32  1  1  0  0  0
 31 35  1  0  0  0  0
 33 34  1  0  0  0  0
 33 37  1  6  0  0  0
 35 36  1  6  0  0  0
 37 38  1  0  0  0  0
M  END
>  <CHROM.1>
-111.57045614,-82.77244798,110.33002615,166.56223632,167.90013541,-102.75863125
100.60364695,70.22396271,59.70203259,-145.10929630,60.31737977,-0.72023764
32.89365705,-3.74233774,-1.41529500,0.76935558,1.57268593

>  <Name>
1nta_lig

>  <RI>
0

>  <Rbt.Current_Directory>
/home/itssahil/PROJECTS/Mol_Feturizer/New_Systems/rnas/1nta

>  <Rbt.Executable>
rbdock ($Id: //depot/dev/client3/rdock/2013.1/src/exe/rbdock.cxx#4 $)

>  <Rbt.Library>
libRbt.so (2013.1, Build901 2013/11/27)

>  <Rbt.Parameter_File>
/export/apps/rDock/src/rDock_2013.1_src/data/scripts/dock_solv.prm

>  <Rbt.Receptor>
prm/pocket_docking_8.prm

>  <SCORE>
-27.0384

>  <SCORE.INTER>
-6.52356

>  <SCORE.INTER.CONST>
1

>  <SCORE.INTER.POLAR>
-1.25885

>  <SCORE.INTER.ROT>
11

>  <SCORE.INTER.SOLV>
13.9366

>  <SCORE.INTER.VDW>
-15.7318

>  <SCORE.INTER.norm>
-0.163089

>  <SCORE.INTRA>
-20.5149

>  <SCORE.INTRA.DIHEDRAL>
-1.73768

>  <SCORE.INTRA.DIHEDRAL.0>
19.0336

>  <SCORE.INTRA.POLAR>
0

>  <SCORE.INTRA.POLAR.0>
0

>  <SCORE.INTRA.REPUL>
0

>  <SCORE.INTRA.REPUL.0>
0

>  <SCORE.INTRA.SOLV>
-2.16614

>  <SCORE.INTRA.SOLV.lig_0>
-97.5861

>  <SCORE.INTRA.VDW>
-18.563

>  <SCORE.INTRA.VDW.0>
11.7669

>  <SCORE.INTRA.norm>
-0.512872

>  <SCORE.RESTR>
0

>  <SCORE.RESTR.CAVITY>
0

>  <SCORE.RESTR.norm>
0

>  <SCORE.SYSTEM>
0

>  <SCORE.SYSTEM.CONST>
0

>  <SCORE.SYSTEM.DIHEDRAL>
0

>  <SCORE.SYSTEM.SOLV>
0

>  <SCORE.SYSTEM.norm>
0

>  <SCORE.heavy>
40

>  <SCORE.norm>
-0.675961

>  <RMSD>
7.607

$$$$
1nta_lig
 OpenBabel11021811403D
libRbt.so/2013.1/901 2013/11/27
 40 42  0  0  0  0  0  0  0  0999 V2000
   -0.7424   40.9176   -6.6251 C   0  0  0  0  0  0  0  0  0  0  0  0
   -1.9159   40.7852   -7.1204 N   0  0  0  0  0  0  0  0  0  0  0  0
   -0.2975   33.1101   -0.4736 C   0  0  0  0  0  0  0  0  0  0  0  0
   -0.9053   34.1267   -0.2199 O   0  0  0  0  0  0  0  0  0  0  0  0
    1.3096   38.6638   -1.3157 C   0  0  0  0  0  0  0  0  0  0  0  0
    0.6541   38.1171   -0.3251 N   0  0  0  0  0  0  0  0  0  0  0  0
   -1.1659   31.8273   -3.4167 C   0  0  0  0  0  0  0  0  0  0  0  0
    3.2866   36.0696    1.3088 C   0  0  0  0  0  0  0  0  0  0  0  0
   -0.1991   38.8422   -5.6260 C   0  0  2  0  0  0  0  0  0  0  0  0
    0.0433   39.8561   -6.7271 N   0  0  0  0  0  0  0  0  0  0  0  0
    1.3170   34.4135   -3.2237 C   0  0  2  0  0  0  0  0  0  0  0  0
    3.7124   34.4570   -1.5868 C   0  0  1  0  0  0  0  0  0  0  0  0
    2.8225   33.4069   -1.7374 O   0  0  0  0  0  0  0  0  0  0  0  0
    0.8902   38.9659   -4.5439 C   0  0  1  0  0  0  0  0  0  0  0  0
    0.7677   40.2368   -3.9804 O   0  0  0  0  0  0  0  0  0  0  0  0
    1.5684   33.8128   -1.8449 C   0  0  2  0  0  0  0  0  0  0  0  0
    4.2863   34.6256   -0.1972 C   0  0  1  0  0  0  0  0  0  0  0  0
    3.2124   34.7395    0.7280 N   0  0  0  0  0  0  0  0  0  0  0  0
    0.7081   37.9452   -3.4127 C   0  0  2  0  0  0  0  0  0  0  0  0
    1.7430   38.0325   -2.3546 N   0  0  0  0  0  0  0  0  0  0  0  0
    0.4612   32.8559   -1.7486 C   0  0  1  0  0  0  0  0  0  0  0  0
    1.0298   31.5454   -1.7841 O   0  0  0  0  0  0  0  0  0  0  0  0
    5.0710   33.5364    0.1550 C   0  0  2  0  0  0  0  0  0  0  0  0
    5.7964   33.8888    1.3060 O   0  0  0  0  0  0  0  0  0  0  0  0
    0.7369   36.5535   -4.0245 C   0  0  1  0  0  0  0  0  0  0  0  0
    0.5646   35.6141   -2.9749 O   0  0  0  0  0  0  0  0  0  0  0  0
   -0.4048   33.0184   -2.9230 C   0  0  1  0  0  0  0  0  0  0  0  0
    0.4638   33.5367   -3.9229 O   0  0  0  0  0  0  0  0  0  0  0  0
    6.0276   33.1977   -0.9579 C   0  0  1  0  0  0  0  0  0  0  0  0
    6.6286   31.9670   -0.6810 O   0  0  0  0  0  0  0  0  0  0  0  0
   -0.3904   36.4101   -5.0862 C   0  0  2  0  0  0  0  0  0  0  0  0
   -0.3537   35.0961   -5.6407 O   0  0  0  0  0  0  0  0  0  0  0  0
    5.2824   33.0762   -2.2434 C   0  0  1  0  0  0  0  0  0  0  0  0
    4.6886   34.3132   -2.5125 O   0  0  0  0  0  0  0  0  0  0  0  0
   -0.1658   37.4452   -6.2084 C   0  0  1  0  0  0  0  0  0  0  0  0
   -1.1980   37.3279   -7.2012 O   0  0  0  0  0  0  0  0  0  0  0  0
    6.2320   32.7491   -3.4129 C   0  0  0  0  0  0  0  0  0  0  0  0
    5.4635   32.5071   -4.5859 O   0  0  0  0  0  0  0  0  0  0  0  0
   -0.3492   42.0075   -6.0596 N   0  0  0  0  0  0  0  0  0  0  0  0
    1.5401   39.9181   -1.3065 N   0  0  0  0  0  0  0  0  0  0  0  0
  1  2  1  0  0  0  0
  1 39  1  0  0  0  0
  3  4  1  0  0  0  0
  5  6  1  0  0  0  0
  5 40  1  0  0  0  0
  9 10  1  6  0  0  0
  9 14  1  0  0  0  0
  9 35  1  0  0  0  0
 10  1  1  0  0  0  0
 11 16  1  0  0  0  0
 11 28  1  0  0  0  0
 11 26  1  1  0  0  0
 12 17  1  0  0  0  0
 12 34  1  0  0  0  0
 12 13  1  1  0  0  0
 14 15  1  1  0  0  0
 14 19  1  0  0  0  0
 16 13  1  6  0  0  0
 16 21  1  0  0  0  0
 17 18  1  1  0  0  0
 17 23  1  0  0  0  0
 18  8  1  0  0  0  0
 19 20  1  1  0  0  0
 19 25  1  0  0  0  0
 20  5  1  0  0  0  0
 21  3  1  1  0  0  0
 21 22  1  0  0  0  0
 21 27  1  0  0  0  0
 23 24  1  1  0  0  0
 23 29  1  0  0  0  0
 25 26  1  1  0  0  0
 25 31  1  0  0  0  0
 27  7  1  6  0  0  0
 27 28  1  0  0  0  0
 29 30  1  1  0  0  0
 29 33  1  0  0  0  0
 31 32  1  6  0  0  0
 31 35  1  0  0  0  0
 33 34  1  0  0  0  0
 33 37  1  6  0  0  0
 35 36  1  6  0  0  0
 37 38  1  0  0  0  0
M  END
>  <CHROM.1>
-101.22883588,-83.05582285,154.96078724,106.37948380,74.58394632,-115.80652209
100.76795921,86.57583374,63.86962876,-145.64277370,174.03318499,1.72322461
35.68067174,-2.85182751,-2.33510117,0.72826172,3.07206182

>  <Name>
1nta_lig

>  <RI>
0

>  <Rbt.Current_Directory>
/home/itssahil/PROJECTS/Mol_Feturizer/New_Systems/rnas/1nta

>  <Rbt.Executable>
rbdock ($Id: //depot/dev/client3/rdock/2013.1/src/exe/rbdock.cxx#4 $)

>  <Rbt.Library>
libRbt.so (2013.1, Build901 2013/11/27)

>  <Rbt.Parameter_File>
/export/apps/rDock/src/rDock_2013.1_src/data/scripts/dock_solv.prm

>  <Rbt.Receptor>
prm/pocket_docking_6.prm

>  <SCORE>
-24.3767

>  <SCORE.INTER>
-4.78183

>  <SCORE.INTER.CONST>
1

>  <SCORE.INTER.POLAR>
0

>  <SCORE.INTER.ROT>
11

>  <SCORE.INTER.SOLV>
12.5968

>  <SCORE.INTER.VDW>
-18.3202

>  <SCORE.INTER.norm>
-0.119546

>  <SCORE.INTRA>
-19.5949

>  <SCORE.INTRA.DIHEDRAL>
-0.130147

>  <SCORE.INTRA.DIHEDRAL.0>
19.0336

>  <SCORE.INTRA.POLAR>
0

>  <SCORE.INTRA.POLAR.0>
0

>  <SCORE.INTRA.REPUL>
0.00853355

>  <SCORE.INTRA.REPUL.0>
0

>  <SCORE.INTRA.SOLV>
-4.0442

>  <SCORE.INTRA.SOLV.lig_0>
-97.5861

>  <SCORE.INTRA.VDW>
-17.5504

>  <SCORE.INTRA.VDW.0>
11.7669

>  <SCORE.INTRA.norm>
-0.489871

>  <SCORE.RESTR>
0

>  <SCORE.RESTR.CAVITY>
0

>  <SCORE.RESTR.norm>
0

>  <SCORE.SYSTEM>
0

>  <SCORE.SYSTEM.CONST>
0

>  <SCORE.SYSTEM.DIHEDRAL>
0

>  <SCORE.SYSTEM.SOLV>
0

>  <SCORE.SYSTEM.norm>
0

>  <SCORE.heavy>
40

>  <SCORE.norm>
-0.609417

>  <RMSD>
7.609

$$$$
1nta_lig
 OpenBabel11021811403D
libRbt.so/2013.1/901 2013/11/27
 40 42  0  0  0  0  0  0  0  0999 V2000
   -3.5819   41.3334   -1.8826 C   0  0  0  0  0  0  0  0  0  0  0  0
   -4.5366   41.0200   -1.0886 N   0  0  0  0  0  0  0  0  0  0  0  0
    2.0414   33.1008   -0.1215 C   0  0  0  0  0  0  0  0  0  0  0  0
    0.9963   33.2349    0.4761 O   0  0  0  0  0  0  0  0  0  0  0  0
    1.8048   39.2029   -2.6093 C   0  0  0  0  0  0  0  0  0  0  0  0
    1.5984   38.5280   -3.7101 N   0  0  0  0  0  0  0  0  0  0  0  0
    1.8569   33.0367   -3.4416 C   0  0  0  0  0  0  0  0  0  0  0  0
    6.4886   33.9953    0.8844 C   0  0  0  0  0  0  0  0  0  0  0  0
   -2.3308   39.3245   -1.8710 C   0  0  2  0  0  0  0  0  0  0  0  0
   -3.1310   40.3512   -2.6486 N   0  0  0  0  0  0  0  0  0  0  0  0
    1.8160   36.1649   -1.6801 C   0  0  2  0  0  0  0  0  0  0  0  0
    4.2361   35.8796    0.8501 C   0  0  1  0  0  0  0  0  0  0  0  0
    3.8084   35.9608   -0.4645 O   0  0  0  0  0  0  0  0  0  0  0  0
   -0.8231   39.5952   -2.0336 C   0  0  1  0  0  0  0  0  0  0  0  0
   -0.5664   40.8452   -1.4684 O   0  0  0  0  0  0  0  0  0  0  0  0
    2.6326   35.3860   -0.6545 C   0  0  2  0  0  0  0  0  0  0  0  0
    5.7053   36.1641    1.0721 C   0  0  1  0  0  0  0  0  0  0  0  0
    6.4673   35.2981    0.2406 N   0  0  0  0  0  0  0  0  0  0  0  0
    0.0384   38.5697   -1.2847 C   0  0  2  0  0  0  0  0  0  0  0  0
    1.4969   38.7972   -1.4234 N   0  0  0  0  0  0  0  0  0  0  0  0
    2.5432   34.0265   -1.1972 C   0  0  1  0  0  0  0  0  0  0  0  0
    3.8489   33.6653   -1.6519 O   0  0  0  0  0  0  0  0  0  0  0  0
    6.0131   37.4796    0.7547 C   0  0  2  0  0  0  0  0  0  0  0  0
    7.2971   37.7497    1.2581 O   0  0  0  0  0  0  0  0  0  0  0  0
   -0.3035   37.1876   -1.8185 C   0  0  1  0  0  0  0  0  0  0  0  0
    0.4931   36.2433   -1.1204 O   0  0  0  0  0  0  0  0  0  0  0  0
    1.6363   34.0395   -2.3518 C   0  0  1  0  0  0  0  0  0  0  0  0
    1.7199   35.3723   -2.8411 O   0  0  0  0  0  0  0  0  0  0  0  0
    5.0182   38.4179    1.3858 C   0  0  1  0  0  0  0  0  0  0  0  0
    5.2051   39.6987    0.8596 O   0  0  0  0  0  0  0  0  0  0  0  0
   -1.8169   36.8927   -1.6156 C   0  0  2  0  0  0  0  0  0  0  0  0
   -2.1157   35.5892   -2.1125 O   0  0  0  0  0  0  0  0  0  0  0  0
    3.6321   37.9757    1.0607 C   0  0  1  0  0  0  0  0  0  0  0  0
    3.4548   36.6956    1.5947 O   0  0  0  0  0  0  0  0  0  0  0  0
   -2.6464   37.9380   -2.3905 C   0  0  1  0  0  0  0  0  0  0  0  0
   -4.0495   37.6817   -2.2161 O   0  0  0  0  0  0  0  0  0  0  0  0
    2.5824   38.9013    1.7070 C   0  0  0  0  0  0  0  0  0  0  0  0
    1.2833   38.3681    1.4767 O   0  0  0  0  0  0  0  0  0  0  0  0
   -3.0862   42.5224   -1.9331 N   0  0  0  0  0  0  0  0  0  0  0  0
    2.3718   40.3439   -2.6632 N   0  0  0  0  0  0  0  0  0  0  0  0
  1  2  1  0  0  0  0
  1 39  1  0  0  0  0
  3  4  1  0  0  0  0
  5  6  1  0  0  0  0
  5 40  1  0  0  0  0
  9 10  1  6  0  0  0
  9 14  1  0  0  0  0
  9 35  1  0  0  0  0
 10  1  1  0  0  0  0
 11 16  1  0  0  0  0
 11 28  1  0  0  0  0
 11 26  1  1  0  0  0
 12 17  1  0  0  0  0
 12 34  1  0  0  0  0
 12 13  1  6  0  0  0
 14 15  1  1  0  0  0
 14 19  1  0  0  0  0
 16 13  1  6  0  0  0
 16 21  1  0  0  0  0
 17 18  1  6  0  0  0
 17 23  1  0  0  0  0
 18  8  1  0  0  0  0
 19 20  1  6  0  0  0
 19 25  1  0  0  0  0
 20  5  1  0  0  0  0
 21  3  1  1  0  0  0
 21 22  1  0  0  0  0
 21 27  1  0  0  0  0
 23 24  1  1  0  0  0
 23 29  1  0  0  0  0
 25 26  1  1  0  0  0
 25 31  1  0  0  0  0
 27  7  1  6  0  0  0
 27 28  1  0  0  0  0
 29 30  1  6  0  0  0
 29 33  1  0  0  0  0
 31 32  1  6  0  0  0
 31 35  1  0  0  0  0
 33 34  1  0  0  0  0
 33 37  1  1  0  0  0
 35 36  1  1  0  0  0
 37 38  1  0  0  0  0
M  END
>  <CHROM.1>
-98.73971544,-72.08637652,167.08060530,163.91102635,143.94729912,-78.29108728
-37.59827693,-61.15925812,57.28965710,-81.50378369,-174.47122304,1.50083964
37.28092092,-0.89955743,-2.74130053,0.39362136,-2.94347245

>  <Name>
1nta_lig

>  <RI>
0

>  <Rbt.Current_Directory>
/home/itssahil/PROJECTS/Mol_Feturizer/New_Systems/rnas/1nta

>  <Rbt.Executable>
rbdock ($Id: //depot/dev/client3/rdock/2013.1/src/exe/rbdock.cxx#4 $)

>  <Rbt.Library>
libRbt.so (2013.1, Build901 2013/11/27)

>  <Rbt.Parameter_File>
/export/apps/rDock/src/rDock_2013.1_src/data/scripts/dock_solv.prm

>  <Rbt.Receptor>
prm/pocket_docking_4.prm

>  <SCORE>
-20.2776

>  <SCORE.INTER>
-2.17129

>  <SCORE.INTER.CONST>
1

>  <SCORE.INTER.POLAR>
-0.434872

>  <SCORE.INTER.ROT>
11

>  <SCORE.INTER.SOLV>
13.2609

>  <SCORE.INTER.VDW>
-15.3516

>  <SCORE.INTER.norm>
-0.0542823

>  <SCORE.INTRA>
-18.1064

>  <SCORE.INTRA.DIHEDRAL>
-6.9112

>  <SCORE.INTRA.DIHEDRAL.0>
19.0336

>  <SCORE.INTRA.POLAR>
0

>  <SCORE.INTRA.POLAR.0>
0

>  <SCORE.INTRA.REPUL>
0

>  <SCORE.INTRA.REPUL.0>
0

>  <SCORE.INTRA.SOLV>
0.805718

>  <SCORE.INTRA.SOLV.lig_0>
-97.5861

>  <SCORE.INTRA.VDW>
-15.0536

>  <SCORE.INTRA.VDW.0>
11.7669

>  <SCORE.INTRA.norm>
-0.452659

>  <SCORE.RESTR>
0

>  <SCORE.RESTR.CAVITY>
0

>  <SCORE.RESTR.norm>
0

>  <SCORE.SYSTEM>
0

>  <SCORE.SYSTEM.CONST>
0

>  <SCORE.SYSTEM.DIHEDRAL>
0

>  <SCORE.SYSTEM.SOLV>
0

>  <SCORE.SYSTEM.norm>
0

>  <SCORE.heavy>
40

>  <SCORE.norm>
-0.506941

>  <RMSD>
7.621

$$$$
1nta_lig
 OpenBabel11021811403D
libRbt.so/2013.1/901 2013/11/27
 40 42  0  0  0  0  0  0  0  0999 V2000
   -1.1282   44.1040   -0.1919 C   0  0  0  0  0  0  0  0  0  0  0  0
   -1.4252   44.4571   -1.3865 N   0  0  0  0  0  0  0  0  0  0  0  0
    2.6230   35.7350   -0.8152 C   0  0  0  0  0  0  0  0  0  0  0  0
    1.6351   35.2444   -1.3160 O   0  0  0  0  0  0  0  0  0  0  0  0
    2.9761   40.2823   -2.5249 C   0  0  0  0  0  0  0  0  0  0  0  0
    4.2011   40.6492   -2.2518 N   0  0  0  0  0  0  0  0  0  0  0  0
    5.3055   35.5962    1.1460 C   0  0  0  0  0  0  0  0  0  0  0  0
   -0.3852   32.6974    2.7670 C   0  0  0  0  0  0  0  0  0  0  0  0
    0.0374   42.1219    0.3677 C   0  0  2  0  0  0  0  0  0  0  0  0
   -1.2790   42.8157    0.0766 N   0  0  0  0  0  0  0  0  0  0  0  0
    2.6522   37.9078    1.8580 C   0  0  2  0  0  0  0  0  0  0  0  0
   -0.0825   35.6200    1.3353 C   0  0  1  0  0  0  0  0  0  0  0  0
    0.8495   36.4162    1.9794 O   0  0  0  0  0  0  0  0  0  0  0  0
    0.4515   41.2485   -0.8318 C   0  0  1  0  0  0  0  0  0  0  0  0
    0.6577   42.1062   -1.9133 O   0  0  0  0  0  0  0  0  0  0  0  0
    1.7967   36.8522    1.1659 C   0  0  2  0  0  0  0  0  0  0  0  0
   -1.0228   34.8590    2.2440 C   0  0  1  0  0  0  0  0  0  0  0  0
   -0.2502   34.0906    3.1577 N   0  0  0  0  0  0  0  0  0  0  0  0
    1.7689   40.5019   -0.5832 C   0  0  2  0  0  0  0  0  0  0  0  0
    2.1960   39.6468   -1.7166 N   0  0  0  0  0  0  0  0  0  0  0  0
    2.8285   35.9399    0.6617 C   0  0  1  0  0  0  0  0  0  0  0  0
    2.7102   34.7196    1.3959 O   0  0  0  0  0  0  0  0  0  0  0  0
   -1.8367   35.7257    2.9598 C   0  0  2  0  0  0  0  0  0  0  0  0
   -2.8629   34.9625    3.5424 O   0  0  0  0  0  0  0  0  0  0  0  0
    1.5942   39.6373    0.6552 C   0  0  1  0  0  0  0  0  0  0  0  0
    2.8160   38.9522    0.8824 O   0  0  0  0  0  0  0  0  0  0  0  0
    4.1475   36.5224    0.9384 C   0  0  1  0  0  0  0  0  0  0  0  0
    3.9279   37.3498    2.0742 O   0  0  0  0  0  0  0  0  0  0  0  0
   -2.4372   36.7586    2.0428 C   0  0  1  0  0  0  0  0  0  0  0  0
   -3.0492   37.7498    2.8144 O   0  0  0  0  0  0  0  0  0  0  0  0
    1.2195   40.5212    1.8788 C   0  0  2  0  0  0  0  0  0  0  0  0
    1.0703   39.6943    3.0317 O   0  0  0  0  0  0  0  0  0  0  0  0
   -1.3628   37.3955    1.2288 C   0  0  1  0  0  0  0  0  0  0  0  0
   -0.7602   36.3962    0.4584 O   0  0  0  0  0  0  0  0  0  0  0  0
   -0.1127   41.2456    1.5931 C   0  0  1  0  0  0  0  0  0  0  0  0
   -0.4770   42.0679    2.7138 O   0  0  0  0  0  0  0  0  0  0  0  0
   -1.9413   38.4468    0.2611 C   0  0  0  0  0  0  0  0  0  0  0  0
   -2.4529   39.5422    1.0116 O   0  0  0  0  0  0  0  0  0  0  0  0
   -0.7145   44.9435    0.6949 N   0  0  0  0  0  0  0  0  0  0  0  0
    2.4651   40.5744   -3.6563 N   0  0  0  0  0  0  0  0  0  0  0  0
  1  2  1  0  0  0  0
  1 39  1  0  0  0  0
  3  4  1  0  0  0  0
  5  6  1  0  0  0  0
  5 40  1  0  0  0  0
  9 10  1  6  0  0  0
  9 14  1  0  0  0  0
  9 35  1  0  0  0  0
 10  1  1  0  0  0  0
 11 16  1  0  0  0  0
 11 28  1  0  0  0  0
 11 26  1  6  0  0  0
 12 17  1  0  0  0  0
 12 34  1  0  0  0  0
 12 13  1  1  0  0  0
 14 15  1  6  0  0  0
 14 19  1  0  0  0  0
 16 13  1  1  0  0  0
 16 21  1  0  0  0  0
 17 18  1  1  0  0  0
 17 23  1  0  0  0  0
 18  8  1  0  0  0  0
 19 20  1  6  0  0  0
 19 25  1  0  0  0  0
 20  5  1  0  0  0  0
 21  3  1  6  0  0  0
 21 22  1  0  0  0  0
 21 27  1  0  0  0  0
 23 24  1  6  0  0  0
 23 29  1  0  0  0  0
 25 26  1  1  0  0  0
 25 31  1  0  0  0  0
 27  7  1  1  0  0  0
 27 28  1  0  0  0  0
 29 30  1  1  0  0  0
 29 33  1  0  0  0  0
 31 32  1  1  0  0  0
 31 35  1  0  0  0  0
 33 34  1  0  0  0  0
 33 37  1  6  0  0  0
 35 36  1  1  0  0  0
 37 38  1  0  0  0  0
M  END
>  <CHROM.1>
-105.43977725,114.14380402,69.54347195,167.89981990,170.23289339,-108.29418794
91.94525656,69.77805582,-61.81574807,-167.82392915,67.42628786,0.64741837
38.51178019,0.77162417,1.61803022,0.44627940,-0.33592681

>  <Name>
1nta_lig

>  <RI>
0

>  <Rbt.Current_Directory>
/home/itssahil/PROJECTS/Mol_Feturizer/New_Systems/rnas/1nta

>  <Rbt.Executable>
rbdock ($Id: //depot/dev/client3/rdock/2013.1/src/exe/rbdock.cxx#4 $)

>  <Rbt.Library>
libRbt.so (2013.1, Build901 2013/11/27)

>  <Rbt.Parameter_File>
/export/apps/rDock/src/rDock_2013.1_src/data/scripts/dock_solv.prm

>  <Rbt.Receptor>
prm/pocket_docking_6.prm

>  <SCORE>
-19.3556

>  <SCORE.INTER>
5.84426

>  <SCORE.INTER.CONST>
1

>  <SCORE.INTER.POLAR>
0

>  <SCORE.INTER.ROT>
11

>  <SCORE.INTER.SOLV>
10.5002

>  <SCORE.INTER.VDW>
-10.5372

>  <SCORE.INTER.norm>
0.146106

>  <SCORE.INTRA>
-25.1998

>  <SCORE.INTRA.DIHEDRAL>
-12.3309

>  <SCORE.INTRA.DIHEDRAL.0>
19.0336

>  <SCORE.INTRA.POLAR>
0

>  <SCORE.INTRA.POLAR.0>
0

>  <SCORE.INTRA.REPUL>
0

>  <SCORE.INTRA.REPUL.0>
0

>  <SCORE.INTRA.SOLV>
-3.0876

>  <SCORE.INTRA.SOLV.lig_0>
-97.5861

>  <SCORE.INTRA.VDW>
-17.4906

>  <SCORE.INTRA.VDW.0>
11.7669

>  <SCORE.INTRA.norm>
-0.629996

>  <SCORE.RESTR>
0

>  <SCORE.RESTR.CAVITY>
0

>  <SCORE.RESTR.norm>
0

>  <SCORE.SYSTEM>
0

>  <SCORE.SYSTEM.CONST>
0

>  <SCORE.SYSTEM.DIHEDRAL>
0

>  <SCORE.SYSTEM.SOLV>
0

>  <SCORE.SYSTEM.norm>
0

>  <SCORE.heavy>
40

>  <SCORE.norm>
-0.483889

>  <RMSD>
7.624

$$$$
1nta_lig
 OpenBabel11021811403D
libRbt.so/2013.1/901 2013/11/27
 40 42  0  0  0  0  0  0  0  0999 V2000
   -2.7243   36.7378    4.3445 C   0  0  0  0  0  0  0  0  0  0  0  0
   -2.3838   37.4945    5.3200 N   0  0  0  0  0  0  0  0  0  0  0  0
   -0.6303   38.3636   -4.6169 C   0  0  0  0  0  0  0  0  0  0  0  0
   -1.2878   37.4585   -5.0814 O   0  0  0  0  0  0  0  0  0  0  0  0
   -2.9532   37.2675   -1.7616 C   0  0  0  0  0  0  0  0  0  0  0  0
   -4.0053   36.4935   -1.6993 N   0  0  0  0  0  0  0  0  0  0  0  0
    1.9730   40.4329   -4.5660 C   0  0  0  0  0  0  0  0  0  0  0  0
   -1.6258   33.6040   -3.4021 C   0  0  0  0  0  0  0  0  0  0  0  0
   -1.3783   37.2334    2.4621 C   0  0  2  0  0  0  0  0  0  0  0  0
   -1.7280   36.2890    3.5957 N   0  0  0  0  0  0  0  0  0  0  0  0
    1.4831   38.0640   -1.9128 C   0  0  2  0  0  0  0  0  0  0  0  0
    0.9384   35.1338   -2.2633 C   0  0  1  0  0  0  0  0  0  0  0  0
    1.3952   36.0836   -3.1616 O   0  0  0  0  0  0  0  0  0  0  0  0
   -1.7633   36.6028    1.1104 C   0  0  1  0  0  0  0  0  0  0  0  0
   -3.1497   36.4418    1.1118 O   0  0  0  0  0  0  0  0  0  0  0  0
    0.8007   37.2553   -3.0109 C   0  0  2  0  0  0  0  0  0  0  0  0
    0.6162   33.7810   -2.8590 C   0  0  1  0  0  0  0  0  0  0  0  0
   -0.3150   33.9604   -3.9187 N   0  0  0  0  0  0  0  0  0  0  0  0
   -1.4097   37.5072   -0.0777 C   0  0  2  0  0  0  0  0  0  0  0  0
   -1.7625   36.9291   -1.3966 N   0  0  0  0  0  0  0  0  0  0  0  0
    0.7794   38.2301   -4.1064 C   0  0  1  0  0  0  0  0  0  0  0  0
    1.6738   37.7540   -5.1142 O   0  0  0  0  0  0  0  0  0  0  0  0
    1.7575   33.1710   -3.3605 C   0  0  2  0  0  0  0  0  0  0  0  0
    1.4426   31.8260   -3.6191 O   0  0  0  0  0  0  0  0  0  0  0  0
    0.0861   37.7769   -0.0358 C   0  0  1  0  0  0  0  0  0  0  0  0
    0.4070   38.6162   -1.1341 O   0  0  0  0  0  0  0  0  0  0  0  0
    1.2860   39.5134   -3.6044 C   0  0  1  0  0  0  0  0  0  0  0  0
    2.1395   39.1495   -2.5264 O   0  0  0  0  0  0  0  0  0  0  0  0
    2.8750   33.2409   -2.3531 C   0  0  1  0  0  0  0  0  0  0  0  0
    4.0650   32.8417   -2.9670 O   0  0  0  0  0  0  0  0  0  0  0  0
    0.4721   38.4545    1.3098 C   0  0  2  0  0  0  0  0  0  0  0  0
    1.8758   38.7087    1.3259 O   0  0  0  0  0  0  0  0  0  0  0  0
    3.0401   34.6450   -1.8802 C   0  0  1  0  0  0  0  0  0  0  0  0
    1.8458   35.0327   -1.2648 O   0  0  0  0  0  0  0  0  0  0  0  0
    0.1099   37.5110    2.4759 C   0  0  1  0  0  0  0  0  0  0  0  0
    0.4602   38.1195    3.7296 O   0  0  0  0  0  0  0  0  0  0  0  0
    4.1638   34.7545   -0.8306 C   0  0  0  0  0  0  0  0  0  0  0  0
    3.8369   33.9422    0.2912 O   0  0  0  0  0  0  0  0  0  0  0  0
   -3.9534   36.4345    4.1006 N   0  0  0  0  0  0  0  0  0  0  0  0
   -3.0622   38.4471   -2.2339 N   0  0  0  0  0  0  0  0  0  0  0  0
  1  2  1  0  0  0  0
  1 39  1  0  0  0  0
  3  4  1  0  0  0  0
  5  6  1  0  0  0  0
  5 40  1  0  0  0  0
  9 10  1  1  0  0  0
  9 14  1  0  0  0  0
  9 35  1  0  0  0  0
 10  1  1  0  0  0  0
 11 16  1  0  0  0  0
 11 28  1  0  0  0  0
 11 26  1  1  0  0  0
 12 17  1  0  0  0  0
 12 34  1  0  0  0  0
 12 13  1  6  0  0  0
 14 15  1  1  0  0  0
 14 19  1  0  0  0  0
 16 13  1  6  0  0  0
 16 21  1  0  0  0  0
 17 18  1  6  0  0  0
 17 23  1  0  0  0  0
 18  8  1  0  0  0  0
 19 20  1  6  0  0  0
 19 25  1  0  0  0  0
 20  5  1  0  0  0  0
 21  3  1  6  0  0  0
 21 22  1  0  0  0  0
 21 27  1  0  0  0  0
 23 24  1  1  0  0  0
 23 29  1  0  0  0  0
 25 26  1  6  0  0  0
 25 31  1  0  0  0  0
 27  7  1  6  0  0  0
 27 28  1  0  0  0  0
 29 30  1  6  0  0  0
 29 33  1  0  0  0  0
 31 32  1  6  0  0  0
 31 35  1  0  0  0  0
 33 34  1  0  0  0  0
 33 37  1  1  0  0  0
 35 36  1  1  0  0  0
 37 38  1  0  0  0  0
M  END
>  <CHROM.1>
-111.27781670,-88.22838613,93.12597229,133.72445758,83.95876642,-101.28062145
90.79923349,-102.77028600,-59.90855397,-127.65642130,-60.55016293,0.17674740
36.52099779,-1.11867651,-2.39852964,0.86839660,-1.15086486

>  <Name>
1nta_lig

>  <RI>
0

>  <Rbt.Current_Directory>
/home/itssahil/PROJECTS/Mol_Feturizer/New_Systems/rnas/1nta

>  <Rbt.Executable>
rbdock ($Id: //depot/dev/client3/rdock/2013.1/src/exe/rbdock.cxx#4 $)

>  <Rbt.Library>
libRbt.so (2013.1, Build901 2013/11/27)

>  <Rbt.Parameter_File>
/export/apps/rDock/src/rDock_2013.1_src/data/scripts/dock_solv.prm

>  <Rbt.Receptor>
prm/pocket_docking_4.prm

>  <SCORE>
-16.5584

>  <SCORE.INTER>
1.45861

>  <SCORE.INTER.CONST>
1

>  <SCORE.INTER.POLAR>
-0.49258

>  <SCORE.INTER.ROT>
11

>  <SCORE.INTER.SOLV>
9.45581

>  <SCORE.INTER.VDW>
-11.4709

>  <SCORE.INTER.norm>
0.0364652

>  <SCORE.INTRA>
-18.0248

>  <SCORE.INTRA.DIHEDRAL>
4.57625

>  <SCORE.INTRA.DIHEDRAL.0>
19.0336

>  <SCORE.INTRA.POLAR>
0

>  <SCORE.INTRA.POLAR.0>
0

>  <SCORE.INTRA.REPUL>
0

>  <SCORE.INTRA.REPUL.0>
0

>  <SCORE.INTRA.SOLV>
-1.12285

>  <SCORE.INTRA.SOLV.lig_0>
-97.5861

>  <SCORE.INTRA.VDW>
-19.7515

>  <SCORE.INTRA.VDW.0>
11.7669

>  <SCORE.INTRA.norm>
-0.450621

>  <SCORE.RESTR>
0.0078192

>  <SCORE.RESTR.CAVITY>
0.0078192

>  <SCORE.RESTR.norm>
0.00019548

>  <SCORE.SYSTEM>
0

>  <SCORE.SYSTEM.CONST>
0

>  <SCORE.SYSTEM.DIHEDRAL>
0

>  <SCORE.SYSTEM.SOLV>
0

>  <SCORE.SYSTEM.norm>
0

>  <SCORE.heavy>
40

>  <SCORE.norm>
-0.41396

>  <RMSD>
7.654

$$$$
1nta_lig
 OpenBabel11021811403D
libRbt.so/2013.1/901 2013/11/27
 40 42  0  0  0  0  0  0  0  0999 V2000
   -1.3603   36.8103   -8.1293 C   0  0  0  0  0  0  0  0  0  0  0  0
   -2.4009   36.0648   -8.1677 N   0  0  0  0  0  0  0  0  0  0  0  0
    3.8472   38.9287   -0.7660 C   0  0  0  0  0  0  0  0  0  0  0  0
    4.6541   39.6927   -0.2838 O   0  0  0  0  0  0  0  0  0  0  0  0
    1.8481   40.9380   -4.1555 C   0  0  0  0  0  0  0  0  0  0  0  0
    1.7786   41.6188   -3.0413 N   0  0  0  0  0  0  0  0  0  0  0  0
    1.8562   40.1995    1.5756 C   0  0  0  0  0  0  0  0  0  0  0  0
    5.2136   35.4307    1.2256 C   0  0  0  0  0  0  0  0  0  0  0  0
   -0.5343   37.3251   -5.9722 C   0  0  2  0  0  0  0  0  0  0  0  0
   -0.4516   36.4758   -7.2255 N   0  0  0  0  0  0  0  0  0  0  0  0
    0.5320   38.0083   -0.9416 C   0  0  2  0  0  0  0  0  0  0  0  0
    3.0624   35.4853   -1.0500 C   0  0  1  0  0  0  0  0  0  0  0  0
    1.9261   36.1523   -0.6240 O   0  0  0  0  0  0  0  0  0  0  0  0
    0.7941   38.0732   -5.7515 C   0  0  1  0  0  0  0  0  0  0  0  0
    0.9648   38.9366   -6.8348 O   0  0  0  0  0  0  0  0  0  0  0  0
    1.9468   37.4394   -0.9271 C   0  0  2  0  0  0  0  0  0  0  0  0
    3.5948   34.4384   -0.0964 C   0  0  1  0  0  0  0  0  0  0  0  0
    3.8132   35.0459    1.1707 N   0  0  0  0  0  0  0  0  0  0  0  0
    0.7760   38.9330   -4.4806 C   0  0  2  0  0  0  0  0  0  0  0  0
    2.0418   39.6644   -4.2340 N   0  0  0  0  0  0  0  0  0  0  0  0
    2.6286   38.4025   -0.0562 C   0  0  1  0  0  0  0  0  0  0  0  0
    2.9636   37.7174    1.1523 O   0  0  0  0  0  0  0  0  0  0  0  0
    2.6929   33.3944    0.0540 C   0  0  2  0  0  0  0  0  0  0  0  0
    3.3638   32.3420    0.7002 O   0  0  0  0  0  0  0  0  0  0  0  0
    0.4891   38.0206   -3.2985 C   0  0  1  0  0  0  0  0  0  0  0  0
    0.4699   38.8210   -2.1269 O   0  0  0  0  0  0  0  0  0  0  0  0
    1.6938   39.4871    0.2686 C   0  0  1  0  0  0  0  0  0  0  0  0
    0.4114   38.8822    0.1572 O   0  0  0  0  0  0  0  0  0  0  0  0
    2.2029   32.9271   -1.2914 C   0  0  1  0  0  0  0  0  0  0  0  0
    1.1294   32.0523   -1.1047 O   0  0  0  0  0  0  0  0  0  0  0  0
   -0.8732   37.2970   -3.4968 C   0  0  2  0  0  0  0  0  0  0  0  0
   -1.1293   36.4548   -2.3742 O   0  0  0  0  0  0  0  0  0  0  0  0
    1.7235   34.0937   -2.0862 C   0  0  1  0  0  0  0  0  0  0  0  0
    2.8057   34.9600   -2.2701 O   0  0  0  0  0  0  0  0  0  0  0  0
   -0.8103   36.4378   -4.7770 C   0  0  1  0  0  0  0  0  0  0  0  0
   -2.0611   35.7594   -4.9775 O   0  0  0  0  0  0  0  0  0  0  0  0
    1.2314   33.6578   -3.4805 C   0  0  0  0  0  0  0  0  0  0  0  0
    0.0588   32.8646   -3.3360 O   0  0  0  0  0  0  0  0  0  0  0  0
   -1.2053   37.8226   -8.9125 N   0  0  0  0  0  0  0  0  0  0  0  0
    1.6956   41.5344   -5.2724 N   0  0  0  0  0  0  0  0  0  0  0  0
  1  2  1  0  0  0  0
  1 39  1  0  0  0  0
  3  4  1  0  0  0  0
  5  6  1  0  0  0  0
  5 40  1  0  0  0  0
  9 10  1  6  0  0  0
  9 14  1  0  0  0  0
  9 35  1  0  0  0  0
 10  1  1  0  0  0  0
 11 16  1  0  0  0  0
 11 28  1  0  0  0  0
 11 26  1  6  0  0  0
 12 17  1  0  0  0  0
 12 34  1  0  0  0  0
 12 13  1  1  0  0  0
 14 15  1  6  0  0  0
 14 19  1  0  0  0  0
 16 13  1  1  0  0  0
 16 21  1  0  0  0  0
 17 18  1  1  0  0  0
 17 23  1  0  0  0  0
 18  8  1  0  0  0  0
 19 20  1  1  0  0  0
 19 25  1  0  0  0  0
 20  5  1  0  0  0  0
 21  3  1  6  0  0  0
 21 22  1  0  0  0  0
 21 27  1  0  0  0  0
 23 24  1  6  0  0  0
 23 29  1  0  0  0  0
 25 26  1  1  0  0  0
 25 31  1  0  0  0  0
 27  7  1  1  0  0  0
 27 28  1  0  0  0  0
 29 30  1  1  0  0  0
 29 33  1  0  0  0  0
 31 32  1  1  0  0  0
 31 35  1  0  0  0  0
 33 34  1  0  0  0  0
 33 37  1  6  0  0  0
 35 36  1  6  0  0  0
 37 38  1  0  0  0  0
M  END
>  <CHROM.1>
-120.08401066,-99.72009669,69.97321691,140.93159688,158.30213034,-95.41289386
122.43413777,100.71946098,-176.30056244,-165.86745135,66.91439359,1.34270859
36.93542407,-2.58453168,2.73001659,-1.05228359,-0.17458294

>  <Name>
1nta_lig

>  <RI>
0

>  <Rbt.Current_Directory>
/home/itssahil/PROJECTS/Mol_Feturizer/New_Systems/rnas/1nta

>  <Rbt.Executable>
rbdock ($Id: //depot/dev/client3/rdock/2013.1/src/exe/rbdock.cxx#4 $)

>  <Rbt.Library>
libRbt.so (2013.1, Build901 2013/11/27)

>  <Rbt.Parameter_File>
/export/apps/rDock/src/rDock_2013.1_src/data/scripts/dock_solv.prm

>  <Rbt.Receptor>
prm/pocket_docking_6.prm

>  <SCORE>
-23.3208

>  <SCORE.INTER>
-0.933443

>  <SCORE.INTER.CONST>
1

>  <SCORE.INTER.POLAR>
-0.180233

>  <SCORE.INTER.ROT>
11

>  <SCORE.INTER.SOLV>
10.2755

>  <SCORE.INTER.VDW>
-14.38

>  <SCORE.INTER.norm>
-0.0233361

>  <SCORE.INTRA>
-22.3873

>  <SCORE.INTRA.DIHEDRAL>
-5.83618

>  <SCORE.INTRA.DIHEDRAL.0>
19.0336

>  <SCORE.INTRA.POLAR>
0

>  <SCORE.INTRA.POLAR.0>
0

>  <SCORE.INTRA.REPUL>
0

>  <SCORE.INTRA.REPUL.0>
0

>  <SCORE.INTRA.SOLV>
-2.84112

>  <SCORE.INTRA.SOLV.lig_0>
-97.5861

>  <SCORE.INTRA.VDW>
-18.0487

>  <SCORE.INTRA.VDW.0>
11.7669

>  <SCORE.INTRA.norm>
-0.559683

>  <SCORE.RESTR>
0

>  <SCORE.RESTR.CAVITY>
0

>  <SCORE.RESTR.norm>
0

>  <SCORE.SYSTEM>
0

>  <SCORE.SYSTEM.CONST>
0

>  <SCORE.SYSTEM.DIHEDRAL>
0

>  <SCORE.SYSTEM.SOLV>
0

>  <SCORE.SYSTEM.norm>
0

>  <SCORE.heavy>
40

>  <SCORE.norm>
-0.583019

>  <RMSD>
7.661

$$$$
1nta_lig
 OpenBabel11021811403D
libRbt.so/2013.1/901 2013/11/27
 40 42  0  0  0  0  0  0  0  0999 V2000
   -1.4825   31.3855   -7.8878 C   0  0  0  0  0  0  0  0  0  0  0  0
   -2.1277   30.2794   -7.9074 N   0  0  0  0  0  0  0  0  0  0  0  0
    0.4862   35.5561    1.0149 C   0  0  0  0  0  0  0  0  0  0  0  0
    1.1352   36.5379    1.3017 O   0  0  0  0  0  0  0  0  0  0  0  0
    0.1120   36.3500   -4.2761 C   0  0  0  0  0  0  0  0  0  0  0  0
   -0.3801   36.7820   -3.1443 N   0  0  0  0  0  0  0  0  0  0  0  0
   -0.7118   32.5065    1.5856 C   0  0  0  0  0  0  0  0  0  0  0  0
    4.8830   37.0355    1.9111 C   0  0  0  0  0  0  0  0  0  0  0  0
   -0.4812   32.0258   -5.8413 C   0  0  2  0  0  0  0  0  0  0  0  0
   -0.3485   31.3727   -7.2032 N   0  0  0  0  0  0  0  0  0  0  0  0
    1.5103   33.0988   -1.1716 C   0  0  2  0  0  0  0  0  0  0  0  0
    4.0961   35.0968   -0.4770 C   0  0  1  0  0  0  0  0  0  0  0  0
    3.3225   34.0413   -0.0242 O   0  0  0  0  0  0  0  0  0  0  0  0
    0.2786   33.3656   -5.8209 C   0  0  1  0  0  0  0  0  0  0  0  0
   -0.3390   34.2028   -6.7513 O   0  0  0  0  0  0  0  0  0  0  0  0
    2.0342   34.2113   -0.2699 C   0  0  2  0  0  0  0  0  0  0  0  0
    5.3316   35.3934    0.3443 C   0  0  1  0  0  0  0  0  0  0  0  0
    4.9409   35.5994    1.6960 N   0  0  0  0  0  0  0  0  0  0  0  0
    0.1982   34.0618   -4.4558 C   0  0  2  0  0  0  0  0  0  0  0  0
    0.9233   35.3537   -4.3984 N   0  0  0  0  0  0  0  0  0  0  0  0
    1.0534   34.1756    0.8200 C   0  0  1  0  0  0  0  0  0  0  0  0
    1.7323   33.7033    1.9853 O   0  0  0  0  0  0  0  0  0  0  0  0
    6.2321   34.3387    0.2912 C   0  0  2  0  0  0  0  0  0  0  0  0
    7.4535   34.7951    0.8157 O   0  0  0  0  0  0  0  0  0  0  0  0
    0.7754   33.1195   -3.4115 C   0  0  1  0  0  0  0  0  0  0  0  0
    0.6953   33.7666   -2.1511 O   0  0  0  0  0  0  0  0  0  0  0  0
    0.0002   33.2130    0.4739 C   0  0  1  0  0  0  0  0  0  0  0  0
    0.6450   32.2962   -0.4018 O   0  0  0  0  0  0  0  0  0  0  0  0
    6.4325   33.8917   -1.1331 C   0  0  1  0  0  0  0  0  0  0  0  0
    7.1454   32.6899   -1.1355 O   0  0  0  0  0  0  0  0  0  0  0  0
   -0.0177   31.7817   -3.3982 C   0  0  2  0  0  0  0  0  0  0  0  0
    0.5315   30.9160   -2.4062 O   0  0  0  0  0  0  0  0  0  0  0  0
    5.1094   33.6526   -1.7771 C   0  0  1  0  0  0  0  0  0  0  0  0
    4.4065   34.8614   -1.7727 O   0  0  0  0  0  0  0  0  0  0  0  0
    0.0960   31.1101   -4.7828 C   0  0  1  0  0  0  0  0  0  0  0  0
   -0.6304   29.8704   -4.7906 O   0  0  0  0  0  0  0  0  0  0  0  0
    5.2722   33.2119   -3.2453 C   0  0  0  0  0  0  0  0  0  0  0  0
    4.0139   32.7731   -3.7444 O   0  0  0  0  0  0  0  0  0  0  0  0
   -1.9068   32.4445   -8.4882 N   0  0  0  0  0  0  0  0  0  0  0  0
   -0.2269   36.9124   -5.3694 N   0  0  0  0  0  0  0  0  0  0  0  0
  1  2  1  0  0  0  0
  1 39  1  0  0  0  0
  3  4  1  0  0  0  0
  5  6  1  0  0  0  0
  5 40  1  0  0  0  0
  9 10  1  6  0  0  0
  9 14  1  0  0  0  0
  9 35  1  0  0  0  0
 10  1  1  0  0  0  0
 11 16  1  0  0  0  0
 11 28  1  0  0  0  0
 11 26  1  6  0  0  0
 12 17  1  0  0  0  0
 12 34  1  0  0  0  0
 12 13  1  1  0  0  0
 14 15  1  6  0  0  0
 14 19  1  0  0  0  0
 16 13  1  1  0  0  0
 16 21  1  0  0  0  0
 17 18  1  1  0  0  0
 17 23  1  0  0  0  0
 18  8  1  0  0  0  0
 19 20  1  6  0  0  0
 19 25  1  0  0  0  0
 20  5  1  0  0  0  0
 21  3  1  1  0  0  0
 21 22  1  0  0  0  0
 21 27  1  0  0  0  0
 23 24  1  6  0  0  0
 23 29  1  0  0  0  0
 25 26  1  1  0  0  0
 25 31  1  0  0  0  0
 27  7  1  1  0  0  0
 27 28  1  0  0  0  0
 29 30  1  1  0  0  0
 29 33  1  0  0  0  0
 31 32  1  1  0  0  0
 31 35  1  0  0  0  0
 33 34  1  0  0  0  0
 33 37  1  6  0  0  0
 35 36  1  1  0  0  0
 37 38  1  0  0  0  0
M  END
>  <CHROM.1>
-109.44006340,-102.18738709,145.81102820,147.86669757,119.03983603,-99.35612163
111.99654574,84.40128471,-59.92739818,-165.60342511,169.92198153,1.83587230
33.68838290,-2.33824465,-2.20384436,0.00238676,1.21846525

>  <Name>
1nta_lig

>  <RI>
0

>  <Rbt.Current_Directory>
/home/itssahil/PROJECTS/Mol_Feturizer/New_Systems/rnas/1nta

>  <Rbt.Executable>
rbdock ($Id: //depot/dev/client3/rdock/2013.1/src/exe/rbdock.cxx#4 $)

>  <Rbt.Library>
libRbt.so (2013.1, Build901 2013/11/27)

>  <Rbt.Parameter_File>
/export/apps/rDock/src/rDock_2013.1_src/data/scripts/dock_solv.prm

>  <Rbt.Receptor>
prm/pocket_docking_6.prm

>  <SCORE>
-27.6668

>  <SCORE.INTER>
-9.12295

>  <SCORE.INTER.CONST>
1

>  <SCORE.INTER.POLAR>
0

>  <SCORE.INTER.ROT>
11

>  <SCORE.INTER.SOLV>
16.6527

>  <SCORE.INTER.VDW>
-22.5662

>  <SCORE.INTER.norm>
-0.228074

>  <SCORE.INTRA>
-18.5438

>  <SCORE.INTRA.DIHEDRAL>
2.10804

>  <SCORE.INTRA.DIHEDRAL.0>
19.0336

>  <SCORE.INTRA.POLAR>
0

>  <SCORE.INTRA.POLAR.0>
0

>  <SCORE.INTRA.REPUL>
0.0294554

>  <SCORE.INTRA.REPUL.0>
0

>  <SCORE.INTRA.SOLV>
-4.36478

>  <SCORE.INTRA.SOLV.lig_0>
-97.5861

>  <SCORE.INTRA.VDW>
-17.5627

>  <SCORE.INTRA.VDW.0>
11.7669

>  <SCORE.INTRA.norm>
-0.463595

>  <SCORE.RESTR>
0

>  <SCORE.RESTR.CAVITY>
0

>  <SCORE.RESTR.norm>
0

>  <SCORE.SYSTEM>
0

>  <SCORE.SYSTEM.CONST>
0

>  <SCORE.SYSTEM.DIHEDRAL>
0

>  <SCORE.SYSTEM.SOLV>
0

>  <SCORE.SYSTEM.norm>
0

>  <SCORE.heavy>
40

>  <SCORE.norm>
-0.691669

>  <RMSD>
7.669

$$$$
1nta_lig
 OpenBabel11021811403D
libRbt.so/2013.1/901 2013/11/27
 40 42  0  0  0  0  0  0  0  0999 V2000
   -4.0175   37.2121    2.3018 C   0  0  0  0  0  0  0  0  0  0  0  0
   -4.7165   36.5551    3.1502 N   0  0  0  0  0  0  0  0  0  0  0  0
    0.0728   30.9562   -3.1228 C   0  0  0  0  0  0  0  0  0  0  0  0
   -1.0378   30.7276   -2.6967 O   0  0  0  0  0  0  0  0  0  0  0  0
   -3.1282   31.7614   -0.5358 C   0  0  0  0  0  0  0  0  0  0  0  0
   -3.0609   30.8325    0.3821 N   0  0  0  0  0  0  0  0  0  0  0  0
   -0.4055   31.8447   -6.2919 C   0  0  0  0  0  0  0  0  0  0  0  0
    5.7205   33.1257   -3.4104 C   0  0  0  0  0  0  0  0  0  0  0  0
   -2.9411   36.0698    0.5305 C   0  0  2  0  0  0  0  0  0  0  0  0
   -2.8806   36.6402    1.9341 N   0  0  0  0  0  0  0  0  0  0  0  0
   -0.3583   34.3256   -3.6970 C   0  0  2  0  0  0  0  0  0  0  0  0
    2.6068   33.0044   -2.1155 C   0  0  1  0  0  0  0  0  0  0  0  0
    1.7385   33.8733   -2.7549 O   0  0  0  0  0  0  0  0  0  0  0  0
   -2.5288   34.5856    0.5445 C   0  0  1  0  0  0  0  0  0  0  0  0
   -3.4708   33.9044    1.3168 O   0  0  0  0  0  0  0  0  0  0  0  0
    0.5634   33.3231   -3.0110 C   0  0  2  0  0  0  0  0  0  0  0  0
    4.0101   33.5290   -1.9055 C   0  0  1  0  0  0  0  0  0  0  0  0
    4.5378   33.9332   -3.1626 N   0  0  0  0  0  0  0  0  0  0  0  0
   -2.5491   33.9607   -0.8569 C   0  0  2  0  0  0  0  0  0  0  0  0
   -2.1526   32.5323   -0.8817 N   0  0  0  0  0  0  0  0  0  0  0  0
    0.4561   32.1755   -3.9178 C   0  0  1  0  0  0  0  0  0  0  0  0
    1.7237   32.0229   -4.5596 O   0  0  0  0  0  0  0  0  0  0  0  0
    4.0133   34.6174   -1.0445 C   0  0  2  0  0  0  0  0  0  0  0  0
    5.3455   34.8579   -0.6672 O   0  0  0  0  0  0  0  0  0  0  0  0
   -1.6022   34.7563   -1.7414 C   0  0  1  0  0  0  0  0  0  0  0  0
   -1.6275   34.1766   -3.0364 O   0  0  0  0  0  0  0  0  0  0  0  0
   -0.5502   32.4786   -4.9432 C   0  0  1  0  0  0  0  0  0  0  0  0
   -0.5401   33.8983   -5.0274 O   0  0  0  0  0  0  0  0  0  0  0  0
    3.1899   34.3189    0.1809 C   0  0  1  0  0  0  0  0  0  0  0  0
    3.0122   35.4995    0.9069 O   0  0  0  0  0  0  0  0  0  0  0  0
   -2.0414   36.2473   -1.7937 C   0  0  2  0  0  0  0  0  0  0  0  0
   -1.1481   36.9743   -2.6356 O   0  0  0  0  0  0  0  0  0  0  0  0
    1.8479   33.8121   -0.2248 C   0  0  1  0  0  0  0  0  0  0  0  0
    2.0373   32.6297   -0.9468 O   0  0  0  0  0  0  0  0  0  0  0  0
   -1.9983   36.8398   -0.3695 C   0  0  1  0  0  0  0  0  0  0  0  0
   -2.4004   38.2191   -0.3969 O   0  0  0  0  0  0  0  0  0  0  0  0
    0.9807   33.4756    1.0044 C   0  0  0  0  0  0  0  0  0  0  0  0
    0.6694   34.6770    1.7005 O   0  0  0  0  0  0  0  0  0  0  0  0
   -4.3888   38.3561    1.8376 N   0  0  0  0  0  0  0  0  0  0  0  0
   -4.2150   31.9380   -1.1793 N   0  0  0  0  0  0  0  0  0  0  0  0
  1  2  1  0  0  0  0
  1 39  1  0  0  0  0
  3  4  1  0  0  0  0
  5  6  1  0  0  0  0
  5 40  1  0  0  0  0
  9 10  1  1  0  0  0
  9 14  1  0  0  0  0
  9 35  1  0  0  0  0
 10  1  1  0  0  0  0
 11 16  1  0  0  0  0
 11 28  1  0  0  0  0
 11 26  1  1  0  0  0
 12 17  1  0  0  0  0
 12 34  1  0  0  0  0
 12 13  1  1  0  0  0
 14 15  1  1  0  0  0
 14 19  1  0  0  0  0
 16 13  1  6  0  0  0
 16 21  1  0  0  0  0
 17 18  1  6  0  0  0
 17 23  1  0  0  0  0
 18  8  1  0  0  0  0
 19 20  1  1  0  0  0
 19 25  1  0  0  0  0
 20  5  1  0  0  0  0
 21  3  1  1  0  0  0
 21 22  1  0  0  0  0
 21 27  1  0  0  0  0
 23 24  1  1  0  0  0
 23 29  1  0  0  0  0
 25 26  1  6  0  0  0
 25 31  1  0  0  0  0
 27  7  1  6  0  0  0
 27 28  1  0  0  0  0
 29 30  1  6  0  0  0
 29 33  1  0  0  0  0
 31 32  1  6  0  0  0
 31 35  1  0  0  0  0
 33 34  1  0  0  0  0
 33 37  1  1  0  0  0
 35 36  1  6  0  0  0
 37 38  1  0  0  0  0
M  END
>  <CHROM.1>
-126.11823276,106.21461167,74.13840704,174.69438328,179.25303093,-119.38839941
80.48078892,-128.58163062,75.87422147,-148.91052744,67.06993900,-0.24412451
34.11605554,-1.29725145,-2.47969070,-0.06603407,-2.26923653

>  <Name>
1nta_lig

>  <RI>
0

>  <Rbt.Current_Directory>
/home/itssahil/PROJECTS/Mol_Feturizer/New_Systems/rnas/1nta

>  <Rbt.Executable>
rbdock ($Id: //depot/dev/client3/rdock/2013.1/src/exe/rbdock.cxx#4 $)

>  <Rbt.Library>
libRbt.so (2013.1, Build901 2013/11/27)

>  <Rbt.Parameter_File>
/export/apps/rDock/src/rDock_2013.1_src/data/scripts/dock_solv.prm

>  <Rbt.Receptor>
prm/pocket_docking_6.prm

>  <SCORE>
-24.5009

>  <SCORE.INTER>
-2.38132

>  <SCORE.INTER.CONST>
1

>  <SCORE.INTER.POLAR>
-0.504077

>  <SCORE.INTER.ROT>
11

>  <SCORE.INTER.SOLV>
10.8982

>  <SCORE.INTER.VDW>
-14.4734

>  <SCORE.INTER.norm>
-0.0595329

>  <SCORE.INTRA>
-22.1196

>  <SCORE.INTRA.DIHEDRAL>
-9.41844

>  <SCORE.INTRA.DIHEDRAL.0>
19.0336

>  <SCORE.INTRA.POLAR>
0

>  <SCORE.INTRA.POLAR.0>
0

>  <SCORE.INTRA.REPUL>
0.0383237

>  <SCORE.INTRA.REPUL.0>
0

>  <SCORE.INTRA.SOLV>
-1.59403

>  <SCORE.INTRA.SOLV.lig_0>
-97.5861

>  <SCORE.INTRA.VDW>
-16.805

>  <SCORE.INTRA.VDW.0>
11.7669

>  <SCORE.INTRA.norm>
-0.552989

>  <SCORE.RESTR>
0

>  <SCORE.RESTR.CAVITY>
0

>  <SCORE.RESTR.norm>
0

>  <SCORE.SYSTEM>
0

>  <SCORE.SYSTEM.CONST>
0

>  <SCORE.SYSTEM.DIHEDRAL>
0

>  <SCORE.SYSTEM.SOLV>
0

>  <SCORE.SYSTEM.norm>
0

>  <SCORE.heavy>
40

>  <SCORE.norm>
-0.612522

>  <RMSD>
7.674

$$$$
1nta_lig
 OpenBabel11021811403D
libRbt.so/2013.1/901 2013/11/27
 40 42  0  0  0  0  0  0  0  0999 V2000
    1.0032   42.8301   -1.8096 C   0  0  0  0  0  0  0  0  0  0  0  0
    2.0761   43.2180   -1.2277 N   0  0  0  0  0  0  0  0  0  0  0  0
    3.1852   33.3963   -3.0933 C   0  0  0  0  0  0  0  0  0  0  0  0
    3.9617   34.3018   -3.3040 O   0  0  0  0  0  0  0  0  0  0  0  0
    0.2447   38.2969   -6.0819 C   0  0  0  0  0  0  0  0  0  0  0  0
    1.4875   38.6323   -6.3118 N   0  0  0  0  0  0  0  0  0  0  0  0
    1.4052   33.7600   -0.3074 C   0  0  0  0  0  0  0  0  0  0  0  0
    1.3068   32.3979   -8.4846 C   0  0  0  0  0  0  0  0  0  0  0  0
    1.0573   40.4759   -2.0448 C   0  0  2  0  0  0  0  0  0  0  0  0
    0.4847   41.6989   -1.3554 N   0  0  0  0  0  0  0  0  0  0  0  0
    0.3834   35.3855   -3.3413 C   0  0  2  0  0  0  0  0  0  0  0  0
    0.0323   34.1379   -5.9840 C   0  0  1  0  0  0  0  0  0  0  0  0
    0.2487   33.5263   -4.7606 O   0  0  0  0  0  0  0  0  0  0  0  0
    0.0906   39.9842   -3.1388 C   0  0  1  0  0  0  0  0  0  0  0  0
   -0.0027   40.9996   -4.0918 O   0  0  0  0  0  0  0  0  0  0  0  0
    1.0888   34.2019   -3.9944 C   0  0  2  0  0  0  0  0  0  0  0  0
   -0.3677   33.2102   -7.1101 C   0  0  1  0  0  0  0  0  0  0  0  0
    0.6120   32.1860   -7.2258 N   0  0  0  0  0  0  0  0  0  0  0  0
    0.6094   38.7308   -3.8562 C   0  0  2  0  0  0  0  0  0  0  0  0
   -0.2991   38.2264   -4.9136 N   0  0  0  0  0  0  0  0  0  0  0  0
    1.7134   33.5681   -2.8286 C   0  0  1  0  0  0  0  0  0  0  0  0
    1.0541   32.3171   -2.6228 O   0  0  0  0  0  0  0  0  0  0  0  0
   -1.6024   32.6268   -6.8625 C   0  0  2  0  0  0  0  0  0  0  0  0
   -2.0373   32.0275   -8.0570 O   0  0  0  0  0  0  0  0  0  0  0  0
    0.8144   37.6425   -2.8143 C   0  0  1  0  0  0  0  0  0  0  0  0
    1.2974   36.4874   -3.4823 O   0  0  0  0  0  0  0  0  0  0  0  0
    1.4810   34.4148   -1.6519 C   0  0  1  0  0  0  0  0  0  0  0  0
    0.2825   35.1151   -1.9621 O   0  0  0  0  0  0  0  0  0  0  0  0
   -2.5988   33.6711   -6.4323 C   0  0  1  0  0  0  0  0  0  0  0  0
   -3.7499   33.0337   -5.9622 O   0  0  0  0  0  0  0  0  0  0  0  0
    1.8244   38.1186   -1.7318 C   0  0  2  0  0  0  0  0  0  0  0  0
    2.0113   37.0814   -0.7703 O   0  0  0  0  0  0  0  0  0  0  0  0
   -2.0277   34.4854   -5.3218 C   0  0  1  0  0  0  0  0  0  0  0  0
   -0.8794   35.1212   -5.8039 O   0  0  0  0  0  0  0  0  0  0  0  0
    1.2622   39.3722   -1.0291 C   0  0  1  0  0  0  0  0  0  0  0  0
    2.1818   39.8276   -0.0232 O   0  0  0  0  0  0  0  0  0  0  0  0
   -3.0121   35.5807   -4.8662 C   0  0  0  0  0  0  0  0  0  0  0  0
   -2.4419   36.2993   -3.7783 O   0  0  0  0  0  0  0  0  0  0  0  0
    0.4632   43.4903   -2.7764 N   0  0  0  0  0  0  0  0  0  0  0  0
   -0.5310   38.0333   -7.0593 N   0  0  0  0  0  0  0  0  0  0  0  0
  1  2  1  0  0  0  0
  1 39  1  0  0  0  0
  3  4  1  0  0  0  0
  5  6  1  0  0  0  0
  5 40  1  0  0  0  0
  9 10  1  1  0  0  0
  9 14  1  0  0  0  0
  9 35  1  0  0  0  0
 10  1  1  0  0  0  0
 11 16  1  0  0  0  0
 11 28  1  0  0  0  0
 11 26  1  1  0  0  0
 12 17  1  0  0  0  0
 12 34  1  0  0  0  0
 12 13  1  1  0  0  0
 14 15  1  6  0  0  0
 14 19  1  0  0  0  0
 16 13  1  1  0  0  0
 16 21  1  0  0  0  0
 17 18  1  1  0  0  0
 17 23  1  0  0  0  0
 18  8  1  0  0  0  0
 19 20  1  6  0  0  0
 19 25  1  0  0  0  0
 20  5  1  0  0  0  0
 21  3  1  6  0  0  0
 21 22  1  0  0  0  0
 21 27  1  0  0  0  0
 23 24  1  6  0  0  0
 23 29  1  0  0  0  0
 25 26  1  6  0  0  0
 25 31  1  0  0  0  0
 27  7  1  1  0  0  0
 27 28  1  0  0  0  0
 29 30  1  1  0  0  0
 29 33  1  0  0  0  0
 31 32  1  1  0  0  0
 31 35  1  0  0  0  0
 33 34  1  0  0  0  0
 33 37  1  6  0  0  0
 35 36  1  1  0  0  0
 37 38  1  0  0  0  0
M  END
>  <CHROM.1>
-99.46482320,-87.84281229,-175.10978840,153.66695696,78.52569630,-111.68950316
115.95016907,6.85816405,61.09473165,-118.18368846,178.05022201,0.34765626
36.39849589,-3.95252147,1.23218483,-0.94673961,0.19880303

>  <Name>
1nta_lig

>  <RI>
0

>  <Rbt.Current_Directory>
/home/itssahil/PROJECTS/Mol_Feturizer/New_Systems/rnas/1nta

>  <Rbt.Executable>
rbdock ($Id: //depot/dev/client3/rdock/2013.1/src/exe/rbdock.cxx#4 $)

>  <Rbt.Library>
libRbt.so (2013.1, Build901 2013/11/27)

>  <Rbt.Parameter_File>
/export/apps/rDock/src/rDock_2013.1_src/data/scripts/dock_solv.prm

>  <Rbt.Receptor>
prm/pocket_docking_5.prm

>  <SCORE>
-21.4288

>  <SCORE.INTER>
-1.29038

>  <SCORE.INTER.CONST>
1

>  <SCORE.INTER.POLAR>
-0.59484

>  <SCORE.INTER.ROT>
11

>  <SCORE.INTER.SOLV>
10.6856

>  <SCORE.INTER.VDW>
-13.3726

>  <SCORE.INTER.norm>
-0.0322596

>  <SCORE.INTRA>
-20.1407

>  <SCORE.INTRA.DIHEDRAL>
-2.83922

>  <SCORE.INTRA.DIHEDRAL.0>
19.0336

>  <SCORE.INTRA.POLAR>
0

>  <SCORE.INTRA.POLAR.0>
0

>  <SCORE.INTRA.REPUL>
0

>  <SCORE.INTRA.REPUL.0>
0

>  <SCORE.INTRA.SOLV>
-1.82336

>  <SCORE.INTRA.SOLV.lig_0>
-97.5861

>  <SCORE.INTRA.VDW>
-17.8094

>  <SCORE.INTRA.VDW.0>
11.7669

>  <SCORE.INTRA.norm>
-0.503517

>  <SCORE.RESTR>
0.00223704

>  <SCORE.RESTR.CAVITY>
0.00223704

>  <SCORE.RESTR.norm>
5.5926e-05

>  <SCORE.SYSTEM>
0

>  <SCORE.SYSTEM.CONST>
0

>  <SCORE.SYSTEM.DIHEDRAL>
0

>  <SCORE.SYSTEM.SOLV>
0

>  <SCORE.SYSTEM.norm>
0

>  <SCORE.heavy>
40

>  <SCORE.norm>
-0.53572

>  <RMSD>
7.677

$$$$
1nta_lig
 OpenBabel11021811403D
libRbt.so/2013.1/901 2013/11/27
 40 42  0  0  0  0  0  0  0  0999 V2000
   -3.5158   37.3098    4.8906 C   0  0  0  0  0  0  0  0  0  0  0  0
   -3.9088   38.5215    5.0222 N   0  0  0  0  0  0  0  0  0  0  0  0
    1.1931   33.2411   -2.2046 C   0  0  0  0  0  0  0  0  0  0  0  0
    0.2203   32.6523   -1.7871 O   0  0  0  0  0  0  0  0  0  0  0  0
   -2.6249   33.0268    0.4036 C   0  0  0  0  0  0  0  0  0  0  0  0
   -3.2810   32.2761    1.2495 N   0  0  0  0  0  0  0  0  0  0  0  0
    0.1094   34.8122   -4.9283 C   0  0  0  0  0  0  0  0  0  0  0  0
    1.3563   34.4874    1.9799 C   0  0  0  0  0  0  0  0  0  0  0  0
   -2.3876   36.9016    2.8507 C   0  0  2  0  0  0  0  0  0  0  0  0
   -2.3192   37.1541    4.3442 N   0  0  0  0  0  0  0  0  0  0  0  0
    0.0151   36.4437   -1.7315 C   0  0  2  0  0  0  0  0  0  0  0  0
    2.2236   36.7359    0.1736 C   0  0  1  0  0  0  0  0  0  0  0  0
    2.2703   36.2566   -1.1248 O   0  0  0  0  0  0  0  0  0  0  0  0
   -1.9730   35.4509    2.5399 C   0  0  1  0  0  0  0  0  0  0  0  0
   -2.9092   34.6157    3.1515 O   0  0  0  0  0  0  0  0  0  0  0  0
    1.2065   35.5374   -1.4412 C   0  0  2  0  0  0  0  0  0  0  0  0
    2.9913   35.9224    1.1923 C   0  0  1  0  0  0  0  0  0  0  0  0
    2.5363   34.5763    1.1362 N   0  0  0  0  0  0  0  0  0  0  0  0
   -2.0011   35.1448    1.0365 C   0  0  2  0  0  0  0  0  0  0  0  0
   -1.6027   33.7569    0.7001 N   0  0  0  0  0  0  0  0  0  0  0  0
    1.2080   34.6838   -2.6338 C   0  0  1  0  0  0  0  0  0  0  0  0
    2.3785   35.0093   -3.3861 O   0  0  0  0  0  0  0  0  0  0  0  0
    4.3537   35.9489    0.9291 C   0  0  2  0  0  0  0  0  0  0  0  0
    5.0153   35.4360    2.0580 O   0  0  0  0  0  0  0  0  0  0  0  0
   -1.0609   36.1159    0.3403 C   0  0  1  0  0  0  0  0  0  0  0  0
   -1.0935   35.8309   -1.0495 O   0  0  0  0  0  0  0  0  0  0  0  0
    0.0287   35.0081   -3.4461 C   0  0  1  0  0  0  0  0  0  0  0  0
   -0.2598   36.3599   -3.1110 O   0  0  0  0  0  0  0  0  0  0  0  0
    4.8115   37.3614    0.6768 C   0  0  1  0  0  0  0  0  0  0  0  0
    6.1182   37.3335    0.1826 O   0  0  0  0  0  0  0  0  0  0  0  0
   -1.5026   37.5816    0.6152 C   0  0  2  0  0  0  0  0  0  0  0  0
   -0.6156   38.4764   -0.0540 O   0  0  0  0  0  0  0  0  0  0  0  0
    3.9367   37.9992   -0.3482 C   0  0  1  0  0  0  0  0  0  0  0  0
    2.6334   38.0252    0.1578 O   0  0  0  0  0  0  0  0  0  0  0  0
   -1.4515   37.8511    2.1337 C   0  0  1  0  0  0  0  0  0  0  0  0
   -1.8558   39.2023    2.4085 O   0  0  0  0  0  0  0  0  0  0  0  0
    4.3619   39.4558   -0.6199 C   0  0  0  0  0  0  0  0  0  0  0  0
    4.2659   40.2041    0.5867 O   0  0  0  0  0  0  0  0  0  0  0  0
   -4.2352   36.3053    5.2590 N   0  0  0  0  0  0  0  0  0  0  0  0
   -2.9732   33.0518   -0.8230 N   0  0  0  0  0  0  0  0  0  0  0  0
  1  2  1  0  0  0  0
  1 39  1  0  0  0  0
  3  4  1  0  0  0  0
  5  6  1  0  0  0  0
  5 40  1  0  0  0  0
  9 10  1  1  0  0  0
  9 14  1  0  0  0  0
  9 35  1  0  0  0  0
 10  1  1  0  0  0  0
 11 16  1  0  0  0  0
 11 28  1  0  0  0  0
 11 26  1  1  0  0  0
 12 17  1  0  0  0  0
 12 34  1  0  0  0  0
 12 13  1  6  0  0  0
 14 15  1  1  0  0  0
 14 19  1  0  0  0  0
 16 13  1  6  0  0  0
 16 21  1  0  0  0  0
 17 18  1  6  0  0  0
 17 23  1  0  0  0  0
 18  8  1  0  0  0  0
 19 20  1  1  0  0  0
 19 25  1  0  0  0  0
 20  5  1  0  0  0  0
 21  3  1  1  0  0  0
 21 22  1  0  0  0  0
 21 27  1  0  0  0  0
 23 24  1  1  0  0  0
 23 29  1  0  0  0  0
 25 26  1  6  0  0  0
 25 31  1  0  0  0  0
 27  7  1  6  0  0  0
 27 28  1  0  0  0  0
 29 30  1  6  0  0  0
 29 33  1  0  0  0  0
 31 32  1  6  0  0  0
 31 35  1  0  0  0  0
 33 34  1  0  0  0  0
 33 37  1  1  0  0  0
 35 36  1  6  0  0  0
 37 38  1  0  0  0  0
M  END
>  <CHROM.1>
-110.58779343,-95.44729397,78.58077764,97.70495466,77.38129947,-84.77435485
103.83835384,-93.33252800,76.22687737,-164.41731613,-60.14774213,0.33734083
36.06901928,0.40510425,-2.77075908,-0.40791143,-2.20513580

>  <Name>
1nta_lig

>  <RI>
0

>  <Rbt.Current_Directory>
/home/itssahil/PROJECTS/Mol_Feturizer/New_Systems/rnas/1nta

>  <Rbt.Executable>
rbdock ($Id: //depot/dev/client3/rdock/2013.1/src/exe/rbdock.cxx#4 $)

>  <Rbt.Library>
libRbt.so (2013.1, Build901 2013/11/27)

>  <Rbt.Parameter_File>
/export/apps/rDock/src/rDock_2013.1_src/data/scripts/dock_solv.prm

>  <Rbt.Receptor>
prm/pocket_docking_6.prm

>  <SCORE>
-21.4061

>  <SCORE.INTER>
0.365683

>  <SCORE.INTER.CONST>
1

>  <SCORE.INTER.POLAR>
-0.704573

>  <SCORE.INTER.ROT>
11

>  <SCORE.INTER.SOLV>
8.11664

>  <SCORE.INTER.VDW>
-11.0465

>  <SCORE.INTER.norm>
0.00914207

>  <SCORE.INTRA>
-21.7717

>  <SCORE.INTRA.DIHEDRAL>
-5.38286

>  <SCORE.INTRA.DIHEDRAL.0>
19.0336

>  <SCORE.INTRA.POLAR>
0

>  <SCORE.INTRA.POLAR.0>
0

>  <SCORE.INTRA.REPUL>
0.0392039

>  <SCORE.INTRA.REPUL.0>
0

>  <SCORE.INTRA.SOLV>
-2.20417

>  <SCORE.INTRA.SOLV.lig_0>
-97.5861

>  <SCORE.INTRA.VDW>
-18.1742

>  <SCORE.INTRA.VDW.0>
11.7669

>  <SCORE.INTRA.norm>
-0.544293

>  <SCORE.RESTR>
0

>  <SCORE.RESTR.CAVITY>
0

>  <SCORE.RESTR.norm>
0

>  <SCORE.SYSTEM>
0

>  <SCORE.SYSTEM.CONST>
0

>  <SCORE.SYSTEM.DIHEDRAL>
0

>  <SCORE.SYSTEM.SOLV>
0

>  <SCORE.SYSTEM.norm>
0

>  <SCORE.heavy>
40

>  <SCORE.norm>
-0.535151

>  <RMSD>
7.688

$$$$
1nta_lig
 OpenBabel11021811403D
libRbt.so/2013.1/901 2013/11/27
 40 42  0  0  0  0  0  0  0  0999 V2000
   -3.9513   36.1618   -3.6965 C   0  0  0  0  0  0  0  0  0  0  0  0
   -4.9397   36.9560   -3.5169 N   0  0  0  0  0  0  0  0  0  0  0  0
    4.6373   39.3827    0.2117 C   0  0  0  0  0  0  0  0  0  0  0  0
    4.8353   39.8807   -0.8747 O   0  0  0  0  0  0  0  0  0  0  0  0
   -0.7965   40.6000   -1.3373 C   0  0  0  0  0  0  0  0  0  0  0  0
   -1.5690   41.5860   -1.7127 N   0  0  0  0  0  0  0  0  0  0  0  0
    1.6836   40.0781    1.5730 C   0  0  0  0  0  0  0  0  0  0  0  0
    7.2159   34.0013   -0.0722 C   0  0  0  0  0  0  0  0  0  0  0  0
   -1.7078   36.8613   -3.4171 C   0  0  2  0  0  0  0  0  0  0  0  0
   -2.9082   36.6821   -4.3258 N   0  0  0  0  0  0  0  0  0  0  0  0
    1.9877   37.4653   -0.8707 C   0  0  2  0  0  0  0  0  0  0  0  0
    4.0840   35.2786   -0.8209 C   0  0  1  0  0  0  0  0  0  0  0  0
    3.6379   36.1552    0.1538 O   0  0  0  0  0  0  0  0  0  0  0  0
   -1.4274   38.3604   -3.2005 C   0  0  1  0  0  0  0  0  0  0  0  0
   -2.5365   38.8955   -2.5435 O   0  0  0  0  0  0  0  0  0  0  0  0
    3.4060   37.3683   -0.3190 C   0  0  2  0  0  0  0  0  0  0  0  0
    4.9185   34.1212   -0.3183 C   0  0  1  0  0  0  0  0  0  0  0  0
    6.0107   34.6390    0.4307 N   0  0  0  0  0  0  0  0  0  0  0  0
   -0.2052   38.6025   -2.3048 C   0  0  2  0  0  0  0  0  0  0  0  0
    0.0972   40.0362   -2.0784 N   0  0  0  0  0  0  0  0  0  0  0  0
    3.4441   38.5367    0.5667 C   0  0  1  0  0  0  0  0  0  0  0  0
    3.5102   38.0490    1.9083 O   0  0  0  0  0  0  0  0  0  0  0  0
    4.1708   33.2825    0.4964 C   0  0  2  0  0  0  0  0  0  0  0  0
    4.9062   32.0987    0.6778 O   0  0  0  0  0  0  0  0  0  0  0  0
    0.9962   37.9366   -2.9568 C   0  0  1  0  0  0  0  0  0  0  0  0
    2.1223   38.1604   -2.1230 O   0  0  0  0  0  0  0  0  0  0  0  0
    2.1935   39.2891    0.4071 C   0  0  1  0  0  0  0  0  0  0  0  0
    1.2527   38.3092   -0.0144 O   0  0  0  0  0  0  0  0  0  0  0  0
    2.8512   32.9598   -0.1539 C   0  0  1  0  0  0  0  0  0  0  0  0
    2.0297   32.3213    0.7787 O   0  0  0  0  0  0  0  0  0  0  0  0
    0.7344   36.4142   -3.1366 C   0  0  2  0  0  0  0  0  0  0  0  0
    1.8755   35.8060   -3.7395 O   0  0  0  0  0  0  0  0  0  0  0  0
    2.1800   34.2195   -0.5842 C   0  0  1  0  0  0  0  0  0  0  0  0
    3.0082   34.8479   -1.5194 O   0  0  0  0  0  0  0  0  0  0  0  0
   -0.4938   36.2142   -4.0491 C   0  0  1  0  0  0  0  0  0  0  0  0
   -0.7517   34.8120   -4.2285 O   0  0  0  0  0  0  0  0  0  0  0  0
    0.8323   33.9292   -1.2739 C   0  0  0  0  0  0  0  0  0  0  0  0
   -0.0824   33.4115   -0.3145 O   0  0  0  0  0  0  0  0  0  0  0  0
   -3.9676   34.9359   -3.2978 N   0  0  0  0  0  0  0  0  0  0  0  0
   -0.8833   40.1448   -0.1492 N   0  0  0  0  0  0  0  0  0  0  0  0
  1  2  1  0  0  0  0
  1 39  1  0  0  0  0
  3  4  1  0  0  0  0
  5  6  1  0  0  0  0
  5 40  1  0  0  0  0
  9 10  1  6  0  0  0
  9 14  1  0  0  0  0
  9 35  1  0  0  0  0
 10  1  1  0  0  0  0
 11 16  1  0  0  0  0
 11 28  1  0  0  0  0
 11 26  1  6  0  0  0
 12 17  1  0  0  0  0
 12 34  1  0  0  0  0
 12 13  1  1  0  0  0
 14 15  1  1  0  0  0
 14 19  1  0  0  0  0
 16 13  1  1  0  0  0
 16 21  1  0  0  0  0
 17 18  1  1  0  0  0
 17 23  1  0  0  0  0
 18  8  1  0  0  0  0
 19 20  1  6  0  0  0
 19 25  1  0  0  0  0
 20  5  1  0  0  0  0
 21  3  1  6  0  0  0
 21 22  1  0  0  0  0
 21 27  1  0  0  0  0
 23 24  1  6  0  0  0
 23 29  1  0  0  0  0
 25 26  1  1  0  0  0
 25 31  1  0  0  0  0
 27  7  1  1  0  0  0
 27 28  1  0  0  0  0
 29 30  1  1  0  0  0
 29 33  1  0  0  0  0
 31 32  1  6  0  0  0
 31 35  1  0  0  0  0
 33 34  1  0  0  0  0
 33 37  1  6  0  0  0
 35 36  1  1  0  0  0
 37 38  1  0  0  0  0
M  END
>  <CHROM.1>
-112.12744113,110.21801784,160.15259557,154.43797931,86.68719951,-130.15924876
69.59109398,-117.64856515,59.25703106,67.05377866,67.81867227,1.34584680
36.69102578,-1.27014696,2.80659254,-0.48536959,0.13915530

>  <Name>
1nta_lig

>  <RI>
0

>  <Rbt.Current_Directory>
/home/itssahil/PROJECTS/Mol_Feturizer/New_Systems/rnas/1nta

>  <Rbt.Executable>
rbdock ($Id: //depot/dev/client3/rdock/2013.1/src/exe/rbdock.cxx#4 $)

>  <Rbt.Library>
libRbt.so (2013.1, Build901 2013/11/27)

>  <Rbt.Parameter_File>
/export/apps/rDock/src/rDock_2013.1_src/data/scripts/dock_solv.prm

>  <Rbt.Receptor>
prm/pocket_docking_5.prm

>  <SCORE>
-21.9148

>  <SCORE.INTER>
-2.92357

>  <SCORE.INTER.CONST>
1

>  <SCORE.INTER.POLAR>
-1.06911

>  <SCORE.INTER.ROT>
11

>  <SCORE.INTER.SOLV>
10.5403

>  <SCORE.INTER.VDW>
-12.8321

>  <SCORE.INTER.norm>
-0.0730891

>  <SCORE.INTRA>
-18.9913

>  <SCORE.INTRA.DIHEDRAL>
-7.7737

>  <SCORE.INTRA.DIHEDRAL.0>
19.0336

>  <SCORE.INTRA.POLAR>
0

>  <SCORE.INTRA.POLAR.0>
0

>  <SCORE.INTRA.REPUL>
0

>  <SCORE.INTRA.REPUL.0>
0

>  <SCORE.INTRA.SOLV>
0.0538496

>  <SCORE.INTRA.SOLV.lig_0>
-97.5861

>  <SCORE.INTRA.VDW>
-15.1314

>  <SCORE.INTRA.VDW.0>
11.7669

>  <SCORE.INTRA.norm>
-0.474782

>  <SCORE.RESTR>
0

>  <SCORE.RESTR.CAVITY>
0

>  <SCORE.RESTR.norm>
0

>  <SCORE.SYSTEM>
0

>  <SCORE.SYSTEM.CONST>
0

>  <SCORE.SYSTEM.DIHEDRAL>
0

>  <SCORE.SYSTEM.SOLV>
0

>  <SCORE.SYSTEM.norm>
0

>  <SCORE.heavy>
40

>  <SCORE.norm>
-0.547871

>  <RMSD>
7.699

$$$$
1nta_lig
 OpenBabel11021811403D
libRbt.so/2013.1/901 2013/11/27
 40 42  0  0  0  0  0  0  0  0999 V2000
   -4.5051   39.9460   -3.9607 C   0  0  0  0  0  0  0  0  0  0  0  0
   -5.4014   40.5412   -3.2661 N   0  0  0  0  0  0  0  0  0  0  0  0
    1.8738   33.3389    0.0188 C   0  0  0  0  0  0  0  0  0  0  0  0
    1.6913   32.1418   -0.0110 O   0  0  0  0  0  0  0  0  0  0  0  0
   -1.4465   37.6348    1.2551 C   0  0  0  0  0  0  0  0  0  0  0  0
   -1.3980   36.3776    1.6113 N   0  0  0  0  0  0  0  0  0  0  0  0
    1.9301   32.9193   -3.2800 C   0  0  0  0  0  0  0  0  0  0  0  0
    6.3282   34.1790    1.0490 C   0  0  0  0  0  0  0  0  0  0  0  0
   -2.6155   38.8831   -3.0118 C   0  0  2  0  0  0  0  0  0  0  0  0
   -3.2553   40.1406   -3.5671 N   0  0  0  0  0  0  0  0  0  0  0  0
    1.7472   36.2166   -1.8709 C   0  0  2  0  0  0  0  0  0  0  0  0
    4.0424   36.1179    0.8249 C   0  0  1  0  0  0  0  0  0  0  0  0
    3.6475   36.1678   -0.5014 O   0  0  0  0  0  0  0  0  0  0  0  0
   -2.0145   39.1649   -1.6218 C   0  0  1  0  0  0  0  0  0  0  0  0
   -3.0724   39.5069   -0.7780 O   0  0  0  0  0  0  0  0  0  0  0  0
    2.4912   35.5615   -0.7122 C   0  0  2  0  0  0  0  0  0  0  0  0
    5.5177   36.3459    1.0705 C   0  0  1  0  0  0  0  0  0  0  0  0
    6.2581   35.4162    0.2897 N   0  0  0  0  0  0  0  0  0  0  0  0
   -1.3310   37.9300   -1.0198 C   0  0  2  0  0  0  0  0  0  0  0  0
   -0.7364   38.1665    0.3176 N   0  0  0  0  0  0  0  0  0  0  0  0
    2.4476   34.1509   -1.1112 C   0  0  1  0  0  0  0  0  0  0  0  0
    3.7845   33.7596   -1.4303 O   0  0  0  0  0  0  0  0  0  0  0  0
    5.8910   37.6335    0.7119 C   0  0  2  0  0  0  0  0  0  0  0  0
    7.1745   37.8659    1.2349 O   0  0  0  0  0  0  0  0  0  0  0  0
   -0.2392   37.4815   -1.9783 C   0  0  1  0  0  0  0  0  0  0  0  0
    0.3869   36.3376   -1.4187 O   0  0  0  0  0  0  0  0  0  0  0  0
    1.6265   34.0296   -2.3223 C   0  0  1  0  0  0  0  0  0  0  0  0
    1.7389   35.3037   -2.9443 O   0  0  0  0  0  0  0  0  0  0  0  0
    4.9256   38.6379    1.2844 C   0  0  1  0  0  0  0  0  0  0  0  0
    5.1811   39.8883    0.7156 O   0  0  0  0  0  0  0  0  0  0  0  0
   -0.8488   37.1531   -3.3709 C   0  0  2  0  0  0  0  0  0  0  0  0
    0.1882   36.7248   -4.2521 O   0  0  0  0  0  0  0  0  0  0  0  0
    3.5285   38.2450    0.9435 C   0  0  1  0  0  0  0  0  0  0  0  0
    3.2825   36.9952    1.5203 O   0  0  0  0  0  0  0  0  0  0  0  0
   -1.5165   38.4204   -3.9447 C   0  0  1  0  0  0  0  0  0  0  0  0
   -2.0857   38.1374   -5.2334 O   0  0  0  0  0  0  0  0  0  0  0  0
    2.5075   39.2398    1.5304 C   0  0  0  0  0  0  0  0  0  0  0  0
    2.6015   40.4748    0.8297 O   0  0  0  0  0  0  0  0  0  0  0  0
   -4.7946   39.2097   -4.9787 N   0  0  0  0  0  0  0  0  0  0  0  0
   -2.2600   38.4265    1.8363 N   0  0  0  0  0  0  0  0  0  0  0  0
  1  2  1  0  0  0  0
  1 39  1  0  0  0  0
  3  4  1  0  0  0  0
  5  6  1  0  0  0  0
  5 40  1  0  0  0  0
  9 10  1  6  0  0  0
  9 14  1  0  0  0  0
  9 35  1  0  0  0  0
 10  1  1  0  0  0  0
 11 16  1  0  0  0  0
 11 28  1  0  0  0  0
 11 26  1  1  0  0  0
 12 17  1  0  0  0  0
 12 34  1  0  0  0  0
 12 13  1  6  0  0  0
 14 15  1  1  0  0  0
 14 19  1  0  0  0  0
 16 13  1  6  0  0  0
 16 21  1  0  0  0  0
 17 18  1  6  0  0  0
 17 23  1  0  0  0  0
 18  8  1  0  0  0  0
 19 20  1  1  0  0  0
 19 25  1  0  0  0  0
 20  5  1  0  0  0  0
 21  3  1  1  0  0  0
 21 22  1  0  0  0  0
 21 27  1  0  0  0  0
 23 24  1  1  0  0  0
 23 29  1  0  0  0  0
 25 26  1  1  0  0  0
 25 31  1  0  0  0  0
 27  7  1  6  0  0  0
 27 28  1  0  0  0  0
 29 30  1  6  0  0  0
 29 33  1  0  0  0  0
 31 32  1  6  0  0  0
 31 35  1  0  0  0  0
 33 34  1  0  0  0  0
 33 37  1  1  0  0  0
 35 36  1  6  0  0  0
 37 38  1  0  0  0  0
M  END
>  <CHROM.1>
-127.76699970,112.31715825,148.47361781,159.78624558,149.85307275,-84.24706431
105.16394188,82.12267545,178.88665820,-153.05891820,70.22775799,1.13210410
37.10072528,-0.98656388,-3.04967344,0.51449284,-2.63900265

>  <Name>
1nta_lig

>  <RI>
0

>  <Rbt.Current_Directory>
/home/itssahil/PROJECTS/Mol_Feturizer/New_Systems/rnas/1nta

>  <Rbt.Executable>
rbdock ($Id: //depot/dev/client3/rdock/2013.1/src/exe/rbdock.cxx#4 $)

>  <Rbt.Library>
libRbt.so (2013.1, Build901 2013/11/27)

>  <Rbt.Parameter_File>
/export/apps/rDock/src/rDock_2013.1_src/data/scripts/dock_solv.prm

>  <Rbt.Receptor>
prm/pocket_docking_8.prm

>  <SCORE>
-23.4048

>  <SCORE.INTER>
-2.6882

>  <SCORE.INTER.CONST>
1

>  <SCORE.INTER.POLAR>
-0.474038

>  <SCORE.INTER.ROT>
11

>  <SCORE.INTER.SOLV>
9.76923

>  <SCORE.INTER.VDW>
-14.4018

>  <SCORE.INTER.norm>
-0.067205

>  <SCORE.INTRA>
-20.7166

>  <SCORE.INTRA.DIHEDRAL>
-2.52732

>  <SCORE.INTRA.DIHEDRAL.0>
19.0336

>  <SCORE.INTRA.POLAR>
0

>  <SCORE.INTRA.POLAR.0>
0

>  <SCORE.INTRA.REPUL>
0

>  <SCORE.INTRA.REPUL.0>
0

>  <SCORE.INTRA.SOLV>
-4.76073

>  <SCORE.INTRA.SOLV.lig_0>
-97.5861

>  <SCORE.INTRA.VDW>
-17.0726

>  <SCORE.INTRA.VDW.0>
11.7669

>  <SCORE.INTRA.norm>
-0.517915

>  <SCORE.RESTR>
0

>  <SCORE.RESTR.CAVITY>
0

>  <SCORE.RESTR.norm>
0

>  <SCORE.SYSTEM>
0

>  <SCORE.SYSTEM.CONST>
0

>  <SCORE.SYSTEM.DIHEDRAL>
0

>  <SCORE.SYSTEM.SOLV>
0

>  <SCORE.SYSTEM.norm>
0

>  <SCORE.heavy>
40

>  <SCORE.norm>
-0.58512

>  <RMSD>
7.699

$$$$
1nta_lig
 OpenBabel11021811403D
libRbt.so/2013.1/901 2013/11/27
 40 42  0  0  0  0  0  0  0  0999 V2000
   -2.6049   33.9990    5.4002 C   0  0  0  0  0  0  0  0  0  0  0  0
   -2.3243   34.8906    6.2756 N   0  0  0  0  0  0  0  0  0  0  0  0
    0.8784   33.2692   -3.3722 C   0  0  0  0  0  0  0  0  0  0  0  0
   -0.1682   32.6699   -3.2593 O   0  0  0  0  0  0  0  0  0  0  0  0
   -2.8720   31.9725   -0.5198 C   0  0  0  0  0  0  0  0  0  0  0  0
   -3.9520   32.5219   -1.0112 N   0  0  0  0  0  0  0  0  0  0  0  0
   -0.1083   36.0691   -4.8718 C   0  0  0  0  0  0  0  0  0  0  0  0
    1.3341   32.0599    0.9080 C   0  0  0  0  0  0  0  0  0  0  0  0
   -1.8165   34.2422    3.1821 C   0  0  2  0  0  0  0  0  0  0  0  0
   -1.6190   33.6784    4.5757 N   0  0  0  0  0  0  0  0  0  0  0  0
    0.1847   35.9295   -1.2961 C   0  0  2  0  0  0  0  0  0  0  0  0
    2.5365   34.9543    0.2396 C   0  0  1  0  0  0  0  0  0  0  0  0
    2.4188   35.2493   -1.1082 O   0  0  0  0  0  0  0  0  0  0  0  0
   -1.6960   33.1188    2.1350 C   0  0  1  0  0  0  0  0  0  0  0  0
   -2.7351   32.2187    2.3762 O   0  0  0  0  0  0  0  0  0  0  0  0
    1.2505   34.8850   -1.6097 C   0  0  2  0  0  0  0  0  0  0  0  0
    3.0529   33.5681    0.5566 C   0  0  1  0  0  0  0  0  0  0  0  0
    2.2257   32.6138   -0.0971 N   0  0  0  0  0  0  0  0  0  0  0  0
   -1.8644   33.6371    0.7005 C   0  0  2  0  0  0  0  0  0  0  0  0
   -1.7496   32.5823   -0.3349 N   0  0  0  0  0  0  0  0  0  0  0  0
    1.0736   34.7281   -3.0571 C   0  0  1  0  0  0  0  0  0  0  0  0
    2.2395   35.2632   -3.6867 O   0  0  0  0  0  0  0  0  0  0  0  0
    4.3594   33.4086    0.1163 C   0  0  2  0  0  0  0  0  0  0  0  0
    4.8636   32.2323    0.6969 O   0  0  0  0  0  0  0  0  0  0  0  0
   -0.8010   34.6955    0.4540 C   0  0  1  0  0  0  0  0  0  0  0  0
   -0.9635   35.1736   -0.8721 O   0  0  0  0  0  0  0  0  0  0  0  0
   -0.0874   35.5221   -3.4781 C   0  0  1  0  0  0  0  0  0  0  0  0
   -0.1671   36.5583   -2.5071 O   0  0  0  0  0  0  0  0  0  0  0  0
    5.2030   34.5812    0.5427 C   0  0  1  0  0  0  0  0  0  0  0  0
    6.4363   34.5144   -0.1107 O   0  0  0  0  0  0  0  0  0  0  0  0
   -0.9473   35.8535    1.4817 C   0  0  2  0  0  0  0  0  0  0  0  0
    0.0513   36.8402    1.2279 O   0  0  0  0  0  0  0  0  0  0  0  0
    4.5330   35.8536    0.1495 C   0  0  1  0  0  0  0  0  0  0  0  0
    3.3027   35.9117    0.8114 O   0  0  0  0  0  0  0  0  0  0  0  0
   -0.7622   35.2935    2.9077 C   0  0  1  0  0  0  0  0  0  0  0  0
   -0.8931   36.3498    3.8731 O   0  0  0  0  0  0  0  0  0  0  0  0
    5.3579   37.0800    0.5874 C   0  0  0  0  0  0  0  0  0  0  0  0
    5.4288   37.1130    2.0083 O   0  0  0  0  0  0  0  0  0  0  0  0
   -3.7691   33.4510    5.3196 N   0  0  0  0  0  0  0  0  0  0  0  0
   -2.8912   30.7488   -0.1613 N   0  0  0  0  0  0  0  0  0  0  0  0
  1  2  1  0  0  0  0
  1 39  1  0  0  0  0
  3  4  1  0  0  0  0
  5  6  1  0  0  0  0
  5 40  1  0  0  0  0
  9 10  1  1  0  0  0
  9 14  1  0  0  0  0
  9 35  1  0  0  0  0
 10  1  1  0  0  0  0
 11 16  1  0  0  0  0
 11 28  1  0  0  0  0
 11 26  1  6  0  0  0
 12 17  1  0  0  0  0
 12 34  1  0  0  0  0
 12 13  1  6  0  0  0
 14 15  1  1  0  0  0
 14 19  1  0  0  0  0
 16 13  1  6  0  0  0
 16 21  1  0  0  0  0
 17 18  1  6  0  0  0
 17 23  1  0  0  0  0
 18  8  1  0  0  0  0
 19 20  1  6  0  0  0
 19 25  1  0  0  0  0
 20  5  1  0  0  0  0
 21  3  1  6  0  0  0
 21 22  1  0  0  0  0
 21 27  1  0  0  0  0
 23 24  1  1  0  0  0
 23 29  1  0  0  0  0
 25 26  1  6  0  0  0
 25 31  1  0  0  0  0
 27  7  1  6  0  0  0
 27 28  1  0  0  0  0
 29 30  1  6  0  0  0
 29 33  1  0  0  0  0
 31 32  1  6  0  0  0
 31 35  1  0  0  0  0
 33 34  1  0  0  0  0
 33 37  1  1  0  0  0
 35 36  1  1  0  0  0
 37 38  1  0  0  0  0
M  END
>  <CHROM.1>
-127.32599998,-106.17510867,76.38589809,87.49318711,81.34306292,-102.13809821
84.65102636,65.80279080,81.00147663,-165.96084825,-64.01229707,0.59535022
34.40412154,0.35632149,-2.60076721,-0.28222475,-1.64184227

>  <Name>
1nta_lig

>  <RI>
0

>  <Rbt.Current_Directory>
/home/itssahil/PROJECTS/Mol_Feturizer/New_Systems/rnas/1nta

>  <Rbt.Executable>
rbdock ($Id: //depot/dev/client3/rdock/2013.1/src/exe/rbdock.cxx#4 $)

>  <Rbt.Library>
libRbt.so (2013.1, Build901 2013/11/27)

>  <Rbt.Parameter_File>
/export/apps/rDock/src/rDock_2013.1_src/data/scripts/dock_solv.prm

>  <Rbt.Receptor>
prm/pocket_docking_7.prm

>  <SCORE>
-29.5478

>  <SCORE.INTER>
-7.25141

>  <SCORE.INTER.CONST>
1

>  <SCORE.INTER.POLAR>
-1.78375

>  <SCORE.INTER.ROT>
11

>  <SCORE.INTER.SOLV>
13.5124

>  <SCORE.INTER.VDW>
-14.3259

>  <SCORE.INTER.norm>
-0.181285

>  <SCORE.INTRA>
-22.2963

>  <SCORE.INTRA.DIHEDRAL>
-6.42802

>  <SCORE.INTRA.DIHEDRAL.0>
19.0336

>  <SCORE.INTRA.POLAR>
0

>  <SCORE.INTRA.POLAR.0>
0

>  <SCORE.INTRA.REPUL>
0.0120373

>  <SCORE.INTRA.REPUL.0>
0

>  <SCORE.INTRA.SOLV>
-2.31505

>  <SCORE.INTRA.SOLV.lig_0>
-97.5861

>  <SCORE.INTRA.VDW>
-17.985

>  <SCORE.INTRA.VDW.0>
11.7669

>  <SCORE.INTRA.norm>
-0.557409

>  <SCORE.RESTR>
0

>  <SCORE.RESTR.CAVITY>
0

>  <SCORE.RESTR.norm>
0

>  <SCORE.SYSTEM>
0

>  <SCORE.SYSTEM.CONST>
0

>  <SCORE.SYSTEM.DIHEDRAL>
0

>  <SCORE.SYSTEM.SOLV>
0

>  <SCORE.SYSTEM.norm>
0

>  <SCORE.heavy>
40

>  <SCORE.norm>
-0.738694

>  <RMSD>
7.700

$$$$
1nta_lig
 OpenBabel11021811403D
libRbt.so/2013.1/901 2013/11/27
 40 42  0  0  0  0  0  0  0  0999 V2000
    1.1373   37.0753   -0.1064 C   0  0  0  0  0  0  0  0  0  0  0  0
    0.8261   38.3097   -0.2461 N   0  0  0  0  0  0  0  0  0  0  0  0
   -2.1729   32.0539   -7.5453 C   0  0  0  0  0  0  0  0  0  0  0  0
   -3.3294   31.9348   -7.2052 O   0  0  0  0  0  0  0  0  0  0  0  0
   -1.1827   36.6284   -5.8447 C   0  0  0  0  0  0  0  0  0  0  0  0
   -0.3372   37.0902   -6.7288 N   0  0  0  0  0  0  0  0  0  0  0  0
    0.6363   30.9215   -8.9191 C   0  0  0  0  0  0  0  0  0  0  0  0
   -2.9488   27.1128   -5.5681 C   0  0  0  0  0  0  0  0  0  0  0  0
    0.6803   35.6502   -1.9397 C   0  0  2  0  0  0  0  0  0  0  0  0
    0.2626   36.2076   -0.5929 N   0  0  0  0  0  0  0  0  0  0  0  0
    0.5512   31.8345   -5.4478 C   0  0  2  0  0  0  0  0  0  0  0  0
   -2.5516   30.1339   -4.7335 C   0  0  1  0  0  0  0  0  0  0  0  0
   -1.2077   30.4676   -4.7219 O   0  0  0  0  0  0  0  0  0  0  0  0
   -0.4531   35.8404   -2.9654 C   0  0  1  0  0  0  0  0  0  0  0  0
   -0.6425   37.2146   -3.1189 O   0  0  0  0  0  0  0  0  0  0  0  0
   -0.9163   31.4390   -5.5709 C   0  0  2  0  0  0  0  0  0  0  0  0
   -2.9040   28.8413   -4.0309 C   0  0  1  0  0  0  0  0  0  0  0  0
   -2.1204   27.7928   -4.5866 N   0  0  0  0  0  0  0  0  0  0  0  0
   -0.0938   35.2720   -4.3448 C   0  0  2  0  0  0  0  0  0  0  0  0
   -1.1651   35.4336   -5.3569 N   0  0  0  0  0  0  0  0  0  0  0  0
   -1.0306   31.2278   -7.0176 C   0  0  1  0  0  0  0  0  0  0  0  0
   -1.2366   29.8292   -7.2264 O   0  0  0  0  0  0  0  0  0  0  0  0
   -2.6445   28.9251   -2.6701 C   0  0  2  0  0  0  0  0  0  0  0  0
   -3.2612   27.8248   -2.0505 O   0  0  0  0  0  0  0  0  0  0  0  0
    0.2159   33.7927   -4.1787 C   0  0  1  0  0  0  0  0  0  0  0  0
    0.5508   33.2731   -5.4561 O   0  0  0  0  0  0  0  0  0  0  0  0
    0.2378   31.6101   -7.6507 C   0  0  1  0  0  0  0  0  0  0  0  0
    1.2055   31.4216   -6.6255 O   0  0  0  0  0  0  0  0  0  0  0  0
   -3.2105   30.2019   -2.1062 C   0  0  1  0  0  0  0  0  0  0  0  0
   -2.7319   30.3747   -0.8049 O   0  0  0  0  0  0  0  0  0  0  0  0
    1.3898   33.5988   -3.1772 C   0  0  2  0  0  0  0  0  0  0  0  0
    1.6721   32.2069   -3.0429 O   0  0  0  0  0  0  0  0  0  0  0  0
   -2.7587   31.3601   -2.9289 C   0  0  1  0  0  0  0  0  0  0  0  0
   -3.2458   31.1789   -4.2271 O   0  0  0  0  0  0  0  0  0  0  0  0
    0.9856   34.1737   -1.8034 C   0  0  1  0  0  0  0  0  0  0  0  0
    2.0583   34.0031   -0.8626 O   0  0  0  0  0  0  0  0  0  0  0  0
   -3.3348   32.6862   -2.3942 C   0  0  0  0  0  0  0  0  0  0  0  0
   -2.9036   33.7544   -3.2297 O   0  0  0  0  0  0  0  0  0  0  0  0
    2.2255   36.6975    0.4726 N   0  0  0  0  0  0  0  0  0  0  0  0
   -2.0968   37.3897   -5.3850 N   0  0  0  0  0  0  0  0  0  0  0  0
  1  2  1  0  0  0  0
  1 39  1  0  0  0  0
  3  4  1  0  0  0  0
  5  6  1  0  0  0  0
  5 40  1  0  0  0  0
  9 10  1  1  0  0  0
  9 14  1  0  0  0  0
  9 35  1  0  0  0  0
 10  1  1  0  0  0  0
 11 16  1  0  0  0  0
 11 28  1  0  0  0  0
 11 26  1  6  0  0  0
 12 17  1  0  0  0  0
 12 34  1  0  0  0  0
 12 13  1  1  0  0  0
 14 15  1  6  0  0  0
 14 19  1  0  0  0  0
 16 13  1  1  0  0  0
 16 21  1  0  0  0  0
 17 18  1  6  0  0  0
 17 23  1  0  0  0  0
 18  8  1  0  0  0  0
 19 20  1  6  0  0  0
 19 25  1  0  0  0  0
 20  5  1  0  0  0  0
 21  3  1  6  0  0  0
 21 22  1  0  0  0  0
 21 27  1  0  0  0  0
 23 24  1  1  0  0  0
 23 29  1  0  0  0  0
 25 26  1  6  0  0  0
 25 31  1  0  0  0  0
 27  7  1  6  0  0  0
 27 28  1  0  0  0  0
 29 30  1  1  0  0  0
 29 33  1  0  0  0  0
 31 32  1  1  0  0  0
 31 35  1  0  0  0  0
 33 34  1  0  0  0  0
 33 37  1  1  0  0  0
 35 36  1  1  0  0  0
 37 38  1  0  0  0  0
M  END
>  <CHROM.1>
-126.64332765,100.97067220,80.22640397,166.82999639,175.98607618,-97.91487888
79.46638846,76.42116133,-61.08649605,-166.45405293,-178.55808187,-0.90976477
32.77292553,-4.05881088,0.49192094,1.18596677,1.46859483

>  <Name>
1nta_lig

>  <RI>
0

>  <Rbt.Current_Directory>
/home/itssahil/PROJECTS/Mol_Feturizer/New_Systems/rnas/1nta

>  <Rbt.Executable>
rbdock ($Id: //depot/dev/client3/rdock/2013.1/src/exe/rbdock.cxx#4 $)

>  <Rbt.Library>
libRbt.so (2013.1, Build901 2013/11/27)

>  <Rbt.Parameter_File>
/export/apps/rDock/src/rDock_2013.1_src/data/scripts/dock_solv.prm

>  <Rbt.Receptor>
prm/pocket_docking_8.prm

>  <SCORE>
-28.4434

>  <SCORE.INTER>
-3.74701

>  <SCORE.INTER.CONST>
1

>  <SCORE.INTER.POLAR>
-0.580741

>  <SCORE.INTER.ROT>
11

>  <SCORE.INTER.SOLV>
7.8392

>  <SCORE.INTER.VDW>
-14.1086

>  <SCORE.INTER.norm>
-0.0936753

>  <SCORE.INTRA>
-24.6964

>  <SCORE.INTRA.DIHEDRAL>
-11.733

>  <SCORE.INTRA.DIHEDRAL.0>
19.0336

>  <SCORE.INTRA.POLAR>
0

>  <SCORE.INTRA.POLAR.0>
0

>  <SCORE.INTRA.REPUL>
0

>  <SCORE.INTRA.REPUL.0>
0

>  <SCORE.INTRA.SOLV>
-3.18722

>  <SCORE.INTRA.SOLV.lig_0>
-97.5861

>  <SCORE.INTRA.VDW>
-17.2363

>  <SCORE.INTRA.VDW.0>
11.7669

>  <SCORE.INTRA.norm>
-0.617409

>  <SCORE.RESTR>
0

>  <SCORE.RESTR.CAVITY>
0

>  <SCORE.RESTR.norm>
0

>  <SCORE.SYSTEM>
0

>  <SCORE.SYSTEM.CONST>
0

>  <SCORE.SYSTEM.DIHEDRAL>
0

>  <SCORE.SYSTEM.SOLV>
0

>  <SCORE.SYSTEM.norm>
0

>  <SCORE.heavy>
40

>  <SCORE.norm>
-0.711085

>  <RMSD>
7.711

$$$$
1nta_lig
 OpenBabel11021811403D
libRbt.so/2013.1/901 2013/11/27
 40 42  0  0  0  0  0  0  0  0999 V2000
   -4.9339   40.7733   -0.9103 C   0  0  0  0  0  0  0  0  0  0  0  0
   -5.0507   41.7838   -1.6884 N   0  0  0  0  0  0  0  0  0  0  0  0
    1.7985   34.6239    0.4833 C   0  0  0  0  0  0  0  0  0  0  0  0
    2.0311   33.4926    0.8484 O   0  0  0  0  0  0  0  0  0  0  0  0
   -2.7120   34.8451   -0.3325 C   0  0  0  0  0  0  0  0  0  0  0  0
   -2.4651   34.0083   -1.3065 N   0  0  0  0  0  0  0  0  0  0  0  0
    2.7289   33.3774   -2.4564 C   0  0  0  0  0  0  0  0  0  0  0  0
    6.2748   37.8638    1.0440 C   0  0  0  0  0  0  0  0  0  0  0  0
   -3.0404   39.3811   -1.1876 C   0  0  2  0  0  0  0  0  0  0  0  0
   -3.7094   40.5343   -0.4653 N   0  0  0  0  0  0  0  0  0  0  0  0
    1.2272   36.6325   -2.2567 C   0  0  2  0  0  0  0  0  0  0  0  0
    3.0268   37.8908    0.5883 C   0  0  1  0  0  0  0  0  0  0  0  0
    2.6872   37.6492   -0.7322 O   0  0  0  0  0  0  0  0  0  0  0  0
   -2.8539   38.1918   -0.2265 C   0  0  1  0  0  0  0  0  0  0  0  0
   -4.1277   37.7676    0.1548 O   0  0  0  0  0  0  0  0  0  0  0  0
    1.8526   36.6319   -0.8660 C   0  0  2  0  0  0  0  0  0  0  0  0
    4.1900   38.8357    0.7954 C   0  0  1  0  0  0  0  0  0  0  0  0
    5.3100   38.3449    0.0694 N   0  0  0  0  0  0  0  0  0  0  0  0
   -2.1582   37.0009   -0.8992 C   0  0  2  0  0  0  0  0  0  0  0  0
   -1.9578   35.8386   -0.0010 N   0  0  0  0  0  0  0  0  0  0  0  0
    2.3362   35.2503   -0.7753 C   0  0  1  0  0  0  0  0  0  0  0  0
    3.7643   35.3001   -0.7839 O   0  0  0  0  0  0  0  0  0  0  0  0
    3.8841   40.1117    0.3433 C   0  0  2  0  0  0  0  0  0  0  0  0
    4.8727   40.9841    0.8297 O   0  0  0  0  0  0  0  0  0  0  0  0
   -0.8070   37.4730   -1.4125 C   0  0  1  0  0  0  0  0  0  0  0  0
   -0.1698   36.3692   -2.0365 O   0  0  0  0  0  0  0  0  0  0  0  0
    1.8898   34.5165   -1.9661 C   0  0  1  0  0  0  0  0  0  0  0  0
    1.7438   35.5250   -2.9583 O   0  0  0  0  0  0  0  0  0  0  0  0
    2.5361   40.5417    0.8598 C   0  0  1  0  0  0  0  0  0  0  0  0
    2.1507   41.7129    0.2025 O   0  0  0  0  0  0  0  0  0  0  0  0
   -0.9939   38.6449   -2.4177 C   0  0  2  0  0  0  0  0  0  0  0  0
    0.2825   39.0665   -2.8954 O   0  0  0  0  0  0  0  0  0  0  0  0
    1.5245   39.4863    0.5678 C   0  0  1  0  0  0  0  0  0  0  0  0
    1.9177   38.3208    1.2329 O   0  0  0  0  0  0  0  0  0  0  0  0
   -1.6865   39.8231   -1.7011 C   0  0  1  0  0  0  0  0  0  0  0  0
   -1.8676   40.9178   -2.6142 O   0  0  0  0  0  0  0  0  0  0  0  0
    0.1327   39.8813    1.1000 C   0  0  0  0  0  0  0  0  0  0  0  0
    0.1941   40.0168    2.5153 O   0  0  0  0  0  0  0  0  0  0  0  0
   -5.9371   40.0325   -0.5832 N   0  0  0  0  0  0  0  0  0  0  0  0
   -3.7799   34.7208    0.3534 N   0  0  0  0  0  0  0  0  0  0  0  0
  1  2  1  0  0  0  0
  1 39  1  0  0  0  0
  3  4  1  0  0  0  0
  5  6  1  0  0  0  0
  5 40  1  0  0  0  0
  9 10  1  1  0  0  0
  9 14  1  0  0  0  0
  9 35  1  0  0  0  0
 10  1  1  0  0  0  0
 11 16  1  0  0  0  0
 11 28  1  0  0  0  0
 11 26  1  1  0  0  0
 12 17  1  0  0  0  0
 12 34  1  0  0  0  0
 12 13  1  6  0  0  0
 14 15  1  6  0  0  0
 14 19  1  0  0  0  0
 16 13  1  6  0  0  0
 16 21  1  0  0  0  0
 17 18  1  6  0  0  0
 17 23  1  0  0  0  0
 18  8  1  0  0  0  0
 19 20  1  1  0  0  0
 19 25  1  0  0  0  0
 20  5  1  0  0  0  0
 21  3  1  1  0  0  0
 21 22  1  0  0  0  0
 21 27  1  0  0  0  0
 23 24  1  1  0  0  0
 23 29  1  0  0  0  0
 25 26  1  6  0  0  0
 25 31  1  0  0  0  0
 27  7  1  6  0  0  0
 27 28  1  0  0  0  0
 29 30  1  6  0  0  0
 29 33  1  0  0  0  0
 31 32  1  1  0  0  0
 31 35  1  0  0  0  0
 33 34  1  0  0  0  0
 33 37  1  1  0  0  0
 35 36  1  6  0  0  0
 37 38  1  0  0  0  0
M  END
>  <CHROM.1>
-112.28169960,-102.83035644,69.87256163,167.58480878,165.10254986,-109.42728378
110.37450106,79.73712124,-179.18339154,-165.87542328,-62.15116451,0.30274639
37.85627791,-0.53184764,-2.92300598,0.15320935,-2.96926032

>  <Name>
1nta_lig

>  <RI>
0

>  <Rbt.Current_Directory>
/home/itssahil/PROJECTS/Mol_Feturizer/New_Systems/rnas/1nta

>  <Rbt.Executable>
rbdock ($Id: //depot/dev/client3/rdock/2013.1/src/exe/rbdock.cxx#4 $)

>  <Rbt.Library>
libRbt.so (2013.1, Build901 2013/11/27)

>  <Rbt.Parameter_File>
/export/apps/rDock/src/rDock_2013.1_src/data/scripts/dock_solv.prm

>  <Rbt.Receptor>
prm/pocket_docking_6.prm

>  <SCORE>
-24.307

>  <SCORE.INTER>
1.37439

>  <SCORE.INTER.CONST>
1

>  <SCORE.INTER.POLAR>
-0.501671

>  <SCORE.INTER.ROT>
11

>  <SCORE.INTER.SOLV>
6.98908

>  <SCORE.INTER.VDW>
-10.6745

>  <SCORE.INTER.norm>
0.0343598

>  <SCORE.INTRA>
-25.6814

>  <SCORE.INTRA.DIHEDRAL>
-11.0637

>  <SCORE.INTRA.DIHEDRAL.0>
19.0336

>  <SCORE.INTRA.POLAR>
0

>  <SCORE.INTRA.POLAR.0>
0

>  <SCORE.INTRA.REPUL>
0

>  <SCORE.INTRA.REPUL.0>
0

>  <SCORE.INTRA.SOLV>
-4.30227

>  <SCORE.INTRA.SOLV.lig_0>
-97.5861

>  <SCORE.INTRA.VDW>
-17.9984

>  <SCORE.INTRA.VDW.0>
11.7669

>  <SCORE.INTRA.norm>
-0.642034

>  <SCORE.RESTR>
0

>  <SCORE.RESTR.CAVITY>
0

>  <SCORE.RESTR.norm>
0

>  <SCORE.SYSTEM>
0

>  <SCORE.SYSTEM.CONST>
0

>  <SCORE.SYSTEM.DIHEDRAL>
0

>  <SCORE.SYSTEM.SOLV>
0

>  <SCORE.SYSTEM.norm>
0

>  <SCORE.heavy>
40

>  <SCORE.norm>
-0.607675

>  <RMSD>
7.712

$$$$
1nta_lig
 OpenBabel11021811403D
libRbt.so/2013.1/901 2013/11/27
 40 42  0  0  0  0  0  0  0  0999 V2000
   -1.8561   37.3367   -7.7000 C   0  0  0  0  0  0  0  0  0  0  0  0
   -1.9958   38.5966   -7.5173 N   0  0  0  0  0  0  0  0  0  0  0  0
    1.4012   35.1738    1.5748 C   0  0  0  0  0  0  0  0  0  0  0  0
    0.9381   36.2698    1.3475 O   0  0  0  0  0  0  0  0  0  0  0  0
    0.9239   39.0504   -2.3256 C   0  0  0  0  0  0  0  0  0  0  0  0
    0.0648   39.8800   -2.8580 N   0  0  0  0  0  0  0  0  0  0  0  0
   -0.5786   32.6715    0.6367 C   0  0  0  0  0  0  0  0  0  0  0  0
    4.7583   37.8787    0.0320 C   0  0  0  0  0  0  0  0  0  0  0  0
   -0.6555   36.5525   -5.8174 C   0  0  2  0  0  0  0  0  0  0  0  0
   -0.6976   36.8282   -7.3077 N   0  0  0  0  0  0  0  0  0  0  0  0
    1.5877   34.2640   -1.7427 C   0  0  2  0  0  0  0  0  0  0  0  0
    4.5176   34.8041   -1.3496 C   0  0  1  0  0  0  0  0  0  0  0  0
    3.6440   33.9841   -0.6554 O   0  0  0  0  0  0  0  0  0  0  0  0
    0.3859   37.4633   -5.1401 C   0  0  1  0  0  0  0  0  0  0  0  0
   -0.0448   38.7796   -5.3127 O   0  0  0  0  0  0  0  0  0  0  0  0
    2.4455   34.5238   -0.5091 C   0  0  2  0  0  0  0  0  0  0  0  0
    5.3735   35.7111   -0.4931 C   0  0  1  0  0  0  0  0  0  0  0  0
    4.5222   36.4799    0.3474 N   0  0  0  0  0  0  0  0  0  0  0  0
    0.4885   37.2107   -3.6300 C   0  0  2  0  0  0  0  0  0  0  0  0
    1.4860   38.0678   -2.9456 N   0  0  0  0  0  0  0  0  0  0  0  0
    1.5469   34.0729    0.5587 C   0  0  1  0  0  0  0  0  0  0  0  0
    2.1196   32.8918    1.1235 O   0  0  0  0  0  0  0  0  0  0  0  0
    6.2439   34.9756    0.2990 C   0  0  2  0  0  0  0  0  0  0  0  0
    7.1913   35.8667    0.8312 O   0  0  0  0  0  0  0  0  0  0  0  0
    0.8583   35.7508   -3.4205 C   0  0  1  0  0  0  0  0  0  0  0  0
    0.9484   35.5219   -2.0229 O   0  0  0  0  0  0  0  0  0  0  0  0
    0.2502   33.7226   -0.0342 C   0  0  1  0  0  0  0  0  0  0  0  0
    0.5687   33.3637   -1.3730 O   0  0  0  0  0  0  0  0  0  0  0  0
    6.9461   33.9291   -0.5259 C   0  0  1  0  0  0  0  0  0  0  0  0
    7.6248   33.0571    0.3292 O   0  0  0  0  0  0  0  0  0  0  0  0
   -0.2144   34.8273   -4.0646 C   0  0  2  0  0  0  0  0  0  0  0  0
    0.1443   33.4634   -3.8488 O   0  0  0  0  0  0  0  0  0  0  0  0
    5.9444   33.1413   -1.2995 C   0  0  1  0  0  0  0  0  0  0  0  0
    5.2743   34.0224   -2.1539 O   0  0  0  0  0  0  0  0  0  0  0  0
   -0.2795   35.1051   -5.5811 C   0  0  1  0  0  0  0  0  0  0  0  0
   -1.2657   34.2597   -6.1954 O   0  0  0  0  0  0  0  0  0  0  0  0
    6.6271   32.0708   -2.1737 C   0  0  0  0  0  0  0  0  0  0  0  0
    7.3969   32.7129   -3.1838 O   0  0  0  0  0  0  0  0  0  0  0  0
   -2.7766   36.6089   -8.2340 N   0  0  0  0  0  0  0  0  0  0  0  0
    1.2794   39.2007   -1.1101 N   0  0  0  0  0  0  0  0  0  0  0  0
  1  2  1  0  0  0  0
  1 39  1  0  0  0  0
  3  4  1  0  0  0  0
  5  6  1  0  0  0  0
  5 40  1  0  0  0  0
  9 10  1  6  0  0  0
  9 14  1  0  0  0  0
  9 35  1  0  0  0  0
 10  1  1  0  0  0  0
 11 16  1  0  0  0  0
 11 28  1  0  0  0  0
 11 26  1  1  0  0  0
 12 17  1  0  0  0  0
 12 34  1  0  0  0  0
 12 13  1  1  0  0  0
 14 15  1  1  0  0  0
 14 19  1  0  0  0  0
 16 13  1  6  0  0  0
 16 21  1  0  0  0  0
 17 18  1  1  0  0  0
 17 23  1  0  0  0  0
 18  8  1  0  0  0  0
 19 20  1  6  0  0  0
 19 25  1  0  0  0  0
 20  5  1  0  0  0  0
 21  3  1  1  0  0  0
 21 22  1  0  0  0  0
 21 27  1  0  0  0  0
 23 24  1  6  0  0  0
 23 29  1  0  0  0  0
 25 26  1  1  0  0  0
 25 31  1  0  0  0  0
 27  7  1  1  0  0  0
 27 28  1  0  0  0  0
 29 30  1  1  0  0  0
 29 33  1  0  0  0  0
 31 32  1  6  0  0  0
 31 35  1  0  0  0  0
 33 34  1  0  0  0  0
 33 37  1  6  0  0  0
 35 36  1  6  0  0  0
 37 38  1  0  0  0  0
M  END
>  <CHROM.1>
-114.70408197,81.42486917,142.18062560,92.76931498,84.35685383,-119.93952305
101.47824080,-51.41851421,61.74652616,-166.69500826,-66.33416499,2.11463782
35.46428204,-2.30189531,-2.63651887,-0.62337290,1.22345974

>  <Name>
1nta_lig

>  <RI>
0

>  <Rbt.Current_Directory>
/home/itssahil/PROJECTS/Mol_Feturizer/New_Systems/rnas/1nta

>  <Rbt.Executable>
rbdock ($Id: //depot/dev/client3/rdock/2013.1/src/exe/rbdock.cxx#4 $)

>  <Rbt.Library>
libRbt.so (2013.1, Build901 2013/11/27)

>  <Rbt.Parameter_File>
/export/apps/rDock/src/rDock_2013.1_src/data/scripts/dock_solv.prm

>  <Rbt.Receptor>
prm/pocket_docking_5.prm

>  <SCORE>
-21.2952

>  <SCORE.INTER>
-2.31605

>  <SCORE.INTER.CONST>
1

>  <SCORE.INTER.POLAR>
0

>  <SCORE.INTER.ROT>
11

>  <SCORE.INTER.SOLV>
11.4193

>  <SCORE.INTER.VDW>
-16.2838

>  <SCORE.INTER.norm>
-0.0579013

>  <SCORE.INTRA>
-18.9888

>  <SCORE.INTRA.DIHEDRAL>
-1.60246

>  <SCORE.INTRA.DIHEDRAL.0>
19.0336

>  <SCORE.INTRA.POLAR>
0

>  <SCORE.INTRA.POLAR.0>
0

>  <SCORE.INTRA.REPUL>
0

>  <SCORE.INTRA.REPUL.0>
0

>  <SCORE.INTRA.SOLV>
-3.56637

>  <SCORE.INTRA.SOLV.lig_0>
-97.5861

>  <SCORE.INTRA.VDW>
-16.4044

>  <SCORE.INTRA.VDW.0>
11.7669

>  <SCORE.INTRA.norm>
-0.47472

>  <SCORE.RESTR>
0.00961801

>  <SCORE.RESTR.CAVITY>
0.00961801

>  <SCORE.RESTR.norm>
0.00024045

>  <SCORE.SYSTEM>
0

>  <SCORE.SYSTEM.CONST>
0

>  <SCORE.SYSTEM.DIHEDRAL>
0

>  <SCORE.SYSTEM.SOLV>
0

>  <SCORE.SYSTEM.norm>
0

>  <SCORE.heavy>
40

>  <SCORE.norm>
-0.532381

>  <RMSD>
7.715

$$$$
1nta_lig
 OpenBabel11021811403D
libRbt.so/2013.1/901 2013/11/27
 40 42  0  0  0  0  0  0  0  0999 V2000
   -1.0623   40.4749   -7.2871 C   0  0  0  0  0  0  0  0  0  0  0  0
   -2.1396   40.3440   -7.9671 N   0  0  0  0  0  0  0  0  0  0  0  0
   -0.9629   32.6168   -1.3016 C   0  0  0  0  0  0  0  0  0  0  0  0
   -0.7714   32.5768   -0.1062 O   0  0  0  0  0  0  0  0  0  0  0  0
    1.0175   38.3043   -1.8146 C   0  0  0  0  0  0  0  0  0  0  0  0
    0.3519   37.6817   -0.8769 N   0  0  0  0  0  0  0  0  0  0  0  0
   -0.9396   31.4475   -4.4150 C   0  0  0  0  0  0  0  0  0  0  0  0
    2.8123   35.7441    1.3300 C   0  0  0  0  0  0  0  0  0  0  0  0
   -0.4890   38.4686   -6.1706 C   0  0  2  0  0  0  0  0  0  0  0  0
   -0.2417   39.4353   -7.3122 N   0  0  0  0  0  0  0  0  0  0  0  0
    1.1536   34.2169   -3.4988 C   0  0  2  0  0  0  0  0  0  0  0  0
    3.1419   34.3655   -1.5840 C   0  0  1  0  0  0  0  0  0  0  0  0
    2.3300   33.2517   -1.7174 O   0  0  0  0  0  0  0  0  0  0  0  0
    0.6131   38.6159   -5.1045 C   0  0  1  0  0  0  0  0  0  0  0  0
    0.5166   39.9094   -4.5893 O   0  0  0  0  0  0  0  0  0  0  0  0
    1.1094   33.5565   -2.1251 C   0  0  2  0  0  0  0  0  0  0  0  0
    3.8890   34.4693   -0.2726 C   0  0  1  0  0  0  0  0  0  0  0  0
    2.9498   34.4006    0.7929 N   0  0  0  0  0  0  0  0  0  0  0  0
    0.4263   37.6424   -3.9331 C   0  0  2  0  0  0  0  0  0  0  0  0
    1.4732   37.7534   -2.8891 N   0  0  0  0  0  0  0  0  0  0  0  0
    0.1113   32.5056   -2.3500 C   0  0  1  0  0  0  0  0  0  0  0  0
    0.7950   31.2523   -2.2892 O   0  0  0  0  0  0  0  0  0  0  0  0
    4.8031   33.4341   -0.1349 C   0  0  2  0  0  0  0  0  0  0  0  0
    5.6509   33.7549    0.9390 O   0  0  0  0  0  0  0  0  0  0  0  0
    0.4268   36.2280   -4.4911 C   0  0  1  0  0  0  0  0  0  0  0  0
    0.2503   35.3325   -3.4045 O   0  0  0  0  0  0  0  0  0  0  0  0
   -0.4451   32.6662   -3.6992 C   0  0  1  0  0  0  0  0  0  0  0  0
    0.5914   33.3158   -4.4248 O   0  0  0  0  0  0  0  0  0  0  0  0
    5.6189   33.2844   -1.3920 C   0  0  1  0  0  0  0  0  0  0  0  0
    6.3530   32.0978   -1.3182 O   0  0  0  0  0  0  0  0  0  0  0  0
   -0.7134   36.0624   -5.5357 C   0  0  2  0  0  0  0  0  0  0  0  0
   -0.7032   34.7277   -6.0394 O   0  0  0  0  0  0  0  0  0  0  0  0
    4.7136   33.2022   -2.5736 C   0  0  1  0  0  0  0  0  0  0  0  0
    3.9872   34.3952   -2.6400 O   0  0  0  0  0  0  0  0  0  0  0  0
   -0.4838   37.0498   -6.6990 C   0  0  1  0  0  0  0  0  0  0  0  0
   -1.5279   36.9114   -7.6766 O   0  0  0  0  0  0  0  0  0  0  0  0
    5.5135   33.0683   -3.8845 C   0  0  0  0  0  0  0  0  0  0  0  0
    5.9931   31.7340   -4.0057 O   0  0  0  0  0  0  0  0  0  0  0  0
   -0.7925   41.5430   -6.6174 N   0  0  0  0  0  0  0  0  0  0  0  0
    1.2357   39.5565   -1.7112 N   0  0  0  0  0  0  0  0  0  0  0  0
  1  2  1  0  0  0  0
  1 39  1  0  0  0  0
  3  4  1  0  0  0  0
  5  6  1  0  0  0  0
  5 40  1  0  0  0  0
  9 10  1  6  0  0  0
  9 14  1  0  0  0  0
  9 35  1  0  0  0  0
 10  1  1  0  0  0  0
 11 16  1  0  0  0  0
 11 28  1  0  0  0  0
 11 26  1  1  0  0  0
 12 17  1  0  0  0  0
 12 34  1  0  0  0  0
 12 13  1  1  0  0  0
 14 15  1  1  0  0  0
 14 19  1  0  0  0  0
 16 13  1  6  0  0  0
 16 21  1  0  0  0  0
 17 18  1  1  0  0  0
 17 23  1  0  0  0  0
 18  8  1  0  0  0  0
 19 20  1  1  0  0  0
 19 25  1  0  0  0  0
 20  5  1  0  0  0  0
 21  3  1  1  0  0  0
 21 22  1  0  0  0  0
 21 27  1  0  0  0  0
 23 24  1  1  0  0  0
 23 29  1  0  0  0  0
 25 26  1  1  0  0  0
 25 31  1  0  0  0  0
 27  7  1  6  0  0  0
 27 28  1  0  0  0  0
 29 30  1  1  0  0  0
 29 33  1  0  0  0  0
 31 32  1  6  0  0  0
 31 35  1  0  0  0  0
 33 34  1  0  0  0  0
 33 37  1  6  0  0  0
 35 36  1  6  0  0  0
 37 38  1  0  0  0  0
M  END
>  <CHROM.1>
-104.89788663,-92.16914413,165.81632880,130.56075409,61.38231430,-105.54669756
107.71820777,82.32715198,-57.04797271,-135.67778417,76.52747460,1.43768200
35.37360387,-3.25285277,-2.35074182,0.76924061,3.03918657

>  <Name>
1nta_lig

>  <RI>
0

>  <Rbt.Current_Directory>
/home/itssahil/PROJECTS/Mol_Feturizer/New_Systems/rnas/1nta

>  <Rbt.Executable>
rbdock ($Id: //depot/dev/client3/rdock/2013.1/src/exe/rbdock.cxx#4 $)

>  <Rbt.Library>
libRbt.so (2013.1, Build901 2013/11/27)

>  <Rbt.Parameter_File>
/export/apps/rDock/src/rDock_2013.1_src/data/scripts/dock_solv.prm

>  <Rbt.Receptor>
prm/pocket_docking_7.prm

>  <SCORE>
-27.0412

>  <SCORE.INTER>
-8.27681

>  <SCORE.INTER.CONST>
1

>  <SCORE.INTER.POLAR>
-0.702283

>  <SCORE.INTER.ROT>
11

>  <SCORE.INTER.SOLV>
12.9465

>  <SCORE.INTER.VDW>
-18.4258

>  <SCORE.INTER.norm>
-0.20692

>  <SCORE.INTRA>
-18.7644

>  <SCORE.INTRA.DIHEDRAL>
0.0228688

>  <SCORE.INTRA.DIHEDRAL.0>
19.0336

>  <SCORE.INTRA.POLAR>
0

>  <SCORE.INTRA.POLAR.0>
0

>  <SCORE.INTRA.REPUL>
0.0426657

>  <SCORE.INTRA.REPUL.0>
0

>  <SCORE.INTRA.SOLV>
-4.13182

>  <SCORE.INTRA.SOLV.lig_0>
-97.5861

>  <SCORE.INTRA.VDW>
-16.9232

>  <SCORE.INTRA.VDW.0>
11.7669

>  <SCORE.INTRA.norm>
-0.46911

>  <SCORE.RESTR>
0

>  <SCORE.RESTR.CAVITY>
0

>  <SCORE.RESTR.norm>
0

>  <SCORE.SYSTEM>
0

>  <SCORE.SYSTEM.CONST>
0

>  <SCORE.SYSTEM.DIHEDRAL>
0

>  <SCORE.SYSTEM.SOLV>
0

>  <SCORE.SYSTEM.norm>
0

>  <SCORE.heavy>
40

>  <SCORE.norm>
-0.67603

>  <RMSD>
7.716

$$$$
1nta_lig
 OpenBabel11021811403D
libRbt.so/2013.1/901 2013/11/27
 40 42  0  0  0  0  0  0  0  0999 V2000
   -4.8171   40.9621   -1.3579 C   0  0  0  0  0  0  0  0  0  0  0  0
   -4.6504   41.9515   -2.1537 N   0  0  0  0  0  0  0  0  0  0  0  0
    1.8339   34.6543    0.5216 C   0  0  0  0  0  0  0  0  0  0  0  0
    2.0851   33.5333    0.9058 O   0  0  0  0  0  0  0  0  0  0  0  0
   -2.6903   34.8719   -0.3575 C   0  0  0  0  0  0  0  0  0  0  0  0
   -2.3591   34.0211   -1.2936 N   0  0  0  0  0  0  0  0  0  0  0  0
    2.7694   33.3808   -2.4049 C   0  0  0  0  0  0  0  0  0  0  0  0
    6.2899   38.0225    1.1399 C   0  0  0  0  0  0  0  0  0  0  0  0
   -3.0461   39.3923   -1.3596 C   0  0  2  0  0  0  0  0  0  0  0  0
   -3.7361   40.5704   -0.7001 N   0  0  0  0  0  0  0  0  0  0  0  0
    1.2455   36.6276   -2.2403 C   0  0  2  0  0  0  0  0  0  0  0  0
    3.0046   37.9587    0.5907 C   0  0  1  0  0  0  0  0  0  0  0  0
    2.7002   37.6715   -0.7294 O   0  0  0  0  0  0  0  0  0  0  0  0
   -2.8842   38.2407   -0.3494 C   0  0  1  0  0  0  0  0  0  0  0  0
   -4.1673   37.8282    0.0131 O   0  0  0  0  0  0  0  0  0  0  0  0
    1.8726   36.6471   -0.8505 C   0  0  2  0  0  0  0  0  0  0  0  0
    4.1749   38.8950    0.7967 C   0  0  1  0  0  0  0  0  0  0  0  0
    5.3083   38.3619    0.1234 N   0  0  0  0  0  0  0  0  0  0  0  0
   -2.1688   37.0268   -0.9572 C   0  0  2  0  0  0  0  0  0  0  0  0
   -1.9914   35.8999   -0.0104 N   0  0  0  0  0  0  0  0  0  0  0  0
    2.3658   35.2700   -0.7447 C   0  0  1  0  0  0  0  0  0  0  0  0
    3.7935   35.3295   -0.7557 O   0  0  0  0  0  0  0  0  0  0  0  0
    3.9009   40.1569    0.2880 C   0  0  2  0  0  0  0  0  0  0  0  0
    4.8876   41.0337    0.7704 O   0  0  0  0  0  0  0  0  0  0  0  0
   -0.8049   37.4823   -1.4512 C   0  0  1  0  0  0  0  0  0  0  0  0
   -0.1494   36.3572   -2.0153 O   0  0  0  0  0  0  0  0  0  0  0  0
    1.9231   34.5196   -1.9265 C   0  0  1  0  0  0  0  0  0  0  0  0
    1.7689   35.5158   -2.9299 O   0  0  0  0  0  0  0  0  0  0  0  0
    2.5449   40.6243    0.7474 C   0  0  1  0  0  0  0  0  0  0  0  0
    2.1960   41.7748    0.0353 O   0  0  0  0  0  0  0  0  0  0  0  0
   -0.9660   38.6149   -2.5049 C   0  0  2  0  0  0  0  0  0  0  0  0
    0.3225   39.0211   -2.9634 O   0  0  0  0  0  0  0  0  0  0  0  0
    1.5269   39.5723    0.4654 C   0  0  1  0  0  0  0  0  0  0  0  0
    1.8834   38.4278    1.1853 O   0  0  0  0  0  0  0  0  0  0  0  0
   -1.6794   39.8177   -1.8526 C   0  0  1  0  0  0  0  0  0  0  0  0
   -1.8370   40.8765   -2.8112 O   0  0  0  0  0  0  0  0  0  0  0  0
    0.1261   40.0061    0.9406 C   0  0  0  0  0  0  0  0  0  0  0  0
    0.1472   40.1916    2.3513 O   0  0  0  0  0  0  0  0  0  0  0  0
   -5.9575   40.3798   -1.2074 N   0  0  0  0  0  0  0  0  0  0  0  0
   -3.7907   34.7257    0.2703 N   0  0  0  0  0  0  0  0  0  0  0  0
  1  2  1  0  0  0  0
  1 39  1  0  0  0  0
  3  4  1  0  0  0  0
  5  6  1  0  0  0  0
  5 40  1  0  0  0  0
  9 10  1  1  0  0  0
  9 14  1  0  0  0  0
  9 35  1  0  0  0  0
 10  1  1  0  0  0  0
 11 16  1  0  0  0  0
 11 28  1  0  0  0  0
 11 26  1  1  0  0  0
 12 17  1  0  0  0  0
 12 34  1  0  0  0  0
 12 13  1  6  0  0  0
 14 15  1  6  0  0  0
 14 19  1  0  0  0  0
 16 13  1  6  0  0  0
 16 21  1  0  0  0  0
 17 18  1  6  0  0  0
 17 23  1  0  0  0  0
 18  8  1  0  0  0  0
 19 20  1  1  0  0  0
 19 25  1  0  0  0  0
 20  5  1  0  0  0  0
 21  3  1  1  0  0  0
 21 22  1  0  0  0  0
 21 27  1  0  0  0  0
 23 24  1  1  0  0  0
 23 29  1  0  0  0  0
 25 26  1  6  0  0  0
 25 31  1  0  0  0  0
 27  7  1  6  0  0  0
 27 28  1  0  0  0  0
 29 30  1  6  0  0  0
 29 33  1  0  0  0  0
 31 32  1  1  0  0  0
 31 35  1  0  0  0  0
 33 34  1  0  0  0  0
 33 37  1  1  0  0  0
 35 36  1  6  0  0  0
 37 38  1  0  0  0  0
M  END
>  <CHROM.1>
-125.25277321,-97.23380891,72.16213921,166.53183526,163.07627416,-114.73816917
113.21244237,79.10614718,-178.43406477,-167.40707851,-62.27878401,0.32437864
37.90752046,-0.61316427,-2.90888583,0.18532501,-3.00786708

>  <Name>
1nta_lig

>  <RI>
0

>  <Rbt.Current_Directory>
/home/itssahil/PROJECTS/Mol_Feturizer/New_Systems/rnas/1nta

>  <Rbt.Executable>
rbdock ($Id: //depot/dev/client3/rdock/2013.1/src/exe/rbdock.cxx#4 $)

>  <Rbt.Library>
libRbt.so (2013.1, Build901 2013/11/27)

>  <Rbt.Parameter_File>
/export/apps/rDock/src/rDock_2013.1_src/data/scripts/dock_solv.prm

>  <Rbt.Receptor>
prm/pocket_docking_7.prm

>  <SCORE>
-24.2597

>  <SCORE.INTER>
1.15931

>  <SCORE.INTER.CONST>
1

>  <SCORE.INTER.POLAR>
-0.496976

>  <SCORE.INTER.ROT>
11

>  <SCORE.INTER.SOLV>
6.77882

>  <SCORE.INTER.VDW>
-10.7635

>  <SCORE.INTER.norm>
0.0289828

>  <SCORE.INTRA>
-25.419

>  <SCORE.INTRA.DIHEDRAL>
-10.4279

>  <SCORE.INTRA.DIHEDRAL.0>
19.0336

>  <SCORE.INTRA.POLAR>
0

>  <SCORE.INTRA.POLAR.0>
0

>  <SCORE.INTRA.REPUL>
0

>  <SCORE.INTRA.REPUL.0>
0

>  <SCORE.INTRA.SOLV>
-4.26306

>  <SCORE.INTRA.SOLV.lig_0>
-97.5861

>  <SCORE.INTRA.VDW>
-18.0735

>  <SCORE.INTRA.VDW.0>
11.7669

>  <SCORE.INTRA.norm>
-0.635475

>  <SCORE.RESTR>
0

>  <SCORE.RESTR.CAVITY>
0

>  <SCORE.RESTR.norm>
0

>  <SCORE.SYSTEM>
0

>  <SCORE.SYSTEM.CONST>
0

>  <SCORE.SYSTEM.DIHEDRAL>
0

>  <SCORE.SYSTEM.SOLV>
0

>  <SCORE.SYSTEM.norm>
0

>  <SCORE.heavy>
40

>  <SCORE.norm>
-0.606492

>  <RMSD>
7.717

$$$$
1nta_lig
 OpenBabel11021811403D
libRbt.so/2013.1/901 2013/11/27
 40 42  0  0  0  0  0  0  0  0999 V2000
   -2.5737   36.8532    5.2492 C   0  0  0  0  0  0  0  0  0  0  0  0
   -2.3146   37.5607    6.2849 N   0  0  0  0  0  0  0  0  0  0  0  0
   -0.7689   36.7446   -4.6645 C   0  0  0  0  0  0  0  0  0  0  0  0
   -1.2095   37.3657   -5.6065 O   0  0  0  0  0  0  0  0  0  0  0  0
   -3.4497   34.8780   -0.6132 C   0  0  0  0  0  0  0  0  0  0  0  0
   -4.5285   35.1068    0.0895 N   0  0  0  0  0  0  0  0  0  0  0  0
    0.5147   39.7007   -3.8430 C   0  0  0  0  0  0  0  0  0  0  0  0
    1.0114   31.9391   -3.5772 C   0  0  0  0  0  0  0  0  0  0  0  0
   -1.5584   36.8233    3.1117 C   0  0  2  0  0  0  0  0  0  0  0  0
   -1.5187   36.4228    4.5736 N   0  0  0  0  0  0  0  0  0  0  0  0
    0.7239   36.9332   -1.5655 C   0  0  2  0  0  0  0  0  0  0  0  0
    1.7904   34.3098   -2.0482 C   0  0  1  0  0  0  0  0  0  0  0  0
    1.7916   35.3670   -2.9425 O   0  0  0  0  0  0  0  0  0  0  0  0
   -1.9019   35.6021    2.2379 C   0  0  1  0  0  0  0  0  0  0  0  0
   -3.1858   35.1883    2.5960 O   0  0  0  0  0  0  0  0  0  0  0  0
    0.7036   36.1133   -2.8510 C   0  0  2  0  0  0  0  0  0  0  0  0
    2.6435   33.1250   -2.4447 C   0  0  1  0  0  0  0  0  0  0  0  0
    2.2451   32.6900   -3.7387 N   0  0  0  0  0  0  0  0  0  0  0  0
   -1.9330   35.9445    0.7423 C   0  0  2  0  0  0  0  0  0  0  0  0
   -2.2562   34.7900   -0.1299 N   0  0  0  0  0  0  0  0  0  0  0  0
    0.4250   37.1551   -3.8449 C   0  0  1  0  0  0  0  0  0  0  0  0
    1.6006   37.3037   -4.6436 O   0  0  0  0  0  0  0  0  0  0  0  0
    3.9883   33.4663   -2.4784 C   0  0  2  0  0  0  0  0  0  0  0  0
    4.7283   32.2742   -2.5573 O   0  0  0  0  0  0  0  0  0  0  0  0
   -0.5689   36.4942    0.3564 C   0  0  1  0  0  0  0  0  0  0  0  0
   -0.6043   36.8123   -1.0261 O   0  0  0  0  0  0  0  0  0  0  0  0
    0.1772   38.4208   -3.1432 C   0  0  1  0  0  0  0  0  0  0  0  0
    0.8958   38.2852   -1.9233 O   0  0  0  0  0  0  0  0  0  0  0  0
    4.3710   34.2135   -1.2278 C   0  0  1  0  0  0  0  0  0  0  0  0
    5.6507   34.7495   -1.3930 O   0  0  0  0  0  0  0  0  0  0  0  0
   -0.2377   37.7541    1.2059 C   0  0  2  0  0  0  0  0  0  0  0  0
    1.0396   38.2608    0.8224 O   0  0  0  0  0  0  0  0  0  0  0  0
    3.4183   35.3375   -1.0008 C   0  0  1  0  0  0  0  0  0  0  0  0
    2.1425   34.7900   -0.8333 O   0  0  0  0  0  0  0  0  0  0  0  0
   -0.2067   37.3661    2.6991 C   0  0  1  0  0  0  0  0  0  0  0  0
    0.0991   38.5182    3.5016 O   0  0  0  0  0  0  0  0  0  0  0  0
    3.7654   36.1158    0.2837 C   0  0  0  0  0  0  0  0  0  0  0  0
    3.6744   35.2391    1.4010 O   0  0  0  0  0  0  0  0  0  0  0  0
   -3.7789   36.5798    4.8821 N   0  0  0  0  0  0  0  0  0  0  0  0
   -3.5407   34.6990   -1.8726 N   0  0  0  0  0  0  0  0  0  0  0  0
  1  2  1  0  0  0  0
  1 39  1  0  0  0  0
  3  4  1  0  0  0  0
  5  6  1  0  0  0  0
  5 40  1  0  0  0  0
  9 10  1  1  0  0  0
  9 14  1  0  0  0  0
  9 35  1  0  0  0  0
 10  1  1  0  0  0  0
 11 16  1  0  0  0  0
 11 28  1  0  0  0  0
 11 26  1  6  0  0  0
 12 17  1  0  0  0  0
 12 34  1  0  0  0  0
 12 13  1  6  0  0  0
 14 15  1  1  0  0  0
 14 19  1  0  0  0  0
 16 13  1  6  0  0  0
 16 21  1  0  0  0  0
 17 18  1  6  0  0  0
 17 23  1  0  0  0  0
 18  8  1  0  0  0  0
 19 20  1  6  0  0  0
 19 25  1  0  0  0  0
 20  5  1  0  0  0  0
 21  3  1  6  0  0  0
 21 22  1  0  0  0  0
 21 27  1  0  0  0  0
 23 24  1  1  0  0  0
 23 29  1  0  0  0  0
 25 26  1  6  0  0  0
 25 31  1  0  0  0  0
 27  7  1  6  0  0  0
 27 28  1  0  0  0  0
 29 30  1  6  0  0  0
 29 33  1  0  0  0  0
 31 32  1  6  0  0  0
 31 35  1  0  0  0  0
 33 34  1  0  0  0  0
 33 37  1  1  0  0  0
 35 36  1  1  0  0  0
 37 38  1  0  0  0  0
M  END
>  <CHROM.1>
-105.87449614,-124.61772184,132.43083190,155.52252897,71.84964836,-77.39924196
107.08437918,-50.51319937,-176.45308236,-161.78545466,-61.21524641,0.32782186
35.94029972,-0.53229124,-2.23802868,0.36781065,-1.56210102

>  <Name>
1nta_lig

>  <RI>
0

>  <Rbt.Current_Directory>
/home/itssahil/PROJECTS/Mol_Feturizer/New_Systems/rnas/1nta

>  <Rbt.Executable>
rbdock ($Id: //depot/dev/client3/rdock/2013.1/src/exe/rbdock.cxx#4 $)

>  <Rbt.Library>
libRbt.so (2013.1, Build901 2013/11/27)

>  <Rbt.Parameter_File>
/export/apps/rDock/src/rDock_2013.1_src/data/scripts/dock_solv.prm

>  <Rbt.Receptor>
prm/pocket_docking_4.prm

>  <SCORE>
-22.9798

>  <SCORE.INTER>
-3.18846

>  <SCORE.INTER.CONST>
1

>  <SCORE.INTER.POLAR>
-1.46883

>  <SCORE.INTER.ROT>
11

>  <SCORE.INTER.SOLV>
11.145

>  <SCORE.INTER.VDW>
-11.8779

>  <SCORE.INTER.norm>
-0.0797114

>  <SCORE.INTRA>
-19.7914

>  <SCORE.INTRA.DIHEDRAL>
-4.2767

>  <SCORE.INTRA.DIHEDRAL.0>
19.0336

>  <SCORE.INTRA.POLAR>
0

>  <SCORE.INTRA.POLAR.0>
0

>  <SCORE.INTRA.REPUL>
0

>  <SCORE.INTRA.REPUL.0>
0

>  <SCORE.INTRA.SOLV>
-5.21811

>  <SCORE.INTRA.SOLV.lig_0>
-97.5861

>  <SCORE.INTRA.VDW>
-15.044

>  <SCORE.INTRA.VDW.0>
11.7669

>  <SCORE.INTRA.norm>
-0.494785

>  <SCORE.RESTR>
0

>  <SCORE.RESTR.CAVITY>
0

>  <SCORE.RESTR.norm>
0

>  <SCORE.SYSTEM>
0

>  <SCORE.SYSTEM.CONST>
0

>  <SCORE.SYSTEM.DIHEDRAL>
0

>  <SCORE.SYSTEM.SOLV>
0

>  <SCORE.SYSTEM.norm>
0

>  <SCORE.heavy>
40

>  <SCORE.norm>
-0.574496

>  <RMSD>
7.727

$$$$
1nta_lig
 OpenBabel11021811403D
libRbt.so/2013.1/901 2013/11/27
 40 42  0  0  0  0  0  0  0  0999 V2000
    0.9949   33.3908  -10.0118 C   0  0  0  0  0  0  0  0  0  0  0  0
    0.8771   34.6275  -10.3229 N   0  0  0  0  0  0  0  0  0  0  0  0
   -4.6336   30.9780   -2.1269 C   0  0  0  0  0  0  0  0  0  0  0  0
   -5.1914   31.6760   -1.3090 O   0  0  0  0  0  0  0  0  0  0  0  0
   -2.1772   35.3848   -4.9796 C   0  0  0  0  0  0  0  0  0  0  0  0
   -2.0385   36.5001   -5.6480 N   0  0  0  0  0  0  0  0  0  0  0  0
   -3.1730   28.1323   -3.0379 C   0  0  0  0  0  0  0  0  0  0  0  0
   -3.7613   30.4505    2.1428 C   0  0  0  0  0  0  0  0  0  0  0  0
    0.2403   32.7952   -7.8493 C   0  0  2  0  0  0  0  0  0  0  0  0
    1.3909   33.1496   -8.7710 N   0  0  0  0  0  0  0  0  0  0  0  0
   -1.3311   31.2138   -3.0788 C   0  0  2  0  0  0  0  0  0  0  0  0
   -2.4263   32.5350    0.0802 C   0  0  1  0  0  0  0  0  0  0  0  0
   -1.6375   31.8878   -0.8560 O   0  0  0  0  0  0  0  0  0  0  0  0
    0.0885   33.8694   -6.7557 C   0  0  1  0  0  0  0  0  0  0  0  0
   -0.2384   35.0654   -7.3965 O   0  0  0  0  0  0  0  0  0  0  0  0
   -2.2987   31.5918   -1.9625 C   0  0  2  0  0  0  0  0  0  0  0  0
   -2.2423   32.0768    1.5102 C   0  0  1  0  0  0  0  0  0  0  0  0
   -2.4451   30.6705    1.5672 N   0  0  0  0  0  0  0  0  0  0  0  0
   -1.0495   33.5497   -5.7771 C   0  0  2  0  0  0  0  0  0  0  0  0
   -1.2215   34.5613   -4.7071 N   0  0  0  0  0  0  0  0  0  0  0  0
   -3.2272   30.4572   -1.9986 C   0  0  1  0  0  0  0  0  0  0  0  0
   -3.0362   29.7151   -0.7924 O   0  0  0  0  0  0  0  0  0  0  0  0
   -0.9643   32.3666    1.9673 C   0  0  2  0  0  0  0  0  0  0  0  0
   -0.9610   32.1909    3.3617 O   0  0  0  0  0  0  0  0  0  0  0  0
   -0.7603   32.1981   -5.1435 C   0  0  1  0  0  0  0  0  0  0  0  0
   -1.8171   31.9059   -4.2426 O   0  0  0  0  0  0  0  0  0  0  0  0
   -2.8743   29.5963   -3.1344 C   0  0  1  0  0  0  0  0  0  0  0  0
   -1.4862   29.8362   -3.3308 O   0  0  0  0  0  0  0  0  0  0  0  0
   -0.6007   33.7910    1.6394 C   0  0  1  0  0  0  0  0  0  0  0  0
    0.7606   33.9812    1.8903 O   0  0  0  0  0  0  0  0  0  0  0  0
   -0.6505   31.1025   -6.2418 C   0  0  2  0  0  0  0  0  0  0  0  0
   -0.3896   29.8415   -5.6276 O   0  0  0  0  0  0  0  0  0  0  0  0
   -0.8518   34.0552    0.1938 C   0  0  1  0  0  0  0  0  0  0  0  0
   -2.2165   33.8658   -0.0451 O   0  0  0  0  0  0  0  0  0  0  0  0
    0.5087   31.4555   -7.1972 C   0  0  1  0  0  0  0  0  0  0  0  0
    0.6272   30.4532   -8.2201 O   0  0  0  0  0  0  0  0  0  0  0  0
   -0.5099   35.5118   -0.1774 C   0  0  0  0  0  0  0  0  0  0  0  0
    0.8982   35.6984   -0.0915 O   0  0  0  0  0  0  0  0  0  0  0  0
    0.7504   32.4407  -10.8484 N   0  0  0  0  0  0  0  0  0  0  0  0
   -3.3226   35.0581   -4.5239 N   0  0  0  0  0  0  0  0  0  0  0  0
  1  2  1  0  0  0  0
  1 39  1  0  0  0  0
  3  4  1  0  0  0  0
  5  6  1  0  0  0  0
  5 40  1  0  0  0  0
  9 10  1  6  0  0  0
  9 14  1  0  0  0  0
  9 35  1  0  0  0  0
 10  1  1  0  0  0  0
 11 16  1  0  0  0  0
 11 28  1  0  0  0  0
 11 26  1  6  0  0  0
 12 17  1  0  0  0  0
 12 34  1  0  0  0  0
 12 13  1  6  0  0  0
 14 15  1  6  0  0  0
 14 19  1  0  0  0  0
 16 13  1  1  0  0  0
 16 21  1  0  0  0  0
 17 18  1  6  0  0  0
 17 23  1  0  0  0  0
 18  8  1  0  0  0  0
 19 20  1  1  0  0  0
 19 25  1  0  0  0  0
 20  5  1  0  0  0  0
 21  3  1  6  0  0  0
 21 22  1  0  0  0  0
 21 27  1  0  0  0  0
 23 24  1  1  0  0  0
 23 29  1  0  0  0  0
 25 26  1  1  0  0  0
 25 31  1  0  0  0  0
 27  7  1  1  0  0  0
 27 28  1  0  0  0  0
 29 30  1  6  0  0  0
 29 33  1  0  0  0  0
 31 32  1  1  0  0  0
 31 35  1  0  0  0  0
 33 34  1  0  0  0  0
 33 37  1  1  0  0  0
 35 36  1  6  0  0  0
 37 38  1  0  0  0  0
M  END
>  <CHROM.1>
-115.73552738,99.51003645,151.66351218,137.91234827,165.61993524,-103.78407521
98.96590533,-89.18903469,-62.56168953,-144.03143033,68.56353428,-1.31539396
32.47113608,-3.23825584,-1.01344707,1.13030632,1.15577120

>  <Name>
1nta_lig

>  <RI>
0

>  <Rbt.Current_Directory>
/home/itssahil/PROJECTS/Mol_Feturizer/New_Systems/rnas/1nta

>  <Rbt.Executable>
rbdock ($Id: //depot/dev/client3/rdock/2013.1/src/exe/rbdock.cxx#4 $)

>  <Rbt.Library>
libRbt.so (2013.1, Build901 2013/11/27)

>  <Rbt.Parameter_File>
/export/apps/rDock/src/rDock_2013.1_src/data/scripts/dock_solv.prm

>  <Rbt.Receptor>
prm/pocket_docking_8.prm

>  <SCORE>
-25.323

>  <SCORE.INTER>
-5.57212

>  <SCORE.INTER.CONST>
1

>  <SCORE.INTER.POLAR>
-1.10067

>  <SCORE.INTER.ROT>
11

>  <SCORE.INTER.SOLV>
12.1618

>  <SCORE.INTER.VDW>
-15.0331

>  <SCORE.INTER.norm>
-0.139303

>  <SCORE.INTRA>
-19.7509

>  <SCORE.INTRA.DIHEDRAL>
0.103053

>  <SCORE.INTRA.DIHEDRAL.0>
19.0336

>  <SCORE.INTRA.POLAR>
0

>  <SCORE.INTRA.POLAR.0>
0

>  <SCORE.INTRA.REPUL>
0

>  <SCORE.INTRA.REPUL.0>
0

>  <SCORE.INTRA.SOLV>
-3.83993

>  <SCORE.INTRA.SOLV.lig_0>
-97.5861

>  <SCORE.INTRA.VDW>
-17.8825

>  <SCORE.INTRA.VDW.0>
11.7669

>  <SCORE.INTRA.norm>
-0.493773

>  <SCORE.RESTR>
0

>  <SCORE.RESTR.CAVITY>
0

>  <SCORE.RESTR.norm>
0

>  <SCORE.SYSTEM>
0

>  <SCORE.SYSTEM.CONST>
0

>  <SCORE.SYSTEM.DIHEDRAL>
0

>  <SCORE.SYSTEM.SOLV>
0

>  <SCORE.SYSTEM.norm>
0

>  <SCORE.heavy>
40

>  <SCORE.norm>
-0.633076

>  <RMSD>
7.735

$$$$
1nta_lig
 OpenBabel11021811403D
libRbt.so/2013.1/901 2013/11/27
 40 42  0  0  0  0  0  0  0  0999 V2000
    1.8768   45.0618   -5.1480 C   0  0  0  0  0  0  0  0  0  0  0  0
    0.8575   45.5698   -5.7337 N   0  0  0  0  0  0  0  0  0  0  0  0
   -1.3434   36.2269   -2.1467 C   0  0  0  0  0  0  0  0  0  0  0  0
   -2.5139   35.9569   -1.9910 O   0  0  0  0  0  0  0  0  0  0  0  0
    3.2631   40.2140   -1.3613 C   0  0  0  0  0  0  0  0  0  0  0  0
    2.3879   39.8479   -0.4615 N   0  0  0  0  0  0  0  0  0  0  0  0
   -2.2580   36.6188   -5.3202 C   0  0  0  0  0  0  0  0  0  0  0  0
    0.9618   31.9313   -3.7823 C   0  0  0  0  0  0  0  0  0  0  0  0
    1.6378   42.7314   -4.8126 C   0  0  2  0  0  0  0  0  0  0  0  0
    2.2577   43.8739   -5.5933 N   0  0  0  0  0  0  0  0  0  0  0  0
    1.0542   37.5118   -4.2607 C   0  0  2  0  0  0  0  0  0  0  0  0
    1.5888   34.4850   -2.3664 C   0  0  1  0  0  0  0  0  0  0  0  0
    1.7333   35.4743   -3.3245 O   0  0  0  0  0  0  0  0  0  0  0  0
    2.7366   41.9193   -4.1011 C   0  0  1  0  0  0  0  0  0  0  0  0
    3.3494   42.7731   -3.1827 O   0  0  0  0  0  0  0  0  0  0  0  0
    0.8157   36.4212   -3.2220 C   0  0  2  0  0  0  0  0  0  0  0  0
    2.4346   33.2488   -2.5791 C   0  0  1  0  0  0  0  0  0  0  0  0
    2.1695   32.7340   -3.8779 N   0  0  0  0  0  0  0  0  0  0  0  0
    2.1674   40.7326   -3.3121 C   0  0  2  0  0  0  0  0  0  0  0  0
    3.1986   39.9251   -2.6175 N   0  0  0  0  0  0  0  0  0  0  0  0
   -0.6008   36.1187   -3.4515 C   0  0  1  0  0  0  0  0  0  0  0  0
   -0.6688   34.8016   -4.0017 O   0  0  0  0  0  0  0  0  0  0  0  0
    3.7868   33.5450   -2.4792 C   0  0  2  0  0  0  0  0  0  0  0  0
    4.4837   32.3279   -2.3899 O   0  0  0  0  0  0  0  0  0  0  0  0
    1.4075   39.8425   -4.2828 C   0  0  1  0  0  0  0  0  0  0  0  0
    0.8804   38.7491   -3.5476 O   0  0  0  0  0  0  0  0  0  0  0  0
   -1.1292   37.0640   -4.4429 C   0  0  1  0  0  0  0  0  0  0  0  0
    0.0116   37.4375   -5.2057 O   0  0  0  0  0  0  0  0  0  0  0  0
    4.0533   34.3684   -1.2465 C   0  0  1  0  0  0  0  0  0  0  0  0
    5.3636   34.8511   -1.2977 O   0  0  0  0  0  0  0  0  0  0  0  0
    0.2683   40.6475   -4.9705 C   0  0  2  0  0  0  0  0  0  0  0  0
   -0.4388   39.7937   -5.8684 O   0  0  0  0  0  0  0  0  0  0  0  0
    3.1257   35.5348   -1.2092 C   0  0  1  0  0  0  0  0  0  0  0  0
    1.8187   35.0406   -1.1544 O   0  0  0  0  0  0  0  0  0  0  0  0
    0.8820   41.8233   -5.7592 C   0  0  1  0  0  0  0  0  0  0  0  0
   -0.1559   42.5798   -6.4036 O   0  0  0  0  0  0  0  0  0  0  0  0
    3.3543   36.3928    0.0509 C   0  0  0  0  0  0  0  0  0  0  0  0
    4.6261   37.0250   -0.0380 O   0  0  0  0  0  0  0  0  0  0  0  0
    2.4913   45.6605   -4.1856 N   0  0  0  0  0  0  0  0  0  0  0  0
    4.2603   40.9317   -1.0192 N   0  0  0  0  0  0  0  0  0  0  0  0
  1  2  1  0  0  0  0
  1 39  1  0  0  0  0
  3  4  1  0  0  0  0
  5  6  1  0  0  0  0
  5 40  1  0  0  0  0
  9 10  1  6  0  0  0
  9 14  1  0  0  0  0
  9 35  1  0  0  0  0
 10  1  1  0  0  0  0
 11 16  1  0  0  0  0
 11 28  1  0  0  0  0
 11 26  1  1  0  0  0
 12 17  1  0  0  0  0
 12 34  1  0  0  0  0
 12 13  1  6  0  0  0
 14 15  1  1  0  0  0
 14 19  1  0  0  0  0
 16 13  1  6  0  0  0
 16 21  1  0  0  0  0
 17 18  1  6  0  0  0
 17 23  1  0  0  0  0
 18  8  1  0  0  0  0
 19 20  1  6  0  0  0
 19 25  1  0  0  0  0
 20  5  1  0  0  0  0
 21  3  1  1  0  0  0
 21 22  1  0  0  0  0
 21 27  1  0  0  0  0
 23 24  1  1  0  0  0
 23 29  1  0  0  0  0
 25 26  1  1  0  0  0
 25 31  1  0  0  0  0
 27  7  1  6  0  0  0
 27 28  1  0  0  0  0
 29 30  1  6  0  0  0
 29 33  1  0  0  0  0
 31 32  1  6  0  0  0
 31 35  1  0  0  0  0
 33 34  1  0  0  0  0
 33 37  1  1  0  0  0
 35 36  1  1  0  0  0
 37 38  1  0  0  0  0
M  END
>  <CHROM.1>
-116.76826172,-92.96244652,164.64751564,169.08384482,177.66622959,-82.58249501
100.82528203,74.59362391,-175.27258114,-136.97999212,67.99564493,1.64356652
38.14039493,-3.29725926,-1.64137719,0.59670287,2.92709350

>  <Name>
1nta_lig

>  <RI>
0

>  <Rbt.Current_Directory>
/home/itssahil/PROJECTS/Mol_Feturizer/New_Systems/rnas/1nta

>  <Rbt.Executable>
rbdock ($Id: //depot/dev/client3/rdock/2013.1/src/exe/rbdock.cxx#4 $)

>  <Rbt.Library>
libRbt.so (2013.1, Build901 2013/11/27)

>  <Rbt.Parameter_File>
/export/apps/rDock/src/rDock_2013.1_src/data/scripts/dock_solv.prm

>  <Rbt.Receptor>
prm/pocket_docking_8.prm

>  <SCORE>
-27.0987

>  <SCORE.INTER>
-5.45994

>  <SCORE.INTER.CONST>
1

>  <SCORE.INTER.POLAR>
-1.28759

>  <SCORE.INTER.ROT>
11

>  <SCORE.INTER.SOLV>
12.0722

>  <SCORE.INTER.VDW>
-14.3054

>  <SCORE.INTER.norm>
-0.136498

>  <SCORE.INTRA>
-21.6387

>  <SCORE.INTRA.DIHEDRAL>
-7.17567

>  <SCORE.INTRA.DIHEDRAL.0>
19.0336

>  <SCORE.INTRA.POLAR>
0

>  <SCORE.INTRA.POLAR.0>
0

>  <SCORE.INTRA.REPUL>
0

>  <SCORE.INTRA.REPUL.0>
0

>  <SCORE.INTRA.SOLV>
-3.03859

>  <SCORE.INTRA.SOLV.lig_0>
-97.5861

>  <SCORE.INTRA.VDW>
-16.5316

>  <SCORE.INTRA.VDW.0>
11.7669

>  <SCORE.INTRA.norm>
-0.540968

>  <SCORE.RESTR>
0

>  <SCORE.RESTR.CAVITY>
0

>  <SCORE.RESTR.norm>
0

>  <SCORE.SYSTEM>
0

>  <SCORE.SYSTEM.CONST>
0

>  <SCORE.SYSTEM.DIHEDRAL>
0

>  <SCORE.SYSTEM.SOLV>
0

>  <SCORE.SYSTEM.norm>
0

>  <SCORE.heavy>
40

>  <SCORE.norm>
-0.677466

>  <RMSD>
7.742

$$$$
1nta_lig
 OpenBabel11021811403D
libRbt.so/2013.1/901 2013/11/27
 40 42  0  0  0  0  0  0  0  0999 V2000
   -5.5358   38.4621    2.1292 C   0  0  0  0  0  0  0  0  0  0  0  0
   -6.1965   37.8819    3.0603 N   0  0  0  0  0  0  0  0  0  0  0  0
    1.5443   33.0026   -2.3474 C   0  0  0  0  0  0  0  0  0  0  0  0
    0.7151   32.4499   -1.6589 O   0  0  0  0  0  0  0  0  0  0  0  0
   -0.3905   33.9103    2.0816 C   0  0  0  0  0  0  0  0  0  0  0  0
    0.4809   33.3266    1.3008 N   0  0  0  0  0  0  0  0  0  0  0  0
    0.1444   35.0448   -4.5679 C   0  0  0  0  0  0  0  0  0  0  0  0
    6.0348   34.0055    1.0202 C   0  0  0  0  0  0  0  0  0  0  0  0
   -3.4787   37.4875    1.4817 C   0  0  2  0  0  0  0  0  0  0  0  0
   -4.2245   38.5165    2.3087 N   0  0  0  0  0  0  0  0  0  0  0  0
    0.8011   36.1731   -1.2233 C   0  0  2  0  0  0  0  0  0  0  0  0
    3.4239   35.8369    0.2414 C   0  0  1  0  0  0  0  0  0  0  0  0
    3.0987   35.7318   -1.1006 O   0  0  0  0  0  0  0  0  0  0  0  0
   -2.3551   36.8487    2.3199 C   0  0  1  0  0  0  0  0  0  0  0  0
   -2.9647   36.1756    3.3797 O   0  0  0  0  0  0  0  0  0  0  0  0
    1.9281   35.1487   -1.2973 C   0  0  2  0  0  0  0  0  0  0  0  0
    4.9011   35.9648    0.5419 C   0  0  1  0  0  0  0  0  0  0  0  0
    5.5837   34.8705   -0.0571 N   0  0  0  0  0  0  0  0  0  0  0  0
   -1.5495   35.8132    1.5240 C   0  0  2  0  0  0  0  0  0  0  0  0
   -0.4554   35.1808    2.2992 N   0  0  0  0  0  0  0  0  0  0  0  0
    1.6255   34.4888   -2.5716 C   0  0  1  0  0  0  0  0  0  0  0  0
    2.6654   34.8388   -3.4872 O   0  0  0  0  0  0  0  0  0  0  0  0
    5.4141   37.1493    0.0322 C   0  0  2  0  0  0  0  0  0  0  0  0
    6.6881   37.3382    0.5948 O   0  0  0  0  0  0  0  0  0  0  0  0
   -0.9606   36.5086    0.3068 C   0  0  1  0  0  0  0  0  0  0  0  0
   -0.2200   35.5461   -0.4272 O   0  0  0  0  0  0  0  0  0  0  0  0
    0.3563   35.0181   -3.0859 C   0  0  1  0  0  0  0  0  0  0  0  0
    0.2714   36.3205   -2.5208 O   0  0  0  0  0  0  0  0  0  0  0  0
    4.5249   38.3075    0.4014 C   0  0  1  0  0  0  0  0  0  0  0  0
    4.9271   39.4359   -0.3179 O   0  0  0  0  0  0  0  0  0  0  0  0
   -2.0954   37.1168   -0.5657 C   0  0  2  0  0  0  0  0  0  0  0  0
   -1.5243   37.7550   -1.7067 O   0  0  0  0  0  0  0  0  0  0  0  0
    3.1139   37.9966    0.0342 C   0  0  1  0  0  0  0  0  0  0  0  0
    2.7207   36.8691    0.7619 O   0  0  0  0  0  0  0  0  0  0  0  0
   -2.8735   38.1575    0.2664 C   0  0  1  0  0  0  0  0  0  0  0  0
   -3.9272   38.7323   -0.5236 O   0  0  0  0  0  0  0  0  0  0  0  0
    2.1677   39.1523    0.4155 C   0  0  0  0  0  0  0  0  0  0  0  0
    0.8529   38.8492   -0.0367 O   0  0  0  0  0  0  0  0  0  0  0  0
   -6.1048   38.9655    1.0876 N   0  0  0  0  0  0  0  0  0  0  0  0
   -1.2767   33.2113    2.6753 N   0  0  0  0  0  0  0  0  0  0  0  0
  1  2  1  0  0  0  0
  1 39  1  0  0  0  0
  3  4  1  0  0  0  0
  5  6  1  0  0  0  0
  5 40  1  0  0  0  0
  9 10  1  1  0  0  0
  9 14  1  0  0  0  0
  9 35  1  0  0  0  0
 10  1  1  0  0  0  0
 11 16  1  0  0  0  0
 11 28  1  0  0  0  0
 11 26  1  1  0  0  0
 12 17  1  0  0  0  0
 12 34  1  0  0  0  0
 12 13  1  6  0  0  0
 14 15  1  1  0  0  0
 14 19  1  0  0  0  0
 16 13  1  6  0  0  0
 16 21  1  0  0  0  0
 17 18  1  6  0  0  0
 17 23  1  0  0  0  0
 18  8  1  0  0  0  0
 19 20  1  1  0  0  0
 19 25  1  0  0  0  0
 20  5  1  0  0  0  0
 21  3  1  1  0  0  0
 21 22  1  0  0  0  0
 21 27  1  0  0  0  0
 23 24  1  1  0  0  0
 23 29  1  0  0  0  0
 25 26  1  6  0  0  0
 25 31  1  0  0  0  0
 27  7  1  6  0  0  0
 27 28  1  0  0  0  0
 29 30  1  6  0  0  0
 29 33  1  0  0  0  0
 31 32  1  6  0  0  0
 31 35  1  0  0  0  0
 33 34  1  0  0  0  0
 33 37  1  1  0  0  0
 35 36  1  6  0  0  0
 37 38  1  0  0  0  0
M  END
>  <CHROM.1>
-138.23449973,102.26556064,149.12693848,156.72736198,86.03913541,-109.73526566
137.72109285,102.01412006,64.49614090,-155.33258420,176.01685933,0.48298805
36.34579667,0.03705299,-2.84646078,-0.08254176,-2.49794475

>  <Name>
1nta_lig

>  <RI>
0

>  <Rbt.Current_Directory>
/home/itssahil/PROJECTS/Mol_Feturizer/New_Systems/rnas/1nta

>  <Rbt.Executable>
rbdock ($Id: //depot/dev/client3/rdock/2013.1/src/exe/rbdock.cxx#4 $)

>  <Rbt.Library>
libRbt.so (2013.1, Build901 2013/11/27)

>  <Rbt.Parameter_File>
/export/apps/rDock/src/rDock_2013.1_src/data/scripts/dock_solv.prm

>  <Rbt.Receptor>
prm/pocket_docking_4.prm

>  <SCORE>
-21.759

>  <SCORE.INTER>
-1.75816

>  <SCORE.INTER.CONST>
1

>  <SCORE.INTER.POLAR>
-0.71949

>  <SCORE.INTER.ROT>
11

>  <SCORE.INTER.SOLV>
9.3861

>  <SCORE.INTER.VDW>
-12.8358

>  <SCORE.INTER.norm>
-0.0439541

>  <SCORE.INTRA>
-20.0086

>  <SCORE.INTRA.DIHEDRAL>
-3.30346

>  <SCORE.INTRA.DIHEDRAL.0>
19.0336

>  <SCORE.INTRA.POLAR>
0

>  <SCORE.INTRA.POLAR.0>
0

>  <SCORE.INTRA.REPUL>
0

>  <SCORE.INTRA.REPUL.0>
0

>  <SCORE.INTRA.SOLV>
-0.735554

>  <SCORE.INTRA.SOLV.lig_0>
-97.5861

>  <SCORE.INTRA.VDW>
-17.9891

>  <SCORE.INTRA.VDW.0>
11.7669

>  <SCORE.INTRA.norm>
-0.500214

>  <SCORE.RESTR>
0.00772274

>  <SCORE.RESTR.CAVITY>
0.00772274

>  <SCORE.RESTR.norm>
0.000193068

>  <SCORE.SYSTEM>
0

>  <SCORE.SYSTEM.CONST>
0

>  <SCORE.SYSTEM.DIHEDRAL>
0

>  <SCORE.SYSTEM.SOLV>
0

>  <SCORE.SYSTEM.norm>
0

>  <SCORE.heavy>
40

>  <SCORE.norm>
-0.543975

>  <RMSD>
7.747

$$$$
1nta_lig
 OpenBabel11021811403D
libRbt.so/2013.1/901 2013/11/27
 40 42  0  0  0  0  0  0  0  0999 V2000
   -0.7381   33.0135   -8.3710 C   0  0  0  0  0  0  0  0  0  0  0  0
   -1.6537   32.1288   -8.5097 N   0  0  0  0  0  0  0  0  0  0  0  0
    1.3685   36.0952    0.2808 C   0  0  0  0  0  0  0  0  0  0  0  0
    0.9711   36.8364    1.1526 O   0  0  0  0  0  0  0  0  0  0  0  0
   -0.8269   36.4911   -3.4697 C   0  0  0  0  0  0  0  0  0  0  0  0
   -1.1666   37.2837   -4.4527 N   0  0  0  0  0  0  0  0  0  0  0  0
    0.0787   33.7711    2.2798 C   0  0  0  0  0  0  0  0  0  0  0  0
    5.2162   36.3805    1.2485 C   0  0  0  0  0  0  0  0  0  0  0  0
   -0.1822   32.8145   -6.0793 C   0  0  2  0  0  0  0  0  0  0  0  0
    0.2372   32.6986   -7.5318 N   0  0  0  0  0  0  0  0  0  0  0  0
    1.1902   32.9120   -1.0243 C   0  0  2  0  0  0  0  0  0  0  0  0
    4.2632   34.6915   -1.2825 C   0  0  1  0  0  0  0  0  0  0  0  0
    3.4030   33.6730   -0.9080 O   0  0  0  0  0  0  0  0  0  0  0  0
    0.2027   34.1999   -5.5265 C   0  0  1  0  0  0  0  0  0  0  0  0
   -0.5220   35.1475   -6.2509 O   0  0  0  0  0  0  0  0  0  0  0  0
    2.1482   34.0778   -0.8044 C   0  0  2  0  0  0  0  0  0  0  0  0
    5.5125   34.8268   -0.4400 C   0  0  1  0  0  0  0  0  0  0  0  0
    5.1297   34.9669    0.9224 N   0  0  0  0  0  0  0  0  0  0  0  0
   -0.1778   34.3654   -4.0492 C   0  0  2  0  0  0  0  0  0  0  0  0
    0.1826   35.6870   -3.4821 N   0  0  0  0  0  0  0  0  0  0  0  0
    1.6403   34.6253    0.4578 C   0  0  1  0  0  0  0  0  0  0  0  0
    2.6321   34.3779    1.4563 O   0  0  0  0  0  0  0  0  0  0  0  0
    6.3247   33.7087   -0.5671 C   0  0  2  0  0  0  0  0  0  0  0  0
    7.5751   34.0251   -0.0091 O   0  0  0  0  0  0  0  0  0  0  0  0
    0.5247   33.2746   -3.2565 C   0  0  1  0  0  0  0  0  0  0  0  0
    0.1667   33.4301   -1.8922 O   0  0  0  0  0  0  0  0  0  0  0  0
    0.4182   33.9003    0.8273 C   0  0  1  0  0  0  0  0  0  0  0  0
    0.5716   32.6284    0.2096 O   0  0  0  0  0  0  0  0  0  0  0  0
    6.4988   33.3496   -2.0195 C   0  0  1  0  0  0  0  0  0  0  0  0
    7.1116   32.0970   -2.1070 O   0  0  0  0  0  0  0  0  0  0  0  0
    0.1042   31.8728   -3.7828 C   0  0  2  0  0  0  0  0  0  0  0  0
    0.7649   30.8637   -3.0207 O   0  0  0  0  0  0  0  0  0  0  0  0
    5.1656   33.2660   -2.6813 C   0  0  1  0  0  0  0  0  0  0  0  0
    4.5633   34.5247   -2.5912 O   0  0  0  0  0  0  0  0  0  0  0  0
    0.5122   31.7434   -5.2653 C   0  0  1  0  0  0  0  0  0  0  0  0
    0.1326   30.4529   -5.7704 O   0  0  0  0  0  0  0  0  0  0  0  0
    5.3031   32.9195   -4.1771 C   0  0  0  0  0  0  0  0  0  0  0  0
    5.8776   31.6240   -4.3064 O   0  0  0  0  0  0  0  0  0  0  0  0
   -0.7623   34.1386   -9.0001 N   0  0  0  0  0  0  0  0  0  0  0  0
   -1.5036   36.4973   -2.3888 N   0  0  0  0  0  0  0  0  0  0  0  0
  1  2  1  0  0  0  0
  1 39  1  0  0  0  0
  3  4  1  0  0  0  0
  5  6  1  0  0  0  0
  5 40  1  0  0  0  0
  9 10  1  6  0  0  0
  9 14  1  0  0  0  0
  9 35  1  0  0  0  0
 10  1  1  0  0  0  0
 11 16  1  0  0  0  0
 11 28  1  0  0  0  0
 11 26  1  6  0  0  0
 12 17  1  0  0  0  0
 12 34  1  0  0  0  0
 12 13  1  1  0  0  0
 14 15  1  6  0  0  0
 14 19  1  0  0  0  0
 16 13  1  1  0  0  0
 16 21  1  0  0  0  0
 17 18  1  1  0  0  0
 17 23  1  0  0  0  0
 18  8  1  0  0  0  0
 19 20  1  1  0  0  0
 19 25  1  0  0  0  0
 20  5  1  0  0  0  0
 21  3  1  6  0  0  0
 21 22  1  0  0  0  0
 21 27  1  0  0  0  0
 23 24  1  6  0  0  0
 23 29  1  0  0  0  0
 25 26  1  1  0  0  0
 25 31  1  0  0  0  0
 27  7  1  1  0  0  0
 27 28  1  0  0  0  0
 29 30  1  1  0  0  0
 29 33  1  0  0  0  0
 31 32  1  1  0  0  0
 31 35  1  0  0  0  0
 33 34  1  0  0  0  0
 33 37  1  6  0  0  0
 35 36  1  6  0  0  0
 37 38  1  0  0  0  0
M  END
>  <CHROM.1>
-94.32324413,-75.59689560,88.12439723,131.03168575,154.26525556,-100.61765097
98.20546768,-88.35029797,-178.17386774,-153.02442629,63.74486586,1.99503900
33.86830480,-2.61280679,-2.26692317,-0.28616763,1.18631401

>  <Name>
1nta_lig

>  <RI>
0

>  <Rbt.Current_Directory>
/home/itssahil/PROJECTS/Mol_Feturizer/New_Systems/rnas/1nta

>  <Rbt.Executable>
rbdock ($Id: //depot/dev/client3/rdock/2013.1/src/exe/rbdock.cxx#4 $)

>  <Rbt.Library>
libRbt.so (2013.1, Build901 2013/11/27)

>  <Rbt.Parameter_File>
/export/apps/rDock/src/rDock_2013.1_src/data/scripts/dock_solv.prm

>  <Rbt.Receptor>
prm/pocket_docking_5.prm

>  <SCORE>
-30.7272

>  <SCORE.INTER>
-11.2422

>  <SCORE.INTER.CONST>
1

>  <SCORE.INTER.POLAR>
-0.782778

>  <SCORE.INTER.ROT>
11

>  <SCORE.INTER.SOLV>
13.7865

>  <SCORE.INTER.VDW>
-20.4144

>  <SCORE.INTER.norm>
-0.281055

>  <SCORE.INTRA>
-19.485

>  <SCORE.INTRA.DIHEDRAL>
0.525094

>  <SCORE.INTRA.DIHEDRAL.0>
19.0336

>  <SCORE.INTRA.POLAR>
0

>  <SCORE.INTRA.POLAR.0>
0

>  <SCORE.INTRA.REPUL>
0

>  <SCORE.INTRA.REPUL.0>
0

>  <SCORE.INTRA.SOLV>
-3.42612

>  <SCORE.INTRA.SOLV.lig_0>
-97.5861

>  <SCORE.INTRA.VDW>
-18.0345

>  <SCORE.INTRA.VDW.0>
11.7669

>  <SCORE.INTRA.norm>
-0.487124

>  <SCORE.RESTR>
0

>  <SCORE.RESTR.CAVITY>
0

>  <SCORE.RESTR.norm>
0

>  <SCORE.SYSTEM>
0

>  <SCORE.SYSTEM.CONST>
0

>  <SCORE.SYSTEM.DIHEDRAL>
0

>  <SCORE.SYSTEM.SOLV>
0

>  <SCORE.SYSTEM.norm>
0

>  <SCORE.heavy>
40

>  <SCORE.norm>
-0.76818

>  <RMSD>
7.758

$$$$
1nta_lig
 OpenBabel11021811403D
libRbt.so/2013.1/901 2013/11/27
 40 42  0  0  0  0  0  0  0  0999 V2000
   -1.5592   39.8794   -0.5763 C   0  0  0  0  0  0  0  0  0  0  0  0
   -0.7029   40.8306   -0.5317 N   0  0  0  0  0  0  0  0  0  0  0  0
   -1.3279   31.3467   -4.0657 C   0  0  0  0  0  0  0  0  0  0  0  0
   -1.9897   30.3855   -4.3903 O   0  0  0  0  0  0  0  0  0  0  0  0
   -4.2634   35.0252   -3.5051 C   0  0  0  0  0  0  0  0  0  0  0  0
   -5.2761   35.3722   -2.7543 N   0  0  0  0  0  0  0  0  0  0  0  0
   -0.7940   31.5407   -7.3426 C   0  0  0  0  0  0  0  0  0  0  0  0
    0.0835   34.6351   -0.2148 C   0  0  0  0  0  0  0  0  0  0  0  0
   -1.1676   37.9720   -1.9213 C   0  0  2  0  0  0  0  0  0  0  0  0
   -1.0531   38.6553   -0.5726 N   0  0  0  0  0  0  0  0  0  0  0  0
    0.2692   34.1929   -5.1687 C   0  0  2  0  0  0  0  0  0  0  0  0
    2.0004   34.1038   -2.9846 C   0  0  1  0  0  0  0  0  0  0  0  0
    1.6090   32.9738   -3.6828 O   0  0  0  0  0  0  0  0  0  0  0  0
   -2.0746   36.7318   -1.8108 C   0  0  1  0  0  0  0  0  0  0  0  0
   -3.3473   37.1832   -1.4581 O   0  0  0  0  0  0  0  0  0  0  0  0
    0.3745   33.0644   -4.1486 C   0  0  2  0  0  0  0  0  0  0  0  0
    1.9136   33.9967   -1.4780 C   0  0  1  0  0  0  0  0  0  0  0  0
    0.5888   33.6202   -1.1240 N   0  0  0  0  0  0  0  0  0  0  0  0
   -2.2081   35.9853   -3.1448 C   0  0  2  0  0  0  0  0  0  0  0  0
   -3.0714   34.7820   -3.0741 N   0  0  0  0  0  0  0  0  0  0  0  0
   -0.2275   31.9540   -4.8939 C   0  0  1  0  0  0  0  0  0  0  0  0
    0.8148   31.0175   -5.1738 O   0  0  0  0  0  0  0  0  0  0  0  0
    2.7979   33.0433   -0.9929 C   0  0  2  0  0  0  0  0  0  0  0  0
    2.8777   33.2068    0.4006 O   0  0  0  0  0  0  0  0  0  0  0  0
   -0.8156   35.5739   -3.5960 C   0  0  1  0  0  0  0  0  0  0  0  0
   -0.9446   34.8874   -4.8312 O   0  0  0  0  0  0  0  0  0  0  0  0
   -0.7445   32.4682   -6.1683 C   0  0  1  0  0  0  0  0  0  0  0  0
    0.0643   33.6077   -6.4340 O   0  0  0  0  0  0  0  0  0  0  0  0
    4.1624   33.2365   -1.6007 C   0  0  1  0  0  0  0  0  0  0  0  0
    4.9595   32.1328   -1.2865 O   0  0  0  0  0  0  0  0  0  0  0  0
    0.0908   36.8280   -3.7518 C   0  0  2  0  0  0  0  0  0  0  0  0
    1.3882   36.4230   -4.1853 O   0  0  0  0  0  0  0  0  0  0  0  0
    4.0456   33.3227   -3.0844 C   0  0  1  0  0  0  0  0  0  0  0  0
    3.2497   34.4318   -3.3874 O   0  0  0  0  0  0  0  0  0  0  0  0
    0.2068   37.5433   -2.3895 C   0  0  1  0  0  0  0  0  0  0  0  0
    1.0424   38.7059   -2.5125 O   0  0  0  0  0  0  0  0  0  0  0  0
    5.4220   33.5411   -3.7432 C   0  0  0  0  0  0  0  0  0  0  0  0
    6.0099   34.7256   -3.2173 O   0  0  0  0  0  0  0  0  0  0  0  0
   -2.8295   40.0940   -0.6265 N   0  0  0  0  0  0  0  0  0  0  0  0
   -4.4266   34.8822   -4.7618 N   0  0  0  0  0  0  0  0  0  0  0  0
  1  2  1  0  0  0  0
  1 39  1  0  0  0  0
  3  4  1  0  0  0  0
  5  6  1  0  0  0  0
  5 40  1  0  0  0  0
  9 10  1  1  0  0  0
  9 14  1  0  0  0  0
  9 35  1  0  0  0  0
 10  1  1  0  0  0  0
 11 16  1  0  0  0  0
 11 28  1  0  0  0  0
 11 26  1  1  0  0  0
 12 17  1  0  0  0  0
 12 34  1  0  0  0  0
 12 13  1  6  0  0  0
 14 15  1  6  0  0  0
 14 19  1  0  0  0  0
 16 13  1  6  0  0  0
 16 21  1  0  0  0  0
 17 18  1  6  0  0  0
 17 23  1  0  0  0  0
 18  8  1  0  0  0  0
 19 20  1  1  0  0  0
 19 25  1  0  0  0  0
 20  5  1  0  0  0  0
 21  3  1  1  0  0  0
 21 22  1  0  0  0  0
 21 27  1  0  0  0  0
 23 24  1  1  0  0  0
 23 29  1  0  0  0  0
 25 26  1  6  0  0  0
 25 31  1  0  0  0  0
 27  7  1  6  0  0  0
 27 28  1  0  0  0  0
 29 30  1  6  0  0  0
 29 33  1  0  0  0  0
 31 32  1  1  0  0  0
 31 35  1  0  0  0  0
 33 34  1  0  0  0  0
 33 37  1  6  0  0  0
 35 36  1  6  0  0  0
 37 38  1  0  0  0  0
M  END
>  <CHROM.1>
-116.52047868,-107.48444561,68.92316883,99.45456603,63.74272527,-123.46488251
98.79086788,-93.87063275,-177.74939147,-166.27683567,-57.58489431,0.17637954
34.81202787,-3.01829821,-2.34711587,0.27667556,-2.57510364

>  <Name>
1nta_lig

>  <RI>
0

>  <Rbt.Current_Directory>
/home/itssahil/PROJECTS/Mol_Feturizer/New_Systems/rnas/1nta

>  <Rbt.Executable>
rbdock ($Id: //depot/dev/client3/rdock/2013.1/src/exe/rbdock.cxx#4 $)

>  <Rbt.Library>
libRbt.so (2013.1, Build901 2013/11/27)

>  <Rbt.Parameter_File>
/export/apps/rDock/src/rDock_2013.1_src/data/scripts/dock_solv.prm

>  <Rbt.Receptor>
prm/pocket_docking_5.prm

>  <SCORE>
-27.9321

>  <SCORE.INTER>
-5.96203

>  <SCORE.INTER.CONST>
1

>  <SCORE.INTER.POLAR>
-0.928402

>  <SCORE.INTER.ROT>
11

>  <SCORE.INTER.SOLV>
10.6737

>  <SCORE.INTER.VDW>
-15.3712

>  <SCORE.INTER.norm>
-0.149051

>  <SCORE.INTRA>
-21.9706

>  <SCORE.INTRA.DIHEDRAL>
-8.00841

>  <SCORE.INTRA.DIHEDRAL.0>
19.0336

>  <SCORE.INTRA.POLAR>
0

>  <SCORE.INTRA.POLAR.0>
0

>  <SCORE.INTRA.REPUL>
0.0523711

>  <SCORE.INTRA.REPUL.0>
0

>  <SCORE.INTRA.SOLV>
-2.90774

>  <SCORE.INTRA.SOLV.lig_0>
-97.5861

>  <SCORE.INTRA.VDW>
-16.7744

>  <SCORE.INTRA.VDW.0>
11.7669

>  <SCORE.INTRA.norm>
-0.549265

>  <SCORE.RESTR>
0.000541533

>  <SCORE.RESTR.CAVITY>
0.000541533

>  <SCORE.RESTR.norm>
1.35383e-05

>  <SCORE.SYSTEM>
0

>  <SCORE.SYSTEM.CONST>
0

>  <SCORE.SYSTEM.DIHEDRAL>
0

>  <SCORE.SYSTEM.SOLV>
0

>  <SCORE.SYSTEM.norm>
0

>  <SCORE.heavy>
40

>  <SCORE.norm>
-0.698302

>  <RMSD>
7.761

$$$$
1nta_lig
 OpenBabel11021811403D
libRbt.so/2013.1/901 2013/11/27
 40 42  0  0  0  0  0  0  0  0999 V2000
   -0.9919   29.9050   -4.9877 C   0  0  0  0  0  0  0  0  0  0  0  0
   -1.3050   29.1219   -5.9515 N   0  0  0  0  0  0  0  0  0  0  0  0
    1.3685   38.4394   -8.3693 C   0  0  0  0  0  0  0  0  0  0  0  0
    2.4537   38.5331   -7.8392 O   0  0  0  0  0  0  0  0  0  0  0  0
    0.9095   33.9184   -9.9494 C   0  0  0  0  0  0  0  0  0  0  0  0
    1.1244   32.6892  -10.3401 N   0  0  0  0  0  0  0  0  0  0  0  0
   -1.5543   39.6994   -9.3339 C   0  0  0  0  0  0  0  0  0  0  0  0
    2.2606   40.8690   -4.5206 C   0  0  0  0  0  0  0  0  0  0  0  0
   -0.6567   31.9505   -6.1296 C   0  0  2  0  0  0  0  0  0  0  0  0
   -0.0912   30.8325   -5.2756 N   0  0  0  0  0  0  0  0  0  0  0  0
   -1.4312   36.9985   -6.9716 C   0  0  2  0  0  0  0  0  0  0  0  0
    1.2299   37.9577   -4.8172 C   0  0  1  0  0  0  0  0  0  0  0  0
   -0.0521   37.9615   -5.3407 O   0  0  0  0  0  0  0  0  0  0  0  0
    0.4540   32.5611   -7.0051 C   0  0  1  0  0  0  0  0  0  0  0  0
    0.8977   31.5565   -7.8664 O   0  0  0  0  0  0  0  0  0  0  0  0
   -0.0827   37.6158   -6.6169 C   0  0  2  0  0  0  0  0  0  0  0  0
    1.4532   38.8861   -3.6438 C   0  0  1  0  0  0  0  0  0  0  0  0
    1.0690   40.2013   -4.0244 N   0  0  0  0  0  0  0  0  0  0  0  0
   -0.0576   33.7164   -7.8759 C   0  0  2  0  0  0  0  0  0  0  0  0
    0.9872   34.3317   -8.7291 N   0  0  0  0  0  0  0  0  0  0  0  0
    0.0492   38.6281   -7.6698 C   0  0  1  0  0  0  0  0  0  0  0  0
   -0.0485   39.9079   -7.0415 O   0  0  0  0  0  0  0  0  0  0  0  0
    0.6979   38.4958   -2.5468 C   0  0  2  0  0  0  0  0  0  0  0  0
    1.1714   39.2052   -1.4298 O   0  0  0  0  0  0  0  0  0  0  0  0
   -0.6389   34.7783   -6.9559 C   0  0  1  0  0  0  0  0  0  0  0  0
   -1.1135   35.8422   -7.7662 O   0  0  0  0  0  0  0  0  0  0  0  0
   -1.0731   38.4831   -8.6052 C   0  0  1  0  0  0  0  0  0  0  0  0
   -2.1050   37.9010   -7.8184 O   0  0  0  0  0  0  0  0  0  0  0  0
    0.8505   37.0170   -2.3047 C   0  0  1  0  0  0  0  0  0  0  0  0
   -0.0952   36.6120   -1.3592 O   0  0  0  0  0  0  0  0  0  0  0  0
   -1.7910   34.1766   -6.1018 C   0  0  2  0  0  0  0  0  0  0  0  0
   -2.3298   35.1895   -5.2538 O   0  0  0  0  0  0  0  0  0  0  0  0
    0.5971   36.2704   -3.5699 C   0  0  1  0  0  0  0  0  0  0  0  0
    1.5506   36.6804   -4.5071 O   0  0  0  0  0  0  0  0  0  0  0  0
   -1.2343   33.0272   -5.2358 C   0  0  1  0  0  0  0  0  0  0  0  0
   -2.2848   32.4581   -4.4374 O   0  0  0  0  0  0  0  0  0  0  0  0
    0.7638   34.7514   -3.3674 C   0  0  0  0  0  0  0  0  0  0  0  0
   -0.2698   34.2772   -2.5119 O   0  0  0  0  0  0  0  0  0  0  0  0
   -1.5122   29.7984   -3.8129 N   0  0  0  0  0  0  0  0  0  0  0  0
    0.6209   34.8148  -10.8094 N   0  0  0  0  0  0  0  0  0  0  0  0
  1  2  1  0  0  0  0
  1 39  1  0  0  0  0
  3  4  1  0  0  0  0
  5  6  1  0  0  0  0
  5 40  1  0  0  0  0
  9 10  1  1  0  0  0
  9 14  1  0  0  0  0
  9 35  1  0  0  0  0
 10  1  1  0  0  0  0
 11 16  1  0  0  0  0
 11 28  1  0  0  0  0
 11 26  1  6  0  0  0
 12 17  1  0  0  0  0
 12 34  1  0  0  0  0
 12 13  1  1  0  0  0
 14 15  1  6  0  0  0
 14 19  1  0  0  0  0
 16 13  1  1  0  0  0
 16 21  1  0  0  0  0
 17 18  1  6  0  0  0
 17 23  1  0  0  0  0
 18  8  1  0  0  0  0
 19 20  1  1  0  0  0
 19 25  1  0  0  0  0
 20  5  1  0  0  0  0
 21  3  1  6  0  0  0
 21 22  1  0  0  0  0
 21 27  1  0  0  0  0
 23 24  1  1  0  0  0
 23 29  1  0  0  0  0
 25 26  1  6  0  0  0
 25 31  1  0  0  0  0
 27  7  1  1  0  0  0
 27 28  1  0  0  0  0
 29 30  1  1  0  0  0
 29 33  1  0  0  0  0
 31 32  1  1  0  0  0
 31 35  1  0  0  0  0
 33 34  1  0  0  0  0
 33 37  1  1  0  0  0
 35 36  1  6  0  0  0
 37 38  1  0  0  0  0
M  END
>  <CHROM.1>
-151.14857783,73.96036594,75.96548380,153.65391613,153.05601660,-92.77326171
101.29237727,-65.65279762,-61.77951963,-168.35328626,67.30197059,-0.00872920
35.69509164,-5.93898929,3.09048555,-1.40267235,-1.47481160

>  <Name>
1nta_lig

>  <RI>
0

>  <Rbt.Current_Directory>
/home/itssahil/PROJECTS/Mol_Feturizer/New_Systems/rnas/1nta

>  <Rbt.Executable>
rbdock ($Id: //depot/dev/client3/rdock/2013.1/src/exe/rbdock.cxx#4 $)

>  <Rbt.Library>
libRbt.so (2013.1, Build901 2013/11/27)

>  <Rbt.Parameter_File>
/export/apps/rDock/src/rDock_2013.1_src/data/scripts/dock_solv.prm

>  <Rbt.Receptor>
prm/pocket_docking_8.prm

>  <SCORE>
-27.6766

>  <SCORE.INTER>
-4.89635

>  <SCORE.INTER.CONST>
1

>  <SCORE.INTER.POLAR>
-0.587651

>  <SCORE.INTER.ROT>
11

>  <SCORE.INTER.SOLV>
15.1518

>  <SCORE.INTER.VDW>
-17.2893

>  <SCORE.INTER.norm>
-0.122409

>  <SCORE.INTRA>
-22.7802

>  <SCORE.INTRA.DIHEDRAL>
-7.21026

>  <SCORE.INTRA.DIHEDRAL.0>
19.0336

>  <SCORE.INTRA.POLAR>
0

>  <SCORE.INTRA.POLAR.0>
0

>  <SCORE.INTRA.REPUL>
0

>  <SCORE.INTRA.REPUL.0>
0

>  <SCORE.INTRA.SOLV>
-2.82062

>  <SCORE.INTRA.SOLV.lig_0>
-97.5861

>  <SCORE.INTRA.VDW>
-17.7648

>  <SCORE.INTRA.VDW.0>
11.7669

>  <SCORE.INTRA.norm>
-0.569506

>  <SCORE.RESTR>
0

>  <SCORE.RESTR.CAVITY>
0

>  <SCORE.RESTR.norm>
0

>  <SCORE.SYSTEM>
0

>  <SCORE.SYSTEM.CONST>
0

>  <SCORE.SYSTEM.DIHEDRAL>
0

>  <SCORE.SYSTEM.SOLV>
0

>  <SCORE.SYSTEM.norm>
0

>  <SCORE.heavy>
40

>  <SCORE.norm>
-0.691914

>  <RMSD>
7.767

$$$$
1nta_lig
 OpenBabel11021811403D
libRbt.so/2013.1/901 2013/11/27
 40 42  0  0  0  0  0  0  0  0999 V2000
   -2.3140   29.6688   -8.6644 C   0  0  0  0  0  0  0  0  0  0  0  0
   -2.1992   29.9001   -9.9188 N   0  0  0  0  0  0  0  0  0  0  0  0
    0.3270   35.1940   -0.6813 C   0  0  0  0  0  0  0  0  0  0  0  0
    0.4553   34.9159    0.4907 O   0  0  0  0  0  0  0  0  0  0  0  0
   -1.0018   35.2328   -7.0544 C   0  0  0  0  0  0  0  0  0  0  0  0
   -1.9738   35.8110   -6.3982 N   0  0  0  0  0  0  0  0  0  0  0  0
    2.9756   33.2055   -0.9847 C   0  0  0  0  0  0  0  0  0  0  0  0
    0.0886   38.5975   -0.1506 C   0  0  0  0  0  0  0  0  0  0  0  0
   -1.2781   30.7492   -6.8313 C   0  0  2  0  0  0  0  0  0  0  0  0
   -1.1918   29.7459   -7.9649 N   0  0  0  0  0  0  0  0  0  0  0  0
    1.2172   34.3465   -3.8996 C   0  0  2  0  0  0  0  0  0  0  0  0
    0.4567   37.7178   -3.3934 C   0  0  1  0  0  0  0  0  0  0  0  0
    1.3365   36.6606   -3.5535 O   0  0  0  0  0  0  0  0  0  0  0  0
   -0.6658   32.0938   -7.2672 C   0  0  1  0  0  0  0  0  0  0  0  0
   -1.4449   32.5787   -8.3188 O   0  0  0  0  0  0  0  0  0  0  0  0
    0.8921   35.5405   -3.0086 C   0  0  2  0  0  0  0  0  0  0  0  0
    0.8423   38.7268   -2.3342 C   0  0  1  0  0  0  0  0  0  0  0  0
    1.0359   38.0424   -1.1028 N   0  0  0  0  0  0  0  0  0  0  0  0
   -0.7048   33.1432   -6.1483 C   0  0  2  0  0  0  0  0  0  0  0  0
   -0.1187   34.4500   -6.5318 N   0  0  0  0  0  0  0  0  0  0  0  0
    1.4124   35.0783   -1.7176 C   0  0  1  0  0  0  0  0  0  0  0  0
    2.5457   35.8900   -1.4028 O   0  0  0  0  0  0  0  0  0  0  0  0
    2.0164   39.3841   -2.6738 C   0  0  2  0  0  0  0  0  0  0  0  0
    2.1491   40.4892   -1.8158 O   0  0  0  0  0  0  0  0  0  0  0  0
    0.0550   32.5874   -4.9543 C   0  0  1  0  0  0  0  0  0  0  0  0
    0.0129   33.5600   -3.9218 O   0  0  0  0  0  0  0  0  0  0  0  0
    1.8625   33.6883   -1.8621 C   0  0  1  0  0  0  0  0  0  0  0  0
    2.1946   33.5747   -3.2404 O   0  0  0  0  0  0  0  0  0  0  0  0
    1.9564   39.8605   -4.1014 C   0  0  1  0  0  0  0  0  0  0  0  0
    3.2259   40.2983   -4.4875 O   0  0  0  0  0  0  0  0  0  0  0  0
   -0.5876   31.2518   -4.4832 C   0  0  2  0  0  0  0  0  0  0  0  0
    0.1319   30.7520   -3.3572 O   0  0  0  0  0  0  0  0  0  0  0  0
    1.5587   38.7334   -4.9925 C   0  0  1  0  0  0  0  0  0  0  0  0
    0.2865   38.3059   -4.6000 O   0  0  0  0  0  0  0  0  0  0  0  0
   -0.5199   30.2229   -5.6312 C   0  0  1  0  0  0  0  0  0  0  0  0
   -1.1087   28.9800   -5.2147 O   0  0  0  0  0  0  0  0  0  0  0  0
    1.4664   39.1871   -6.4629 C   0  0  0  0  0  0  0  0  0  0  0  0
    0.4885   40.2148   -6.5750 O   0  0  0  0  0  0  0  0  0  0  0  0
   -3.4431   29.3753   -8.1156 N   0  0  0  0  0  0  0  0  0  0  0  0
   -0.8944   35.4100   -8.3128 N   0  0  0  0  0  0  0  0  0  0  0  0
  1  2  1  0  0  0  0
  1 39  1  0  0  0  0
  3  4  1  0  0  0  0
  5  6  1  0  0  0  0
  5 40  1  0  0  0  0
  9 10  1  6  0  0  0
  9 14  1  0  0  0  0
  9 35  1  0  0  0  0
 10  1  1  0  0  0  0
 11 16  1  0  0  0  0
 11 28  1  0  0  0  0
 11 26  1  1  0  0  0
 12 17  1  0  0  0  0
 12 34  1  0  0  0  0
 12 13  1  6  0  0  0
 14 15  1  6  0  0  0
 14 19  1  0  0  0  0
 16 13  1  6  0  0  0
 16 21  1  0  0  0  0
 17 18  1  1  0  0  0
 17 23  1  0  0  0  0
 18  8  1  0  0  0  0
 19 20  1  6  0  0  0
 19 25  1  0  0  0  0
 20  5  1  0  0  0  0
 21  3  1  1  0  0  0
 21 22  1  0  0  0  0
 21 27  1  0  0  0  0
 23 24  1  1  0  0  0
 23 29  1  0  0  0  0
 25 26  1  1  0  0  0
 25 31  1  0  0  0  0
 27  7  1  1  0  0  0
 27 28  1  0  0  0  0
 29 30  1  6  0  0  0
 29 33  1  0  0  0  0
 31 32  1  1  0  0  0
 31 35  1  0  0  0  0
 33 34  1  0  0  0  0
 33 37  1  6  0  0  0
 35 36  1  1  0  0  0
 37 38  1  0  0  0  0
M  END
>  <CHROM.1>
-97.01275281,122.86598368,166.18362395,103.66547831,140.38179732,-120.02325003
89.18082059,71.18836757,-178.38852000,-97.77563752,-60.36023335,0.31449956
34.86879292,-4.49858833,2.63168084,1.20425621,2.62343749

>  <Name>
1nta_lig

>  <RI>
0

>  <Rbt.Current_Directory>
/home/itssahil/PROJECTS/Mol_Feturizer/New_Systems/rnas/1nta

>  <Rbt.Executable>
rbdock ($Id: //depot/dev/client3/rdock/2013.1/src/exe/rbdock.cxx#4 $)

>  <Rbt.Library>
libRbt.so (2013.1, Build901 2013/11/27)

>  <Rbt.Parameter_File>
/export/apps/rDock/src/rDock_2013.1_src/data/scripts/dock_solv.prm

>  <Rbt.Receptor>
prm/pocket_docking_8.prm

>  <SCORE>
-23.9591

>  <SCORE.INTER>
-5.42415

>  <SCORE.INTER.CONST>
1

>  <SCORE.INTER.POLAR>
-0.419486

>  <SCORE.INTER.ROT>
11

>  <SCORE.INTER.SOLV>
11.359

>  <SCORE.INTER.VDW>
-16.9375

>  <SCORE.INTER.norm>
-0.135604

>  <SCORE.INTRA>
-18.535

>  <SCORE.INTRA.DIHEDRAL>
1.97602

>  <SCORE.INTRA.DIHEDRAL.0>
19.0336

>  <SCORE.INTRA.POLAR>
0

>  <SCORE.INTRA.POLAR.0>
0

>  <SCORE.INTRA.REPUL>
0

>  <SCORE.INTRA.REPUL.0>
0

>  <SCORE.INTRA.SOLV>
-2.23903

>  <SCORE.INTRA.SOLV.lig_0>
-97.5861

>  <SCORE.INTRA.VDW>
-18.4035

>  <SCORE.INTRA.VDW.0>
11.7669

>  <SCORE.INTRA.norm>
-0.463375

>  <SCORE.RESTR>
0

>  <SCORE.RESTR.CAVITY>
0

>  <SCORE.RESTR.norm>
0

>  <SCORE.SYSTEM>
0

>  <SCORE.SYSTEM.CONST>
0

>  <SCORE.SYSTEM.DIHEDRAL>
0

>  <SCORE.SYSTEM.SOLV>
0

>  <SCORE.SYSTEM.norm>
0

>  <SCORE.heavy>
40

>  <SCORE.norm>
-0.598979

>  <RMSD>
7.776

$$$$
1nta_lig
 OpenBabel11021811403D
libRbt.so/2013.1/901 2013/11/27
 40 42  0  0  0  0  0  0  0  0999 V2000
   -1.5250   41.4179    4.5784 C   0  0  0  0  0  0  0  0  0  0  0  0
   -2.7218   41.2310    4.9943 N   0  0  0  0  0  0  0  0  0  0  0  0
   -0.7856   36.4289   -3.4783 C   0  0  0  0  0  0  0  0  0  0  0  0
   -1.8044   36.9934   -3.1455 O   0  0  0  0  0  0  0  0  0  0  0  0
   -3.1779   39.5720   -1.2583 C   0  0  0  0  0  0  0  0  0  0  0  0
   -4.4151   39.9069   -0.9995 N   0  0  0  0  0  0  0  0  0  0  0  0
    1.0973   38.3918   -5.3922 C   0  0  0  0  0  0  0  0  0  0  0  0
   -1.3442   36.3277    1.2935 C   0  0  0  0  0  0  0  0  0  0  0  0
   -0.6835   40.4778    2.5762 C   0  0  2  0  0  0  0  0  0  0  0  0
   -0.9253   40.3529    4.0678 N   0  0  0  0  0  0  0  0  0  0  0  0
    1.3232   38.5858   -1.8142 C   0  0  2  0  0  0  0  0  0  0  0  0
    1.7976   36.4238    0.0556 C   0  0  1  0  0  0  0  0  0  0  0  0
    1.8192   36.3484   -1.3269 O   0  0  0  0  0  0  0  0  0  0  0  0
   -1.6926   39.6086    1.8021 C   0  0  1  0  0  0  0  0  0  0  0  0
   -2.9639   40.1201    2.0668 O   0  0  0  0  0  0  0  0  0  0  0  0
    0.9075   37.1208   -1.8939 C   0  0  2  0  0  0  0  0  0  0  0  0
    0.7636   35.5538    0.7357 C   0  0  1  0  0  0  0  0  0  0  0  0
   -0.5156   35.8599    0.1950 N   0  0  0  0  0  0  0  0  0  0  0  0
   -1.4792   39.6781    0.2841 C   0  0  2  0  0  0  0  0  0  0  0  0
   -2.4312   38.8488   -0.4933 N   0  0  0  0  0  0  0  0  0  0  0  0
    0.6015   36.9924   -3.3224 C   0  0  1  0  0  0  0  0  0  0  0  0
    1.5959   36.1398   -3.8935 O   0  0  0  0  0  0  0  0  0  0  0  0
    1.0295   34.2073    0.5294 C   0  0  2  0  0  0  0  0  0  0  0  0
    0.2239   33.4735    1.4168 O   0  0  0  0  0  0  0  0  0  0  0  0
   -0.0604   39.2197   -0.0139 C   0  0  1  0  0  0  0  0  0  0  0  0
    0.1325   39.2893   -1.4180 O   0  0  0  0  0  0  0  0  0  0  0  0
    0.7099   38.3163   -3.9478 C   0  0  1  0  0  0  0  0  0  0  0  0
    1.6327   39.0141   -3.1204 O   0  0  0  0  0  0  0  0  0  0  0  0
    2.4802   33.9112    0.8054 C   0  0  1  0  0  0  0  0  0  0  0  0
    2.7718   32.6184    0.3627 O   0  0  0  0  0  0  0  0  0  0  0  0
    0.9633   40.1231    0.7309 C   0  0  2  0  0  0  0  0  0  0  0  0
    2.2873   39.6843    0.4309 O   0  0  0  0  0  0  0  0  0  0  0  0
    3.3417   34.8687    0.0547 C   0  0  1  0  0  0  0  0  0  0  0  0
    3.0446   36.1577    0.5080 O   0  0  0  0  0  0  0  0  0  0  0  0
    0.7218   40.0177    2.2513 C   0  0  1  0  0  0  0  0  0  0  0  0
    1.6598   40.8457    2.9581 O   0  0  0  0  0  0  0  0  0  0  0  0
    4.8367   34.6102    0.3276 C   0  0  0  0  0  0  0  0  0  0  0  0
    5.6142   35.5700   -0.3790 O   0  0  0  0  0  0  0  0  0  0  0  0
   -0.9374   42.5630    4.6540 N   0  0  0  0  0  0  0  0  0  0  0  0
   -2.6353   39.9479   -2.3495 N   0  0  0  0  0  0  0  0  0  0  0  0
  1  2  1  0  0  0  0
  1 39  1  0  0  0  0
  3  4  1  0  0  0  0
  5  6  1  0  0  0  0
  5 40  1  0  0  0  0
  9 10  1  1  0  0  0
  9 14  1  0  0  0  0
  9 35  1  0  0  0  0
 10  1  1  0  0  0  0
 11 16  1  0  0  0  0
 11 28  1  0  0  0  0
 11 26  1  6  0  0  0
 12 17  1  0  0  0  0
 12 34  1  0  0  0  0
 12 13  1  6  0  0  0
 14 15  1  6  0  0  0
 14 19  1  0  0  0  0
 16 13  1  6  0  0  0
 16 21  1  0  0  0  0
 17 18  1  6  0  0  0
 17 23  1  0  0  0  0
 18  8  1  0  0  0  0
 19 20  1  6  0  0  0
 19 25  1  0  0  0  0
 20  5  1  0  0  0  0
 21  3  1  6  0  0  0
 21 22  1  0  0  0  0
 21 27  1  0  0  0  0
 23 24  1  1  0  0  0
 23 29  1  0  0  0  0
 25 26  1  6  0  0  0
 25 31  1  0  0  0  0
 27  7  1  6  0  0  0
 27 28  1  0  0  0  0
 29 30  1  6  0  0  0
 29 33  1  0  0  0  0
 31 32  1  1  0  0  0
 31 35  1  0  0  0  0
 33 34  1  0  0  0  0
 33 37  1  1  0  0  0
 35 36  1  1  0  0  0
 37 38  1  0  0  0  0
M  END
>  <CHROM.1>
-104.60415574,112.19797685,81.97205629,82.58742995,74.18767562,-119.80701470
116.71877283,-101.28275255,65.68006452,-166.47836957,-178.37253032,0.32167323
37.88657655,-0.03876961,-2.42592245,0.80894076,-1.83360201

>  <Name>
1nta_lig

>  <RI>
0

>  <Rbt.Current_Directory>
/home/itssahil/PROJECTS/Mol_Feturizer/New_Systems/rnas/1nta

>  <Rbt.Executable>
rbdock ($Id: //depot/dev/client3/rdock/2013.1/src/exe/rbdock.cxx#4 $)

>  <Rbt.Library>
libRbt.so (2013.1, Build901 2013/11/27)

>  <Rbt.Parameter_File>
/export/apps/rDock/src/rDock_2013.1_src/data/scripts/dock_solv.prm

>  <Rbt.Receptor>
prm/pocket_docking_6.prm

>  <SCORE>
-19.6852

>  <SCORE.INTER>
3.28203

>  <SCORE.INTER.CONST>
1

>  <SCORE.INTER.POLAR>
-0.720204

>  <SCORE.INTER.ROT>
11

>  <SCORE.INTER.SOLV>
6.45854

>  <SCORE.INTER.VDW>
-8.49748

>  <SCORE.INTER.norm>
0.0820508

>  <SCORE.INTRA>
-22.9672

>  <SCORE.INTRA.DIHEDRAL>
-8.32251

>  <SCORE.INTRA.DIHEDRAL.0>
19.0336

>  <SCORE.INTRA.POLAR>
0

>  <SCORE.INTRA.POLAR.0>
0

>  <SCORE.INTRA.REPUL>
0.029352

>  <SCORE.INTRA.REPUL.0>
0

>  <SCORE.INTRA.SOLV>
-0.85532

>  <SCORE.INTRA.SOLV.lig_0>
-97.5861

>  <SCORE.INTRA.VDW>
-18.525

>  <SCORE.INTRA.VDW.0>
11.7669

>  <SCORE.INTRA.norm>
-0.57418

>  <SCORE.RESTR>
0

>  <SCORE.RESTR.CAVITY>
0

>  <SCORE.RESTR.norm>
0

>  <SCORE.SYSTEM>
0

>  <SCORE.SYSTEM.CONST>
0

>  <SCORE.SYSTEM.DIHEDRAL>
0

>  <SCORE.SYSTEM.SOLV>
0

>  <SCORE.SYSTEM.norm>
0

>  <SCORE.heavy>
40

>  <SCORE.norm>
-0.492129

>  <RMSD>
7.786

$$$$
1nta_lig
 OpenBabel11021811403D
libRbt.so/2013.1/901 2013/11/27
 40 42  0  0  0  0  0  0  0  0999 V2000
    6.3002   42.1983    0.9574 C   0  0  0  0  0  0  0  0  0  0  0  0
    5.7874   42.6021    2.0593 N   0  0  0  0  0  0  0  0  0  0  0  0
    3.6015   32.5972    0.4207 C   0  0  0  0  0  0  0  0  0  0  0  0
    2.7430   31.8993    0.9138 O   0  0  0  0  0  0  0  0  0  0  0  0
    7.2606   35.8019    0.6687 C   0  0  0  0  0  0  0  0  0  0  0  0
    7.2187   34.8498   -0.2266 N   0  0  0  0  0  0  0  0  0  0  0  0
    0.9772   33.6754   -1.3147 C   0  0  0  0  0  0  0  0  0  0  0  0
    5.5162   31.7671   -5.7736 C   0  0  0  0  0  0  0  0  0  0  0  0
    5.8957   39.8674    1.0185 C   0  0  2  0  0  0  0  0  0  0  0  0
    6.8892   41.0127    1.0027 N   0  0  0  0  0  0  0  0  0  0  0  0
    4.0526   35.5279   -1.3330 C   0  0  2  0  0  0  0  0  0  0  0  0
    5.6560   32.4876   -2.2490 C   0  0  1  0  0  0  0  0  0  0  0  0
    5.5195   33.8529   -2.0620 O   0  0  0  0  0  0  0  0  0  0  0  0
    6.6255   38.5376    1.2866 C   0  0  1  0  0  0  0  0  0  0  0  0
    7.1863   38.6262    2.5617 O   0  0  0  0  0  0  0  0  0  0  0  0
    4.6669   34.1525   -1.0964 C   0  0  2  0  0  0  0  0  0  0  0  0
    6.2183   32.0705   -3.5901 C   0  0  1  0  0  0  0  0  0  0  0  0
    5.4172   32.6415   -4.6170 N   0  0  0  0  0  0  0  0  0  0  0  0
    5.6696   37.3373    1.2905 C   0  0  2  0  0  0  0  0  0  0  0  0
    6.3395   36.0386    1.5412 N   0  0  0  0  0  0  0  0  0  0  0  0
    3.4647   33.3405   -0.8810 C   0  0  1  0  0  0  0  0  0  0  0  0
    3.3463   32.4551   -1.9964 O   0  0  0  0  0  0  0  0  0  0  0  0
    7.5260   32.5096   -3.7422 C   0  0  2  0  0  0  0  0  0  0  0  0
    8.0714   31.8456   -4.8543 O   0  0  0  0  0  0  0  0  0  0  0  0
    4.9723   37.2859   -0.0597 C   0  0  1  0  0  0  0  0  0  0  0  0
    4.0873   36.1767   -0.0494 O   0  0  0  0  0  0  0  0  0  0  0  0
    2.2946   34.2272   -0.8654 C   0  0  1  0  0  0  0  0  0  0  0  0
    2.6942   35.3396   -1.6566 O   0  0  0  0  0  0  0  0  0  0  0  0
    8.3351   32.1822   -2.5147 C   0  0  1  0  0  0  0  0  0  0  0  0
    9.5652   32.8402   -2.5930 O   0  0  0  0  0  0  0  0  0  0  0  0
    4.1973   38.6099   -0.3147 C   0  0  2  0  0  0  0  0  0  0  0  0
    3.5421   38.5384   -1.5800 O   0  0  0  0  0  0  0  0  0  0  0  0
    7.6223   32.6651   -1.2977 C   0  0  1  0  0  0  0  0  0  0  0  0
    6.3954   31.9980   -1.2272 O   0  0  0  0  0  0  0  0  0  0  0  0
    5.1934   39.7885   -0.3204 C   0  0  1  0  0  0  0  0  0  0  0  0
    4.4958   41.0225   -0.5557 O   0  0  0  0  0  0  0  0  0  0  0  0
    8.4110   32.3301   -0.0163 C   0  0  0  0  0  0  0  0  0  0  0  0
    9.6617   33.0081   -0.0458 O   0  0  0  0  0  0  0  0  0  0  0  0
    6.2534   42.8977   -0.1246 N   0  0  0  0  0  0  0  0  0  0  0  0
    8.2812   36.5637    0.7354 N   0  0  0  0  0  0  0  0  0  0  0  0
  1  2  1  0  0  0  0
  1 39  1  0  0  0  0
  3  4  1  0  0  0  0
  5  6  1  0  0  0  0
  5 40  1  0  0  0  0
  9 10  1  6  0  0  0
  9 14  1  0  0  0  0
  9 35  1  0  0  0  0
 10  1  1  0  0  0  0
 11 16  1  0  0  0  0
 11 28  1  0  0  0  0
 11 26  1  1  0  0  0
 12 17  1  0  0  0  0
 12 34  1  0  0  0  0
 12 13  1  6  0  0  0
 14 15  1  1  0  0  0
 14 19  1  0  0  0  0
 16 13  1  6  0  0  0
 16 21  1  0  0  0  0
 17 18  1  6  0  0  0
 17 23  1  0  0  0  0
 18  8  1  0  0  0  0
 19 20  1  6  0  0  0
 19 25  1  0  0  0  0
 20  5  1  0  0  0  0
 21  3  1  1  0  0  0
 21 22  1  0  0  0  0
 21 27  1  0  0  0  0
 23 24  1  6  0  0  0
 23 29  1  0  0  0  0
 25 26  1  1  0  0  0
 25 31  1  0  0  0  0
 27  7  1  6  0  0  0
 27 28  1  0  0  0  0
 29 30  1  6  0  0  0
 29 33  1  0  0  0  0
 31 32  1  6  0  0  0
 31 35  1  0  0  0  0
 33 34  1  0  0  0  0
 33 37  1  1  0  0  0
 35 36  1  1  0  0  0
 37 38  1  0  0  0  0
M  END
>  <CHROM.1>
-171.41111067,76.16281408,113.66474623,160.13860829,-153.43580818,-152.41213217
-57.90007709,-112.87076382,175.77899885,-142.90061774,62.78156626,5.69174925
35.53334828,-0.83545328,-1.60910475,0.04111976,-2.75058617

>  <Name>
1nta_lig

>  <RI>
2.40834e+07

>  <Rbt.Current_Directory>
/home/itssahil/PROJECTS/Mol_Feturizer/New_Systems/rnas/1nta

>  <Rbt.Executable>
rbdock ($Id: //depot/dev/client3/rdock/2013.1/src/exe/rbdock.cxx#4 $)

>  <Rbt.Library>
libRbt.so (2013.1, Build901 2013/11/27)

>  <Rbt.Parameter_File>
/export/apps/rDock/src/rDock_2013.1_src/data/scripts/dock_solv.prm

>  <Rbt.Receptor>
prm/blind_docking_80.prm

>  <SCORE>
19.9583

>  <SCORE.INTER>
16.5481

>  <SCORE.INTER.CONST>
1

>  <SCORE.INTER.POLAR>
-0.709563

>  <SCORE.INTER.ROT>
11

>  <SCORE.INTER.SOLV>
37.2326

>  <SCORE.INTER.VDW>
-9.94691

>  <SCORE.INTER.norm>
0.413702

>  <SCORE.INTRA>
2.10821

>  <SCORE.INTRA.DIHEDRAL>
-0.592292

>  <SCORE.INTRA.DIHEDRAL.0>
19.0336

>  <SCORE.INTRA.POLAR>
0

>  <SCORE.INTRA.POLAR.0>
0

>  <SCORE.INTRA.REPUL>
0

>  <SCORE.INTRA.REPUL.0>
0

>  <SCORE.INTRA.SOLV>
6.38411

>  <SCORE.INTRA.SOLV.lig_0>
-97.5861

>  <SCORE.INTRA.VDW>
-0.787705

>  <SCORE.INTRA.VDW.0>
11.7669

>  <SCORE.INTRA.norm>
0.0527051

>  <SCORE.RESTR>
1.30199

>  <SCORE.RESTR.CAVITY>
1.30199

>  <SCORE.RESTR.norm>
0.0325498

>  <SCORE.SYSTEM>
0

>  <SCORE.SYSTEM.CONST>
0

>  <SCORE.SYSTEM.DIHEDRAL>
0

>  <SCORE.SYSTEM.SOLV>
0

>  <SCORE.SYSTEM.norm>
0

>  <SCORE.heavy>
40

>  <SCORE.norm>
0.498957

>  <RMSD>
7.794

$$$$
1nta_lig
 OpenBabel11021811403D
libRbt.so/2013.1/901 2013/11/27
 40 42  0  0  0  0  0  0  0  0999 V2000
   -2.4598   37.4889    5.6127 C   0  0  0  0  0  0  0  0  0  0  0  0
   -2.3909   38.7052    6.0078 N   0  0  0  0  0  0  0  0  0  0  0  0
   -0.1217   34.7382   -3.0896 C   0  0  0  0  0  0  0  0  0  0  0  0
   -0.5844   34.4623   -4.1746 O   0  0  0  0  0  0  0  0  0  0  0  0
   -3.0028   35.4466   -0.3327 C   0  0  0  0  0  0  0  0  0  0  0  0
   -3.2084   36.1543   -1.4129 N   0  0  0  0  0  0  0  0  0  0  0  0
    0.7347   37.5530   -4.6403 C   0  0  0  0  0  0  0  0  0  0  0  0
    1.2851   32.1066    0.6694 C   0  0  0  0  0  0  0  0  0  0  0  0
   -1.3531   37.4123    3.5223 C   0  0  2  0  0  0  0  0  0  0  0  0
   -1.3851   37.0297    4.9891 N   0  0  0  0  0  0  0  0  0  0  0  0
    1.1447   37.2392   -1.0872 C   0  0  2  0  0  0  0  0  0  0  0  0
    2.4764   34.9591    0.3270 C   0  0  1  0  0  0  0  0  0  0  0  0
    2.4795   35.3152   -1.0111 O   0  0  0  0  0  0  0  0  0  0  0  0
   -1.6425   36.1781    2.6472 C   0  0  1  0  0  0  0  0  0  0  0  0
   -2.9400   35.7583    2.9445 O   0  0  0  0  0  0  0  0  0  0  0  0
    1.3042   35.7603   -1.4230 C   0  0  2  0  0  0  0  0  0  0  0  0
    3.0552   33.5959    0.6359 C   0  0  1  0  0  0  0  0  0  0  0  0
    2.3719   32.6237   -0.1452 N   0  0  0  0  0  0  0  0  0  0  0  0
   -1.5997   36.5023    1.1479 C   0  0  2  0  0  0  0  0  0  0  0  0
   -1.8695   35.3350    0.2746 N   0  0  0  0  0  0  0  0  0  0  0  0
    0.9602   35.7566   -2.8486 C   0  0  1  0  0  0  0  0  0  0  0  0
    2.1550   35.4537   -3.5717 O   0  0  0  0  0  0  0  0  0  0  0  0
    4.4087   33.5472    0.3327 C   0  0  2  0  0  0  0  0  0  0  0  0
    4.9327   32.3786    0.9114 O   0  0  0  0  0  0  0  0  0  0  0  0
   -0.2217   37.0583    0.8252 C   0  0  1  0  0  0  0  0  0  0  0  0
   -0.1888   37.3595   -0.5611 O   0  0  0  0  0  0  0  0  0  0  0  0
    0.5158   37.1032   -3.2290 C   0  0  1  0  0  0  0  0  0  0  0  0
    1.1699   37.9578   -2.2990 O   0  0  0  0  0  0  0  0  0  0  0  0
    5.1165   34.7498    0.8995 C   0  0  1  0  0  0  0  0  0  0  0  0
    6.4130   34.7996    0.3808 O   0  0  0  0  0  0  0  0  0  0  0  0
    0.0564   38.3308    1.6749 C   0  0  2  0  0  0  0  0  0  0  0  0
    1.3479   38.8431    1.3508 O   0  0  0  0  0  0  0  0  0  0  0  0
    4.4015   35.9932    0.4933 C   0  0  1  0  0  0  0  0  0  0  0  0
    3.1076   35.9346    1.0203 O   0  0  0  0  0  0  0  0  0  0  0  0
    0.0139   37.9609    3.1724 C   0  0  1  0  0  0  0  0  0  0  0  0
    0.2699   39.1249    3.9752 O   0  0  0  0  0  0  0  0  0  0  0  0
    5.0855   37.2476    1.0720 C   0  0  0  0  0  0  0  0  0  0  0  0
    6.3844   37.3760    0.5048 O   0  0  0  0  0  0  0  0  0  0  0  0
   -3.5048   36.7581    5.8025 N   0  0  0  0  0  0  0  0  0  0  0  0
   -3.9735   34.8213    0.2087 N   0  0  0  0  0  0  0  0  0  0  0  0
  1  2  1  0  0  0  0
  1 39  1  0  0  0  0
  3  4  1  0  0  0  0
  5  6  1  0  0  0  0
  5 40  1  0  0  0  0
  9 10  1  1  0  0  0
  9 14  1  0  0  0  0
  9 35  1  0  0  0  0
 10  1  1  0  0  0  0
 11 16  1  0  0  0  0
 11 28  1  0  0  0  0
 11 26  1  6  0  0  0
 12 17  1  0  0  0  0
 12 34  1  0  0  0  0
 12 13  1  6  0  0  0
 14 15  1  1  0  0  0
 14 19  1  0  0  0  0
 16 13  1  6  0  0  0
 16 21  1  0  0  0  0
 17 18  1  6  0  0  0
 17 23  1  0  0  0  0
 18  8  1  0  0  0  0
 19 20  1  6  0  0  0
 19 25  1  0  0  0  0
 20  5  1  0  0  0  0
 21  3  1  6  0  0  0
 21 22  1  0  0  0  0
 21 27  1  0  0  0  0
 23 24  1  1  0  0  0
 23 29  1  0  0  0  0
 25 26  1  6  0  0  0
 25 31  1  0  0  0  0
 27  7  1  6  0  0  0
 27 28  1  0  0  0  0
 29 30  1  6  0  0  0
 29 33  1  0  0  0  0
 31 32  1  6  0  0  0
 31 35  1  0  0  0  0
 33 34  1  0  0  0  0
 33 37  1  1  0  0  0
 35 36  1  1  0  0  0
 37 38  1  0  0  0  0
M  END
>  <CHROM.1>
-107.49461559,-82.52774634,84.79193845,130.51957131,83.43668108,-93.45792185
110.98123090,80.74083840,-177.04407835,-151.00908545,64.87984286,0.82278169
36.07245121,0.50607946,-2.43286743,0.17163972,-1.79747065

>  <Name>
1nta_lig

>  <RI>
0

>  <Rbt.Current_Directory>
/home/itssahil/PROJECTS/Mol_Feturizer/New_Systems/rnas/1nta

>  <Rbt.Executable>
rbdock ($Id: //depot/dev/client3/rdock/2013.1/src/exe/rbdock.cxx#4 $)

>  <Rbt.Library>
libRbt.so (2013.1, Build901 2013/11/27)

>  <Rbt.Parameter_File>
/export/apps/rDock/src/rDock_2013.1_src/data/scripts/dock_solv.prm

>  <Rbt.Receptor>
prm/pocket_docking_5.prm

>  <SCORE>
-23.7418

>  <SCORE.INTER>
-3.49131

>  <SCORE.INTER.CONST>
1

>  <SCORE.INTER.POLAR>
-1.13322

>  <SCORE.INTER.ROT>
11

>  <SCORE.INTER.SOLV>
11.5986

>  <SCORE.INTER.VDW>
-13.3497

>  <SCORE.INTER.norm>
-0.0872827

>  <SCORE.INTRA>
-20.2505

>  <SCORE.INTRA.DIHEDRAL>
0.425597

>  <SCORE.INTRA.DIHEDRAL.0>
19.0336

>  <SCORE.INTRA.POLAR>
0

>  <SCORE.INTRA.POLAR.0>
0

>  <SCORE.INTRA.REPUL>
0

>  <SCORE.INTRA.REPUL.0>
0

>  <SCORE.INTRA.SOLV>
-3.78177

>  <SCORE.INTRA.SOLV.lig_0>
-97.5861

>  <SCORE.INTRA.VDW>
-18.5724

>  <SCORE.INTRA.VDW.0>
11.7669

>  <SCORE.INTRA.norm>
-0.506263

>  <SCORE.RESTR>
0

>  <SCORE.RESTR.CAVITY>
0

>  <SCORE.RESTR.norm>
0

>  <SCORE.SYSTEM>
0

>  <SCORE.SYSTEM.CONST>
0

>  <SCORE.SYSTEM.DIHEDRAL>
0

>  <SCORE.SYSTEM.SOLV>
0

>  <SCORE.SYSTEM.norm>
0

>  <SCORE.heavy>
40

>  <SCORE.norm>
-0.593546

>  <RMSD>
7.798

$$$$
1nta_lig
 OpenBabel11021811403D
libRbt.so/2013.1/901 2013/11/27
 40 42  0  0  0  0  0  0  0  0999 V2000
   -1.6542   40.4674   -3.6897 C   0  0  0  0  0  0  0  0  0  0  0  0
   -2.8586   40.8284   -3.4462 N   0  0  0  0  0  0  0  0  0  0  0  0
   -2.4711   31.3495   -3.5168 C   0  0  0  0  0  0  0  0  0  0  0  0
   -3.2155   30.4732   -3.8979 O   0  0  0  0  0  0  0  0  0  0  0  0
   -3.9856   34.9534   -5.2358 C   0  0  0  0  0  0  0  0  0  0  0  0
   -5.1308   35.5826   -5.1871 N   0  0  0  0  0  0  0  0  0  0  0  0
   -0.4965   30.0141   -5.8361 C   0  0  0  0  0  0  0  0  0  0  0  0
   -1.3721   34.2530    1.0823 C   0  0  0  0  0  0  0  0  0  0  0  0
   -1.0422   38.1903   -3.8915 C   0  0  2  0  0  0  0  0  0  0  0  0
   -1.2268   39.4121   -3.0128 N   0  0  0  0  0  0  0  0  0  0  0  0
    0.3388   33.1669   -4.3353 C   0  0  2  0  0  0  0  0  0  0  0  0
    0.5487   33.7851   -1.5037 C   0  0  1  0  0  0  0  0  0  0  0  0
    0.3444   32.5415   -2.0774 O   0  0  0  0  0  0  0  0  0  0  0  0
   -2.1841   37.1856   -3.6473 C   0  0  1  0  0  0  0  0  0  0  0  0
   -3.3706   37.8090   -4.0368 O   0  0  0  0  0  0  0  0  0  0  0  0
   -0.4294   32.5952   -3.1486 C   0  0  2  0  0  0  0  0  0  0  0  0
    0.6251   33.7968    0.0072 C   0  0  1  0  0  0  0  0  0  0  0  0
   -0.5512   33.1900    0.5271 N   0  0  0  0  0  0  0  0  0  0  0  0
   -2.0358   35.9155   -4.4955 C   0  0  2  0  0  0  0  0  0  0  0  0
   -3.1164   34.9230   -4.2822 N   0  0  0  0  0  0  0  0  0  0  0  0
   -0.9819   31.3697   -3.7349 C   0  0  1  0  0  0  0  0  0  0  0  0
   -0.3304   30.2665   -3.1020 O   0  0  0  0  0  0  0  0  0  0  0  0
    1.7325   33.0916    0.4572 C   0  0  2  0  0  0  0  0  0  0  0  0
    1.9030   33.3910    1.8197 O   0  0  0  0  0  0  0  0  0  0  0  0
   -0.6982   35.2764   -4.1571 C   0  0  1  0  0  0  0  0  0  0  0  0
   -0.5647   34.1048   -4.9465 O   0  0  0  0  0  0  0  0  0  0  0  0
   -0.6546   31.3437   -5.1660 C   0  0  1  0  0  0  0  0  0  0  0  0
    0.5307   32.1238   -5.2630 O   0  0  0  0  0  0  0  0  0  0  0  0
    2.9631   33.5053   -0.3062 C   0  0  1  0  0  0  0  0  0  0  0  0
    4.0021   32.6205   -0.0062 O   0  0  0  0  0  0  0  0  0  0  0  0
    0.4610   36.2726   -4.4446 C   0  0  2  0  0  0  0  0  0  0  0  0
    1.7067   35.6519   -4.1311 O   0  0  0  0  0  0  0  0  0  0  0  0
    2.6953   33.4336   -1.7710 C   0  0  1  0  0  0  0  0  0  0  0  0
    1.6574   34.3249   -2.0605 O   0  0  0  0  0  0  0  0  0  0  0  0
    0.2804   37.5289   -3.5670 C   0  0  1  0  0  0  0  0  0  0  0  0
    1.3437   38.4624   -3.8177 O   0  0  0  0  0  0  0  0  0  0  0  0
    3.9276   33.8698   -2.5881 C   0  0  0  0  0  0  0  0  0  0  0  0
    4.7190   32.7258   -2.8880 O   0  0  0  0  0  0  0  0  0  0  0  0
   -0.9026   41.0895   -4.5325 N   0  0  0  0  0  0  0  0  0  0  0  0
   -3.6732   34.2871   -6.2774 N   0  0  0  0  0  0  0  0  0  0  0  0
  1  2  1  0  0  0  0
  1 39  1  0  0  0  0
  3  4  1  0  0  0  0
  5  6  1  0  0  0  0
  5 40  1  0  0  0  0
  9 10  1  1  0  0  0
  9 14  1  0  0  0  0
  9 35  1  0  0  0  0
 10  1  1  0  0  0  0
 11 16  1  0  0  0  0
 11 28  1  0  0  0  0
 11 26  1  6  0  0  0
 12 17  1  0  0  0  0
 12 34  1  0  0  0  0
 12 13  1  6  0  0  0
 14 15  1  6  0  0  0
 14 19  1  0  0  0  0
 16 13  1  1  0  0  0
 16 21  1  0  0  0  0
 17 18  1  1  0  0  0
 17 23  1  0  0  0  0
 18  8  1  0  0  0  0
 19 20  1  1  0  0  0
 19 25  1  0  0  0  0
 20  5  1  0  0  0  0
 21  3  1  1  0  0  0
 21 22  1  0  0  0  0
 21 27  1  0  0  0  0
 23 24  1  1  0  0  0
 23 29  1  0  0  0  0
 25 26  1  6  0  0  0
 25 31  1  0  0  0  0
 27  7  1  1  0  0  0
 27 28  1  0  0  0  0
 29 30  1  6  0  0  0
 29 33  1  0  0  0  0
 31 32  1  1  0  0  0
 31 35  1  0  0  0  0
 33 34  1  0  0  0  0
 33 37  1  6  0  0  0
 35 36  1  6  0  0  0
 37 38  1  0  0  0  0
M  END
>  <CHROM.1>
-105.33411167,110.07248578,72.94894844,143.81997075,74.98635955,-106.97616385
101.86174842,-98.30927983,179.21946256,-155.92288003,91.70753030,-0.28842922
34.58163643,-3.08921917,-2.22627332,0.66737830,-3.08250823

>  <Name>
1nta_lig

>  <RI>
0

>  <Rbt.Current_Directory>
/home/itssahil/PROJECTS/Mol_Feturizer/New_Systems/rnas/1nta

>  <Rbt.Executable>
rbdock ($Id: //depot/dev/client3/rdock/2013.1/src/exe/rbdock.cxx#4 $)

>  <Rbt.Library>
libRbt.so (2013.1, Build901 2013/11/27)

>  <Rbt.Parameter_File>
/export/apps/rDock/src/rDock_2013.1_src/data/scripts/dock_solv.prm

>  <Rbt.Receptor>
prm/pocket_docking_6.prm

>  <SCORE>
-28.1049

>  <SCORE.INTER>
-7.00854

>  <SCORE.INTER.CONST>
1

>  <SCORE.INTER.POLAR>
-1.62462

>  <SCORE.INTER.ROT>
11

>  <SCORE.INTER.SOLV>
9.59567

>  <SCORE.INTER.VDW>
-13.3888

>  <SCORE.INTER.norm>
-0.175214

>  <SCORE.INTRA>
-21.0963

>  <SCORE.INTRA.DIHEDRAL>
-2.98366

>  <SCORE.INTRA.DIHEDRAL.0>
19.0336

>  <SCORE.INTRA.POLAR>
0

>  <SCORE.INTRA.POLAR.0>
0

>  <SCORE.INTRA.REPUL>
0

>  <SCORE.INTRA.REPUL.0>
0

>  <SCORE.INTRA.SOLV>
-4.02615

>  <SCORE.INTRA.SOLV.lig_0>
-97.5861

>  <SCORE.INTRA.VDW>
-17.5914

>  <SCORE.INTRA.VDW.0>
11.7669

>  <SCORE.INTRA.norm>
-0.527409

>  <SCORE.RESTR>
0

>  <SCORE.RESTR.CAVITY>
0

>  <SCORE.RESTR.norm>
0

>  <SCORE.SYSTEM>
0

>  <SCORE.SYSTEM.CONST>
0

>  <SCORE.SYSTEM.DIHEDRAL>
0

>  <SCORE.SYSTEM.SOLV>
0

>  <SCORE.SYSTEM.norm>
0

>  <SCORE.heavy>
40

>  <SCORE.norm>
-0.702622

>  <RMSD>
7.802

$$$$
1nta_lig
 OpenBabel11021811403D
libRbt.so/2013.1/901 2013/11/27
 40 42  0  0  0  0  0  0  0  0999 V2000
    0.2543   40.9762   -4.5652 C   0  0  0  0  0  0  0  0  0  0  0  0
   -0.5978   41.1152   -5.5111 N   0  0  0  0  0  0  0  0  0  0  0  0
   -2.0384   33.3653    0.8701 C   0  0  0  0  0  0  0  0  0  0  0  0
   -1.2015   32.5009    1.0104 O   0  0  0  0  0  0  0  0  0  0  0  0
    1.6169   36.9036   -0.0333 C   0  0  0  0  0  0  0  0  0  0  0  0
    1.3859   37.7838    0.9056 N   0  0  0  0  0  0  0  0  0  0  0  0
   -4.9947   34.7108    0.1548 C   0  0  0  0  0  0  0  0  0  0  0  0
   -2.6240   29.1368   -2.5509 C   0  0  0  0  0  0  0  0  0  0  0  0
   -0.5750   40.2368   -2.4757 C   0  0  2  0  0  0  0  0  0  0  0  0
   -0.1476   41.3837   -3.3706 N   0  0  0  0  0  0  0  0  0  0  0  0
   -2.1670   35.2994   -1.9778 C   0  0  2  0  0  0  0  0  0  0  0  0
   -0.8565   31.9569   -2.1035 C   0  0  1  0  0  0  0  0  0  0  0  0
   -1.5711   33.0866   -2.4650 O   0  0  0  0  0  0  0  0  0  0  0  0
    0.5795   39.2288   -2.3198 C   0  0  1  0  0  0  0  0  0  0  0  0
    1.6243   39.8962   -1.6788 O   0  0  0  0  0  0  0  0  0  0  0  0
   -1.7277   33.9336   -1.4614 C   0  0  2  0  0  0  0  0  0  0  0  0
   -1.0384   30.7583   -3.0085 C   0  0  1  0  0  0  0  0  0  0  0  0
   -2.4269   30.4664   -3.1037 N   0  0  0  0  0  0  0  0  0  0  0  0
    0.1946   38.0316   -1.4405 C   0  0  2  0  0  0  0  0  0  0  0  0
    1.2819   37.0377   -1.2724 N   0  0  0  0  0  0  0  0  0  0  0  0
   -2.7353   33.6872   -0.4246 C   0  0  1  0  0  0  0  0  0  0  0  0
   -3.5542   32.6074   -0.8780 O   0  0  0  0  0  0  0  0  0  0  0  0
   -0.5432   31.0122   -4.2799 C   0  0  2  0  0  0  0  0  0  0  0  0
   -0.4733   29.7856   -4.9623 O   0  0  0  0  0  0  0  0  0  0  0  0
   -1.0096   37.3510   -2.0718 C   0  0  1  0  0  0  0  0  0  0  0  0
   -1.3632   36.2472   -1.2531 O   0  0  0  0  0  0  0  0  0  0  0  0
   -3.5760   34.8836   -0.2918 C   0  0  1  0  0  0  0  0  0  0  0  0
   -3.5006   35.5019   -1.5704 O   0  0  0  0  0  0  0  0  0  0  0  0
    0.8326   31.6192   -4.1950 C   0  0  1  0  0  0  0  0  0  0  0  0
    1.2031   32.0825   -5.4602 O   0  0  0  0  0  0  0  0  0  0  0  0
   -2.1924   38.3538   -2.1901 C   0  0  2  0  0  0  0  0  0  0  0  0
   -3.3148   37.6948   -2.7743 O   0  0  0  0  0  0  0  0  0  0  0  0
    0.8149   32.7789   -3.2584 C   0  0  1  0  0  0  0  0  0  0  0  0
    0.4468   32.3038   -1.9958 O   0  0  0  0  0  0  0  0  0  0  0  0
   -1.7688   39.5353   -3.0878 C   0  0  1  0  0  0  0  0  0  0  0  0
   -2.8501   40.4738   -3.2104 O   0  0  0  0  0  0  0  0  0  0  0  0
    2.2125   33.4163   -3.1289 C   0  0  0  0  0  0  0  0  0  0  0  0
    2.1543   34.7662   -3.5753 O   0  0  0  0  0  0  0  0  0  0  0  0
    1.4276   40.4781   -4.7588 N   0  0  0  0  0  0  0  0  0  0  0  0
    2.2383   35.8261    0.2482 N   0  0  0  0  0  0  0  0  0  0  0  0
  1  2  1  0  0  0  0
  1 39  1  0  0  0  0
  3  4  1  0  0  0  0
  5  6  1  0  0  0  0
  5 40  1  0  0  0  0
  9 10  1  6  0  0  0
  9 14  1  0  0  0  0
  9 35  1  0  0  0  0
 10  1  1  0  0  0  0
 11 16  1  0  0  0  0
 11 28  1  0  0  0  0
 11 26  1  1  0  0  0
 12 17  1  0  0  0  0
 12 34  1  0  0  0  0
 12 13  1  6  0  0  0
 14 15  1  1  0  0  0
 14 19  1  0  0  0  0
 16 13  1  6  0  0  0
 16 21  1  0  0  0  0
 17 18  1  6  0  0  0
 17 23  1  0  0  0  0
 18  8  1  0  0  0  0
 19 20  1  6  0  0  0
 19 25  1  0  0  0  0
 20  5  1  0  0  0  0
 21  3  1  1  0  0  0
 21 22  1  0  0  0  0
 21 27  1  0  0  0  0
 23 24  1  6  0  0  0
 23 29  1  0  0  0  0
 25 26  1  1  0  0  0
 25 31  1  0  0  0  0
 27  7  1  6  0  0  0
 27 28  1  0  0  0  0
 29 30  1  6  0  0  0
 29 33  1  0  0  0  0
 31 32  1  6  0  0  0
 31 35  1  0  0  0  0
 33 34  1  0  0  0  0
 33 37  1  1  0  0  0
 35 36  1  1  0  0  0
 37 38  1  0  0  0  0
M  END
>  <CHROM.1>
57.19057489,101.40103397,143.80266006,159.69282582,164.48299019,-117.58835263
119.37915422,-20.95692898,-53.66127583,-160.34127795,118.64934980,-0.78171685
35.40908318,-2.24216140,-1.42683472,-0.63043439,-3.09547393

>  <Name>
1nta_lig

>  <RI>
0

>  <Rbt.Current_Directory>
/home/itssahil/PROJECTS/Mol_Feturizer/New_Systems/rnas/1nta

>  <Rbt.Executable>
rbdock ($Id: //depot/dev/client3/rdock/2013.1/src/exe/rbdock.cxx#4 $)

>  <Rbt.Library>
libRbt.so (2013.1, Build901 2013/11/27)

>  <Rbt.Parameter_File>
/export/apps/rDock/src/rDock_2013.1_src/data/scripts/dock_solv.prm

>  <Rbt.Receptor>
prm/pocket_docking_6.prm

>  <SCORE>
-16.4559

>  <SCORE.INTER>
0.396347

>  <SCORE.INTER.CONST>
1

>  <SCORE.INTER.POLAR>
-0.806753

>  <SCORE.INTER.ROT>
11

>  <SCORE.INTER.SOLV>
7.83586

>  <SCORE.INTER.VDW>
-10.5919

>  <SCORE.INTER.norm>
0.00990868

>  <SCORE.INTRA>
-16.8522

>  <SCORE.INTRA.DIHEDRAL>
-0.756003

>  <SCORE.INTRA.DIHEDRAL.0>
19.0336

>  <SCORE.INTRA.POLAR>
0

>  <SCORE.INTRA.POLAR.0>
0

>  <SCORE.INTRA.REPUL>
0

>  <SCORE.INTRA.REPUL.0>
0

>  <SCORE.INTRA.SOLV>
-2.08017

>  <SCORE.INTRA.SOLV.lig_0>
-97.5861

>  <SCORE.INTRA.VDW>
-15.4342

>  <SCORE.INTRA.VDW.0>
11.7669

>  <SCORE.INTRA.norm>
-0.421306

>  <SCORE.RESTR>
0

>  <SCORE.RESTR.CAVITY>
0

>  <SCORE.RESTR.norm>
0

>  <SCORE.SYSTEM>
0

>  <SCORE.SYSTEM.CONST>
0

>  <SCORE.SYSTEM.DIHEDRAL>
0

>  <SCORE.SYSTEM.SOLV>
0

>  <SCORE.SYSTEM.norm>
0

>  <SCORE.heavy>
40

>  <SCORE.norm>
-0.411397

>  <RMSD>
7.804

$$$$
1nta_lig
 OpenBabel11021811403D
libRbt.so/2013.1/901 2013/11/27
 40 42  0  0  0  0  0  0  0  0999 V2000
   -1.4988   41.8869   -4.0044 C   0  0  0  0  0  0  0  0  0  0  0  0
   -0.9014   42.8912   -3.4805 N   0  0  0  0  0  0  0  0  0  0  0  0
    0.1100   32.4462   -1.5591 C   0  0  0  0  0  0  0  0  0  0  0  0
   -0.5174   33.2246   -0.8752 O   0  0  0  0  0  0  0  0  0  0  0  0
    1.9408   38.5270   -0.4840 C   0  0  0  0  0  0  0  0  0  0  0  0
    2.5373   39.6382   -0.1385 N   0  0  0  0  0  0  0  0  0  0  0  0
   -0.8325   32.4627   -4.7486 C   0  0  0  0  0  0  0  0  0  0  0  0
    2.5050   34.9262    0.9670 C   0  0  0  0  0  0  0  0  0  0  0  0
   -0.6773   39.6695   -3.9091 C   0  0  2  0  0  0  0  0  0  0  0  0
   -0.7144   41.0111   -4.6147 N   0  0  0  0  0  0  0  0  0  0  0  0
    1.5220   34.8876   -3.5376 C   0  0  2  0  0  0  0  0  0  0  0  0
    3.9614   34.2155   -1.8291 C   0  0  1  0  0  0  0  0  0  0  0  0
    3.1465   33.4525   -2.6485 O   0  0  0  0  0  0  0  0  0  0  0  0
    0.6422   39.5187   -3.1286 C   0  0  1  0  0  0  0  0  0  0  0  0
    0.6552   40.5111   -2.1472 O   0  0  0  0  0  0  0  0  0  0  0  0
    1.8697   33.7818   -2.5469 C   0  0  2  0  0  0  0  0  0  0  0  0
    4.0039   33.7880   -0.3785 C   0  0  1  0  0  0  0  0  0  0  0  0
    2.6744   33.7539    0.1250 N   0  0  0  0  0  0  0  0  0  0  0  0
    0.7452   38.1659   -2.4116 C   0  0  2  0  0  0  0  0  0  0  0  0
    2.0061   37.9843   -1.6532 N   0  0  0  0  0  0  0  0  0  0  0  0
    0.8185   32.8016   -2.8388 C   0  0  1  0  0  0  0  0  0  0  0  0
    1.4508   31.6680   -3.4365 O   0  0  0  0  0  0  0  0  0  0  0  0
    4.5686   32.5273   -0.2453 C   0  0  2  0  0  0  0  0  0  0  0  0
    4.8449   32.3266    1.1179 O   0  0  0  0  0  0  0  0  0  0  0  0
    0.6301   37.0683   -3.4575 C   0  0  1  0  0  0  0  0  0  0  0  0
    0.7224   35.8200   -2.7888 O   0  0  0  0  0  0  0  0  0  0  0  0
   -0.1101   33.3842   -3.8155 C   0  0  1  0  0  0  0  0  0  0  0  0
    0.6819   34.3308   -4.5223 O   0  0  0  0  0  0  0  0  0  0  0  0
    5.8478   32.4397   -1.0356 C   0  0  1  0  0  0  0  0  0  0  0  0
    6.2631   31.1064   -1.0806 O   0  0  0  0  0  0  0  0  0  0  0  0
   -0.7212   37.1904   -4.2177 C   0  0  2  0  0  0  0  0  0  0  0  0
   -0.8150   36.1471   -5.1862 O   0  0  0  0  0  0  0  0  0  0  0  0
    5.6100   32.9036   -2.4323 C   0  0  1  0  0  0  0  0  0  0  0  0
    5.1989   34.2389   -2.3757 O   0  0  0  0  0  0  0  0  0  0  0  0
   -0.7808   38.5574   -4.9311 C   0  0  1  0  0  0  0  0  0  0  0  0
   -2.0232   38.6892   -5.6410 O   0  0  0  0  0  0  0  0  0  0  0  0
    6.9033   32.8478   -3.2693 C   0  0  0  0  0  0  0  0  0  0  0  0
    7.0449   31.5456   -3.8255 O   0  0  0  0  0  0  0  0  0  0  0  0
   -2.7780   41.7365   -3.9485 N   0  0  0  0  0  0  0  0  0  0  0  0
    1.2502   37.8856    0.3751 N   0  0  0  0  0  0  0  0  0  0  0  0
  1  2  1  0  0  0  0
  1 39  1  0  0  0  0
  3  4  1  0  0  0  0
  5  6  1  0  0  0  0
  5 40  1  0  0  0  0
  9 10  1  6  0  0  0
  9 14  1  0  0  0  0
  9 35  1  0  0  0  0
 10  1  1  0  0  0  0
 11 16  1  0  0  0  0
 11 28  1  0  0  0  0
 11 26  1  1  0  0  0
 12 17  1  0  0  0  0
 12 34  1  0  0  0  0
 12 13  1  6  0  0  0
 14 15  1  1  0  0  0
 14 19  1  0  0  0  0
 16 13  1  6  0  0  0
 16 21  1  0  0  0  0
 17 18  1  6  0  0  0
 17 23  1  0  0  0  0
 18  8  1  0  0  0  0
 19 20  1  6  0  0  0
 19 25  1  0  0  0  0
 20  5  1  0  0  0  0
 21  3  1  1  0  0  0
 21 22  1  0  0  0  0
 21 27  1  0  0  0  0
 23 24  1  1  0  0  0
 23 29  1  0  0  0  0
 25 26  1  1  0  0  0
 25 31  1  0  0  0  0
 27  7  1  6  0  0  0
 27 28  1  0  0  0  0
 29 30  1  6  0  0  0
 29 33  1  0  0  0  0
 31 32  1  6  0  0  0
 31 35  1  0  0  0  0
 33 34  1  0  0  0  0
 33 37  1  6  0  0  0
 35 36  1  1  0  0  0
 37 38  1  0  0  0  0
M  END
>  <CHROM.1>
-103.76208789,113.05739978,163.89856678,80.24658494,88.92507646,-104.71845116
83.25391255,-105.80938618,62.58414787,-139.32658293,86.48335918,1.71610635
35.73374432,-2.51820839,-2.35833327,0.65492250,-2.85482343

>  <Name>
1nta_lig

>  <RI>
0

>  <Rbt.Current_Directory>
/home/itssahil/PROJECTS/Mol_Feturizer/New_Systems/rnas/1nta

>  <Rbt.Executable>
rbdock ($Id: //depot/dev/client3/rdock/2013.1/src/exe/rbdock.cxx#4 $)

>  <Rbt.Library>
libRbt.so (2013.1, Build901 2013/11/27)

>  <Rbt.Parameter_File>
/export/apps/rDock/src/rDock_2013.1_src/data/scripts/dock_solv.prm

>  <Rbt.Receptor>
prm/pocket_docking_7.prm

>  <SCORE>
-26.6471

>  <SCORE.INTER>
-7.36514

>  <SCORE.INTER.CONST>
1

>  <SCORE.INTER.POLAR>
-1.48798

>  <SCORE.INTER.ROT>
11

>  <SCORE.INTER.SOLV>
13.6101

>  <SCORE.INTER.VDW>
-15.4202

>  <SCORE.INTER.norm>
-0.184129

>  <SCORE.INTRA>
-19.282

>  <SCORE.INTRA.DIHEDRAL>
-1.49712

>  <SCORE.INTRA.DIHEDRAL.0>
19.0336

>  <SCORE.INTRA.POLAR>
0

>  <SCORE.INTRA.POLAR.0>
0

>  <SCORE.INTRA.REPUL>
0

>  <SCORE.INTRA.REPUL.0>
0

>  <SCORE.INTRA.SOLV>
-2.37332

>  <SCORE.INTRA.SOLV.lig_0>
-97.5861

>  <SCORE.INTRA.VDW>
-17.3468

>  <SCORE.INTRA.VDW.0>
11.7669

>  <SCORE.INTRA.norm>
-0.48205

>  <SCORE.RESTR>
0

>  <SCORE.RESTR.CAVITY>
0

>  <SCORE.RESTR.norm>
0

>  <SCORE.SYSTEM>
0

>  <SCORE.SYSTEM.CONST>
0

>  <SCORE.SYSTEM.DIHEDRAL>
0

>  <SCORE.SYSTEM.SOLV>
0

>  <SCORE.SYSTEM.norm>
0

>  <SCORE.heavy>
40

>  <SCORE.norm>
-0.666178

>  <RMSD>
7.805

$$$$
1nta_lig
 OpenBabel11021811403D
libRbt.so/2013.1/901 2013/11/27
 40 42  0  0  0  0  0  0  0  0999 V2000
   -1.4829   34.9444   -4.5854 C   0  0  0  0  0  0  0  0  0  0  0  0
   -2.7047   34.6136   -4.7799 N   0  0  0  0  0  0  0  0  0  0  0  0
    1.5459   42.3891    1.4965 C   0  0  0  0  0  0  0  0  0  0  0  0
    2.6669   42.7979    1.7052 O   0  0  0  0  0  0  0  0  0  0  0  0
   -3.1026   39.7826   -0.9127 C   0  0  0  0  0  0  0  0  0  0  0  0
   -3.5639   38.5820   -0.6775 N   0  0  0  0  0  0  0  0  0  0  0  0
   -1.2452   40.9018    2.5256 C   0  0  0  0  0  0  0  0  0  0  0  0
    4.4610   41.6272   -1.7994 C   0  0  0  0  0  0  0  0  0  0  0  0
   -0.7494   36.9871   -3.6419 C   0  0  2  0  0  0  0  0  0  0  0  0
   -1.1809   36.2033   -4.8660 N   0  0  0  0  0  0  0  0  0  0  0  0
    0.6937   39.4804   -0.1409 C   0  0  2  0  0  0  0  0  0  0  0  0
    3.6414   38.9839   -0.0936 C   0  0  1  0  0  0  0  0  0  0  0  0
    2.7659   39.2882    0.9352 O   0  0  0  0  0  0  0  0  0  0  0  0
   -1.7452   38.1300   -3.3675 C   0  0  1  0  0  0  0  0  0  0  0  0
   -2.9771   37.5414   -3.0779 O   0  0  0  0  0  0  0  0  0  0  0  0
    1.8474   40.1705    0.5788 C   0  0  2  0  0  0  0  0  0  0  0  0
    4.8048   39.9371   -0.2573 C   0  0  1  0  0  0  0  0  0  0  0  0
    4.2950   41.2565   -0.4040 N   0  0  0  0  0  0  0  0  0  0  0  0
   -1.3446   38.9737   -2.1499 C   0  0  2  0  0  0  0  0  0  0  0  0
   -2.2793   40.0871   -1.8589 N   0  0  0  0  0  0  0  0  0  0  0  0
    1.1236   40.9474    1.5904 C   0  0  1  0  0  0  0  0  0  0  0  0
    1.4338   40.3777    2.8638 O   0  0  0  0  0  0  0  0  0  0  0  0
    5.6424   39.8981    0.8486 C   0  0  2  0  0  0  0  0  0  0  0  0
    6.8305   40.5661    0.5065 O   0  0  0  0  0  0  0  0  0  0  0  0
    0.0425   39.5414   -2.4058 C   0  0  1  0  0  0  0  0  0  0  0  0
    0.4093   40.3175   -1.2758 O   0  0  0  0  0  0  0  0  0  0  0  0
   -0.3180   40.8001    1.3544 C   0  0  1  0  0  0  0  0  0  0  0  0
   -0.4339   39.5416    0.7019 O   0  0  0  0  0  0  0  0  0  0  0  0
    5.9562   38.4721    1.2185 C   0  0  1  0  0  0  0  0  0  0  0  0
    6.5937   38.4555    2.4617 O   0  0  0  0  0  0  0  0  0  0  0  0
    1.0599   38.3885   -2.6393 C   0  0  2  0  0  0  0  0  0  0  0  0
    2.3558   38.9401   -2.8669 O   0  0  0  0  0  0  0  0  0  0  0  0
    4.6916   37.6905    1.3301 C   0  0  1  0  0  0  0  0  0  0  0  0
    4.0643   37.7106    0.0806 O   0  0  0  0  0  0  0  0  0  0  0  0
    0.6274   37.5719   -3.8751 C   0  0  1  0  0  0  0  0  0  0  0  0
    1.5566   36.5009   -4.1083 O   0  0  0  0  0  0  0  0  0  0  0  0
    4.9728   36.2178    1.6885 C   0  0  0  0  0  0  0  0  0  0  0  0
    3.7442   35.5002    1.7161 O   0  0  0  0  0  0  0  0  0  0  0  0
   -0.6012   34.1104   -4.1504 N   0  0  0  0  0  0  0  0  0  0  0  0
   -3.4869   40.7612   -0.1909 N   0  0  0  0  0  0  0  0  0  0  0  0
  1  2  1  0  0  0  0
  1 39  1  0  0  0  0
  3  4  1  0  0  0  0
  5  6  1  0  0  0  0
  5 40  1  0  0  0  0
  9 10  1  6  0  0  0
  9 14  1  0  0  0  0
  9 35  1  0  0  0  0
 10  1  1  0  0  0  0
 11 16  1  0  0  0  0
 11 28  1  0  0  0  0
 11 26  1  6  0  0  0
 12 17  1  0  0  0  0
 12 34  1  0  0  0  0
 12 13  1  1  0  0  0
 14 15  1  1  0  0  0
 14 19  1  0  0  0  0
 16 13  1  1  0  0  0
 16 21  1  0  0  0  0
 17 18  1  1  0  0  0
 17 23  1  0  0  0  0
 18  8  1  0  0  0  0
 19 20  1  6  0  0  0
 19 25  1  0  0  0  0
 20  5  1  0  0  0  0
 21  3  1  6  0  0  0
 21 22  1  0  0  0  0
 21 27  1  0  0  0  0
 23 24  1  6  0  0  0
 23 29  1  0  0  0  0
 25 26  1  1  0  0  0
 25 31  1  0  0  0  0
 27  7  1  1  0  0  0
 27 28  1  0  0  0  0
 29 30  1  1  0  0  0
 29 33  1  0  0  0  0
 31 32  1  6  0  0  0
 31 35  1  0  0  0  0
 33 34  1  0  0  0  0
 33 37  1  6  0  0  0
 35 36  1  1  0  0  0
 37 38  1  0  0  0  0
M  END
>  <CHROM.1>
-116.57191851,115.74655359,143.65066614,84.46478950,82.88851157,-106.56710371
99.23102779,-32.31832190,-63.53610360,71.60809427,-177.04643580,1.31558249
38.88363518,-0.72490664,-2.51440562,-0.25864309,0.71930377

>  <Name>
1nta_lig

>  <RI>
0

>  <Rbt.Current_Directory>
/home/itssahil/PROJECTS/Mol_Feturizer/New_Systems/rnas/1nta

>  <Rbt.Executable>
rbdock ($Id: //depot/dev/client3/rdock/2013.1/src/exe/rbdock.cxx#4 $)

>  <Rbt.Library>
libRbt.so (2013.1, Build901 2013/11/27)

>  <Rbt.Parameter_File>
/export/apps/rDock/src/rDock_2013.1_src/data/scripts/dock_solv.prm

>  <Rbt.Receptor>
prm/pocket_docking_8.prm

>  <SCORE>
-23.3736

>  <SCORE.INTER>
-4.16014

>  <SCORE.INTER.CONST>
1

>  <SCORE.INTER.POLAR>
-0.525924

>  <SCORE.INTER.ROT>
11

>  <SCORE.INTER.SOLV>
10.0909

>  <SCORE.INTER.VDW>
-15.3173

>  <SCORE.INTER.norm>
-0.104003

>  <SCORE.INTRA>
-19.2135

>  <SCORE.INTRA.DIHEDRAL>
-4.49817

>  <SCORE.INTRA.DIHEDRAL.0>
19.0336

>  <SCORE.INTRA.POLAR>
0

>  <SCORE.INTRA.POLAR.0>
0

>  <SCORE.INTRA.REPUL>
0

>  <SCORE.INTRA.REPUL.0>
0

>  <SCORE.INTRA.SOLV>
-0.364242

>  <SCORE.INTRA.SOLV.lig_0>
-97.5861

>  <SCORE.INTRA.VDW>
-16.7823

>  <SCORE.INTRA.VDW.0>
11.7669

>  <SCORE.INTRA.norm>
-0.480337

>  <SCORE.RESTR>
0

>  <SCORE.RESTR.CAVITY>
0

>  <SCORE.RESTR.norm>
0

>  <SCORE.SYSTEM>
0

>  <SCORE.SYSTEM.CONST>
0

>  <SCORE.SYSTEM.DIHEDRAL>
0

>  <SCORE.SYSTEM.SOLV>
0

>  <SCORE.SYSTEM.norm>
0

>  <SCORE.heavy>
40

>  <SCORE.norm>
-0.58434

>  <RMSD>
7.805

$$$$
1nta_lig
 OpenBabel11021811403D
libRbt.so/2013.1/901 2013/11/27
 40 42  0  0  0  0  0  0  0  0999 V2000
   -1.1830   29.8117   -9.4514 C   0  0  0  0  0  0  0  0  0  0  0  0
   -0.8661   30.1115  -10.6555 N   0  0  0  0  0  0  0  0  0  0  0  0
   -0.9093   35.7837   -1.5488 C   0  0  0  0  0  0  0  0  0  0  0  0
   -1.9362   35.3703   -2.0407 O   0  0  0  0  0  0  0  0  0  0  0  0
   -1.1769   35.4258   -8.0987 C   0  0  0  0  0  0  0  0  0  0  0  0
   -1.1417   35.6468   -9.3870 N   0  0  0  0  0  0  0  0  0  0  0  0
    1.3188   33.4033   -0.8924 C   0  0  0  0  0  0  0  0  0  0  0  0
    2.1517   39.8315   -1.0600 C   0  0  0  0  0  0  0  0  0  0  0  0
   -0.6012   31.0230   -7.5033 C   0  0  2  0  0  0  0  0  0  0  0  0
   -0.2296   29.9899   -8.5491 N   0  0  0  0  0  0  0  0  0  0  0  0
    1.0698   34.7988   -4.1911 C   0  0  2  0  0  0  0  0  0  0  0  0
    0.7484   38.2792   -3.4479 C   0  0  1  0  0  0  0  0  0  0  0  0
    1.3729   37.0664   -3.6856 O   0  0  0  0  0  0  0  0  0  0  0  0
   -0.2340   32.4342   -8.0000 C   0  0  1  0  0  0  0  0  0  0  0  0
   -1.0083   32.6855   -9.1337 O   0  0  0  0  0  0  0  0  0  0  0  0
    0.5896   36.0313   -3.4324 C   0  0  2  0  0  0  0  0  0  0  0  0
    1.6745   39.4655   -3.2940 C   0  0  1  0  0  0  0  0  0  0  0  0
    2.6183   39.1764   -2.2704 N   0  0  0  0  0  0  0  0  0  0  0  0
   -0.5672   33.5211   -6.9692 C   0  0  2  0  0  0  0  0  0  0  0  0
   -0.2222   34.8931   -7.4126 N   0  0  0  0  0  0  0  0  0  0  0  0
    0.4726   35.4964   -2.0718 C   0  0  1  0  0  0  0  0  0  0  0  0
    1.4872   36.1210   -1.2827 O   0  0  0  0  0  0  0  0  0  0  0  0
    2.3558   39.7242   -4.4751 C   0  0  2  0  0  0  0  0  0  0  0  0
    2.9555   40.9893   -4.3522 O   0  0  0  0  0  0  0  0  0  0  0  0
    0.1911   33.2053   -5.6897 C   0  0  1  0  0  0  0  0  0  0  0  0
   -0.1233   34.2110   -4.7392 O   0  0  0  0  0  0  0  0  0  0  0  0
    0.7365   34.0526   -2.1095 C   0  0  1  0  0  0  0  0  0  0  0  0
    1.5757   33.8848   -3.2454 O   0  0  0  0  0  0  0  0  0  0  0  0
    1.4013   39.7315   -5.6401 C   0  0  1  0  0  0  0  0  0  0  0  0
    2.1358   39.7525   -6.8286 O   0  0  0  0  0  0  0  0  0  0  0  0
   -0.2103   31.7990   -5.1607 C   0  0  2  0  0  0  0  0  0  0  0  0
    0.5028   31.5256   -3.9557 O   0  0  0  0  0  0  0  0  0  0  0  0
    0.5748   38.4909   -5.6223 C   0  0  1  0  0  0  0  0  0  0  0  0
   -0.1582   38.4820   -4.4315 O   0  0  0  0  0  0  0  0  0  0  0  0
    0.1492   30.7362   -6.2201 C   0  0  1  0  0  0  0  0  0  0  0  0
   -0.2136   29.4280   -5.7490 O   0  0  0  0  0  0  0  0  0  0  0  0
   -0.4308   38.4704   -6.7905 C   0  0  0  0  0  0  0  0  0  0  0  0
   -1.3395   39.5558   -6.6447 O   0  0  0  0  0  0  0  0  0  0  0  0
   -2.3488   29.3616   -9.1346 N   0  0  0  0  0  0  0  0  0  0  0  0
   -2.2045   35.7682   -7.4254 N   0  0  0  0  0  0  0  0  0  0  0  0
  1  2  1  0  0  0  0
  1 39  1  0  0  0  0
  3  4  1  0  0  0  0
  5  6  1  0  0  0  0
  5 40  1  0  0  0  0
  9 10  1  6  0  0  0
  9 14  1  0  0  0  0
  9 35  1  0  0  0  0
 10  1  1  0  0  0  0
 11 16  1  0  0  0  0
 11 28  1  0  0  0  0
 11 26  1  1  0  0  0
 12 17  1  0  0  0  0
 12 34  1  0  0  0  0
 12 13  1  6  0  0  0
 14 15  1  6  0  0  0
 14 19  1  0  0  0  0
 16 13  1  1  0  0  0
 16 21  1  0  0  0  0
 17 18  1  1  0  0  0
 17 23  1  0  0  0  0
 18  8  1  0  0  0  0
 19 20  1  6  0  0  0
 19 25  1  0  0  0  0
 20  5  1  0  0  0  0
 21  3  1  1  0  0  0
 21 22  1  0  0  0  0
 21 27  1  0  0  0  0
 23 24  1  1  0  0  0
 23 29  1  0  0  0  0
 25 26  1  1  0  0  0
 25 31  1  0  0  0  0
 27  7  1  1  0  0  0
 27 28  1  0  0  0  0
 29 30  1  6  0  0  0
 29 33  1  0  0  0  0
 31 32  1  1  0  0  0
 31 35  1  0  0  0  0
 33 34  1  0  0  0  0
 33 37  1  6  0  0  0
 35 36  1  1  0  0  0
 37 38  1  0  0  0  0
M  END
>  <CHROM.1>
-86.22248912,117.43431306,168.42009086,161.71942067,157.81929960,-99.36713688
86.41364928,-108.82895910,61.40523371,-127.37569471,-63.02751141,0.23458747
35.17499819,-5.27604725,2.63649955,1.29805484,2.60874614

>  <Name>
1nta_lig

>  <RI>
0

>  <Rbt.Current_Directory>
/home/itssahil/PROJECTS/Mol_Feturizer/New_Systems/rnas/1nta

>  <Rbt.Executable>
rbdock ($Id: //depot/dev/client3/rdock/2013.1/src/exe/rbdock.cxx#4 $)

>  <Rbt.Library>
libRbt.so (2013.1, Build901 2013/11/27)

>  <Rbt.Parameter_File>
/export/apps/rDock/src/rDock_2013.1_src/data/scripts/dock_solv.prm

>  <Rbt.Receptor>
prm/pocket_docking_8.prm

>  <SCORE>
-25.8632

>  <SCORE.INTER>
-4.63965

>  <SCORE.INTER.CONST>
1

>  <SCORE.INTER.POLAR>
-0.28714

>  <SCORE.INTER.ROT>
11

>  <SCORE.INTER.SOLV>
12.3349

>  <SCORE.INTER.VDW>
-17.181

>  <SCORE.INTER.norm>
-0.115991

>  <SCORE.INTRA>
-21.2236

>  <SCORE.INTRA.DIHEDRAL>
-4.87261

>  <SCORE.INTRA.DIHEDRAL.0>
19.0336

>  <SCORE.INTRA.POLAR>
0

>  <SCORE.INTRA.POLAR.0>
0

>  <SCORE.INTRA.REPUL>
0

>  <SCORE.INTRA.REPUL.0>
0

>  <SCORE.INTRA.SOLV>
-1.8335

>  <SCORE.INTRA.SOLV.lig_0>
-97.5861

>  <SCORE.INTRA.VDW>
-17.8705

>  <SCORE.INTRA.VDW.0>
11.7669

>  <SCORE.INTRA.norm>
-0.530589

>  <SCORE.RESTR>
0

>  <SCORE.RESTR.CAVITY>
0

>  <SCORE.RESTR.norm>
0

>  <SCORE.SYSTEM>
0

>  <SCORE.SYSTEM.CONST>
0

>  <SCORE.SYSTEM.DIHEDRAL>
0

>  <SCORE.SYSTEM.SOLV>
0

>  <SCORE.SYSTEM.norm>
0

>  <SCORE.heavy>
40

>  <SCORE.norm>
-0.64658

>  <RMSD>
7.819

$$$$
1nta_lig
 OpenBabel11021811403D
libRbt.so/2013.1/901 2013/11/27
 40 42  0  0  0  0  0  0  0  0999 V2000
    0.9046   37.3103   -0.2769 C   0  0  0  0  0  0  0  0  0  0  0  0
    0.1576   38.3374   -0.1121 N   0  0  0  0  0  0  0  0  0  0  0  0
   -2.0083   32.0041   -7.6646 C   0  0  0  0  0  0  0  0  0  0  0  0
   -2.3689   31.9965   -8.8210 O   0  0  0  0  0  0  0  0  0  0  0  0
   -1.2514   36.1589   -6.1183 C   0  0  0  0  0  0  0  0  0  0  0  0
   -1.6104   37.3974   -5.9016 N   0  0  0  0  0  0  0  0  0  0  0  0
    0.8762   30.9851   -8.9695 C   0  0  0  0  0  0  0  0  0  0  0  0
   -2.7373   26.8793   -5.6225 C   0  0  0  0  0  0  0  0  0  0  0  0
    0.6695   35.6775   -1.9737 C   0  0  2  0  0  0  0  0  0  0  0  0
    0.2736   36.1923   -0.6036 N   0  0  0  0  0  0  0  0  0  0  0  0
    0.6553   31.8292   -5.4868 C   0  0  2  0  0  0  0  0  0  0  0  0
   -2.4128   30.0198   -4.9016 C   0  0  1  0  0  0  0  0  0  0  0  0
   -1.0813   30.3952   -4.8412 O   0  0  0  0  0  0  0  0  0  0  0  0
   -0.5429   35.7148   -2.9234 C   0  0  1  0  0  0  0  0  0  0  0  0
   -0.9117   37.0532   -3.0669 O   0  0  0  0  0  0  0  0  0  0  0  0
   -0.7946   31.3910   -5.6630 C   0  0  2  0  0  0  0  0  0  0  0  0
   -2.7498   28.7149   -4.2143 C   0  0  1  0  0  0  0  0  0  0  0  0
   -1.9144   27.6929   -4.7433 N   0  0  0  0  0  0  0  0  0  0  0  0
   -0.2056   35.1814   -4.3221 C   0  0  2  0  0  0  0  0  0  0  0  0
   -1.3520   35.1984   -5.2622 N   0  0  0  0  0  0  0  0  0  0  0  0
   -0.8575   31.2037   -7.1162 C   0  0  1  0  0  0  0  0  0  0  0  0
   -1.0128   29.8037   -7.3564 O   0  0  0  0  0  0  0  0  0  0  0  0
   -2.5419   28.8030   -2.8449 C   0  0  2  0  0  0  0  0  0  0  0  0
   -3.1459   27.6823   -2.2497 O   0  0  0  0  0  0  0  0  0  0  0  0
    0.2962   33.7539   -4.1737 C   0  0  1  0  0  0  0  0  0  0  0  0
    0.6099   33.2670   -5.4692 O   0  0  0  0  0  0  0  0  0  0  0  0
    0.4172   31.6369   -7.7021 C   0  0  1  0  0  0  0  0  0  0  0  0
    1.3583   31.4590   -6.6506 O   0  0  0  0  0  0  0  0  0  0  0  0
   -3.1673   30.0600   -2.2996 C   0  0  1  0  0  0  0  0  0  0  0  0
   -2.7413   30.2439   -0.9816 O   0  0  0  0  0  0  0  0  0  0  0  0
    1.5476   33.7177   -3.2509 C   0  0  2  0  0  0  0  0  0  0  0  0
    2.0093   32.3730   -3.1326 O   0  0  0  0  0  0  0  0  0  0  0  0
   -2.7226   31.2340   -3.1036 C   0  0  1  0  0  0  0  0  0  0  0  0
   -3.1571   31.0414   -4.4187 O   0  0  0  0  0  0  0  0  0  0  0  0
    1.1647   34.2518   -1.8548 C   0  0  1  0  0  0  0  0  0  0  0  0
    2.3089   34.2255   -0.9859 O   0  0  0  0  0  0  0  0  0  0  0  0
   -3.3586   32.5400   -2.5877 C   0  0  0  0  0  0  0  0  0  0  0  0
   -4.7755   32.4337   -2.6671 O   0  0  0  0  0  0  0  0  0  0  0  0
    2.1847   37.3553   -0.1307 N   0  0  0  0  0  0  0  0  0  0  0  0
   -0.7824   35.8257   -7.2565 N   0  0  0  0  0  0  0  0  0  0  0  0
  1  2  1  0  0  0  0
  1 39  1  0  0  0  0
  3  4  1  0  0  0  0
  5  6  1  0  0  0  0
  5 40  1  0  0  0  0
  9 10  1  1  0  0  0
  9 14  1  0  0  0  0
  9 35  1  0  0  0  0
 10  1  1  0  0  0  0
 11 16  1  0  0  0  0
 11 28  1  0  0  0  0
 11 26  1  6  0  0  0
 12 17  1  0  0  0  0
 12 34  1  0  0  0  0
 12 13  1  1  0  0  0
 14 15  1  6  0  0  0
 14 19  1  0  0  0  0
 16 13  1  1  0  0  0
 16 21  1  0  0  0  0
 17 18  1  6  0  0  0
 17 23  1  0  0  0  0
 18  8  1  0  0  0  0
 19 20  1  6  0  0  0
 19 25  1  0  0  0  0
 20  5  1  0  0  0  0
 21  3  1  6  0  0  0
 21 22  1  0  0  0  0
 21 27  1  0  0  0  0
 23 24  1  1  0  0  0
 23 29  1  0  0  0  0
 25 26  1  6  0  0  0
 25 31  1  0  0  0  0
 27  7  1  6  0  0  0
 27 28  1  0  0  0  0
 29 30  1  1  0  0  0
 29 33  1  0  0  0  0
 31 32  1  1  0  0  0
 31 35  1  0  0  0  0
 33 34  1  0  0  0  0
 33 37  1  1  0  0  0
 35 36  1  1  0  0  0
 37 38  1  0  0  0  0
M  END
>  <CHROM.1>
-115.57621938,116.75410762,83.66249665,167.78191448,176.02268328,-105.36188266
104.58088424,-82.93862735,-175.53332395,-160.54230355,-59.59629998,-0.88385697
32.67676856,-4.20558417,0.72309719,1.14194069,1.25185980

>  <Name>
1nta_lig

>  <RI>
0

>  <Rbt.Current_Directory>
/home/itssahil/PROJECTS/Mol_Feturizer/New_Systems/rnas/1nta

>  <Rbt.Executable>
rbdock ($Id: //depot/dev/client3/rdock/2013.1/src/exe/rbdock.cxx#4 $)

>  <Rbt.Library>
libRbt.so (2013.1, Build901 2013/11/27)

>  <Rbt.Parameter_File>
/export/apps/rDock/src/rDock_2013.1_src/data/scripts/dock_solv.prm

>  <Rbt.Receptor>
prm/pocket_docking_8.prm

>  <SCORE>
-28.2764

>  <SCORE.INTER>
-3.88268

>  <SCORE.INTER.CONST>
1

>  <SCORE.INTER.POLAR>
-0.526897

>  <SCORE.INTER.ROT>
11

>  <SCORE.INTER.SOLV>
8.99368

>  <SCORE.INTER.VDW>
-14.7634

>  <SCORE.INTER.norm>
-0.0970669

>  <SCORE.INTRA>
-24.3938

>  <SCORE.INTRA.DIHEDRAL>
-9.59284

>  <SCORE.INTRA.DIHEDRAL.0>
19.0336

>  <SCORE.INTRA.POLAR>
0

>  <SCORE.INTRA.POLAR.0>
0

>  <SCORE.INTRA.REPUL>
0

>  <SCORE.INTRA.REPUL.0>
0

>  <SCORE.INTRA.SOLV>
-4.423

>  <SCORE.INTRA.SOLV.lig_0>
-97.5861

>  <SCORE.INTRA.VDW>
-17.3858

>  <SCORE.INTRA.VDW.0>
11.7669

>  <SCORE.INTRA.norm>
-0.609844

>  <SCORE.RESTR>
0

>  <SCORE.RESTR.CAVITY>
0

>  <SCORE.RESTR.norm>
0

>  <SCORE.SYSTEM>
0

>  <SCORE.SYSTEM.CONST>
0

>  <SCORE.SYSTEM.DIHEDRAL>
0

>  <SCORE.SYSTEM.SOLV>
0

>  <SCORE.SYSTEM.norm>
0

>  <SCORE.heavy>
40

>  <SCORE.norm>
-0.706911

>  <RMSD>
7.856

$$$$
1nta_lig
 OpenBabel11021811403D
libRbt.so/2013.1/901 2013/11/27
 40 42  0  0  0  0  0  0  0  0999 V2000
   -4.1086   37.3149    4.1878 C   0  0  0  0  0  0  0  0  0  0  0  0
   -5.3741   37.5111    4.1997 N   0  0  0  0  0  0  0  0  0  0  0  0
   -0.6994   38.0037   -4.2919 C   0  0  0  0  0  0  0  0  0  0  0  0
   -1.4073   37.1244   -4.7313 O   0  0  0  0  0  0  0  0  0  0  0  0
   -2.9742   40.2551   -1.4102 C   0  0  0  0  0  0  0  0  0  0  0  0
   -2.0746   41.1861   -1.5943 N   0  0  0  0  0  0  0  0  0  0  0  0
    2.1563   39.7070   -4.2208 C   0  0  0  0  0  0  0  0  0  0  0  0
   -0.1317   33.9236   -5.4723 C   0  0  0  0  0  0  0  0  0  0  0  0
   -2.6476   37.5481    2.3407 C   0  0  2  0  0  0  0  0  0  0  0  0
   -3.6368   36.6984    3.1144 N   0  0  0  0  0  0  0  0  0  0  0  0
    1.0446   37.9026   -1.3227 C   0  0  2  0  0  0  0  0  0  0  0  0
   -0.1923   34.8346   -2.4900 C   0  0  1  0  0  0  0  0  0  0  0  0
    0.8046   35.7664   -2.2543 O   0  0  0  0  0  0  0  0  0  0  0  0
   -3.1974   37.8511    0.9340 C   0  0  1  0  0  0  0  0  0  0  0  0
   -4.3600   38.6050    1.1005 O   0  0  0  0  0  0  0  0  0  0  0  0
    0.3741   37.0121   -2.3632 C   0  0  2  0  0  0  0  0  0  0  0  0
    0.2495   33.5829   -3.2159 C   0  0  1  0  0  0  0  0  0  0  0  0
    0.8823   33.9614   -4.4319 N   0  0  0  0  0  0  0  0  0  0  0  0
   -2.2247   38.6908    0.0953 C   0  0  2  0  0  0  0  0  0  0  0  0
   -2.7200   38.9978   -1.2680 N   0  0  0  0  0  0  0  0  0  0  0  0
    0.6127   37.7820   -3.5884 C   0  0  1  0  0  0  0  0  0  0  0  0
    1.5316   37.0333   -4.3867 O   0  0  0  0  0  0  0  0  0  0  0  0
    1.1462   32.8511   -2.4502 C   0  0  2  0  0  0  0  0  0  0  0  0
    1.2782   31.5842   -3.0439 O   0  0  0  0  0  0  0  0  0  0  0  0
   -0.9139   37.9276   -0.0108 C   0  0  1  0  0  0  0  0  0  0  0  0
   -0.0173   38.7099   -0.7840 O   0  0  0  0  0  0  0  0  0  0  0  0
    1.2435   39.0577   -3.2272 C   0  0  1  0  0  0  0  0  0  0  0  0
    1.9140   38.7770   -2.0047 O   0  0  0  0  0  0  0  0  0  0  0  0
    0.6299   32.6958   -1.0438 C   0  0  1  0  0  0  0  0  0  0  0  0
    1.6474   32.1726   -0.2419 O   0  0  0  0  0  0  0  0  0  0  0  0
   -0.3328   37.6586    1.4065 C   0  0  2  0  0  0  0  0  0  0  0  0
    0.9005   36.9517    1.2858 O   0  0  0  0  0  0  0  0  0  0  0  0
    0.2427   34.0284   -0.4990 C   0  0  1  0  0  0  0  0  0  0  0  0
   -0.7778   34.5408   -1.3062 O   0  0  0  0  0  0  0  0  0  0  0  0
   -1.3346   36.8054    2.2126 C   0  0  1  0  0  0  0  0  0  0  0  0
   -0.8148   36.5448    3.5266 O   0  0  0  0  0  0  0  0  0  0  0  0
   -0.3108   33.9086    0.9347 C   0  0  0  0  0  0  0  0  0  0  0  0
    0.7505   33.5668    1.8189 O   0  0  0  0  0  0  0  0  0  0  0  0
   -3.3419   37.6862    5.1555 N   0  0  0  0  0  0  0  0  0  0  0  0
   -4.2073   40.5721   -1.3362 N   0  0  0  0  0  0  0  0  0  0  0  0
  1  2  1  0  0  0  0
  1 39  1  0  0  0  0
  3  4  1  0  0  0  0
  5  6  1  0  0  0  0
  5 40  1  0  0  0  0
  9 10  1  1  0  0  0
  9 14  1  0  0  0  0
  9 35  1  0  0  0  0
 10  1  1  0  0  0  0
 11 16  1  0  0  0  0
 11 28  1  0  0  0  0
 11 26  1  6  0  0  0
 12 17  1  0  0  0  0
 12 34  1  0  0  0  0
 12 13  1  1  0  0  0
 14 15  1  1  0  0  0
 14 19  1  0  0  0  0
 16 13  1  6  0  0  0
 16 21  1  0  0  0  0
 17 18  1  6  0  0  0
 17 23  1  0  0  0  0
 18  8  1  0  0  0  0
 19 20  1  6  0  0  0
 19 25  1  0  0  0  0
 20  5  1  0  0  0  0
 21  3  1  6  0  0  0
 21 22  1  0  0  0  0
 21 27  1  0  0  0  0
 23 24  1  6  0  0  0
 23 29  1  0  0  0  0
 25 26  1  6  0  0  0
 25 31  1  0  0  0  0
 27  7  1  6  0  0  0
 27 28  1  0  0  0  0
 29 30  1  1  0  0  0
 29 33  1  0  0  0  0
 31 32  1  6  0  0  0
 31 35  1  0  0  0  0
 33 34  1  0  0  0  0
 33 37  1  1  0  0  0
 35 36  1  1  0  0  0
 37 38  1  0  0  0  0
M  END
>  <CHROM.1>
-116.66944731,118.52351251,69.10021362,143.44146597,143.03965445,-94.24443011
112.06697617,77.51797368,-62.37141546,-159.88675537,70.00247116,-0.71967113
36.65052064,-0.78761453,-2.94827561,1.00176990,-0.71318782

>  <Name>
1nta_lig

>  <RI>
0

>  <Rbt.Current_Directory>
/home/itssahil/PROJECTS/Mol_Feturizer/New_Systems/rnas/1nta

>  <Rbt.Executable>
rbdock ($Id: //depot/dev/client3/rdock/2013.1/src/exe/rbdock.cxx#4 $)

>  <Rbt.Library>
libRbt.so (2013.1, Build901 2013/11/27)

>  <Rbt.Parameter_File>
/export/apps/rDock/src/rDock_2013.1_src/data/scripts/dock_solv.prm

>  <Rbt.Receptor>
prm/pocket_docking_5.prm

>  <SCORE>
-17.1242

>  <SCORE.INTER>
4.68473

>  <SCORE.INTER.CONST>
1

>  <SCORE.INTER.POLAR>
-0.423648

>  <SCORE.INTER.ROT>
11

>  <SCORE.INTER.SOLV>
8.2289

>  <SCORE.INTER.VDW>
-9.14098

>  <SCORE.INTER.norm>
0.117118

>  <SCORE.INTRA>
-21.809

>  <SCORE.INTRA.DIHEDRAL>
-2.46772

>  <SCORE.INTRA.DIHEDRAL.0>
19.0336

>  <SCORE.INTRA.POLAR>
0

>  <SCORE.INTRA.POLAR.0>
0

>  <SCORE.INTRA.REPUL>
0

>  <SCORE.INTRA.REPUL.0>
0

>  <SCORE.INTRA.SOLV>
-2.83622

>  <SCORE.INTRA.SOLV.lig_0>
-97.5861

>  <SCORE.INTRA.VDW>
-19.157

>  <SCORE.INTRA.VDW.0>
11.7669

>  <SCORE.INTRA.norm>
-0.545224

>  <SCORE.RESTR>
0

>  <SCORE.RESTR.CAVITY>
0

>  <SCORE.RESTR.norm>
0

>  <SCORE.SYSTEM>
0

>  <SCORE.SYSTEM.CONST>
0

>  <SCORE.SYSTEM.DIHEDRAL>
0

>  <SCORE.SYSTEM.SOLV>
0

>  <SCORE.SYSTEM.norm>
0

>  <SCORE.heavy>
40

>  <SCORE.norm>
-0.428106

>  <RMSD>
7.864

$$$$
1nta_lig
 OpenBabel11021811403D
libRbt.so/2013.1/901 2013/11/27
 40 42  0  0  0  0  0  0  0  0999 V2000
    4.2384   30.7508   -7.8992 C   0  0  0  0  0  0  0  0  0  0  0  0
    4.2584   29.4805   -8.0602 N   0  0  0  0  0  0  0  0  0  0  0  0
    9.8993   32.3157    0.1947 C   0  0  0  0  0  0  0  0  0  0  0  0
   10.9856   32.0476    0.6589 O   0  0  0  0  0  0  0  0  0  0  0  0
    3.7624   33.4205   -3.0536 C   0  0  0  0  0  0  0  0  0  0  0  0
    3.1880   32.4131   -2.4495 N   0  0  0  0  0  0  0  0  0  0  0  0
   11.4687   33.9122   -2.2648 C   0  0  0  0  0  0  0  0  0  0  0  0
    5.2151   32.2668   -0.3470 C   0  0  0  0  0  0  0  0  0  0  0  0
    5.8426   31.2676   -6.2378 C   0  0  2  0  0  0  0  0  0  0  0  0
    5.4172   31.3185   -7.6923 N   0  0  0  0  0  0  0  0  0  0  0  0
    7.8814   33.8743   -2.1220 C   0  0  2  0  0  0  0  0  0  0  0  0
    6.2261   34.9131   -0.3007 C   0  0  1  0  0  0  0  0  0  0  0  0
    7.5615   34.7500    0.0274 O   0  0  0  0  0  0  0  0  0  0  0  0
    5.2088   32.4366   -5.4601 C   0  0  1  0  0  0  0  0  0  0  0  0
    3.8255   32.2556   -5.5008 O   0  0  0  0  0  0  0  0  0  0  0  0
    8.1273   33.7468   -0.6225 C   0  0  2  0  0  0  0  0  0  0  0  0
    5.2402   34.3346    0.6904 C   0  0  1  0  0  0  0  0  0  0  0  0
    5.5460   32.9598    0.8868 N   0  0  0  0  0  0  0  0  0  0  0  0
    5.6246   32.4489   -3.9830 C   0  0  2  0  0  0  0  0  0  0  0  0
    5.0361   33.5648   -3.2042 N   0  0  0  0  0  0  0  0  0  0  0  0
    9.5816   33.5599   -0.5906 C   0  0  1  0  0  0  0  0  0  0  0  0
   10.1461   34.7303    0.0040 O   0  0  0  0  0  0  0  0  0  0  0  0
    5.3146   34.9915    1.9107 C   0  0  2  0  0  0  0  0  0  0  0  0
    4.1922   34.6129    2.6670 O   0  0  0  0  0  0  0  0  0  0  0  0
    7.1409   32.5431   -3.9211 C   0  0  1  0  0  0  0  0  0  0  0  0
    7.5200   32.5505   -2.5536 O   0  0  0  0  0  0  0  0  0  0  0  0
   10.0731   33.4567   -1.9703 C   0  0  1  0  0  0  0  0  0  0  0  0
    9.1141   34.1787   -2.7330 O   0  0  0  0  0  0  0  0  0  0  0  0
    5.3017   36.4834    1.7045 C   0  0  1  0  0  0  0  0  0  0  0  0
    5.6177   37.1113    2.9122 O   0  0  0  0  0  0  0  0  0  0  0  0
    7.7847   31.3400   -4.6674 C   0  0  2  0  0  0  0  0  0  0  0  0
    9.2056   31.4405   -4.5894 O   0  0  0  0  0  0  0  0  0  0  0  0
    6.3327   36.8618    0.6963 C   0  0  1  0  0  0  0  0  0  0  0  0
    6.0049   36.2316   -0.5082 O   0  0  0  0  0  0  0  0  0  0  0  0
    7.3504   31.3695   -6.1478 C   0  0  1  0  0  0  0  0  0  0  0  0
    7.9365   30.2648   -6.8556 O   0  0  0  0  0  0  0  0  0  0  0  0
    6.3369   38.3823    0.4424 C   0  0  0  0  0  0  0  0  0  0  0  0
    5.0108   38.8127    0.1574 O   0  0  0  0  0  0  0  0  0  0  0  0
    3.1461   31.4350   -7.9305 N   0  0  0  0  0  0  0  0  0  0  0  0
    3.0464   34.3419   -3.5681 N   0  0  0  0  0  0  0  0  0  0  0  0
  1  2  1  0  0  0  0
  1 39  1  0  0  0  0
  3  4  1  0  0  0  0
  5  6  1  0  0  0  0
  5 40  1  0  0  0  0
  9 10  1  6  0  0  0
  9 14  1  0  0  0  0
  9 35  1  0  0  0  0
 10  1  1  0  0  0  0
 11 16  1  0  0  0  0
 11 28  1  0  0  0  0
 11 26  1  6  0  0  0
 12 17  1  0  0  0  0
 12 34  1  0  0  0  0
 12 13  1  1  0  0  0
 14 15  1  1  0  0  0
 14 19  1  0  0  0  0
 16 13  1  1  0  0  0
 16 21  1  0  0  0  0
 17 18  1  1  0  0  0
 17 23  1  0  0  0  0
 18  8  1  0  0  0  0
 19 20  1  1  0  0  0
 19 25  1  0  0  0  0
 20  5  1  0  0  0  0
 21  3  1  1  0  0  0
 21 22  1  0  0  0  0
 21 27  1  0  0  0  0
 23 24  1  1  0  0  0
 23 29  1  0  0  0  0
 25 26  1  1  0  0  0
 25 31  1  0  0  0  0
 27  7  1  1  0  0  0
 27 28  1  0  0  0  0
 29 30  1  1  0  0  0
 29 33  1  0  0  0  0
 31 32  1  6  0  0  0
 31 35  1  0  0  0  0
 33 34  1  0  0  0  0
 33 37  1  6  0  0  0
 35 36  1  6  0  0  0
 37 38  1  0  0  0  0
M  END
>  <CHROM.1>
-83.75526551,-84.28244106,174.64110988,100.05907654,51.86347092,-69.30712429
68.97734867,60.54427612,-162.45014251,-103.63519507,-51.16088431,6.54985679
33.50569242,-2.26160484,1.70603678,0.22716622,-2.13827558

>  <Name>
1nta_lig

>  <RI>
0

>  <Rbt.Current_Directory>
/home/itssahil/PROJECTS/Mol_Feturizer/New_Systems/rnas/1nta

>  <Rbt.Executable>
rbdock ($Id: //depot/dev/client3/rdock/2013.1/src/exe/rbdock.cxx#4 $)

>  <Rbt.Library>
libRbt.so (2013.1, Build901 2013/11/27)

>  <Rbt.Parameter_File>
/export/apps/rDock/src/rDock_2013.1_src/data/scripts/dock_solv.prm

>  <Rbt.Receptor>
prm/blind_docking_60.prm

>  <SCORE>
112.702

>  <SCORE.INTER>
124.472

>  <SCORE.INTER.CONST>
1

>  <SCORE.INTER.POLAR>
-1.45029

>  <SCORE.INTER.ROT>
11

>  <SCORE.INTER.SOLV>
54.7126

>  <SCORE.INTER.VDW>
58.6447

>  <SCORE.INTER.norm>
3.1118

>  <SCORE.INTRA>
-14.4898

>  <SCORE.INTRA.DIHEDRAL>
-3.88288

>  <SCORE.INTRA.DIHEDRAL.0>
19.0336

>  <SCORE.INTRA.POLAR>
0

>  <SCORE.INTRA.POLAR.0>
0

>  <SCORE.INTRA.REPUL>
0

>  <SCORE.INTRA.REPUL.0>
0

>  <SCORE.INTRA.SOLV>
-0.572051

>  <SCORE.INTRA.SOLV.lig_0>
-97.5861

>  <SCORE.INTRA.VDW>
-12.2623

>  <SCORE.INTRA.VDW.0>
11.7669

>  <SCORE.INTRA.norm>
-0.362244

>  <SCORE.RESTR>
2.71945

>  <SCORE.RESTR.CAVITY>
2.71945

>  <SCORE.RESTR.norm>
0.0679863

>  <SCORE.SYSTEM>
0

>  <SCORE.SYSTEM.CONST>
0

>  <SCORE.SYSTEM.DIHEDRAL>
0

>  <SCORE.SYSTEM.SOLV>
0

>  <SCORE.SYSTEM.norm>
0

>  <SCORE.heavy>
40

>  <SCORE.norm>
2.81754

>  <RMSD>
7.884

$$$$
1nta_lig
 OpenBabel11021811403D
libRbt.so/2013.1/901 2013/11/27
 40 42  0  0  0  0  0  0  0  0999 V2000
   -4.4452   35.5614    3.8505 C   0  0  0  0  0  0  0  0  0  0  0  0
   -3.9360   35.8883    4.9792 N   0  0  0  0  0  0  0  0  0  0  0  0
   -0.4031   35.3207   -4.4307 C   0  0  0  0  0  0  0  0  0  0  0  0
   -0.5465   35.2507   -5.6315 O   0  0  0  0  0  0  0  0  0  0  0  0
   -4.5490   36.6818   -2.3689 C   0  0  0  0  0  0  0  0  0  0  0  0
   -4.5119   37.8873   -2.8741 N   0  0  0  0  0  0  0  0  0  0  0  0
    0.7721   38.3484   -5.1473 C   0  0  0  0  0  0  0  0  0  0  0  0
    4.8354   33.7853   -3.1084 C   0  0  0  0  0  0  0  0  0  0  0  0
   -3.1398   35.9927    1.9242 C   0  0  2  0  0  0  0  0  0  0  0  0
   -3.6069   35.0135    2.9834 N   0  0  0  0  0  0  0  0  0  0  0  0
    0.2527   37.3622   -1.7343 C   0  0  2  0  0  0  0  0  0  0  0  0
    1.8060   34.1249   -2.1106 C   0  0  1  0  0  0  0  0  0  0  0  0
    1.5587   35.4179   -1.6809 O   0  0  0  0  0  0  0  0  0  0  0  0
   -3.5832   35.5140    0.5288 C   0  0  1  0  0  0  0  0  0  0  0  0
   -4.9788   35.5159    0.5177 O   0  0  0  0  0  0  0  0  0  0  0  0
    0.5220   35.9682   -2.2905 C   0  0  2  0  0  0  0  0  0  0  0  0
    3.0947   33.5111   -1.6094 C   0  0  1  0  0  0  0  0  0  0  0  0
    4.1731   34.3711   -1.9551 N   0  0  0  0  0  0  0  0  0  0  0  0
   -3.1162   36.4572   -0.5878 C   0  0  2  0  0  0  0  0  0  0  0  0
   -3.5219   36.0242   -1.9465 N   0  0  0  0  0  0  0  0  0  0  0  0
    0.5596   36.2421   -3.7308 C   0  0  1  0  0  0  0  0  0  0  0  0
    1.9066   36.0434   -4.1646 O   0  0  0  0  0  0  0  0  0  0  0  0
    3.0694   33.3518   -0.2309 C   0  0  2  0  0  0  0  0  0  0  0  0
    4.1470   32.5212    0.1214 O   0  0  0  0  0  0  0  0  0  0  0  0
   -1.5997   36.5471   -0.5253 C   0  0  1  0  0  0  0  0  0  0  0  0
   -1.1737   37.4230   -1.5573 O   0  0  0  0  0  0  0  0  0  0  0  0
    0.2034   37.6492   -3.9516 C   0  0  1  0  0  0  0  0  0  0  0  0
    0.5774   38.2940   -2.7403 O   0  0  0  0  0  0  0  0  0  0  0  0
    1.7773   32.7082    0.1989 C   0  0  1  0  0  0  0  0  0  0  0  0
    1.6754   32.7799    1.5906 O   0  0  0  0  0  0  0  0  0  0  0  0
   -1.1498   37.0727    0.8675 C   0  0  2  0  0  0  0  0  0  0  0  0
    0.2738   37.1598    0.9030 O   0  0  0  0  0  0  0  0  0  0  0  0
    0.6253   33.4459   -0.3936 C   0  0  1  0  0  0  0  0  0  0  0  0
    0.7351   33.3647   -1.7853 O   0  0  0  0  0  0  0  0  0  0  0  0
   -1.6296   36.0933    1.9592 C   0  0  1  0  0  0  0  0  0  0  0  0
   -1.2222   36.5615    3.2552 O   0  0  0  0  0  0  0  0  0  0  0  0
   -0.7175   32.8040    0.0077 C   0  0  0  0  0  0  0  0  0  0  0  0
   -1.7793   33.4987   -0.6366 O   0  0  0  0  0  0  0  0  0  0  0  0
   -5.6887   35.7553    3.5704 N   0  0  0  0  0  0  0  0  0  0  0  0
   -5.6674   36.0818   -2.2443 N   0  0  0  0  0  0  0  0  0  0  0  0
  1  2  1  0  0  0  0
  1 39  1  0  0  0  0
  3  4  1  0  0  0  0
  5  6  1  0  0  0  0
  5 40  1  0  0  0  0
  9 10  1  1  0  0  0
  9 14  1  0  0  0  0
  9 35  1  0  0  0  0
 10  1  1  0  0  0  0
 11 16  1  0  0  0  0
 11 28  1  0  0  0  0
 11 26  1  6  0  0  0
 12 17  1  0  0  0  0
 12 34  1  0  0  0  0
 12 13  1  1  0  0  0
 14 15  1  1  0  0  0
 14 19  1  0  0  0  0
 16 13  1  1  0  0  0
 16 21  1  0  0  0  0
 17 18  1  1  0  0  0
 17 23  1  0  0  0  0
 18  8  1  0  0  0  0
 19 20  1  6  0  0  0
 19 25  1  0  0  0  0
 20  5  1  0  0  0  0
 21  3  1  6  0  0  0
 21 22  1  0  0  0  0
 21 27  1  0  0  0  0
 23 24  1  6  0  0  0
 23 29  1  0  0  0  0
 25 26  1  6  0  0  0
 25 31  1  0  0  0  0
 27  7  1  6  0  0  0
 27 28  1  0  0  0  0
 29 30  1  1  0  0  0
 29 33  1  0  0  0  0
 31 32  1  6  0  0  0
 31 35  1  0  0  0  0
 33 34  1  0  0  0  0
 33 37  1  1  0  0  0
 35 36  1  1  0  0  0
 37 38  1  0  0  0  0
M  END
>  <CHROM.1>
-118.01096357,-101.24790414,67.86780350,171.26488430,177.27446112,-102.40681485
100.85699208,79.82475382,-175.68068293,-168.79941879,-176.97914223,-0.66691589
35.47674401,-0.82499307,-2.66302946,0.41039811,-1.18281812

>  <Name>
1nta_lig

>  <RI>
0

>  <Rbt.Current_Directory>
/home/itssahil/PROJECTS/Mol_Feturizer/New_Systems/rnas/1nta

>  <Rbt.Executable>
rbdock ($Id: //depot/dev/client3/rdock/2013.1/src/exe/rbdock.cxx#4 $)

>  <Rbt.Library>
libRbt.so (2013.1, Build901 2013/11/27)

>  <Rbt.Parameter_File>
/export/apps/rDock/src/rDock_2013.1_src/data/scripts/dock_solv.prm

>  <Rbt.Receptor>
prm/pocket_docking_5.prm

>  <SCORE>
-26.4821

>  <SCORE.INTER>
-0.848776

>  <SCORE.INTER.CONST>
1

>  <SCORE.INTER.POLAR>
-0.824621

>  <SCORE.INTER.ROT>
11

>  <SCORE.INTER.SOLV>
8.48889

>  <SCORE.INTER.VDW>
-11.5801

>  <SCORE.INTER.norm>
-0.0212194

>  <SCORE.INTRA>
-25.6333

>  <SCORE.INTRA.DIHEDRAL>
-13.1391

>  <SCORE.INTRA.DIHEDRAL.0>
19.0336

>  <SCORE.INTRA.POLAR>
0

>  <SCORE.INTRA.POLAR.0>
0

>  <SCORE.INTRA.REPUL>
0

>  <SCORE.INTRA.REPUL.0>
0

>  <SCORE.INTRA.SOLV>
-3.51291

>  <SCORE.INTRA.SOLV.lig_0>
-97.5861

>  <SCORE.INTRA.VDW>
-17.3073

>  <SCORE.INTRA.VDW.0>
11.7669

>  <SCORE.INTRA.norm>
-0.640834

>  <SCORE.RESTR>
0

>  <SCORE.RESTR.CAVITY>
0

>  <SCORE.RESTR.norm>
0

>  <SCORE.SYSTEM>
0

>  <SCORE.SYSTEM.CONST>
0

>  <SCORE.SYSTEM.DIHEDRAL>
0

>  <SCORE.SYSTEM.SOLV>
0

>  <SCORE.SYSTEM.norm>
0

>  <SCORE.heavy>
40

>  <SCORE.norm>
-0.662053

>  <RMSD>
7.885

$$$$
1nta_lig
 OpenBabel11021811403D
libRbt.so/2013.1/901 2013/11/27
 40 42  0  0  0  0  0  0  0  0999 V2000
   -3.6501   39.7810    0.6276 C   0  0  0  0  0  0  0  0  0  0  0  0
   -3.6476   39.9175    1.9009 N   0  0  0  0  0  0  0  0  0  0  0  0
    1.3329   32.3012   -1.9025 C   0  0  0  0  0  0  0  0  0  0  0  0
    0.5566   32.3604   -0.9745 O   0  0  0  0  0  0  0  0  0  0  0  0
    3.0671   37.5780    0.6120 C   0  0  0  0  0  0  0  0  0  0  0  0
    3.9317   36.6969    0.1806 N   0  0  0  0  0  0  0  0  0  0  0  0
    0.1796   34.1462   -4.4180 C   0  0  0  0  0  0  0  0  0  0  0  0
    5.8724   31.8829   -4.8453 C   0  0  0  0  0  0  0  0  0  0  0  0
   -1.5722   38.7232    0.2227 C   0  0  2  0  0  0  0  0  0  0  0  0
   -2.4741   39.9275    0.0356 N   0  0  0  0  0  0  0  0  0  0  0  0
    2.1911   35.6372   -1.8448 C   0  0  2  0  0  0  0  0  0  0  0  0
    4.6722   33.0140   -1.8631 C   0  0  1  0  0  0  0  0  0  0  0  0
    4.0838   34.2625   -1.9754 O   0  0  0  0  0  0  0  0  0  0  0  0
   -0.1057   39.1146   -0.0402 C   0  0  1  0  0  0  0  0  0  0  0  0
    0.2472   40.0590    0.9250 O   0  0  0  0  0  0  0  0  0  0  0  0
    2.7808   34.2341   -1.7506 C   0  0  2  0  0  0  0  0  0  0  0  0
    5.8998   32.7970   -2.7201 C   0  0  1  0  0  0  0  0  0  0  0  0
    5.5649   33.0755   -4.0738 N   0  0  0  0  0  0  0  0  0  0  0  0
    0.8524   37.9257    0.1122 C   0  0  2  0  0  0  0  0  0  0  0  0
    2.2736   38.2655   -0.1386 N   0  0  0  0  0  0  0  0  0  0  0  0
    1.8837   33.4912   -2.6417 C   0  0  1  0  0  0  0  0  0  0  0  0
    2.6471   33.1071   -3.7870 O   0  0  0  0  0  0  0  0  0  0  0  0
    6.9357   33.6346   -2.3308 C   0  0  2  0  0  0  0  0  0  0  0  0
    8.1092   33.1791   -2.9556 O   0  0  0  0  0  0  0  0  0  0  0  0
    0.4191   36.8432   -0.8636 C   0  0  1  0  0  0  0  0  0  0  0  0
    1.3058   35.7453   -0.7160 O   0  0  0  0  0  0  0  0  0  0  0  0
    0.8074   34.3883   -3.0804 C   0  0  1  0  0  0  0  0  0  0  0  0
    1.3851   35.6855   -2.9996 O   0  0  0  0  0  0  0  0  0  0  0  0
    7.1124   33.5897   -0.8357 C   0  0  1  0  0  0  0  0  0  0  0  0
    7.9866   34.6096   -0.4511 O   0  0  0  0  0  0  0  0  0  0  0  0
   -1.0470   36.4135   -0.5727 C   0  0  2  0  0  0  0  0  0  0  0  0
   -1.4314   35.3912   -1.4907 O   0  0  0  0  0  0  0  0  0  0  0  0
    5.8005   33.8200   -0.1660 C   0  0  1  0  0  0  0  0  0  0  0  0
    4.9354   32.7924   -0.5546 O   0  0  0  0  0  0  0  0  0  0  0  0
   -1.9774   37.6324   -0.7458 C   0  0  1  0  0  0  0  0  0  0  0  0
   -3.3386   37.2551   -0.4819 O   0  0  0  0  0  0  0  0  0  0  0  0
    5.9366   33.7614    1.3684 C   0  0  0  0  0  0  0  0  0  0  0  0
    5.4430   34.9729    1.9285 O   0  0  0  0  0  0  0  0  0  0  0  0
   -4.7235   39.5233   -0.0384 N   0  0  0  0  0  0  0  0  0  0  0  0
    2.9495   37.7890    1.8642 N   0  0  0  0  0  0  0  0  0  0  0  0
  1  2  1  0  0  0  0
  1 39  1  0  0  0  0
  3  4  1  0  0  0  0
  5  6  1  0  0  0  0
  5 40  1  0  0  0  0
  9 10  1  6  0  0  0
  9 14  1  0  0  0  0
  9 35  1  0  0  0  0
 10  1  1  0  0  0  0
 11 16  1  0  0  0  0
 11 28  1  0  0  0  0
 11 26  1  1  0  0  0
 12 17  1  0  0  0  0
 12 34  1  0  0  0  0
 12 13  1  1  0  0  0
 14 15  1  1  0  0  0
 14 19  1  0  0  0  0
 16 13  1  6  0  0  0
 16 21  1  0  0  0  0
 17 18  1  6  0  0  0
 17 23  1  0  0  0  0
 18  8  1  0  0  0  0
 19 20  1  6  0  0  0
 19 25  1  0  0  0  0
 20  5  1  0  0  0  0
 21  3  1  1  0  0  0
 21 22  1  0  0  0  0
 21 27  1  0  0  0  0
 23 24  1  6  0  0  0
 23 29  1  0  0  0  0
 25 26  1  1  0  0  0
 25 31  1  0  0  0  0
 27  7  1  6  0  0  0
 27 28  1  0  0  0  0
 29 30  1  1  0  0  0
 29 33  1  0  0  0  0
 31 32  1  6  0  0  0
 31 35  1  0  0  0  0
 33 34  1  0  0  0  0
 33 37  1  1  0  0  0
 35 36  1  1  0  0  0
 37 38  1  0  0  0  0
M  END
>  <CHROM.1>
-160.54016297,75.74298727,-164.16972729,150.76621993,178.28169173,-123.20599815
146.05760864,115.15187798,68.46508791,-107.78782166,124.16066585,2.11043826
35.59363646,-1.05049906,-2.56955426,0.26602236,-2.38167983

>  <Name>
1nta_lig

>  <RI>
0

>  <Rbt.Current_Directory>
/home/itssahil/PROJECTS/Mol_Feturizer/New_Systems/rnas/1nta

>  <Rbt.Executable>
rbdock ($Id: //depot/dev/client3/rdock/2013.1/src/exe/rbdock.cxx#4 $)

>  <Rbt.Library>
libRbt.so (2013.1, Build901 2013/11/27)

>  <Rbt.Parameter_File>
/export/apps/rDock/src/rDock_2013.1_src/data/scripts/dock_solv.prm

>  <Rbt.Receptor>
prm/pocket_docking_2.prm

>  <SCORE>
-5.3883

>  <SCORE.INTER>
6.06651

>  <SCORE.INTER.CONST>
1

>  <SCORE.INTER.POLAR>
-0.21574

>  <SCORE.INTER.ROT>
11

>  <SCORE.INTER.SOLV>
15.6801

>  <SCORE.INTER.VDW>
-11.3966

>  <SCORE.INTER.norm>
0.151663

>  <SCORE.INTRA>
-14.8181

>  <SCORE.INTRA.DIHEDRAL>
0.962727

>  <SCORE.INTRA.DIHEDRAL.0>
19.0336

>  <SCORE.INTRA.POLAR>
0

>  <SCORE.INTRA.POLAR.0>
0

>  <SCORE.INTRA.REPUL>
0

>  <SCORE.INTRA.REPUL.0>
0

>  <SCORE.INTRA.SOLV>
2.26446

>  <SCORE.INTRA.SOLV.lig_0>
-97.5861

>  <SCORE.INTRA.VDW>
-16.4317

>  <SCORE.INTRA.VDW.0>
11.7669

>  <SCORE.INTRA.norm>
-0.370452

>  <SCORE.RESTR>
3.36328

>  <SCORE.RESTR.CAVITY>
3.36328

>  <SCORE.RESTR.norm>
0.084082

>  <SCORE.SYSTEM>
0

>  <SCORE.SYSTEM.CONST>
0

>  <SCORE.SYSTEM.DIHEDRAL>
0

>  <SCORE.SYSTEM.SOLV>
0

>  <SCORE.SYSTEM.norm>
0

>  <SCORE.heavy>
40

>  <SCORE.norm>
-0.134707

>  <RMSD>
7.887

$$$$
1nta_lig
 OpenBabel11021811403D
libRbt.so/2013.1/901 2013/11/27
 40 42  0  0  0  0  0  0  0  0999 V2000
   -2.8816   34.3427    6.0379 C   0  0  0  0  0  0  0  0  0  0  0  0
   -3.9951   34.9643    5.9208 N   0  0  0  0  0  0  0  0  0  0  0  0
    0.9495   34.5039   -3.1040 C   0  0  0  0  0  0  0  0  0  0  0  0
    1.7003   35.3086   -3.6101 O   0  0  0  0  0  0  0  0  0  0  0  0
   -1.2127   36.7415    0.7422 C   0  0  0  0  0  0  0  0  0  0  0  0
   -0.1436   37.1032    0.0819 N   0  0  0  0  0  0  0  0  0  0  0  0
    3.8665   33.4850   -1.8736 C   0  0  0  0  0  0  0  0  0  0  0  0
   -0.5279   30.2829   -5.7125 C   0  0  0  0  0  0  0  0  0  0  0  0
   -1.6143   33.6443    4.1652 C   0  0  2  0  0  0  0  0  0  0  0  0
   -2.6931   33.3445    5.1877 N   0  0  0  0  0  0  0  0  0  0  0  0
    0.7928   32.5512   -0.2702 C   0  0  2  0  0  0  0  0  0  0  0  0
   -1.2992   31.7145   -3.0229 C   0  0  1  0  0  0  0  0  0  0  0  0
   -0.3042   31.5389   -2.0760 O   0  0  0  0  0  0  0  0  0  0  0  0
   -2.2044   34.4553    2.9960 C   0  0  1  0  0  0  0  0  0  0  0  0
   -2.6391   35.6741    3.5190 O   0  0  0  0  0  0  0  0  0  0  0  0
    0.2323   32.6819   -1.6822 C   0  0  2  0  0  0  0  0  0  0  0  0
   -1.7341   30.4588   -3.7460 C   0  0  1  0  0  0  0  0  0  0  0  0
   -0.5886   29.8484   -4.3270 N   0  0  0  0  0  0  0  0  0  0  0  0
   -1.1597   34.7681    1.9164 C   0  0  2  0  0  0  0  0  0  0  0  0
   -1.6946   35.5446    0.7722 N   0  0  0  0  0  0  0  0  0  0  0  0
    1.3833   33.2516   -2.3904 C   0  0  1  0  0  0  0  0  0  0  0  0
    1.8596   32.2539   -3.2959 O   0  0  0  0  0  0  0  0  0  0  0  0
   -2.3295   29.5598   -2.8724 C   0  0  2  0  0  0  0  0  0  0  0  0
   -2.9634   28.5717   -3.6451 O   0  0  0  0  0  0  0  0  0  0  0  0
   -0.6002   33.4497    1.4060 C   0  0  1  0  0  0  0  0  0  0  0  0
    0.3675   33.7448    0.4109 O   0  0  0  0  0  0  0  0  0  0  0  0
    2.4423   33.5367   -1.4144 C   0  0  1  0  0  0  0  0  0  0  0  0
    2.1977   32.6135   -0.3604 O   0  0  0  0  0  0  0  0  0  0  0  0
   -3.3512   30.2599   -2.0154 C   0  0  1  0  0  0  0  0  0  0  0  0
   -3.7558   29.3961   -0.9943 O   0  0  0  0  0  0  0  0  0  0  0  0
    0.0364   32.6474    2.5764 C   0  0  2  0  0  0  0  0  0  0  0  0
    0.5644   31.4200    2.0764 O   0  0  0  0  0  0  0  0  0  0  0  0
   -2.7421   31.4693   -1.3917 C   0  0  1  0  0  0  0  0  0  0  0  0
   -2.3446   32.3277   -2.4215 O   0  0  0  0  0  0  0  0  0  0  0  0
   -1.0465   32.3455    3.6334 C   0  0  1  0  0  0  0  0  0  0  0  0
   -0.4774   31.6030    4.7241 O   0  0  0  0  0  0  0  0  0  0  0  0
   -3.7645   32.2260   -0.5208 C   0  0  0  0  0  0  0  0  0  0  0  0
   -4.8309   32.6853   -1.3435 O   0  0  0  0  0  0  0  0  0  0  0  0
   -2.0020   34.6602    6.9254 N   0  0  0  0  0  0  0  0  0  0  0  0
   -1.8453   37.5998    1.4418 N   0  0  0  0  0  0  0  0  0  0  0  0
  1  2  1  0  0  0  0
  1 39  1  0  0  0  0
  3  4  1  0  0  0  0
  5  6  1  0  0  0  0
  5 40  1  0  0  0  0
  9 10  1  1  0  0  0
  9 14  1  0  0  0  0
  9 35  1  0  0  0  0
 10  1  1  0  0  0  0
 11 16  1  0  0  0  0
 11 28  1  0  0  0  0
 11 26  1  1  0  0  0
 12 17  1  0  0  0  0
 12 34  1  0  0  0  0
 12 13  1  1  0  0  0
 14 15  1  1  0  0  0
 14 19  1  0  0  0  0
 16 13  1  6  0  0  0
 16 21  1  0  0  0  0
 17 18  1  1  0  0  0
 17 23  1  0  0  0  0
 18  8  1  0  0  0  0
 19 20  1  6  0  0  0
 19 25  1  0  0  0  0
 20  5  1  0  0  0  0
 21  3  1  6  0  0  0
 21 22  1  0  0  0  0
 21 27  1  0  0  0  0
 23 24  1  6  0  0  0
 23 29  1  0  0  0  0
 25 26  1  6  0  0  0
 25 31  1  0  0  0  0
 27  7  1  6  0  0  0
 27 28  1  0  0  0  0
 29 30  1  1  0  0  0
 29 33  1  0  0  0  0
 31 32  1  6  0  0  0
 31 35  1  0  0  0  0
 33 34  1  0  0  0  0
 33 37  1  1  0  0  0
 35 36  1  1  0  0  0
 37 38  1  0  0  0  0
M  END
>  <CHROM.1>
-83.62032413,110.75305514,111.02165150,166.59343473,153.45705708,-96.41517814
111.42506656,92.11016271,168.47152884,-170.93278750,-62.53766758,-0.99798801
32.93488911,0.01788949,1.79083098,0.65836368,1.04093542

>  <Name>
1nta_lig

>  <RI>
0

>  <Rbt.Current_Directory>
/home/itssahil/PROJECTS/Mol_Feturizer/New_Systems/rnas/1nta

>  <Rbt.Executable>
rbdock ($Id: //depot/dev/client3/rdock/2013.1/src/exe/rbdock.cxx#4 $)

>  <Rbt.Library>
libRbt.so (2013.1, Build901 2013/11/27)

>  <Rbt.Parameter_File>
/export/apps/rDock/src/rDock_2013.1_src/data/scripts/dock_solv.prm

>  <Rbt.Receptor>
prm/pocket_docking_8.prm

>  <SCORE>
-31.3583

>  <SCORE.INTER>
-10.67

>  <SCORE.INTER.CONST>
1

>  <SCORE.INTER.POLAR>
-1.56454

>  <SCORE.INTER.ROT>
11

>  <SCORE.INTER.SOLV>
11.2059

>  <SCORE.INTER.VDW>
-16.5668

>  <SCORE.INTER.norm>
-0.266749

>  <SCORE.INTRA>
-20.6884

>  <SCORE.INTRA.DIHEDRAL>
-4.19176

>  <SCORE.INTRA.DIHEDRAL.0>
19.0336

>  <SCORE.INTRA.POLAR>
0

>  <SCORE.INTRA.POLAR.0>
0

>  <SCORE.INTRA.REPUL>
0

>  <SCORE.INTRA.REPUL.0>
0

>  <SCORE.INTRA.SOLV>
-4.59854

>  <SCORE.INTRA.SOLV.lig_0>
-97.5861

>  <SCORE.INTRA.VDW>
-16.2932

>  <SCORE.INTRA.VDW.0>
11.7669

>  <SCORE.INTRA.norm>
-0.517209

>  <SCORE.RESTR>
0

>  <SCORE.RESTR.CAVITY>
0

>  <SCORE.RESTR.norm>
0

>  <SCORE.SYSTEM>
0

>  <SCORE.SYSTEM.CONST>
0

>  <SCORE.SYSTEM.DIHEDRAL>
0

>  <SCORE.SYSTEM.SOLV>
0

>  <SCORE.SYSTEM.norm>
0

>  <SCORE.heavy>
40

>  <SCORE.norm>
-0.783958

>  <RMSD>
7.925

$$$$
1nta_lig
 OpenBabel11021811403D
libRbt.so/2013.1/901 2013/11/27
 40 42  0  0  0  0  0  0  0  0999 V2000
   -3.3960   34.6889    2.1740 C   0  0  0  0  0  0  0  0  0  0  0  0
   -2.3821   33.9568    2.4501 N   0  0  0  0  0  0  0  0  0  0  0  0
    1.6455   39.4693   -2.8757 C   0  0  0  0  0  0  0  0  0  0  0  0
    1.6481   38.5929   -3.7119 O   0  0  0  0  0  0  0  0  0  0  0  0
   -2.8793   39.6568   -1.1804 C   0  0  0  0  0  0  0  0  0  0  0  0
   -2.4280   40.8837   -1.1528 N   0  0  0  0  0  0  0  0  0  0  0  0
    3.1087   41.7959   -1.0028 C   0  0  0  0  0  0  0  0  0  0  0  0
   -0.9243   35.6667   -1.7176 C   0  0  0  0  0  0  0  0  0  0  0  0
   -2.7576   36.9379    2.5412 C   0  0  2  0  0  0  0  0  0  0  0  0
   -3.5772   35.7351    2.9661 N   0  0  0  0  0  0  0  0  0  0  0  0
    1.5584   38.9419    0.5277 C   0  0  2  0  0  0  0  0  0  0  0  0
    2.0129   36.1250   -0.1063 C   0  0  1  0  0  0  0  0  0  0  0  0
    2.7054   37.2261   -0.5812 O   0  0  0  0  0  0  0  0  0  0  0  0
   -2.8985   37.1649    1.0241 C   0  0  1  0  0  0  0  0  0  0  0  0
   -4.2398   37.4600    0.7753 O   0  0  0  0  0  0  0  0  0  0  0  0
    1.9208   38.2697   -0.7922 C   0  0  2  0  0  0  0  0  0  0  0  0
    1.2920   35.3103   -1.1577 C   0  0  1  0  0  0  0  0  0  0  0  0
    0.4277   36.1720   -1.8875 N   0  0  0  0  0  0  0  0  0  0  0  0
   -2.0693   38.3589    0.5327 C   0  0  2  0  0  0  0  0  0  0  0  0
   -2.1776   38.6040   -0.9254 N   0  0  0  0  0  0  0  0  0  0  0  0
    2.3957   39.4176   -1.5717 C   0  0  1  0  0  0  0  0  0  0  0  0
    3.8009   39.2454   -1.7658 O   0  0  0  0  0  0  0  0  0  0  0  0
    2.1902   34.7226   -2.0374 C   0  0  2  0  0  0  0  0  0  0  0  0
    1.4873   33.7624   -2.7851 O   0  0  0  0  0  0  0  0  0  0  0  0
   -0.6137   38.0997    0.8879 C   0  0  1  0  0  0  0  0  0  0  0  0
    0.1477   39.2081    0.4346 O   0  0  0  0  0  0  0  0  0  0  0  0
    2.1815   40.6401   -0.7873 C   0  0  1  0  0  0  0  0  0  0  0  0
    2.2066   40.1926    0.5626 O   0  0  0  0  0  0  0  0  0  0  0  0
    3.3045   34.0514   -1.2782 C   0  0  1  0  0  0  0  0  0  0  0  0
    4.3084   33.6824   -2.1774 O   0  0  0  0  0  0  0  0  0  0  0  0
   -0.4606   37.9143    2.4244 C   0  0  2  0  0  0  0  0  0  0  0  0
    0.9116   37.6829    2.7385 O   0  0  0  0  0  0  0  0  0  0  0  0
    3.8873   35.0045   -0.2911 C   0  0  1  0  0  0  0  0  0  0  0  0
    2.8760   35.3639    0.6053 O   0  0  0  0  0  0  0  0  0  0  0  0
   -1.3003   36.7008    2.8757 C   0  0  1  0  0  0  0  0  0  0  0  0
   -1.1711   36.5120    4.2943 O   0  0  0  0  0  0  0  0  0  0  0  0
    5.0202   34.3468    0.5215 C   0  0  0  0  0  0  0  0  0  0  0  0
    5.5666   35.3038    1.4219 O   0  0  0  0  0  0  0  0  0  0  0  0
   -4.1927   34.4263    1.1950 N   0  0  0  0  0  0  0  0  0  0  0  0
   -4.1060   39.4394   -1.4529 N   0  0  0  0  0  0  0  0  0  0  0  0
  1  2  1  0  0  0  0
  1 39  1  0  0  0  0
  3  4  1  0  0  0  0
  5  6  1  0  0  0  0
  5 40  1  0  0  0  0
  9 10  1  6  0  0  0
  9 14  1  0  0  0  0
  9 35  1  0  0  0  0
 10  1  1  0  0  0  0
 11 16  1  0  0  0  0
 11 28  1  0  0  0  0
 11 26  1  6  0  0  0
 12 17  1  0  0  0  0
 12 34  1  0  0  0  0
 12 13  1  6  0  0  0
 14 15  1  1  0  0  0
 14 19  1  0  0  0  0
 16 13  1  1  0  0  0
 16 21  1  0  0  0  0
 17 18  1  6  0  0  0
 17 23  1  0  0  0  0
 18  8  1  0  0  0  0
 19 20  1  6  0  0  0
 19 25  1  0  0  0  0
 20  5  1  0  0  0  0
 21  3  1  6  0  0  0
 21 22  1  0  0  0  0
 21 27  1  0  0  0  0
 23 24  1  1  0  0  0
 23 29  1  0  0  0  0
 25 26  1  1  0  0  0
 25 31  1  0  0  0  0
 27  7  1  1  0  0  0
 27 28  1  0  0  0  0
 29 30  1  6  0  0  0
 29 33  1  0  0  0  0
 31 32  1  6  0  0  0
 31 35  1  0  0  0  0
 33 34  1  0  0  0  0
 33 37  1  1  0  0  0
 35 36  1  1  0  0  0
 37 38  1  0  0  0  0
M  END
>  <CHROM.1>
46.89890533,84.48951954,87.85518700,80.77314549,76.59425406,-120.16579663
107.46047899,82.27165420,-60.21559007,-170.20685469,178.45105433,0.43365539
37.16347123,-0.01649939,-3.09600063,0.36340013,-0.36470612

>  <Name>
1nta_lig

>  <RI>
0

>  <Rbt.Current_Directory>
/home/itssahil/PROJECTS/Mol_Feturizer/New_Systems/rnas/1nta

>  <Rbt.Executable>
rbdock ($Id: //depot/dev/client3/rdock/2013.1/src/exe/rbdock.cxx#4 $)

>  <Rbt.Library>
libRbt.so (2013.1, Build901 2013/11/27)

>  <Rbt.Parameter_File>
/export/apps/rDock/src/rDock_2013.1_src/data/scripts/dock_solv.prm

>  <Rbt.Receptor>
prm/pocket_docking_3.prm

>  <SCORE>
-12.0759

>  <SCORE.INTER>
8.36068

>  <SCORE.INTER.CONST>
1

>  <SCORE.INTER.POLAR>
0

>  <SCORE.INTER.ROT>
11

>  <SCORE.INTER.SOLV>
6.50021

>  <SCORE.INTER.VDW>
-7.52629

>  <SCORE.INTER.norm>
0.209017

>  <SCORE.INTRA>
-20.705

>  <SCORE.INTRA.DIHEDRAL>
-8.33134

>  <SCORE.INTRA.DIHEDRAL.0>
19.0336

>  <SCORE.INTRA.POLAR>
0

>  <SCORE.INTRA.POLAR.0>
0

>  <SCORE.INTRA.REPUL>
0

>  <SCORE.INTRA.REPUL.0>
0

>  <SCORE.INTRA.SOLV>
-0.854293

>  <SCORE.INTRA.SOLV.lig_0>
-97.5861

>  <SCORE.INTRA.VDW>
-16.1122

>  <SCORE.INTRA.VDW.0>
11.7669

>  <SCORE.INTRA.norm>
-0.517626

>  <SCORE.RESTR>
0.268421

>  <SCORE.RESTR.CAVITY>
0.268421

>  <SCORE.RESTR.norm>
0.00671052

>  <SCORE.SYSTEM>
0

>  <SCORE.SYSTEM.CONST>
0

>  <SCORE.SYSTEM.DIHEDRAL>
0

>  <SCORE.SYSTEM.SOLV>
0

>  <SCORE.SYSTEM.norm>
0

>  <SCORE.heavy>
40

>  <SCORE.norm>
-0.301898

>  <RMSD>
7.931

$$$$
1nta_lig
 OpenBabel11021811403D
libRbt.so/2013.1/901 2013/11/27
 40 42  0  0  0  0  0  0  0  0999 V2000
   -5.4477   36.2231   -3.6423 C   0  0  0  0  0  0  0  0  0  0  0  0
   -6.3622   36.9517   -3.1198 N   0  0  0  0  0  0  0  0  0  0  0  0
    3.1351   34.5864    0.2353 C   0  0  0  0  0  0  0  0  0  0  0  0
    3.1120   34.5760   -0.9758 O   0  0  0  0  0  0  0  0  0  0  0  0
    0.7464   34.9724   -3.8485 C   0  0  0  0  0  0  0  0  0  0  0  0
    0.4774   34.1498   -4.8286 N   0  0  0  0  0  0  0  0  0  0  0  0
    4.1479   37.6585    1.0086 C   0  0  0  0  0  0  0  0  0  0  0  0
   -1.0210   32.7719   -0.6595 C   0  0  0  0  0  0  0  0  0  0  0  0
   -3.3803   36.1912   -2.4909 C   0  0  2  0  0  0  0  0  0  0  0  0
   -4.7122   35.5295   -2.7864 N   0  0  0  0  0  0  0  0  0  0  0  0
    0.6466   36.9196    0.7164 C   0  0  2  0  0  0  0  0  0  0  0  0
   -0.8078   34.7116    2.0301 C   0  0  1  0  0  0  0  0  0  0  0  0
    0.4843   35.1575    2.2519 O   0  0  0  0  0  0  0  0  0  0  0  0
   -2.2296   35.1969   -2.7361 C   0  0  1  0  0  0  0  0  0  0  0  0
   -2.2474   34.8741   -4.0939 O   0  0  0  0  0  0  0  0  0  0  0  0
    1.0952   35.5245    1.1378 C   0  0  2  0  0  0  0  0  0  0  0  0
   -0.9294   33.2667    1.5987 C   0  0  1  0  0  0  0  0  0  0  0  0
   -0.1231   33.0670    0.4445 N   0  0  0  0  0  0  0  0  0  0  0  0
   -0.8554   35.8070   -2.4296 C   0  0  2  0  0  0  0  0  0  0  0  0
    0.2765   34.8752   -2.6503 N   0  0  0  0  0  0  0  0  0  0  0  0
    2.5536   35.6739    1.0984 C   0  0  1  0  0  0  0  0  0  0  0  0
    3.0234   35.6004    2.4459 O   0  0  0  0  0  0  0  0  0  0  0  0
   -0.5013   32.4080    2.6014 C   0  0  2  0  0  0  0  0  0  0  0  0
   -0.9142   31.1100    2.2552 O   0  0  0  0  0  0  0  0  0  0  0  0
   -0.8535   36.2584   -0.9776 C   0  0  1  0  0  0  0  0  0  0  0  0
    0.4178   36.8247   -0.7007 O   0  0  0  0  0  0  0  0  0  0  0  0
    2.8762   37.0036    0.5659 C   0  0  1  0  0  0  0  0  0  0  0  0
    1.7388   37.7919    0.8943 O   0  0  0  0  0  0  0  0  0  0  0  0
   -1.1154   32.7955    3.9210 C   0  0  1  0  0  0  0  0  0  0  0  0
   -0.4884   32.0764    4.9419 O   0  0  0  0  0  0  0  0  0  0  0  0
   -1.9862   37.2964   -0.7365 C   0  0  2  0  0  0  0  0  0  0  0  0
   -1.9616   37.7152    0.6271 O   0  0  0  0  0  0  0  0  0  0  0  0
   -0.8981   34.2491    4.1704 C   0  0  1  0  0  0  0  0  0  0  0  0
   -1.5322   34.9587    3.1459 O   0  0  0  0  0  0  0  0  0  0  0  0
   -3.3490   36.6421   -1.0460 C   0  0  1  0  0  0  0  0  0  0  0  0
   -4.4101   37.5863   -0.8280 O   0  0  0  0  0  0  0  0  0  0  0  0
   -1.5310   34.6895    5.5052 C   0  0  0  0  0  0  0  0  0  0  0  0
   -2.9357   34.4675    5.4528 O   0  0  0  0  0  0  0  0  0  0  0  0
   -5.2491   36.1691   -4.9150 N   0  0  0  0  0  0  0  0  0  0  0  0
    1.5475   35.9458   -4.0408 N   0  0  0  0  0  0  0  0  0  0  0  0
  1  2  1  0  0  0  0
  1 39  1  0  0  0  0
  3  4  1  0  0  0  0
  5  6  1  0  0  0  0
  5 40  1  0  0  0  0
  9 10  1  1  0  0  0
  9 14  1  0  0  0  0
  9 35  1  0  0  0  0
 10  1  1  0  0  0  0
 11 16  1  0  0  0  0
 11 28  1  0  0  0  0
 11 26  1  6  0  0  0
 12 17  1  0  0  0  0
 12 34  1  0  0  0  0
 12 13  1  1  0  0  0
 14 15  1  6  0  0  0
 14 19  1  0  0  0  0
 16 13  1  1  0  0  0
 16 21  1  0  0  0  0
 17 18  1  6  0  0  0
 17 23  1  0  0  0  0
 18  8  1  0  0  0  0
 19 20  1  1  0  0  0
 19 25  1  0  0  0  0
 20  5  1  0  0  0  0
 21  3  1  6  0  0  0
 21 22  1  0  0  0  0
 21 27  1  0  0  0  0
 23 24  1  6  0  0  0
 23 29  1  0  0  0  0
 25 26  1  6  0  0  0
 25 31  1  0  0  0  0
 27  7  1  1  0  0  0
 27 28  1  0  0  0  0
 29 30  1  1  0  0  0
 29 33  1  0  0  0  0
 31 32  1  1  0  0  0
 31 35  1  0  0  0  0
 33 34  1  0  0  0  0
 33 37  1  1  0  0  0
 35 36  1  6  0  0  0
 37 38  1  0  0  0  0
M  END
>  <CHROM.1>
-126.67760363,-99.22830581,80.99537881,82.89525210,79.36807231,-113.83840659
91.44798051,-100.47004339,76.62092805,-163.20959938,-61.35532789,-0.72216519
35.25160560,0.04177348,2.06282118,-0.06977166,-1.27115224

>  <Name>
1nta_lig

>  <RI>
0

>  <Rbt.Current_Directory>
/home/itssahil/PROJECTS/Mol_Feturizer/New_Systems/rnas/1nta

>  <Rbt.Executable>
rbdock ($Id: //depot/dev/client3/rdock/2013.1/src/exe/rbdock.cxx#4 $)

>  <Rbt.Library>
libRbt.so (2013.1, Build901 2013/11/27)

>  <Rbt.Parameter_File>
/export/apps/rDock/src/rDock_2013.1_src/data/scripts/dock_solv.prm

>  <Rbt.Receptor>
prm/pocket_docking_8.prm

>  <SCORE>
-24.1178

>  <SCORE.INTER>
-1.66575

>  <SCORE.INTER.CONST>
1

>  <SCORE.INTER.POLAR>
-1.55102

>  <SCORE.INTER.ROT>
11

>  <SCORE.INTER.SOLV>
15.0932

>  <SCORE.INTER.VDW>
-11.9048

>  <SCORE.INTER.norm>
-0.0416438

>  <SCORE.INTRA>
-22.4521

>  <SCORE.INTRA.DIHEDRAL>
-6.82415

>  <SCORE.INTRA.DIHEDRAL.0>
19.0336

>  <SCORE.INTRA.POLAR>
0

>  <SCORE.INTRA.POLAR.0>
0

>  <SCORE.INTRA.REPUL>
0.0284592

>  <SCORE.INTRA.REPUL.0>
0

>  <SCORE.INTRA.SOLV>
-1.579

>  <SCORE.INTRA.SOLV.lig_0>
-97.5861

>  <SCORE.INTRA.VDW>
-18.3928

>  <SCORE.INTRA.VDW.0>
11.7669

>  <SCORE.INTRA.norm>
-0.561301

>  <SCORE.RESTR>
0

>  <SCORE.RESTR.CAVITY>
0

>  <SCORE.RESTR.norm>
0

>  <SCORE.SYSTEM>
0

>  <SCORE.SYSTEM.CONST>
0

>  <SCORE.SYSTEM.DIHEDRAL>
0

>  <SCORE.SYSTEM.SOLV>
0

>  <SCORE.SYSTEM.norm>
0

>  <SCORE.heavy>
40

>  <SCORE.norm>
-0.602945

>  <RMSD>
7.934

$$$$
1nta_lig
 OpenBabel11021811403D
libRbt.so/2013.1/901 2013/11/27
 40 42  0  0  0  0  0  0  0  0999 V2000
    0.3819   32.3429   -8.4239 C   0  0  0  0  0  0  0  0  0  0  0  0
    0.7103   31.2126   -7.9194 N   0  0  0  0  0  0  0  0  0  0  0  0
   -2.8252   40.5291   -4.8975 C   0  0  0  0  0  0  0  0  0  0  0  0
   -3.6975   41.3617   -5.0121 O   0  0  0  0  0  0  0  0  0  0  0  0
   -3.5424   37.2217   -7.9282 C   0  0  0  0  0  0  0  0  0  0  0  0
   -4.6773   37.2474   -7.2793 N   0  0  0  0  0  0  0  0  0  0  0  0
   -4.7091   39.5861   -2.3239 C   0  0  0  0  0  0  0  0  0  0  0  0
    0.4416   38.7072   -7.3216 C   0  0  0  0  0  0  0  0  0  0  0  0
   -0.3648   34.0253   -6.9365 C   0  0  2  0  0  0  0  0  0  0  0  0
    0.7658   33.4080   -7.7363 N   0  0  0  0  0  0  0  0  0  0  0  0
   -2.0005   37.5147   -3.4480 C   0  0  2  0  0  0  0  0  0  0  0  0
    0.8118   38.4684   -3.9886 C   0  0  1  0  0  0  0  0  0  0  0  0
   -0.2388   39.0522   -3.3010 O   0  0  0  0  0  0  0  0  0  0  0  0
   -0.8030   35.3549   -7.5793 C   0  0  1  0  0  0  0  0  0  0  0  0
   -1.3002   35.0541   -8.8482 O   0  0  0  0  0  0  0  0  0  0  0  0
   -1.4070   38.8490   -3.8868 C   0  0  2  0  0  0  0  0  0  0  0  0
    1.2721   39.2132   -5.2224 C   0  0  1  0  0  0  0  0  0  0  0  0
    0.1547   39.4067   -6.0805 N   0  0  0  0  0  0  0  0  0  0  0  0
   -1.9322   36.0379   -6.7963 C   0  0  2  0  0  0  0  0  0  0  0  0
   -2.3763   37.3242   -7.3847 N   0  0  0  0  0  0  0  0  0  0  0  0
   -2.5350   39.7534   -3.6406 C   0  0  1  0  0  0  0  0  0  0  0  0
   -2.1650   40.6061   -2.5553 O   0  0  0  0  0  0  0  0  0  0  0  0
    1.8041   40.4511   -4.8895 C   0  0  2  0  0  0  0  0  0  0  0  0
    2.4693   40.9474   -6.0236 O   0  0  0  0  0  0  0  0  0  0  0  0
   -1.4418   36.2815   -5.3779 C   0  0  1  0  0  0  0  0  0  0  0  0
   -2.4907   36.9097   -4.6576 O   0  0  0  0  0  0  0  0  0  0  0  0
   -3.6968   38.9554   -3.2292 C   0  0  1  0  0  0  0  0  0  0  0  0
   -3.1261   37.7903   -2.6463 O   0  0  0  0  0  0  0  0  0  0  0  0
    2.7829   40.3125   -3.7531 C   0  0  1  0  0  0  0  0  0  0  0  0
    3.1164   41.5855   -3.2835 O   0  0  0  0  0  0  0  0  0  0  0  0
   -1.0403   34.9357   -4.7098 C   0  0  2  0  0  0  0  0  0  0  0  0
   -0.5933   35.1835   -3.3779 O   0  0  0  0  0  0  0  0  0  0  0  0
    2.1541   39.5512   -2.6363 C   0  0  1  0  0  0  0  0  0  0  0  0
    1.8281   38.2787   -3.1158 O   0  0  0  0  0  0  0  0  0  0  0  0
    0.1016   34.2871   -5.5202 C   0  0  1  0  0  0  0  0  0  0  0  0
    0.4879   33.0412   -4.9175 O   0  0  0  0  0  0  0  0  0  0  0  0
    3.1336   39.3706   -1.4597 C   0  0  0  0  0  0  0  0  0  0  0  0
    3.4184   40.6425   -0.8886 O   0  0  0  0  0  0  0  0  0  0  0  0
   -0.2821   32.4424   -9.5246 N   0  0  0  0  0  0  0  0  0  0  0  0
   -3.5402   37.0620   -9.1935 N   0  0  0  0  0  0  0  0  0  0  0  0
  1  2  1  0  0  0  0
  1 39  1  0  0  0  0
  3  4  1  0  0  0  0
  5  6  1  0  0  0  0
  5 40  1  0  0  0  0
  9 10  1  6  0  0  0
  9 14  1  0  0  0  0
  9 35  1  0  0  0  0
 10  1  1  0  0  0  0
 11 16  1  0  0  0  0
 11 28  1  0  0  0  0
 11 26  1  6  0  0  0
 12 17  1  0  0  0  0
 12 34  1  0  0  0  0
 12 13  1  1  0  0  0
 14 15  1  6  0  0  0
 14 19  1  0  0  0  0
 16 13  1  1  0  0  0
 16 21  1  0  0  0  0
 17 18  1  6  0  0  0
 17 23  1  0  0  0  0
 18  8  1  0  0  0  0
 19 20  1  6  0  0  0
 19 25  1  0  0  0  0
 20  5  1  0  0  0  0
 21  3  1  6  0  0  0
 21 22  1  0  0  0  0
 21 27  1  0  0  0  0
 23 24  1  6  0  0  0
 23 29  1  0  0  0  0
 25 26  1  1  0  0  0
 25 31  1  0  0  0  0
 27  7  1  1  0  0  0
 27 28  1  0  0  0  0
 29 30  1  1  0  0  0
 29 33  1  0  0  0  0
 31 32  1  1  0  0  0
 31 35  1  0  0  0  0
 33 34  1  0  0  0  0
 33 37  1  1  0  0  0
 35 36  1  1  0  0  0
 37 38  1  0  0  0  0
M  END
>  <CHROM.1>
-107.64563611,-102.25628555,81.07429786,77.40041123,85.62298237,-118.01435817
108.20455507,80.05166558,-179.67881318,-163.49793364,65.86085917,-0.60958098
37.55314678,-5.14670221,-1.75909958,-0.21562803,0.59192046

>  <Name>
1nta_lig

>  <RI>
0

>  <Rbt.Current_Directory>
/home/itssahil/PROJECTS/Mol_Feturizer/New_Systems/rnas/1nta

>  <Rbt.Executable>
rbdock ($Id: //depot/dev/client3/rdock/2013.1/src/exe/rbdock.cxx#4 $)

>  <Rbt.Library>
libRbt.so (2013.1, Build901 2013/11/27)

>  <Rbt.Parameter_File>
/export/apps/rDock/src/rDock_2013.1_src/data/scripts/dock_solv.prm

>  <Rbt.Receptor>
prm/pocket_docking_6.prm

>  <SCORE>
-19.1683

>  <SCORE.INTER>
3.59289

>  <SCORE.INTER.CONST>
1

>  <SCORE.INTER.POLAR>
0

>  <SCORE.INTER.ROT>
11

>  <SCORE.INTER.SOLV>
8.15903

>  <SCORE.INTER.VDW>
-11.2577

>  <SCORE.INTER.norm>
0.0898224

>  <SCORE.INTRA>
-22.7612

>  <SCORE.INTRA.DIHEDRAL>
-6.81912

>  <SCORE.INTRA.DIHEDRAL.0>
19.0336

>  <SCORE.INTRA.POLAR>
0

>  <SCORE.INTRA.POLAR.0>
0

>  <SCORE.INTRA.REPUL>
0

>  <SCORE.INTRA.REPUL.0>
0

>  <SCORE.INTRA.SOLV>
-2.78465

>  <SCORE.INTRA.SOLV.lig_0>
-97.5861

>  <SCORE.INTRA.VDW>
-17.9593

>  <SCORE.INTRA.VDW.0>
11.7669

>  <SCORE.INTRA.norm>
-0.56903

>  <SCORE.RESTR>
0

>  <SCORE.RESTR.CAVITY>
0

>  <SCORE.RESTR.norm>
0

>  <SCORE.SYSTEM>
0

>  <SCORE.SYSTEM.CONST>
0

>  <SCORE.SYSTEM.DIHEDRAL>
0

>  <SCORE.SYSTEM.SOLV>
0

>  <SCORE.SYSTEM.norm>
0

>  <SCORE.heavy>
40

>  <SCORE.norm>
-0.479207

>  <RMSD>
7.958

$$$$
1nta_lig
 OpenBabel11021811403D
libRbt.so/2013.1/901 2013/11/27
 40 42  0  0  0  0  0  0  0  0999 V2000
    1.4782   39.0627   -7.8389 C   0  0  0  0  0  0  0  0  0  0  0  0
    1.9929   39.9106   -8.6489 N   0  0  0  0  0  0  0  0  0  0  0  0
    1.2919   42.8206    1.4028 C   0  0  0  0  0  0  0  0  0  0  0  0
    1.0405   43.5051    0.4356 O   0  0  0  0  0  0  0  0  0  0  0  0
    1.7647   43.4583   -3.4617 C   0  0  0  0  0  0  0  0  0  0  0  0
    0.6128   43.9111   -3.0398 N   0  0  0  0  0  0  0  0  0  0  0  0
   -1.2480   40.7987    2.1255 C   0  0  0  0  0  0  0  0  0  0  0  0
    6.1783   41.8443   -0.1004 C   0  0  0  0  0  0  0  0  0  0  0  0
    1.4578   39.3942   -5.4957 C   0  0  2  0  0  0  0  0  0  0  0  0
    2.1615   38.8510   -6.7240 N   0  0  0  0  0  0  0  0  0  0  0  0
    1.2119   39.8287   -0.3032 C   0  0  2  0  0  0  0  0  0  0  0  0
    4.0592   39.6983    0.0038 C   0  0  1  0  0  0  0  0  0  0  0  0
    3.1513   40.0283    0.9960 O   0  0  0  0  0  0  0  0  0  0  0  0
    2.2320   40.6011   -4.9329 C   0  0  1  0  0  0  0  0  0  0  0  0
    2.2052   41.5984   -5.9090 O   0  0  0  0  0  0  0  0  0  0  0  0
    2.1219   40.7194    0.5358 C   0  0  2  0  0  0  0  0  0  0  0  0
    5.5108   39.6935    0.4297 C   0  0  1  0  0  0  0  0  0  0  0  0
    5.8231   40.9597    0.9966 N   0  0  0  0  0  0  0  0  0  0  0  0
    1.5763   41.1789   -3.6716 C   0  0  2  0  0  0  0  0  0  0  0  0
    2.2984   42.3404   -3.0993 N   0  0  0  0  0  0  0  0  0  0  0  0
    1.1535   41.3227    1.4572 C   0  0  1  0  0  0  0  0  0  0  0  0
    1.4285   40.8039    2.7600 O   0  0  0  0  0  0  0  0  0  0  0  0
    5.7514   38.7054    1.3741 C   0  0  2  0  0  0  0  0  0  0  0  0
    7.1442   38.5642    1.4972 O   0  0  0  0  0  0  0  0  0  0  0  0
    1.5045   40.0740   -2.6295 C   0  0  1  0  0  0  0  0  0  0  0  0
    0.8943   40.6125   -1.4670 O   0  0  0  0  0  0  0  0  0  0  0  0
   -0.1965   40.8998    1.0643 C   0  0  1  0  0  0  0  0  0  0  0  0
    0.0091   39.6539    0.4097 O   0  0  0  0  0  0  0  0  0  0  0  0
    5.1510   37.3977    0.9291 C   0  0  1  0  0  0  0  0  0  0  0  0
    5.1958   36.4925    1.9926 O   0  0  0  0  0  0  0  0  0  0  0  0
    0.6853   38.8710   -3.1778 C   0  0  2  0  0  0  0  0  0  0  0  0
    0.6205   37.8503   -2.1832 O   0  0  0  0  0  0  0  0  0  0  0  0
    3.7244   37.6019    0.5478 C   0  0  1  0  0  0  0  0  0  0  0  0
    3.6916   38.5057   -0.5188 O   0  0  0  0  0  0  0  0  0  0  0  0
    1.3816   38.3143   -4.4374 C   0  0  1  0  0  0  0  0  0  0  0  0
    0.6395   37.2000   -4.9592 O   0  0  0  0  0  0  0  0  0  0  0  0
    3.0791   36.2873    0.0665 C   0  0  0  0  0  0  0  0  0  0  0  0
    3.9149   35.6886   -0.9175 O   0  0  0  0  0  0  0  0  0  0  0  0
    0.3718   38.4500   -8.0895 N   0  0  0  0  0  0  0  0  0  0  0  0
    2.4350   44.1295   -4.3141 N   0  0  0  0  0  0  0  0  0  0  0  0
  1  2  1  0  0  0  0
  1 39  1  0  0  0  0
  3  4  1  0  0  0  0
  5  6  1  0  0  0  0
  5 40  1  0  0  0  0
  9 10  1  6  0  0  0
  9 14  1  0  0  0  0
  9 35  1  0  0  0  0
 10  1  1  0  0  0  0
 11 16  1  0  0  0  0
 11 28  1  0  0  0  0
 11 26  1  6  0  0  0
 12 17  1  0  0  0  0
 12 34  1  0  0  0  0
 12 13  1  1  0  0  0
 14 15  1  6  0  0  0
 14 19  1  0  0  0  0
 16 13  1  1  0  0  0
 16 21  1  0  0  0  0
 17 18  1  1  0  0  0
 17 23  1  0  0  0  0
 18  8  1  0  0  0  0
 19 20  1  1  0  0  0
 19 25  1  0  0  0  0
 20  5  1  0  0  0  0
 21  3  1  6  0  0  0
 21 22  1  0  0  0  0
 21 27  1  0  0  0  0
 23 24  1  6  0  0  0
 23 29  1  0  0  0  0
 25 26  1  1  0  0  0
 25 31  1  0  0  0  0
 27  7  1  1  0  0  0
 27 28  1  0  0  0  0
 29 30  1  1  0  0  0
 29 33  1  0  0  0  0
 31 32  1  1  0  0  0
 31 35  1  0  0  0  0
 33 34  1  0  0  0  0
 33 37  1  6  0  0  0
 35 36  1  6  0  0  0
 37 38  1  0  0  0  0
M  END
>  <CHROM.1>
-110.90826802,110.80838383,110.97411582,144.81204868,71.27442878,-85.29823409
98.31752438,71.24026108,65.73424162,-159.10602295,-50.26933984,2.39449717
39.91619454,-1.62321400,-2.14156245,-0.97156638,1.16980209

>  <Name>
1nta_lig

>  <RI>
0

>  <Rbt.Current_Directory>
/home/itssahil/PROJECTS/Mol_Feturizer/New_Systems/rnas/1nta

>  <Rbt.Executable>
rbdock ($Id: //depot/dev/client3/rdock/2013.1/src/exe/rbdock.cxx#4 $)

>  <Rbt.Library>
libRbt.so (2013.1, Build901 2013/11/27)

>  <Rbt.Parameter_File>
/export/apps/rDock/src/rDock_2013.1_src/data/scripts/dock_solv.prm

>  <Rbt.Receptor>
prm/pocket_docking_7.prm

>  <SCORE>
-25.4316

>  <SCORE.INTER>
-5.80754

>  <SCORE.INTER.CONST>
1

>  <SCORE.INTER.POLAR>
0

>  <SCORE.INTER.ROT>
11

>  <SCORE.INTER.SOLV>
14.8648

>  <SCORE.INTER.VDW>
-19.76

>  <SCORE.INTER.norm>
-0.145189

>  <SCORE.INTRA>
-19.6683

>  <SCORE.INTRA.DIHEDRAL>
-1.135

>  <SCORE.INTRA.DIHEDRAL.0>
19.0336

>  <SCORE.INTRA.POLAR>
0

>  <SCORE.INTRA.POLAR.0>
0

>  <SCORE.INTRA.REPUL>
0

>  <SCORE.INTRA.REPUL.0>
0

>  <SCORE.INTRA.SOLV>
-4.29449

>  <SCORE.INTRA.SOLV.lig_0>
-97.5861

>  <SCORE.INTRA.VDW>
-16.9535

>  <SCORE.INTRA.VDW.0>
11.7669

>  <SCORE.INTRA.norm>
-0.491707

>  <SCORE.RESTR>
0.0442118

>  <SCORE.RESTR.CAVITY>
0.0442118

>  <SCORE.RESTR.norm>
0.00110529

>  <SCORE.SYSTEM>
0

>  <SCORE.SYSTEM.CONST>
0

>  <SCORE.SYSTEM.DIHEDRAL>
0

>  <SCORE.SYSTEM.SOLV>
0

>  <SCORE.SYSTEM.norm>
0

>  <SCORE.heavy>
40

>  <SCORE.norm>
-0.63579

>  <RMSD>
7.961

$$$$
1nta_lig
 OpenBabel11021811403D
libRbt.so/2013.1/901 2013/11/27
 40 42  0  0  0  0  0  0  0  0999 V2000
   -1.6459   31.5887   -8.4899 C   0  0  0  0  0  0  0  0  0  0  0  0
   -1.6706   32.2170   -9.6056 N   0  0  0  0  0  0  0  0  0  0  0  0
    1.3835   35.5825    0.2793 C   0  0  0  0  0  0  0  0  0  0  0  0
    0.6854   36.2174   -0.4802 O   0  0  0  0  0  0  0  0  0  0  0  0
   -0.1732   36.2652   -4.4678 C   0  0  0  0  0  0  0  0  0  0  0  0
   -1.0839   36.2187   -3.5307 N   0  0  0  0  0  0  0  0  0  0  0  0
   -0.0750   32.8248    1.4323 C   0  0  0  0  0  0  0  0  0  0  0  0
    4.7619   36.8156    1.2110 C   0  0  0  0  0  0  0  0  0  0  0  0
   -0.5877   32.0911   -6.4336 C   0  0  2  0  0  0  0  0  0  0  0  0
   -0.4805   31.5891   -7.8603 N   0  0  0  0  0  0  0  0  0  0  0  0
    1.5614   32.8141   -1.7634 C   0  0  2  0  0  0  0  0  0  0  0  0
    4.5381   34.6072   -1.4030 C   0  0  1  0  0  0  0  0  0  0  0  0
    3.6911   33.5488   -1.1202 O   0  0  0  0  0  0  0  0  0  0  0  0
    0.0945   33.4662   -6.3040 C   0  0  1  0  0  0  0  0  0  0  0  0
   -0.6120   34.3539   -7.1169 O   0  0  0  0  0  0  0  0  0  0  0  0
    2.4164   33.9015   -1.1217 C   0  0  2  0  0  0  0  0  0  0  0  0
    5.3575   35.1109   -0.2353 C   0  0  1  0  0  0  0  0  0  0  0  0
    4.4759   35.4426    0.8300 N   0  0  0  0  0  0  0  0  0  0  0  0
    0.0370   34.0139   -4.8717 C   0  0  2  0  0  0  0  0  0  0  0  0
    0.6889   35.3355   -4.7090 N   0  0  0  0  0  0  0  0  0  0  0  0
    1.6982   34.1173    0.1386 C   0  0  1  0  0  0  0  0  0  0  0  0
    2.5398   33.6441    1.1920 O   0  0  0  0  0  0  0  0  0  0  0  0
    6.2501   34.1429    0.2034 C   0  0  2  0  0  0  0  0  0  0  0  0
    7.1630   34.7673    1.0705 O   0  0  0  0  0  0  0  0  0  0  0  0
    0.7145   33.0077   -3.9549 C   0  0  1  0  0  0  0  0  0  0  0  0
    0.6553   33.5173   -2.6318 O   0  0  0  0  0  0  0  0  0  0  0  0
    0.4720   33.3099    0.1256 C   0  0  1  0  0  0  0  0  0  0  0  0
    0.7793   32.2298   -0.7473 O   0  0  0  0  0  0  0  0  0  0  0  0
    6.9925   33.5469   -0.9637 C   0  0  1  0  0  0  0  0  0  0  0  0
    7.6979   32.4227   -0.5266 O   0  0  0  0  0  0  0  0  0  0  0  0
    0.0005   31.6293   -4.0495 C   0  0  2  0  0  0  0  0  0  0  0  0
    0.6433   30.7027   -3.1756 O   0  0  0  0  0  0  0  0  0  0  0  0
    6.0227   33.1136   -2.0097 C   0  0  1  0  0  0  0  0  0  0  0  0
    5.3254   34.2459   -2.4423 O   0  0  0  0  0  0  0  0  0  0  0  0
    0.0889   31.1100   -5.4999 C   0  0  1  0  0  0  0  0  0  0  0  0
   -0.5651   29.8351   -5.6079 O   0  0  0  0  0  0  0  0  0  0  0  0
    6.7467   32.5152   -3.2320 C   0  0  0  0  0  0  0  0  0  0  0  0
    5.8458   31.6751   -3.9445 O   0  0  0  0  0  0  0  0  0  0  0  0
   -2.6821   30.9903   -8.0099 N   0  0  0  0  0  0  0  0  0  0  0  0
   -0.1110   37.2778   -5.2405 N   0  0  0  0  0  0  0  0  0  0  0  0
  1  2  1  0  0  0  0
  1 39  1  0  0  0  0
  3  4  1  0  0  0  0
  5  6  1  0  0  0  0
  5 40  1  0  0  0  0
  9 10  1  6  0  0  0
  9 14  1  0  0  0  0
  9 35  1  0  0  0  0
 10  1  1  0  0  0  0
 11 16  1  0  0  0  0
 11 28  1  0  0  0  0
 11 26  1  6  0  0  0
 12 17  1  0  0  0  0
 12 34  1  0  0  0  0
 12 13  1  1  0  0  0
 14 15  1  6  0  0  0
 14 19  1  0  0  0  0
 16 13  1  1  0  0  0
 16 21  1  0  0  0  0
 17 18  1  1  0  0  0
 17 23  1  0  0  0  0
 18  8  1  0  0  0  0
 19 20  1  6  0  0  0
 19 25  1  0  0  0  0
 20  5  1  0  0  0  0
 21  3  1  1  0  0  0
 21 22  1  0  0  0  0
 21 27  1  0  0  0  0
 23 24  1  1  0  0  0
 23 29  1  0  0  0  0
 25 26  1  1  0  0  0
 25 31  1  0  0  0  0
 27  7  1  1  0  0  0
 27 28  1  0  0  0  0
 29 30  1  1  0  0  0
 29 33  1  0  0  0  0
 31 32  1  1  0  0  0
 31 35  1  0  0  0  0
 33 34  1  0  0  0  0
 33 37  1  6  0  0  0
 35 36  1  1  0  0  0
 37 38  1  0  0  0  0
M  END
>  <CHROM.1>
-110.08151993,126.04687916,126.17299893,108.82911278,140.51095181,-125.76776934
111.20114941,51.79664556,61.84302001,-165.00592097,157.91185766,2.02787919
33.53413158,-2.83139671,-2.33161778,-0.29745462,1.03446545

>  <Name>
1nta_lig

>  <RI>
0

>  <Rbt.Current_Directory>
/home/itssahil/PROJECTS/Mol_Feturizer/New_Systems/rnas/1nta

>  <Rbt.Executable>
rbdock ($Id: //depot/dev/client3/rdock/2013.1/src/exe/rbdock.cxx#4 $)

>  <Rbt.Library>
libRbt.so (2013.1, Build901 2013/11/27)

>  <Rbt.Parameter_File>
/export/apps/rDock/src/rDock_2013.1_src/data/scripts/dock_solv.prm

>  <Rbt.Receptor>
prm/pocket_docking_6.prm

>  <SCORE>
-28.7793

>  <SCORE.INTER>
-12.66

>  <SCORE.INTER.CONST>
1

>  <SCORE.INTER.POLAR>
-0.786947

>  <SCORE.INTER.ROT>
11

>  <SCORE.INTER.SOLV>
15.0121

>  <SCORE.INTER.VDW>
-21.7542

>  <SCORE.INTER.norm>
-0.316501

>  <SCORE.INTRA>
-16.1193

>  <SCORE.INTRA.DIHEDRAL>
6.95333

>  <SCORE.INTRA.DIHEDRAL.0>
19.0336

>  <SCORE.INTRA.POLAR>
0

>  <SCORE.INTRA.POLAR.0>
0

>  <SCORE.INTRA.REPUL>
0

>  <SCORE.INTRA.REPUL.0>
0

>  <SCORE.INTRA.SOLV>
-3.89729

>  <SCORE.INTRA.SOLV.lig_0>
-97.5861

>  <SCORE.INTRA.VDW>
-17.6473

>  <SCORE.INTRA.VDW.0>
11.7669

>  <SCORE.INTRA.norm>
-0.402982

>  <SCORE.RESTR>
0

>  <SCORE.RESTR.CAVITY>
0

>  <SCORE.RESTR.norm>
0

>  <SCORE.SYSTEM>
0

>  <SCORE.SYSTEM.CONST>
0

>  <SCORE.SYSTEM.DIHEDRAL>
0

>  <SCORE.SYSTEM.SOLV>
0

>  <SCORE.SYSTEM.norm>
0

>  <SCORE.heavy>
40

>  <SCORE.norm>
-0.719483

>  <RMSD>
7.977

$$$$
1nta_lig
 OpenBabel11021811403D
libRbt.so/2013.1/901 2013/11/27
 40 42  0  0  0  0  0  0  0  0999 V2000
   -3.8150   33.3905    4.7090 C   0  0  0  0  0  0  0  0  0  0  0  0
   -3.6699   32.3752    5.4760 N   0  0  0  0  0  0  0  0  0  0  0  0
   -0.4754   30.7707   -3.5093 C   0  0  0  0  0  0  0  0  0  0  0  0
   -0.6130   29.9299   -4.3704 O   0  0  0  0  0  0  0  0  0  0  0  0
   -3.9952   30.3833   -0.6815 C   0  0  0  0  0  0  0  0  0  0  0  0
   -4.3072   30.2961   -1.9483 N   0  0  0  0  0  0  0  0  0  0  0  0
   -1.9172   32.6858   -5.8147 C   0  0  0  0  0  0  0  0  0  0  0  0
    4.7576   33.7743   -3.3861 C   0  0  0  0  0  0  0  0  0  0  0  0
   -3.0883   33.6880    2.4765 C   0  0  2  0  0  0  0  0  0  0  0  0
   -2.7665   33.6931    3.9582 N   0  0  0  0  0  0  0  0  0  0  0  0
   -1.5033   33.8856   -2.4562 C   0  0  2  0  0  0  0  0  0  0  0  0
    1.8753   32.7890   -1.9046 C   0  0  1  0  0  0  0  0  0  0  0  0
    0.8124   33.6176   -2.2225 O   0  0  0  0  0  0  0  0  0  0  0  0
   -2.8437   32.2860    1.8870 C   0  0  1  0  0  0  0  0  0  0  0  0
   -3.7354   31.4147    2.5145 O   0  0  0  0  0  0  0  0  0  0  0  0
   -0.3013   32.9474   -2.4666 C   0  0  2  0  0  0  0  0  0  0  0  0
    3.2016   33.4869   -1.6982 C   0  0  1  0  0  0  0  0  0  0  0  0
    3.4944   34.2593   -2.8558 N   0  0  0  0  0  0  0  0  0  0  0  0
   -3.1316   32.2275    0.3808 C   0  0  2  0  0  0  0  0  0  0  0  0
   -2.9020   30.8925   -0.2216 N   0  0  0  0  0  0  0  0  0  0  0  0
   -0.4941   32.2570   -3.7461 C   0  0  1  0  0  0  0  0  0  0  0  0
    0.5588   32.6765   -4.6165 O   0  0  0  0  0  0  0  0  0  0  0  0
    3.1577   34.3276   -0.5949 C   0  0  2  0  0  0  0  0  0  0  0  0
    4.4780   34.7024   -0.2924 O   0  0  0  0  0  0  0  0  0  0  0  0
   -2.2385   33.2462   -0.3095 C   0  0  1  0  0  0  0  0  0  0  0  0
   -2.5113   33.1904   -1.7010 O   0  0  0  0  0  0  0  0  0  0  0  0
   -1.7736   32.6864   -4.3243 C   0  0  1  0  0  0  0  0  0  0  0  0
   -1.9810   33.9832   -3.7782 O   0  0  0  0  0  0  0  0  0  0  0  0
    2.5553   33.6121    0.5857 C   0  0  1  0  0  0  0  0  0  0  0  0
    2.3028   34.5408    1.5987 O   0  0  0  0  0  0  0  0  0  0  0  0
   -2.5143   34.6701    0.2519 C   0  0  2  0  0  0  0  0  0  0  0  0
   -1.6754   35.6120   -0.4147 O   0  0  0  0  0  0  0  0  0  0  0  0
    1.2609   32.9876    0.1897 C   0  0  1  0  0  0  0  0  0  0  0  0
    1.5256   32.0582   -0.8210 O   0  0  0  0  0  0  0  0  0  0  0  0
   -2.2042   34.6889    1.7634 C   0  0  1  0  0  0  0  0  0  0  0  0
   -2.4522   35.9981    2.3013 O   0  0  0  0  0  0  0  0  0  0  0  0
    0.6216   32.2271    1.3684 C   0  0  0  0  0  0  0  0  0  0  0  0
    0.2549   33.1569    2.3813 O   0  0  0  0  0  0  0  0  0  0  0  0
   -4.9049   34.0781    4.6704 N   0  0  0  0  0  0  0  0  0  0  0  0
   -4.8146   29.9665    0.2024 N   0  0  0  0  0  0  0  0  0  0  0  0
  1  2  1  0  0  0  0
  1 39  1  0  0  0  0
  3  4  1  0  0  0  0
  5  6  1  0  0  0  0
  5 40  1  0  0  0  0
  9 10  1  1  0  0  0
  9 14  1  0  0  0  0
  9 35  1  0  0  0  0
 10  1  1  0  0  0  0
 11 16  1  0  0  0  0
 11 28  1  0  0  0  0
 11 26  1  1  0  0  0
 12 17  1  0  0  0  0
 12 34  1  0  0  0  0
 12 13  1  1  0  0  0
 14 15  1  1  0  0  0
 14 19  1  0  0  0  0
 16 13  1  6  0  0  0
 16 21  1  0  0  0  0
 17 18  1  6  0  0  0
 17 23  1  0  0  0  0
 18  8  1  0  0  0  0
 19 20  1  6  0  0  0
 19 25  1  0  0  0  0
 20  5  1  0  0  0  0
 21  3  1  1  0  0  0
 21 22  1  0  0  0  0
 21 27  1  0  0  0  0
 23 24  1  1  0  0  0
 23 29  1  0  0  0  0
 25 26  1  6  0  0  0
 25 31  1  0  0  0  0
 27  7  1  6  0  0  0
 27 28  1  0  0  0  0
 29 30  1  1  0  0  0
 29 33  1  0  0  0  0
 31 32  1  6  0  0  0
 31 35  1  0  0  0  0
 33 34  1  0  0  0  0
 33 37  1  1  0  0  0
 35 36  1  1  0  0  0
 37 38  1  0  0  0  0
M  END
>  <CHROM.1>
-90.16121237,121.94623761,76.25705700,176.34383530,165.47514366,-120.82904267
116.14229982,105.63360826,179.78104470,-166.46571671,65.94306368,-0.85846653
33.00138846,-0.46197063,-2.34842203,-0.33598816,-1.85769167

>  <Name>
1nta_lig

>  <RI>
0

>  <Rbt.Current_Directory>
/home/itssahil/PROJECTS/Mol_Feturizer/New_Systems/rnas/1nta

>  <Rbt.Executable>
rbdock ($Id: //depot/dev/client3/rdock/2013.1/src/exe/rbdock.cxx#4 $)

>  <Rbt.Library>
libRbt.so (2013.1, Build901 2013/11/27)

>  <Rbt.Parameter_File>
/export/apps/rDock/src/rDock_2013.1_src/data/scripts/dock_solv.prm

>  <Rbt.Receptor>
prm/pocket_docking_7.prm

>  <SCORE>
-27.8743

>  <SCORE.INTER>
-3.53728

>  <SCORE.INTER.CONST>
1

>  <SCORE.INTER.POLAR>
-0.849667

>  <SCORE.INTER.ROT>
11

>  <SCORE.INTER.SOLV>
9.56325

>  <SCORE.INTER.VDW>
-13.647

>  <SCORE.INTER.norm>
-0.0884319

>  <SCORE.INTRA>
-24.337

>  <SCORE.INTRA.DIHEDRAL>
-11.7044

>  <SCORE.INTRA.DIHEDRAL.0>
19.0336

>  <SCORE.INTRA.POLAR>
0

>  <SCORE.INTRA.POLAR.0>
0

>  <SCORE.INTRA.REPUL>
0.0132993

>  <SCORE.INTRA.REPUL.0>
0

>  <SCORE.INTRA.SOLV>
-2.64654

>  <SCORE.INTRA.SOLV.lig_0>
-97.5861

>  <SCORE.INTRA.VDW>
-17.2281

>  <SCORE.INTRA.VDW.0>
11.7669

>  <SCORE.INTRA.norm>
-0.608426

>  <SCORE.RESTR>
0

>  <SCORE.RESTR.CAVITY>
0

>  <SCORE.RESTR.norm>
0

>  <SCORE.SYSTEM>
0

>  <SCORE.SYSTEM.CONST>
0

>  <SCORE.SYSTEM.DIHEDRAL>
0

>  <SCORE.SYSTEM.SOLV>
0

>  <SCORE.SYSTEM.norm>
0

>  <SCORE.heavy>
40

>  <SCORE.norm>
-0.696858

>  <RMSD>
7.994

$$$$
1nta_lig
 OpenBabel11021811403D
libRbt.so/2013.1/901 2013/11/27
 40 42  0  0  0  0  0  0  0  0999 V2000
   -2.1598   40.7418    4.8076 C   0  0  0  0  0  0  0  0  0  0  0  0
   -1.8457   41.9462    5.1087 N   0  0  0  0  0  0  0  0  0  0  0  0
   -0.5119   35.8758   -2.7754 C   0  0  0  0  0  0  0  0  0  0  0  0
   -0.5785   34.8118   -2.2003 O   0  0  0  0  0  0  0  0  0  0  0  0
   -3.2662   37.8351   -0.5205 C   0  0  0  0  0  0  0  0  0  0  0  0
   -3.5585   38.4430   -1.6406 N   0  0  0  0  0  0  0  0  0  0  0  0
    0.6786   37.8915   -5.1378 C   0  0  0  0  0  0  0  0  0  0  0  0
    1.5249   34.1404    1.6668 C   0  0  0  0  0  0  0  0  0  0  0  0
   -1.0939   40.1162    2.7894 C   0  0  2  0  0  0  0  0  0  0  0  0
   -1.1819   40.0070    4.2992 N   0  0  0  0  0  0  0  0  0  0  0  0
    1.2405   38.6278   -1.6690 C   0  0  2  0  0  0  0  0  0  0  0  0
    2.3140   36.7740    0.3755 C   0  0  1  0  0  0  0  0  0  0  0  0
    2.2635   36.6289   -1.0007 O   0  0  0  0  0  0  0  0  0  0  0  0
   -1.6426   38.8350    2.1335 C   0  0  1  0  0  0  0  0  0  0  0  0
   -2.9939   38.7464    2.4712 O   0  0  0  0  0  0  0  0  0  0  0  0
    1.1494   37.1126   -1.5239 C   0  0  2  0  0  0  0  0  0  0  0  0
    3.1178   35.7228    1.1087 C   0  0  1  0  0  0  0  0  0  0  0  0
    2.6174   34.4393    0.7562 N   0  0  0  0  0  0  0  0  0  0  0  0
   -1.5564   38.8800    0.6021 C   0  0  2  0  0  0  0  0  0  0  0  0
   -2.0722   37.6595   -0.0632 N   0  0  0  0  0  0  0  0  0  0  0  0
    0.7268   36.7254   -2.8738 C   0  0  1  0  0  0  0  0  0  0  0  0
    1.8163   36.0209   -3.4728 O   0  0  0  0  0  0  0  0  0  0  0  0
    4.4611   35.7922    0.7670 C   0  0  2  0  0  0  0  0  0  0  0  0
    5.1757   35.0068    1.6876 O   0  0  0  0  0  0  0  0  0  0  0  0
   -0.0988   39.0790    0.2177 C   0  0  1  0  0  0  0  0  0  0  0  0
   -0.0254   39.1235   -1.1987 O   0  0  0  0  0  0  0  0  0  0  0  0
    0.4749   37.9425   -3.6553 C   0  0  1  0  0  0  0  0  0  0  0  0
    1.3063   38.9222   -3.0455 O   0  0  0  0  0  0  0  0  0  0  0  0
    4.9470   37.2161    0.8372 C   0  0  1  0  0  0  0  0  0  0  0  0
    6.2185   37.2907    0.2626 O   0  0  0  0  0  0  0  0  0  0  0  0
    0.4463   40.3951    0.8418 C   0  0  2  0  0  0  0  0  0  0  0  0
    1.8103   40.5693    0.4618 O   0  0  0  0  0  0  0  0  0  0  0  0
    4.0303   38.1003    0.0624 C   0  0  1  0  0  0  0  0  0  0  0  0
    2.7629   38.0210    0.6478 O   0  0  0  0  0  0  0  0  0  0  0  0
    0.3511   40.3056    2.3793 C   0  0  1  0  0  0  0  0  0  0  0  0
    0.8516   41.5136    2.9754 O   0  0  0  0  0  0  0  0  0  0  0  0
    4.4839   39.5722    0.1270 C   0  0  0  0  0  0  0  0  0  0  0  0
    5.7129   39.7144   -0.5760 O   0  0  0  0  0  0  0  0  0  0  0  0
   -3.3481   40.2728    4.9813 N   0  0  0  0  0  0  0  0  0  0  0  0
   -4.2030   37.3859    0.2192 N   0  0  0  0  0  0  0  0  0  0  0  0
  1  2  1  0  0  0  0
  1 39  1  0  0  0  0
  3  4  1  0  0  0  0
  5  6  1  0  0  0  0
  5 40  1  0  0  0  0
  9 10  1  1  0  0  0
  9 14  1  0  0  0  0
  9 35  1  0  0  0  0
 10  1  1  0  0  0  0
 11 16  1  0  0  0  0
 11 28  1  0  0  0  0
 11 26  1  6  0  0  0
 12 17  1  0  0  0  0
 12 34  1  0  0  0  0
 12 13  1  6  0  0  0
 14 15  1  6  0  0  0
 14 19  1  0  0  0  0
 16 13  1  6  0  0  0
 16 21  1  0  0  0  0
 17 18  1  6  0  0  0
 17 23  1  0  0  0  0
 18  8  1  0  0  0  0
 19 20  1  6  0  0  0
 19 25  1  0  0  0  0
 20  5  1  0  0  0  0
 21  3  1  1  0  0  0
 21 22  1  0  0  0  0
 21 27  1  0  0  0  0
 23 24  1  1  0  0  0
 23 29  1  0  0  0  0
 25 26  1  6  0  0  0
 25 31  1  0  0  0  0
 27  7  1  6  0  0  0
 27 28  1  0  0  0  0
 29 30  1  6  0  0  0
 29 33  1  0  0  0  0
 31 32  1  1  0  0  0
 31 35  1  0  0  0  0
 33 34  1  0  0  0  0
 33 37  1  1  0  0  0
 35 36  1  1  0  0  0
 37 38  1  0  0  0  0
M  END
>  <CHROM.1>
-105.35987521,-89.04914857,75.69077719,150.87646375,80.20831955,-87.01408277
100.61540782,80.00322560,-61.01867009,-150.23291507,67.64737398,0.81240961
38.09266011,0.25342709,-2.42223483,0.17427833,-2.07194256

>  <Name>
1nta_lig

>  <RI>
0

>  <Rbt.Current_Directory>
/home/itssahil/PROJECTS/Mol_Feturizer/New_Systems/rnas/1nta

>  <Rbt.Executable>
rbdock ($Id: //depot/dev/client3/rdock/2013.1/src/exe/rbdock.cxx#4 $)

>  <Rbt.Library>
libRbt.so (2013.1, Build901 2013/11/27)

>  <Rbt.Parameter_File>
/export/apps/rDock/src/rDock_2013.1_src/data/scripts/dock_solv.prm

>  <Rbt.Receptor>
prm/pocket_docking_8.prm

>  <SCORE>
-21.0422

>  <SCORE.INTER>
0.947553

>  <SCORE.INTER.CONST>
1

>  <SCORE.INTER.POLAR>
-0.6378

>  <SCORE.INTER.ROT>
11

>  <SCORE.INTER.SOLV>
8.13773

>  <SCORE.INTER.VDW>
-10.8882

>  <SCORE.INTER.norm>
0.0236888

>  <SCORE.INTRA>
-21.9897

>  <SCORE.INTRA.DIHEDRAL>
-4.97174

>  <SCORE.INTRA.DIHEDRAL.0>
19.0336

>  <SCORE.INTRA.POLAR>
0

>  <SCORE.INTRA.POLAR.0>
0

>  <SCORE.INTRA.REPUL>
0

>  <SCORE.INTRA.REPUL.0>
0

>  <SCORE.INTRA.SOLV>
-3.53091

>  <SCORE.INTRA.SOLV.lig_0>
-97.5861

>  <SCORE.INTRA.VDW>
-17.7384

>  <SCORE.INTRA.VDW.0>
11.7669

>  <SCORE.INTRA.norm>
-0.549743

>  <SCORE.RESTR>
0

>  <SCORE.RESTR.CAVITY>
0

>  <SCORE.RESTR.norm>
0

>  <SCORE.SYSTEM>
0

>  <SCORE.SYSTEM.CONST>
0

>  <SCORE.SYSTEM.DIHEDRAL>
0

>  <SCORE.SYSTEM.SOLV>
0

>  <SCORE.SYSTEM.norm>
0

>  <SCORE.heavy>
40

>  <SCORE.norm>
-0.526054

>  <RMSD>
7.997

$$$$
1nta_lig
 OpenBabel11021811403D
libRbt.so/2013.1/901 2013/11/27
 40 42  0  0  0  0  0  0  0  0999 V2000
   -3.9357   30.4232    1.2981 C   0  0  0  0  0  0  0  0  0  0  0  0
   -4.5920   30.0143    0.2772 N   0  0  0  0  0  0  0  0  0  0  0  0
    1.3565   38.9240   -0.2907 C   0  0  0  0  0  0  0  0  0  0  0  0
    1.0991   40.1049   -0.3727 O   0  0  0  0  0  0  0  0  0  0  0  0
   -1.4435   35.1237   -2.3894 C   0  0  0  0  0  0  0  0  0  0  0  0
   -2.3102   34.6942   -3.2693 N   0  0  0  0  0  0  0  0  0  0  0  0
    0.2165   39.2702    2.8144 C   0  0  0  0  0  0  0  0  0  0  0  0
    5.2469   39.4498   -0.3461 C   0  0  0  0  0  0  0  0  0  0  0  0
   -2.3307   32.1438    1.0449 C   0  0  2  0  0  0  0  0  0  0  0  0
   -2.6493   30.6622    1.0913 N   0  0  0  0  0  0  0  0  0  0  0  0
    1.0582   36.0209    1.5399 C   0  0  2  0  0  0  0  0  0  0  0  0
    4.0868   36.5534   -0.2171 C   0  0  1  0  0  0  0  0  0  0  0  0
    3.2773   36.4103    0.8973 O   0  0  0  0  0  0  0  0  0  0  0  0
   -1.6763   32.5023   -0.3027 C   0  0  1  0  0  0  0  0  0  0  0  0
   -2.6184   32.2428   -1.2993 O   0  0  0  0  0  0  0  0  0  0  0  0
    2.0369   36.8152    0.6817 C   0  0  2  0  0  0  0  0  0  0  0  0
    5.4406   37.1771    0.0415 C   0  0  1  0  0  0  0  0  0  0  0  0
    5.2489   38.4290    0.6883 N   0  0  0  0  0  0  0  0  0  0  0  0
   -1.3098   33.9894   -0.3967 C   0  0  2  0  0  0  0  0  0  0  0  0
   -0.6727   34.3695   -1.6804 N   0  0  0  0  0  0  0  0  0  0  0  0
    1.6334   38.1902    0.9940 C   0  0  1  0  0  0  0  0  0  0  0  0
    2.6999   38.7864    1.7351 O   0  0  0  0  0  0  0  0  0  0  0  0
    6.2183   36.3644    0.8544 C   0  0  2  0  0  0  0  0  0  0  0  0
    7.5359   36.8510    0.8071 O   0  0  0  0  0  0  0  0  0  0  0  0
   -0.3608   34.3140    0.7461 C   0  0  1  0  0  0  0  0  0  0  0  0
   -0.0281   35.6906    0.6565 O   0  0  0  0  0  0  0  0  0  0  0  0
    0.4406   38.1479    1.8489 C   0  0  1  0  0  0  0  0  0  0  0  0
    0.5377   36.8950    2.5149 O   0  0  0  0  0  0  0  0  0  0  0  0
    6.1892   34.9433    0.3564 C   0  0  1  0  0  0  0  0  0  0  0  0
    6.7737   34.1137    1.3169 O   0  0  0  0  0  0  0  0  0  0  0  0
   -1.0348   33.9951    2.1109 C   0  0  2  0  0  0  0  0  0  0  0  0
   -0.1339   34.3157    3.1697 O   0  0  0  0  0  0  0  0  0  0  0  0
    4.7773   34.5076    0.1581 C   0  0  1  0  0  0  0  0  0  0  0  0
    4.2037   35.3414   -0.8069 O   0  0  0  0  0  0  0  0  0  0  0  0
   -1.3781   32.4918    2.1689 C   0  0  1  0  0  0  0  0  0  0  0  0
   -2.0017   32.1766    3.4246 O   0  0  0  0  0  0  0  0  0  0  0  0
    4.7060   33.0616   -0.3715 C   0  0  0  0  0  0  0  0  0  0  0  0
    5.0147   32.1604    0.6857 O   0  0  0  0  0  0  0  0  0  0  0  0
   -4.4848   30.5879    2.4529 N   0  0  0  0  0  0  0  0  0  0  0  0
   -1.2997   36.3770   -2.2020 N   0  0  0  0  0  0  0  0  0  0  0  0
  1  2  1  0  0  0  0
  1 39  1  0  0  0  0
  3  4  1  0  0  0  0
  5  6  1  0  0  0  0
  5 40  1  0  0  0  0
  9 10  1  6  0  0  0
  9 14  1  0  0  0  0
  9 35  1  0  0  0  0
 10  1  1  0  0  0  0
 11 16  1  0  0  0  0
 11 28  1  0  0  0  0
 11 26  1  6  0  0  0
 12 17  1  0  0  0  0
 12 34  1  0  0  0  0
 12 13  1  1  0  0  0
 14 15  1  6  0  0  0
 14 19  1  0  0  0  0
 16 13  1  1  0  0  0
 16 21  1  0  0  0  0
 17 18  1  1  0  0  0
 17 23  1  0  0  0  0
 18  8  1  0  0  0  0
 19 20  1  6  0  0  0
 19 25  1  0  0  0  0
 20  5  1  0  0  0  0
 21  3  1  6  0  0  0
 21 22  1  0  0  0  0
 21 27  1  0  0  0  0
 23 24  1  6  0  0  0
 23 29  1  0  0  0  0
 25 26  1  1  0  0  0
 25 31  1  0  0  0  0
 27  7  1  1  0  0  0
 27 28  1  0  0  0  0
 29 30  1  1  0  0  0
 29 33  1  0  0  0  0
 31 32  1  1  0  0  0
 31 35  1  0  0  0  0
 33 34  1  0  0  0  0
 33 37  1  6  0  0  0
 35 36  1  1  0  0  0
 37 38  1  0  0  0  0
M  END
>  <CHROM.1>
-121.96530860,105.98745399,131.58605435,133.68552712,149.78743861,-94.58114456
111.25960975,-90.15336024,-174.25850528,-168.95223967,74.25256668,1.18961889
35.14440611,0.58166173,-2.55790341,-0.02327976,-0.07203929

>  <Name>
1nta_lig

>  <RI>
0

>  <Rbt.Current_Directory>
/home/itssahil/PROJECTS/Mol_Feturizer/New_Systems/rnas/1nta

>  <Rbt.Executable>
rbdock ($Id: //depot/dev/client3/rdock/2013.1/src/exe/rbdock.cxx#4 $)

>  <Rbt.Library>
libRbt.so (2013.1, Build901 2013/11/27)

>  <Rbt.Parameter_File>
/export/apps/rDock/src/rDock_2013.1_src/data/scripts/dock_solv.prm

>  <Rbt.Receptor>
prm/pocket_docking_8.prm

>  <SCORE>
-24.5931

>  <SCORE.INTER>
-6.54333

>  <SCORE.INTER.CONST>
1

>  <SCORE.INTER.POLAR>
-1.2937

>  <SCORE.INTER.ROT>
11

>  <SCORE.INTER.SOLV>
13.5311

>  <SCORE.INTER.VDW>
-15.4936

>  <SCORE.INTER.norm>
-0.163583

>  <SCORE.INTRA>
-18.0497

>  <SCORE.INTRA.DIHEDRAL>
2.84317

>  <SCORE.INTRA.DIHEDRAL.0>
19.0336

>  <SCORE.INTRA.POLAR>
0

>  <SCORE.INTRA.POLAR.0>
0

>  <SCORE.INTRA.REPUL>
0

>  <SCORE.INTRA.REPUL.0>
0

>  <SCORE.INTRA.SOLV>
-4.24074

>  <SCORE.INTRA.SOLV.lig_0>
-97.5861

>  <SCORE.INTRA.VDW>
-17.3509

>  <SCORE.INTRA.VDW.0>
11.7669

>  <SCORE.INTRA.norm>
-0.451243

>  <SCORE.RESTR>
0

>  <SCORE.RESTR.CAVITY>
0

>  <SCORE.RESTR.norm>
0

>  <SCORE.SYSTEM>
0

>  <SCORE.SYSTEM.CONST>
0

>  <SCORE.SYSTEM.DIHEDRAL>
0

>  <SCORE.SYSTEM.SOLV>
0

>  <SCORE.SYSTEM.norm>
0

>  <SCORE.heavy>
40

>  <SCORE.norm>
-0.614826

>  <RMSD>
8.008

$$$$
1nta_lig
 OpenBabel11021811403D
libRbt.so/2013.1/901 2013/11/27
 40 42  0  0  0  0  0  0  0  0999 V2000
   -3.9573   37.2057   -9.0212 C   0  0  0  0  0  0  0  0  0  0  0  0
   -4.0615   36.4364  -10.0396 N   0  0  0  0  0  0  0  0  0  0  0  0
    1.0019   32.0049   -2.6231 C   0  0  0  0  0  0  0  0  0  0  0  0
    0.7333   31.5389   -3.7085 O   0  0  0  0  0  0  0  0  0  0  0  0
   -0.6248   32.0464   -6.7159 C   0  0  0  0  0  0  0  0  0  0  0  0
    0.6593   31.9197   -6.9282 N   0  0  0  0  0  0  0  0  0  0  0  0
    3.9489   33.5417   -2.7435 C   0  0  0  0  0  0  0  0  0  0  0  0
   -3.9424   33.7681   -1.1814 C   0  0  0  0  0  0  0  0  0  0  0  0
   -2.5353   36.1714   -7.4373 C   0  0  2  0  0  0  0  0  0  0  0  0
   -3.9325   36.5960   -7.8455 N   0  0  0  0  0  0  0  0  0  0  0  0
    0.9489   35.2919   -3.6530 C   0  0  2  0  0  0  0  0  0  0  0  0
   -1.4973   35.5480   -2.0976 C   0  0  1  0  0  0  0  0  0  0  0  0
   -0.2993   34.9822   -1.6947 O   0  0  0  0  0  0  0  0  0  0  0  0
   -2.5598   34.7341   -6.8835 C   0  0  1  0  0  0  0  0  0  0  0  0
   -2.9662   33.8989   -7.9252 O   0  0  0  0  0  0  0  0  0  0  0  0
    0.3055   34.3219   -2.6680 C   0  0  2  0  0  0  0  0  0  0  0  0
   -2.5686   35.6237   -1.0321 C   0  0  1  0  0  0  0  0  0  0  0  0
   -2.7799   34.3197   -0.5057 N   0  0  0  0  0  0  0  0  0  0  0  0
   -1.1725   34.2587   -6.4315 C   0  0  2  0  0  0  0  0  0  0  0  0
   -1.1596   32.8795   -5.8879 N   0  0  0  0  0  0  0  0  0  0  0  0
    1.4306   33.4269   -2.3786 C   0  0  1  0  0  0  0  0  0  0  0  0
    1.8090   33.6485   -1.0185 O   0  0  0  0  0  0  0  0  0  0  0  0
   -2.1883   36.4700   -0.0001 C   0  0  2  0  0  0  0  0  0  0  0  0
   -3.3262   36.7215    0.7854 O   0  0  0  0  0  0  0  0  0  0  0  0
   -0.6693   35.2193   -5.3658 C   0  0  1  0  0  0  0  0  0  0  0  0
    0.6148   34.7772   -4.9542 O   0  0  0  0  0  0  0  0  0  0  0  0
    2.5599   33.7966   -3.2410 C   0  0  1  0  0  0  0  0  0  0  0  0
    2.3465   35.1755   -3.5165 O   0  0  0  0  0  0  0  0  0  0  0  0
   -1.6627   37.7684   -0.5536 C   0  0  1  0  0  0  0  0  0  0  0  0
   -1.0695   38.4960    0.4813 O   0  0  0  0  0  0  0  0  0  0  0  0
   -0.6008   36.6650   -5.9350 C   0  0  2  0  0  0  0  0  0  0  0  0
   -0.1172   37.5487   -4.9247 O   0  0  0  0  0  0  0  0  0  0  0  0
   -0.6241   37.4921   -1.5868 C   0  0  1  0  0  0  0  0  0  0  0  0
   -1.2289   36.7675   -2.6186 O   0  0  0  0  0  0  0  0  0  0  0  0
   -2.0141   37.1079   -6.3681 C   0  0  1  0  0  0  0  0  0  0  0  0
   -1.9719   38.4434   -6.8966 O   0  0  0  0  0  0  0  0  0  0  0  0
   -0.0749   38.7988   -2.1929 C   0  0  0  0  0  0  0  0  0  0  0  0
   -1.1363   39.5025   -2.8279 O   0  0  0  0  0  0  0  0  0  0  0  0
   -3.8859   38.4886   -9.1277 N   0  0  0  0  0  0  0  0  0  0  0  0
   -1.4488   31.3277   -7.3723 N   0  0  0  0  0  0  0  0  0  0  0  0
  1  2  1  0  0  0  0
  1 39  1  0  0  0  0
  3  4  1  0  0  0  0
  5  6  1  0  0  0  0
  5 40  1  0  0  0  0
  9 10  1  1  0  0  0
  9 14  1  0  0  0  0
  9 35  1  0  0  0  0
 10  1  1  0  0  0  0
 11 16  1  0  0  0  0
 11 28  1  0  0  0  0
 11 26  1  6  0  0  0
 12 17  1  0  0  0  0
 12 34  1  0  0  0  0
 12 13  1  1  0  0  0
 14 15  1  6  0  0  0
 14 19  1  0  0  0  0
 16 13  1  1  0  0  0
 16 21  1  0  0  0  0
 17 18  1  1  0  0  0
 17 23  1  0  0  0  0
 18  8  1  0  0  0  0
 19 20  1  1  0  0  0
 19 25  1  0  0  0  0
 20  5  1  0  0  0  0
 21  3  1  6  0  0  0
 21 22  1  0  0  0  0
 21 27  1  0  0  0  0
 23 24  1  1  0  0  0
 23 29  1  0  0  0  0
 25 26  1  6  0  0  0
 25 31  1  0  0  0  0
 27  7  1  1  0  0  0
 27 28  1  0  0  0  0
 29 30  1  1  0  0  0
 29 33  1  0  0  0  0
 31 32  1  1  0  0  0
 31 35  1  0  0  0  0
 33 34  1  0  0  0  0
 33 37  1  6  0  0  0
 35 36  1  6  0  0  0
 37 38  1  0  0  0  0
M  END
>  <CHROM.1>
-135.29470407,86.90089484,84.28655217,147.34612257,75.38610640,-97.98133138
106.16002193,76.90860264,67.34650780,-158.56579858,-61.36660983,-0.97397461
35.38704460,-4.12084282,2.12199691,0.91855911,-2.00181525

>  <Name>
1nta_lig

>  <RI>
0

>  <Rbt.Current_Directory>
/home/itssahil/PROJECTS/Mol_Feturizer/New_Systems/rnas/1nta

>  <Rbt.Executable>
rbdock ($Id: //depot/dev/client3/rdock/2013.1/src/exe/rbdock.cxx#4 $)

>  <Rbt.Library>
libRbt.so (2013.1, Build901 2013/11/27)

>  <Rbt.Parameter_File>
/export/apps/rDock/src/rDock_2013.1_src/data/scripts/dock_solv.prm

>  <Rbt.Receptor>
prm/pocket_docking_6.prm

>  <SCORE>
-22.1163

>  <SCORE.INTER>
-0.156429

>  <SCORE.INTER.CONST>
1

>  <SCORE.INTER.POLAR>
-0.819769

>  <SCORE.INTER.ROT>
11

>  <SCORE.INTER.SOLV>
6.83536

>  <SCORE.INTER.VDW>
-10.5835

>  <SCORE.INTER.norm>
-0.00391074

>  <SCORE.INTRA>
-21.9599

>  <SCORE.INTRA.DIHEDRAL>
-4.76496

>  <SCORE.INTRA.DIHEDRAL.0>
19.0336

>  <SCORE.INTRA.POLAR>
0

>  <SCORE.INTRA.POLAR.0>
0

>  <SCORE.INTRA.REPUL>
0.0206207

>  <SCORE.INTRA.REPUL.0>
0

>  <SCORE.INTRA.SOLV>
-2.45187

>  <SCORE.INTRA.SOLV.lig_0>
-97.5861

>  <SCORE.INTRA.VDW>
-18.4546

>  <SCORE.INTRA.VDW.0>
11.7669

>  <SCORE.INTRA.norm>
-0.548997

>  <SCORE.RESTR>
0

>  <SCORE.RESTR.CAVITY>
0

>  <SCORE.RESTR.norm>
0

>  <SCORE.SYSTEM>
0

>  <SCORE.SYSTEM.CONST>
0

>  <SCORE.SYSTEM.DIHEDRAL>
0

>  <SCORE.SYSTEM.SOLV>
0

>  <SCORE.SYSTEM.norm>
0

>  <SCORE.heavy>
40

>  <SCORE.norm>
-0.552908

>  <RMSD>
8.009

$$$$
1nta_lig
 OpenBabel11021811403D
libRbt.so/2013.1/901 2013/11/27
 40 42  0  0  0  0  0  0  0  0999 V2000
   -3.4639   42.7844    1.5531 C   0  0  0  0  0  0  0  0  0  0  0  0
   -4.1330   42.4596    2.5957 N   0  0  0  0  0  0  0  0  0  0  0  0
    0.1588   34.6683   -1.3601 C   0  0  0  0  0  0  0  0  0  0  0  0
    0.6176   34.3545   -0.2839 O   0  0  0  0  0  0  0  0  0  0  0  0
   -3.6207   36.8755   -0.1203 C   0  0  0  0  0  0  0  0  0  0  0  0
   -4.5618   36.9223    0.7863 N   0  0  0  0  0  0  0  0  0  0  0  0
    0.1827   34.8266   -4.6822 C   0  0  0  0  0  0  0  0  0  0  0  0
    5.0275   34.9030   -0.0658 C   0  0  0  0  0  0  0  0  0  0  0  0
   -2.2689   41.2221    0.2371 C   0  0  2  0  0  0  0  0  0  0  0  0
   -2.2944   42.1781    1.4137 N   0  0  0  0  0  0  0  0  0  0  0  0
    0.3503   37.8282   -2.7193 C   0  0  2  0  0  0  0  0  0  0  0  0
    2.6059   37.0276   -0.1119 C   0  0  1  0  0  0  0  0  0  0  0  0
    2.2288   37.3390   -1.4074 O   0  0  0  0  0  0  0  0  0  0  0  0
   -2.3753   39.7681    0.7345 C   0  0  1  0  0  0  0  0  0  0  0  0
   -3.6175   39.6364    1.3571 O   0  0  0  0  0  0  0  0  0  0  0  0
    1.0147   36.9056   -1.7031 C   0  0  2  0  0  0  0  0  0  0  0  0
    4.0971   37.0110    0.1425 C   0  0  1  0  0  0  0  0  0  0  0  0
    4.7074   36.1239   -0.7863 N   0  0  0  0  0  0  0  0  0  0  0  0
   -2.3308   38.7528   -0.4153 C   0  0  2  0  0  0  0  0  0  0  0  0
   -2.4262   37.3413    0.0279 N   0  0  0  0  0  0  0  0  0  0  0  0
    0.8212   35.5990   -2.3404 C   0  0  1  0  0  0  0  0  0  0  0  0
    2.1094   35.1289   -2.7424 O   0  0  0  0  0  0  0  0  0  0  0  0
    4.6452   38.2762   -0.0159 C   0  0  2  0  0  0  0  0  0  0  0  0
    5.9456   38.2464    0.5161 O   0  0  0  0  0  0  0  0  0  0  0  0
   -1.0253   38.9515   -1.1690 C   0  0  1  0  0  0  0  0  0  0  0  0
   -0.9909   38.0130   -2.2327 O   0  0  0  0  0  0  0  0  0  0  0  0
   -0.0033   35.7789   -3.5418 C   0  0  1  0  0  0  0  0  0  0  0  0
    0.2481   37.1225   -3.9347 O   0  0  0  0  0  0  0  0  0  0  0  0
    3.8234   39.2998    0.7225 C   0  0  1  0  0  0  0  0  0  0  0  0
    4.2508   40.5776    0.3527 O   0  0  0  0  0  0  0  0  0  0  0  0
   -0.9342   40.4063   -1.7112 C   0  0  2  0  0  0  0  0  0  0  0  0
    0.2912   40.5698   -2.4233 O   0  0  0  0  0  0  0  0  0  0  0  0
    2.3875   39.1594    0.3470 C   0  0  1  0  0  0  0  0  0  0  0  0
    1.9695   37.8795    0.7246 O   0  0  0  0  0  0  0  0  0  0  0  0
   -0.9725   41.3935   -0.5258 C   0  0  1  0  0  0  0  0  0  0  0  0
   -0.8884   42.7449   -1.0068 O   0  0  0  0  0  0  0  0  0  0  0  0
    1.5092   40.1789    1.0990 C   0  0  0  0  0  0  0  0  0  0  0  0
    1.5740   39.9122    2.4953 O   0  0  0  0  0  0  0  0  0  0  0  0
   -3.8935   43.6468    0.6964 N   0  0  0  0  0  0  0  0  0  0  0  0
   -3.8502   36.3153   -1.2428 N   0  0  0  0  0  0  0  0  0  0  0  0
  1  2  1  0  0  0  0
  1 39  1  0  0  0  0
  3  4  1  0  0  0  0
  5  6  1  0  0  0  0
  5 40  1  0  0  0  0
  9 10  1  1  0  0  0
  9 14  1  0  0  0  0
  9 35  1  0  0  0  0
 10  1  1  0  0  0  0
 11 16  1  0  0  0  0
 11 28  1  0  0  0  0
 11 26  1  1  0  0  0
 12 17  1  0  0  0  0
 12 34  1  0  0  0  0
 12 13  1  6  0  0  0
 14 15  1  6  0  0  0
 14 19  1  0  0  0  0
 16 13  1  6  0  0  0
 16 21  1  0  0  0  0
 17 18  1  6  0  0  0
 17 23  1  0  0  0  0
 18  8  1  0  0  0  0
 19 20  1  1  0  0  0
 19 25  1  0  0  0  0
 20  5  1  0  0  0  0
 21  3  1  1  0  0  0
 21 22  1  0  0  0  0
 21 27  1  0  0  0  0
 23 24  1  1  0  0  0
 23 29  1  0  0  0  0
 25 26  1  6  0  0  0
 25 31  1  0  0  0  0
 27  7  1  6  0  0  0
 27 28  1  0  0  0  0
 29 30  1  6  0  0  0
 29 33  1  0  0  0  0
 31 32  1  1  0  0  0
 31 35  1  0  0  0  0
 33 34  1  0  0  0  0
 33 37  1  1  0  0  0
 35 36  1  6  0  0  0
 37 38  1  0  0  0  0
M  END
>  <CHROM.1>
-103.66615736,112.20581298,78.32793213,158.11770353,149.29645367,-103.75781390
100.08537603,-90.59387048,-59.66084671,-161.27755302,-63.47520709,0.22178698
38.43973558,-0.52708630,-2.46383563,0.11511824,-2.63701696

>  <Name>
1nta_lig

>  <RI>
0

>  <Rbt.Current_Directory>
/home/itssahil/PROJECTS/Mol_Feturizer/New_Systems/rnas/1nta

>  <Rbt.Executable>
rbdock ($Id: //depot/dev/client3/rdock/2013.1/src/exe/rbdock.cxx#4 $)

>  <Rbt.Library>
libRbt.so (2013.1, Build901 2013/11/27)

>  <Rbt.Parameter_File>
/export/apps/rDock/src/rDock_2013.1_src/data/scripts/dock_solv.prm

>  <Rbt.Receptor>
prm/pocket_docking_7.prm

>  <SCORE>
-19.96

>  <SCORE.INTER>
3.9266

>  <SCORE.INTER.CONST>
1

>  <SCORE.INTER.POLAR>
-0.476615

>  <SCORE.INTER.ROT>
11

>  <SCORE.INTER.SOLV>
6.81884

>  <SCORE.INTER.VDW>
-8.99983

>  <SCORE.INTER.norm>
0.098165

>  <SCORE.INTRA>
-23.8866

>  <SCORE.INTRA.DIHEDRAL>
-5.9962

>  <SCORE.INTRA.DIHEDRAL.0>
19.0336

>  <SCORE.INTRA.POLAR>
0

>  <SCORE.INTRA.POLAR.0>
0

>  <SCORE.INTRA.REPUL>
0

>  <SCORE.INTRA.REPUL.0>
0

>  <SCORE.INTRA.SOLV>
-3.75335

>  <SCORE.INTRA.SOLV.lig_0>
-97.5861

>  <SCORE.INTRA.VDW>
-19.0118

>  <SCORE.INTRA.VDW.0>
11.7669

>  <SCORE.INTRA.norm>
-0.597165

>  <SCORE.RESTR>
0

>  <SCORE.RESTR.CAVITY>
0

>  <SCORE.RESTR.norm>
0

>  <SCORE.SYSTEM>
0

>  <SCORE.SYSTEM.CONST>
0

>  <SCORE.SYSTEM.DIHEDRAL>
0

>  <SCORE.SYSTEM.SOLV>
0

>  <SCORE.SYSTEM.norm>
0

>  <SCORE.heavy>
40

>  <SCORE.norm>
-0.499

>  <RMSD>
8.036

$$$$
1nta_lig
 OpenBabel11021811403D
libRbt.so/2013.1/901 2013/11/27
 40 42  0  0  0  0  0  0  0  0999 V2000
   -0.1353   35.0065   -8.9382 C   0  0  0  0  0  0  0  0  0  0  0  0
   -0.4349   34.0167   -9.6936 N   0  0  0  0  0  0  0  0  0  0  0  0
   -2.9651   38.3181   -0.6882 C   0  0  0  0  0  0  0  0  0  0  0  0
   -2.5420   39.1688   -1.4396 O   0  0  0  0  0  0  0  0  0  0  0  0
   -1.4293   39.5649   -4.8469 C   0  0  0  0  0  0  0  0  0  0  0  0
   -2.4583   40.3440   -5.0559 N   0  0  0  0  0  0  0  0  0  0  0  0
   -6.2512   38.7767   -0.9179 C   0  0  0  0  0  0  0  0  0  0  0  0
   -3.9543   34.0484    2.3931 C   0  0  0  0  0  0  0  0  0  0  0  0
   -1.3976   35.5605   -7.0146 C   0  0  2  0  0  0  0  0  0  0  0  0
   -0.2516   34.7870   -7.6371 N   0  0  0  0  0  0  0  0  0  0  0  0
   -4.6050   36.3566   -2.9973 C   0  0  2  0  0  0  0  0  0  0  0  0
   -2.6135   34.9231   -0.3505 C   0  0  1  0  0  0  0  0  0  0  0  0
   -3.5655   35.0585   -1.3470 O   0  0  0  0  0  0  0  0  0  0  0  0
   -0.8548   36.5872   -6.0026 C   0  0  1  0  0  0  0  0  0  0  0  0
   -0.0730   37.4957   -6.7176 O   0  0  0  0  0  0  0  0  0  0  0  0
   -3.6294   36.2890   -1.8273 C   0  0  2  0  0  0  0  0  0  0  0  0
   -2.7169   33.6609    0.4770 C   0  0  1  0  0  0  0  0  0  0  0  0
   -4.0287   33.5787    1.0198 N   0  0  0  0  0  0  0  0  0  0  0  0
   -1.9753   37.3851   -5.3223 C   0  0  2  0  0  0  0  0  0  0  0  0
   -1.4888   38.3806   -4.3372 N   0  0  0  0  0  0  0  0  0  0  0  0
   -4.1134   37.3938   -0.9930 C   0  0  1  0  0  0  0  0  0  0  0  0
   -4.6697   36.8182    0.1908 O   0  0  0  0  0  0  0  0  0  0  0  0
   -2.4785   32.5344   -0.2977 C   0  0  2  0  0  0  0  0  0  0  0  0
   -2.2977   31.4479    0.5752 O   0  0  0  0  0  0  0  0  0  0  0  0
   -2.8969   36.3996   -4.6215 C   0  0  1  0  0  0  0  0  0  0  0  0
   -3.9327   37.1422   -3.9974 O   0  0  0  0  0  0  0  0  0  0  0  0
   -5.1823   38.0953   -1.7148 C   0  0  1  0  0  0  0  0  0  0  0  0
   -5.7240   37.1034   -2.5782 O   0  0  0  0  0  0  0  0  0  0  0  0
   -1.2369   32.7231   -1.1291 C   0  0  1  0  0  0  0  0  0  0  0  0
   -1.1559   31.6890   -2.0652 O   0  0  0  0  0  0  0  0  0  0  0  0
   -3.4821   35.3883   -5.6479 C   0  0  2  0  0  0  0  0  0  0  0  0
   -4.3513   34.4797   -4.9738 O   0  0  0  0  0  0  0  0  0  0  0  0
   -1.3155   34.0167   -1.8659 C   0  0  1  0  0  0  0  0  0  0  0  0
   -1.3923   35.0439   -0.9203 O   0  0  0  0  0  0  0  0  0  0  0  0
   -2.3265   34.6015   -6.3010 C   0  0  1  0  0  0  0  0  0  0  0  0
   -2.8475   33.6598   -7.2532 O   0  0  0  0  0  0  0  0  0  0  0  0
   -0.0512   34.2561   -2.7147 C   0  0  0  0  0  0  0  0  0  0  0  0
   -0.1478   35.5255   -3.3505 O   0  0  0  0  0  0  0  0  0  0  0  0
    0.2495   36.1437   -9.4082 N   0  0  0  0  0  0  0  0  0  0  0  0
   -0.2615   39.9559   -5.1782 N   0  0  0  0  0  0  0  0  0  0  0  0
  1  2  1  0  0  0  0
  1 39  1  0  0  0  0
  3  4  1  0  0  0  0
  5  6  1  0  0  0  0
  5 40  1  0  0  0  0
  9 10  1  1  0  0  0
  9 14  1  0  0  0  0
  9 35  1  0  0  0  0
 10  1  1  0  0  0  0
 11 16  1  0  0  0  0
 11 28  1  0  0  0  0
 11 26  1  6  0  0  0
 12 17  1  0  0  0  0
 12 34  1  0  0  0  0
 12 13  1  6  0  0  0
 14 15  1  6  0  0  0
 14 19  1  0  0  0  0
 16 13  1  1  0  0  0
 16 21  1  0  0  0  0
 17 18  1  6  0  0  0
 17 23  1  0  0  0  0
 18  8  1  0  0  0  0
 19 20  1  1  0  0  0
 19 25  1  0  0  0  0
 20  5  1  0  0  0  0
 21  3  1  1  0  0  0
 21 22  1  0  0  0  0
 21 27  1  0  0  0  0
 23 24  1  1  0  0  0
 23 29  1  0  0  0  0
 25 26  1  6  0  0  0
 25 31  1  0  0  0  0
 27  7  1  1  0  0  0
 27 28  1  0  0  0  0
 29 30  1  6  0  0  0
 29 33  1  0  0  0  0
 31 32  1  1  0  0  0
 31 35  1  0  0  0  0
 33 34  1  0  0  0  0
 33 37  1  1  0  0  0
 35 36  1  6  0  0  0
 37 38  1  0  0  0  0
M  END
>  <CHROM.1>
-115.40029415,-110.64391954,74.14342126,165.31510268,175.22247365,-99.50059279
98.06833001,76.64244617,80.67760652,-162.61021197,-177.47888044,-2.44185101
35.82818687,-3.34953974,-0.78477991,-1.09218309,2.46827224

>  <Name>
1nta_lig

>  <RI>
0

>  <Rbt.Current_Directory>
/home/itssahil/PROJECTS/Mol_Feturizer/New_Systems/rnas/1nta

>  <Rbt.Executable>
rbdock ($Id: //depot/dev/client3/rdock/2013.1/src/exe/rbdock.cxx#4 $)

>  <Rbt.Library>
libRbt.so (2013.1, Build901 2013/11/27)

>  <Rbt.Parameter_File>
/export/apps/rDock/src/rDock_2013.1_src/data/scripts/dock_solv.prm

>  <Rbt.Receptor>
prm/pocket_docking_5.prm

>  <SCORE>
-13.9991

>  <SCORE.INTER>
10.5412

>  <SCORE.INTER.CONST>
1

>  <SCORE.INTER.POLAR>
-0.429968

>  <SCORE.INTER.ROT>
11

>  <SCORE.INTER.SOLV>
4.27412

>  <SCORE.INTER.VDW>
-3.89735

>  <SCORE.INTER.norm>
0.26353

>  <SCORE.INTRA>
-24.5403

>  <SCORE.INTRA.DIHEDRAL>
-10.0061

>  <SCORE.INTRA.DIHEDRAL.0>
19.0336

>  <SCORE.INTRA.POLAR>
0

>  <SCORE.INTRA.POLAR.0>
0

>  <SCORE.INTRA.REPUL>
0.00884194

>  <SCORE.INTRA.REPUL.0>
0

>  <SCORE.INTRA.SOLV>
-2.57161

>  <SCORE.INTRA.SOLV.lig_0>
-97.5861

>  <SCORE.INTRA.VDW>
-18.2956

>  <SCORE.INTRA.VDW.0>
11.7669

>  <SCORE.INTRA.norm>
-0.613508

>  <SCORE.RESTR>
0

>  <SCORE.RESTR.CAVITY>
0

>  <SCORE.RESTR.norm>
0

>  <SCORE.SYSTEM>
0

>  <SCORE.SYSTEM.CONST>
0

>  <SCORE.SYSTEM.DIHEDRAL>
0

>  <SCORE.SYSTEM.SOLV>
0

>  <SCORE.SYSTEM.norm>
0

>  <SCORE.heavy>
40

>  <SCORE.norm>
-0.349978

>  <RMSD>
8.059

$$$$
1nta_lig
 OpenBabel11021811403D
libRbt.so/2013.1/901 2013/11/27
 40 42  0  0  0  0  0  0  0  0999 V2000
    1.4284   39.0010   -8.2112 C   0  0  0  0  0  0  0  0  0  0  0  0
    1.9504   39.7742   -9.0885 N   0  0  0  0  0  0  0  0  0  0  0  0
    2.0625   42.3794    1.0778 C   0  0  0  0  0  0  0  0  0  0  0  0
    1.6989   43.2697    1.8144 O   0  0  0  0  0  0  0  0  0  0  0  0
    1.9796   43.3133   -3.5942 C   0  0  0  0  0  0  0  0  0  0  0  0
    2.2239   44.0278   -4.6618 N   0  0  0  0  0  0  0  0  0  0  0  0
   -0.8729   41.0664    1.9267 C   0  0  0  0  0  0  0  0  0  0  0  0
    5.1177   41.9010   -1.7177 C   0  0  0  0  0  0  0  0  0  0  0  0
    1.4624   39.3683   -5.8735 C   0  0  2  0  0  0  0  0  0  0  0  0
    2.1445   38.8198   -7.1116 N   0  0  0  0  0  0  0  0  0  0  0  0
    1.0911   39.5860   -0.6889 C   0  0  2  0  0  0  0  0  0  0  0  0
    4.1359   39.0472   -0.4136 C   0  0  1  0  0  0  0  0  0  0  0  0
    3.0893   39.2165    0.4772 O   0  0  0  0  0  0  0  0  0  0  0  0
    2.3157   40.4905   -5.2527 C   0  0  1  0  0  0  0  0  0  0  0  0
    2.3816   41.5231   -6.1895 O   0  0  0  0  0  0  0  0  0  0  0  0
    2.2533   40.1716    0.1058 C   0  0  2  0  0  0  0  0  0  0  0  0
    5.2464   40.0694   -0.3101 C   0  0  1  0  0  0  0  0  0  0  0  0
    4.6824   41.3686   -0.4375 N   0  0  0  0  0  0  0  0  0  0  0  0
    1.6835   41.0685   -3.9795 C   0  0  2  0  0  0  0  0  0  0  0  0
    2.4813   42.1491   -3.3519 N   0  0  0  0  0  0  0  0  0  0  0  0
    1.5365   40.9694    1.1062 C   0  0  1  0  0  0  0  0  0  0  0  0
    1.7431   40.3435    2.3741 O   0  0  0  0  0  0  0  0  0  0  0  0
    5.8971   39.9785    0.9124 C   0  0  2  0  0  0  0  0  0  0  0  0
    7.0789   40.7337    0.8227 O   0  0  0  0  0  0  0  0  0  0  0  0
    1.5101   39.9336   -2.9826 C   0  0  1  0  0  0  0  0  0  0  0  0
    0.9221   40.4728   -1.8090 O   0  0  0  0  0  0  0  0  0  0  0  0
    0.1016   40.9318    0.7979 C   0  0  1  0  0  0  0  0  0  0  0  0
   -0.0696   39.7036    0.1014 O   0  0  0  0  0  0  0  0  0  0  0  0
    6.2392   38.5441    1.2188 C   0  0  1  0  0  0  0  0  0  0  0  0
    6.6694   38.4534    2.5451 O   0  0  0  0  0  0  0  0  0  0  0  0
    0.6120   38.8183   -3.5894 C   0  0  2  0  0  0  0  0  0  0  0  0
    0.4527   37.7686   -2.6364 O   0  0  0  0  0  0  0  0  0  0  0  0
    5.0263   37.6918    1.0606 C   0  0  1  0  0  0  0  0  0  0  0  0
    4.6069   37.7870   -0.2700 O   0  0  0  0  0  0  0  0  0  0  0  0
    1.2862   38.2581   -4.8594 C   0  0  1  0  0  0  0  0  0  0  0  0
    0.4712   37.2242   -5.4351 O   0  0  0  0  0  0  0  0  0  0  0  0
    5.3412   36.2102    1.3467 C   0  0  0  0  0  0  0  0  0  0  0  0
    6.4125   35.7894    0.5099 O   0  0  0  0  0  0  0  0  0  0  0  0
    0.2850   38.4309   -8.3841 N   0  0  0  0  0  0  0  0  0  0  0  0
    1.2108   43.7735   -2.6868 N   0  0  0  0  0  0  0  0  0  0  0  0
  1  2  1  0  0  0  0
  1 39  1  0  0  0  0
  3  4  1  0  0  0  0
  5  6  1  0  0  0  0
  5 40  1  0  0  0  0
  9 10  1  6  0  0  0
  9 14  1  0  0  0  0
  9 35  1  0  0  0  0
 10  1  1  0  0  0  0
 11 16  1  0  0  0  0
 11 28  1  0  0  0  0
 11 26  1  6  0  0  0
 12 17  1  0  0  0  0
 12 34  1  0  0  0  0
 12 13  1  1  0  0  0
 14 15  1  6  0  0  0
 14 19  1  0  0  0  0
 16 13  1  1  0  0  0
 16 21  1  0  0  0  0
 17 18  1  1  0  0  0
 17 23  1  0  0  0  0
 18  8  1  0  0  0  0
 19 20  1  1  0  0  0
 19 25  1  0  0  0  0
 20  5  1  0  0  0  0
 21  3  1  1  0  0  0
 21 22  1  0  0  0  0
 21 27  1  0  0  0  0
 23 24  1  6  0  0  0
 23 29  1  0  0  0  0
 25 26  1  1  0  0  0
 25 31  1  0  0  0  0
 27  7  1  1  0  0  0
 27 28  1  0  0  0  0
 29 30  1  1  0  0  0
 29 33  1  0  0  0  0
 31 32  1  1  0  0  0
 31 35  1  0  0  0  0
 33 34  1  0  0  0  0
 33 37  1  6  0  0  0
 35 36  1  6  0  0  0
 37 38  1  0  0  0  0
M  END
>  <CHROM.1>
-117.64114101,115.49782535,100.73372924,78.24929527,93.88919974,-110.21615510
103.25973219,-85.59761193,-177.72924295,-162.49730195,-55.31491613,2.66238804
39.96724886,-1.82466319,-2.13589039,-0.80700890,1.19730346

>  <Name>
1nta_lig

>  <RI>
0

>  <Rbt.Current_Directory>
/home/itssahil/PROJECTS/Mol_Feturizer/New_Systems/rnas/1nta

>  <Rbt.Executable>
rbdock ($Id: //depot/dev/client3/rdock/2013.1/src/exe/rbdock.cxx#4 $)

>  <Rbt.Library>
libRbt.so (2013.1, Build901 2013/11/27)

>  <Rbt.Parameter_File>
/export/apps/rDock/src/rDock_2013.1_src/data/scripts/dock_solv.prm

>  <Rbt.Receptor>
prm/pocket_docking_8.prm

>  <SCORE>
-29.5354

>  <SCORE.INTER>
-9.07969

>  <SCORE.INTER.CONST>
1

>  <SCORE.INTER.POLAR>
0

>  <SCORE.INTER.ROT>
11

>  <SCORE.INTER.SOLV>
14.7022

>  <SCORE.INTER.VDW>
-21.8872

>  <SCORE.INTER.norm>
-0.226992

>  <SCORE.INTRA>
-20.4557

>  <SCORE.INTRA.DIHEDRAL>
-1.80514

>  <SCORE.INTRA.DIHEDRAL.0>
19.0336

>  <SCORE.INTRA.POLAR>
0

>  <SCORE.INTRA.POLAR.0>
0

>  <SCORE.INTRA.REPUL>
0

>  <SCORE.INTRA.REPUL.0>
0

>  <SCORE.INTRA.SOLV>
-3.17958

>  <SCORE.INTRA.SOLV.lig_0>
-97.5861

>  <SCORE.INTRA.VDW>
-17.9634

>  <SCORE.INTRA.VDW.0>
11.7669

>  <SCORE.INTRA.norm>
-0.511393

>  <SCORE.RESTR>
0

>  <SCORE.RESTR.CAVITY>
0

>  <SCORE.RESTR.norm>
0

>  <SCORE.SYSTEM>
0

>  <SCORE.SYSTEM.CONST>
0

>  <SCORE.SYSTEM.DIHEDRAL>
0

>  <SCORE.SYSTEM.SOLV>
0

>  <SCORE.SYSTEM.norm>
0

>  <SCORE.heavy>
40

>  <SCORE.norm>
-0.738386

>  <RMSD>
8.090

$$$$
1nta_lig
 OpenBabel11021811403D
libRbt.so/2013.1/901 2013/11/27
 40 42  0  0  0  0  0  0  0  0999 V2000
   -3.7971   41.0697    3.0351 C   0  0  0  0  0  0  0  0  0  0  0  0
   -4.7258   40.5978    3.7800 N   0  0  0  0  0  0  0  0  0  0  0  0
    0.2877   34.1236   -1.8231 C   0  0  0  0  0  0  0  0  0  0  0  0
    0.8816   33.6236   -0.8932 O   0  0  0  0  0  0  0  0  0  0  0  0
   -3.8999   35.5922   -0.2426 C   0  0  0  0  0  0  0  0  0  0  0  0
   -4.3073   35.5002   -1.4817 N   0  0  0  0  0  0  0  0  0  0  0  0
    0.0437   35.0258   -5.0149 C   0  0  0  0  0  0  0  0  0  0  0  0
    0.0266   36.3608    1.9700 C   0  0  0  0  0  0  0  0  0  0  0  0
   -2.7103   39.6962    1.4435 C   0  0  2  0  0  0  0  0  0  0  0  0
   -2.7567   40.2720    2.8454 N   0  0  0  0  0  0  0  0  0  0  0  0
   -0.0370   37.5016   -2.4161 C   0  0  2  0  0  0  0  0  0  0  0  0
    1.9130   37.7553   -0.1719 C   0  0  1  0  0  0  0  0  0  0  0  0
    1.9816   37.0066   -1.3348 O   0  0  0  0  0  0  0  0  0  0  0  0
   -2.7664   38.1579    1.5013 C   0  0  1  0  0  0  0  0  0  0  0  0
   -3.9986   37.8119    2.0580 O   0  0  0  0  0  0  0  0  0  0  0  0
    0.8160   36.4802   -1.6717 C   0  0  2  0  0  0  0  0  0  0  0  0
    2.0858   36.9745    1.1124 C   0  0  1  0  0  0  0  0  0  0  0  0
    1.1319   35.9201    1.1358 N   0  0  0  0  0  0  0  0  0  0  0  0
   -2.6988   37.5183    0.1081 C   0  0  2  0  0  0  0  0  0  0  0  0
   -2.7457   36.0366    0.1261 N   0  0  0  0  0  0  0  0  0  0  0  0
    0.7481   35.3362   -2.5868 C   0  0  1  0  0  0  0  0  0  0  0  0
    2.0532   35.1594   -3.1413 O   0  0  0  0  0  0  0  0  0  0  0  0
    3.3600   36.4315    1.1996 C   0  0  2  0  0  0  0  0  0  0  0  0
    3.5433   35.9858    2.5197 O   0  0  0  0  0  0  0  0  0  0  0  0
   -1.4065   37.9681   -0.5548 C   0  0  1  0  0  0  0  0  0  0  0  0
   -1.3509   37.3769   -1.8436 O   0  0  0  0  0  0  0  0  0  0  0  0
   -0.1799   35.6605   -3.6774 C   0  0  1  0  0  0  0  0  0  0  0  0
   -0.1362   37.0799   -3.7569 O   0  0  0  0  0  0  0  0  0  0  0  0
    4.3974   37.4732    0.8721 C   0  0  1  0  0  0  0  0  0  0  0  0
    5.6394   36.8485    0.7319 O   0  0  0  0  0  0  0  0  0  0  0  0
   -1.3662   39.5196   -0.6553 C   0  0  2  0  0  0  0  0  0  0  0  0
   -0.1525   39.9212   -1.2885 O   0  0  0  0  0  0  0  0  0  0  0  0
    4.0572   38.1344   -0.4200 C   0  0  1  0  0  0  0  0  0  0  0  0
    2.8154   38.7589   -0.2674 O   0  0  0  0  0  0  0  0  0  0  0  0
   -1.4263   40.1223    0.7639 C   0  0  1  0  0  0  0  0  0  0  0  0
   -1.3892   41.5569    0.6924 O   0  0  0  0  0  0  0  0  0  0  0  0
    5.0870   39.2234   -0.7805 C   0  0  0  0  0  0  0  0  0  0  0  0
    5.1198   40.1978    0.2560 O   0  0  0  0  0  0  0  0  0  0  0  0
   -3.8635   42.2440    2.5070 N   0  0  0  0  0  0  0  0  0  0  0  0
   -4.6790   35.2492    0.7070 N   0  0  0  0  0  0  0  0  0  0  0  0
  1  2  1  0  0  0  0
  1 39  1  0  0  0  0
  3  4  1  0  0  0  0
  5  6  1  0  0  0  0
  5 40  1  0  0  0  0
  9 10  1  1  0  0  0
  9 14  1  0  0  0  0
  9 35  1  0  0  0  0
 10  1  1  0  0  0  0
 11 16  1  0  0  0  0
 11 28  1  0  0  0  0
 11 26  1  1  0  0  0
 12 17  1  0  0  0  0
 12 34  1  0  0  0  0
 12 13  1  6  0  0  0
 14 15  1  6  0  0  0
 14 19  1  0  0  0  0
 16 13  1  6  0  0  0
 16 21  1  0  0  0  0
 17 18  1  6  0  0  0
 17 23  1  0  0  0  0
 18  8  1  0  0  0  0
 19 20  1  1  0  0  0
 19 25  1  0  0  0  0
 20  5  1  0  0  0  0
 21  3  1  1  0  0  0
 21 22  1  0  0  0  0
 21 27  1  0  0  0  0
 23 24  1  1  0  0  0
 23 29  1  0  0  0  0
 25 26  1  6  0  0  0
 25 31  1  0  0  0  0
 27  7  1  6  0  0  0
 27 28  1  0  0  0  0
 29 30  1  6  0  0  0
 29 33  1  0  0  0  0
 31 32  1  1  0  0  0
 31 35  1  0  0  0  0
 33 34  1  0  0  0  0
 33 37  1  1  0  0  0
 35 36  1  6  0  0  0
 37 38  1  0  0  0  0
M  END
>  <CHROM.1>
-120.14276757,107.76585957,74.82654567,86.31535422,82.34313287,-99.51205408
104.61340180,79.17848495,-61.81825855,-166.95998830,-59.04850130,-0.05187328
37.57577373,-0.13363364,-2.66890698,-0.03663253,-2.42601854

>  <Name>
1nta_lig

>  <RI>
0

>  <Rbt.Current_Directory>
/home/itssahil/PROJECTS/Mol_Feturizer/New_Systems/rnas/1nta

>  <Rbt.Executable>
rbdock ($Id: //depot/dev/client3/rdock/2013.1/src/exe/rbdock.cxx#4 $)

>  <Rbt.Library>
libRbt.so (2013.1, Build901 2013/11/27)

>  <Rbt.Parameter_File>
/export/apps/rDock/src/rDock_2013.1_src/data/scripts/dock_solv.prm

>  <Rbt.Receptor>
prm/pocket_docking_7.prm

>  <SCORE>
-21.0895

>  <SCORE.INTER>
2.32365

>  <SCORE.INTER.CONST>
1

>  <SCORE.INTER.POLAR>
-0.654652

>  <SCORE.INTER.ROT>
11

>  <SCORE.INTER.SOLV>
6.46943

>  <SCORE.INTER.VDW>
-9.35853

>  <SCORE.INTER.norm>
0.0580912

>  <SCORE.INTRA>
-23.4131

>  <SCORE.INTRA.DIHEDRAL>
-7.70034

>  <SCORE.INTRA.DIHEDRAL.0>
19.0336

>  <SCORE.INTRA.POLAR>
0

>  <SCORE.INTRA.POLAR.0>
0

>  <SCORE.INTRA.REPUL>
0.00105891

>  <SCORE.INTRA.REPUL.0>
0

>  <SCORE.INTRA.SOLV>
-2.81487

>  <SCORE.INTRA.SOLV.lig_0>
-97.5861

>  <SCORE.INTRA.VDW>
-18.1608

>  <SCORE.INTRA.VDW.0>
11.7669

>  <SCORE.INTRA.norm>
-0.585329

>  <SCORE.RESTR>
0

>  <SCORE.RESTR.CAVITY>
0

>  <SCORE.RESTR.norm>
0

>  <SCORE.SYSTEM>
0

>  <SCORE.SYSTEM.CONST>
0

>  <SCORE.SYSTEM.DIHEDRAL>
0

>  <SCORE.SYSTEM.SOLV>
0

>  <SCORE.SYSTEM.norm>
0

>  <SCORE.heavy>
40

>  <SCORE.norm>
-0.527237

>  <RMSD>
8.094

$$$$
1nta_lig
 OpenBabel11021811403D
libRbt.so/2013.1/901 2013/11/27
 40 42  0  0  0  0  0  0  0  0999 V2000
   -3.2470   39.7646    4.3053 C   0  0  0  0  0  0  0  0  0  0  0  0
   -2.7207   39.4502    5.4296 N   0  0  0  0  0  0  0  0  0  0  0  0
   -0.7103   37.5402   -5.1494 C   0  0  0  0  0  0  0  0  0  0  0  0
   -1.8737   37.5295   -4.8120 O   0  0  0  0  0  0  0  0  0  0  0  0
    0.4650   35.8957    1.2098 C   0  0  0  0  0  0  0  0  0  0  0  0
   -0.5983   35.1347    1.2094 N   0  0  0  0  0  0  0  0  0  0  0  0
    0.9183   40.3277   -4.3500 C   0  0  0  0  0  0  0  0  0  0  0  0
   -1.6866   33.5598   -2.8008 C   0  0  0  0  0  0  0  0  0  0  0  0
   -2.3276   39.3542    2.1636 C   0  0  2  0  0  0  0  0  0  0  0  0
   -2.4085   40.2358    3.3945 N   0  0  0  0  0  0  0  0  0  0  0  0
    0.4964   37.7119   -1.9271 C   0  0  2  0  0  0  0  0  0  0  0  0
    1.1698   34.9022   -2.2119 C   0  0  1  0  0  0  0  0  0  0  0  0
    1.4423   35.9226   -3.1074 O   0  0  0  0  0  0  0  0  0  0  0  0
   -0.9510   38.6662    2.0952 C   0  0  1  0  0  0  0  0  0  0  0  0
   -0.8494   37.8377    3.2138 O   0  0  0  0  0  0  0  0  0  0  0  0
    0.4744   36.8221   -3.1653 C   0  0  2  0  0  0  0  0  0  0  0  0
    0.6258   33.6305   -2.8247 C   0  0  1  0  0  0  0  0  0  0  0  0
   -0.5299   33.9516   -3.5886 N   0  0  0  0  0  0  0  0  0  0  0  0
   -0.8037   37.7769    0.8533 C   0  0  2  0  0  0  0  0  0  0  0  0
    0.5124   37.1018    0.7526 N   0  0  0  0  0  0  0  0  0  0  0  0
    0.4493   37.8267   -4.2335 C   0  0  1  0  0  0  0  0  0  0  0  0
    1.7036   37.7526   -4.9141 O   0  0  0  0  0  0  0  0  0  0  0  0
    1.5642   33.0351   -3.6560 C   0  0  2  0  0  0  0  0  0  0  0  0
    1.1128   31.7361   -3.9457 O   0  0  0  0  0  0  0  0  0  0  0  0
   -1.0133   38.6462   -0.3763 C   0  0  1  0  0  0  0  0  0  0  0  0
   -0.8796   37.8185   -1.5212 O   0  0  0  0  0  0  0  0  0  0  0  0
    0.3290   39.1575   -3.6251 C   0  0  1  0  0  0  0  0  0  0  0  0
    0.9014   38.9991   -2.3328 O   0  0  0  0  0  0  0  0  0  0  0  0
    2.9018   32.9606   -2.9677 C   0  0  1  0  0  0  0  0  0  0  0  0
    3.8718   32.5844   -3.9005 O   0  0  0  0  0  0  0  0  0  0  0  0
   -2.4202   39.3077   -0.3329 C   0  0  2  0  0  0  0  0  0  0  0  0
   -2.6019   40.1100   -1.4985 O   0  0  0  0  0  0  0  0  0  0  0  0
    3.2663   34.3015   -2.4279 C   0  0  1  0  0  0  0  0  0  0  0  0
    2.2919   34.6661   -1.4937 O   0  0  0  0  0  0  0  0  0  0  0  0
   -2.5239   40.1989    0.9226 C   0  0  1  0  0  0  0  0  0  0  0  0
   -3.8181   40.8206    0.9804 O   0  0  0  0  0  0  0  0  0  0  0  0
    4.6230   34.2617   -1.6971 C   0  0  0  0  0  0  0  0  0  0  0  0
    5.6623   34.0694   -2.6499 O   0  0  0  0  0  0  0  0  0  0  0  0
   -4.5087   39.6375    4.0724 N   0  0  0  0  0  0  0  0  0  0  0  0
    1.5542   35.4614    1.7114 N   0  0  0  0  0  0  0  0  0  0  0  0
  1  2  1  0  0  0  0
  1 39  1  0  0  0  0
  3  4  1  0  0  0  0
  5  6  1  0  0  0  0
  5 40  1  0  0  0  0
  9 10  1  1  0  0  0
  9 14  1  0  0  0  0
  9 35  1  0  0  0  0
 10  1  1  0  0  0  0
 11 16  1  0  0  0  0
 11 28  1  0  0  0  0
 11 26  1  6  0  0  0
 12 17  1  0  0  0  0
 12 34  1  0  0  0  0
 12 13  1  6  0  0  0
 14 15  1  1  0  0  0
 14 19  1  0  0  0  0
 16 13  1  6  0  0  0
 16 21  1  0  0  0  0
 17 18  1  6  0  0  0
 17 23  1  0  0  0  0
 18  8  1  0  0  0  0
 19 20  1  6  0  0  0
 19 25  1  0  0  0  0
 20  5  1  0  0  0  0
 21  3  1  6  0  0  0
 21 22  1  0  0  0  0
 21 27  1  0  0  0  0
 23 24  1  1  0  0  0
 23 29  1  0  0  0  0
 25 26  1  6  0  0  0
 25 31  1  0  0  0  0
 27  7  1  6  0  0  0
 27 28  1  0  0  0  0
 29 30  1  6  0  0  0
 29 33  1  0  0  0  0
 31 32  1  6  0  0  0
 31 35  1  0  0  0  0
 33 34  1  0  0  0  0
 33 37  1  1  0  0  0
 35 36  1  1  0  0  0
 37 38  1  0  0  0  0
M  END
>  <CHROM.1>
-110.60710026,117.31599045,-179.10364271,98.67540719,74.73041840,-102.69216320
96.90934756,28.61422429,60.74548191,-86.34870140,69.71595241,0.02169042,36.89499533
-1.13291123,-2.65331223,0.93670220,-1.32371374

>  <Name>
1nta_lig

>  <RI>
0

>  <Rbt.Current_Directory>
/home/itssahil/PROJECTS/Mol_Feturizer/New_Systems/rnas/1nta

>  <Rbt.Executable>
rbdock ($Id: //depot/dev/client3/rdock/2013.1/src/exe/rbdock.cxx#4 $)

>  <Rbt.Library>
libRbt.so (2013.1, Build901 2013/11/27)

>  <Rbt.Parameter_File>
/export/apps/rDock/src/rDock_2013.1_src/data/scripts/dock_solv.prm

>  <Rbt.Receptor>
prm/pocket_docking_6.prm

>  <SCORE>
-18.1991

>  <SCORE.INTER>
2.65902

>  <SCORE.INTER.CONST>
1

>  <SCORE.INTER.POLAR>
-0.517262

>  <SCORE.INTER.ROT>
11

>  <SCORE.INTER.SOLV>
9.96272

>  <SCORE.INTER.VDW>
-10.7573

>  <SCORE.INTER.norm>
0.0664756

>  <SCORE.INTRA>
-20.8582

>  <SCORE.INTRA.DIHEDRAL>
-5.57994

>  <SCORE.INTRA.DIHEDRAL.0>
19.0336

>  <SCORE.INTRA.POLAR>
0

>  <SCORE.INTRA.POLAR.0>
0

>  <SCORE.INTRA.REPUL>
0

>  <SCORE.INTRA.REPUL.0>
0

>  <SCORE.INTRA.SOLV>
-2.01545

>  <SCORE.INTRA.SOLV.lig_0>
-97.5861

>  <SCORE.INTRA.VDW>
-17.0605

>  <SCORE.INTRA.VDW.0>
11.7669

>  <SCORE.INTRA.norm>
-0.521454

>  <SCORE.RESTR>
0

>  <SCORE.RESTR.CAVITY>
0

>  <SCORE.RESTR.norm>
0

>  <SCORE.SYSTEM>
0

>  <SCORE.SYSTEM.CONST>
0

>  <SCORE.SYSTEM.DIHEDRAL>
0

>  <SCORE.SYSTEM.SOLV>
0

>  <SCORE.SYSTEM.norm>
0

>  <SCORE.heavy>
40

>  <SCORE.norm>
-0.454978

>  <RMSD>
8.095

$$$$
1nta_lig
 OpenBabel11021811403D
libRbt.so/2013.1/901 2013/11/27
 40 42  0  0  0  0  0  0  0  0999 V2000
   -5.2505   38.8850    0.0638 C   0  0  0  0  0  0  0  0  0  0  0  0
   -6.0454   38.0084    0.5536 N   0  0  0  0  0  0  0  0  0  0  0  0
    4.0289   37.9396   -0.5897 C   0  0  0  0  0  0  0  0  0  0  0  0
    3.5927   39.0638   -0.4742 O   0  0  0  0  0  0  0  0  0  0  0  0
    0.8586   40.7571   -0.4535 C   0  0  0  0  0  0  0  0  0  0  0  0
    1.4835   41.3833    0.5094 N   0  0  0  0  0  0  0  0  0  0  0  0
    5.0953   37.1274    2.4541 C   0  0  0  0  0  0  0  0  0  0  0  0
    4.9418   33.1486   -1.9313 C   0  0  0  0  0  0  0  0  0  0  0  0
   -2.9350   38.4444    0.2758 C   0  0  2  0  0  0  0  0  0  0  0  0
   -4.1920   38.4042   -0.5711 N   0  0  0  0  0  0  0  0  0  0  0  0
    1.7355   36.3660    1.4432 C   0  0  2  0  0  0  0  0  0  0  0  0
    2.6129   35.0521   -1.8007 C   0  0  1  0  0  0  0  0  0  0  0  0
    2.1769   35.1148   -0.4878 O   0  0  0  0  0  0  0  0  0  0  0  0
   -1.7480   38.9545   -0.5630 C   0  0  1  0  0  0  0  0  0  0  0  0
   -2.0440   40.2655   -0.9397 O   0  0  0  0  0  0  0  0  0  0  0  0
    2.3640   36.3061    0.0552 C   0  0  2  0  0  0  0  0  0  0  0  0
    2.7299   33.6589   -2.3786 C   0  0  1  0  0  0  0  0  0  0  0  0
    3.5697   32.8841   -1.5320 N   0  0  0  0  0  0  0  0  0  0  0  0
   -0.4403   38.9939    0.2389 C   0  0  2  0  0  0  0  0  0  0  0  0
    0.7256   39.4762   -0.5396 N   0  0  0  0  0  0  0  0  0  0  0  0
    3.7174   36.7956    0.3377 C   0  0  1  0  0  0  0  0  0  0  0  0
    4.6119   35.6962    0.1553 O   0  0  0  0  0  0  0  0  0  0  0  0
    1.4873   33.0467   -2.4630 C   0  0  2  0  0  0  0  0  0  0  0  0
    1.6301   31.9027   -3.2666 O   0  0  0  0  0  0  0  0  0  0  0  0
   -0.1552   37.5886    0.7446 C   0  0  1  0  0  0  0  0  0  0  0  0
    1.0527   37.6314    1.4881 O   0  0  0  0  0  0  0  0  0  0  0  0
    3.7812   37.2183    1.7422 C   0  0  1  0  0  0  0  0  0  0  0  0
    2.7822   36.4353    2.3839 O   0  0  0  0  0  0  0  0  0  0  0  0
    0.4849   33.9796   -3.0902 C   0  0  1  0  0  0  0  0  0  0  0  0
   -0.7942   33.4365   -2.9437 O   0  0  0  0  0  0  0  0  0  0  0  0
   -1.3320   37.0869    1.6289 C   0  0  2  0  0  0  0  0  0  0  0  0
   -1.0416   35.7726    2.1018 O   0  0  0  0  0  0  0  0  0  0  0  0
    0.5170   35.2968   -2.3927 C   0  0  1  0  0  0  0  0  0  0  0  0
    1.7992   35.8325   -2.5487 O   0  0  0  0  0  0  0  0  0  0  0  0
   -2.6232   37.0530    0.7846 C   0  0  1  0  0  0  0  0  0  0  0  0
   -3.7235   36.5905    1.5848 O   0  0  0  0  0  0  0  0  0  0  0  0
   -0.4833   36.2878   -3.0201 C   0  0  0  0  0  0  0  0  0  0  0  0
   -1.8091   35.8701   -2.7158 O   0  0  0  0  0  0  0  0  0  0  0  0
   -5.4597   40.1516    0.1826 N   0  0  0  0  0  0  0  0  0  0  0  0
    0.3035   41.4251   -1.3874 N   0  0  0  0  0  0  0  0  0  0  0  0
  1  2  1  0  0  0  0
  1 39  1  0  0  0  0
  3  4  1  0  0  0  0
  5  6  1  0  0  0  0
  5 40  1  0  0  0  0
  9 10  1  6  0  0  0
  9 14  1  0  0  0  0
  9 35  1  0  0  0  0
 10  1  1  0  0  0  0
 11 16  1  0  0  0  0
 11 28  1  0  0  0  0
 11 26  1  6  0  0  0
 12 17  1  0  0  0  0
 12 34  1  0  0  0  0
 12 13  1  1  0  0  0
 14 15  1  1  0  0  0
 14 19  1  0  0  0  0
 16 13  1  1  0  0  0
 16 21  1  0  0  0  0
 17 18  1  1  0  0  0
 17 23  1  0  0  0  0
 18  8  1  0  0  0  0
 19 20  1  6  0  0  0
 19 25  1  0  0  0  0
 20  5  1  0  0  0  0
 21  3  1  6  0  0  0
 21 22  1  0  0  0  0
 21 27  1  0  0  0  0
 23 24  1  6  0  0  0
 23 29  1  0  0  0  0
 25 26  1  1  0  0  0
 25 31  1  0  0  0  0
 27  7  1  1  0  0  0
 27 28  1  0  0  0  0
 29 30  1  1  0  0  0
 29 33  1  0  0  0  0
 31 32  1  6  0  0  0
 31 35  1  0  0  0  0
 33 34  1  0  0  0  0
 33 37  1  6  0  0  0
 35 36  1  1  0  0  0
 37 38  1  0  0  0  0
M  END
>  <CHROM.1>
-136.07863188,-100.59612629,75.82240102,166.37248126,173.97020660,-84.68170417
89.93421528,84.98154365,75.76984308,-151.62377374,70.13291211,0.47409736
36.84829800,-0.43725256,2.57380137,-0.14101009,0.50129643

>  <Name>
1nta_lig

>  <RI>
0

>  <Rbt.Current_Directory>
/home/itssahil/PROJECTS/Mol_Feturizer/New_Systems/rnas/1nta

>  <Rbt.Executable>
rbdock ($Id: //depot/dev/client3/rdock/2013.1/src/exe/rbdock.cxx#4 $)

>  <Rbt.Library>
libRbt.so (2013.1, Build901 2013/11/27)

>  <Rbt.Parameter_File>
/export/apps/rDock/src/rDock_2013.1_src/data/scripts/dock_solv.prm

>  <Rbt.Receptor>
prm/pocket_docking_3.prm

>  <SCORE>
-19.0008

>  <SCORE.INTER>
4.19391

>  <SCORE.INTER.CONST>
1

>  <SCORE.INTER.POLAR>
-0.308403

>  <SCORE.INTER.ROT>
11

>  <SCORE.INTER.SOLV>
8.41188

>  <SCORE.INTER.VDW>
-9.91334

>  <SCORE.INTER.norm>
0.104848

>  <SCORE.INTRA>
-23.2253

>  <SCORE.INTRA.DIHEDRAL>
-9.0155

>  <SCORE.INTRA.DIHEDRAL.0>
19.0336

>  <SCORE.INTRA.POLAR>
0

>  <SCORE.INTRA.POLAR.0>
0

>  <SCORE.INTRA.REPUL>
0

>  <SCORE.INTRA.REPUL.0>
0

>  <SCORE.INTRA.SOLV>
-1.91256

>  <SCORE.INTRA.SOLV.lig_0>
-97.5861

>  <SCORE.INTRA.VDW>
-17.7613

>  <SCORE.INTRA.VDW.0>
11.7669

>  <SCORE.INTRA.norm>
-0.580633

>  <SCORE.RESTR>
0.0306013

>  <SCORE.RESTR.CAVITY>
0.0306013

>  <SCORE.RESTR.norm>
0.000765033

>  <SCORE.SYSTEM>
0

>  <SCORE.SYSTEM.CONST>
0

>  <SCORE.SYSTEM.DIHEDRAL>
0

>  <SCORE.SYSTEM.SOLV>
0

>  <SCORE.SYSTEM.norm>
0

>  <SCORE.heavy>
40

>  <SCORE.norm>
-0.47502

>  <RMSD>
8.100

$$$$
1nta_lig
 OpenBabel11021811403D
libRbt.so/2013.1/901 2013/11/27
 40 42  0  0  0  0  0  0  0  0999 V2000
   -0.3055   31.2490   -6.3350 C   0  0  0  0  0  0  0  0  0  0  0  0
   -1.2494   31.3438   -7.1953 N   0  0  0  0  0  0  0  0  0  0  0  0
   -1.2648   39.9382   -4.4687 C   0  0  0  0  0  0  0  0  0  0  0  0
   -1.7634   40.9174   -3.9587 O   0  0  0  0  0  0  0  0  0  0  0  0
   -3.4507   36.0567   -4.4514 C   0  0  0  0  0  0  0  0  0  0  0  0
   -4.5301   35.3757   -4.7357 N   0  0  0  0  0  0  0  0  0  0  0  0
    1.0081   40.3465   -2.0752 C   0  0  0  0  0  0  0  0  0  0  0  0
    2.3005   41.5523   -8.0257 C   0  0  0  0  0  0  0  0  0  0  0  0
   -0.6414   32.4652   -4.3329 C   0  0  2  0  0  0  0  0  0  0  0  0
   -0.6925   31.1427   -5.0726 N   0  0  0  0  0  0  0  0  0  0  0  0
    1.0702   37.4242   -4.1601 C   0  0  2  0  0  0  0  0  0  0  0  0
    0.5583   39.1545   -7.2830 C   0  0  1  0  0  0  0  0  0  0  0  0
    1.1744   38.4432   -6.2672 O   0  0  0  0  0  0  0  0  0  0  0  0
   -1.5142   33.5092   -5.0548 C   0  0  1  0  0  0  0  0  0  0  0  0
   -2.8311   33.0495   -5.0050 O   0  0  0  0  0  0  0  0  0  0  0  0
    0.4300   38.3629   -5.1769 C   0  0  2  0  0  0  0  0  0  0  0  0
    1.4296   39.4580   -8.4820 C   0  0  1  0  0  0  0  0  0  0  0  0
    2.6004   40.1303   -8.0353 N   0  0  0  0  0  0  0  0  0  0  0  0
   -1.4816   34.8777   -4.3614 C   0  0  2  0  0  0  0  0  0  0  0  0
   -2.3079   35.9095   -5.0328 N   0  0  0  0  0  0  0  0  0  0  0  0
    0.1843   39.5487   -4.3496 C   0  0  1  0  0  0  0  0  0  0  0  0
    1.0584   40.5787   -4.8156 O   0  0  0  0  0  0  0  0  0  0  0  0
    1.8016   38.2925   -9.1373 C   0  0  2  0  0  0  0  0  0  0  0  0
    2.3445   38.6582  -10.3809 O   0  0  0  0  0  0  0  0  0  0  0  0
   -0.0365   35.3485   -4.3157 C   0  0  1  0  0  0  0  0  0  0  0  0
   -0.0117   36.6122   -3.6706 O   0  0  0  0  0  0  0  0  0  0  0  0
    0.5368   39.2339   -2.9596 C   0  0  1  0  0  0  0  0  0  0  0  0
    1.5139   38.2069   -3.0756 O   0  0  0  0  0  0  0  0  0  0  0  0
    0.6026   37.4069   -9.3531 C   0  0  1  0  0  0  0  0  0  0  0  0
    1.0373   36.1530   -9.7902 O   0  0  0  0  0  0  0  0  0  0  0  0
    0.8401   34.3181   -3.5485 C   0  0  2  0  0  0  0  0  0  0  0  0
    2.1886   34.7820   -3.5074 O   0  0  0  0  0  0  0  0  0  0  0  0
   -0.1290   37.2267   -8.0667 C   0  0  1  0  0  0  0  0  0  0  0  0
   -0.5623   38.4861   -7.6408 O   0  0  0  0  0  0  0  0  0  0  0  0
    0.7880   32.9614   -4.2817 C   0  0  1  0  0  0  0  0  0  0  0  0
    1.5937   31.9947   -3.5879 O   0  0  0  0  0  0  0  0  0  0  0  0
   -1.3768   36.3406   -8.2509 C   0  0  0  0  0  0  0  0  0  0  0  0
   -2.2637   36.9667   -9.1709 O   0  0  0  0  0  0  0  0  0  0  0  0
    0.9395   31.2609   -6.6698 N   0  0  0  0  0  0  0  0  0  0  0  0
   -3.4911   36.9613   -3.5533 N   0  0  0  0  0  0  0  0  0  0  0  0
  1  2  1  0  0  0  0
  1 39  1  0  0  0  0
  3  4  1  0  0  0  0
  5  6  1  0  0  0  0
  5 40  1  0  0  0  0
  9 10  1  6  0  0  0
  9 14  1  0  0  0  0
  9 35  1  0  0  0  0
 10  1  1  0  0  0  0
 11 16  1  0  0  0  0
 11 28  1  0  0  0  0
 11 26  1  1  0  0  0
 12 17  1  0  0  0  0
 12 34  1  0  0  0  0
 12 13  1  1  0  0  0
 14 15  1  1  0  0  0
 14 19  1  0  0  0  0
 16 13  1  6  0  0  0
 16 21  1  0  0  0  0
 17 18  1  1  0  0  0
 17 23  1  0  0  0  0
 18  8  1  0  0  0  0
 19 20  1  6  0  0  0
 19 25  1  0  0  0  0
 20  5  1  0  0  0  0
 21  3  1  6  0  0  0
 21 22  1  0  0  0  0
 21 27  1  0  0  0  0
 23 24  1  6  0  0  0
 23 29  1  0  0  0  0
 25 26  1  1  0  0  0
 25 31  1  0  0  0  0
 27  7  1  6  0  0  0
 27 28  1  0  0  0  0
 29 30  1  1  0  0  0
 29 33  1  0  0  0  0
 31 32  1  6  0  0  0
 31 35  1  0  0  0  0
 33 34  1  0  0  0  0
 33 37  1  6  0  0  0
 35 36  1  1  0  0  0
 37 38  1  0  0  0  0
M  END
>  <CHROM.1>
57.33831977,-98.43146654,99.22186729,171.44114166,172.68015813,-88.59593843
99.30131108,-88.84074793,-176.01734159,-149.99876416,-61.13277463,-0.07958788
36.59145450,-5.75123277,-2.41288467,1.25842523,0.58781778

>  <Name>
1nta_lig

>  <RI>
0

>  <Rbt.Current_Directory>
/home/itssahil/PROJECTS/Mol_Feturizer/New_Systems/rnas/1nta

>  <Rbt.Executable>
rbdock ($Id: //depot/dev/client3/rdock/2013.1/src/exe/rbdock.cxx#4 $)

>  <Rbt.Library>
libRbt.so (2013.1, Build901 2013/11/27)

>  <Rbt.Parameter_File>
/export/apps/rDock/src/rDock_2013.1_src/data/scripts/dock_solv.prm

>  <Rbt.Receptor>
prm/pocket_docking_8.prm

>  <SCORE>
-24.4822

>  <SCORE.INTER>
-3.99298

>  <SCORE.INTER.CONST>
1

>  <SCORE.INTER.POLAR>
-0.810848

>  <SCORE.INTER.ROT>
11

>  <SCORE.INTER.SOLV>
11.1684

>  <SCORE.INTER.VDW>
-14.6153

>  <SCORE.INTER.norm>
-0.0998245

>  <SCORE.INTRA>
-20.5

>  <SCORE.INTRA.DIHEDRAL>
-6.86057

>  <SCORE.INTRA.DIHEDRAL.0>
19.0336

>  <SCORE.INTRA.POLAR>
0

>  <SCORE.INTRA.POLAR.0>
0

>  <SCORE.INTRA.REPUL>
0

>  <SCORE.INTRA.REPUL.0>
0

>  <SCORE.INTRA.SOLV>
-1.68638

>  <SCORE.INTRA.SOLV.lig_0>
-97.5861

>  <SCORE.INTRA.VDW>
-16.2265

>  <SCORE.INTRA.VDW.0>
11.7669

>  <SCORE.INTRA.norm>
-0.5125

>  <SCORE.RESTR>
0.0108118

>  <SCORE.RESTR.CAVITY>
0.0108118

>  <SCORE.RESTR.norm>
0.000270296

>  <SCORE.SYSTEM>
0

>  <SCORE.SYSTEM.CONST>
0

>  <SCORE.SYSTEM.DIHEDRAL>
0

>  <SCORE.SYSTEM.SOLV>
0

>  <SCORE.SYSTEM.norm>
0

>  <SCORE.heavy>
40

>  <SCORE.norm>
-0.612054

>  <RMSD>
8.120

$$$$
1nta_lig
 OpenBabel11021811403D
libRbt.so/2013.1/901 2013/11/27
 40 42  0  0  0  0  0  0  0  0999 V2000
    4.6848   42.0238   -0.5043 C   0  0  0  0  0  0  0  0  0  0  0  0
    5.9079   42.4032   -0.5083 N   0  0  0  0  0  0  0  0  0  0  0  0
    4.1637   32.4366    0.2142 C   0  0  0  0  0  0  0  0  0  0  0  0
    5.1968   32.1404    0.7731 O   0  0  0  0  0  0  0  0  0  0  0  0
    6.9705   36.2085    0.8679 C   0  0  0  0  0  0  0  0  0  0  0  0
    6.0195   35.5957    1.5235 N   0  0  0  0  0  0  0  0  0  0  0  0
    1.6035   33.4408   -1.6562 C   0  0  0  0  0  0  0  0  0  0  0  0
    6.0764   31.3389   -5.5976 C   0  0  0  0  0  0  0  0  0  0  0  0
    4.1655   40.1424    0.8340 C   0  0  2  0  0  0  0  0  0  0  0  0
    4.2072   41.6495    0.6732 N   0  0  0  0  0  0  0  0  0  0  0  0
    4.6033   35.4054   -1.4773 C   0  0  2  0  0  0  0  0  0  0  0  0
    6.4647   32.4460   -2.2413 C   0  0  1  0  0  0  0  0  0  0  0  0
    6.1711   33.7955   -2.1403 O   0  0  0  0  0  0  0  0  0  0  0  0
    5.5507   39.5397    0.5324 C   0  0  1  0  0  0  0  0  0  0  0  0
    6.4345   40.0409    1.4893 O   0  0  0  0  0  0  0  0  0  0  0  0
    5.2544   34.0504   -1.2217 C   0  0  2  0  0  0  0  0  0  0  0  0
    7.0025   31.9987   -3.5827 C   0  0  1  0  0  0  0  0  0  0  0  0
    6.0841   32.3910   -4.5950 N   0  0  0  0  0  0  0  0  0  0  0  0
    5.5618   38.0103    0.6571 C   0  0  2  0  0  0  0  0  0  0  0  0
    6.8796   37.3952    0.3687 N   0  0  0  0  0  0  0  0  0  0  0  0
    4.0733   33.1919   -1.0846 C   0  0  1  0  0  0  0  0  0  0  0  0
    4.0516   32.3179   -2.2150 O   0  0  0  0  0  0  0  0  0  0  0  0
    8.2363   32.5776   -3.8448 C   0  0  2  0  0  0  0  0  0  0  0  0
    8.7999   31.9012   -4.9402 O   0  0  0  0  0  0  0  0  0  0  0  0
    4.5288   37.4513   -0.3085 C   0  0  1  0  0  0  0  0  0  0  0  0
    4.5407   36.0375   -0.1866 O   0  0  0  0  0  0  0  0  0  0  0  0
    2.8717   34.0346   -1.1260 C   0  0  1  0  0  0  0  0  0  0  0  0
    3.2735   35.1715   -1.8803 O   0  0  0  0  0  0  0  0  0  0  0  0
    9.1432   32.4425   -2.6499 C   0  0  1  0  0  0  0  0  0  0  0  0
   10.2770   33.2345   -2.8487 O   0  0  0  0  0  0  0  0  0  0  0  0
    3.1207   38.0233    0.0210 C   0  0  2  0  0  0  0  0  0  0  0  0
    2.1647   37.4798   -0.8879 O   0  0  0  0  0  0  0  0  0  0  0  0
    8.4416   32.9276   -1.4272 C   0  0  1  0  0  0  0  0  0  0  0  0
    7.3117   32.1264   -1.2358 O   0  0  0  0  0  0  0  0  0  0  0  0
    3.1495   39.5592   -0.1250 C   0  0  1  0  0  0  0  0  0  0  0  0
    1.8555   40.1074    0.1748 O   0  0  0  0  0  0  0  0  0  0  0  0
    9.3321   32.7866   -0.1768 C   0  0  0  0  0  0  0  0  0  0  0  0
   10.1091   33.9684   -0.0200 O   0  0  0  0  0  0  0  0  0  0  0  0
    3.9640   42.0012   -1.5730 N   0  0  0  0  0  0  0  0  0  0  0  0
    8.0984   35.6357    0.7060 N   0  0  0  0  0  0  0  0  0  0  0  0
  1  2  1  0  0  0  0
  1 39  1  0  0  0  0
  3  4  1  0  0  0  0
  5  6  1  0  0  0  0
  5 40  1  0  0  0  0
  9 10  1  6  0  0  0
  9 14  1  0  0  0  0
  9 35  1  0  0  0  0
 10  1  1  0  0  0  0
 11 16  1  0  0  0  0
 11 28  1  0  0  0  0
 11 26  1  1  0  0  0
 12 17  1  0  0  0  0
 12 34  1  0  0  0  0
 12 13  1  6  0  0  0
 14 15  1  1  0  0  0
 14 19  1  0  0  0  0
 16 13  1  6  0  0  0
 16 21  1  0  0  0  0
 17 18  1  6  0  0  0
 17 23  1  0  0  0  0
 18  8  1  0  0  0  0
 19 20  1  6  0  0  0
 19 25  1  0  0  0  0
 20  5  1  0  0  0  0
 21  3  1  1  0  0  0
 21 22  1  0  0  0  0
 21 27  1  0  0  0  0
 23 24  1  6  0  0  0
 23 29  1  0  0  0  0
 25 26  1  1  0  0  0
 25 31  1  0  0  0  0
 27  7  1  6  0  0  0
 27 28  1  0  0  0  0
 29 30  1  6  0  0  0
 29 33  1  0  0  0  0
 31 32  1  6  0  0  0
 31 35  1  0  0  0  0
 33 34  1  0  0  0  0
 33 37  1  1  0  0  0
 35 36  1  1  0  0  0
 37 38  1  0  0  0  0
M  END
>  <CHROM.1>
53.14268228,-100.73762923,154.03574712,154.75295114,-159.43946818,-143.68593350
160.06734624,1.44892362,-27.61157907,-131.76089640,88.96607686,5.66708116
35.58812665,-1.04660877,-1.92870672,0.06889246,-2.77772048

>  <Name>
1nta_lig

>  <RI>
1.05895e+07

>  <Rbt.Current_Directory>
/home/itssahil/PROJECTS/Mol_Feturizer/New_Systems/rnas/1nta

>  <Rbt.Executable>
rbdock ($Id: //depot/dev/client3/rdock/2013.1/src/exe/rbdock.cxx#4 $)

>  <Rbt.Library>
libRbt.so (2013.1, Build901 2013/11/27)

>  <Rbt.Parameter_File>
/export/apps/rDock/src/rDock_2013.1_src/data/scripts/dock_solv.prm

>  <Rbt.Receptor>
prm/blind_docking_100.prm

>  <SCORE>
7.89599

>  <SCORE.INTER>
11.805

>  <SCORE.INTER.CONST>
1

>  <SCORE.INTER.POLAR>
-0.755092

>  <SCORE.INTER.ROT>
11

>  <SCORE.INTER.SOLV>
30.2139

>  <SCORE.INTER.VDW>
-10.6176

>  <SCORE.INTER.norm>
0.295125

>  <SCORE.INTRA>
-4.17019

>  <SCORE.INTRA.DIHEDRAL>
2.32889

>  <SCORE.INTRA.DIHEDRAL.0>
19.0336

>  <SCORE.INTRA.POLAR>
0

>  <SCORE.INTRA.POLAR.0>
0

>  <SCORE.INTRA.REPUL>
0

>  <SCORE.INTRA.REPUL.0>
0

>  <SCORE.INTRA.SOLV>
5.24579

>  <SCORE.INTRA.SOLV.lig_0>
-97.5861

>  <SCORE.INTRA.VDW>
-7.95753

>  <SCORE.INTRA.VDW.0>
11.7669

>  <SCORE.INTRA.norm>
-0.104255

>  <SCORE.RESTR>
0.261178

>  <SCORE.RESTR.CAVITY>
0.261178

>  <SCORE.RESTR.norm>
0.00652944

>  <SCORE.SYSTEM>
0

>  <SCORE.SYSTEM.CONST>
0

>  <SCORE.SYSTEM.DIHEDRAL>
0

>  <SCORE.SYSTEM.SOLV>
0

>  <SCORE.SYSTEM.norm>
0

>  <SCORE.heavy>
40

>  <SCORE.norm>
0.1974

>  <RMSD>
8.126

$$$$
1nta_lig
 OpenBabel11021811403D
libRbt.so/2013.1/901 2013/11/27
 40 42  0  0  0  0  0  0  0  0999 V2000
   -4.7608   31.7054    0.6639 C   0  0  0  0  0  0  0  0  0  0  0  0
   -4.6767   30.9832   -0.3903 N   0  0  0  0  0  0  0  0  0  0  0  0
    1.4632   39.3577   -0.2021 C   0  0  0  0  0  0  0  0  0  0  0  0
    0.6053   39.0924   -1.0151 O   0  0  0  0  0  0  0  0  0  0  0  0
    0.4829   33.7976   -2.1791 C   0  0  0  0  0  0  0  0  0  0  0  0
    0.5964   34.9306   -2.8219 N   0  0  0  0  0  0  0  0  0  0  0  0
    0.1883   39.4819    2.8672 C   0  0  0  0  0  0  0  0  0  0  0  0
    5.7131   39.7869    0.2264 C   0  0  0  0  0  0  0  0  0  0  0  0
   -2.8939   33.1461    0.8626 C   0  0  2  0  0  0  0  0  0  0  0  0
   -3.6242   31.8972    1.3165 N   0  0  0  0  0  0  0  0  0  0  0  0
    1.2544   36.3519    1.4681 C   0  0  2  0  0  0  0  0  0  0  0  0
    4.3096   37.1111   -0.1433 C   0  0  1  0  0  0  0  0  0  0  0  0
    3.4718   36.8905    0.9369 O   0  0  0  0  0  0  0  0  0  0  0  0
   -1.5559   32.7654    0.2009 C   0  0  1  0  0  0  0  0  0  0  0  0
   -1.8585   32.0173   -0.9379 O   0  0  0  0  0  0  0  0  0  0  0  0
    2.2202   37.2401    0.6912 C   0  0  2  0  0  0  0  0  0  0  0  0
    5.7361   37.4736    0.2067 C   0  0  1  0  0  0  0  0  0  0  0  0
    5.7199   38.6035    1.0699 N   0  0  0  0  0  0  0  0  0  0  0  0
   -0.7609   33.9950   -0.2583 C   0  0  2  0  0  0  0  0  0  0  0  0
    0.5363   33.6656   -0.8964 N   0  0  0  0  0  0  0  0  0  0  0  0
    1.7306   38.5738    1.0547 C   0  0  1  0  0  0  0  0  0  0  0  0
    2.7338   39.1862    1.8676 O   0  0  0  0  0  0  0  0  0  0  0  0
    6.3749   36.4234    0.8510 C   0  0  2  0  0  0  0  0  0  0  0  0
    7.7500   36.7126    0.8759 O   0  0  0  0  0  0  0  0  0  0  0  0
   -0.5098   34.8743    0.9564 C   0  0  1  0  0  0  0  0  0  0  0  0
    0.2223   36.0111    0.5257 O   0  0  0  0  0  0  0  0  0  0  0  0
    0.5100   38.4245    1.8570 C   0  0  1  0  0  0  0  0  0  0  0  0
    0.6500   37.1456    2.4633 O   0  0  0  0  0  0  0  0  0  0  0  0
    6.1458   35.1344    0.1065 C   0  0  1  0  0  0  0  0  0  0  0  0
    6.5889   34.0696    0.8953 O   0  0  0  0  0  0  0  0  0  0  0  0
   -1.8602   35.2975    1.6014 C   0  0  2  0  0  0  0  0  0  0  0  0
   -1.6043   36.1295    2.7318 O   0  0  0  0  0  0  0  0  0  0  0  0
    4.6885   34.9525   -0.1498 C   0  0  1  0  0  0  0  0  0  0  0  0
    4.2568   36.0206   -0.9424 O   0  0  0  0  0  0  0  0  0  0  0  0
   -2.6228   34.0358    2.0571 C   0  0  1  0  0  0  0  0  0  0  0  0
   -3.8747   34.4064    2.6575 O   0  0  0  0  0  0  0  0  0  0  0  0
    4.4145   33.6512   -0.9293 C   0  0  0  0  0  0  0  0  0  0  0  0
    5.0946   33.7019   -2.1783 O   0  0  0  0  0  0  0  0  0  0  0  0
   -5.8757   32.2100    1.0697 N   0  0  0  0  0  0  0  0  0  0  0  0
    0.2800   32.7189   -2.8285 N   0  0  0  0  0  0  0  0  0  0  0  0
  1  2  1  0  0  0  0
  1 39  1  0  0  0  0
  3  4  1  0  0  0  0
  5  6  1  0  0  0  0
  5 40  1  0  0  0  0
  9 10  1  1  0  0  0
  9 14  1  0  0  0  0
  9 35  1  0  0  0  0
 10  1  1  0  0  0  0
 11 16  1  0  0  0  0
 11 28  1  0  0  0  0
 11 26  1  6  0  0  0
 12 17  1  0  0  0  0
 12 34  1  0  0  0  0
 12 13  1  1  0  0  0
 14 15  1  6  0  0  0
 14 19  1  0  0  0  0
 16 13  1  1  0  0  0
 16 21  1  0  0  0  0
 17 18  1  1  0  0  0
 17 23  1  0  0  0  0
 18  8  1  0  0  0  0
 19 20  1  1  0  0  0
 19 25  1  0  0  0  0
 20  5  1  0  0  0  0
 21  3  1  6  0  0  0
 21 22  1  0  0  0  0
 21 27  1  0  0  0  0
 23 24  1  6  0  0  0
 23 29  1  0  0  0  0
 25 26  1  6  0  0  0
 25 31  1  0  0  0  0
 27  7  1  1  0  0  0
 27 28  1  0  0  0  0
 29 30  1  1  0  0  0
 29 33  1  0  0  0  0
 31 32  1  1  0  0  0
 31 35  1  0  0  0  0
 33 34  1  0  0  0  0
 33 37  1  6  0  0  0
 35 36  1  6  0  0  0
 37 38  1  0  0  0  0
M  END
>  <CHROM.1>
-114.95208672,91.41296690,161.57091106,147.97265638,148.68977224,-87.60214999
104.22009586,81.19799744,65.98124815,-138.83767307,-59.97416842,1.22437296
35.53159385,0.41355426,-2.74936985,0.24317313,0.45773667

>  <Name>
1nta_lig

>  <RI>
0

>  <Rbt.Current_Directory>
/home/itssahil/PROJECTS/Mol_Feturizer/New_Systems/rnas/1nta

>  <Rbt.Executable>
rbdock ($Id: //depot/dev/client3/rdock/2013.1/src/exe/rbdock.cxx#4 $)

>  <Rbt.Library>
libRbt.so (2013.1, Build901 2013/11/27)

>  <Rbt.Parameter_File>
/export/apps/rDock/src/rDock_2013.1_src/data/scripts/dock_solv.prm

>  <Rbt.Receptor>
prm/pocket_docking_6.prm

>  <SCORE>
-19.8784

>  <SCORE.INTER>
0.184769

>  <SCORE.INTER.CONST>
1

>  <SCORE.INTER.POLAR>
-0.352683

>  <SCORE.INTER.ROT>
11

>  <SCORE.INTER.SOLV>
11.6126

>  <SCORE.INTER.VDW>
-13.5054

>  <SCORE.INTER.norm>
0.00461922

>  <SCORE.INTRA>
-20.0631

>  <SCORE.INTRA.DIHEDRAL>
0.0848132

>  <SCORE.INTRA.DIHEDRAL.0>
19.0336

>  <SCORE.INTRA.POLAR>
0

>  <SCORE.INTRA.POLAR.0>
0

>  <SCORE.INTRA.REPUL>
0

>  <SCORE.INTRA.REPUL.0>
0

>  <SCORE.INTRA.SOLV>
-3.94397

>  <SCORE.INTRA.SOLV.lig_0>
-97.5861

>  <SCORE.INTRA.VDW>
-18.1336

>  <SCORE.INTRA.VDW.0>
11.7669

>  <SCORE.INTRA.norm>
-0.501578

>  <SCORE.RESTR>
0

>  <SCORE.RESTR.CAVITY>
0

>  <SCORE.RESTR.norm>
0

>  <SCORE.SYSTEM>
0

>  <SCORE.SYSTEM.CONST>
0

>  <SCORE.SYSTEM.DIHEDRAL>
0

>  <SCORE.SYSTEM.SOLV>
0

>  <SCORE.SYSTEM.norm>
0

>  <SCORE.heavy>
40

>  <SCORE.norm>
-0.496959

>  <RMSD>
8.131

$$$$
1nta_lig
 OpenBabel11021811403D
libRbt.so/2013.1/901 2013/11/27
 40 42  0  0  0  0  0  0  0  0999 V2000
   -2.8723   35.7533   -8.0718 C   0  0  0  0  0  0  0  0  0  0  0  0
   -2.4901   36.4969   -9.0419 N   0  0  0  0  0  0  0  0  0  0  0  0
    1.4503   35.5302    0.9634 C   0  0  0  0  0  0  0  0  0  0  0  0
    1.0185   35.7181    2.0794 O   0  0  0  0  0  0  0  0  0  0  0  0
    1.0734   37.9517   -3.8553 C   0  0  0  0  0  0  0  0  0  0  0  0
    0.9433   38.9801   -4.6524 N   0  0  0  0  0  0  0  0  0  0  0  0
   -0.4457   32.8019    1.1145 C   0  0  0  0  0  0  0  0  0  0  0  0
    4.6780   36.3344    1.8003 C   0  0  0  0  0  0  0  0  0  0  0  0
   -1.6833   35.0726   -6.1422 C   0  0  2  0  0  0  0  0  0  0  0  0
   -1.9697   34.8952   -7.6205 N   0  0  0  0  0  0  0  0  0  0  0  0
    1.1800   33.7167   -1.9532 C   0  0  2  0  0  0  0  0  0  0  0  0
    4.4021   34.7796   -1.2025 C   0  0  1  0  0  0  0  0  0  0  0  0
    3.3987   33.8253   -1.2084 O   0  0  0  0  0  0  0  0  0  0  0  0
   -0.3552   35.8282   -5.9475 C   0  0  1  0  0  0  0  0  0  0  0  0
   -0.5205   37.0993   -6.4998 O   0  0  0  0  0  0  0  0  0  0  0  0
    2.1992   34.3456   -1.0093 C   0  0  2  0  0  0  0  0  0  0  0  0
    5.1970   34.8757    0.0811 C   0  0  1  0  0  0  0  0  0  0  0  0
    4.2952   35.0871    1.1602 N   0  0  0  0  0  0  0  0  0  0  0  0
   -0.0020   36.0163   -4.4661 C   0  0  2  0  0  0  0  0  0  0  0  0
    1.2742   36.7366   -4.2412 N   0  0  0  0  0  0  0  0  0  0  0  0
    1.5208   34.1901    0.2816 C   0  0  1  0  0  0  0  0  0  0  0  0
    2.2690   33.2386    1.0412 O   0  0  0  0  0  0  0  0  0  0  0  0
    5.9131   33.7099    0.3141 C   0  0  2  0  0  0  0  0  0  0  0  0
    6.8387   33.9762    1.3376 O   0  0  0  0  0  0  0  0  0  0  0  0
    0.0821   34.6409   -3.8234 C   0  0  1  0  0  0  0  0  0  0  0  0
    0.4053   34.8208   -2.4534 O   0  0  0  0  0  0  0  0  0  0  0  0
    0.1788   33.6435    0.0451 C   0  0  1  0  0  0  0  0  0  0  0  0
    0.3084   32.9273   -1.1768 O   0  0  0  0  0  0  0  0  0  0  0  0
    6.6481   33.2885   -0.9311 C   0  0  1  0  0  0  0  0  0  0  0  0
    7.1579   32.0011   -0.7435 O   0  0  0  0  0  0  0  0  0  0  0  0
   -1.2720   33.8918   -3.9789 C   0  0  2  0  0  0  0  0  0  0  0  0
   -1.1767   32.6093   -3.3613 O   0  0  0  0  0  0  0  0  0  0  0  0
    5.7057   33.2552   -2.0857 C   0  0  1  0  0  0  0  0  0  0  0  0
    5.2048   34.5482   -2.2668 O   0  0  0  0  0  0  0  0  0  0  0  0
   -1.5852   33.7149   -5.4795 C   0  0  1  0  0  0  0  0  0  0  0  0
   -2.8338   33.0230   -5.6443 O   0  0  0  0  0  0  0  0  0  0  0  0
    6.4262   32.8467   -3.3858 C   0  0  0  0  0  0  0  0  0  0  0  0
    6.0173   31.5347   -3.7550 O   0  0  0  0  0  0  0  0  0  0  0  0
   -4.0568   35.8277   -7.5682 N   0  0  0  0  0  0  0  0  0  0  0  0
    1.0281   38.1203   -2.5920 N   0  0  0  0  0  0  0  0  0  0  0  0
  1  2  1  0  0  0  0
  1 39  1  0  0  0  0
  3  4  1  0  0  0  0
  5  6  1  0  0  0  0
  5 40  1  0  0  0  0
  9 10  1  6  0  0  0
  9 14  1  0  0  0  0
  9 35  1  0  0  0  0
 10  1  1  0  0  0  0
 11 16  1  0  0  0  0
 11 28  1  0  0  0  0
 11 26  1  1  0  0  0
 12 17  1  0  0  0  0
 12 34  1  0  0  0  0
 12 13  1  1  0  0  0
 14 15  1  1  0  0  0
 14 19  1  0  0  0  0
 16 13  1  1  0  0  0
 16 21  1  0  0  0  0
 17 18  1  1  0  0  0
 17 23  1  0  0  0  0
 18  8  1  0  0  0  0
 19 20  1  6  0  0  0
 19 25  1  0  0  0  0
 20  5  1  0  0  0  0
 21  3  1  1  0  0  0
 21 22  1  0  0  0  0
 21 27  1  0  0  0  0
 23 24  1  1  0  0  0
 23 29  1  0  0  0  0
 25 26  1  1  0  0  0
 25 31  1  0  0  0  0
 27  7  1  1  0  0  0
 27 28  1  0  0  0  0
 29 30  1  1  0  0  0
 29 33  1  0  0  0  0
 31 32  1  1  0  0  0
 31 35  1  0  0  0  0
 33 34  1  0  0  0  0
 33 37  1  6  0  0  0
 35 36  1  1  0  0  0
 37 38  1  0  0  0  0
M  END
>  <CHROM.1>
-102.02286857,122.57156376,141.88455299,100.97747529,137.39440386,-121.44673882
104.94183535,-89.42426725,-175.45086241,-148.94099473,108.80513417,1.67305551
34.65514922,-2.57651609,-2.38898867,-0.17815659,1.63759404

>  <Name>
1nta_lig

>  <RI>
0

>  <Rbt.Current_Directory>
/home/itssahil/PROJECTS/Mol_Feturizer/New_Systems/rnas/1nta

>  <Rbt.Executable>
rbdock ($Id: //depot/dev/client3/rdock/2013.1/src/exe/rbdock.cxx#4 $)

>  <Rbt.Library>
libRbt.so (2013.1, Build901 2013/11/27)

>  <Rbt.Parameter_File>
/export/apps/rDock/src/rDock_2013.1_src/data/scripts/dock_solv.prm

>  <Rbt.Receptor>
prm/pocket_docking_8.prm

>  <SCORE>
-24.6704

>  <SCORE.INTER>
-9.73615

>  <SCORE.INTER.CONST>
1

>  <SCORE.INTER.POLAR>
-1.47428

>  <SCORE.INTER.ROT>
11

>  <SCORE.INTER.SOLV>
15.1528

>  <SCORE.INTER.VDW>
-17.5608

>  <SCORE.INTER.norm>
-0.243404

>  <SCORE.INTRA>
-14.9343

>  <SCORE.INTRA.DIHEDRAL>
10.1813

>  <SCORE.INTRA.DIHEDRAL.0>
19.0336

>  <SCORE.INTRA.POLAR>
0

>  <SCORE.INTRA.POLAR.0>
0

>  <SCORE.INTRA.REPUL>
0

>  <SCORE.INTRA.REPUL.0>
0

>  <SCORE.INTRA.SOLV>
-3.41173

>  <SCORE.INTRA.SOLV.lig_0>
-97.5861

>  <SCORE.INTRA.VDW>
-18.319

>  <SCORE.INTRA.VDW.0>
11.7669

>  <SCORE.INTRA.norm>
-0.373357

>  <SCORE.RESTR>
0

>  <SCORE.RESTR.CAVITY>
0

>  <SCORE.RESTR.norm>
0

>  <SCORE.SYSTEM>
0

>  <SCORE.SYSTEM.CONST>
0

>  <SCORE.SYSTEM.DIHEDRAL>
0

>  <SCORE.SYSTEM.SOLV>
0

>  <SCORE.SYSTEM.norm>
0

>  <SCORE.heavy>
40

>  <SCORE.norm>
-0.61676

>  <RMSD>
8.150

$$$$
1nta_lig
 OpenBabel11021811403D
libRbt.so/2013.1/901 2013/11/27
 40 42  0  0  0  0  0  0  0  0999 V2000
   -3.2615   38.4133    3.9603 C   0  0  0  0  0  0  0  0  0  0  0  0
   -3.0424   39.5998    4.3896 N   0  0  0  0  0  0  0  0  0  0  0  0
   -0.1205   34.8841   -4.4268 C   0  0  0  0  0  0  0  0  0  0  0  0
   -0.3524   34.8697   -5.6156 O   0  0  0  0  0  0  0  0  0  0  0  0
   -3.0888   33.7230   -0.0823 C   0  0  0  0  0  0  0  0  0  0  0  0
   -3.2670   33.4815   -1.3550 N   0  0  0  0  0  0  0  0  0  0  0  0
    0.0561   38.1639   -4.9497 C   0  0  0  0  0  0  0  0  0  0  0  0
    1.0559   32.0414   -3.4892 C   0  0  0  0  0  0  0  0  0  0  0  0
   -3.8423   37.8617    1.7334 C   0  0  2  0  0  0  0  0  0  0  0  0
   -4.2789   38.2887    3.1212 N   0  0  0  0  0  0  0  0  0  0  0  0
    0.0731   36.8537   -1.6070 C   0  0  2  0  0  0  0  0  0  0  0  0
    2.0138   34.0924   -1.2998 C   0  0  1  0  0  0  0  0  0  0  0  0
    1.8972   35.3918   -1.7640 O   0  0  0  0  0  0  0  0  0  0  0  0
   -3.2799   36.4281    1.7734 C   0  0  1  0  0  0  0  0  0  0  0  0
   -4.3237   35.5877    2.1637 O   0  0  0  0  0  0  0  0  0  0  0  0
    0.7070   35.6429   -2.2832 C   0  0  2  0  0  0  0  0  0  0  0  0
    2.6825   33.1229   -2.2493 C   0  0  1  0  0  0  0  0  0  0  0  0
    1.9918   33.1533   -3.4920 N   0  0  0  0  0  0  0  0  0  0  0  0
   -2.7995   35.9506    0.3965 C   0  0  2  0  0  0  0  0  0  0  0  0
   -2.2470   34.5749    0.3987 N   0  0  0  0  0  0  0  0  0  0  0  0
    0.5690   36.0059   -3.6974 C   0  0  1  0  0  0  0  0  0  0  0  0
    1.8835   36.2485   -4.2026 O   0  0  0  0  0  0  0  0  0  0  0  0
    4.0097   33.4677   -2.4630 C   0  0  2  0  0  0  0  0  0  0  0  0
    4.6346   32.3815   -3.0992 O   0  0  0  0  0  0  0  0  0  0  0  0
   -1.7307   36.9162   -0.0905 C   0  0  1  0  0  0  0  0  0  0  0  0
   -1.2927   36.4722   -1.3651 O   0  0  0  0  0  0  0  0  0  0  0  0
   -0.2017   37.2522   -3.7903 C   0  0  1  0  0  0  0  0  0  0  0  0
    0.0418   37.9016   -2.5486 O   0  0  0  0  0  0  0  0  0  0  0  0
    4.6969   33.7453   -1.1518 C   0  0  1  0  0  0  0  0  0  0  0  0
    5.9460   34.3174   -1.4061 O   0  0  0  0  0  0  0  0  0  0  0  0
   -2.3076   38.3580   -0.1749 C   0  0  2  0  0  0  0  0  0  0  0  0
   -1.2943   39.2464   -0.6431 O   0  0  0  0  0  0  0  0  0  0  0  0
    3.8912   34.7148   -0.3559 C   0  0  1  0  0  0  0  0  0  0  0  0
    2.6457   34.1311   -0.1041 O   0  0  0  0  0  0  0  0  0  0  0  0
   -2.7696   38.8032    1.2285 C   0  0  1  0  0  0  0  0  0  0  0  0
   -3.3057   40.1351    1.1717 O   0  0  0  0  0  0  0  0  0  0  0  0
    4.5529   35.0097    1.0048 C   0  0  0  0  0  0  0  0  0  0  0  0
    3.7202   35.8920    1.7486 O   0  0  0  0  0  0  0  0  0  0  0  0
   -2.5456   37.4037    4.3216 N   0  0  0  0  0  0  0  0  0  0  0  0
   -3.7956   33.1090    0.7836 N   0  0  0  0  0  0  0  0  0  0  0  0
  1  2  1  0  0  0  0
  1 39  1  0  0  0  0
  3  4  1  0  0  0  0
  5  6  1  0  0  0  0
  5 40  1  0  0  0  0
  9 10  1  1  0  0  0
  9 14  1  0  0  0  0
  9 35  1  0  0  0  0
 10  1  1  0  0  0  0
 11 16  1  0  0  0  0
 11 28  1  0  0  0  0
 11 26  1  6  0  0  0
 12 17  1  0  0  0  0
 12 34  1  0  0  0  0
 12 13  1  6  0  0  0
 14 15  1  6  0  0  0
 14 19  1  0  0  0  0
 16 13  1  1  0  0  0
 16 21  1  0  0  0  0
 17 18  1  6  0  0  0
 17 23  1  0  0  0  0
 18  8  1  0  0  0  0
 19 20  1  1  0  0  0
 19 25  1  0  0  0  0
 20  5  1  0  0  0  0
 21  3  1  6  0  0  0
 21 22  1  0  0  0  0
 21 27  1  0  0  0  0
 23 24  1  1  0  0  0
 23 29  1  0  0  0  0
 25 26  1  6  0  0  0
 25 31  1  0  0  0  0
 27  7  1  6  0  0  0
 27 28  1  0  0  0  0
 29 30  1  6  0  0  0
 29 33  1  0  0  0  0
 31 32  1  1  0  0  0
 31 35  1  0  0  0  0
 33 34  1  0  0  0  0
 33 37  1  1  0  0  0
 35 36  1  6  0  0  0
 37 38  1  0  0  0  0
M  END
>  <CHROM.1>
66.78963897,115.04567215,139.18359085,97.44343405,125.04970549,-96.98571877
102.67582365,83.02506469,-178.20383316,-151.35875088,-177.50635071,-0.10477929
35.84303370,-0.77321398,-2.50647612,0.40943186,-1.73986371

>  <Name>
1nta_lig

>  <RI>
0

>  <Rbt.Current_Directory>
/home/itssahil/PROJECTS/Mol_Feturizer/New_Systems/rnas/1nta

>  <Rbt.Executable>
rbdock ($Id: //depot/dev/client3/rdock/2013.1/src/exe/rbdock.cxx#4 $)

>  <Rbt.Library>
libRbt.so (2013.1, Build901 2013/11/27)

>  <Rbt.Parameter_File>
/export/apps/rDock/src/rDock_2013.1_src/data/scripts/dock_solv.prm

>  <Rbt.Receptor>
prm/pocket_docking_4.prm

>  <SCORE>
-17.9439

>  <SCORE.INTER>
-3.36288

>  <SCORE.INTER.CONST>
1

>  <SCORE.INTER.POLAR>
-1.40496

>  <SCORE.INTER.ROT>
11

>  <SCORE.INTER.SOLV>
8.46741

>  <SCORE.INTER.VDW>
-11.3145

>  <SCORE.INTER.norm>
-0.0840721

>  <SCORE.INTRA>
-14.581

>  <SCORE.INTRA.DIHEDRAL>
4.70793

>  <SCORE.INTRA.DIHEDRAL.0>
19.0336

>  <SCORE.INTRA.POLAR>
0

>  <SCORE.INTRA.POLAR.0>
0

>  <SCORE.INTRA.REPUL>
0

>  <SCORE.INTRA.REPUL.0>
0

>  <SCORE.INTRA.SOLV>
-2.04531

>  <SCORE.INTRA.SOLV.lig_0>
-97.5861

>  <SCORE.INTRA.VDW>
-15.9123

>  <SCORE.INTRA.VDW.0>
11.7669

>  <SCORE.INTRA.norm>
-0.364525

>  <SCORE.RESTR>
0

>  <SCORE.RESTR.CAVITY>
0

>  <SCORE.RESTR.norm>
0

>  <SCORE.SYSTEM>
0

>  <SCORE.SYSTEM.CONST>
0

>  <SCORE.SYSTEM.DIHEDRAL>
0

>  <SCORE.SYSTEM.SOLV>
0

>  <SCORE.SYSTEM.norm>
0

>  <SCORE.heavy>
40

>  <SCORE.norm>
-0.448597

>  <RMSD>
8.157

$$$$
1nta_lig
 OpenBabel11021811403D
libRbt.so/2013.1/901 2013/11/27
 40 42  0  0  0  0  0  0  0  0999 V2000
   -2.7422   33.9003   -2.6468 C   0  0  0  0  0  0  0  0  0  0  0  0
   -2.7623   32.9483   -1.7904 N   0  0  0  0  0  0  0  0  0  0  0  0
    5.6469   37.8321    0.7978 C   0  0  0  0  0  0  0  0  0  0  0  0
    6.1309   38.2330    1.8334 O   0  0  0  0  0  0  0  0  0  0  0  0
    0.2411   39.1776   -0.4681 C   0  0  0  0  0  0  0  0  0  0  0  0
    0.9023   39.7585   -1.4351 N   0  0  0  0  0  0  0  0  0  0  0  0
    3.6170   35.9850    2.6763 C   0  0  0  0  0  0  0  0  0  0  0  0
    2.6140   32.8763   -1.9259 C   0  0  0  0  0  0  0  0  0  0  0  0
   -1.0881   35.2966   -1.6902 C   0  0  2  0  0  0  0  0  0  0  0  0
   -2.5201   35.1087   -2.1516 N   0  0  0  0  0  0  0  0  0  0  0  0
    3.3831   35.8712   -0.9046 C   0  0  2  0  0  0  0  0  0  0  0  0
    5.3698   34.0232   -0.9124 C   0  0  1  0  0  0  0  0  0  0  0  0
    5.5916   35.2894   -1.4273 O   0  0  0  0  0  0  0  0  0  0  0  0
   -0.9424   36.6403   -0.9511 C   0  0  1  0  0  0  0  0  0  0  0  0
   -1.7462   36.5724    0.1878 O   0  0  0  0  0  0  0  0  0  0  0  0
    4.8660   36.2181   -0.8272 C   0  0  2  0  0  0  0  0  0  0  0  0
    4.9250   32.9839   -1.9178 C   0  0  1  0  0  0  0  0  0  0  0  0
    3.7664   33.4650   -2.5874 N   0  0  0  0  0  0  0  0  0  0  0  0
    0.4958   36.8950   -0.4806 C   0  0  2  0  0  0  0  0  0  0  0  0
    0.6739   38.1832    0.2315 N   0  0  0  0  0  0  0  0  0  0  0  0
    5.0201   36.4769    0.6081 C   0  0  1  0  0  0  0  0  0  0  0  0
    5.8316   35.4291    1.1425 O   0  0  0  0  0  0  0  0  0  0  0  0
    5.9182   32.7386   -2.8556 C   0  0  2  0  0  0  0  0  0  0  0  0
    5.5610   31.5759   -3.5596 O   0  0  0  0  0  0  0  0  0  0  0  0
    1.4022   36.8707   -1.7011 C   0  0  1  0  0  0  0  0  0  0  0  0
    2.7308   37.1031   -1.2600 O   0  0  0  0  0  0  0  0  0  0  0  0
    3.6979   36.4100    1.2429 C   0  0  1  0  0  0  0  0  0  0  0  0
    2.9522   35.5437    0.3964 O   0  0  0  0  0  0  0  0  0  0  0  0
    7.2433   32.5253   -2.1722 C   0  0  1  0  0  0  0  0  0  0  0  0
    8.2554   32.5215   -3.1356 O   0  0  0  0  0  0  0  0  0  0  0  0
    1.2915   35.4987   -2.4251 C   0  0  2  0  0  0  0  0  0  0  0  0
    2.1559   35.4916   -3.5600 O   0  0  0  0  0  0  0  0  0  0  0  0
    7.5059   33.6432   -1.2215 C   0  0  1  0  0  0  0  0  0  0  0  0
    6.4901   33.6352   -0.2606 O   0  0  0  0  0  0  0  0  0  0  0  0
   -0.1645   35.2857   -2.8897 C   0  0  1  0  0  0  0  0  0  0  0  0
   -0.2874   34.0221   -3.5627 O   0  0  0  0  0  0  0  0  0  0  0  0
    8.8468   33.4502   -0.4860 C   0  0  0  0  0  0  0  0  0  0  0  0
    9.9149   33.5913   -1.4157 O   0  0  0  0  0  0  0  0  0  0  0  0
   -2.9298   33.7016   -3.9067 N   0  0  0  0  0  0  0  0  0  0  0  0
   -0.9141   39.6091   -0.1427 N   0  0  0  0  0  0  0  0  0  0  0  0
  1  2  1  0  0  0  0
  1 39  1  0  0  0  0
  3  4  1  0  0  0  0
  5  6  1  0  0  0  0
  5 40  1  0  0  0  0
  9 10  1  6  0  0  0
  9 14  1  0  0  0  0
  9 35  1  0  0  0  0
 10  1  1  0  0  0  0
 11 16  1  0  0  0  0
 11 28  1  0  0  0  0
 11 26  1  1  0  0  0
 12 17  1  0  0  0  0
 12 34  1  0  0  0  0
 12 13  1  6  0  0  0
 14 15  1  1  0  0  0
 14 19  1  0  0  0  0
 16 13  1  1  0  0  0
 16 21  1  0  0  0  0
 17 18  1  6  0  0  0
 17 23  1  0  0  0  0
 18  8  1  0  0  0  0
 19 20  1  6  0  0  0
 19 25  1  0  0  0  0
 20  5  1  0  0  0  0
 21  3  1  1  0  0  0
 21 22  1  0  0  0  0
 21 27  1  0  0  0  0
 23 24  1  1  0  0  0
 23 29  1  0  0  0  0
 25 26  1  1  0  0  0
 25 31  1  0  0  0  0
 27  7  1  1  0  0  0
 27 28  1  0  0  0  0
 29 30  1  6  0  0  0
 29 33  1  0  0  0  0
 31 32  1  6  0  0  0
 31 35  1  0  0  0  0
 33 34  1  0  0  0  0
 33 37  1  1  0  0  0
 35 36  1  1  0  0  0
 37 38  1  0  0  0  0
M  END
>  <CHROM.1>
-172.17212567,71.63293276,164.99613783,123.28095251,-56.23931331,-97.27021572
-53.83844196,-80.93128870,-165.46339380,88.39989107,67.99392269,2.99143801
35.28748220,-1.18406083,2.97005806,-0.19648452,0.62375530

>  <Name>
1nta_lig

>  <RI>
0

>  <Rbt.Current_Directory>
/home/itssahil/PROJECTS/Mol_Feturizer/New_Systems/rnas/1nta

>  <Rbt.Executable>
rbdock ($Id: //depot/dev/client3/rdock/2013.1/src/exe/rbdock.cxx#4 $)

>  <Rbt.Library>
libRbt.so (2013.1, Build901 2013/11/27)

>  <Rbt.Parameter_File>
/export/apps/rDock/src/rDock_2013.1_src/data/scripts/dock_solv.prm

>  <Rbt.Receptor>
prm/pocket_docking_2.prm

>  <SCORE>
-4.46895

>  <SCORE.INTER>
-0.449396

>  <SCORE.INTER.CONST>
1

>  <SCORE.INTER.POLAR>
-1.57373

>  <SCORE.INTER.ROT>
11

>  <SCORE.INTER.SOLV>
13.9057

>  <SCORE.INTER.VDW>
-10.6224

>  <SCORE.INTER.norm>
-0.0112349

>  <SCORE.INTRA>
-7.6911

>  <SCORE.INTRA.DIHEDRAL>
-4.19774

>  <SCORE.INTRA.DIHEDRAL.0>
19.0336

>  <SCORE.INTRA.POLAR>
0

>  <SCORE.INTRA.POLAR.0>
0

>  <SCORE.INTRA.REPUL>
0

>  <SCORE.INTRA.REPUL.0>
0

>  <SCORE.INTRA.SOLV>
0.603371

>  <SCORE.INTRA.SOLV.lig_0>
-97.5861

>  <SCORE.INTRA.VDW>
-5.89392

>  <SCORE.INTRA.VDW.0>
11.7669

>  <SCORE.INTRA.norm>
-0.192277

>  <SCORE.RESTR>
3.67154

>  <SCORE.RESTR.CAVITY>
3.67154

>  <SCORE.RESTR.norm>
0.0917886

>  <SCORE.SYSTEM>
0

>  <SCORE.SYSTEM.CONST>
0

>  <SCORE.SYSTEM.DIHEDRAL>
0

>  <SCORE.SYSTEM.SOLV>
0

>  <SCORE.SYSTEM.norm>
0

>  <SCORE.heavy>
40

>  <SCORE.norm>
-0.111724

>  <RMSD>
8.160

$$$$
1nta_lig
 OpenBabel11021811403D
libRbt.so/2013.1/901 2013/11/27
 40 42  0  0  0  0  0  0  0  0999 V2000
    5.8262   41.8675   -0.4130 C   0  0  0  0  0  0  0  0  0  0  0  0
    5.0822   41.8883   -1.4551 N   0  0  0  0  0  0  0  0  0  0  0  0
    4.4409   32.3924    0.2638 C   0  0  0  0  0  0  0  0  0  0  0  0
    3.4946   31.9441    0.8728 O   0  0  0  0  0  0  0  0  0  0  0  0
    6.9941   35.7399    0.8558 C   0  0  0  0  0  0  0  0  0  0  0  0
    7.7948   34.7413    0.5884 N   0  0  0  0  0  0  0  0  0  0  0  0
    1.8982   33.1794   -1.7304 C   0  0  0  0  0  0  0  0  0  0  0  0
    6.3459   31.3566   -5.4825 C   0  0  0  0  0  0  0  0  0  0  0  0
    4.9093   40.1002    0.8663 C   0  0  2  0  0  0  0  0  0  0  0  0
    5.2091   41.5796    0.7232 N   0  0  0  0  0  0  0  0  0  0  0  0
    4.7450   35.3520   -1.4730 C   0  0  2  0  0  0  0  0  0  0  0  0
    6.8052   32.5090   -2.1292 C   0  0  1  0  0  0  0  0  0  0  0  0
    6.4466   33.8433   -2.0364 O   0  0  0  0  0  0  0  0  0  0  0  0
    6.1732   39.2728    0.5649 C   0  0  1  0  0  0  0  0  0  0  0  0
    7.1228   39.6054    1.5321 O   0  0  0  0  0  0  0  0  0  0  0  0
    5.4768   34.0510   -1.1616 C   0  0  2  0  0  0  0  0  0  0  0  0
    7.2891   32.0615   -3.4910 C   0  0  1  0  0  0  0  0  0  0  0  0
    6.2952   32.3838   -4.4556 N   0  0  0  0  0  0  0  0  0  0  0  0
    5.9219   37.7627    0.6718 C   0  0  2  0  0  0  0  0  0  0  0  0
    7.1172   36.9345    0.3831 N   0  0  0  0  0  0  0  0  0  0  0  0
    4.3531   33.1147   -1.0538 C   0  0  1  0  0  0  0  0  0  0  0  0
    4.4393   32.2200   -2.1648 O   0  0  0  0  0  0  0  0  0  0  0  0
    8.4736   32.6979   -3.8345 C   0  0  2  0  0  0  0  0  0  0  0  0
    9.0092   32.0282   -4.9479 O   0  0  0  0  0  0  0  0  0  0  0  0
    4.8154   37.3988   -0.3056 C   0  0  1  0  0  0  0  0  0  0  0  0
    4.5847   36.0026   -0.2000 O   0  0  0  0  0  0  0  0  0  0  0  0
    3.0989   33.8704   -1.1623 C   0  0  1  0  0  0  0  0  0  0  0  0
    3.4526   35.0181   -1.9244 O   0  0  0  0  0  0  0  0  0  0  0  0
    9.4527   32.6358   -2.6917 C   0  0  1  0  0  0  0  0  0  0  0  0
   10.5298   33.4811   -2.9703 O   0  0  0  0  0  0  0  0  0  0  0  0
    3.5235   38.1997    0.0233 C   0  0  2  0  0  0  0  0  0  0  0  0
    2.4952   37.8372   -0.8968 O   0  0  0  0  0  0  0  0  0  0  0  0
    8.7968   33.1101   -1.4397 C   0  0  1  0  0  0  0  0  0  0  0  0
    7.7236   32.2556   -1.1686 O   0  0  0  0  0  0  0  0  0  0  0  0
    3.8154   39.7095   -0.1047 C   0  0  1  0  0  0  0  0  0  0  0  0
    2.6320   40.4676    0.1948 O   0  0  0  0  0  0  0  0  0  0  0  0
    9.7629   33.0424   -0.2405 C   0  0  0  0  0  0  0  0  0  0  0  0
   10.5429   31.8558   -0.3344 O   0  0  0  0  0  0  0  0  0  0  0  0
    7.0907   42.1144   -0.4607 N   0  0  0  0  0  0  0  0  0  0  0  0
    5.9887   35.5584    1.6191 N   0  0  0  0  0  0  0  0  0  0  0  0
  1  2  1  0  0  0  0
  1 39  1  0  0  0  0
  3  4  1  0  0  0  0
  5  6  1  0  0  0  0
  5 40  1  0  0  0  0
  9 10  1  6  0  0  0
  9 14  1  0  0  0  0
  9 35  1  0  0  0  0
 10  1  1  0  0  0  0
 11 16  1  0  0  0  0
 11 28  1  0  0  0  0
 11 26  1  1  0  0  0
 12 17  1  0  0  0  0
 12 34  1  0  0  0  0
 12 13  1  6  0  0  0
 14 15  1  1  0  0  0
 14 19  1  0  0  0  0
 16 13  1  6  0  0  0
 16 21  1  0  0  0  0
 17 18  1  6  0  0  0
 17 23  1  0  0  0  0
 18  8  1  0  0  0  0
 19 20  1  6  0  0  0
 19 25  1  0  0  0  0
 20  5  1  0  0  0  0
 21  3  1  1  0  0  0
 21 22  1  0  0  0  0
 21 27  1  0  0  0  0
 23 24  1  6  0  0  0
 23 29  1  0  0  0  0
 25 26  1  1  0  0  0
 25 31  1  0  0  0  0
 27  7  1  6  0  0  0
 27 28  1  0  0  0  0
 29 30  1  6  0  0  0
 29 33  1  0  0  0  0
 31 32  1  6  0  0  0
 31 35  1  0  0  0  0
 33 34  1  0  0  0  0
 33 37  1  1  0  0  0
 35 36  1  1  0  0  0
 37 38  1  0  0  0  0
M  END
>  <CHROM.1>
49.26244163,76.94416866,139.33208133,148.54960272,-157.35941570,-147.30584751
160.79988466,169.46798914,152.10490667,-123.15208214,-39.23584889,5.99977576
35.47806452,-1.03169560,-1.87895233,-0.07032733,-2.83014128

>  <Name>
1nta_lig

>  <RI>
2.40834e+07

>  <Rbt.Current_Directory>
/home/itssahil/PROJECTS/Mol_Feturizer/New_Systems/rnas/1nta

>  <Rbt.Executable>
rbdock ($Id: //depot/dev/client3/rdock/2013.1/src/exe/rbdock.cxx#4 $)

>  <Rbt.Library>
libRbt.so (2013.1, Build901 2013/11/27)

>  <Rbt.Parameter_File>
/export/apps/rDock/src/rDock_2013.1_src/data/scripts/dock_solv.prm

>  <Rbt.Receptor>
prm/blind_docking_80.prm

>  <SCORE>
8.35989

>  <SCORE.INTER>
2.29188

>  <SCORE.INTER.CONST>
1

>  <SCORE.INTER.POLAR>
-0.553498

>  <SCORE.INTER.ROT>
11

>  <SCORE.INTER.SOLV>
32.5258

>  <SCORE.INTER.VDW>
-18.4023

>  <SCORE.INTER.norm>
0.057297

>  <SCORE.INTRA>
4.84225

>  <SCORE.INTRA.DIHEDRAL>
5.96153

>  <SCORE.INTRA.DIHEDRAL.0>
19.0336

>  <SCORE.INTRA.POLAR>
0

>  <SCORE.INTRA.POLAR.0>
0

>  <SCORE.INTRA.REPUL>
0

>  <SCORE.INTRA.REPUL.0>
0

>  <SCORE.INTRA.SOLV>
7.75649

>  <SCORE.INTRA.SOLV.lig_0>
-97.5861

>  <SCORE.INTRA.VDW>
-2.01676

>  <SCORE.INTRA.VDW.0>
11.7669

>  <SCORE.INTRA.norm>
0.121056

>  <SCORE.RESTR>
1.22576

>  <SCORE.RESTR.CAVITY>
1.22576

>  <SCORE.RESTR.norm>
0.0306439

>  <SCORE.SYSTEM>
0

>  <SCORE.SYSTEM.CONST>
0

>  <SCORE.SYSTEM.DIHEDRAL>
0

>  <SCORE.SYSTEM.SOLV>
0

>  <SCORE.SYSTEM.norm>
0

>  <SCORE.heavy>
40

>  <SCORE.norm>
0.208997

>  <RMSD>
8.171

$$$$
1nta_lig
 OpenBabel11021811403D
libRbt.so/2013.1/901 2013/11/27
 40 42  0  0  0  0  0  0  0  0999 V2000
    0.0389   31.6577   -8.2090 C   0  0  0  0  0  0  0  0  0  0  0  0
   -0.4312   31.6011   -9.3989 N   0  0  0  0  0  0  0  0  0  0  0  0
   -2.4647   36.4212   -0.9168 C   0  0  0  0  0  0  0  0  0  0  0  0
   -1.5870   36.8271   -1.6463 O   0  0  0  0  0  0  0  0  0  0  0  0
    0.1736   36.0330   -4.2718 C   0  0  0  0  0  0  0  0  0  0  0  0
    1.4356   35.8357   -3.9921 N   0  0  0  0  0  0  0  0  0  0  0  0
   -5.0803   38.3514   -1.6201 C   0  0  0  0  0  0  0  0  0  0  0  0
   -5.5440   32.9865    2.1254 C   0  0  0  0  0  0  0  0  0  0  0  0
   -1.5237   32.7528   -6.8091 C   0  0  2  0  0  0  0  0  0  0  0  0
   -0.8417   31.4682   -7.2378 N   0  0  0  0  0  0  0  0  0  0  0  0
   -4.5855   35.2547   -3.3683 C   0  0  2  0  0  0  0  0  0  0  0  0
   -3.7578   33.2357   -0.5020 C   0  0  1  0  0  0  0  0  0  0  0  0
   -4.4817   33.7843   -1.5472 O   0  0  0  0  0  0  0  0  0  0  0  0
   -0.7993   33.3550   -5.5903 C   0  0  1  0  0  0  0  0  0  0  0  0
    0.4941   33.6817   -6.0007 O   0  0  0  0  0  0  0  0  0  0  0  0
   -3.8947   34.8471   -2.0714 C   0  0  2  0  0  0  0  0  0  0  0  0
   -4.4600   32.1376    0.2662 C   0  0  1  0  0  0  0  0  0  0  0  0
   -5.7114   32.6324    0.7259 N   0  0  0  0  0  0  0  0  0  0  0  0
   -1.4623   34.6481   -5.0971 C   0  0  2  0  0  0  0  0  0  0  0  0
   -0.7932   35.2535   -3.9207 N   0  0  0  0  0  0  0  0  0  0  0  0
   -3.8753   36.1236   -1.3495 C   0  0  1  0  0  0  0  0  0  0  0  0
   -4.7635   35.9947   -0.2375 O   0  0  0  0  0  0  0  0  0  0  0  0
   -4.6819   31.0284   -0.5379 C   0  0  2  0  0  0  0  0  0  0  0  0
   -5.0557   29.9635    0.2996 O   0  0  0  0  0  0  0  0  0  0  0  0
   -2.9061   34.3312   -4.7410 C   0  0  1  0  0  0  0  0  0  0  0  0
   -3.5152   35.5306   -4.2891 O   0  0  0  0  0  0  0  0  0  0  0  0
   -4.3911   37.1737   -2.2366 C   0  0  1  0  0  0  0  0  0  0  0  0
   -5.2461   36.4773   -3.1349 O   0  0  0  0  0  0  0  0  0  0  0  0
   -3.4264   30.6631   -1.2854 C   0  0  1  0  0  0  0  0  0  0  0  0
   -3.7378   29.7075   -2.2561 O   0  0  0  0  0  0  0  0  0  0  0  0
   -3.6533   33.7643   -5.9816 C   0  0  2  0  0  0  0  0  0  0  0  0
   -5.0073   33.4832   -5.6307 O   0  0  0  0  0  0  0  0  0  0  0  0
   -2.8804   31.8681   -1.9727 C   0  0  1  0  0  0  0  0  0  0  0  0
   -2.5689   32.8156   -0.9925 O   0  0  0  0  0  0  0  0  0  0  0  0
   -2.9628   32.4624   -6.4393 C   0  0  1  0  0  0  0  0  0  0  0  0
   -3.6400   31.9219   -7.5856 O   0  0  0  0  0  0  0  0  0  0  0  0
   -1.5811   31.5386   -2.7340 C   0  0  0  0  0  0  0  0  0  0  0  0
   -1.8892   30.7081   -3.8477 O   0  0  0  0  0  0  0  0  0  0  0  0
    1.2842   31.8885   -7.9674 N   0  0  0  0  0  0  0  0  0  0  0  0
   -0.1759   37.0746   -4.9195 N   0  0  0  0  0  0  0  0  0  0  0  0
  1  2  1  0  0  0  0
  1 39  1  0  0  0  0
  3  4  1  0  0  0  0
  5  6  1  0  0  0  0
  5 40  1  0  0  0  0
  9 10  1  1  0  0  0
  9 14  1  0  0  0  0
  9 35  1  0  0  0  0
 10  1  1  0  0  0  0
 11 16  1  0  0  0  0
 11 28  1  0  0  0  0
 11 26  1  6  0  0  0
 12 17  1  0  0  0  0
 12 34  1  0  0  0  0
 12 13  1  6  0  0  0
 14 15  1  6  0  0  0
 14 19  1  0  0  0  0
 16 13  1  1  0  0  0
 16 21  1  0  0  0  0
 17 18  1  6  0  0  0
 17 23  1  0  0  0  0
 18  8  1  0  0  0  0
 19 20  1  1  0  0  0
 19 25  1  0  0  0  0
 20  5  1  0  0  0  0
 21  3  1  1  0  0  0
 21 22  1  0  0  0  0
 21 27  1  0  0  0  0
 23 24  1  1  0  0  0
 23 29  1  0  0  0  0
 25 26  1  6  0  0  0
 25 31  1  0  0  0  0
 27  7  1  1  0  0  0
 27 28  1  0  0  0  0
 29 30  1  6  0  0  0
 29 33  1  0  0  0  0
 31 32  1  1  0  0  0
 31 35  1  0  0  0  0
 33 34  1  0  0  0  0
 33 37  1  1  0  0  0
 35 36  1  6  0  0  0
 37 38  1  0  0  0  0
M  END
>  <CHROM.1>
-95.25052890,-87.87521147,74.35572017,171.88292516,169.44569551,-100.45867576
86.54926888,-115.85996509,76.44387493,-152.27334584,69.38274072,-2.78004454
33.67562774,-3.39506951,0.29256302,-1.01297407,-2.94940182

>  <Name>
1nta_lig

>  <RI>
0

>  <Rbt.Current_Directory>
/home/itssahil/PROJECTS/Mol_Feturizer/New_Systems/rnas/1nta

>  <Rbt.Executable>
rbdock ($Id: //depot/dev/client3/rdock/2013.1/src/exe/rbdock.cxx#4 $)

>  <Rbt.Library>
libRbt.so (2013.1, Build901 2013/11/27)

>  <Rbt.Parameter_File>
/export/apps/rDock/src/rDock_2013.1_src/data/scripts/dock_solv.prm

>  <Rbt.Receptor>
prm/pocket_docking_7.prm

>  <SCORE>
-15.6487

>  <SCORE.INTER>
7.89738

>  <SCORE.INTER.CONST>
1

>  <SCORE.INTER.POLAR>
-0.824621

>  <SCORE.INTER.ROT>
11

>  <SCORE.INTER.SOLV>
9.47211

>  <SCORE.INTER.VDW>
-6.07705

>  <SCORE.INTER.norm>
0.197435

>  <SCORE.INTRA>
-23.546

>  <SCORE.INTRA.DIHEDRAL>
-9.48478

>  <SCORE.INTRA.DIHEDRAL.0>
19.0336

>  <SCORE.INTRA.POLAR>
0

>  <SCORE.INTRA.POLAR.0>
0

>  <SCORE.INTRA.REPUL>
0.0115914

>  <SCORE.INTRA.REPUL.0>
0

>  <SCORE.INTRA.SOLV>
-1.30574

>  <SCORE.INTRA.SOLV.lig_0>
-97.5861

>  <SCORE.INTRA.VDW>
-18.2087

>  <SCORE.INTRA.VDW.0>
11.7669

>  <SCORE.INTRA.norm>
-0.588651

>  <SCORE.RESTR>
0

>  <SCORE.RESTR.CAVITY>
0

>  <SCORE.RESTR.norm>
0

>  <SCORE.SYSTEM>
0

>  <SCORE.SYSTEM.CONST>
0

>  <SCORE.SYSTEM.DIHEDRAL>
0

>  <SCORE.SYSTEM.SOLV>
0

>  <SCORE.SYSTEM.norm>
0

>  <SCORE.heavy>
40

>  <SCORE.norm>
-0.391217

>  <RMSD>
8.180

$$$$
1nta_lig
 OpenBabel11021811403D
libRbt.so/2013.1/901 2013/11/27
 40 42  0  0  0  0  0  0  0  0999 V2000
    0.7174   34.2715  -11.4858 C   0  0  0  0  0  0  0  0  0  0  0  0
    1.2811   35.3609  -11.8541 N   0  0  0  0  0  0  0  0  0  0  0  0
   -3.6402   30.1167   -3.7384 C   0  0  0  0  0  0  0  0  0  0  0  0
   -4.2990   30.5354   -2.8121 O   0  0  0  0  0  0  0  0  0  0  0  0
   -1.6184   35.1279   -5.5253 C   0  0  0  0  0  0  0  0  0  0  0  0
   -2.4038   34.5924   -4.6274 N   0  0  0  0  0  0  0  0  0  0  0  0
   -1.6551   27.8725   -5.1821 C   0  0  0  0  0  0  0  0  0  0  0  0
   -2.7157   32.9232    0.7980 C   0  0  0  0  0  0  0  0  0  0  0  0
    0.3016   33.2352   -9.3993 C   0  0  2  0  0  0  0  0  0  0  0  0
    1.2934   33.6460  -10.4701 N   0  0  0  0  0  0  0  0  0  0  0  0
   -0.4891   31.2166   -4.5923 C   0  0  2  0  0  0  0  0  0  0  0  0
   -0.9421   32.6769   -1.8559 C   0  0  1  0  0  0  0  0  0  0  0  0
   -0.8565   31.3624   -2.2830 O   0  0  0  0  0  0  0  0  0  0  0  0
    0.4179   34.1730   -8.1827 C   0  0  1  0  0  0  0  0  0  0  0  0
    0.0652   35.4525   -8.6147 O   0  0  0  0  0  0  0  0  0  0  0  0
   -1.4776   31.1583   -3.4326 C   0  0  2  0  0  0  0  0  0  0  0  0
   -0.7216   32.8925   -0.3748 C   0  0  1  0  0  0  0  0  0  0  0  0
   -1.6304   32.0692    0.3452 N   0  0  0  0  0  0  0  0  0  0  0  0
   -0.5490   33.7890   -7.0548 C   0  0  2  0  0  0  0  0  0  0  0  0
   -0.4609   34.6687   -5.8647 N   0  0  0  0  0  0  0  0  0  0  0  0
   -2.1534   29.8850   -3.7024 C   0  0  1  0  0  0  0  0  0  0  0  0
   -1.7752   28.9770   -2.6658 O   0  0  0  0  0  0  0  0  0  0  0  0
    0.5750   32.5595   -0.0089 C   0  0  2  0  0  0  0  0  0  0  0  0
    0.7926   33.0570    1.2873 O   0  0  0  0  0  0  0  0  0  0  0  0
   -0.2452   32.3580   -6.6404 C   0  0  1  0  0  0  0  0  0  0  0  0
   -1.1442   32.0070   -5.6001 O   0  0  0  0  0  0  0  0  0  0  0  0
   -1.6674   29.3564   -4.9830 C   0  0  1  0  0  0  0  0  0  0  0  0
   -0.3654   29.9137   -5.1144 O   0  0  0  0  0  0  0  0  0  0  0  0
    1.5641   33.1821   -0.9589 C   0  0  1  0  0  0  0  0  0  0  0  0
    2.8293   32.6410   -0.7159 O   0  0  0  0  0  0  0  0  0  0  0  0
   -0.4050   31.4014   -7.8562 C   0  0  2  0  0  0  0  0  0  0  0  0
   -0.1263   30.0639   -7.4455 O   0  0  0  0  0  0  0  0  0  0  0  0
    1.1813   32.8650   -2.3644 C   0  0  1  0  0  0  0  0  0  0  0  0
   -0.0835   33.4138   -2.5977 O   0  0  0  0  0  0  0  0  0  0  0  0
    0.5891   31.8146   -8.9617 C   0  0  1  0  0  0  0  0  0  0  0  0
    0.4574   30.9409  -10.0949 O   0  0  0  0  0  0  0  0  0  0  0  0
    2.1605   33.5030   -3.3696 C   0  0  0  0  0  0  0  0  0  0  0  0
    2.0727   34.9200   -3.2732 O   0  0  0  0  0  0  0  0  0  0  0  0
   -0.3371   33.8081  -12.0650 N   0  0  0  0  0  0  0  0  0  0  0  0
   -1.9951   36.1712   -6.1546 N   0  0  0  0  0  0  0  0  0  0  0  0
  1  2  1  0  0  0  0
  1 39  1  0  0  0  0
  3  4  1  0  0  0  0
  5  6  1  0  0  0  0
  5 40  1  0  0  0  0
  9 10  1  6  0  0  0
  9 14  1  0  0  0  0
  9 35  1  0  0  0  0
 10  1  1  0  0  0  0
 11 16  1  0  0  0  0
 11 28  1  0  0  0  0
 11 26  1  6  0  0  0
 12 17  1  0  0  0  0
 12 34  1  0  0  0  0
 12 13  1  1  0  0  0
 14 15  1  6  0  0  0
 14 19  1  0  0  0  0
 16 13  1  1  0  0  0
 16 21  1  0  0  0  0
 17 18  1  1  0  0  0
 17 23  1  0  0  0  0
 18  8  1  0  0  0  0
 19 20  1  1  0  0  0
 19 25  1  0  0  0  0
 20  5  1  0  0  0  0
 21  3  1  6  0  0  0
 21 22  1  0  0  0  0
 21 27  1  0  0  0  0
 23 24  1  1  0  0  0
 23 29  1  0  0  0  0
 25 26  1  1  0  0  0
 25 31  1  0  0  0  0
 27  7  1  1  0  0  0
 27 28  1  0  0  0  0
 29 30  1  1  0  0  0
 29 33  1  0  0  0  0
 31 32  1  1  0  0  0
 31 35  1  0  0  0  0
 33 34  1  0  0  0  0
 33 37  1  6  0  0  0
 35 36  1  6  0  0  0
 37 38  1  0  0  0  0
M  END
>  <CHROM.1>
-104.60854847,131.83918532,169.00024143,158.60951804,96.85698981,-101.82688826
127.73501969,94.59188441,-60.93446546,-140.85563671,-64.45164127,-0.43426848
32.47387009,-4.94008820,-1.35399408,1.06813350,1.54509278

>  <Name>
1nta_lig

>  <RI>
0

>  <Rbt.Current_Directory>
/home/itssahil/PROJECTS/Mol_Feturizer/New_Systems/rnas/1nta

>  <Rbt.Executable>
rbdock ($Id: //depot/dev/client3/rdock/2013.1/src/exe/rbdock.cxx#4 $)

>  <Rbt.Library>
libRbt.so (2013.1, Build901 2013/11/27)

>  <Rbt.Parameter_File>
/export/apps/rDock/src/rDock_2013.1_src/data/scripts/dock_solv.prm

>  <Rbt.Receptor>
prm/pocket_docking_7.prm

>  <SCORE>
-26.6045

>  <SCORE.INTER>
-7.18192

>  <SCORE.INTER.CONST>
1

>  <SCORE.INTER.POLAR>
-0.762063

>  <SCORE.INTER.ROT>
11

>  <SCORE.INTER.SOLV>
12.5856

>  <SCORE.INTER.VDW>
-17.3763

>  <SCORE.INTER.norm>
-0.179548

>  <SCORE.INTRA>
-19.4226

>  <SCORE.INTRA.DIHEDRAL>
-1.97853

>  <SCORE.INTRA.DIHEDRAL.0>
19.0336

>  <SCORE.INTRA.POLAR>
0

>  <SCORE.INTRA.POLAR.0>
0

>  <SCORE.INTRA.REPUL>
0

>  <SCORE.INTRA.REPUL.0>
0

>  <SCORE.INTRA.SOLV>
-2.15588

>  <SCORE.INTRA.SOLV.lig_0>
-97.5861

>  <SCORE.INTRA.VDW>
-17.3554

>  <SCORE.INTRA.VDW.0>
11.7669

>  <SCORE.INTRA.norm>
-0.485565

>  <SCORE.RESTR>
0

>  <SCORE.RESTR.CAVITY>
0

>  <SCORE.RESTR.norm>
0

>  <SCORE.SYSTEM>
0

>  <SCORE.SYSTEM.CONST>
0

>  <SCORE.SYSTEM.DIHEDRAL>
0

>  <SCORE.SYSTEM.SOLV>
0

>  <SCORE.SYSTEM.norm>
0

>  <SCORE.heavy>
40

>  <SCORE.norm>
-0.665113

>  <RMSD>
8.211

$$$$
1nta_lig
 OpenBabel11021811403D
libRbt.so/2013.1/901 2013/11/27
 40 42  0  0  0  0  0  0  0  0999 V2000
   -6.9692   36.8506    1.8374 C   0  0  0  0  0  0  0  0  0  0  0  0
   -7.2936   38.0614    2.0993 N   0  0  0  0  0  0  0  0  0  0  0  0
    1.4541   33.2672   -2.3605 C   0  0  0  0  0  0  0  0  0  0  0  0
    2.4913   32.8676   -1.8791 O   0  0  0  0  0  0  0  0  0  0  0  0
   -1.2681   38.1505    1.5368 C   0  0  0  0  0  0  0  0  0  0  0  0
   -0.7630   37.4426    2.5133 N   0  0  0  0  0  0  0  0  0  0  0  0
   -0.2139   34.8115   -4.7884 C   0  0  0  0  0  0  0  0  0  0  0  0
    1.3452   34.2022    1.9304 C   0  0  0  0  0  0  0  0  0  0  0  0
   -5.1110   36.0464    0.6121 C   0  0  2  0  0  0  0  0  0  0  0  0
   -6.5083   36.6350    0.6143 N   0  0  0  0  0  0  0  0  0  0  0  0
   -0.2937   36.0875   -1.4334 C   0  0  2  0  0  0  0  0  0  0  0  0
    1.9970   36.6751    0.2935 C   0  0  1  0  0  0  0  0  0  0  0  0
    2.0043   36.3322   -1.0481 O   0  0  0  0  0  0  0  0  0  0  0  0
   -4.0634   37.1711    0.5098 C   0  0  1  0  0  0  0  0  0  0  0  0
   -4.1882   37.9550    1.6578 O   0  0  0  0  0  0  0  0  0  0  0  0
    1.0816   35.4341   -1.3498 C   0  0  2  0  0  0  0  0  0  0  0  0
    2.8453   35.8005    1.1903 C   0  0  1  0  0  0  0  0  0  0  0  0
    2.4468   34.4467    1.0146 N   0  0  0  0  0  0  0  0  0  0  0  0
   -2.6275   36.6306    0.4797 C   0  0  2  0  0  0  0  0  0  0  0  0
   -1.5919   37.6866    0.3767 N   0  0  0  0  0  0  0  0  0  0  0  0
    1.1284   34.7126   -2.6258 C   0  0  1  0  0  0  0  0  0  0  0  0
    2.1201   35.3478   -3.4353 O   0  0  0  0  0  0  0  0  0  0  0  0
    4.1917   35.9184    0.8749 C   0  0  2  0  0  0  0  0  0  0  0  0
    4.9263   35.3263    1.9164 O   0  0  0  0  0  0  0  0  0  0  0  0
   -2.5022   35.6920   -0.7099 C   0  0  1  0  0  0  0  0  0  0  0  0
   -1.1741   35.1926   -0.7309 O   0  0  0  0  0  0  0  0  0  0  0  0
   -0.1727   34.8500   -3.2921 C   0  0  1  0  0  0  0  0  0  0  0  0
   -0.6927   36.0727   -2.7847 O   0  0  0  0  0  0  0  0  0  0  0  0
    4.5758   37.3694    0.7506 C   0  0  1  0  0  0  0  0  0  0  0  0
    5.8583   37.4541    0.2024 O   0  0  0  0  0  0  0  0  0  0  0  0
   -3.5285   34.5299   -0.5876 C   0  0  2  0  0  0  0  0  0  0  0  0
   -3.3885   33.6554   -1.7060 O   0  0  0  0  0  0  0  0  0  0  0  0
    3.6279   38.0650   -0.1659 C   0  0  1  0  0  0  0  0  0  0  0  0
    2.3494   37.9775    0.3937 O   0  0  0  0  0  0  0  0  0  0  0  0
   -4.9569   35.1136   -0.5703 C   0  0  1  0  0  0  0  0  0  0  0  0
   -5.9211   34.0541   -0.4586 O   0  0  0  0  0  0  0  0  0  0  0  0
    3.9767   39.5603   -0.3035 C   0  0  0  0  0  0  0  0  0  0  0  0
    5.2115   39.6907   -0.9987 O   0  0  0  0  0  0  0  0  0  0  0  0
   -7.0861   35.9007    2.7013 N   0  0  0  0  0  0  0  0  0  0  0  0
   -1.4960   39.3936    1.7080 N   0  0  0  0  0  0  0  0  0  0  0  0
  1  2  1  0  0  0  0
  1 39  1  0  0  0  0
  3  4  1  0  0  0  0
  5  6  1  0  0  0  0
  5 40  1  0  0  0  0
  9 10  1  6  0  0  0
  9 14  1  0  0  0  0
  9 35  1  0  0  0  0
 10  1  1  0  0  0  0
 11 16  1  0  0  0  0
 11 28  1  0  0  0  0
 11 26  1  1  0  0  0
 12 17  1  0  0  0  0
 12 34  1  0  0  0  0
 12 13  1  6  0  0  0
 14 15  1  1  0  0  0
 14 19  1  0  0  0  0
 16 13  1  6  0  0  0
 16 21  1  0  0  0  0
 17 18  1  6  0  0  0
 17 23  1  0  0  0  0
 18  8  1  0  0  0  0
 19 20  1  6  0  0  0
 19 25  1  0  0  0  0
 20  5  1  0  0  0  0
 21  3  1  1  0  0  0
 21 22  1  0  0  0  0
 21 27  1  0  0  0  0
 23 24  1  1  0  0  0
 23 29  1  0  0  0  0
 25 26  1  1  0  0  0
 25 31  1  0  0  0  0
 27  7  1  6  0  0  0
 27 28  1  0  0  0  0
 29 30  1  6  0  0  0
 29 33  1  0  0  0  0
 31 32  1  6  0  0  0
 31 35  1  0  0  0  0
 33 34  1  0  0  0  0
 33 37  1  1  0  0  0
 35 36  1  1  0  0  0
 37 38  1  0  0  0  0
M  END
>  <CHROM.1>
-93.09960638,121.48123970,179.04400816,87.85605808,77.09281955,-86.92374613
86.05559423,60.12875473,-63.77927554,-85.99225109,68.09914160,-0.39309489
36.19900712,-0.17530981,-3.08332349,-0.11146374,-2.33553215

>  <Name>
1nta_lig

>  <RI>
0

>  <Rbt.Current_Directory>
/home/itssahil/PROJECTS/Mol_Feturizer/New_Systems/rnas/1nta

>  <Rbt.Executable>
rbdock ($Id: //depot/dev/client3/rdock/2013.1/src/exe/rbdock.cxx#4 $)

>  <Rbt.Library>
libRbt.so (2013.1, Build901 2013/11/27)

>  <Rbt.Parameter_File>
/export/apps/rDock/src/rDock_2013.1_src/data/scripts/dock_solv.prm

>  <Rbt.Receptor>
prm/pocket_docking_8.prm

>  <SCORE>
-20.2775

>  <SCORE.INTER>
1.30956

>  <SCORE.INTER.CONST>
1

>  <SCORE.INTER.POLAR>
-0.623457

>  <SCORE.INTER.ROT>
11

>  <SCORE.INTER.SOLV>
8.25788

>  <SCORE.INTER.VDW>
-10.7347

>  <SCORE.INTER.norm>
0.032739

>  <SCORE.INTRA>
-21.5916

>  <SCORE.INTRA.DIHEDRAL>
-8.3086

>  <SCORE.INTRA.DIHEDRAL.0>
19.0336

>  <SCORE.INTRA.POLAR>
0

>  <SCORE.INTRA.POLAR.0>
0

>  <SCORE.INTRA.REPUL>
0

>  <SCORE.INTRA.REPUL.0>
0

>  <SCORE.INTRA.SOLV>
-1.42705

>  <SCORE.INTRA.SOLV.lig_0>
-97.5861

>  <SCORE.INTRA.VDW>
-16.7238

>  <SCORE.INTRA.VDW.0>
11.7669

>  <SCORE.INTRA.norm>
-0.53979

>  <SCORE.RESTR>
0.00457158

>  <SCORE.RESTR.CAVITY>
0.00457158

>  <SCORE.RESTR.norm>
0.000114289

>  <SCORE.SYSTEM>
0

>  <SCORE.SYSTEM.CONST>
0

>  <SCORE.SYSTEM.DIHEDRAL>
0

>  <SCORE.SYSTEM.SOLV>
0

>  <SCORE.SYSTEM.norm>
0

>  <SCORE.heavy>
40

>  <SCORE.norm>
-0.506937

>  <RMSD>
8.226

$$$$
1nta_lig
 OpenBabel11021811403D
libRbt.so/2013.1/901 2013/11/27
 40 42  0  0  0  0  0  0  0  0999 V2000
   -1.2107   41.9300    3.1650 C   0  0  0  0  0  0  0  0  0  0  0  0
   -0.9286   42.1892    4.3870 N   0  0  0  0  0  0  0  0  0  0  0  0
   -0.1665   31.9860    2.1627 C   0  0  0  0  0  0  0  0  0  0  0  0
   -0.3455   31.2293    3.0915 O   0  0  0  0  0  0  0  0  0  0  0  0
   -0.4935   37.7269   -1.3350 C   0  0  0  0  0  0  0  0  0  0  0  0
    0.8101   37.6933   -1.2381 N   0  0  0  0  0  0  0  0  0  0  0  0
   -3.4124   32.5011    2.6730 C   0  0  0  0  0  0  0  0  0  0  0  0
   -1.0400   30.1178   -3.3976 C   0  0  0  0  0  0  0  0  0  0  0  0
   -1.3054   39.6175    2.6712 C   0  0  2  0  0  0  0  0  0  0  0  0
   -2.0357   40.9115    2.9734 N   0  0  0  0  0  0  0  0  0  0  0  0
   -1.5035   34.7869    0.6675 C   0  0  2  0  0  0  0  0  0  0  0  0
    0.2564   32.2893   -1.2470 C   0  0  1  0  0  0  0  0  0  0  0  0
   -0.6369   33.2947   -0.9172 O   0  0  0  0  0  0  0  0  0  0  0  0
   -1.6729   39.1197    1.2605 C   0  0  1  0  0  0  0  0  0  0  0  0
   -1.2200   40.0801    0.3547 O   0  0  0  0  0  0  0  0  0  0  0  0
   -0.6655   33.5456    0.3810 C   0  0  2  0  0  0  0  0  0  0  0  0
    0.2744   31.8919   -2.7066 C   0  0  1  0  0  0  0  0  0  0  0  0
   -1.0464   31.5400   -3.0987 N   0  0  0  0  0  0  0  0  0  0  0  0
   -0.9789   37.7970    0.9088 C   0  0  2  0  0  0  0  0  0  0  0  0
   -1.3138   37.2853   -0.4418 N   0  0  0  0  0  0  0  0  0  0  0  0
   -1.2582   32.5838    1.3162 C   0  0  1  0  0  0  0  0  0  0  0  0
   -1.9356   31.5968    0.5358 O   0  0  0  0  0  0  0  0  0  0  0  0
    0.7176   32.9377   -3.5040 C   0  0  2  0  0  0  0  0  0  0  0  0
    0.9890   32.4148   -4.7799 O   0  0  0  0  0  0  0  0  0  0  0  0
   -1.3820   36.7626    1.9478 C   0  0  1  0  0  0  0  0  0  0  0  0
   -0.7350   35.5430    1.6200 O   0  0  0  0  0  0  0  0  0  0  0  0
   -2.2495   33.2821    2.1440 C   0  0  1  0  0  0  0  0  0  0  0  0
   -2.6745   34.3686    1.3305 O   0  0  0  0  0  0  0  0  0  0  0  0
    1.9735   33.5390   -2.9297 C   0  0  1  0  0  0  0  0  0  0  0  0
    2.2590   34.7270   -3.6075 O   0  0  0  0  0  0  0  0  0  0  0  0
   -0.9725   37.2417    3.3696 C   0  0  2  0  0  0  0  0  0  0  0  0
   -1.3492   36.2545    4.3282 O   0  0  0  0  0  0  0  0  0  0  0  0
    1.7652   33.8603   -1.4889 C   0  0  1  0  0  0  0  0  0  0  0  0
    1.4842   32.6649   -0.8201 O   0  0  0  0  0  0  0  0  0  0  0  0
   -1.6975   38.5662    3.6877 C   0  0  1  0  0  0  0  0  0  0  0  0
   -1.3324   39.0254    4.9995 O   0  0  0  0  0  0  0  0  0  0  0  0
    3.0377   34.4605   -0.8589 C   0  0  0  0  0  0  0  0  0  0  0  0
    2.7957   34.7308    0.5172 O   0  0  0  0  0  0  0  0  0  0  0  0
   -0.7230   42.6089    2.1834 N   0  0  0  0  0  0  0  0  0  0  0  0
   -1.0387   38.2476   -2.3636 N   0  0  0  0  0  0  0  0  0  0  0  0
  1  2  1  0  0  0  0
  1 39  1  0  0  0  0
  3  4  1  0  0  0  0
  5  6  1  0  0  0  0
  5 40  1  0  0  0  0
  9 10  1  1  0  0  0
  9 14  1  0  0  0  0
  9 35  1  0  0  0  0
 10  1  1  0  0  0  0
 11 16  1  0  0  0  0
 11 28  1  0  0  0  0
 11 26  1  1  0  0  0
 12 17  1  0  0  0  0
 12 34  1  0  0  0  0
 12 13  1  6  0  0  0
 14 15  1  6  0  0  0
 14 19  1  0  0  0  0
 16 13  1  6  0  0  0
 16 21  1  0  0  0  0
 17 18  1  6  0  0  0
 17 23  1  0  0  0  0
 18  8  1  0  0  0  0
 19 20  1  6  0  0  0
 19 25  1  0  0  0  0
 20  5  1  0  0  0  0
 21  3  1  1  0  0  0
 21 22  1  0  0  0  0
 21 27  1  0  0  0  0
 23 24  1  6  0  0  0
 23 29  1  0  0  0  0
 25 26  1  6  0  0  0
 25 31  1  0  0  0  0
 27  7  1  6  0  0  0
 27 28  1  0  0  0  0
 29 30  1  6  0  0  0
 29 33  1  0  0  0  0
 31 32  1  1  0  0  0
 31 35  1  0  0  0  0
 33 34  1  0  0  0  0
 33 37  1  1  0  0  0
 35 36  1  1  0  0  0
 37 38  1  0  0  0  0
M  END
>  <CHROM.1>
-117.27835635,-96.26248142,178.02170261,176.27386340,171.72138492,-113.51339226
90.14302207,49.40879009,174.52258911,-85.88355931,-179.13613308,-0.51357966
35.52031103,0.44735198,-1.97633745,-1.13236056,-2.96873507

>  <Name>
1nta_lig

>  <RI>
0

>  <Rbt.Current_Directory>
/home/itssahil/PROJECTS/Mol_Feturizer/New_Systems/rnas/1nta

>  <Rbt.Executable>
rbdock ($Id: //depot/dev/client3/rdock/2013.1/src/exe/rbdock.cxx#4 $)

>  <Rbt.Library>
libRbt.so (2013.1, Build901 2013/11/27)

>  <Rbt.Parameter_File>
/export/apps/rDock/src/rDock_2013.1_src/data/scripts/dock_solv.prm

>  <Rbt.Receptor>
prm/pocket_docking_6.prm

>  <SCORE>
-26.5352

>  <SCORE.INTER>
-2.57554

>  <SCORE.INTER.CONST>
1

>  <SCORE.INTER.POLAR>
-1.09784

>  <SCORE.INTER.ROT>
11

>  <SCORE.INTER.SOLV>
8.59561

>  <SCORE.INTER.VDW>
-11.8561

>  <SCORE.INTER.norm>
-0.0643884

>  <SCORE.INTRA>
-23.9596

>  <SCORE.INTRA.DIHEDRAL>
-11.1527

>  <SCORE.INTRA.DIHEDRAL.0>
19.0336

>  <SCORE.INTRA.POLAR>
0

>  <SCORE.INTRA.POLAR.0>
0

>  <SCORE.INTRA.REPUL>
0.000201998

>  <SCORE.INTRA.REPUL.0>
0

>  <SCORE.INTRA.SOLV>
-3.2786

>  <SCORE.INTRA.SOLV.lig_0>
-97.5861

>  <SCORE.INTRA.VDW>
-16.745

>  <SCORE.INTRA.VDW.0>
11.7669

>  <SCORE.INTRA.norm>
-0.598991

>  <SCORE.RESTR>
0

>  <SCORE.RESTR.CAVITY>
0

>  <SCORE.RESTR.norm>
0

>  <SCORE.SYSTEM>
0

>  <SCORE.SYSTEM.CONST>
0

>  <SCORE.SYSTEM.DIHEDRAL>
0

>  <SCORE.SYSTEM.SOLV>
0

>  <SCORE.SYSTEM.norm>
0

>  <SCORE.heavy>
40

>  <SCORE.norm>
-0.66338

>  <RMSD>
8.254

$$$$
1nta_lig
 OpenBabel11021811403D
libRbt.so/2013.1/901 2013/11/27
 40 42  0  0  0  0  0  0  0  0999 V2000
   -3.8556   41.7838    2.6792 C   0  0  0  0  0  0  0  0  0  0  0  0
   -4.2409   42.8309    2.0505 N   0  0  0  0  0  0  0  0  0  0  0  0
   -0.2535   34.9885   -3.5080 C   0  0  0  0  0  0  0  0  0  0  0  0
   -1.3120   34.8577   -2.9337 O   0  0  0  0  0  0  0  0  0  0  0  0
   -1.1266   35.9345    2.4138 C   0  0  0  0  0  0  0  0  0  0  0  0
   -1.6244   35.8017    3.6156 N   0  0  0  0  0  0  0  0  0  0  0  0
    0.3353   37.9996   -4.7917 C   0  0  0  0  0  0  0  0  0  0  0  0
    1.2890   32.2332   -3.3450 C   0  0  0  0  0  0  0  0  0  0  0  0
   -2.3944   40.2680    1.5987 C   0  0  2  0  0  0  0  0  0  0  0  0
   -2.5816   41.4583    2.5190 N   0  0  0  0  0  0  0  0  0  0  0  0
    0.9254   37.3629   -1.3079 C   0  0  2  0  0  0  0  0  0  0  0  0
    2.4338   34.2226   -1.0696 C   0  0  1  0  0  0  0  0  0  0  0  0
    2.3923   35.5443   -1.4806 O   0  0  0  0  0  0  0  0  0  0  0  0
   -1.5150   39.2039    2.2824 C   0  0  1  0  0  0  0  0  0  0  0  0
   -2.2082   38.7598    3.4094 O   0  0  0  0  0  0  0  0  0  0  0  0
    1.1716   35.9408   -1.7998 C   0  0  2  0  0  0  0  0  0  0  0  0
    2.9554   33.2412   -2.0960 C   0  0  1  0  0  0  0  0  0  0  0  0
    2.1867   33.3745   -3.2849 N   0  0  0  0  0  0  0  0  0  0  0  0
   -1.2719   37.9830    1.3852 C   0  0  2  0  0  0  0  0  0  0  0  0
   -0.4244   36.9394    2.0103 N   0  0  0  0  0  0  0  0  0  0  0  0
    0.7650   36.0544   -3.2043 C   0  0  1  0  0  0  0  0  0  0  0  0
    1.9442   35.9140   -3.9993 O   0  0  0  0  0  0  0  0  0  0  0  0
    4.2887   33.4882   -2.3915 C   0  0  2  0  0  0  0  0  0  0  0  0
    4.7784   32.3818   -3.1063 O   0  0  0  0  0  0  0  0  0  0  0  0
   -0.6074   38.4638    0.1049 C   0  0  1  0  0  0  0  0  0  0  0  0
   -0.3882   37.3318   -0.7222 O   0  0  0  0  0  0  0  0  0  0  0  0
    0.2118   37.3961   -3.4270 C   0  0  1  0  0  0  0  0  0  0  0  0
    0.8462   38.1991   -2.4393 O   0  0  0  0  0  0  0  0  0  0  0  0
    5.0836   33.6593   -1.1236 C   0  0  1  0  0  0  0  0  0  0  0  0
    6.3551   34.1405   -1.4465 O   0  0  0  0  0  0  0  0  0  0  0  0
   -1.5129   39.5058   -0.6115 C   0  0  2  0  0  0  0  0  0  0  0  0
   -0.8780   39.9367   -1.8142 O   0  0  0  0  0  0  0  0  0  0  0  0
    4.4154   34.6575   -0.2407 C   0  0  1  0  0  0  0  0  0  0  0  0
    3.1465   34.1646    0.0790 O   0  0  0  0  0  0  0  0  0  0  0  0
   -1.7247   40.7191    0.3181 C   0  0  1  0  0  0  0  0  0  0  0  0
   -2.5592   41.6948   -0.3271 O   0  0  0  0  0  0  0  0  0  0  0  0
    5.1899   34.8459    1.0788 C   0  0  0  0  0  0  0  0  0  0  0  0
    4.4876   35.7664    1.9062 O   0  0  0  0  0  0  0  0  0  0  0  0
   -4.6519   41.0871    3.4159 N   0  0  0  0  0  0  0  0  0  0  0  0
   -1.3047   35.0139    1.5495 N   0  0  0  0  0  0  0  0  0  0  0  0
  1  2  1  0  0  0  0
  1 39  1  0  0  0  0
  3  4  1  0  0  0  0
  5  6  1  0  0  0  0
  5 40  1  0  0  0  0
  9 10  1  1  0  0  0
  9 14  1  0  0  0  0
  9 35  1  0  0  0  0
 10  1  1  0  0  0  0
 11 16  1  0  0  0  0
 11 28  1  0  0  0  0
 11 26  1  6  0  0  0
 12 17  1  0  0  0  0
 12 34  1  0  0  0  0
 12 13  1  6  0  0  0
 14 15  1  1  0  0  0
 14 19  1  0  0  0  0
 16 13  1  6  0  0  0
 16 21  1  0  0  0  0
 17 18  1  6  0  0  0
 17 23  1  0  0  0  0
 18  8  1  0  0  0  0
 19 20  1  1  0  0  0
 19 25  1  0  0  0  0
 20  5  1  0  0  0  0
 21  3  1  6  0  0  0
 21 22  1  0  0  0  0
 21 27  1  0  0  0  0
 23 24  1  1  0  0  0
 23 29  1  0  0  0  0
 25 26  1  6  0  0  0
 25 31  1  0  0  0  0
 27  7  1  6  0  0  0
 27 28  1  0  0  0  0
 29 30  1  6  0  0  0
 29 33  1  0  0  0  0
 31 32  1  6  0  0  0
 31 35  1  0  0  0  0
 33 34  1  0  0  0  0
 33 37  1  1  0  0  0
 35 36  1  6  0  0  0
 37 38  1  0  0  0  0
M  END
>  <CHROM.1>
-127.93491758,-104.96891202,163.48287146,102.73861607,140.21827940,-104.73141684
103.70361977,-92.24009774,58.37513167,-135.95832772,-177.78730744,0.50802720
36.85505722,-0.48781472,-2.71146403,0.78356312,-1.62006276

>  <Name>
1nta_lig

>  <RI>
0

>  <Rbt.Current_Directory>
/home/itssahil/PROJECTS/Mol_Feturizer/New_Systems/rnas/1nta

>  <Rbt.Executable>
rbdock ($Id: //depot/dev/client3/rdock/2013.1/src/exe/rbdock.cxx#4 $)

>  <Rbt.Library>
libRbt.so (2013.1, Build901 2013/11/27)

>  <Rbt.Parameter_File>
/export/apps/rDock/src/rDock_2013.1_src/data/scripts/dock_solv.prm

>  <Rbt.Receptor>
prm/pocket_docking_5.prm

>  <SCORE>
-23.0092

>  <SCORE.INTER>
-5.27408

>  <SCORE.INTER.CONST>
1

>  <SCORE.INTER.POLAR>
-1.62426

>  <SCORE.INTER.ROT>
11

>  <SCORE.INTER.SOLV>
9.69763

>  <SCORE.INTER.VDW>
-12.2677

>  <SCORE.INTER.norm>
-0.131852

>  <SCORE.INTRA>
-17.7352

>  <SCORE.INTRA.DIHEDRAL>
3.67958

>  <SCORE.INTRA.DIHEDRAL.0>
19.0336

>  <SCORE.INTRA.POLAR>
0

>  <SCORE.INTRA.POLAR.0>
0

>  <SCORE.INTRA.REPUL>
0

>  <SCORE.INTRA.REPUL.0>
0

>  <SCORE.INTRA.SOLV>
-3.22369

>  <SCORE.INTRA.SOLV.lig_0>
-97.5861

>  <SCORE.INTRA.VDW>
-17.9631

>  <SCORE.INTRA.VDW.0>
11.7669

>  <SCORE.INTRA.norm>
-0.443379

>  <SCORE.RESTR>
0

>  <SCORE.RESTR.CAVITY>
0

>  <SCORE.RESTR.norm>
0

>  <SCORE.SYSTEM>
0

>  <SCORE.SYSTEM.CONST>
0

>  <SCORE.SYSTEM.DIHEDRAL>
0

>  <SCORE.SYSTEM.SOLV>
0

>  <SCORE.SYSTEM.norm>
0

>  <SCORE.heavy>
40

>  <SCORE.norm>
-0.575231

>  <RMSD>
8.262

$$$$
1nta_lig
 OpenBabel11021811403D
libRbt.so/2013.1/901 2013/11/27
 40 42  0  0  0  0  0  0  0  0999 V2000
    4.2729   38.2420    1.3292 C   0  0  0  0  0  0  0  0  0  0  0  0
    4.6592   38.0944    2.5412 N   0  0  0  0  0  0  0  0  0  0  0  0
   10.5139   33.5689   -2.4815 C   0  0  0  0  0  0  0  0  0  0  0  0
   10.3416   34.1114   -3.5507 O   0  0  0  0  0  0  0  0  0  0  0  0
    9.8647   36.2837    0.6143 C   0  0  0  0  0  0  0  0  0  0  0  0
   10.5927   35.5710    1.4339 N   0  0  0  0  0  0  0  0  0  0  0  0
   11.5852   30.9021   -0.8077 C   0  0  0  0  0  0  0  0  0  0  0  0
    8.3760   31.1695   -6.3041 C   0  0  0  0  0  0  0  0  0  0  0  0
    5.2762   36.1303    0.9623 C   0  0  2  0  0  0  0  0  0  0  0  0
    4.1877   37.1280    0.6176 N   0  0  0  0  0  0  0  0  0  0  0  0
    8.1938   32.0268   -0.4548 C   0  0  2  0  0  0  0  0  0  0  0  0
    7.3477   32.7465   -3.8513 C   0  0  1  0  0  0  0  0  0  0  0  0
    7.5309   31.9965   -2.7018 O   0  0  0  0  0  0  0  0  0  0  0  0
    6.5767   36.4883    0.2183 C   0  0  1  0  0  0  0  0  0  0  0  0
    6.9873   37.7377    0.6858 O   0  0  0  0  0  0  0  0  0  0  0  0
    8.4108   32.5369   -1.8754 C   0  0  2  0  0  0  0  0  0  0  0  0
    6.6704   32.0240   -4.9950 C   0  0  1  0  0  0  0  0  0  0  0  0
    7.4003   30.8372   -5.2795 N   0  0  0  0  0  0  0  0  0  0  0  0
    7.7097   35.4959    0.5120 C   0  0  2  0  0  0  0  0  0  0  0  0
    8.9767   35.8075   -0.1921 N   0  0  0  0  0  0  0  0  0  0  0  0
    9.8466   32.2918   -2.0463 C   0  0  1  0  0  0  0  0  0  0  0  0
    9.9863   31.2535   -3.0181 O   0  0  0  0  0  0  0  0  0  0  0  0
    5.3655   31.6830   -4.6681 C   0  0  2  0  0  0  0  0  0  0  0  0
    4.7176   31.2939   -5.8529 O   0  0  0  0  0  0  0  0  0  0  0  0
    7.2395   34.1093    0.1018 C   0  0  1  0  0  0  0  0  0  0  0  0
    8.2892   33.1954    0.3787 O   0  0  0  0  0  0  0  0  0  0  0  0
   10.3971   31.8127   -0.7723 C   0  0  1  0  0  0  0  0  0  0  0  0
    9.2876   31.2019   -0.1250 O   0  0  0  0  0  0  0  0  0  0  0  0
    4.6494   32.8646   -4.0684 C   0  0  1  0  0  0  0  0  0  0  0  0
    3.4329   32.4340   -3.5327 O   0  0  0  0  0  0  0  0  0  0  0  0
    5.9511   33.7259    0.8839 C   0  0  2  0  0  0  0  0  0  0  0  0
    5.5320   32.4192    0.4935 O   0  0  0  0  0  0  0  0  0  0  0  0
    5.4683   33.4433   -2.9652 C   0  0  1  0  0  0  0  0  0  0  0  0
    6.6808   33.8740   -3.5126 O   0  0  0  0  0  0  0  0  0  0  0  0
    4.8361   34.7404    0.5544 C   0  0  1  0  0  0  0  0  0  0  0  0
    3.6353   34.4023    1.2676 O   0  0  0  0  0  0  0  0  0  0  0  0
    4.7767   34.6699   -2.3379 C   0  0  0  0  0  0  0  0  0  0  0  0
    3.5299   34.2699   -1.7805 O   0  0  0  0  0  0  0  0  0  0  0  0
    3.9897   39.3961    0.8291 N   0  0  0  0  0  0  0  0  0  0  0  0
    9.9930   37.5524    0.5937 N   0  0  0  0  0  0  0  0  0  0  0  0
  1  2  1  0  0  0  0
  1 39  1  0  0  0  0
  3  4  1  0  0  0  0
  5  6  1  0  0  0  0
  5 40  1  0  0  0  0
  9 10  1  6  0  0  0
  9 14  1  0  0  0  0
  9 35  1  0  0  0  0
 10  1  1  0  0  0  0
 11 16  1  0  0  0  0
 11 28  1  0  0  0  0
 11 26  1  1  0  0  0
 12 17  1  0  0  0  0
 12 34  1  0  0  0  0
 12 13  1  1  0  0  0
 14 15  1  1  0  0  0
 14 19  1  0  0  0  0
 16 13  1  6  0  0  0
 16 21  1  0  0  0  0
 17 18  1  1  0  0  0
 17 23  1  0  0  0  0
 18  8  1  0  0  0  0
 19 20  1  6  0  0  0
 19 25  1  0  0  0  0
 20  5  1  0  0  0  0
 21  3  1  6  0  0  0
 21 22  1  0  0  0  0
 21 27  1  0  0  0  0
 23 24  1  6  0  0  0
 23 29  1  0  0  0  0
 25 26  1  1  0  0  0
 25 31  1  0  0  0  0
 27  7  1  6  0  0  0
 27 28  1  0  0  0  0
 29 30  1  1  0  0  0
 29 33  1  0  0  0  0
 31 32  1  6  0  0  0
 31 35  1  0  0  0  0
 33 34  1  0  0  0  0
 33 37  1  6  0  0  0
 35 36  1  1  0  0  0
 37 38  1  0  0  0  0
M  END
>  <CHROM.1>
-81.87029823,-36.04001280,64.67167464,163.68492404,157.88230298,-91.83127117
106.38786216,78.79077633,-67.42027135,-155.38018820,61.48192916,7.06905155
33.94875004,-1.35795606,1.89315155,-0.24199279,0.82909276

>  <Name>
1nta_lig

>  <RI>
0

>  <Rbt.Current_Directory>
/home/itssahil/PROJECTS/Mol_Feturizer/New_Systems/rnas/1nta

>  <Rbt.Executable>
rbdock ($Id: //depot/dev/client3/rdock/2013.1/src/exe/rbdock.cxx#4 $)

>  <Rbt.Library>
libRbt.so (2013.1, Build901 2013/11/27)

>  <Rbt.Parameter_File>
/export/apps/rDock/src/rDock_2013.1_src/data/scripts/dock_solv.prm

>  <Rbt.Receptor>
prm/blind_docking_60.prm

>  <SCORE>
85.9167

>  <SCORE.INTER>
106.419

>  <SCORE.INTER.CONST>
1

>  <SCORE.INTER.POLAR>
-1.42843

>  <SCORE.INTER.ROT>
11

>  <SCORE.INTER.SOLV>
54.4133

>  <SCORE.INTER.VDW>
46.6366

>  <SCORE.INTER.norm>
2.66048

>  <SCORE.INTRA>
-20.8571

>  <SCORE.INTRA.DIHEDRAL>
-9.08754

>  <SCORE.INTRA.DIHEDRAL.0>
19.0336

>  <SCORE.INTRA.POLAR>
0

>  <SCORE.INTRA.POLAR.0>
0

>  <SCORE.INTRA.REPUL>
0

>  <SCORE.INTRA.REPUL.0>
0

>  <SCORE.INTRA.SOLV>
-1.39346

>  <SCORE.INTRA.SOLV.lig_0>
-97.5861

>  <SCORE.INTRA.VDW>
-15.6166

>  <SCORE.INTRA.VDW.0>
11.7669

>  <SCORE.INTRA.norm>
-0.521427

>  <SCORE.RESTR>
0.354409

>  <SCORE.RESTR.CAVITY>
0.354409

>  <SCORE.RESTR.norm>
0.00886021

>  <SCORE.SYSTEM>
0

>  <SCORE.SYSTEM.CONST>
0

>  <SCORE.SYSTEM.DIHEDRAL>
0

>  <SCORE.SYSTEM.SOLV>
0

>  <SCORE.SYSTEM.norm>
0

>  <SCORE.heavy>
40

>  <SCORE.norm>
2.14792

>  <RMSD>
8.281

$$$$
1nta_lig
 OpenBabel11021811403D
libRbt.so/2013.1/901 2013/11/27
 40 42  0  0  0  0  0  0  0  0999 V2000
    2.6108   35.5389    1.5468 C   0  0  0  0  0  0  0  0  0  0  0  0
    2.1043   34.4098    1.8766 N   0  0  0  0  0  0  0  0  0  0  0  0
    6.2571   29.9751   -5.2916 C   0  0  0  0  0  0  0  0  0  0  0  0
    5.9205   29.2897   -6.2319 O   0  0  0  0  0  0  0  0  0  0  0  0
    1.5951   33.8339   -3.0405 C   0  0  0  0  0  0  0  0  0  0  0  0
    1.3016   32.6324   -3.4647 N   0  0  0  0  0  0  0  0  0  0  0  0
    5.0955   32.3090   -7.3568 C   0  0  0  0  0  0  0  0  0  0  0  0
   11.2638   30.2891   -3.9860 C   0  0  0  0  0  0  0  0  0  0  0  0
    4.3858   34.9026    0.1168 C   0  0  2  0  0  0  0  0  0  0  0  0
    3.9279   35.5546    1.4069 N   0  0  0  0  0  0  0  0  0  0  0  0
    5.4450   32.9969   -3.8503 C   0  0  2  0  0  0  0  0  0  0  0  0
    8.3822   31.7113   -2.6428 C   0  0  1  0  0  0  0  0  0  0  0  0
    7.7159   32.4921   -3.5722 O   0  0  0  0  0  0  0  0  0  0  0  0
    3.2949   35.0408   -0.9620 C   0  0  1  0  0  0  0  0  0  0  0  0
    3.1351   36.4044   -1.2129 O   0  0  0  0  0  0  0  0  0  0  0  0
    6.5629   31.9645   -3.9484 C   0  0  2  0  0  0  0  0  0  0  0  0
    9.8897   31.6980   -2.7696 C   0  0  1  0  0  0  0  0  0  0  0  0
   10.2316   31.3065   -4.0933 N   0  0  0  0  0  0  0  0  0  0  0  0
    3.6955   34.3766   -2.2860 C   0  0  2  0  0  0  0  0  0  0  0  0
    2.6658   34.4862   -3.3470 N   0  0  0  0  0  0  0  0  0  0  0  0
    6.3751   31.4754   -5.3182 C   0  0  1  0  0  0  0  0  0  0  0  0
    7.5007   31.9132   -6.0821 O   0  0  0  0  0  0  0  0  0  0  0  0
   10.4235   32.9543   -2.5192 C   0  0  2  0  0  0  0  0  0  0  0  0
   11.8118   32.8034   -2.3622 O   0  0  0  0  0  0  0  0  0  0  0  0
    3.9733   32.9072   -2.0109 C   0  0  1  0  0  0  0  0  0  0  0  0
    4.3466   32.2988   -3.2374 O   0  0  0  0  0  0  0  0  0  0  0  0
    5.1660   32.0932   -5.8768 C   0  0  1  0  0  0  0  0  0  0  0  0
    5.0421   33.3167   -5.1622 O   0  0  0  0  0  0  0  0  0  0  0  0
    9.8350   33.5323   -1.2590 C   0  0  1  0  0  0  0  0  0  0  0  0
   10.2015   34.8772   -1.1621 O   0  0  0  0  0  0  0  0  0  0  0  0
    5.1055   32.7632   -0.9545 C   0  0  2  0  0  0  0  0  0  0  0  0
    5.3585   31.3792   -0.7179 O   0  0  0  0  0  0  0  0  0  0  0  0
    8.3473   33.4553   -1.3160 C   0  0  1  0  0  0  0  0  0  0  0  0
    7.9918   32.1061   -1.4089 O   0  0  0  0  0  0  0  0  0  0  0  0
    4.6603   33.4341    0.3618 C   0  0  1  0  0  0  0  0  0  0  0  0
    5.6941   33.3107    1.3523 O   0  0  0  0  0  0  0  0  0  0  0  0
    7.7072   34.0201   -0.0324 C   0  0  0  0  0  0  0  0  0  0  0  0
    8.2282   35.3205    0.2171 O   0  0  0  0  0  0  0  0  0  0  0  0
    1.8915   36.5936    1.3668 N   0  0  0  0  0  0  0  0  0  0  0  0
    0.7787   34.4547   -2.2825 N   0  0  0  0  0  0  0  0  0  0  0  0
  1  2  1  0  0  0  0
  1 39  1  0  0  0  0
  3  4  1  0  0  0  0
  5  6  1  0  0  0  0
  5 40  1  0  0  0  0
  9 10  1  1  0  0  0
  9 14  1  0  0  0  0
  9 35  1  0  0  0  0
 10  1  1  0  0  0  0
 11 16  1  0  0  0  0
 11 28  1  0  0  0  0
 11 26  1  1  0  0  0
 12 17  1  0  0  0  0
 12 34  1  0  0  0  0
 12 13  1  6  0  0  0
 14 15  1  6  0  0  0
 14 19  1  0  0  0  0
 16 13  1  6  0  0  0
 16 21  1  0  0  0  0
 17 18  1  6  0  0  0
 17 23  1  0  0  0  0
 18  8  1  0  0  0  0
 19 20  1  6  0  0  0
 19 25  1  0  0  0  0
 20  5  1  0  0  0  0
 21  3  1  6  0  0  0
 21 22  1  0  0  0  0
 21 27  1  0  0  0  0
 23 24  1  1  0  0  0
 23 29  1  0  0  0  0
 25 26  1  6  0  0  0
 25 31  1  0  0  0  0
 27  7  1  6  0  0  0
 27 28  1  0  0  0  0
 29 30  1  6  0  0  0
 29 33  1  0  0  0  0
 31 32  1  1  0  0  0
 31 35  1  0  0  0  0
 33 34  1  0  0  0  0
 33 37  1  1  0  0  0
 35 36  1  1  0  0  0
 37 38  1  0  0  0  0
M  END
>  <CHROM.1>
28.54480499,75.65195941,119.62431354,144.19416486,130.06474867,-132.64866593
-65.56207358,-98.19544102,169.67984840,54.38245341,52.22790712,5.94903729
33.14167136,-2.30593932,-2.51908152,0.16269835,-2.06380965

>  <Name>
1nta_lig

>  <RI>
9.25352e+06

>  <Rbt.Current_Directory>
/home/itssahil/PROJECTS/Mol_Feturizer/New_Systems/rnas/1nta

>  <Rbt.Executable>
rbdock ($Id: //depot/dev/client3/rdock/2013.1/src/exe/rbdock.cxx#4 $)

>  <Rbt.Library>
libRbt.so (2013.1, Build901 2013/11/27)

>  <Rbt.Parameter_File>
/export/apps/rDock/src/rDock_2013.1_src/data/scripts/dock_solv.prm

>  <Rbt.Receptor>
prm/blind_docking_40.prm

>  <SCORE>
73.8546

>  <SCORE.INTER>
75.0733

>  <SCORE.INTER.CONST>
1

>  <SCORE.INTER.POLAR>
-2.76197

>  <SCORE.INTER.ROT>
11

>  <SCORE.INTER.SOLV>
34.8155

>  <SCORE.INTER.VDW>
36.7169

>  <SCORE.INTER.norm>
1.87683

>  <SCORE.INTRA>
-5.64193

>  <SCORE.INTRA.DIHEDRAL>
3.1565

>  <SCORE.INTRA.DIHEDRAL.0>
19.0336

>  <SCORE.INTRA.POLAR>
0

>  <SCORE.INTRA.POLAR.0>
0

>  <SCORE.INTRA.REPUL>
0

>  <SCORE.INTRA.REPUL.0>
0

>  <SCORE.INTRA.SOLV>
1.94255

>  <SCORE.INTRA.SOLV.lig_0>
-97.5861

>  <SCORE.INTRA.VDW>
-8.19145

>  <SCORE.INTRA.VDW.0>
11.7669

>  <SCORE.INTRA.norm>
-0.141048

>  <SCORE.RESTR>
4.42324

>  <SCORE.RESTR.CAVITY>
4.42324

>  <SCORE.RESTR.norm>
0.110581

>  <SCORE.SYSTEM>
0

>  <SCORE.SYSTEM.CONST>
0

>  <SCORE.SYSTEM.DIHEDRAL>
0

>  <SCORE.SYSTEM.SOLV>
0

>  <SCORE.SYSTEM.norm>
0

>  <SCORE.heavy>
40

>  <SCORE.norm>
1.84636

>  <RMSD>
8.357

$$$$
1nta_lig
 OpenBabel11021811403D
libRbt.so/2013.1/901 2013/11/27
 40 42  0  0  0  0  0  0  0  0999 V2000
   -3.1711   31.7903    5.3898 C   0  0  0  0  0  0  0  0  0  0  0  0
   -4.2810   31.1581    5.4827 N   0  0  0  0  0  0  0  0  0  0  0  0
    0.7322   36.3927   -2.2272 C   0  0  0  0  0  0  0  0  0  0  0  0
    1.3534   37.4034   -1.9825 O   0  0  0  0  0  0  0  0  0  0  0  0
   -3.7500   31.5064   -0.9407 C   0  0  0  0  0  0  0  0  0  0  0  0
   -4.6672   30.5921   -0.7606 N   0  0  0  0  0  0  0  0  0  0  0  0
    3.1175   35.0119   -0.3658 C   0  0  0  0  0  0  0  0  0  0  0  0
   -2.8724   35.5449   -3.7974 C   0  0  0  0  0  0  0  0  0  0  0  0
   -2.2055   32.1948    3.2674 C   0  0  2  0  0  0  0  0  0  0  0  0
   -2.3163   31.3143    4.4968 N   0  0  0  0  0  0  0  0  0  0  0  0
    0.2399   33.0998   -1.3424 C   0  0  2  0  0  0  0  0  0  0  0  0
   -0.8601   33.1171   -4.2700 C   0  0  1  0  0  0  0  0  0  0  0  0
    0.3634   33.3582   -3.6677 O   0  0  0  0  0  0  0  0  0  0  0  0
   -2.4387   31.3585    1.9950 C   0  0  1  0  0  0  0  0  0  0  0  0
   -3.7480   30.8785    2.0525 O   0  0  0  0  0  0  0  0  0  0  0  0
    0.2511   34.0421   -2.5413 C   0  0  2  0  0  0  0  0  0  0  0  0
   -1.4247   34.2683   -5.0730 C   0  0  1  0  0  0  0  0  0  0  0  0
   -1.4931   35.4163   -4.2367 N   0  0  0  0  0  0  0  0  0  0  0  0
   -2.3150   32.1958    0.7150 C   0  0  2  0  0  0  0  0  0  0  0  0
   -2.5291   31.4210   -0.5308 N   0  0  0  0  0  0  0  0  0  0  0  0
    1.2890   34.9971   -2.1390 C   0  0  1  0  0  0  0  0  0  0  0  0
    2.4025   34.8057   -3.0139 O   0  0  0  0  0  0  0  0  0  0  0  0
   -0.6215   34.5554   -6.1677 C   0  0  2  0  0  0  0  0  0  0  0  0
   -1.3457   35.4126   -7.0138 O   0  0  0  0  0  0  0  0  0  0  0  0
   -0.9248   32.8109    0.6868 C   0  0  1  0  0  0  0  0  0  0  0  0
   -0.8172   33.5866   -0.4966 O   0  0  0  0  0  0  0  0  0  0  0  0
    1.7143   34.6808   -0.7698 C   0  0  1  0  0  0  0  0  0  0  0  0
    1.4449   33.2905   -0.6374 O   0  0  0  0  0  0  0  0  0  0  0  0
   -0.2752   33.2914   -6.9099 C   0  0  1  0  0  0  0  0  0  0  0  0
    0.7174   33.5753   -7.8514 O   0  0  0  0  0  0  0  0  0  0  0  0
   -0.7018   33.6923    1.9485 C   0  0  2  0  0  0  0  0  0  0  0  0
    0.6025   34.2682    1.8987 O   0  0  0  0  0  0  0  0  0  0  0  0
    0.2597   32.2777   -5.9565 C   0  0  1  0  0  0  0  0  0  0  0  0
   -0.7423   31.9985   -5.0219 O   0  0  0  0  0  0  0  0  0  0  0  0
   -0.8247   32.8129    3.2106 C   0  0  1  0  0  0  0  0  0  0  0  0
   -0.6205   33.6099    4.3887 O   0  0  0  0  0  0  0  0  0  0  0  0
    0.6077   30.9599   -6.6765 C   0  0  0  0  0  0  0  0  0  0  0  0
   -0.5731   30.4179   -7.2570 O   0  0  0  0  0  0  0  0  0  0  0  0
   -2.8975   32.8184    6.1180 N   0  0  0  0  0  0  0  0  0  0  0  0
   -4.0338   32.5695   -1.5852 N   0  0  0  0  0  0  0  0  0  0  0  0
  1  2  1  0  0  0  0
  1 39  1  0  0  0  0
  3  4  1  0  0  0  0
  5  6  1  0  0  0  0
  5 40  1  0  0  0  0
  9 10  1  1  0  0  0
  9 14  1  0  0  0  0
  9 35  1  0  0  0  0
 10  1  1  0  0  0  0
 11 16  1  0  0  0  0
 11 28  1  0  0  0  0
 11 26  1  1  0  0  0
 12 17  1  0  0  0  0
 12 34  1  0  0  0  0
 12 13  1  6  0  0  0
 14 15  1  1  0  0  0
 14 19  1  0  0  0  0
 16 13  1  6  0  0  0
 16 21  1  0  0  0  0
 17 18  1  1  0  0  0
 17 23  1  0  0  0  0
 18  8  1  0  0  0  0
 19 20  1  6  0  0  0
 19 25  1  0  0  0  0
 20  5  1  0  0  0  0
 21  3  1  6  0  0  0
 21 22  1  0  0  0  0
 21 27  1  0  0  0  0
 23 24  1  6  0  0  0
 23 29  1  0  0  0  0
 25 26  1  6  0  0  0
 25 31  1  0  0  0  0
 27  7  1  6  0  0  0
 27 28  1  0  0  0  0
 29 30  1  6  0  0  0
 29 33  1  0  0  0  0
 31 32  1  6  0  0  0
 31 35  1  0  0  0  0
 33 34  1  0  0  0  0
 33 37  1  6  0  0  0
 35 36  1  1  0  0  0
 37 38  1  0  0  0  0
M  END
>  <CHROM.1>
-127.03085081,106.95400544,-178.75706974,80.47001382,96.15328419,-100.61882330
95.10798780,-100.55014937,-178.60829367,-119.36670776,-61.54507371,-0.89817575
33.23429864,-1.34241625,1.88769819,0.71453837,1.51391877

>  <Name>
1nta_lig

>  <RI>
0

>  <Rbt.Current_Directory>
/home/itssahil/PROJECTS/Mol_Feturizer/New_Systems/rnas/1nta

>  <Rbt.Executable>
rbdock ($Id: //depot/dev/client3/rdock/2013.1/src/exe/rbdock.cxx#4 $)

>  <Rbt.Library>
libRbt.so (2013.1, Build901 2013/11/27)

>  <Rbt.Parameter_File>
/export/apps/rDock/src/rDock_2013.1_src/data/scripts/dock_solv.prm

>  <Rbt.Receptor>
prm/pocket_docking_7.prm

>  <SCORE>
-22.7301

>  <SCORE.INTER>
-2.6139

>  <SCORE.INTER.CONST>
1

>  <SCORE.INTER.POLAR>
-0.95315

>  <SCORE.INTER.ROT>
11

>  <SCORE.INTER.SOLV>
8.8993

>  <SCORE.INTER.VDW>
-12.4652

>  <SCORE.INTER.norm>
-0.0653474

>  <SCORE.INTRA>
-20.1162

>  <SCORE.INTRA.DIHEDRAL>
-1.26235

>  <SCORE.INTRA.DIHEDRAL.0>
19.0336

>  <SCORE.INTRA.POLAR>
0

>  <SCORE.INTRA.POLAR.0>
0

>  <SCORE.INTRA.REPUL>
0

>  <SCORE.INTRA.REPUL.0>
0

>  <SCORE.INTRA.SOLV>
-3.02199

>  <SCORE.INTRA.SOLV.lig_0>
-97.5861

>  <SCORE.INTRA.VDW>
-17.974

>  <SCORE.INTRA.VDW.0>
11.7669

>  <SCORE.INTRA.norm>
-0.502905

>  <SCORE.RESTR>
0

>  <SCORE.RESTR.CAVITY>
0

>  <SCORE.RESTR.norm>
0

>  <SCORE.SYSTEM>
0

>  <SCORE.SYSTEM.CONST>
0

>  <SCORE.SYSTEM.DIHEDRAL>
0

>  <SCORE.SYSTEM.SOLV>
0

>  <SCORE.SYSTEM.norm>
0

>  <SCORE.heavy>
40

>  <SCORE.norm>
-0.568252

>  <RMSD>
8.371

$$$$
1nta_lig
 OpenBabel11021811403D
libRbt.so/2013.1/901 2013/11/27
 40 42  0  0  0  0  0  0  0  0999 V2000
   -7.1545   35.9493    0.9602 C   0  0  0  0  0  0  0  0  0  0  0  0
   -8.0127   35.4018    0.1832 N   0  0  0  0  0  0  0  0  0  0  0  0
    1.1245   32.8976   -3.2683 C   0  0  0  0  0  0  0  0  0  0  0  0
    1.0797   32.3575   -4.3516 O   0  0  0  0  0  0  0  0  0  0  0  0
   -1.5260   34.9053    2.7460 C   0  0  0  0  0  0  0  0  0  0  0  0
   -1.8694   35.4094    3.9026 N   0  0  0  0  0  0  0  0  0  0  0  0
   -0.0701   35.4839   -4.9846 C   0  0  0  0  0  0  0  0  0  0  0  0
    1.0971   32.3196    0.9738 C   0  0  0  0  0  0  0  0  0  0  0  0
   -4.9791   35.7654    0.0466 C   0  0  2  0  0  0  0  0  0  0  0  0
   -6.1884   36.6258    0.3571 N   0  0  0  0  0  0  0  0  0  0  0  0
    0.1121   35.6100   -1.4011 C   0  0  2  0  0  0  0  0  0  0  0  0
    2.5079   34.9401    0.2572 C   0  0  1  0  0  0  0  0  0  0  0  0
    2.3927   35.1626   -1.1047 O   0  0  0  0  0  0  0  0  0  0  0  0
   -3.8294   36.0995    1.0158 C   0  0  1  0  0  0  0  0  0  0  0  0
   -4.2641   35.7670    2.2997 O   0  0  0  0  0  0  0  0  0  0  0  0
    1.2819   34.6549   -1.6121 C   0  0  2  0  0  0  0  0  0  0  0  0
    3.0163   33.5701    0.6490 C   0  0  1  0  0  0  0  0  0  0  0  0
    2.1842   32.5865    0.0470 N   0  0  0  0  0  0  0  0  0  0  0  0
   -2.5679   35.2729    0.7324 C   0  0  2  0  0  0  0  0  0  0  0  0
   -1.4381   35.5722    1.6445 N   0  0  0  0  0  0  0  0  0  0  0  0
    1.1703   34.3862   -3.0495 C   0  0  1  0  0  0  0  0  0  0  0  0
    2.3013   34.9885   -3.6820 O   0  0  0  0  0  0  0  0  0  0  0  0
    4.3222   33.3799    0.2193 C   0  0  2  0  0  0  0  0  0  0  0  0
    4.8194   32.2338    0.8630 O   0  0  0  0  0  0  0  0  0  0  0  0
   -2.1377   35.5459   -0.7002 C   0  0  1  0  0  0  0  0  0  0  0  0
   -0.9735   34.7766   -0.9580 O   0  0  0  0  0  0  0  0  0  0  0  0
   -0.0454   35.0348   -3.5564 C   0  0  1  0  0  0  0  0  0  0  0  0
   -0.2558   36.1204   -2.6619 O   0  0  0  0  0  0  0  0  0  0  0  0
    5.1721   34.5691    0.5825 C   0  0  1  0  0  0  0  0  0  0  0  0
    6.4054   34.4603   -0.0652 O   0  0  0  0  0  0  0  0  0  0  0  0
   -3.2802   35.1678   -1.6854 C   0  0  2  0  0  0  0  0  0  0  0  0
   -2.8543   35.4208   -3.0232 O   0  0  0  0  0  0  0  0  0  0  0  0
    4.5095   35.8221    0.1206 C   0  0  1  0  0  0  0  0  0  0  0  0
    3.2790   35.9227    0.7772 O   0  0  0  0  0  0  0  0  0  0  0  0
   -4.5243   36.0259   -1.3737 C   0  0  1  0  0  0  0  0  0  0  0  0
   -5.5922   35.6917   -2.2752 O   0  0  0  0  0  0  0  0  0  0  0  0
    5.3409   37.0657    0.4925 C   0  0  0  0  0  0  0  0  0  0  0  0
    5.4582   37.1439    1.9085 O   0  0  0  0  0  0  0  0  0  0  0  0
   -7.2194   35.8474    2.2438 N   0  0  0  0  0  0  0  0  0  0  0  0
   -1.2244   33.6692    2.6586 N   0  0  0  0  0  0  0  0  0  0  0  0
  1  2  1  0  0  0  0
  1 39  1  0  0  0  0
  3  4  1  0  0  0  0
  5  6  1  0  0  0  0
  5 40  1  0  0  0  0
  9 10  1  1  0  0  0
  9 14  1  0  0  0  0
  9 35  1  0  0  0  0
 10  1  1  0  0  0  0
 11 16  1  0  0  0  0
 11 28  1  0  0  0  0
 11 26  1  6  0  0  0
 12 17  1  0  0  0  0
 12 34  1  0  0  0  0
 12 13  1  6  0  0  0
 14 15  1  1  0  0  0
 14 19  1  0  0  0  0
 16 13  1  6  0  0  0
 16 21  1  0  0  0  0
 17 18  1  6  0  0  0
 17 23  1  0  0  0  0
 18  8  1  0  0  0  0
 19 20  1  1  0  0  0
 19 25  1  0  0  0  0
 20  5  1  0  0  0  0
 21  3  1  6  0  0  0
 21 22  1  0  0  0  0
 21 27  1  0  0  0  0
 23 24  1  1  0  0  0
 23 29  1  0  0  0  0
 25 26  1  6  0  0  0
 25 31  1  0  0  0  0
 27  7  1  6  0  0  0
 27 28  1  0  0  0  0
 29 30  1  6  0  0  0
 29 33  1  0  0  0  0
 31 32  1  6  0  0  0
 31 35  1  0  0  0  0
 33 34  1  0  0  0  0
 33 37  1  1  0  0  0
 35 36  1  6  0  0  0
 37 38  1  0  0  0  0
M  END
>  <CHROM.1>
-105.82501294,-90.12000189,179.10788201,80.95799501,82.89929512,-89.09822254
84.30638524,-106.03658335,-177.34917555,-124.06407333,-61.60456322,-0.25113758
34.98505678,-0.38118341,-3.07514839,0.11343452,-1.67177081

>  <Name>
1nta_lig

>  <RI>
0

>  <Rbt.Current_Directory>
/home/itssahil/PROJECTS/Mol_Feturizer/New_Systems/rnas/1nta

>  <Rbt.Executable>
rbdock ($Id: //depot/dev/client3/rdock/2013.1/src/exe/rbdock.cxx#4 $)

>  <Rbt.Library>
libRbt.so (2013.1, Build901 2013/11/27)

>  <Rbt.Parameter_File>
/export/apps/rDock/src/rDock_2013.1_src/data/scripts/dock_solv.prm

>  <Rbt.Receptor>
prm/pocket_docking_7.prm

>  <SCORE>
-24.2765

>  <SCORE.INTER>
-3.76684

>  <SCORE.INTER.CONST>
1

>  <SCORE.INTER.POLAR>
-1.14496

>  <SCORE.INTER.ROT>
11

>  <SCORE.INTER.SOLV>
10.1742

>  <SCORE.INTER.VDW>
-13.0194

>  <SCORE.INTER.norm>
-0.0941711

>  <SCORE.INTRA>
-20.5193

>  <SCORE.INTRA.DIHEDRAL>
-4.37099

>  <SCORE.INTRA.DIHEDRAL.0>
19.0336

>  <SCORE.INTRA.POLAR>
0

>  <SCORE.INTRA.POLAR.0>
0

>  <SCORE.INTRA.REPUL>
0

>  <SCORE.INTRA.REPUL.0>
0

>  <SCORE.INTRA.SOLV>
-2.61945

>  <SCORE.INTRA.SOLV.lig_0>
-97.5861

>  <SCORE.INTRA.VDW>
-17.0241

>  <SCORE.INTRA.VDW.0>
11.7669

>  <SCORE.INTRA.norm>
-0.512983

>  <SCORE.RESTR>
0.00966611

>  <SCORE.RESTR.CAVITY>
0.00966611

>  <SCORE.RESTR.norm>
0.000241653

>  <SCORE.SYSTEM>
0

>  <SCORE.SYSTEM.CONST>
0

>  <SCORE.SYSTEM.DIHEDRAL>
0

>  <SCORE.SYSTEM.SOLV>
0

>  <SCORE.SYSTEM.norm>
0

>  <SCORE.heavy>
40

>  <SCORE.norm>
-0.606913

>  <RMSD>
8.386

$$$$
1nta_lig
 OpenBabel11021811403D
libRbt.so/2013.1/901 2013/11/27
 40 42  0  0  0  0  0  0  0  0999 V2000
   -2.5870   33.4323   -7.6747 C   0  0  0  0  0  0  0  0  0  0  0  0
   -2.9455   34.5809   -8.1131 N   0  0  0  0  0  0  0  0  0  0  0  0
    2.5826   34.7069    0.8977 C   0  0  0  0  0  0  0  0  0  0  0  0
    3.5301   35.4319    1.1074 O   0  0  0  0  0  0  0  0  0  0  0  0
    0.7749   37.1032   -3.7975 C   0  0  0  0  0  0  0  0  0  0  0  0
    0.4901   38.0766   -4.6228 N   0  0  0  0  0  0  0  0  0  0  0  0
    0.7988   31.9228    1.2554 C   0  0  0  0  0  0  0  0  0  0  0  0
    6.5934   35.5392    0.5928 C   0  0  0  0  0  0  0  0  0  0  0  0
   -0.9660   33.4971   -5.9516 C   0  0  2  0  0  0  0  0  0  0  0  0
   -1.2944   33.2973   -7.4183 N   0  0  0  0  0  0  0  0  0  0  0  0
    2.2189   32.7738   -1.9305 C   0  0  2  0  0  0  0  0  0  0  0  0
    5.3467   33.9495   -1.7887 C   0  0  1  0  0  0  0  0  0  0  0  0
    4.4697   32.9875   -1.3163 O   0  0  0  0  0  0  0  0  0  0  0  0
    0.0278   34.6624   -5.7860 C   0  0  1  0  0  0  0  0  0  0  0  0
   -0.6143   35.8175   -6.2349 O   0  0  0  0  0  0  0  0  0  0  0  0
    3.2648   33.4735   -1.0692 C   0  0  2  0  0  0  0  0  0  0  0  0
    6.7000   33.9799   -1.1131 C   0  0  1  0  0  0  0  0  0  0  0  0
    6.5059   34.1208    0.2886 N   0  0  0  0  0  0  0  0  0  0  0  0
    0.4151   34.8956   -4.3196 C   0  0  2  0  0  0  0  0  0  0  0  0
    1.3753   36.0082   -4.1232 N   0  0  0  0  0  0  0  0  0  0  0  0
    2.6645   33.3447    0.2627 C   0  0  1  0  0  0  0  0  0  0  0  0
    3.4877   32.4497    1.0133 O   0  0  0  0  0  0  0  0  0  0  0  0
    7.4058   32.8097   -1.3548 C   0  0  2  0  0  0  0  0  0  0  0  0
    8.7370   33.0261   -0.9597 O   0  0  0  0  0  0  0  0  0  0  0  0
    1.0251   33.6103   -3.7832 C   0  0  1  0  0  0  0  0  0  0  0  0
    1.3780   33.8304   -2.4264 O   0  0  0  0  0  0  0  0  0  0  0  0
    1.3324   32.7435    0.1224 C   0  0  1  0  0  0  0  0  0  0  0  0
    1.4208   31.9855   -1.0778 O   0  0  0  0  0  0  0  0  0  0  0  0
    7.3661   32.4669   -2.8209 C   0  0  1  0  0  0  0  0  0  0  0  0
    7.8700   31.1759   -2.9991 O   0  0  0  0  0  0  0  0  0  0  0  0
    0.0080   32.4404   -3.9077 C   0  0  2  0  0  0  0  0  0  0  0  0
    0.5941   31.2470   -3.3903 O   0  0  0  0  0  0  0  0  0  0  0  0
    5.9566   32.4906   -3.3061 C   0  0  1  0  0  0  0  0  0  0  0  0
    5.4639   33.7869   -3.1267 O   0  0  0  0  0  0  0  0  0  0  0  0
   -0.3474   32.2325   -5.3949 C   0  0  1  0  0  0  0  0  0  0  0  0
   -1.2867   31.1536   -5.5312 O   0  0  0  0  0  0  0  0  0  0  0  0
    5.8760   32.1637   -4.8104 C   0  0  0  0  0  0  0  0  0  0  0  0
    6.2858   30.8171   -5.0192 O   0  0  0  0  0  0  0  0  0  0  0  0
   -3.4235   32.4674   -7.4978 N   0  0  0  0  0  0  0  0  0  0  0  0
    0.4750   37.2120   -2.5627 N   0  0  0  0  0  0  0  0  0  0  0  0
  1  2  1  0  0  0  0
  1 39  1  0  0  0  0
  3  4  1  0  0  0  0
  5  6  1  0  0  0  0
  5 40  1  0  0  0  0
  9 10  1  6  0  0  0
  9 14  1  0  0  0  0
  9 35  1  0  0  0  0
 10  1  1  0  0  0  0
 11 16  1  0  0  0  0
 11 28  1  0  0  0  0
 11 26  1  1  0  0  0
 12 17  1  0  0  0  0
 12 34  1  0  0  0  0
 12 13  1  1  0  0  0
 14 15  1  1  0  0  0
 14 19  1  0  0  0  0
 16 13  1  1  0  0  0
 16 21  1  0  0  0  0
 17 18  1  1  0  0  0
 17 23  1  0  0  0  0
 18  8  1  0  0  0  0
 19 20  1  6  0  0  0
 19 25  1  0  0  0  0
 20  5  1  0  0  0  0
 21  3  1  1  0  0  0
 21 22  1  0  0  0  0
 21 27  1  0  0  0  0
 23 24  1  6  0  0  0
 23 29  1  0  0  0  0
 25 26  1  1  0  0  0
 25 31  1  0  0  0  0
 27  7  1  1  0  0  0
 27 28  1  0  0  0  0
 29 30  1  1  0  0  0
 29 33  1  0  0  0  0
 31 32  1  6  0  0  0
 31 35  1  0  0  0  0
 33 34  1  0  0  0  0
 33 37  1  6  0  0  0
 35 36  1  1  0  0  0
 37 38  1  0  0  0  0
M  END
>  <CHROM.1>
-120.58600711,97.42866643,139.83293444,132.10642876,119.48172018,-94.60490685
97.00692645,-99.25213528,-58.77255018,-167.42735846,65.91532359,2.52196150
33.56276573,-2.95812858,-2.61963989,-0.32894177,1.19233359

>  <Name>
1nta_lig

>  <RI>
0

>  <Rbt.Current_Directory>
/home/itssahil/PROJECTS/Mol_Feturizer/New_Systems/rnas/1nta

>  <Rbt.Executable>
rbdock ($Id: //depot/dev/client3/rdock/2013.1/src/exe/rbdock.cxx#4 $)

>  <Rbt.Library>
libRbt.so (2013.1, Build901 2013/11/27)

>  <Rbt.Parameter_File>
/export/apps/rDock/src/rDock_2013.1_src/data/scripts/dock_solv.prm

>  <Rbt.Receptor>
prm/pocket_docking_5.prm

>  <SCORE>
-29.2368

>  <SCORE.INTER>
-12.7148

>  <SCORE.INTER.CONST>
1

>  <SCORE.INTER.POLAR>
-1.76162

>  <SCORE.INTER.ROT>
11

>  <SCORE.INTER.SOLV>
19.2343

>  <SCORE.INTER.VDW>
-19.9493

>  <SCORE.INTER.norm>
-0.317871

>  <SCORE.INTRA>
-16.522

>  <SCORE.INTRA.DIHEDRAL>
4.62129

>  <SCORE.INTRA.DIHEDRAL.0>
19.0336

>  <SCORE.INTRA.POLAR>
0

>  <SCORE.INTRA.POLAR.0>
0

>  <SCORE.INTRA.REPUL>
0

>  <SCORE.INTRA.REPUL.0>
0

>  <SCORE.INTRA.SOLV>
-4.33436

>  <SCORE.INTRA.SOLV.lig_0>
-97.5861

>  <SCORE.INTRA.VDW>
-16.6654

>  <SCORE.INTRA.VDW.0>
11.7669

>  <SCORE.INTRA.norm>
-0.41305

>  <SCORE.RESTR>
0

>  <SCORE.RESTR.CAVITY>
0

>  <SCORE.RESTR.norm>
0

>  <SCORE.SYSTEM>
0

>  <SCORE.SYSTEM.CONST>
0

>  <SCORE.SYSTEM.DIHEDRAL>
0

>  <SCORE.SYSTEM.SOLV>
0

>  <SCORE.SYSTEM.norm>
0

>  <SCORE.heavy>
40

>  <SCORE.norm>
-0.730921

>  <RMSD>
8.435

$$$$
1nta_lig
 OpenBabel11021811403D
libRbt.so/2013.1/901 2013/11/27
 40 42  0  0  0  0  0  0  0  0999 V2000
   -2.2239   32.0673   -5.0865 C   0  0  0  0  0  0  0  0  0  0  0  0
   -2.5844   33.2328   -5.4762 N   0  0  0  0  0  0  0  0  0  0  0  0
    4.9994   37.2718   -0.3200 C   0  0  0  0  0  0  0  0  0  0  0  0
    5.0871   38.2816    0.3433 O   0  0  0  0  0  0  0  0  0  0  0  0
    1.1067   37.0991   -3.9858 C   0  0  0  0  0  0  0  0  0  0  0  0
    0.5567   37.5533   -5.0817 N   0  0  0  0  0  0  0  0  0  0  0  0
    3.4772   36.1599    2.4201 C   0  0  0  0  0  0  0  0  0  0  0  0
    9.3530   35.3386    0.3016 C   0  0  0  0  0  0  0  0  0  0  0  0
   -0.3842   32.8073   -3.7947 C   0  0  2  0  0  0  0  0  0  0  0  0
   -0.9236   31.9081   -4.8899 N   0  0  0  0  0  0  0  0  0  0  0  0
    3.3925   34.2384   -0.6116 C   0  0  2  0  0  0  0  0  0  0  0  0
    6.7749   34.5366   -1.7217 C   0  0  1  0  0  0  0  0  0  0  0  0
    5.6912   34.0386   -1.0181 O   0  0  0  0  0  0  0  0  0  0  0  0
    0.4257   33.9638   -4.4107 C   0  0  1  0  0  0  0  0  0  0  0  0
   -0.4589   34.7213   -5.1799 O   0  0  0  0  0  0  0  0  0  0  0  0
    4.7265   34.9309   -0.8690 C   0  0  2  0  0  0  0  0  0  0  0  0
    8.1318   34.0945   -1.2195 C   0  0  1  0  0  0  0  0  0  0  0  0
    8.2348   34.4210    0.1607 N   0  0  0  0  0  0  0  0  0  0  0  0
    1.0170   34.8955   -3.3444 C   0  0  2  0  0  0  0  0  0  0  0  0
    1.8078   36.0187   -3.9022 N   0  0  0  0  0  0  0  0  0  0  0  0
    4.7619   35.8937    0.2368 C   0  0  1  0  0  0  0  0  0  0  0  0
    5.8061   35.4836    1.1220 O   0  0  0  0  0  0  0  0  0  0  0  0
    8.2996   32.7254   -1.3724 C   0  0  2  0  0  0  0  0  0  0  0  0
    9.6602   32.4380   -1.1698 O   0  0  0  0  0  0  0  0  0  0  0  0
    1.9061   34.0642   -2.4330 C   0  0  1  0  0  0  0  0  0  0  0  0
    2.4472   34.9297   -1.4472 O   0  0  0  0  0  0  0  0  0  0  0  0
    3.4862   35.8261    0.9605 C   0  0  1  0  0  0  0  0  0  0  0  0
    3.0244   34.5021    0.7227 O   0  0  0  0  0  0  0  0  0  0  0  0
    7.8971   32.2996   -2.7599 C   0  0  1  0  0  0  0  0  0  0  0  0
    7.8456   30.9041   -2.8094 O   0  0  0  0  0  0  0  0  0  0  0  0
    1.0813   32.9220   -1.7743 C   0  0  2  0  0  0  0  0  0  0  0  0
    1.9293   32.1607   -0.9160 O   0  0  0  0  0  0  0  0  0  0  0  0
    6.5400   32.8297   -3.0760 C   0  0  1  0  0  0  0  0  0  0  0  0
    6.6039   34.2257   -3.0273 O   0  0  0  0  0  0  0  0  0  0  0  0
    0.5134   32.0044   -2.8773 C   0  0  1  0  0  0  0  0  0  0  0  0
   -0.2521   30.9407   -2.2880 O   0  0  0  0  0  0  0  0  0  0  0  0
    6.0999   32.4312   -4.4986 C   0  0  0  0  0  0  0  0  0  0  0  0
    5.9741   31.0155   -4.5701 O   0  0  0  0  0  0  0  0  0  0  0  0
   -3.0658   31.1087   -4.9013 N   0  0  0  0  0  0  0  0  0  0  0  0
    0.9857   37.7541   -2.8983 N   0  0  0  0  0  0  0  0  0  0  0  0
  1  2  1  0  0  0  0
  1 39  1  0  0  0  0
  3  4  1  0  0  0  0
  5  6  1  0  0  0  0
  5 40  1  0  0  0  0
  9 10  1  6  0  0  0
  9 14  1  0  0  0  0
  9 35  1  0  0  0  0
 10  1  1  0  0  0  0
 11 16  1  0  0  0  0
 11 28  1  0  0  0  0
 11 26  1  6  0  0  0
 12 17  1  0  0  0  0
 12 34  1  0  0  0  0
 12 13  1  1  0  0  0
 14 15  1  6  0  0  0
 14 19  1  0  0  0  0
 16 13  1  1  0  0  0
 16 21  1  0  0  0  0
 17 18  1  1  0  0  0
 17 23  1  0  0  0  0
 18  8  1  0  0  0  0
 19 20  1  6  0  0  0
 19 25  1  0  0  0  0
 20  5  1  0  0  0  0
 21  3  1  6  0  0  0
 21 22  1  0  0  0  0
 21 27  1  0  0  0  0
 23 24  1  6  0  0  0
 23 29  1  0  0  0  0
 25 26  1  1  0  0  0
 25 31  1  0  0  0  0
 27  7  1  1  0  0  0
 27 28  1  0  0  0  0
 29 30  1  1  0  0  0
 29 33  1  0  0  0  0
 31 32  1  1  0  0  0
 31 35  1  0  0  0  0
 33 34  1  0  0  0  0
 33 37  1  6  0  0  0
 35 36  1  1  0  0  0
 37 38  1  0  0  0  0
M  END
>  <CHROM.1>
-105.68196886,62.41504902,116.35600940,141.10008461,157.53443032,-119.32311026
97.08155035,-100.79188671,-179.59097068,-175.07445291,64.25422337,3.54570676
34.08863690,-2.15533397,-2.83905007,-0.27753966,0.61444414

>  <Name>
1nta_lig

>  <RI>
0

>  <Rbt.Current_Directory>
/home/itssahil/PROJECTS/Mol_Feturizer/New_Systems/rnas/1nta

>  <Rbt.Executable>
rbdock ($Id: //depot/dev/client3/rdock/2013.1/src/exe/rbdock.cxx#4 $)

>  <Rbt.Library>
libRbt.so (2013.1, Build901 2013/11/27)

>  <Rbt.Parameter_File>
/export/apps/rDock/src/rDock_2013.1_src/data/scripts/dock_solv.prm

>  <Rbt.Receptor>
prm/pocket_docking_3.prm

>  <SCORE>
4.68664

>  <SCORE.INTER>
21.0707

>  <SCORE.INTER.CONST>
1

>  <SCORE.INTER.POLAR>
-1.7185

>  <SCORE.INTER.ROT>
11

>  <SCORE.INTER.SOLV>
24.6617

>  <SCORE.INTER.VDW>
0.621577

>  <SCORE.INTER.norm>
0.526768

>  <SCORE.INTRA>
-17.5375

>  <SCORE.INTRA.DIHEDRAL>
-0.0639676

>  <SCORE.INTRA.DIHEDRAL.0>
19.0336

>  <SCORE.INTRA.POLAR>
0

>  <SCORE.INTRA.POLAR.0>
0

>  <SCORE.INTRA.REPUL>
0.0175247

>  <SCORE.INTRA.REPUL.0>
0

>  <SCORE.INTRA.SOLV>
-4.68518

>  <SCORE.INTRA.SOLV.lig_0>
-97.5861

>  <SCORE.INTRA.VDW>
-15.2506

>  <SCORE.INTRA.VDW.0>
11.7669

>  <SCORE.INTRA.norm>
-0.438438

>  <SCORE.RESTR>
1.15344

>  <SCORE.RESTR.CAVITY>
1.15344

>  <SCORE.RESTR.norm>
0.0288359

>  <SCORE.SYSTEM>
0

>  <SCORE.SYSTEM.CONST>
0

>  <SCORE.SYSTEM.DIHEDRAL>
0

>  <SCORE.SYSTEM.SOLV>
0

>  <SCORE.SYSTEM.norm>
0

>  <SCORE.heavy>
40

>  <SCORE.norm>
0.117166

>  <RMSD>
8.440

$$$$
1nta_lig
 OpenBabel11021811403D
libRbt.so/2013.1/901 2013/11/27
 40 42  0  0  0  0  0  0  0  0999 V2000
    2.6875   35.5414    1.6384 C   0  0  0  0  0  0  0  0  0  0  0  0
    1.7702   34.6552    1.5231 N   0  0  0  0  0  0  0  0  0  0  0  0
    6.2689   30.0017   -5.2747 C   0  0  0  0  0  0  0  0  0  0  0  0
    7.2144   29.2510   -5.1763 O   0  0  0  0  0  0  0  0  0  0  0  0
    1.3712   32.8755   -3.3491 C   0  0  0  0  0  0  0  0  0  0  0  0
    0.5334   32.9320   -2.3468 N   0  0  0  0  0  0  0  0  0  0  0  0
    5.0769   32.2982   -7.3644 C   0  0  0  0  0  0  0  0  0  0  0  0
   11.2083   30.4183   -4.1492 C   0  0  0  0  0  0  0  0  0  0  0  0
    3.5484   35.5134   -0.5658 C   0  0  2  0  0  0  0  0  0  0  0  0
    2.8986   36.2875    0.5645 N   0  0  0  0  0  0  0  0  0  0  0  0
    5.4011   33.0219   -3.8627 C   0  0  2  0  0  0  0  0  0  0  0  0
    8.3903   31.7604   -2.6904 C   0  0  1  0  0  0  0  0  0  0  0  0
    7.6789   32.5573   -3.5716 O   0  0  0  0  0  0  0  0  0  0  0  0
    2.4859   35.0951   -1.5998 C   0  0  1  0  0  0  0  0  0  0  0  0
    1.9561   36.2669   -2.1421 O   0  0  0  0  0  0  0  0  0  0  0  0
    6.5363   32.0074   -3.9475 C   0  0  2  0  0  0  0  0  0  0  0  0
    9.8945   31.8064   -2.8454 C   0  0  1  0  0  0  0  0  0  0  0  0
   10.2234   31.4861   -4.1913 N   0  0  0  0  0  0  0  0  0  0  0  0
    3.0849   34.2859   -2.7579 C   0  0  2  0  0  0  0  0  0  0  0  0
    2.0887   33.8620   -3.7708 N   0  0  0  0  0  0  0  0  0  0  0  0
    6.3621   31.5036   -5.3138 C   0  0  1  0  0  0  0  0  0  0  0  0
    7.4832   31.9534   -6.0772 O   0  0  0  0  0  0  0  0  0  0  0  0
   10.3892   33.0687   -2.5487 C   0  0  2  0  0  0  0  0  0  0  0  0
   11.7848   32.9604   -2.4241 O   0  0  0  0  0  0  0  0  0  0  0  0
    3.7569   33.0535   -2.1736 C   0  0  1  0  0  0  0  0  0  0  0  0
    4.3119   32.3110   -3.2480 O   0  0  0  0  0  0  0  0  0  0  0  0
    5.1451   32.0963   -5.8823 C   0  0  1  0  0  0  0  0  0  0  0  0
    4.9981   33.3237   -5.1788 O   0  0  0  0  0  0  0  0  0  0  0  0
    9.8062   33.5691   -1.2533 C   0  0  1  0  0  0  0  0  0  0  0  0
   10.1276   34.9206   -1.1030 O   0  0  0  0  0  0  0  0  0  0  0  0
    4.8612   33.4727   -1.1619 C   0  0  2  0  0  0  0  0  0  0  0  0
    5.4864   32.3045   -0.6330 O   0  0  0  0  0  0  0  0  0  0  0  0
    8.3212   33.4418   -1.2864 C   0  0  1  0  0  0  0  0  0  0  0  0
    8.0110   32.0862   -1.4332 O   0  0  0  0  0  0  0  0  0  0  0  0
    4.2177   34.2740   -0.0108 C   0  0  1  0  0  0  0  0  0  0  0  0
    5.2231   34.6703    0.9364 O   0  0  0  0  0  0  0  0  0  0  0  0
    7.6875   33.9263    0.0327 C   0  0  0  0  0  0  0  0  0  0  0  0
    8.0140   35.2968    0.2329 O   0  0  0  0  0  0  0  0  0  0  0  0
    3.3662   35.6972    2.7234 N   0  0  0  0  0  0  0  0  0  0  0  0
    1.5406   31.7752   -3.9714 N   0  0  0  0  0  0  0  0  0  0  0  0
  1  2  1  0  0  0  0
  1 39  1  0  0  0  0
  3  4  1  0  0  0  0
  5  6  1  0  0  0  0
  5 40  1  0  0  0  0
  9 10  1  1  0  0  0
  9 14  1  0  0  0  0
  9 35  1  0  0  0  0
 10  1  1  0  0  0  0
 11 16  1  0  0  0  0
 11 28  1  0  0  0  0
 11 26  1  1  0  0  0
 12 17  1  0  0  0  0
 12 34  1  0  0  0  0
 12 13  1  6  0  0  0
 14 15  1  6  0  0  0
 14 19  1  0  0  0  0
 16 13  1  6  0  0  0
 16 21  1  0  0  0  0
 17 18  1  6  0  0  0
 17 23  1  0  0  0  0
 18  8  1  0  0  0  0
 19 20  1  6  0  0  0
 19 25  1  0  0  0  0
 20  5  1  0  0  0  0
 21  3  1  6  0  0  0
 21 22  1  0  0  0  0
 21 27  1  0  0  0  0
 23 24  1  1  0  0  0
 23 29  1  0  0  0  0
 25 26  1  6  0  0  0
 25 31  1  0  0  0  0
 27  7  1  6  0  0  0
 27 28  1  0  0  0  0
 29 30  1  6  0  0  0
 29 33  1  0  0  0  0
 31 32  1  1  0  0  0
 31 35  1  0  0  0  0
 33 34  1  0  0  0  0
 33 37  1  1  0  0  0
 35 36  1  1  0  0  0
 37 38  1  0  0  0  0
M  END
>  <CHROM.1>
99.90605989,-70.40136562,130.75093184,144.33139605,133.49253550,-127.74940513
-75.73178197,65.38925863,-79.45218556,67.43800640,60.48579168,5.83669412
33.18192267,-2.40409687,-2.59457746,0.13623002,-2.09425437

>  <Name>
1nta_lig

>  <RI>
9.25352e+06

>  <Rbt.Current_Directory>
/home/itssahil/PROJECTS/Mol_Feturizer/New_Systems/rnas/1nta

>  <Rbt.Executable>
rbdock ($Id: //depot/dev/client3/rdock/2013.1/src/exe/rbdock.cxx#4 $)

>  <Rbt.Library>
libRbt.so (2013.1, Build901 2013/11/27)

>  <Rbt.Parameter_File>
/export/apps/rDock/src/rDock_2013.1_src/data/scripts/dock_solv.prm

>  <Rbt.Receptor>
prm/blind_docking_40.prm

>  <SCORE>
90.7252

>  <SCORE.INTER>
89.6248

>  <SCORE.INTER.CONST>
1

>  <SCORE.INTER.POLAR>
-2.12948

>  <SCORE.INTER.ROT>
11

>  <SCORE.INTER.SOLV>
39.0025

>  <SCORE.INTER.VDW>
42.914

>  <SCORE.INTER.norm>
2.24062

>  <SCORE.INTRA>
-4.98837

>  <SCORE.INTRA.DIHEDRAL>
3.79228

>  <SCORE.INTRA.DIHEDRAL.0>
19.0336

>  <SCORE.INTRA.POLAR>
0

>  <SCORE.INTRA.POLAR.0>
0

>  <SCORE.INTRA.REPUL>
0.000240499

>  <SCORE.INTRA.REPUL.0>
0

>  <SCORE.INTRA.SOLV>
2.71395

>  <SCORE.INTRA.SOLV.lig_0>
-97.5861

>  <SCORE.INTRA.VDW>
-8.2427

>  <SCORE.INTRA.VDW.0>
11.7669

>  <SCORE.INTRA.norm>
-0.124709

>  <SCORE.RESTR>
6.08884

>  <SCORE.RESTR.CAVITY>
6.08884

>  <SCORE.RESTR.norm>
0.152221

>  <SCORE.SYSTEM>
0

>  <SCORE.SYSTEM.CONST>
0

>  <SCORE.SYSTEM.DIHEDRAL>
0

>  <SCORE.SYSTEM.SOLV>
0

>  <SCORE.SYSTEM.norm>
0

>  <SCORE.heavy>
40

>  <SCORE.norm>
2.26813

>  <RMSD>
8.441

$$$$
1nta_lig
 OpenBabel11021811403D
libRbt.so/2013.1/901 2013/11/27
 40 42  0  0  0  0  0  0  0  0999 V2000
   -2.8433   41.0589   -3.3970 C   0  0  0  0  0  0  0  0  0  0  0  0
   -3.9548   40.4229   -3.3827 N   0  0  0  0  0  0  0  0  0  0  0  0
    3.1923   33.1551   -3.1856 C   0  0  0  0  0  0  0  0  0  0  0  0
    4.0604   32.7926   -2.4226 O   0  0  0  0  0  0  0  0  0  0  0  0
    1.6422   38.2954   -1.0913 C   0  0  0  0  0  0  0  0  0  0  0  0
    0.8640   37.5495   -0.3510 N   0  0  0  0  0  0  0  0  0  0  0  0
    1.9166   34.5020   -0.4252 C   0  0  0  0  0  0  0  0  0  0  0  0
   -1.5510   29.3175   -3.2500 C   0  0  0  0  0  0  0  0  0  0  0  0
   -1.4082   39.3250   -4.1281 C   0  0  2  0  0  0  0  0  0  0  0  0
   -1.9955   40.7050   -4.3512 N   0  0  0  0  0  0  0  0  0  0  0  0
    0.4869   35.2401   -3.6348 C   0  0  2  0  0  0  0  0  0  0  0  0
    0.4658   31.7956   -4.7178 C   0  0  1  0  0  0  0  0  0  0  0  0
    0.0304   33.0645   -4.3748 O   0  0  0  0  0  0  0  0  0  0  0  0
   -0.0880   39.4327   -3.3417 C   0  0  1  0  0  0  0  0  0  0  0  0
   -0.3975   39.9660   -2.0896 O   0  0  0  0  0  0  0  0  0  0  0  0
    1.0170   33.8535   -3.9832 C   0  0  2  0  0  0  0  0  0  0  0  0
   -0.6169   30.7433   -4.8143 C   0  0  1  0  0  0  0  0  0  0  0  0
   -1.3342   30.7145   -3.5868 N   0  0  0  0  0  0  0  0  0  0  0  0
    0.5649   38.0640   -3.1065 C   0  0  2  0  0  0  0  0  0  0  0  0
    1.8415   38.1304   -2.3557 N   0  0  0  0  0  0  0  0  0  0  0  0
    1.7944   33.5388   -2.7801 C   0  0  1  0  0  0  0  0  0  0  0  0
    1.1189   32.4756   -2.1055 O   0  0  0  0  0  0  0  0  0  0  0  0
   -1.5004   31.0284   -5.8459 C   0  0  2  0  0  0  0  0  0  0  0  0
   -2.2833   29.8820   -6.0648 O   0  0  0  0  0  0  0  0  0  0  0  0
    0.8166   37.4229   -4.4621 C   0  0  1  0  0  0  0  0  0  0  0  0
    1.4169   36.1566   -4.2387 O   0  0  0  0  0  0  0  0  0  0  0  0
    1.8005   34.7159   -1.9026 C   0  0  1  0  0  0  0  0  0  0  0  0
    0.6023   35.4040   -2.2400 O   0  0  0  0  0  0  0  0  0  0  0  0
   -0.7453   31.3691   -7.1037 C   0  0  1  0  0  0  0  0  0  0  0  0
   -1.6410   31.8807   -8.0463 O   0  0  0  0  0  0  0  0  0  0  0  0
   -0.5208   37.2716   -5.2413 C   0  0  2  0  0  0  0  0  0  0  0  0
   -0.2657   36.6595   -6.5044 O   0  0  0  0  0  0  0  0  0  0  0  0
    0.2752   32.4157   -6.8111 C   0  0  1  0  0  0  0  0  0  0  0  0
    1.1677   31.8922   -5.8705 O   0  0  0  0  0  0  0  0  0  0  0  0
   -1.1389   38.6677   -5.4651 C   0  0  1  0  0  0  0  0  0  0  0  0
   -2.3767   38.5492   -6.1853 O   0  0  0  0  0  0  0  0  0  0  0  0
    1.0843   32.7777   -8.0723 C   0  0  0  0  0  0  0  0  0  0  0  0
    0.2755   33.5680   -8.9363 O   0  0  0  0  0  0  0  0  0  0  0  0
   -2.5619   41.9793   -2.5391 N   0  0  0  0  0  0  0  0  0  0  0  0
    2.2521   39.2865   -0.5697 N   0  0  0  0  0  0  0  0  0  0  0  0
  1  2  1  0  0  0  0
  1 39  1  0  0  0  0
  3  4  1  0  0  0  0
  5  6  1  0  0  0  0
  5 40  1  0  0  0  0
  9 10  1  6  0  0  0
  9 14  1  0  0  0  0
  9 35  1  0  0  0  0
 10  1  1  0  0  0  0
 11 16  1  0  0  0  0
 11 28  1  0  0  0  0
 11 26  1  6  0  0  0
 12 17  1  0  0  0  0
 12 34  1  0  0  0  0
 12 13  1  6  0  0  0
 14 15  1  1  0  0  0
 14 19  1  0  0  0  0
 16 13  1  1  0  0  0
 16 21  1  0  0  0  0
 17 18  1  1  0  0  0
 17 23  1  0  0  0  0
 18  8  1  0  0  0  0
 19 20  1  6  0  0  0
 19 25  1  0  0  0  0
 20  5  1  0  0  0  0
 21  3  1  6  0  0  0
 21 22  1  0  0  0  0
 21 27  1  0  0  0  0
 23 24  1  6  0  0  0
 23 29  1  0  0  0  0
 25 26  1  1  0  0  0
 25 31  1  0  0  0  0
 27  7  1  1  0  0  0
 27 28  1  0  0  0  0
 29 30  1  6  0  0  0
 29 33  1  0  0  0  0
 31 32  1  6  0  0  0
 31 35  1  0  0  0  0
 33 34  1  0  0  0  0
 33 37  1  6  0  0  0
 35 36  1  1  0  0  0
 37 38  1  0  0  0  0
M  END
>  <CHROM.1>
-91.97793106,-70.10117640,156.99520138,164.26681584,179.29064317,-137.38931099
77.86750888,52.56305608,-177.11156798,68.65906098,74.30941567,0.03965794
35.31949098,-4.09993943,1.70362775,-0.90669411,0.39217356

>  <Name>
1nta_lig

>  <RI>
0

>  <Rbt.Current_Directory>
/home/itssahil/PROJECTS/Mol_Feturizer/New_Systems/rnas/1nta

>  <Rbt.Executable>
rbdock ($Id: //depot/dev/client3/rdock/2013.1/src/exe/rbdock.cxx#4 $)

>  <Rbt.Library>
libRbt.so (2013.1, Build901 2013/11/27)

>  <Rbt.Parameter_File>
/export/apps/rDock/src/rDock_2013.1_src/data/scripts/dock_solv.prm

>  <Rbt.Receptor>
prm/pocket_docking_5.prm

>  <SCORE>
-26.2712

>  <SCORE.INTER>
-6.25785

>  <SCORE.INTER.CONST>
1

>  <SCORE.INTER.POLAR>
-0.745222

>  <SCORE.INTER.ROT>
11

>  <SCORE.INTER.SOLV>
8.99601

>  <SCORE.INTER.VDW>
-15.6198

>  <SCORE.INTER.norm>
-0.156446

>  <SCORE.INTRA>
-20.0327

>  <SCORE.INTRA.DIHEDRAL>
-10.8962

>  <SCORE.INTRA.DIHEDRAL.0>
19.0336

>  <SCORE.INTRA.POLAR>
0

>  <SCORE.INTRA.POLAR.0>
0

>  <SCORE.INTRA.REPUL>
0

>  <SCORE.INTRA.REPUL.0>
0

>  <SCORE.INTRA.SOLV>
-0.618784

>  <SCORE.INTRA.SOLV.lig_0>
-97.5861

>  <SCORE.INTRA.VDW>
-14.2752

>  <SCORE.INTRA.VDW.0>
11.7669

>  <SCORE.INTRA.norm>
-0.500818

>  <SCORE.RESTR>
0.0193135

>  <SCORE.RESTR.CAVITY>
0.0193135

>  <SCORE.RESTR.norm>
0.000482838

>  <SCORE.SYSTEM>
0

>  <SCORE.SYSTEM.CONST>
0

>  <SCORE.SYSTEM.DIHEDRAL>
0

>  <SCORE.SYSTEM.SOLV>
0

>  <SCORE.SYSTEM.norm>
0

>  <SCORE.heavy>
40

>  <SCORE.norm>
-0.656781

>  <RMSD>
8.459

$$$$
1nta_lig
 OpenBabel11021811403D
libRbt.so/2013.1/901 2013/11/27
 40 42  0  0  0  0  0  0  0  0999 V2000
   -4.2940   36.3413    0.1212 C   0  0  0  0  0  0  0  0  0  0  0  0
   -4.9315   36.2077   -0.9814 N   0  0  0  0  0  0  0  0  0  0  0  0
    3.3386   41.1953   -1.3162 C   0  0  0  0  0  0  0  0  0  0  0  0
    3.8188   40.2919   -1.9647 O   0  0  0  0  0  0  0  0  0  0  0  0
   -1.1305   41.5513   -2.0339 C   0  0  0  0  0  0  0  0  0  0  0  0
   -1.0899   42.6491   -1.3246 N   0  0  0  0  0  0  0  0  0  0  0  0
    3.4944   43.7294    0.8322 C   0  0  0  0  0  0  0  0  0  0  0  0
    6.9276   38.6324    1.4779 C   0  0  0  0  0  0  0  0  0  0  0  0
   -2.4216   37.7667    0.3723 C   0  0  2  0  0  0  0  0  0  0  0  0
   -2.9750   36.4012    0.0142 N   0  0  0  0  0  0  0  0  0  0  0  0
    1.6000   40.7856    1.6296 C   0  0  2  0  0  0  0  0  0  0  0  0
    4.0646   38.3847    0.5546 C   0  0  1  0  0  0  0  0  0  0  0  0
    3.2697   39.1609    1.3812 O   0  0  0  0  0  0  0  0  0  0  0  0
   -1.7741   38.4162   -0.8654 C   0  0  1  0  0  0  0  0  0  0  0  0
   -2.7864   38.6060   -1.8072 O   0  0  0  0  0  0  0  0  0  0  0  0
    2.6219   40.1078    0.7232 C   0  0  2  0  0  0  0  0  0  0  0  0
    4.9765   37.4078    1.2637 C   0  0  1  0  0  0  0  0  0  0  0  0
    5.7724   38.1247    2.1989 N   0  0  0  0  0  0  0  0  0  0  0  0
   -1.1745   39.7943   -0.5553 C   0  0  2  0  0  0  0  0  0  0  0  0
   -0.5379   40.4474   -1.7241 N   0  0  0  0  0  0  0  0  0  0  0  0
    3.3376   41.2702    0.1872 C   0  0  1  0  0  0  0  0  0  0  0  0
    4.6598   41.2400    0.7283 O   0  0  0  0  0  0  0  0  0  0  0  0
    4.2447   36.4426    1.9413 C   0  0  2  0  0  0  0  0  0  0  0  0
    5.1333   35.4207    2.3170 O   0  0  0  0  0  0  0  0  0  0  0  0
   -0.1386   39.6209    0.5442 C   0  0  1  0  0  0  0  0  0  0  0  0
    0.4098   40.8982    0.8294 O   0  0  0  0  0  0  0  0  0  0  0  0
    2.6711   42.4910    0.6573 C   0  0  1  0  0  0  0  0  0  0  0  0
    2.0504   42.0980    1.8752 O   0  0  0  0  0  0  0  0  0  0  0  0
    3.1734   35.8740    1.0482 C   0  0  1  0  0  0  0  0  0  0  0  0
    2.3090   35.0913    1.8180 O   0  0  0  0  0  0  0  0  0  0  0  0
   -0.7983   39.0063    1.8115 C   0  0  2  0  0  0  0  0  0  0  0  0
    0.1859   38.8613    2.8340 O   0  0  0  0  0  0  0  0  0  0  0  0
    2.3843   36.9825    0.4392 C   0  0  1  0  0  0  0  0  0  0  0  0
    3.2576   37.7566   -0.3313 O   0  0  0  0  0  0  0  0  0  0  0  0
   -1.3791   37.6205    1.4604 C   0  0  1  0  0  0  0  0  0  0  0  0
   -1.9931   37.0350    2.6202 O   0  0  0  0  0  0  0  0  0  0  0  0
    1.2883   36.4403   -0.4995 C   0  0  0  0  0  0  0  0  0  0  0  0
    1.8966   35.6930   -1.5466 O   0  0  0  0  0  0  0  0  0  0  0  0
   -4.8912   36.4084    1.2619 N   0  0  0  0  0  0  0  0  0  0  0  0
   -1.8149   41.5175   -3.1094 N   0  0  0  0  0  0  0  0  0  0  0  0
  1  2  1  0  0  0  0
  1 39  1  0  0  0  0
  3  4  1  0  0  0  0
  5  6  1  0  0  0  0
  5 40  1  0  0  0  0
  9 10  1  6  0  0  0
  9 14  1  0  0  0  0
  9 35  1  0  0  0  0
 10  1  1  0  0  0  0
 11 16  1  0  0  0  0
 11 28  1  0  0  0  0
 11 26  1  6  0  0  0
 12 17  1  0  0  0  0
 12 34  1  0  0  0  0
 12 13  1  1  0  0  0
 14 15  1  6  0  0  0
 14 19  1  0  0  0  0
 16 13  1  1  0  0  0
 16 21  1  0  0  0  0
 17 18  1  1  0  0  0
 17 23  1  0  0  0  0
 18  8  1  0  0  0  0
 19 20  1  6  0  0  0
 19 25  1  0  0  0  0
 20  5  1  0  0  0  0
 21  3  1  6  0  0  0
 21 22  1  0  0  0  0
 21 27  1  0  0  0  0
 23 24  1  6  0  0  0
 23 29  1  0  0  0  0
 25 26  1  1  0  0  0
 25 31  1  0  0  0  0
 27  7  1  1  0  0  0
 27 28  1  0  0  0  0
 29 30  1  1  0  0  0
 29 33  1  0  0  0  0
 31 32  1  1  0  0  0
 31 35  1  0  0  0  0
 33 34  1  0  0  0  0
 33 37  1  6  0  0  0
 35 36  1  1  0  0  0
 37 38  1  0  0  0  0
M  END
>  <CHROM.1>
-115.29126512,112.08224235,66.86536400,171.97789037,170.99171241,-85.35403151
117.39051648,70.34802584,-59.93159933,-166.77991737,-60.31392189,1.11667827
38.83530604,0.38500080,-3.03163714,-0.20356619,-0.27697511

>  <Name>
1nta_lig

>  <RI>
0

>  <Rbt.Current_Directory>
/home/itssahil/PROJECTS/Mol_Feturizer/New_Systems/rnas/1nta

>  <Rbt.Executable>
rbdock ($Id: //depot/dev/client3/rdock/2013.1/src/exe/rbdock.cxx#4 $)

>  <Rbt.Library>
libRbt.so (2013.1, Build901 2013/11/27)

>  <Rbt.Parameter_File>
/export/apps/rDock/src/rDock_2013.1_src/data/scripts/dock_solv.prm

>  <Rbt.Receptor>
prm/pocket_docking_7.prm

>  <SCORE>
-23.7348

>  <SCORE.INTER>
1.89588

>  <SCORE.INTER.CONST>
1

>  <SCORE.INTER.POLAR>
0

>  <SCORE.INTER.ROT>
11

>  <SCORE.INTER.SOLV>
9.11093

>  <SCORE.INTER.VDW>
-12.7064

>  <SCORE.INTER.norm>
0.047397

>  <SCORE.INTRA>
-25.6307

>  <SCORE.INTRA.DIHEDRAL>
-13.0219

>  <SCORE.INTRA.DIHEDRAL.0>
19.0336

>  <SCORE.INTRA.POLAR>
0

>  <SCORE.INTRA.POLAR.0>
0

>  <SCORE.INTRA.REPUL>
0

>  <SCORE.INTRA.REPUL.0>
0

>  <SCORE.INTRA.SOLV>
-3.89894

>  <SCORE.INTRA.SOLV.lig_0>
-97.5861

>  <SCORE.INTRA.VDW>
-17.1702

>  <SCORE.INTRA.VDW.0>
11.7669

>  <SCORE.INTRA.norm>
-0.640767

>  <SCORE.RESTR>
0

>  <SCORE.RESTR.CAVITY>
0

>  <SCORE.RESTR.norm>
0

>  <SCORE.SYSTEM>
0

>  <SCORE.SYSTEM.CONST>
0

>  <SCORE.SYSTEM.DIHEDRAL>
0

>  <SCORE.SYSTEM.SOLV>
0

>  <SCORE.SYSTEM.norm>
0

>  <SCORE.heavy>
40

>  <SCORE.norm>
-0.59337

>  <RMSD>
8.483

$$$$
1nta_lig
 OpenBabel11021811403D
libRbt.so/2013.1/901 2013/11/27
 40 42  0  0  0  0  0  0  0  0999 V2000
   -3.8031   33.4529   -2.3442 C   0  0  0  0  0  0  0  0  0  0  0  0
   -3.2579   32.6409   -1.5173 N   0  0  0  0  0  0  0  0  0  0  0  0
   -0.1890   41.3467   -5.5764 C   0  0  0  0  0  0  0  0  0  0  0  0
   -0.8580   41.4505   -6.5808 O   0  0  0  0  0  0  0  0  0  0  0  0
   -2.8890   39.5477   -2.9093 C   0  0  0  0  0  0  0  0  0  0  0  0
   -3.7948   39.1450   -2.0566 N   0  0  0  0  0  0  0  0  0  0  0  0
    2.6600   41.8756   -3.9438 C   0  0  0  0  0  0  0  0  0  0  0  0
    2.5567   39.5516  -10.4139 C   0  0  0  0  0  0  0  0  0  0  0  0
   -2.1444   35.0157   -2.9822 C   0  0  2  0  0  0  0  0  0  0  0  0
   -3.0349   33.8449   -3.3496 N   0  0  0  0  0  0  0  0  0  0  0  0
    1.4461   38.5339   -4.4437 C   0  0  2  0  0  0  0  0  0  0  0  0
    0.5484   38.9113   -7.9139 C   0  0  1  0  0  0  0  0  0  0  0  0
    1.2430   38.5315   -6.7778 O   0  0  0  0  0  0  0  0  0  0  0  0
   -2.7108   36.3185   -3.5778 C   0  0  1  0  0  0  0  0  0  0  0  0
   -3.9559   36.5343   -2.9852 O   0  0  0  0  0  0  0  0  0  0  0  0
    0.8151   39.1478   -5.6887 C   0  0  2  0  0  0  0  0  0  0  0  0
    1.0349   38.2947   -9.2069 C   0  0  1  0  0  0  0  0  0  0  0  0
    2.4224   38.5714   -9.3494 N   0  0  0  0  0  0  0  0  0  0  0  0
   -1.8348   37.5368   -3.2566 C   0  0  2  0  0  0  0  0  0  0  0  0
   -2.3482   38.8089   -3.8190 N   0  0  0  0  0  0  0  0  0  0  0  0
    1.0970   40.5711   -5.4746 C   0  0  1  0  0  0  0  0  0  0  0  0
    2.0453   40.9688   -6.4669 O   0  0  0  0  0  0  0  0  0  0  0  0
    0.8474   36.9195   -9.2065 C   0  0  2  0  0  0  0  0  0  0  0  0
    1.0382   36.4635  -10.5221 O   0  0  0  0  0  0  0  0  0  0  0  0
   -0.4422   37.2742   -3.8076 C   0  0  1  0  0  0  0  0  0  0  0  0
    0.3643   38.4019   -3.5048 O   0  0  0  0  0  0  0  0  0  0  0  0
    1.7125   40.7350   -4.1518 C   0  0  1  0  0  0  0  0  0  0  0  0
    2.3385   39.4820   -3.9049 O   0  0  0  0  0  0  0  0  0  0  0  0
   -0.5489   36.5810   -8.7547 C   0  0  1  0  0  0  0  0  0  0  0  0
   -0.6330   35.2039   -8.5336 O   0  0  0  0  0  0  0  0  0  0  0  0
    0.1512   35.9834   -3.1748 C   0  0  2  0  0  0  0  0  0  0  0  0
    1.4604   35.7599   -3.6958 O   0  0  0  0  0  0  0  0  0  0  0  0
   -0.8472   37.2803   -7.4723 C   0  0  1  0  0  0  0  0  0  0  0  0
   -0.7639   38.6565   -7.7058 O   0  0  0  0  0  0  0  0  0  0  0  0
   -0.7518   34.7831   -3.5285 C   0  0  1  0  0  0  0  0  0  0  0  0
   -0.2191   33.5790   -2.9529 O   0  0  0  0  0  0  0  0  0  0  0  0
   -2.2778   36.9742   -6.9865 C   0  0  0  0  0  0  0  0  0  0  0  0
   -3.2088   37.4015   -7.9743 O   0  0  0  0  0  0  0  0  0  0  0  0
   -5.0162   33.8678   -2.2084 N   0  0  0  0  0  0  0  0  0  0  0  0
   -2.4976   40.7613   -2.8912 N   0  0  0  0  0  0  0  0  0  0  0  0
  1  2  1  0  0  0  0
  1 39  1  0  0  0  0
  3  4  1  0  0  0  0
  5  6  1  0  0  0  0
  5 40  1  0  0  0  0
  9 10  1  6  0  0  0
  9 14  1  0  0  0  0
  9 35  1  0  0  0  0
 10  1  1  0  0  0  0
 11 16  1  0  0  0  0
 11 28  1  0  0  0  0
 11 26  1  1  0  0  0
 12 17  1  0  0  0  0
 12 34  1  0  0  0  0
 12 13  1  1  0  0  0
 14 15  1  1  0  0  0
 14 19  1  0  0  0  0
 16 13  1  6  0  0  0
 16 21  1  0  0  0  0
 17 18  1  1  0  0  0
 17 23  1  0  0  0  0
 18  8  1  0  0  0  0
 19 20  1  6  0  0  0
 19 25  1  0  0  0  0
 20  5  1  0  0  0  0
 21  3  1  6  0  0  0
 21 22  1  0  0  0  0
 21 27  1  0  0  0  0
 23 24  1  6  0  0  0
 23 29  1  0  0  0  0
 25 26  1  1  0  0  0
 25 31  1  0  0  0  0
 27  7  1  6  0  0  0
 27 28  1  0  0  0  0
 29 30  1  1  0  0  0
 29 33  1  0  0  0  0
 31 32  1  6  0  0  0
 31 35  1  0  0  0  0
 33 34  1  0  0  0  0
 33 37  1  6  0  0  0
 35 36  1  1  0  0  0
 37 38  1  0  0  0  0
M  END
>  <CHROM.1>
-103.22382170,-84.29573807,78.28624885,177.04720730,170.68393062,-108.45105259
104.56018637,-50.59758796,-64.76459080,-154.15252235,-59.61984435,-0.57956342
37.68117449,-5.32886550,2.99677961,1.00272360,0.86579607

>  <Name>
1nta_lig

>  <RI>
0

>  <Rbt.Current_Directory>
/home/itssahil/PROJECTS/Mol_Feturizer/New_Systems/rnas/1nta

>  <Rbt.Executable>
rbdock ($Id: //depot/dev/client3/rdock/2013.1/src/exe/rbdock.cxx#4 $)

>  <Rbt.Library>
libRbt.so (2013.1, Build901 2013/11/27)

>  <Rbt.Parameter_File>
/export/apps/rDock/src/rDock_2013.1_src/data/scripts/dock_solv.prm

>  <Rbt.Receptor>
prm/pocket_docking_7.prm

>  <SCORE>
-22.8422

>  <SCORE.INTER>
1.25645

>  <SCORE.INTER.CONST>
1

>  <SCORE.INTER.POLAR>
-0.46809

>  <SCORE.INTER.ROT>
11

>  <SCORE.INTER.SOLV>
4.89104

>  <SCORE.INTER.VDW>
-10.1657

>  <SCORE.INTER.norm>
0.0314113

>  <SCORE.INTRA>
-24.1031

>  <SCORE.INTRA.DIHEDRAL>
-9.40948

>  <SCORE.INTRA.DIHEDRAL.0>
19.0336

>  <SCORE.INTRA.POLAR>
0

>  <SCORE.INTRA.POLAR.0>
0

>  <SCORE.INTRA.REPUL>
0

>  <SCORE.INTRA.REPUL.0>
0

>  <SCORE.INTRA.SOLV>
-2.91237

>  <SCORE.INTRA.SOLV.lig_0>
-97.5861

>  <SCORE.INTRA.VDW>
-17.9422

>  <SCORE.INTRA.VDW.0>
11.7669

>  <SCORE.INTRA.norm>
-0.602578

>  <SCORE.RESTR>
0.00445766

>  <SCORE.RESTR.CAVITY>
0.00445766

>  <SCORE.RESTR.norm>
0.000111441

>  <SCORE.SYSTEM>
0

>  <SCORE.SYSTEM.CONST>
0

>  <SCORE.SYSTEM.DIHEDRAL>
0

>  <SCORE.SYSTEM.SOLV>
0

>  <SCORE.SYSTEM.norm>
0

>  <SCORE.heavy>
40

>  <SCORE.norm>
-0.571055

>  <RMSD>
8.615

$$$$
1nta_lig
 OpenBabel11021811403D
libRbt.so/2013.1/901 2013/11/27
 40 42  0  0  0  0  0  0  0  0999 V2000
   -2.8228   41.3528    5.4213 C   0  0  0  0  0  0  0  0  0  0  0  0
   -2.2794   42.3625    5.9915 N   0  0  0  0  0  0  0  0  0  0  0  0
    5.7605   40.0098    0.3923 C   0  0  0  0  0  0  0  0  0  0  0  0
    5.6045   40.9819    1.0980 O   0  0  0  0  0  0  0  0  0  0  0  0
    2.0136   43.4551    1.2762 C   0  0  0  0  0  0  0  0  0  0  0  0
    2.1926   43.9972    2.4526 N   0  0  0  0  0  0  0  0  0  0  0  0
    5.0312   37.0594    1.7431 C   0  0  0  0  0  0  0  0  0  0  0  0
    2.8906   42.9543   -3.6372 C   0  0  0  0  0  0  0  0  0  0  0  0
   -1.1586   41.0752    3.7618 C   0  0  2  0  0  0  0  0  0  0  0  0
   -2.6217   41.2581    4.1155 N   0  0  0  0  0  0  0  0  0  0  0  0
    2.4242   39.1519    0.4332 C   0  0  2  0  0  0  0  0  0  0  0  0
    2.0922   40.1620   -2.1381 C   0  0  1  0  0  0  0  0  0  0  0  0
    3.2122   39.4440   -1.7537 O   0  0  0  0  0  0  0  0  0  0  0  0
   -0.7911   41.9609    2.5562 C   0  0  1  0  0  0  0  0  0  0  0  0
   -0.9658   43.2877    2.9523 O   0  0  0  0  0  0  0  0  0  0  0  0
    3.5360   39.6440   -0.4871 C   0  0  2  0  0  0  0  0  0  0  0  0
    2.1533   40.7642   -3.5246 C   0  0  1  0  0  0  0  0  0  0  0  0
    3.3231   41.5670   -3.6210 N   0  0  0  0  0  0  0  0  0  0  0  0
    0.6764   41.7984    2.1381 C   0  0  2  0  0  0  0  0  0  0  0  0
    1.0642   42.6338    0.9762 N   0  0  0  0  0  0  0  0  0  0  0  0
    4.7033   38.9788    0.1009 C   0  0  1  0  0  0  0  0  0  0  0  0
    5.1510   37.9999   -0.8390 O   0  0  0  0  0  0  0  0  0  0  0  0
    2.2039   39.7756   -4.4973 C   0  0  2  0  0  0  0  0  0  0  0  0
    1.9605   40.3872   -5.7390 O   0  0  0  0  0  0  0  0  0  0  0  0
    0.9107   40.3347    1.8000 C   0  0  1  0  0  0  0  0  0  0  0  0
    2.2696   40.1896    1.4176 O   0  0  0  0  0  0  0  0  0  0  0  0
    4.2834   38.2879    1.3265 C   0  0  1  0  0  0  0  0  0  0  0  0
    2.9040   38.0149    1.1132 O   0  0  0  0  0  0  0  0  0  0  0  0
    1.1515   38.7300   -4.2371 C   0  0  1  0  0  0  0  0  0  0  0  0
    1.3792   37.6377   -5.0783 O   0  0  0  0  0  0  0  0  0  0  0  0
    0.5832   39.4404    3.0295 C   0  0  2  0  0  0  0  0  0  0  0  0
    0.8190   38.0733    2.6963 O   0  0  0  0  0  0  0  0  0  0  0  0
    1.2450   38.2611   -2.8251 C   0  0  1  0  0  0  0  0  0  0  0  0
    1.0120   39.3603   -1.9928 O   0  0  0  0  0  0  0  0  0  0  0  0
   -0.9004   39.6252    3.4111 C   0  0  1  0  0  0  0  0  0  0  0  0
   -1.2234   38.8052    4.5461 O   0  0  0  0  0  0  0  0  0  0  0  0
    0.1688   37.2024   -2.5136 C   0  0  0  0  0  0  0  0  0  0  0  0
    0.2197   36.8767   -1.1292 O   0  0  0  0  0  0  0  0  0  0  0  0
   -3.5237   40.4865    6.0698 N   0  0  0  0  0  0  0  0  0  0  0  0
    2.8002   43.7503    0.3168 N   0  0  0  0  0  0  0  0  0  0  0  0
  1  2  1  0  0  0  0
  1 39  1  0  0  0  0
  3  4  1  0  0  0  0
  5  6  1  0  0  0  0
  5 40  1  0  0  0  0
  9 10  1  6  0  0  0
  9 14  1  0  0  0  0
  9 35  1  0  0  0  0
 10  1  1  0  0  0  0
 11 16  1  0  0  0  0
 11 28  1  0  0  0  0
 11 26  1  1  0  0  0
 12 17  1  0  0  0  0
 12 34  1  0  0  0  0
 12 13  1  6  0  0  0
 14 15  1  1  0  0  0
 14 19  1  0  0  0  0
 16 13  1  6  0  0  0
 16 21  1  0  0  0  0
 17 18  1  1  0  0  0
 17 23  1  0  0  0  0
 18  8  1  0  0  0  0
 19 20  1  6  0  0  0
 19 25  1  0  0  0  0
 20  5  1  0  0  0  0
 21  3  1  1  0  0  0
 21 22  1  0  0  0  0
 21 27  1  0  0  0  0
 23 24  1  6  0  0  0
 23 29  1  0  0  0  0
 25 26  1  1  0  0  0
 25 31  1  0  0  0  0
 27  7  1  6  0  0  0
 27 28  1  0  0  0  0
 29 30  1  6  0  0  0
 29 33  1  0  0  0  0
 31 32  1  6  0  0  0
 31 35  1  0  0  0  0
 33 34  1  0  0  0  0
 33 37  1  6  0  0  0
 35 36  1  1  0  0  0
 37 38  1  0  0  0  0
M  END
>  <CHROM.1>
-137.04860468,63.13294013,144.61621689,140.40749786,63.16629940,-108.27533289
119.89189490,-31.78818097,57.26068587,-147.96623571,-174.76282328,1.51060931
40.14139106,0.39560960,2.12903351,-0.43929330,1.59060665

>  <Name>
1nta_lig

>  <RI>
0

>  <Rbt.Current_Directory>
/home/itssahil/PROJECTS/Mol_Feturizer/New_Systems/rnas/1nta

>  <Rbt.Executable>
rbdock ($Id: //depot/dev/client3/rdock/2013.1/src/exe/rbdock.cxx#4 $)

>  <Rbt.Library>
libRbt.so (2013.1, Build901 2013/11/27)

>  <Rbt.Parameter_File>
/export/apps/rDock/src/rDock_2013.1_src/data/scripts/dock_solv.prm

>  <Rbt.Receptor>
prm/pocket_docking_7.prm

>  <SCORE>
-21.0857

>  <SCORE.INTER>
-2.32913

>  <SCORE.INTER.CONST>
1

>  <SCORE.INTER.POLAR>
0

>  <SCORE.INTER.ROT>
11

>  <SCORE.INTER.SOLV>
10.2741

>  <SCORE.INTER.VDW>
-15.9108

>  <SCORE.INTER.norm>
-0.0582282

>  <SCORE.INTRA>
-18.7566

>  <SCORE.INTRA.DIHEDRAL>
-0.294632

>  <SCORE.INTRA.DIHEDRAL.0>
19.0336

>  <SCORE.INTRA.POLAR>
0

>  <SCORE.INTRA.POLAR.0>
0

>  <SCORE.INTRA.REPUL>
0.000407787

>  <SCORE.INTRA.REPUL.0>
0

>  <SCORE.INTRA.SOLV>
-4.11706

>  <SCORE.INTRA.SOLV.lig_0>
-97.5861

>  <SCORE.INTRA.VDW>
-16.5528

>  <SCORE.INTRA.VDW.0>
11.7669

>  <SCORE.INTRA.norm>
-0.468915

>  <SCORE.RESTR>
0

>  <SCORE.RESTR.CAVITY>
0

>  <SCORE.RESTR.norm>
0

>  <SCORE.SYSTEM>
0

>  <SCORE.SYSTEM.CONST>
0

>  <SCORE.SYSTEM.DIHEDRAL>
0

>  <SCORE.SYSTEM.SOLV>
0

>  <SCORE.SYSTEM.norm>
0

>  <SCORE.heavy>
40

>  <SCORE.norm>
-0.527143

>  <RMSD>
8.625

$$$$
1nta_lig
 OpenBabel11021811403D
libRbt.so/2013.1/901 2013/11/27
 40 42  0  0  0  0  0  0  0  0999 V2000
    3.4123   36.6423    1.0716 C   0  0  0  0  0  0  0  0  0  0  0  0
    2.1448   36.6463    1.2550 N   0  0  0  0  0  0  0  0  0  0  0  0
   10.2851   33.9816   -2.4380 C   0  0  0  0  0  0  0  0  0  0  0  0
   11.2146   34.4953   -3.0207 O   0  0  0  0  0  0  0  0  0  0  0  0
    9.3419   35.9174    0.6715 C   0  0  0  0  0  0  0  0  0  0  0  0
    8.8272   37.0778    0.9848 N   0  0  0  0  0  0  0  0  0  0  0  0
   12.1844   31.5388   -1.2188 C   0  0  0  0  0  0  0  0  0  0  0  0
    9.3137   30.7060   -6.2455 C   0  0  0  0  0  0  0  0  0  0  0  0
    4.9738   34.9537    0.5141 C   0  0  2  0  0  0  0  0  0  0  0  0
    3.8439   35.8697    0.0860 N   0  0  0  0  0  0  0  0  0  0  0  0
    8.6135   31.4104   -0.8687 C   0  0  2  0  0  0  0  0  0  0  0  0
    7.9404   32.3269   -4.2954 C   0  0  1  0  0  0  0  0  0  0  0  0
    7.9880   31.5984   -3.1187 O   0  0  0  0  0  0  0  0  0  0  0  0
    6.3174   35.4864   -0.0189 C   0  0  1  0  0  0  0  0  0  0  0  0
    6.5333   36.7290    0.5788 O   0  0  0  0  0  0  0  0  0  0  0  0
    8.6436   32.2261   -2.1567 C   0  0  2  0  0  0  0  0  0  0  0  0
    7.3269   31.6089   -5.4773 C   0  0  1  0  0  0  0  0  0  0  0  0
    8.0179   30.3816   -5.6729 N   0  0  0  0  0  0  0  0  0  0  0  0
    7.4973   34.5836    0.3653 C   0  0  2  0  0  0  0  0  0  0  0  0
    8.8073   35.0640   -0.1358 N   0  0  0  0  0  0  0  0  0  0  0  0
   10.0790   32.4986   -2.2838 C   0  0  1  0  0  0  0  0  0  0  0  0
   10.5496   31.7690   -3.4189 O   0  0  0  0  0  0  0  0  0  0  0  0
    5.9836   31.3395   -5.2561 C   0  0  2  0  0  0  0  0  0  0  0  0
    5.4195   30.9520   -6.4836 O   0  0  0  0  0  0  0  0  0  0  0  0
    7.2291   33.1948   -0.1926 C   0  0  1  0  0  0  0  0  0  0  0  0
    8.3210   32.3635    0.1685 O   0  0  0  0  0  0  0  0  0  0  0  0
   10.7624   31.9892   -1.0884 C   0  0  1  0  0  0  0  0  0  0  0  0
    9.9198   30.9388   -0.6306 O   0  0  0  0  0  0  0  0  0  0  0  0
    5.2795   32.5690   -4.7452 C   0  0  1  0  0  0  0  0  0  0  0  0
    4.0019   32.2111   -4.3067 O   0  0  0  0  0  0  0  0  0  0  0  0
    5.8950   32.6351    0.3782 C   0  0  2  0  0  0  0  0  0  0  0  0
    5.6664   31.3289   -0.1481 O   0  0  0  0  0  0  0  0  0  0  0  0
    6.0300   33.1355   -3.5884 C   0  0  1  0  0  0  0  0  0  0  0  0
    7.3045   33.4933   -4.0390 O   0  0  0  0  0  0  0  0  0  0  0  0
    4.7353   33.5642   -0.0376 C   0  0  1  0  0  0  0  0  0  0  0  0
    3.4921   33.0629    0.4801 O   0  0  0  0  0  0  0  0  0  0  0  0
    5.3502   34.4094   -3.0489 C   0  0  0  0  0  0  0  0  0  0  0  0
    3.9802   34.1316   -2.7823 O   0  0  0  0  0  0  0  0  0  0  0  0
    4.2186   37.3380    1.7983 N   0  0  0  0  0  0  0  0  0  0  0  0
   10.4680   35.5716    1.1601 N   0  0  0  0  0  0  0  0  0  0  0  0
  1  2  1  0  0  0  0
  1 39  1  0  0  0  0
  3  4  1  0  0  0  0
  5  6  1  0  0  0  0
  5 40  1  0  0  0  0
  9 10  1  6  0  0  0
  9 14  1  0  0  0  0
  9 35  1  0  0  0  0
 10  1  1  0  0  0  0
 11 16  1  0  0  0  0
 11 28  1  0  0  0  0
 11 26  1  1  0  0  0
 12 17  1  0  0  0  0
 12 34  1  0  0  0  0
 12 13  1  1  0  0  0
 14 15  1  1  0  0  0
 14 19  1  0  0  0  0
 16 13  1  6  0  0  0
 16 21  1  0  0  0  0
 17 18  1  1  0  0  0
 17 23  1  0  0  0  0
 18  8  1  0  0  0  0
 19 20  1  6  0  0  0
 19 25  1  0  0  0  0
 20  5  1  0  0  0  0
 21  3  1  6  0  0  0
 21 22  1  0  0  0  0
 21 27  1  0  0  0  0
 23 24  1  6  0  0  0
 23 29  1  0  0  0  0
 25 26  1  1  0  0  0
 25 31  1  0  0  0  0
 27  7  1  6  0  0  0
 27 28  1  0  0  0  0
 29 30  1  1  0  0  0
 29 33  1  0  0  0  0
 31 32  1  6  0  0  0
 31 35  1  0  0  0  0
 33 34  1  0  0  0  0
 33 37  1  6  0  0  0
 35 36  1  1  0  0  0
 37 38  1  0  0  0  0
M  END
>  <CHROM.1>
-103.86521299,-129.80034906,47.68495133,174.09243207,177.50188034,-73.70362761
85.75597317,-62.39516210,-152.06523763,-144.55960569,52.70160027,7.20265198
33.41219460,-1.71225298,2.11264371,-0.15809454,0.95692420

>  <Name>
1nta_lig

>  <RI>
0

>  <Rbt.Current_Directory>
/home/itssahil/PROJECTS/Mol_Feturizer/New_Systems/rnas/1nta

>  <Rbt.Executable>
rbdock ($Id: //depot/dev/client3/rdock/2013.1/src/exe/rbdock.cxx#4 $)

>  <Rbt.Library>
libRbt.so (2013.1, Build901 2013/11/27)

>  <Rbt.Parameter_File>
/export/apps/rDock/src/rDock_2013.1_src/data/scripts/dock_solv.prm

>  <Rbt.Receptor>
prm/blind_docking_60.prm

>  <SCORE>
71.1332

>  <SCORE.INTER>
86.4675

>  <SCORE.INTER.CONST>
1

>  <SCORE.INTER.POLAR>
-1.97726

>  <SCORE.INTER.ROT>
11

>  <SCORE.INTER.SOLV>
47.9325

>  <SCORE.INTER.VDW>
37.325

>  <SCORE.INTER.norm>
2.16169

>  <SCORE.INTRA>
-16.1038

>  <SCORE.INTRA.DIHEDRAL>
-8.0657

>  <SCORE.INTRA.DIHEDRAL.0>
19.0336

>  <SCORE.INTRA.POLAR>
0

>  <SCORE.INTRA.POLAR.0>
0

>  <SCORE.INTRA.REPUL>
0

>  <SCORE.INTRA.REPUL.0>
0

>  <SCORE.INTRA.SOLV>
-0.968996

>  <SCORE.INTRA.SOLV.lig_0>
-97.5861

>  <SCORE.INTRA.VDW>
-11.5865

>  <SCORE.INTRA.VDW.0>
11.7669

>  <SCORE.INTRA.norm>
-0.402595

>  <SCORE.RESTR>
0.769569

>  <SCORE.RESTR.CAVITY>
0.769569

>  <SCORE.RESTR.norm>
0.0192392

>  <SCORE.SYSTEM>
0

>  <SCORE.SYSTEM.CONST>
0

>  <SCORE.SYSTEM.DIHEDRAL>
0

>  <SCORE.SYSTEM.SOLV>
0

>  <SCORE.SYSTEM.norm>
0

>  <SCORE.heavy>
40

>  <SCORE.norm>
1.77833

>  <RMSD>
8.628

$$$$
1nta_lig
 OpenBabel11021811403D
libRbt.so/2013.1/901 2013/11/27
 40 42  0  0  0  0  0  0  0  0999 V2000
   -1.6777   33.6573    7.6009 C   0  0  0  0  0  0  0  0  0  0  0  0
   -1.2938   34.7486    8.1504 N   0  0  0  0  0  0  0  0  0  0  0  0
   -4.4563   35.1727   -1.7166 C   0  0  0  0  0  0  0  0  0  0  0  0
   -4.9413   34.5050   -2.6033 O   0  0  0  0  0  0  0  0  0  0  0  0
   -3.2183   30.8624    1.6199 C   0  0  0  0  0  0  0  0  0  0  0  0
   -4.3947   31.2814    2.0075 N   0  0  0  0  0  0  0  0  0  0  0  0
   -2.6763   37.7509   -0.6004 C   0  0  0  0  0  0  0  0  0  0  0  0
   -2.9658   29.6565   -2.3476 C   0  0  0  0  0  0  0  0  0  0  0  0
   -1.7646   33.4989    5.2413 C   0  0  2  0  0  0  0  0  0  0  0  0
   -0.9932   33.2864    6.5292 N   0  0  0  0  0  0  0  0  0  0  0  0
   -1.6001   34.3864    0.0418 C   0  0  2  0  0  0  0  0  0  0  0  0
   -0.9364   32.3919   -1.7163 C   0  0  1  0  0  0  0  0  0  0  0  0
   -1.5119   33.5731   -2.1536 O   0  0  0  0  0  0  0  0  0  0  0  0
   -1.5443   32.3075    4.2900 C   0  0  1  0  0  0  0  0  0  0  0  0
   -2.0736   31.1780    4.9162 O   0  0  0  0  0  0  0  0  0  0  0  0
   -2.3356   34.0993   -1.2627 C   0  0  2  0  0  0  0  0  0  0  0  0
   -1.2331   31.1743   -2.5637 C   0  0  1  0  0  0  0  0  0  0  0  0
   -2.6433   31.0338   -2.6807 N   0  0  0  0  0  0  0  0  0  0  0  0
   -2.2848   32.4799    2.9570 C   0  0  2  0  0  0  0  0  0  0  0  0
   -2.0911   31.3525    2.0139 N   0  0  0  0  0  0  0  0  0  0  0  0
   -2.9812   35.3922   -1.5124 C   0  0  1  0  0  0  0  0  0  0  0  0
   -2.3572   35.9616   -2.6650 O   0  0  0  0  0  0  0  0  0  0  0  0
   -0.6863   31.3032   -3.8327 C   0  0  2  0  0  0  0  0  0  0  0  0
   -0.7406   30.0417   -4.4498 O   0  0  0  0  0  0  0  0  0  0  0  0
   -1.7927   33.7634    2.3072 C   0  0  1  0  0  0  0  0  0  0  0  0
   -2.4830   33.9197    1.0772 O   0  0  0  0  0  0  0  0  0  0  0  0
   -2.7295   36.2732   -0.3651 C   0  0  1  0  0  0  0  0  0  0  0  0
   -1.5112   35.7856    0.1835 O   0  0  0  0  0  0  0  0  0  0  0  0
    0.7470   31.7572   -3.7424 C   0  0  1  0  0  0  0  0  0  0  0  0
    1.1933   32.1081   -5.0191 O   0  0  0  0  0  0  0  0  0  0  0  0
   -2.0540   34.9753    3.2463 C   0  0  2  0  0  0  0  0  0  0  0  0
   -1.5956   36.1700    2.6156 O   0  0  0  0  0  0  0  0  0  0  0  0
    0.8403   32.9601   -2.8667 C   0  0  1  0  0  0  0  0  0  0  0  0
    0.3951   32.5971   -1.5918 O   0  0  0  0  0  0  0  0  0  0  0  0
   -1.2860   34.7680    4.5686 C   0  0  1  0  0  0  0  0  0  0  0  0
   -1.5141   35.8791    5.4507 O   0  0  0  0  0  0  0  0  0  0  0  0
    2.2977   33.4442   -2.7327 C   0  0  0  0  0  0  0  0  0  0  0  0
    2.4751   34.6176   -3.5180 O   0  0  0  0  0  0  0  0  0  0  0  0
   -2.6668   32.9654    8.0539 N   0  0  0  0  0  0  0  0  0  0  0  0
   -3.1309   29.8819    0.8091 N   0  0  0  0  0  0  0  0  0  0  0  0
  1  2  1  0  0  0  0
  1 39  1  0  0  0  0
  3  4  1  0  0  0  0
  5  6  1  0  0  0  0
  5 40  1  0  0  0  0
  9 10  1  1  0  0  0
  9 14  1  0  0  0  0
  9 35  1  0  0  0  0
 10  1  1  0  0  0  0
 11 16  1  0  0  0  0
 11 28  1  0  0  0  0
 11 26  1  1  0  0  0
 12 17  1  0  0  0  0
 12 34  1  0  0  0  0
 12 13  1  6  0  0  0
 14 15  1  1  0  0  0
 14 19  1  0  0  0  0
 16 13  1  6  0  0  0
 16 21  1  0  0  0  0
 17 18  1  6  0  0  0
 17 23  1  0  0  0  0
 18  8  1  0  0  0  0
 19 20  1  6  0  0  0
 19 25  1  0  0  0  0
 20  5  1  0  0  0  0
 21  3  1  6  0  0  0
 21 22  1  0  0  0  0
 21 27  1  0  0  0  0
 23 24  1  1  0  0  0
 23 29  1  0  0  0  0
 25 26  1  6  0  0  0
 25 31  1  0  0  0  0
 27  7  1  6  0  0  0
 27 28  1  0  0  0  0
 29 30  1  6  0  0  0
 29 33  1  0  0  0  0
 31 32  1  6  0  0  0
 31 35  1  0  0  0  0
 33 34  1  0  0  0  0
 33 37  1  1  0  0  0
 35 36  1  1  0  0  0
 37 38  1  0  0  0  0
M  END
>  <CHROM.1>
-139.37698457,-106.14407554,163.12236640,119.47854915,58.98835701,-130.13935428
125.59315525,-0.92295497,-61.36698719,-138.95925219,105.12161926,-1.64180274
33.34521469,0.53056262,3.10299500,1.43305906,-0.08382728

>  <Name>
1nta_lig

>  <RI>
0

>  <Rbt.Current_Directory>
/home/itssahil/PROJECTS/Mol_Feturizer/New_Systems/rnas/1nta

>  <Rbt.Executable>
rbdock ($Id: //depot/dev/client3/rdock/2013.1/src/exe/rbdock.cxx#4 $)

>  <Rbt.Library>
libRbt.so (2013.1, Build901 2013/11/27)

>  <Rbt.Parameter_File>
/export/apps/rDock/src/rDock_2013.1_src/data/scripts/dock_solv.prm

>  <Rbt.Receptor>
prm/pocket_docking_7.prm

>  <SCORE>
-21.7698

>  <SCORE.INTER>
-6.63562

>  <SCORE.INTER.CONST>
1

>  <SCORE.INTER.POLAR>
-1.72677

>  <SCORE.INTER.ROT>
11

>  <SCORE.INTER.SOLV>
14.5949

>  <SCORE.INTER.VDW>
-14.4661

>  <SCORE.INTER.norm>
-0.16589

>  <SCORE.INTRA>
-15.1404

>  <SCORE.INTRA.DIHEDRAL>
3.64066

>  <SCORE.INTRA.DIHEDRAL.0>
19.0336

>  <SCORE.INTRA.POLAR>
0

>  <SCORE.INTRA.POLAR.0>
0

>  <SCORE.INTRA.REPUL>
0

>  <SCORE.INTRA.REPUL.0>
0

>  <SCORE.INTRA.SOLV>
-3.14879

>  <SCORE.INTRA.SOLV.lig_0>
-97.5861

>  <SCORE.INTRA.VDW>
-15.3864

>  <SCORE.INTRA.VDW.0>
11.7669

>  <SCORE.INTRA.norm>
-0.378511

>  <SCORE.RESTR>
0.00629011

>  <SCORE.RESTR.CAVITY>
0.00629011

>  <SCORE.RESTR.norm>
0.000157253

>  <SCORE.SYSTEM>
0

>  <SCORE.SYSTEM.CONST>
0

>  <SCORE.SYSTEM.DIHEDRAL>
0

>  <SCORE.SYSTEM.SOLV>
0

>  <SCORE.SYSTEM.norm>
0

>  <SCORE.heavy>
40

>  <SCORE.norm>
-0.544244

>  <RMSD>
8.643

$$$$
1nta_lig
 OpenBabel11021811403D
libRbt.so/2013.1/901 2013/11/27
 40 42  0  0  0  0  0  0  0  0999 V2000
   -4.8791   33.8889    0.0369 C   0  0  0  0  0  0  0  0  0  0  0  0
   -5.1301   33.0434    0.9655 N   0  0  0  0  0  0  0  0  0  0  0  0
   -0.0405   42.1057    3.1220 C   0  0  0  0  0  0  0  0  0  0  0  0
   -0.4023   42.9098    3.9525 O   0  0  0  0  0  0  0  0  0  0  0  0
   -2.2729   39.5426   -1.4322 C   0  0  0  0  0  0  0  0  0  0  0  0
   -2.9908   39.3262   -2.5034 N   0  0  0  0  0  0  0  0  0  0  0  0
   -0.0793   40.0306    5.7208 C   0  0  0  0  0  0  0  0  0  0  0  0
    3.2534   41.7018   -1.8882 C   0  0  0  0  0  0  0  0  0  0  0  0
   -3.2550   35.5442    0.5092 C   0  0  2  0  0  0  0  0  0  0  0  0
   -3.6022   34.2069   -0.1154 N   0  0  0  0  0  0  0  0  0  0  0  0
    0.4296   38.7707    2.3976 C   0  0  2  0  0  0  0  0  0  0  0  0
    2.4027   39.4670    0.5190 C   0  0  1  0  0  0  0  0  0  0  0  0
    2.2811   40.0593    1.7648 O   0  0  0  0  0  0  0  0  0  0  0  0
   -2.5458   36.4417   -0.5226 C   0  0  1  0  0  0  0  0  0  0  0  0
   -3.4560   36.6820   -1.5530 O   0  0  0  0  0  0  0  0  0  0  0  0
    1.0236   40.1554    2.1631 C   0  0  2  0  0  0  0  0  0  0  0  0
    3.5246   39.9997   -0.3448 C   0  0  1  0  0  0  0  0  0  0  0  0
    3.3732   41.4081   -0.4699 N   0  0  0  0  0  0  0  0  0  0  0  0
   -2.1489   37.8034    0.0630 C   0  0  2  0  0  0  0  0  0  0  0  0
   -1.4590   38.6925   -0.9023 N   0  0  0  0  0  0  0  0  0  0  0  0
    0.6872   40.8233    3.4247 C   0  0  1  0  0  0  0  0  0  0  0  0
    1.9129   41.0520    4.1227 O   0  0  0  0  0  0  0  0  0  0  0  0
    4.7627   39.7280    0.2203 C   0  0  2  0  0  0  0  0  0  0  0  0
    5.7409   39.9777   -0.7574 O   0  0  0  0  0  0  0  0  0  0  0  0
   -1.2359   37.5564    1.2535 C   0  0  1  0  0  0  0  0  0  0  0  0
   -0.8749   38.8182    1.7931 O   0  0  0  0  0  0  0  0  0  0  0  0
   -0.1436   39.9187    4.2291 C   0  0  1  0  0  0  0  0  0  0  0  0
    0.2298   38.6204    3.7843 O   0  0  0  0  0  0  0  0  0  0  0  0
    4.8379   38.2864    0.6498 C   0  0  1  0  0  0  0  0  0  0  0  0
    5.9866   38.1027    1.4239 O   0  0  0  0  0  0  0  0  0  0  0  0
   -1.9645   36.6873    2.3178 C   0  0  2  0  0  0  0  0  0  0  0  0
   -1.0966   36.4755    3.4301 O   0  0  0  0  0  0  0  0  0  0  0  0
    3.6509   37.9469    1.4855 C   0  0  1  0  0  0  0  0  0  0  0  0
    2.5083   38.1304    0.7006 O   0  0  0  0  0  0  0  0  0  0  0  0
   -2.3372   35.3263    1.6934 C   0  0  1  0  0  0  0  0  0  0  0  0
   -3.0114   34.5073    2.6627 O   0  0  0  0  0  0  0  0  0  0  0  0
    3.6814   36.4709    1.9290 C   0  0  0  0  0  0  0  0  0  0  0  0
    4.8369   36.2462    2.7285 O   0  0  0  0  0  0  0  0  0  0  0  0
   -5.8042   34.4027   -0.6995 N   0  0  0  0  0  0  0  0  0  0  0  0
   -2.3334   40.6744   -0.8475 N   0  0  0  0  0  0  0  0  0  0  0  0
  1  2  1  0  0  0  0
  1 39  1  0  0  0  0
  3  4  1  0  0  0  0
  5  6  1  0  0  0  0
  5 40  1  0  0  0  0
  9 10  1  6  0  0  0
  9 14  1  0  0  0  0
  9 35  1  0  0  0  0
 10  1  1  0  0  0  0
 11 16  1  0  0  0  0
 11 28  1  0  0  0  0
 11 26  1  6  0  0  0
 12 17  1  0  0  0  0
 12 34  1  0  0  0  0
 12 13  1  1  0  0  0
 14 15  1  6  0  0  0
 14 19  1  0  0  0  0
 16 13  1  1  0  0  0
 16 21  1  0  0  0  0
 17 18  1  1  0  0  0
 17 23  1  0  0  0  0
 18  8  1  0  0  0  0
 19 20  1  6  0  0  0
 19 25  1  0  0  0  0
 20  5  1  0  0  0  0
 21  3  1  6  0  0  0
 21 22  1  0  0  0  0
 21 27  1  0  0  0  0
 23 24  1  6  0  0  0
 23 29  1  0  0  0  0
 25 26  1  1  0  0  0
 25 31  1  0  0  0  0
 27  7  1  1  0  0  0
 27 28  1  0  0  0  0
 29 30  1  1  0  0  0
 29 33  1  0  0  0  0
 31 32  1  1  0  0  0
 31 35  1  0  0  0  0
 33 34  1  0  0  0  0
 33 37  1  6  0  0  0
 35 36  1  1  0  0  0
 37 38  1  0  0  0  0
M  END
>  <CHROM.1>
-127.56007478,-101.25808230,146.91339597,145.41089981,66.02289107,-121.49385652
97.81542298,-87.52513072,-176.78356090,-149.94065775,61.83617463,0.15513392
38.30587165,1.21162243,-2.69461294,0.33347248,0.82631078

>  <Name>
1nta_lig

>  <RI>
0

>  <Rbt.Current_Directory>
/home/itssahil/PROJECTS/Mol_Feturizer/New_Systems/rnas/1nta

>  <Rbt.Executable>
rbdock ($Id: //depot/dev/client3/rdock/2013.1/src/exe/rbdock.cxx#4 $)

>  <Rbt.Library>
libRbt.so (2013.1, Build901 2013/11/27)

>  <Rbt.Parameter_File>
/export/apps/rDock/src/rDock_2013.1_src/data/scripts/dock_solv.prm

>  <Rbt.Receptor>
prm/pocket_docking_7.prm

>  <SCORE>
-17.3448

>  <SCORE.INTER>
2.19357

>  <SCORE.INTER.CONST>
1

>  <SCORE.INTER.POLAR>
-0.204593

>  <SCORE.INTER.ROT>
11

>  <SCORE.INTER.SOLV>
7.66256

>  <SCORE.INTER.VDW>
-11.3432

>  <SCORE.INTER.norm>
0.0548393

>  <SCORE.INTRA>
-19.5384

>  <SCORE.INTRA.DIHEDRAL>
-2.27304

>  <SCORE.INTRA.DIHEDRAL.0>
19.0336

>  <SCORE.INTRA.POLAR>
0

>  <SCORE.INTRA.POLAR.0>
0

>  <SCORE.INTRA.REPUL>
0.0298213

>  <SCORE.INTRA.REPUL.0>
0

>  <SCORE.INTRA.SOLV>
-5.1653

>  <SCORE.INTRA.SOLV.lig_0>
-97.5861

>  <SCORE.INTRA.VDW>
-15.9684

>  <SCORE.INTRA.VDW.0>
11.7669

>  <SCORE.INTRA.norm>
-0.48846

>  <SCORE.RESTR>
0

>  <SCORE.RESTR.CAVITY>
0

>  <SCORE.RESTR.norm>
0

>  <SCORE.SYSTEM>
0

>  <SCORE.SYSTEM.CONST>
0

>  <SCORE.SYSTEM.DIHEDRAL>
0

>  <SCORE.SYSTEM.SOLV>
0

>  <SCORE.SYSTEM.norm>
0

>  <SCORE.heavy>
40

>  <SCORE.norm>
-0.433621

>  <RMSD>
8.671

$$$$
1nta_lig
 OpenBabel11021811403D
libRbt.so/2013.1/901 2013/11/27
 40 42  0  0  0  0  0  0  0  0999 V2000
    2.8315   35.8227    0.8661 C   0  0  0  0  0  0  0  0  0  0  0  0
    2.4966   37.0185    0.5531 N   0  0  0  0  0  0  0  0  0  0  0  0
   10.3041   34.0336   -2.3316 C   0  0  0  0  0  0  0  0  0  0  0  0
   11.1368   34.5653   -3.0323 O   0  0  0  0  0  0  0  0  0  0  0  0
    8.1600   35.9742    0.5148 C   0  0  0  0  0  0  0  0  0  0  0  0
    7.2666   36.9290    0.5225 N   0  0  0  0  0  0  0  0  0  0  0  0
   12.1599   31.5649   -1.0975 C   0  0  0  0  0  0  0  0  0  0  0  0
    9.2817   30.6952   -6.9665 C   0  0  0  0  0  0  0  0  0  0  0  0
    4.4031   34.1598    0.2617 C   0  0  2  0  0  0  0  0  0  0  0  0
    3.2561   35.0680   -0.1363 N   0  0  0  0  0  0  0  0  0  0  0  0
    8.5784   31.4255   -0.8865 C   0  0  2  0  0  0  0  0  0  0  0  0
    8.0380   32.4184   -4.3155 C   0  0  1  0  0  0  0  0  0  0  0  0
    8.0386   31.6648   -3.1538 O   0  0  0  0  0  0  0  0  0  0  0  0
    5.6633   34.9962    0.5539 C   0  0  1  0  0  0  0  0  0  0  0  0
    5.3715   35.8106    1.6491 O   0  0  0  0  0  0  0  0  0  0  0  0
    8.6561   32.2706   -2.1534 C   0  0  2  0  0  0  0  0  0  0  0  0
    7.7005   31.6594   -5.5799 C   0  0  1  0  0  0  0  0  0  0  0  0
    8.5875   30.5541   -5.6976 N   0  0  0  0  0  0  0  0  0  0  0  0
    6.8659   34.1249    0.9401 C   0  0  2  0  0  0  0  0  0  0  0  0
    8.0990   34.8976    1.2240 N   0  0  0  0  0  0  0  0  0  0  0  0
   10.0948   32.5472   -2.2195 C   0  0  1  0  0  0  0  0  0  0  0  0
   10.6095   31.8445   -3.3524 O   0  0  0  0  0  0  0  0  0  0  0  0
    6.3955   31.1884   -5.5468 C   0  0  2  0  0  0  0  0  0  0  0  0
    6.0628   30.7648   -6.8449 O   0  0  0  0  0  0  0  0  0  0  0  0
    7.1349   33.1594   -0.2033 C   0  0  1  0  0  0  0  0  0  0  0  0
    8.2452   32.3541    0.1604 O   0  0  0  0  0  0  0  0  0  0  0  0
   10.7332   32.0109   -1.0110 C   0  0  1  0  0  0  0  0  0  0  0  0
    9.8756   30.9495   -0.6099 O   0  0  0  0  0  0  0  0  0  0  0  0
    5.4538   32.2830   -5.1185 C   0  0  1  0  0  0  0  0  0  0  0  0
    4.1978   31.7268   -4.8624 O   0  0  0  0  0  0  0  0  0  0  0  0
    5.8792   32.2821   -0.4720 C   0  0  2  0  0  0  0  0  0  0  0  0
    6.1543   31.3768   -1.5398 O   0  0  0  0  0  0  0  0  0  0  0  0
    5.9516   32.9133   -3.8626 C   0  0  1  0  0  0  0  0  0  0  0  0
    7.2062   33.4695   -4.1310 O   0  0  0  0  0  0  0  0  0  0  0  0
    4.6977   33.1933   -0.8657 C   0  0  1  0  0  0  0  0  0  0  0  0
    3.5266   32.4002   -1.1193 O   0  0  0  0  0  0  0  0  0  0  0  0
    5.0232   34.0545   -3.4019 C   0  0  0  0  0  0  0  0  0  0  0  0
    5.7611   34.9577   -2.5866 O   0  0  0  0  0  0  0  0  0  0  0  0
    2.7573   35.3772    2.0737 N   0  0  0  0  0  0  0  0  0  0  0  0
    9.1736   36.0618   -0.2542 N   0  0  0  0  0  0  0  0  0  0  0  0
  1  2  1  0  0  0  0
  1 39  1  0  0  0  0
  3  4  1  0  0  0  0
  5  6  1  0  0  0  0
  5 40  1  0  0  0  0
  9 10  1  6  0  0  0
  9 14  1  0  0  0  0
  9 35  1  0  0  0  0
 10  1  1  0  0  0  0
 11 16  1  0  0  0  0
 11 28  1  0  0  0  0
 11 26  1  1  0  0  0
 12 17  1  0  0  0  0
 12 34  1  0  0  0  0
 12 13  1  1  0  0  0
 14 15  1  1  0  0  0
 14 19  1  0  0  0  0
 16 13  1  6  0  0  0
 16 21  1  0  0  0  0
 17 18  1  1  0  0  0
 17 23  1  0  0  0  0
 18  8  1  0  0  0  0
 19 20  1  6  0  0  0
 19 25  1  0  0  0  0
 20  5  1  0  0  0  0
 21  3  1  6  0  0  0
 21 22  1  0  0  0  0
 21 27  1  0  0  0  0
 23 24  1  6  0  0  0
 23 29  1  0  0  0  0
 25 26  1  1  0  0  0
 25 31  1  0  0  0  0
 27  7  1  6  0  0  0
 27 28  1  0  0  0  0
 29 30  1  1  0  0  0
 29 33  1  0  0  0  0
 31 32  1  6  0  0  0
 31 35  1  0  0  0  0
 33 34  1  0  0  0  0
 33 37  1  6  0  0  0
 35 36  1  1  0  0  0
 37 38  1  0  0  0  0
M  END
>  <CHROM.1>
-68.12681758,141.89918167,49.83240331,163.89400354,177.68381896,-122.02952378
-31.62440008,58.46767613,-140.33072912,-178.96740220,-156.15608664,7.06379978
33.23759062,-1.88753845,2.16517929,-0.15971528,1.04203530

>  <Name>
1nta_lig

>  <RI>
9.25352e+06

>  <Rbt.Current_Directory>
/home/itssahil/PROJECTS/Mol_Feturizer/New_Systems/rnas/1nta

>  <Rbt.Executable>
rbdock ($Id: //depot/dev/client3/rdock/2013.1/src/exe/rbdock.cxx#4 $)

>  <Rbt.Library>
libRbt.so (2013.1, Build901 2013/11/27)

>  <Rbt.Parameter_File>
/export/apps/rDock/src/rDock_2013.1_src/data/scripts/dock_solv.prm

>  <Rbt.Receptor>
prm/blind_docking_40.prm

>  <SCORE>
114.351

>  <SCORE.INTER>
118.206

>  <SCORE.INTER.CONST>
1

>  <SCORE.INTER.POLAR>
-2.27841

>  <SCORE.INTER.ROT>
11

>  <SCORE.INTER.SOLV>
42.389

>  <SCORE.INTER.VDW>
61.3358

>  <SCORE.INTER.norm>
2.95515

>  <SCORE.INTRA>
-4.89606

>  <SCORE.INTRA.DIHEDRAL>
-8.48531

>  <SCORE.INTRA.DIHEDRAL.0>
19.0336

>  <SCORE.INTRA.POLAR>
0

>  <SCORE.INTRA.POLAR.0>
0

>  <SCORE.INTRA.REPUL>
0

>  <SCORE.INTRA.REPUL.0>
0

>  <SCORE.INTRA.SOLV>
3.57951

>  <SCORE.INTRA.SOLV.lig_0>
-97.5861

>  <SCORE.INTRA.VDW>
-2.44317

>  <SCORE.INTRA.VDW.0>
11.7669

>  <SCORE.INTRA.norm>
-0.122402

>  <SCORE.RESTR>
1.04072

>  <SCORE.RESTR.CAVITY>
1.04072

>  <SCORE.RESTR.norm>
0.0260179

>  <SCORE.SYSTEM>
0

>  <SCORE.SYSTEM.CONST>
0

>  <SCORE.SYSTEM.DIHEDRAL>
0

>  <SCORE.SYSTEM.SOLV>
0

>  <SCORE.SYSTEM.norm>
0

>  <SCORE.heavy>
40

>  <SCORE.norm>
2.85877

>  <RMSD>
8.693

$$$$
1nta_lig
 OpenBabel11021811403D
libRbt.so/2013.1/901 2013/11/27
 40 42  0  0  0  0  0  0  0  0999 V2000
   -4.5573   35.2728    3.1859 C   0  0  0  0  0  0  0  0  0  0  0  0
   -5.6326   35.0889    2.5150 N   0  0  0  0  0  0  0  0  0  0  0  0
    1.6833   41.1661   -0.4894 C   0  0  0  0  0  0  0  0  0  0  0  0
    2.1186   40.3975   -1.3184 O   0  0  0  0  0  0  0  0  0  0  0  0
   -2.9670   40.5341   -0.1992 C   0  0  0  0  0  0  0  0  0  0  0  0
   -3.9953   40.2043   -0.9365 N   0  0  0  0  0  0  0  0  0  0  0  0
    2.0956   43.6192    1.7182 C   0  0  0  0  0  0  0  0  0  0  0  0
    6.4087   38.6674    1.1961 C   0  0  0  0  0  0  0  0  0  0  0  0
   -2.9939   36.9691    2.6578 C   0  0  2  0  0  0  0  0  0  0  0  0
   -3.4769   35.5442    2.4693 N   0  0  0  0  0  0  0  0  0  0  0  0
    0.8898   40.4071    2.7759 C   0  0  2  0  0  0  0  0  0  0  0  0
    3.2616   38.4356    0.9085 C   0  0  1  0  0  0  0  0  0  0  0  0
    2.6219   39.0497    1.9721 O   0  0  0  0  0  0  0  0  0  0  0  0
   -2.7566   37.6328    1.2881 C   0  0  1  0  0  0  0  0  0  0  0  0
   -3.9909   37.6890    0.6390 O   0  0  0  0  0  0  0  0  0  0  0  0
    1.7016   39.9158    1.5823 C   0  0  2  0  0  0  0  0  0  0  0  0
    4.4036   37.5165    1.2827 C   0  0  1  0  0  0  0  0  0  0  0  0
    5.3323   38.2443    2.0762 N   0  0  0  0  0  0  0  0  0  0  0  0
   -2.2429   39.0729    1.4182 C   0  0  2  0  0  0  0  0  0  0  0  0
   -1.9988   39.7417    0.1178 N   0  0  0  0  0  0  0  0  0  0  0  0
    2.0861   41.1873    0.9608 C   0  0  1  0  0  0  0  0  0  0  0  0
    3.4986   41.3289    1.1250 O   0  0  0  0  0  0  0  0  0  0  0  0
    3.9490   36.4245    2.0087 C   0  0  2  0  0  0  0  0  0  0  0  0
    4.9920   35.4841    2.0611 O   0  0  0  0  0  0  0  0  0  0  0  0
   -0.9473   39.0411    2.2133 C   0  0  1  0  0  0  0  0  0  0  0  0
   -0.4787   40.3751    2.3336 O   0  0  0  0  0  0  0  0  0  0  0  0
    1.4229   42.2821    1.6799 C   0  0  1  0  0  0  0  0  0  0  0  0
    1.2170   41.7613    2.9873 O   0  0  0  0  0  0  0  0  0  0  0  0
    2.7507   35.8091    1.3350 C   0  0  1  0  0  0  0  0  0  0  0  0
    2.1734   34.8756    2.1997 O   0  0  0  0  0  0  0  0  0  0  0  0
   -1.1922   38.4120    3.6144 C   0  0  2  0  0  0  0  0  0  0  0  0
    0.0312   38.4005    4.3482 O   0  0  0  0  0  0  0  0  0  0  0  0
    1.7394   36.8647    1.0426 C   0  0  1  0  0  0  0  0  0  0  0  0
    2.3259   37.7906    0.1743 O   0  0  0  0  0  0  0  0  0  0  0  0
   -1.6976   36.9645    3.4399 C   0  0  1  0  0  0  0  0  0  0  0  0
   -1.9292   36.3648    4.7250 O   0  0  0  0  0  0  0  0  0  0  0  0
    0.5038   36.2761    0.3333 C   0  0  0  0  0  0  0  0  0  0  0  0
   -0.1753   35.4004    1.2260 O   0  0  0  0  0  0  0  0  0  0  0  0
   -4.5228   35.1949    4.4724 N   0  0  0  0  0  0  0  0  0  0  0  0
   -2.8608   41.7258    0.2424 N   0  0  0  0  0  0  0  0  0  0  0  0
  1  2  1  0  0  0  0
  1 39  1  0  0  0  0
  3  4  1  0  0  0  0
  5  6  1  0  0  0  0
  5 40  1  0  0  0  0
  9 10  1  6  0  0  0
  9 14  1  0  0  0  0
  9 35  1  0  0  0  0
 10  1  1  0  0  0  0
 11 16  1  0  0  0  0
 11 28  1  0  0  0  0
 11 26  1  6  0  0  0
 12 17  1  0  0  0  0
 12 34  1  0  0  0  0
 12 13  1  1  0  0  0
 14 15  1  6  0  0  0
 14 19  1  0  0  0  0
 16 13  1  1  0  0  0
 16 21  1  0  0  0  0
 17 18  1  1  0  0  0
 17 23  1  0  0  0  0
 18  8  1  0  0  0  0
 19 20  1  6  0  0  0
 19 25  1  0  0  0  0
 20  5  1  0  0  0  0
 21  3  1  6  0  0  0
 21 22  1  0  0  0  0
 21 27  1  0  0  0  0
 23 24  1  6  0  0  0
 23 29  1  0  0  0  0
 25 26  1  1  0  0  0
 25 31  1  0  0  0  0
 27  7  1  1  0  0  0
 27 28  1  0  0  0  0
 29 30  1  1  0  0  0
 29 33  1  0  0  0  0
 31 32  1  1  0  0  0
 31 35  1  0  0  0  0
 33 34  1  0  0  0  0
 33 37  1  6  0  0  0
 35 36  1  1  0  0  0
 37 38  1  0  0  0  0
M  END
>  <CHROM.1>
-130.48617970,111.22793430,71.43024168,175.22660744,171.61387821,-98.76863388
100.51674029,-92.99283968,-62.97380602,-165.74202195,66.23354073,0.26688811
38.42640578,1.68837491,-2.80427104,0.04742895,-0.28581617

>  <Name>
1nta_lig

>  <RI>
0

>  <Rbt.Current_Directory>
/home/itssahil/PROJECTS/Mol_Feturizer/New_Systems/rnas/1nta

>  <Rbt.Executable>
rbdock ($Id: //depot/dev/client3/rdock/2013.1/src/exe/rbdock.cxx#4 $)

>  <Rbt.Library>
libRbt.so (2013.1, Build901 2013/11/27)

>  <Rbt.Parameter_File>
/export/apps/rDock/src/rDock_2013.1_src/data/scripts/dock_solv.prm

>  <Rbt.Receptor>
prm/pocket_docking_6.prm

>  <SCORE>
-22.5794

>  <SCORE.INTER>
2.63104

>  <SCORE.INTER.CONST>
1

>  <SCORE.INTER.POLAR>
0

>  <SCORE.INTER.ROT>
11

>  <SCORE.INTER.SOLV>
8.42232

>  <SCORE.INTER.VDW>
-11.9867

>  <SCORE.INTER.norm>
0.065776

>  <SCORE.INTRA>
-25.2104

>  <SCORE.INTRA.DIHEDRAL>
-12.7133

>  <SCORE.INTRA.DIHEDRAL.0>
19.0336

>  <SCORE.INTRA.POLAR>
0

>  <SCORE.INTRA.POLAR.0>
0

>  <SCORE.INTRA.REPUL>
0.06327

>  <SCORE.INTRA.REPUL.0>
0

>  <SCORE.INTRA.SOLV>
-3.11922

>  <SCORE.INTRA.SOLV.lig_0>
-97.5861

>  <SCORE.INTRA.VDW>
-17.6105

>  <SCORE.INTRA.VDW.0>
11.7669

>  <SCORE.INTRA.norm>
-0.63026

>  <SCORE.RESTR>
0

>  <SCORE.RESTR.CAVITY>
0

>  <SCORE.RESTR.norm>
0

>  <SCORE.SYSTEM>
0

>  <SCORE.SYSTEM.CONST>
0

>  <SCORE.SYSTEM.DIHEDRAL>
0

>  <SCORE.SYSTEM.SOLV>
0

>  <SCORE.SYSTEM.norm>
0

>  <SCORE.heavy>
40

>  <SCORE.norm>
-0.564484

>  <RMSD>
8.710

$$$$
1nta_lig
 OpenBabel11021811403D
libRbt.so/2013.1/901 2013/11/27
 40 42  0  0  0  0  0  0  0  0999 V2000
   -3.9987   30.9344    5.7387 C   0  0  0  0  0  0  0  0  0  0  0  0
   -3.6973   31.6160    6.7801 N   0  0  0  0  0  0  0  0  0  0  0  0
   -3.6380   34.5684   -3.6287 C   0  0  0  0  0  0  0  0  0  0  0  0
   -4.4767   35.2563   -4.1677 O   0  0  0  0  0  0  0  0  0  0  0  0
   -4.3947   30.3007   -0.8661 C   0  0  0  0  0  0  0  0  0  0  0  0
   -5.5649   29.9927   -0.3705 N   0  0  0  0  0  0  0  0  0  0  0  0
   -3.5735   37.1084   -1.4826 C   0  0  0  0  0  0  0  0  0  0  0  0
    0.4158   31.4972   -5.3961 C   0  0  0  0  0  0  0  0  0  0  0  0
   -3.3829   31.5506    3.5383 C   0  0  2  0  0  0  0  0  0  0  0  0
   -3.0421   30.8302    4.8282 N   0  0  0  0  0  0  0  0  0  0  0  0
   -1.8338   34.0570   -0.7387 C   0  0  2  0  0  0  0  0  0  0  0  0
    0.0498   32.6229   -2.5636 C   0  0  1  0  0  0  0  0  0  0  0  0
   -0.4756   33.9017   -2.6414 O   0  0  0  0  0  0  0  0  0  0  0  0
   -3.1839   30.6071    2.3370 C   0  0  1  0  0  0  0  0  0  0  0  0
   -4.0908   29.5565    2.4847 O   0  0  0  0  0  0  0  0  0  0  0  0
   -1.7400   33.9577   -2.2575 C   0  0  2  0  0  0  0  0  0  0  0  0
    1.2649   32.3681   -3.4280 C   0  0  1  0  0  0  0  0  0  0  0  0
    0.9441   32.6993   -4.7732 N   0  0  0  0  0  0  0  0  0  0  0  0
   -3.4925   31.2921    0.9990 C   0  0  2  0  0  0  0  0  0  0  0  0
   -3.3069   30.4136   -0.1807 N   0  0  0  0  0  0  0  0  0  0  0  0
   -2.5975   35.0750   -2.6662 C   0  0  1  0  0  0  0  0  0  0  0  0
   -1.7519   36.0630   -3.2588 O   0  0  0  0  0  0  0  0  0  0  0  0
    2.3413   33.1422   -3.0178 C   0  0  2  0  0  0  0  0  0  0  0  0
    3.4906   32.6458   -3.6564 O   0  0  0  0  0  0  0  0  0  0  0  0
   -2.5811   32.5021    0.8678 C   0  0  1  0  0  0  0  0  0  0  0  0
   -2.8730   33.1335   -0.3690 O   0  0  0  0  0  0  0  0  0  0  0  0
   -3.2191   35.6537   -1.4686 C   0  0  1  0  0  0  0  0  0  0  0  0
   -2.3051   35.3469   -0.4230 O   0  0  0  0  0  0  0  0  0  0  0  0
    2.5158   33.0483   -1.5247 C   0  0  1  0  0  0  0  0  0  0  0  0
    3.4398   34.0126   -1.1141 O   0  0  0  0  0  0  0  0  0  0  0  0
   -2.8110   33.4790    2.0559 C   0  0  2  0  0  0  0  0  0  0  0  0
   -1.9554   34.6112    1.9096 O   0  0  0  0  0  0  0  0  0  0  0  0
    1.2171   33.3256   -0.8471 C   0  0  1  0  0  0  0  0  0  0  0  0
    0.3017   32.3533   -1.2619 O   0  0  0  0  0  0  0  0  0  0  0  0
   -2.4812   32.7563    3.3788 C   0  0  1  0  0  0  0  0  0  0  0  0
   -2.6868   33.6438    4.4900 O   0  0  0  0  0  0  0  0  0  0  0  0
    1.3503   33.2190    0.6849 C   0  0  0  0  0  0  0  0  0  0  0  0
    1.6763   31.8785    1.0341 O   0  0  0  0  0  0  0  0  0  0  0  0
   -5.1558   30.3884    5.5802 N   0  0  0  0  0  0  0  0  0  0  0  0
   -4.2686   30.4899   -2.1210 N   0  0  0  0  0  0  0  0  0  0  0  0
  1  2  1  0  0  0  0
  1 39  1  0  0  0  0
  3  4  1  0  0  0  0
  5  6  1  0  0  0  0
  5 40  1  0  0  0  0
  9 10  1  1  0  0  0
  9 14  1  0  0  0  0
  9 35  1  0  0  0  0
 10  1  1  0  0  0  0
 11 16  1  0  0  0  0
 11 28  1  0  0  0  0
 11 26  1  6  0  0  0
 12 17  1  0  0  0  0
 12 34  1  0  0  0  0
 12 13  1  1  0  0  0
 14 15  1  1  0  0  0
 14 19  1  0  0  0  0
 16 13  1  1  0  0  0
 16 21  1  0  0  0  0
 17 18  1  6  0  0  0
 17 23  1  0  0  0  0
 18  8  1  0  0  0  0
 19 20  1  6  0  0  0
 19 25  1  0  0  0  0
 20  5  1  0  0  0  0
 21  3  1  6  0  0  0
 21 22  1  0  0  0  0
 21 27  1  0  0  0  0
 23 24  1  6  0  0  0
 23 29  1  0  0  0  0
 25 26  1  6  0  0  0
 25 31  1  0  0  0  0
 27  7  1  6  0  0  0
 27 28  1  0  0  0  0
 29 30  1  1  0  0  0
 29 33  1  0  0  0  0
 31 32  1  6  0  0  0
 31 35  1  0  0  0  0
 33 34  1  0  0  0  0
 33 37  1  1  0  0  0
 35 36  1  1  0  0  0
 37 38  1  0  0  0  0
M  END
>  <CHROM.1>
-128.97348120,-113.03703673,144.46315608,158.50213749,82.84295574,-89.86277839
121.51314041,-50.36723481,-178.33479591,-164.50926305,-64.20377561,-1.70716418
32.83146207,-0.21664243,-2.09014481,0.10781826,-1.19961257

>  <Name>
1nta_lig

>  <RI>
0

>  <Rbt.Current_Directory>
/home/itssahil/PROJECTS/Mol_Feturizer/New_Systems/rnas/1nta

>  <Rbt.Executable>
rbdock ($Id: //depot/dev/client3/rdock/2013.1/src/exe/rbdock.cxx#4 $)

>  <Rbt.Library>
libRbt.so (2013.1, Build901 2013/11/27)

>  <Rbt.Parameter_File>
/export/apps/rDock/src/rDock_2013.1_src/data/scripts/dock_solv.prm

>  <Rbt.Receptor>
prm/pocket_docking_8.prm

>  <SCORE>
-21.2926

>  <SCORE.INTER>
-0.594793

>  <SCORE.INTER.CONST>
1

>  <SCORE.INTER.POLAR>
-0.795374

>  <SCORE.INTER.ROT>
11

>  <SCORE.INTER.SOLV>
8.57283

>  <SCORE.INTER.VDW>
-11.5362

>  <SCORE.INTER.norm>
-0.0148698

>  <SCORE.INTRA>
-20.6978

>  <SCORE.INTRA.DIHEDRAL>
-4.73888

>  <SCORE.INTRA.DIHEDRAL.0>
19.0336

>  <SCORE.INTRA.POLAR>
0

>  <SCORE.INTRA.POLAR.0>
0

>  <SCORE.INTRA.REPUL>
0.0229126

>  <SCORE.INTRA.REPUL.0>
0

>  <SCORE.INTRA.SOLV>
-5.05833

>  <SCORE.INTRA.SOLV.lig_0>
-97.5861

>  <SCORE.INTRA.VDW>
-15.9137

>  <SCORE.INTRA.VDW.0>
11.7669

>  <SCORE.INTRA.norm>
-0.517444

>  <SCORE.RESTR>
0

>  <SCORE.RESTR.CAVITY>
0

>  <SCORE.RESTR.norm>
0

>  <SCORE.SYSTEM>
0

>  <SCORE.SYSTEM.CONST>
0

>  <SCORE.SYSTEM.DIHEDRAL>
0

>  <SCORE.SYSTEM.SOLV>
0

>  <SCORE.SYSTEM.norm>
0

>  <SCORE.heavy>
40

>  <SCORE.norm>
-0.532314

>  <RMSD>
8.716

$$$$
1nta_lig
 OpenBabel11021811403D
libRbt.so/2013.1/901 2013/11/27
 40 42  0  0  0  0  0  0  0  0999 V2000
   -3.6832   38.2501    0.2478 C   0  0  0  0  0  0  0  0  0  0  0  0
   -3.7245   39.5198    0.4101 N   0  0  0  0  0  0  0  0  0  0  0  0
    6.0431   37.8084    0.4159 C   0  0  0  0  0  0  0  0  0  0  0  0
    6.8253   38.1945    1.2565 O   0  0  0  0  0  0  0  0  0  0  0  0
    0.5058   35.8362   -3.3648 C   0  0  0  0  0  0  0  0  0  0  0  0
   -0.6815   35.8133   -3.9121 N   0  0  0  0  0  0  0  0  0  0  0  0
    4.6773   35.8717    2.7494 C   0  0  0  0  0  0  0  0  0  0  0  0
    2.4239   33.0592   -2.7212 C   0  0  0  0  0  0  0  0  0  0  0  0
   -1.3566   37.8181    0.2777 C   0  0  2  0  0  0  0  0  0  0  0  0
   -2.7218   37.6214    0.9074 N   0  0  0  0  0  0  0  0  0  0  0  0
    3.4432   35.8002   -0.6214 C   0  0  2  0  0  0  0  0  0  0  0  0
    5.1268   33.9957   -1.3918 C   0  0  1  0  0  0  0  0  0  0  0  0
    5.4283   35.2964   -1.7592 O   0  0  0  0  0  0  0  0  0  0  0  0
   -1.0059   36.6110   -0.6127 C   0  0  1  0  0  0  0  0  0  0  0  0
   -1.9445   36.5751   -1.6451 O   0  0  0  0  0  0  0  0  0  0  0  0
    4.8776   36.1931   -0.9581 C   0  0  2  0  0  0  0  0  0  0  0  0
    4.7293   33.0777   -2.5267 C   0  0  1  0  0  0  0  0  0  0  0  0
    3.6424   33.6669   -3.2293 N   0  0  0  0  0  0  0  0  0  0  0  0
    0.3793   36.7452   -1.2593 C   0  0  2  0  0  0  0  0  0  0  0  0
    0.7522   35.5975   -2.1205 N   0  0  0  0  0  0  0  0  0  0  0  0
    5.4245   36.4366    0.3807 C   0  0  1  0  0  0  0  0  0  0  0  0
    6.3816   35.4079    0.6408 O   0  0  0  0  0  0  0  0  0  0  0  0
    5.7844   32.8861   -3.4076 C   0  0  2  0  0  0  0  0  0  0  0  0
    5.4466   31.8125   -4.2493 O   0  0  0  0  0  0  0  0  0  0  0  0
    1.4064   36.8884   -0.1474 C   0  0  1  0  0  0  0  0  0  0  0  0
    2.6845   37.0156   -0.7506 O   0  0  0  0  0  0  0  0  0  0  0  0
    4.3381   36.3190    1.3613 C   0  0  1  0  0  0  0  0  0  0  0  0
    3.4068   35.4412    0.7407 O   0  0  0  0  0  0  0  0  0  0  0  0
    7.0446   32.5552   -2.6520 C   0  0  1  0  0  0  0  0  0  0  0  0
    8.1283   32.6056   -3.5327 O   0  0  0  0  0  0  0  0  0  0  0  0
    1.0810   38.1324    0.7275 C   0  0  2  0  0  0  0  0  0  0  0  0
    2.0604   38.2556    1.7575 O   0  0  0  0  0  0  0  0  0  0  0  0
    7.2674   33.5638   -1.5771 C   0  0  1  0  0  0  0  0  0  0  0  0
    6.1799   33.5022   -0.7003 O   0  0  0  0  0  0  0  0  0  0  0  0
   -0.3126   37.9540    1.3656 C   0  0  1  0  0  0  0  0  0  0  0  0
   -0.6317   39.0942    2.1798 O   0  0  0  0  0  0  0  0  0  0  0  0
    8.5399   33.2475   -0.7666 C   0  0  0  0  0  0  0  0  0  0  0  0
    8.3681   32.0069   -0.0911 O   0  0  0  0  0  0  0  0  0  0  0  0
   -4.5163   37.6221   -0.5098 N   0  0  0  0  0  0  0  0  0  0  0  0
    1.5294   36.0864   -4.0832 N   0  0  0  0  0  0  0  0  0  0  0  0
  1  2  1  0  0  0  0
  1 39  1  0  0  0  0
  3  4  1  0  0  0  0
  5  6  1  0  0  0  0
  5 40  1  0  0  0  0
  9 10  1  1  0  0  0
  9 14  1  0  0  0  0
  9 35  1  0  0  0  0
 10  1  1  0  0  0  0
 11 16  1  0  0  0  0
 11 28  1  0  0  0  0
 11 26  1  1  0  0  0
 12 17  1  0  0  0  0
 12 34  1  0  0  0  0
 12 13  1  6  0  0  0
 14 15  1  6  0  0  0
 14 19  1  0  0  0  0
 16 13  1  1  0  0  0
 16 21  1  0  0  0  0
 17 18  1  6  0  0  0
 17 23  1  0  0  0  0
 18  8  1  0  0  0  0
 19 20  1  1  0  0  0
 19 25  1  0  0  0  0
 20  5  1  0  0  0  0
 21  3  1  1  0  0  0
 21 22  1  0  0  0  0
 21 27  1  0  0  0  0
 23 24  1  6  0  0  0
 23 29  1  0  0  0  0
 25 26  1  6  0  0  0
 25 31  1  0  0  0  0
 27  7  1  1  0  0  0
 27 28  1  0  0  0  0
 29 30  1  6  0  0  0
 29 33  1  0  0  0  0
 31 32  1  1  0  0  0
 31 35  1  0  0  0  0
 33 34  1  0  0  0  0
 33 37  1  1  0  0  0
 35 36  1  6  0  0  0
 37 38  1  0  0  0  0
M  END
>  <CHROM.1>
-97.76383218,-75.19054138,-165.17875829,135.16591271,-42.15242960,-97.45770109
96.82264116,-76.07148760,-162.78841686,-105.14413438,-64.02893466,2.90168864
35.73309846,-0.81490479,2.73301152,-0.27613970,0.91264524

>  <Name>
1nta_lig

>  <RI>
0

>  <Rbt.Current_Directory>
/home/itssahil/PROJECTS/Mol_Feturizer/New_Systems/rnas/1nta

>  <Rbt.Executable>
rbdock ($Id: //depot/dev/client3/rdock/2013.1/src/exe/rbdock.cxx#4 $)

>  <Rbt.Library>
libRbt.so (2013.1, Build901 2013/11/27)

>  <Rbt.Parameter_File>
/export/apps/rDock/src/rDock_2013.1_src/data/scripts/dock_solv.prm

>  <Rbt.Receptor>
prm/pocket_docking_3.prm

>  <SCORE>
-11.3825

>  <SCORE.INTER>
0.532951

>  <SCORE.INTER.CONST>
1

>  <SCORE.INTER.POLAR>
-0.779393

>  <SCORE.INTER.ROT>
11

>  <SCORE.INTER.SOLV>
19.7488

>  <SCORE.INTER.VDW>
-14.563

>  <SCORE.INTER.norm>
0.0133238

>  <SCORE.INTRA>
-12.2692

>  <SCORE.INTRA.DIHEDRAL>
0.69809

>  <SCORE.INTRA.DIHEDRAL.0>
19.0336

>  <SCORE.INTRA.POLAR>
0

>  <SCORE.INTRA.POLAR.0>
0

>  <SCORE.INTRA.REPUL>
0

>  <SCORE.INTRA.REPUL.0>
0

>  <SCORE.INTRA.SOLV>
-0.0959803

>  <SCORE.INTRA.SOLV.lig_0>
-97.5861

>  <SCORE.INTRA.VDW>
-12.5702

>  <SCORE.INTRA.VDW.0>
11.7669

>  <SCORE.INTRA.norm>
-0.306729

>  <SCORE.RESTR>
0.353731

>  <SCORE.RESTR.CAVITY>
0.353731

>  <SCORE.RESTR.norm>
0.00884328

>  <SCORE.SYSTEM>
0

>  <SCORE.SYSTEM.CONST>
0

>  <SCORE.SYSTEM.DIHEDRAL>
0

>  <SCORE.SYSTEM.SOLV>
0

>  <SCORE.SYSTEM.norm>
0

>  <SCORE.heavy>
40

>  <SCORE.norm>
-0.284562

>  <RMSD>
8.731

$$$$
1nta_lig
 OpenBabel11021811403D
libRbt.so/2013.1/901 2013/11/27
 40 42  0  0  0  0  0  0  0  0999 V2000
    0.4730   32.5377   -9.8458 C   0  0  0  0  0  0  0  0  0  0  0  0
    0.0651   32.9459  -10.9891 N   0  0  0  0  0  0  0  0  0  0  0  0
   -4.4824   30.9849   -2.0857 C   0  0  0  0  0  0  0  0  0  0  0  0
   -5.1561   30.8678   -3.0856 O   0  0  0  0  0  0  0  0  0  0  0  0
   -4.6616   29.5268   -6.7834 C   0  0  0  0  0  0  0  0  0  0  0  0
   -4.8661   28.5019   -5.9976 N   0  0  0  0  0  0  0  0  0  0  0  0
   -3.7933   27.8748   -1.1298 C   0  0  0  0  0  0  0  0  0  0  0  0
   -0.8054   32.8129    1.5594 C   0  0  0  0  0  0  0  0  0  0  0  0
   -0.6708   31.7174   -7.9433 C   0  0  2  0  0  0  0  0  0  0  0  0
   -0.2743   32.8951   -8.8122 N   0  0  0  0  0  0  0  0  0  0  0  0
   -1.5848   29.6223   -3.3568 C   0  0  2  0  0  0  0  0  0  0  0  0
   -1.5778   32.7122   -1.4921 C   0  0  1  0  0  0  0  0  0  0  0  0
   -1.1471   31.5277   -2.0658 O   0  0  0  0  0  0  0  0  0  0  0  0
   -2.1808   31.7663   -7.6429 C   0  0  1  0  0  0  0  0  0  0  0  0
   -2.8472   31.6333   -8.8620 O   0  0  0  0  0  0  0  0  0  0  0  0
   -2.1297   30.8504   -2.6357 C   0  0  2  0  0  0  0  0  0  0  0  0
   -0.5486   33.4375   -0.6534 C   0  0  1  0  0  0  0  0  0  0  0  0
   -0.0607   32.5452    0.3405 N   0  0  0  0  0  0  0  0  0  0  0  0
   -2.6354   30.6079   -6.7450 C   0  0  2  0  0  0  0  0  0  0  0  0
   -4.0843   30.6261   -6.4312 N   0  0  0  0  0  0  0  0  0  0  0  0
   -3.1944   30.2511   -1.8243 C   0  0  1  0  0  0  0  0  0  0  0  0
   -2.7891   30.3457   -0.4573 O   0  0  0  0  0  0  0  0  0  0  0  0
    0.5157   33.8702   -1.4320 C   0  0  2  0  0  0  0  0  0  0  0  0
    1.2670   34.7740   -0.6615 O   0  0  0  0  0  0  0  0  0  0  0  0
   -1.8437   30.6776   -5.4488 C   0  0  1  0  0  0  0  0  0  0  0  0
   -2.2653   29.6026   -4.6241 O   0  0  0  0  0  0  0  0  0  0  0  0
   -3.3117   28.8307   -2.1768 C   0  0  1  0  0  0  0  0  0  0  0  0
   -2.0150   28.4836   -2.6468 O   0  0  0  0  0  0  0  0  0  0  0  0
    0.0115   34.5635   -2.6704 C   0  0  1  0  0  0  0  0  0  0  0  0
    1.0832   34.7713   -3.5425 O   0  0  0  0  0  0  0  0  0  0  0  0
   -0.3198   30.5837   -5.7446 C   0  0  2  0  0  0  0  0  0  0  0  0
    0.4048   30.6403   -4.5169 O   0  0  0  0  0  0  0  0  0  0  0  0
   -0.9914   33.7009   -3.3580 C   0  0  1  0  0  0  0  0  0  0  0  0
   -2.0602   33.5028   -2.4784 O   0  0  0  0  0  0  0  0  0  0  0  0
    0.0979   31.7689   -6.6400 C   0  0  1  0  0  0  0  0  0  0  0  0
    1.5048   31.7004   -6.9242 O   0  0  0  0  0  0  0  0  0  0  0  0
   -1.5470   34.3860   -4.6222 C   0  0  0  0  0  0  0  0  0  0  0  0
   -2.5445   33.5548   -5.2047 O   0  0  0  0  0  0  0  0  0  0  0  0
    1.5416   31.8302   -9.7048 N   0  0  0  0  0  0  0  0  0  0  0  0
   -5.0236   29.4702   -8.0049 N   0  0  0  0  0  0  0  0  0  0  0  0
  1  2  1  0  0  0  0
  1 39  1  0  0  0  0
  3  4  1  0  0  0  0
  5  6  1  0  0  0  0
  5 40  1  0  0  0  0
  9 10  1  6  0  0  0
  9 14  1  0  0  0  0
  9 35  1  0  0  0  0
 10  1  1  0  0  0  0
 11 16  1  0  0  0  0
 11 28  1  0  0  0  0
 11 26  1  6  0  0  0
 12 17  1  0  0  0  0
 12 34  1  0  0  0  0
 12 13  1  6  0  0  0
 14 15  1  6  0  0  0
 14 19  1  0  0  0  0
 16 13  1  1  0  0  0
 16 21  1  0  0  0  0
 17 18  1  1  0  0  0
 17 23  1  0  0  0  0
 18  8  1  0  0  0  0
 19 20  1  1  0  0  0
 19 25  1  0  0  0  0
 20  5  1  0  0  0  0
 21  3  1  6  0  0  0
 21 22  1  0  0  0  0
 21 27  1  0  0  0  0
 23 24  1  1  0  0  0
 23 29  1  0  0  0  0
 25 26  1  1  0  0  0
 25 31  1  0  0  0  0
 27  7  1  1  0  0  0
 27 28  1  0  0  0  0
 29 30  1  6  0  0  0
 29 33  1  0  0  0  0
 31 32  1  1  0  0  0
 31 35  1  0  0  0  0
 33 34  1  0  0  0  0
 33 37  1  6  0  0  0
 35 36  1  6  0  0  0
 37 38  1  0  0  0  0
M  END
>  <CHROM.1>
-132.14565616,127.75980426,69.01953371,171.55720100,174.95934949,-96.99994851
123.29774255,94.43438889,75.06249002,-178.38673693,-177.17302551,-1.60618524
31.58876734,-4.39096751,-1.51442493,0.75906663,1.48382085

>  <Name>
1nta_lig

>  <RI>
0

>  <Rbt.Current_Directory>
/home/itssahil/PROJECTS/Mol_Feturizer/New_Systems/rnas/1nta

>  <Rbt.Executable>
rbdock ($Id: //depot/dev/client3/rdock/2013.1/src/exe/rbdock.cxx#4 $)

>  <Rbt.Library>
libRbt.so (2013.1, Build901 2013/11/27)

>  <Rbt.Parameter_File>
/export/apps/rDock/src/rDock_2013.1_src/data/scripts/dock_solv.prm

>  <Rbt.Receptor>
prm/pocket_docking_8.prm

>  <SCORE>
-25.3422

>  <SCORE.INTER>
-1.73658

>  <SCORE.INTER.CONST>
1

>  <SCORE.INTER.POLAR>
-0.741578

>  <SCORE.INTER.ROT>
11

>  <SCORE.INTER.SOLV>
9.08715

>  <SCORE.INTER.VDW>
-12.6482

>  <SCORE.INTER.norm>
-0.0434145

>  <SCORE.INTRA>
-23.6056

>  <SCORE.INTRA.DIHEDRAL>
-13.1382

>  <SCORE.INTRA.DIHEDRAL.0>
19.0336

>  <SCORE.INTRA.POLAR>
0

>  <SCORE.INTRA.POLAR.0>
0

>  <SCORE.INTRA.REPUL>
0.0796367

>  <SCORE.INTRA.REPUL.0>
0

>  <SCORE.INTRA.SOLV>
-2.12786

>  <SCORE.INTRA.SOLV.lig_0>
-97.5861

>  <SCORE.INTRA.VDW>
-16.3708

>  <SCORE.INTRA.VDW.0>
11.7669

>  <SCORE.INTRA.norm>
-0.590139

>  <SCORE.RESTR>
0

>  <SCORE.RESTR.CAVITY>
0

>  <SCORE.RESTR.norm>
0

>  <SCORE.SYSTEM>
0

>  <SCORE.SYSTEM.CONST>
0

>  <SCORE.SYSTEM.DIHEDRAL>
0

>  <SCORE.SYSTEM.SOLV>
0

>  <SCORE.SYSTEM.norm>
0

>  <SCORE.heavy>
40

>  <SCORE.norm>
-0.633554

>  <RMSD>
8.760

$$$$
1nta_lig
 OpenBabel11021811403D
libRbt.so/2013.1/901 2013/11/27
 40 42  0  0  0  0  0  0  0  0999 V2000
   -3.6268   42.9282    2.0660 C   0  0  0  0  0  0  0  0  0  0  0  0
   -4.5459   42.0613    2.2758 N   0  0  0  0  0  0  0  0  0  0  0  0
    5.5519   40.8429    0.4766 C   0  0  0  0  0  0  0  0  0  0  0  0
    6.6939   40.8945    0.8771 O   0  0  0  0  0  0  0  0  0  0  0  0
    2.4638   43.0429    3.0292 C   0  0  0  0  0  0  0  0  0  0  0  0
    2.3463   42.3909    4.1565 N   0  0  0  0  0  0  0  0  0  0  0  0
    5.7153   37.6668    1.4498 C   0  0  0  0  0  0  0  0  0  0  0  0
    3.2493   43.3530   -3.3185 C   0  0  0  0  0  0  0  0  0  0  0  0
   -1.6240   41.7971    1.5093 C   0  0  2  0  0  0  0  0  0  0  0  0
   -2.7975   42.6513    1.0709 N   0  0  0  0  0  0  0  0  0  0  0  0
    2.6243   39.0415    0.2471 C   0  0  2  0  0  0  0  0  0  0  0  0
    2.2538   40.5805   -2.2823 C   0  0  1  0  0  0  0  0  0  0  0  0
    3.3253   39.8175   -1.8495 O   0  0  0  0  0  0  0  0  0  0  0  0
   -0.3256   42.6252    1.4768 C   0  0  1  0  0  0  0  0  0  0  0  0
   -0.4699   43.6531    2.4098 O   0  0  0  0  0  0  0  0  0  0  0  0
    3.5534   39.9479   -0.5533 C   0  0  2  0  0  0  0  0  0  0  0  0
    2.4206   41.2176   -3.6443 C   0  0  1  0  0  0  0  0  0  0  0  0
    3.6175   41.9854   -3.6441 N   0  0  0  0  0  0  0  0  0  0  0  0
    0.9022   41.8026    1.8897 C   0  0  2  0  0  0  0  0  0  0  0  0
    2.1719   42.5678    1.8653 N   0  0  0  0  0  0  0  0  0  0  0  0
    4.8562   39.5897    0.0171 C   0  0  1  0  0  0  0  0  0  0  0  0
    5.5916   38.9087   -1.0015 O   0  0  0  0  0  0  0  0  0  0  0  0
    2.5032   40.2544   -4.6400 C   0  0  2  0  0  0  0  0  0  0  0  0
    2.3574   40.9065   -5.8763 O   0  0  0  0  0  0  0  0  0  0  0  0
    1.0159   40.6181    0.9432 C   0  0  1  0  0  0  0  0  0  0  0  0
    2.1503   39.8592    1.3316 O   0  0  0  0  0  0  0  0  0  0  0  0
    4.6416   38.6616    1.1343 C   0  0  1  0  0  0  0  0  0  0  0  0
    3.4106   38.0222    0.8201 O   0  0  0  0  0  0  0  0  0  0  0  0
    1.4058   39.2359   -4.4764 C   0  0  1  0  0  0  0  0  0  0  0  0
    1.6537   38.1600   -5.3328 O   0  0  0  0  0  0  0  0  0  0  0  0
   -0.2759   39.7544    1.0063 C   0  0  2  0  0  0  0  0  0  0  0  0
   -0.1461   38.6437    0.1204 O   0  0  0  0  0  0  0  0  0  0  0  0
    1.3957   38.7265   -3.0754 C   0  0  1  0  0  0  0  0  0  0  0  0
    1.1432   39.8097   -2.2279 O   0  0  0  0  0  0  0  0  0  0  0  0
   -1.4830   40.6137    0.5756 C   0  0  1  0  0  0  0  0  0  0  0  0
   -2.6878   39.8322    0.6264 O   0  0  0  0  0  0  0  0  0  0  0  0
    0.2708   37.6942   -2.8624 C   0  0  0  0  0  0  0  0  0  0  0  0
   -0.9893   38.3346   -3.0272 O   0  0  0  0  0  0  0  0  0  0  0  0
   -3.5095   43.9977    2.7764 N   0  0  0  0  0  0  0  0  0  0  0  0
    2.8727   44.2509    3.0362 N   0  0  0  0  0  0  0  0  0  0  0  0
  1  2  1  0  0  0  0
  1 39  1  0  0  0  0
  3  4  1  0  0  0  0
  5  6  1  0  0  0  0
  5 40  1  0  0  0  0
  9 10  1  6  0  0  0
  9 14  1  0  0  0  0
  9 35  1  0  0  0  0
 10  1  1  0  0  0  0
 11 16  1  0  0  0  0
 11 28  1  0  0  0  0
 11 26  1  1  0  0  0
 12 17  1  0  0  0  0
 12 34  1  0  0  0  0
 12 13  1  6  0  0  0
 14 15  1  1  0  0  0
 14 19  1  0  0  0  0
 16 13  1  6  0  0  0
 16 21  1  0  0  0  0
 17 18  1  1  0  0  0
 17 23  1  0  0  0  0
 18  8  1  0  0  0  0
 19 20  1  6  0  0  0
 19 25  1  0  0  0  0
 20  5  1  0  0  0  0
 21  3  1  1  0  0  0
 21 22  1  0  0  0  0
 21 27  1  0  0  0  0
 23 24  1  6  0  0  0
 23 29  1  0  0  0  0
 25 26  1  1  0  0  0
 25 31  1  0  0  0  0
 27  7  1  6  0  0  0
 27 28  1  0  0  0  0
 29 30  1  6  0  0  0
 29 33  1  0  0  0  0
 31 32  1  6  0  0  0
 31 35  1  0  0  0  0
 33 34  1  0  0  0  0
 33 37  1  6  0  0  0
 35 36  1  1  0  0  0
 37 38  1  0  0  0  0
M  END
>  <CHROM.1>
-110.17652942,-87.30415882,85.68031213,141.96493770,82.34487592,-94.58250963
95.21388315,42.63729544,-172.77114601,-158.53622051,-64.68896619,1.51597477
40.63219965,-0.30298903,2.34203607,-0.16657060,1.17908493

>  <Name>
1nta_lig

>  <RI>
0

>  <Rbt.Current_Directory>
/home/itssahil/PROJECTS/Mol_Feturizer/New_Systems/rnas/1nta

>  <Rbt.Executable>
rbdock ($Id: //depot/dev/client3/rdock/2013.1/src/exe/rbdock.cxx#4 $)

>  <Rbt.Library>
libRbt.so (2013.1, Build901 2013/11/27)

>  <Rbt.Parameter_File>
/export/apps/rDock/src/rDock_2013.1_src/data/scripts/dock_solv.prm

>  <Rbt.Receptor>
prm/pocket_docking_7.prm

>  <SCORE>
-23.7463

>  <SCORE.INTER>
-2.01171

>  <SCORE.INTER.CONST>
1

>  <SCORE.INTER.POLAR>
0

>  <SCORE.INTER.ROT>
11

>  <SCORE.INTER.SOLV>
13.3928

>  <SCORE.INTER.VDW>
-16.7387

>  <SCORE.INTER.norm>
-0.0502926

>  <SCORE.INTRA>
-21.7346

>  <SCORE.INTRA.DIHEDRAL>
-2.71333

>  <SCORE.INTRA.DIHEDRAL.0>
19.0336

>  <SCORE.INTRA.POLAR>
0

>  <SCORE.INTRA.POLAR.0>
0

>  <SCORE.INTRA.REPUL>
0

>  <SCORE.INTRA.REPUL.0>
0

>  <SCORE.INTRA.SOLV>
-4.54786

>  <SCORE.INTRA.SOLV.lig_0>
-97.5861

>  <SCORE.INTRA.VDW>
-18.104

>  <SCORE.INTRA.VDW.0>
11.7669

>  <SCORE.INTRA.norm>
-0.543366

>  <SCORE.RESTR>
0

>  <SCORE.RESTR.CAVITY>
0

>  <SCORE.RESTR.norm>
0

>  <SCORE.SYSTEM>
0

>  <SCORE.SYSTEM.CONST>
0

>  <SCORE.SYSTEM.DIHEDRAL>
0

>  <SCORE.SYSTEM.SOLV>
0

>  <SCORE.SYSTEM.norm>
0

>  <SCORE.heavy>
40

>  <SCORE.norm>
-0.593658

>  <RMSD>
8.793

$$$$
1nta_lig
 OpenBabel11021811403D
libRbt.so/2013.1/901 2013/11/27
 40 42  0  0  0  0  0  0  0  0999 V2000
    4.0817   35.8382   -0.6098 C   0  0  0  0  0  0  0  0  0  0  0  0
    4.7591   36.8948   -0.8643 N   0  0  0  0  0  0  0  0  0  0  0  0
   10.9541   33.6076   -2.7844 C   0  0  0  0  0  0  0  0  0  0  0  0
   12.0418   33.9890   -3.1570 O   0  0  0  0  0  0  0  0  0  0  0  0
    9.6338   35.9969    0.6989 C   0  0  0  0  0  0  0  0  0  0  0  0
    9.7383   35.8487    1.9939 N   0  0  0  0  0  0  0  0  0  0  0  0
   12.6105   31.0191   -1.5125 C   0  0  0  0  0  0  0  0  0  0  0  0
    9.6504   30.7533   -6.2589 C   0  0  0  0  0  0  0  0  0  0  0  0
    5.4160   34.5637    0.8720 C   0  0  2  0  0  0  0  0  0  0  0  0
    4.1678   35.3909    0.6341 N   0  0  0  0  0  0  0  0  0  0  0  0
    9.0702   31.3367   -1.0061 C   0  0  2  0  0  0  0  0  0  0  0  0
    8.2122   32.2371   -4.3879 C   0  0  1  0  0  0  0  0  0  0  0  0
    8.3633   31.4853   -3.2349 O   0  0  0  0  0  0  0  0  0  0  0  0
    6.6439   35.2738    0.2711 C   0  0  1  0  0  0  0  0  0  0  0  0
    6.7997   36.4783    0.9587 O   0  0  0  0  0  0  0  0  0  0  0  0
    9.1336   32.0773   -2.3375 C   0  0  2  0  0  0  0  0  0  0  0  0
    7.5808   31.5119   -5.5559 C   0  0  1  0  0  0  0  0  0  0  0  0
    8.3308   30.3326   -5.8187 N   0  0  0  0  0  0  0  0  0  0  0  0
    7.9359   34.4683    0.4622 C   0  0  2  0  0  0  0  0  0  0  0  0
    9.1386   35.1206   -0.1089 N   0  0  0  0  0  0  0  0  0  0  0  0
   10.5832   32.1694   -2.5398 C   0  0  1  0  0  0  0  0  0  0  0  0
   10.9097   31.3329   -3.6514 O   0  0  0  0  0  0  0  0  0  0  0  0
    6.2687   31.1580   -5.2743 C   0  0  2  0  0  0  0  0  0  0  0  0
    5.6650   30.7666   -6.4815 O   0  0  0  0  0  0  0  0  0  0  0  0
    7.7461   33.1103   -0.1948 C   0  0  1  0  0  0  0  0  0  0  0  0
    8.9420   32.3686   -0.0121 O   0  0  0  0  0  0  0  0  0  0  0  0
   11.2591   31.6424   -1.3477 C   0  0  1  0  0  0  0  0  0  0  0  0
   10.3222   30.7246   -0.7974 O   0  0  0  0  0  0  0  0  0  0  0  0
    5.5219   32.3312   -4.6961 C   0  0  1  0  0  0  0  0  0  0  0  0
    4.2919   31.8880   -4.2031 O   0  0  0  0  0  0  0  0  0  0  0  0
    6.5340   32.3712    0.4403 C   0  0  2  0  0  0  0  0  0  0  0  0
    6.3787   31.0965   -0.1812 O   0  0  0  0  0  0  0  0  0  0  0  0
    6.2975   32.9140   -3.5641 C   0  0  1  0  0  0  0  0  0  0  0  0
    7.5239   33.3574   -4.0690 O   0  0  0  0  0  0  0  0  0  0  0  0
    5.2562   33.2074    0.2185 C   0  0  1  0  0  0  0  0  0  0  0  0
    4.1233   32.5400    0.7981 O   0  0  0  0  0  0  0  0  0  0  0  0
    5.5738   34.1324   -2.9573 C   0  0  0  0  0  0  0  0  0  0  0  0
    5.6690   35.2297   -3.8583 O   0  0  0  0  0  0  0  0  0  0  0  0
    3.3664   35.2433   -1.5023 N   0  0  0  0  0  0  0  0  0  0  0  0
   10.0170   37.0840    0.1531 N   0  0  0  0  0  0  0  0  0  0  0  0
  1  2  1  0  0  0  0
  1 39  1  0  0  0  0
  3  4  1  0  0  0  0
  5  6  1  0  0  0  0
  5 40  1  0  0  0  0
  9 10  1  6  0  0  0
  9 14  1  0  0  0  0
  9 35  1  0  0  0  0
 10  1  1  0  0  0  0
 11 16  1  0  0  0  0
 11 28  1  0  0  0  0
 11 26  1  1  0  0  0
 12 17  1  0  0  0  0
 12 34  1  0  0  0  0
 12 13  1  1  0  0  0
 14 15  1  1  0  0  0
 14 19  1  0  0  0  0
 16 13  1  6  0  0  0
 16 21  1  0  0  0  0
 17 18  1  1  0  0  0
 17 23  1  0  0  0  0
 18  8  1  0  0  0  0
 19 20  1  6  0  0  0
 19 25  1  0  0  0  0
 20  5  1  0  0  0  0
 21  3  1  6  0  0  0
 21 22  1  0  0  0  0
 21 27  1  0  0  0  0
 23 24  1  6  0  0  0
 23 29  1  0  0  0  0
 25 26  1  1  0  0  0
 25 31  1  0  0  0  0
 27  7  1  6  0  0  0
 27 28  1  0  0  0  0
 29 30  1  1  0  0  0
 29 33  1  0  0  0  0
 31 32  1  6  0  0  0
 31 35  1  0  0  0  0
 33 34  1  0  0  0  0
 33 37  1  6  0  0  0
 35 36  1  1  0  0  0
 37 38  1  0  0  0  0
M  END
>  <CHROM.1>
45.97188607,-81.71515060,61.87353645,168.26913841,170.01200974,-65.30770365
82.94402170,40.59747809,-169.84539024,-157.06593621,-72.53494998,7.67234880
33.19425353,-1.91732977,2.07302172,-0.19947258,0.97157709

>  <Name>
1nta_lig

>  <RI>
0

>  <Rbt.Current_Directory>
/home/itssahil/PROJECTS/Mol_Feturizer/New_Systems/rnas/1nta

>  <Rbt.Executable>
rbdock ($Id: //depot/dev/client3/rdock/2013.1/src/exe/rbdock.cxx#4 $)

>  <Rbt.Library>
libRbt.so (2013.1, Build901 2013/11/27)

>  <Rbt.Parameter_File>
/export/apps/rDock/src/rDock_2013.1_src/data/scripts/dock_solv.prm

>  <Rbt.Receptor>
prm/blind_docking_60.prm

>  <SCORE>
131.229

>  <SCORE.INTER>
147.015

>  <SCORE.INTER.CONST>
1

>  <SCORE.INTER.POLAR>
-1.08547

>  <SCORE.INTER.ROT>
11

>  <SCORE.INTER.SOLV>
56.0635

>  <SCORE.INTER.VDW>
72.0069

>  <SCORE.INTER.norm>
3.67537

>  <SCORE.INTRA>
-17.3395

>  <SCORE.INTRA.DIHEDRAL>
-12.5453

>  <SCORE.INTRA.DIHEDRAL.0>
19.0336

>  <SCORE.INTRA.POLAR>
0

>  <SCORE.INTRA.POLAR.0>
0

>  <SCORE.INTRA.REPUL>
0

>  <SCORE.INTRA.REPUL.0>
0

>  <SCORE.INTRA.SOLV>
1.72095

>  <SCORE.INTRA.SOLV.lig_0>
-97.5861

>  <SCORE.INTRA.VDW>
-11.9273

>  <SCORE.INTRA.VDW.0>
11.7669

>  <SCORE.INTRA.norm>
-0.433488

>  <SCORE.RESTR>
1.55338

>  <SCORE.RESTR.CAVITY>
1.55338

>  <SCORE.RESTR.norm>
0.0388346

>  <SCORE.SYSTEM>
0

>  <SCORE.SYSTEM.CONST>
0

>  <SCORE.SYSTEM.DIHEDRAL>
0

>  <SCORE.SYSTEM.SOLV>
0

>  <SCORE.SYSTEM.norm>
0

>  <SCORE.heavy>
40

>  <SCORE.norm>
3.28072

>  <RMSD>
8.875

$$$$
1nta_lig
 OpenBabel11021811403D
libRbt.so/2013.1/901 2013/11/27
 40 42  0  0  0  0  0  0  0  0999 V2000
   -5.3530   29.9219   -3.2537 C   0  0  0  0  0  0  0  0  0  0  0  0
   -5.8149   29.8361   -4.4451 N   0  0  0  0  0  0  0  0  0  0  0  0
    1.4466   36.0362   -0.3797 C   0  0  0  0  0  0  0  0  0  0  0  0
    1.1827   36.9841    0.3269 O   0  0  0  0  0  0  0  0  0  0  0  0
    0.4645   31.4028   -5.4266 C   0  0  0  0  0  0  0  0  0  0  0  0
    0.3814   30.3994   -6.2608 N   0  0  0  0  0  0  0  0  0  0  0  0
    0.1747   34.1776    2.0676 C   0  0  0  0  0  0  0  0  0  0  0  0
    5.4745   36.0282    1.2547 C   0  0  0  0  0  0  0  0  0  0  0  0
   -3.1491   30.7367   -2.9715 C   0  0  2  0  0  0  0  0  0  0  0  0
   -4.0892   29.5545   -3.1038 N   0  0  0  0  0  0  0  0  0  0  0  0
    1.3531   32.6410   -0.9557 C   0  0  2  0  0  0  0  0  0  0  0  0
    4.4194   34.4791   -1.3333 C   0  0  1  0  0  0  0  0  0  0  0  0
    3.5479   33.4603   -0.9868 O   0  0  0  0  0  0  0  0  0  0  0  0
   -1.7981   30.4156   -3.6383 C   0  0  1  0  0  0  0  0  0  0  0  0
   -2.0460   30.2250   -4.9985 O   0  0  0  0  0  0  0  0  0  0  0  0
    2.2836   33.8486   -0.9874 C   0  0  2  0  0  0  0  0  0  0  0  0
    5.6890   34.5521   -0.5139 C   0  0  1  0  0  0  0  0  0  0  0  0
    5.3387   34.6357    0.8618 N   0  0  0  0  0  0  0  0  0  0  0  0
   -0.7963   31.5713   -3.5141 C   0  0  2  0  0  0  0  0  0  0  0  0
    0.5182   31.2947   -4.1416 N   0  0  0  0  0  0  0  0  0  0  0  0
    1.7456   34.6477    0.1185 C   0  0  1  0  0  0  0  0  0  0  0  0
    2.7272   34.6483    1.1570 O   0  0  0  0  0  0  0  0  0  0  0  0
    6.4764   33.4263   -0.7107 C   0  0  2  0  0  0  0  0  0  0  0  0
    7.7445   33.6934   -0.1671 O   0  0  0  0  0  0  0  0  0  0  0  0
   -0.5918   31.8608   -2.0356 C   0  0  1  0  0  0  0  0  0  0  0  0
    0.3324   32.9322   -1.9266 O   0  0  0  0  0  0  0  0  0  0  0  0
    0.5332   33.9931    0.6256 C   0  0  1  0  0  0  0  0  0  0  0  0
    0.7219   32.6206    0.3039 O   0  0  0  0  0  0  0  0  0  0  0  0
    6.6119   33.1321   -2.1816 C   0  0  1  0  0  0  0  0  0  0  0  0
    7.1983   31.8738   -2.3406 O   0  0  0  0  0  0  0  0  0  0  0  0
   -1.9473   32.2291   -1.3679 C   0  0  2  0  0  0  0  0  0  0  0  0
   -1.7333   32.5071    0.0150 O   0  0  0  0  0  0  0  0  0  0  0  0
    5.2633   33.1038   -2.8163 C   0  0  1  0  0  0  0  0  0  0  0  0
    4.6877   34.3679   -2.6547 O   0  0  0  0  0  0  0  0  0  0  0  0
   -2.9210   31.0400   -1.5059 C   0  0  1  0  0  0  0  0  0  0  0  0
   -4.1808   31.3607   -0.8934 O   0  0  0  0  0  0  0  0  0  0  0  0
    5.3615   32.8248   -4.3292 C   0  0  0  0  0  0  0  0  0  0  0  0
    5.9627   31.5510   -4.5320 O   0  0  0  0  0  0  0  0  0  0  0  0
   -6.0677   30.3330   -2.2626 N   0  0  0  0  0  0  0  0  0  0  0  0
    0.5228   32.5954   -5.8746 N   0  0  0  0  0  0  0  0  0  0  0  0
  1  2  1  0  0  0  0
  1 39  1  0  0  0  0
  3  4  1  0  0  0  0
  5  6  1  0  0  0  0
  5 40  1  0  0  0  0
  9 10  1  1  0  0  0
  9 14  1  0  0  0  0
  9 35  1  0  0  0  0
 10  1  1  0  0  0  0
 11 16  1  0  0  0  0
 11 28  1  0  0  0  0
 11 26  1  6  0  0  0
 12 17  1  0  0  0  0
 12 34  1  0  0  0  0
 12 13  1  1  0  0  0
 14 15  1  6  0  0  0
 14 19  1  0  0  0  0
 16 13  1  1  0  0  0
 16 21  1  0  0  0  0
 17 18  1  1  0  0  0
 17 23  1  0  0  0  0
 18  8  1  0  0  0  0
 19 20  1  1  0  0  0
 19 25  1  0  0  0  0
 20  5  1  0  0  0  0
 21  3  1  6  0  0  0
 21 22  1  0  0  0  0
 21 27  1  0  0  0  0
 23 24  1  6  0  0  0
 23 29  1  0  0  0  0
 25 26  1  6  0  0  0
 25 31  1  0  0  0  0
 27  7  1  1  0  0  0
 27 28  1  0  0  0  0
 29 30  1  1  0  0  0
 29 33  1  0  0  0  0
 31 32  1  1  0  0  0
 31 35  1  0  0  0  0
 33 34  1  0  0  0  0
 33 37  1  6  0  0  0
 35 36  1  6  0  0  0
 37 38  1  0  0  0  0
M  END
>  <CHROM.1>
-145.38410594,103.27266219,178.13360838,138.36961914,165.53859972,-101.26004737
76.83114172,-100.99583939,-168.41860132,-132.75907130,61.18059325,1.24191334
32.69774217,-1.86359136,2.76890578,-0.19101955,-2.12649195

>  <Name>
1nta_lig

>  <RI>
0

>  <Rbt.Current_Directory>
/home/itssahil/PROJECTS/Mol_Feturizer/New_Systems/rnas/1nta

>  <Rbt.Executable>
rbdock ($Id: //depot/dev/client3/rdock/2013.1/src/exe/rbdock.cxx#4 $)

>  <Rbt.Library>
libRbt.so (2013.1, Build901 2013/11/27)

>  <Rbt.Parameter_File>
/export/apps/rDock/src/rDock_2013.1_src/data/scripts/dock_solv.prm

>  <Rbt.Receptor>
prm/pocket_docking_8.prm

>  <SCORE>
-26.9977

>  <SCORE.INTER>
-8.7816

>  <SCORE.INTER.CONST>
1

>  <SCORE.INTER.POLAR>
-0.898582

>  <SCORE.INTER.ROT>
11

>  <SCORE.INTER.SOLV>
18.7565

>  <SCORE.INTER.VDW>
-20.0446

>  <SCORE.INTER.norm>
-0.21954

>  <SCORE.INTRA>
-18.2161

>  <SCORE.INTRA.DIHEDRAL>
-2.58147

>  <SCORE.INTRA.DIHEDRAL.0>
19.0336

>  <SCORE.INTRA.POLAR>
0

>  <SCORE.INTRA.POLAR.0>
0

>  <SCORE.INTRA.REPUL>
0

>  <SCORE.INTRA.REPUL.0>
0

>  <SCORE.INTRA.SOLV>
-3.35609

>  <SCORE.INTRA.SOLV.lig_0>
-97.5861

>  <SCORE.INTRA.VDW>
-15.2474

>  <SCORE.INTRA.VDW.0>
11.7669

>  <SCORE.INTRA.norm>
-0.455403

>  <SCORE.RESTR>
0

>  <SCORE.RESTR.CAVITY>
0

>  <SCORE.RESTR.norm>
0

>  <SCORE.SYSTEM>
0

>  <SCORE.SYSTEM.CONST>
0

>  <SCORE.SYSTEM.DIHEDRAL>
0

>  <SCORE.SYSTEM.SOLV>
0

>  <SCORE.SYSTEM.norm>
0

>  <SCORE.heavy>
40

>  <SCORE.norm>
-0.674943

>  <RMSD>
8.914

$$$$
1nta_lig
 OpenBabel11021811403D
libRbt.so/2013.1/901 2013/11/27
 40 42  0  0  0  0  0  0  0  0999 V2000
    3.2455   35.9436    1.0604 C   0  0  0  0  0  0  0  0  0  0  0  0
    2.7171   35.2954    2.0303 N   0  0  0  0  0  0  0  0  0  0  0  0
   11.0698   33.8489   -2.8013 C   0  0  0  0  0  0  0  0  0  0  0  0
   12.1510   34.2294   -3.1931 O   0  0  0  0  0  0  0  0  0  0  0  0
    9.2856   36.1081    0.7780 C   0  0  0  0  0  0  0  0  0  0  0  0
   10.4347   35.7866    1.3128 N   0  0  0  0  0  0  0  0  0  0  0  0
   12.6678   31.4203   -1.1859 C   0  0  0  0  0  0  0  0  0  0  0  0
    9.2924   30.6889   -7.0557 C   0  0  0  0  0  0  0  0  0  0  0  0
    5.0130   34.5103    0.4105 C   0  0  2  0  0  0  0  0  0  0  0  0
    3.7094   35.2032    0.0648 N   0  0  0  0  0  0  0  0  0  0  0  0
    9.0862   31.6358   -1.0590 C   0  0  2  0  0  0  0  0  0  0  0  0
    8.3982   32.3348   -4.5087 C   0  0  1  0  0  0  0  0  0  0  0  0
    8.6061   31.6025   -3.3520 O   0  0  0  0  0  0  0  0  0  0  0  0
    6.2063   35.3618   -0.0629 C   0  0  1  0  0  0  0  0  0  0  0  0
    6.1647   36.5607    0.6505 O   0  0  0  0  0  0  0  0  0  0  0  0
    9.2619   32.2844   -2.4278 C   0  0  2  0  0  0  0  0  0  0  0  0
    7.7084   31.5910   -5.6310 C   0  0  1  0  0  0  0  0  0  0  0  0
    8.4431   30.4060   -5.9108 N   0  0  0  0  0  0  0  0  0  0  0  0
    7.5553   34.6964    0.2406 C   0  0  2  0  0  0  0  0  0  0  0  0
    8.7273   35.4870   -0.2060 N   0  0  0  0  0  0  0  0  0  0  0  0
   10.7211   32.4180   -2.4908 C   0  0  1  0  0  0  0  0  0  0  0  0
   11.1853   31.5197   -3.5007 O   0  0  0  0  0  0  0  0  0  0  0  0
    6.4117   31.2443   -5.2781 C   0  0  2  0  0  0  0  0  0  0  0  0
    5.7478   30.8335   -6.4466 O   0  0  0  0  0  0  0  0  0  0  0  0
    7.5773   33.3405   -0.4471 C   0  0  1  0  0  0  0  0  0  0  0  0
    8.8250   32.7283   -0.1604 O   0  0  0  0  0  0  0  0  0  0  0  0
   11.2878   32.0011   -1.2022 C   0  0  1  0  0  0  0  0  0  0  0  0
   10.3288   31.0882   -0.6827 O   0  0  0  0  0  0  0  0  0  0  0  0
    5.6960   32.4286   -4.6833 C   0  0  1  0  0  0  0  0  0  0  0  0
    4.4918   31.9960   -4.1218 O   0  0  0  0  0  0  0  0  0  0  0  0
    6.3995   32.4612    0.0613 C   0  0  2  0  0  0  0  0  0  0  0  0
    6.4432   31.1912   -0.5870 O   0  0  0  0  0  0  0  0  0  0  0  0
    6.5279   33.0292   -3.6017 C   0  0  1  0  0  0  0  0  0  0  0  0
    7.7278   33.4616   -4.1749 O   0  0  0  0  0  0  0  0  0  0  0  0
    5.0642   33.1594   -0.2711 C   0  0  1  0  0  0  0  0  0  0  0  0
    3.9621   32.3611    0.1905 O   0  0  0  0  0  0  0  0  0  0  0  0
    5.8367   34.2590   -2.9804 C   0  0  0  0  0  0  0  0  0  0  0  0
    4.4545   33.9753   -2.7956 O   0  0  0  0  0  0  0  0  0  0  0  0
    3.3274   37.2302    1.0515 N   0  0  0  0  0  0  0  0  0  0  0  0
    8.6209   37.0896    1.2483 N   0  0  0  0  0  0  0  0  0  0  0  0
  1  2  1  0  0  0  0
  1 39  1  0  0  0  0
  3  4  1  0  0  0  0
  5  6  1  0  0  0  0
  5 40  1  0  0  0  0
  9 10  1  6  0  0  0
  9 14  1  0  0  0  0
  9 35  1  0  0  0  0
 10  1  1  0  0  0  0
 11 16  1  0  0  0  0
 11 28  1  0  0  0  0
 11 26  1  1  0  0  0
 12 17  1  0  0  0  0
 12 34  1  0  0  0  0
 12 13  1  1  0  0  0
 14 15  1  1  0  0  0
 14 19  1  0  0  0  0
 16 13  1  6  0  0  0
 16 21  1  0  0  0  0
 17 18  1  1  0  0  0
 17 23  1  0  0  0  0
 18  8  1  0  0  0  0
 19 20  1  6  0  0  0
 19 25  1  0  0  0  0
 20  5  1  0  0  0  0
 21  3  1  6  0  0  0
 21 22  1  0  0  0  0
 21 27  1  0  0  0  0
 23 24  1  6  0  0  0
 23 29  1  0  0  0  0
 25 26  1  1  0  0  0
 25 31  1  0  0  0  0
 27  7  1  6  0  0  0
 27 28  1  0  0  0  0
 29 30  1  1  0  0  0
 29 33  1  0  0  0  0
 31 32  1  6  0  0  0
 31 35  1  0  0  0  0
 33 34  1  0  0  0  0
 33 37  1  6  0  0  0
 35 36  1  1  0  0  0
 37 38  1  0  0  0  0
M  END
>  <CHROM.1>
-94.03857306,-75.03094464,66.65353758,177.30870176,162.10490241,-98.12371025
101.76139208,107.48239995,-163.66812783,-163.65958807,42.59171532,7.52019991
33.28793993,-1.82595849,2.20089854,-0.09597480,0.98429188

>  <Name>
1nta_lig

>  <RI>
9.25352e+06

>  <Rbt.Current_Directory>
/home/itssahil/PROJECTS/Mol_Feturizer/New_Systems/rnas/1nta

>  <Rbt.Executable>
rbdock ($Id: //depot/dev/client3/rdock/2013.1/src/exe/rbdock.cxx#4 $)

>  <Rbt.Library>
libRbt.so (2013.1, Build901 2013/11/27)

>  <Rbt.Parameter_File>
/export/apps/rDock/src/rDock_2013.1_src/data/scripts/dock_solv.prm

>  <Rbt.Receptor>
prm/blind_docking_40.prm

>  <SCORE>
77.6544

>  <SCORE.INTER>
96.9662

>  <SCORE.INTER.CONST>
1

>  <SCORE.INTER.POLAR>
-1.30249

>  <SCORE.INTER.ROT>
11

>  <SCORE.INTER.SOLV>
50.2854

>  <SCORE.INTER.VDW>
41.2907

>  <SCORE.INTER.norm>
2.42416

>  <SCORE.INTRA>
-20.5166

>  <SCORE.INTRA.DIHEDRAL>
-10.3088

>  <SCORE.INTRA.DIHEDRAL.0>
19.0336

>  <SCORE.INTRA.POLAR>
0

>  <SCORE.INTRA.POLAR.0>
0

>  <SCORE.INTRA.REPUL>
0

>  <SCORE.INTRA.REPUL.0>
0

>  <SCORE.INTRA.SOLV>
-1.99075

>  <SCORE.INTRA.SOLV.lig_0>
-97.5861

>  <SCORE.INTRA.VDW>
-14.3668

>  <SCORE.INTRA.VDW.0>
11.7669

>  <SCORE.INTRA.norm>
-0.512915

>  <SCORE.RESTR>
1.20481

>  <SCORE.RESTR.CAVITY>
1.20481

>  <SCORE.RESTR.norm>
0.0301203

>  <SCORE.SYSTEM>
0

>  <SCORE.SYSTEM.CONST>
0

>  <SCORE.SYSTEM.DIHEDRAL>
0

>  <SCORE.SYSTEM.SOLV>
0

>  <SCORE.SYSTEM.norm>
0

>  <SCORE.heavy>
40

>  <SCORE.norm>
1.94136

>  <RMSD>
8.915

$$$$
1nta_lig
 OpenBabel11021811403D
libRbt.so/2013.1/901 2013/11/27
 40 42  0  0  0  0  0  0  0  0999 V2000
   -3.3957   41.3211    0.3700 C   0  0  0  0  0  0  0  0  0  0  0  0
   -4.4171   41.6487   -0.3296 N   0  0  0  0  0  0  0  0  0  0  0  0
    0.9118   32.3350    1.4203 C   0  0  0  0  0  0  0  0  0  0  0  0
    1.5165   31.6588    0.6176 O   0  0  0  0  0  0  0  0  0  0  0  0
   -4.2115   35.6849   -1.7984 C   0  0  0  0  0  0  0  0  0  0  0  0
   -5.4364   35.9706   -2.1561 N   0  0  0  0  0  0  0  0  0  0  0  0
   -1.0649   32.7773    4.0582 C   0  0  0  0  0  0  0  0  0  0  0  0
    0.3127   34.1195   -2.9178 C   0  0  0  0  0  0  0  0  0  0  0  0
   -2.7509   39.0686    0.7035 C   0  0  2  0  0  0  0  0  0  0  0  0
   -3.5577   40.2691    1.1585 N   0  0  0  0  0  0  0  0  0  0  0  0
   -2.1090   33.8716    0.8019 C   0  0  2  0  0  0  0  0  0  0  0  0
   -2.1863   32.3084   -1.6550 C   0  0  1  0  0  0  0  0  0  0  0  0
   -1.9104   31.8559   -0.3757 O   0  0  0  0  0  0  0  0  0  0  0  0
   -3.6943   37.9269    0.2801 C   0  0  1  0  0  0  0  0  0  0  0  0
   -4.4254   38.3834   -0.8177 O   0  0  0  0  0  0  0  0  0  0  0  0
   -1.2149   32.7282    0.3347 C   0  0  2  0  0  0  0  0  0  0  0  0
   -1.0265   32.2557   -2.6249 C   0  0  1  0  0  0  0  0  0  0  0  0
    0.0686   32.9689   -2.0641 N   0  0  0  0  0  0  0  0  0  0  0  0
   -2.9303   36.6742   -0.1690 C   0  0  2  0  0  0  0  0  0  0  0  0
   -3.8080   35.5522   -0.5797 N   0  0  0  0  0  0  0  0  0  0  0  0
   -0.5830   32.3309    1.5971 C   0  0  1  0  0  0  0  0  0  0  0  0
   -1.0819   31.0340    1.9306 O   0  0  0  0  0  0  0  0  0  0  0  0
   -0.6354   30.9461   -2.8657 C   0  0  2  0  0  0  0  0  0  0  0  0
    0.2248   30.9562   -3.9770 O   0  0  0  0  0  0  0  0  0  0  0  0
   -2.0489   36.2212    0.9842 C   0  0  1  0  0  0  0  0  0  0  0  0
   -1.3423   35.0651    0.5625 O   0  0  0  0  0  0  0  0  0  0  0  0
   -0.9960   33.2712    2.6464 C   0  0  1  0  0  0  0  0  0  0  0  0
   -2.2559   33.7562    2.1986 O   0  0  0  0  0  0  0  0  0  0  0  0
   -1.8356   30.0875   -3.1669 C   0  0  1  0  0  0  0  0  0  0  0  0
   -1.4456   28.7458   -3.1660 O   0  0  0  0  0  0  0  0  0  0  0  0
   -1.0641   37.3560    1.3855 C   0  0  2  0  0  0  0  0  0  0  0  0
   -0.2398   36.9088    2.4606 O   0  0  0  0  0  0  0  0  0  0  0  0
   -2.8683   30.2756   -2.1083 C   0  0  1  0  0  0  0  0  0  0  0  0
   -3.2538   31.6197   -2.1205 O   0  0  0  0  0  0  0  0  0  0  0  0
   -1.8703   38.5913    1.8388 C   0  0  1  0  0  0  0  0  0  0  0  0
   -0.9770   39.6521    2.2151 O   0  0  0  0  0  0  0  0  0  0  0  0
   -4.1233   29.4267   -2.3923 C   0  0  0  0  0  0  0  0  0  0  0  0
   -4.6890   29.8291   -3.6346 O   0  0  0  0  0  0  0  0  0  0  0  0
   -2.2837   41.9715    0.3175 N   0  0  0  0  0  0  0  0  0  0  0  0
   -3.3204   35.4919   -2.6901 N   0  0  0  0  0  0  0  0  0  0  0  0
  1  2  1  0  0  0  0
  1 39  1  0  0  0  0
  3  4  1  0  0  0  0
  5  6  1  0  0  0  0
  5 40  1  0  0  0  0
  9 10  1  1  0  0  0
  9 14  1  0  0  0  0
  9 35  1  0  0  0  0
 10  1  1  0  0  0  0
 11 16  1  0  0  0  0
 11 28  1  0  0  0  0
 11 26  1  1  0  0  0
 12 17  1  0  0  0  0
 12 34  1  0  0  0  0
 12 13  1  1  0  0  0
 14 15  1  6  0  0  0
 14 19  1  0  0  0  0
 16 13  1  1  0  0  0
 16 21  1  0  0  0  0
 17 18  1  1  0  0  0
 17 23  1  0  0  0  0
 18  8  1  0  0  0  0
 19 20  1  1  0  0  0
 19 25  1  0  0  0  0
 20  5  1  0  0  0  0
 21  3  1  6  0  0  0
 21 22  1  0  0  0  0
 21 27  1  0  0  0  0
 23 24  1  6  0  0  0
 23 29  1  0  0  0  0
 25 26  1  6  0  0  0
 25 31  1  0  0  0  0
 27  7  1  1  0  0  0
 27 28  1  0  0  0  0
 29 30  1  1  0  0  0
 29 33  1  0  0  0  0
 31 32  1  1  0  0  0
 31 35  1  0  0  0  0
 33 34  1  0  0  0  0
 33 37  1  6  0  0  0
 35 36  1  6  0  0  0
 37 38  1  0  0  0  0
M  END
>  <CHROM.1>
-115.09580566,110.90197862,-178.66186138,76.05895117,75.66151707,-115.05948060
82.40532247,-109.44288419,-59.75192929,-87.02835502,-60.86417368,-2.02944703
34.51299434,-0.34745080,1.78839150,-0.90881003,0.46410148

>  <Name>
1nta_lig

>  <RI>
0

>  <Rbt.Current_Directory>
/home/itssahil/PROJECTS/Mol_Feturizer/New_Systems/rnas/1nta

>  <Rbt.Executable>
rbdock ($Id: //depot/dev/client3/rdock/2013.1/src/exe/rbdock.cxx#4 $)

>  <Rbt.Library>
libRbt.so (2013.1, Build901 2013/11/27)

>  <Rbt.Parameter_File>
/export/apps/rDock/src/rDock_2013.1_src/data/scripts/dock_solv.prm

>  <Rbt.Receptor>
prm/pocket_docking_7.prm

>  <SCORE>
-18.4615

>  <SCORE.INTER>
3.89225

>  <SCORE.INTER.CONST>
1

>  <SCORE.INTER.POLAR>
-0.12122

>  <SCORE.INTER.ROT>
11

>  <SCORE.INTER.SOLV>
7.28198

>  <SCORE.INTER.VDW>
-10.3618

>  <SCORE.INTER.norm>
0.0973063

>  <SCORE.INTRA>
-22.3537

>  <SCORE.INTRA.DIHEDRAL>
-9.85219

>  <SCORE.INTRA.DIHEDRAL.0>
19.0336

>  <SCORE.INTRA.POLAR>
0

>  <SCORE.INTRA.POLAR.0>
0

>  <SCORE.INTRA.REPUL>
0

>  <SCORE.INTRA.REPUL.0>
0

>  <SCORE.INTRA.SOLV>
-1.00716

>  <SCORE.INTRA.SOLV.lig_0>
-97.5861

>  <SCORE.INTRA.VDW>
-16.9241

>  <SCORE.INTRA.VDW.0>
11.7669

>  <SCORE.INTRA.norm>
-0.558843

>  <SCORE.RESTR>
0

>  <SCORE.RESTR.CAVITY>
0

>  <SCORE.RESTR.norm>
0

>  <SCORE.SYSTEM>
0

>  <SCORE.SYSTEM.CONST>
0

>  <SCORE.SYSTEM.DIHEDRAL>
0

>  <SCORE.SYSTEM.SOLV>
0

>  <SCORE.SYSTEM.norm>
0

>  <SCORE.heavy>
40

>  <SCORE.norm>
-0.461537

>  <RMSD>
8.929

$$$$
1nta_lig
 OpenBabel11021811403D
libRbt.so/2013.1/901 2013/11/27
 40 42  0  0  0  0  0  0  0  0999 V2000
   -7.8437   33.3339   -1.1017 C   0  0  0  0  0  0  0  0  0  0  0  0
   -8.4699   33.4002    0.0134 N   0  0  0  0  0  0  0  0  0  0  0  0
    0.8580   38.3884   -0.4542 C   0  0  0  0  0  0  0  0  0  0  0  0
    1.6255   38.4957   -1.3852 O   0  0  0  0  0  0  0  0  0  0  0  0
   -3.3597   37.1341   -3.2042 C   0  0  0  0  0  0  0  0  0  0  0  0
   -4.4253   37.4195   -3.9061 N   0  0  0  0  0  0  0  0  0  0  0  0
    0.0912   38.0461    2.7639 C   0  0  0  0  0  0  0  0  0  0  0  0
    5.2830   35.0500   -0.0056 C   0  0  0  0  0  0  0  0  0  0  0  0
   -5.6094   33.9901   -0.6801 C   0  0  2  0  0  0  0  0  0  0  0  0
   -6.5964   32.8937   -1.0306 N   0  0  0  0  0  0  0  0  0  0  0  0
   -0.7553   35.4700    0.4107 C   0  0  2  0  0  0  0  0  0  0  0  0
    2.3797   35.4113   -1.3620 C   0  0  1  0  0  0  0  0  0  0  0  0
    1.3644   35.0475   -0.4934 O   0  0  0  0  0  0  0  0  0  0  0  0
   -4.8280   34.4197   -1.9362 C   0  0  1  0  0  0  0  0  0  0  0  0
   -5.7533   34.9570   -2.8323 O   0  0  0  0  0  0  0  0  0  0  0  0
    0.4654   36.0038   -0.3310 C   0  0  2  0  0  0  0  0  0  0  0  0
    3.5528   34.4580   -1.4228 C   0  0  1  0  0  0  0  0  0  0  0  0
    4.0584   34.2740   -0.1065 N   0  0  0  0  0  0  0  0  0  0  0  0
   -3.7950   35.5139   -1.6354 C   0  0  2  0  0  0  0  0  0  0  0  0
   -3.0202   35.9489   -2.8223 N   0  0  0  0  0  0  0  0  0  0  0  0
    0.7772   37.1972    0.4624 C   0  0  1  0  0  0  0  0  0  0  0  0
    2.0148   36.9488    1.1323 O   0  0  0  0  0  0  0  0  0  0  0  0
    3.1697   33.2261   -1.9346 C   0  0  2  0  0  0  0  0  0  0  0  0
    4.3395   32.5083   -2.2367 O   0  0  0  0  0  0  0  0  0  0  0  0
   -2.8365   34.9804   -0.5826 C   0  0  1  0  0  0  0  0  0  0  0  0
   -1.8860   35.9971   -0.3057 O   0  0  0  0  0  0  0  0  0  0  0  0
   -0.2711   37.3764    1.4746 C   0  0  1  0  0  0  0  0  0  0  0  0
   -0.7719   36.0626    1.6890 O   0  0  0  0  0  0  0  0  0  0  0  0
    2.3549   33.4097   -3.1879 C   0  0  1  0  0  0  0  0  0  0  0  0
    1.7855   32.1839   -3.5427 O   0  0  0  0  0  0  0  0  0  0  0  0
   -3.6167   34.5870    0.7040 C   0  0  2  0  0  0  0  0  0  0  0  0
   -2.7001   34.0993    1.6825 O   0  0  0  0  0  0  0  0  0  0  0  0
    1.2534   34.3819   -2.9351 C   0  0  1  0  0  0  0  0  0  0  0  0
    1.8340   35.6049   -2.5848 O   0  0  0  0  0  0  0  0  0  0  0  0
   -4.6360   33.4804    0.3614 C   0  0  1  0  0  0  0  0  0  0  0  0
   -5.3673   33.1019    1.5390 O   0  0  0  0  0  0  0  0  0  0  0  0
    0.4070   34.6122   -4.2027 C   0  0  0  0  0  0  0  0  0  0  0  0
   -0.3766   33.4524   -4.4593 O   0  0  0  0  0  0  0  0  0  0  0  0
   -8.3852   33.6764   -2.2206 N   0  0  0  0  0  0  0  0  0  0  0  0
   -2.5544   38.0645   -2.8691 N   0  0  0  0  0  0  0  0  0  0  0  0
  1  2  1  0  0  0  0
  1 39  1  0  0  0  0
  3  4  1  0  0  0  0
  5  6  1  0  0  0  0
  5 40  1  0  0  0  0
  9 10  1  6  0  0  0
  9 14  1  0  0  0  0
  9 35  1  0  0  0  0
 10  1  1  0  0  0  0
 11 16  1  0  0  0  0
 11 28  1  0  0  0  0
 11 26  1  6  0  0  0
 12 17  1  0  0  0  0
 12 34  1  0  0  0  0
 12 13  1  1  0  0  0
 14 15  1  6  0  0  0
 14 19  1  0  0  0  0
 16 13  1  1  0  0  0
 16 21  1  0  0  0  0
 17 18  1  1  0  0  0
 17 23  1  0  0  0  0
 18  8  1  0  0  0  0
 19 20  1  6  0  0  0
 19 25  1  0  0  0  0
 20  5  1  0  0  0  0
 21  3  1  6  0  0  0
 21 22  1  0  0  0  0
 21 27  1  0  0  0  0
 23 24  1  6  0  0  0
 23 29  1  0  0  0  0
 25 26  1  1  0  0  0
 25 31  1  0  0  0  0
 27  7  1  1  0  0  0
 27 28  1  0  0  0  0
 29 30  1  1  0  0  0
 29 33  1  0  0  0  0
 31 32  1  1  0  0  0
 31 35  1  0  0  0  0
 33 34  1  0  0  0  0
 33 37  1  6  0  0  0
 35 36  1  1  0  0  0
 37 38  1  0  0  0  0
M  END
>  <CHROM.1>
-103.94775045,-84.05044804,131.65911084,170.59476973,169.20244700,-104.04618780
108.56522053,-79.12111907,-59.33186758,-165.21143181,71.79867627,-1.20219770
35.11101643,-1.08071319,-3.09688407,0.08203496,0.95871764

>  <Name>
1nta_lig

>  <RI>
0

>  <Rbt.Current_Directory>
/home/itssahil/PROJECTS/Mol_Feturizer/New_Systems/rnas/1nta

>  <Rbt.Executable>
rbdock ($Id: //depot/dev/client3/rdock/2013.1/src/exe/rbdock.cxx#4 $)

>  <Rbt.Library>
libRbt.so (2013.1, Build901 2013/11/27)

>  <Rbt.Parameter_File>
/export/apps/rDock/src/rDock_2013.1_src/data/scripts/dock_solv.prm

>  <Rbt.Receptor>
prm/pocket_docking_8.prm

>  <SCORE>
-20.1013

>  <SCORE.INTER>
1.83579

>  <SCORE.INTER.CONST>
1

>  <SCORE.INTER.POLAR>
-0.903025

>  <SCORE.INTER.ROT>
11

>  <SCORE.INTER.SOLV>
6.35246

>  <SCORE.INTER.VDW>
-8.81688

>  <SCORE.INTER.norm>
0.0458949

>  <SCORE.INTRA>
-21.9371

>  <SCORE.INTRA.DIHEDRAL>
-5.48437

>  <SCORE.INTRA.DIHEDRAL.0>
19.0336

>  <SCORE.INTRA.POLAR>
0

>  <SCORE.INTRA.POLAR.0>
0

>  <SCORE.INTRA.REPUL>
0

>  <SCORE.INTRA.REPUL.0>
0

>  <SCORE.INTRA.SOLV>
-4.13864

>  <SCORE.INTRA.SOLV.lig_0>
-97.5861

>  <SCORE.INTRA.VDW>
-17.1256

>  <SCORE.INTRA.VDW.0>
11.7669

>  <SCORE.INTRA.norm>
-0.548428

>  <SCORE.RESTR>
0

>  <SCORE.RESTR.CAVITY>
0

>  <SCORE.RESTR.norm>
0

>  <SCORE.SYSTEM>
0

>  <SCORE.SYSTEM.CONST>
0

>  <SCORE.SYSTEM.DIHEDRAL>
0

>  <SCORE.SYSTEM.SOLV>
0

>  <SCORE.SYSTEM.norm>
0

>  <SCORE.heavy>
40

>  <SCORE.norm>
-0.502533

>  <RMSD>
9.035

$$$$
1nta_lig
 OpenBabel11021811403D
libRbt.so/2013.1/901 2013/11/27
 40 42  0  0  0  0  0  0  0  0999 V2000
   -6.7964   34.5574    3.7958 C   0  0  0  0  0  0  0  0  0  0  0  0
   -7.2986   33.5186    3.2401 N   0  0  0  0  0  0  0  0  0  0  0  0
    0.8310   39.5676   -0.0084 C   0  0  0  0  0  0  0  0  0  0  0  0
   -0.2376   39.4450   -0.5654 O   0  0  0  0  0  0  0  0  0  0  0  0
   -2.1975   34.3071   -0.4834 C   0  0  0  0  0  0  0  0  0  0  0  0
   -2.0119   35.2170   -1.4039 N   0  0  0  0  0  0  0  0  0  0  0  0
    0.5745   40.4362    3.1918 C   0  0  0  0  0  0  0  0  0  0  0  0
    5.8996   38.1946    1.1002 C   0  0  0  0  0  0  0  0  0  0  0  0
   -4.6187   35.3163    3.2645 C   0  0  2  0  0  0  0  0  0  0  0  0
   -5.5195   34.4621    4.1351 N   0  0  0  0  0  0  0  0  0  0  0  0
    0.2756   36.9945    2.2140 C   0  0  2  0  0  0  0  0  0  0  0  0
    3.1478   37.0559    0.0271 C   0  0  1  0  0  0  0  0  0  0  0  0
    2.3068   36.7281    1.0773 O   0  0  0  0  0  0  0  0  0  0  0  0
   -3.6792   34.4198    2.4359 C   0  0  1  0  0  0  0  0  0  0  0  0
   -4.4822   33.6552    1.5882 O   0  0  0  0  0  0  0  0  0  0  0  0
    1.1873   37.4323    1.0728 C   0  0  2  0  0  0  0  0  0  0  0  0
    4.5694   36.5545    0.1549 C   0  0  1  0  0  0  0  0  0  0  0  0
    5.1044   37.0132    1.3901 N   0  0  0  0  0  0  0  0  0  0  0  0
   -2.7258   35.2337    1.5507 C   0  0  2  0  0  0  0  0  0  0  0  0
   -1.8028   34.4021    0.7417 N   0  0  0  0  0  0  0  0  0  0  0  0
    1.2159   38.8844    1.2765 C   0  0  1  0  0  0  0  0  0  0  0  0
    2.5390   39.2276    1.6931 O   0  0  0  0  0  0  0  0  0  0  0  0
    4.6143   35.1676    0.1318 C   0  0  2  0  0  0  0  0  0  0  0  0
    5.9559   34.7880   -0.0445 O   0  0  0  0  0  0  0  0  0  0  0  0
   -1.9121   36.1489    2.4519 C   0  0  1  0  0  0  0  0  0  0  0  0
   -1.0351   36.9014    1.6283 O   0  0  0  0  0  0  0  0  0  0  0  0
    0.2847   39.2261    2.3590 C   0  0  1  0  0  0  0  0  0  0  0  0
    0.2283   38.0460    3.1509 O   0  0  0  0  0  0  0  0  0  0  0  0
    3.7873   34.6353   -1.0090 C   0  0  1  0  0  0  0  0  0  0  0  0
    3.6539   33.2518   -0.8660 O   0  0  0  0  0  0  0  0  0  0  0  0
   -2.8556   37.0867    3.2576 C   0  0  2  0  0  0  0  0  0  0  0  0
   -2.0740   37.9437    4.0883 O   0  0  0  0  0  0  0  0  0  0  0  0
    2.4266   35.2433   -0.9716 C   0  0  1  0  0  0  0  0  0  0  0  0
    2.5715   36.6263   -1.1192 O   0  0  0  0  0  0  0  0  0  0  0  0
   -3.7892   36.2316    4.1398 C   0  0  1  0  0  0  0  0  0  0  0  0
   -4.6694   37.0810    4.8940 O   0  0  0  0  0  0  0  0  0  0  0  0
    1.5545   34.7376   -2.1378 C   0  0  0  0  0  0  0  0  0  0  0  0
    2.1677   35.0970   -3.3707 O   0  0  0  0  0  0  0  0  0  0  0  0
   -7.4848   35.6248    4.0167 N   0  0  0  0  0  0  0  0  0  0  0  0
   -2.8324   33.2384   -0.7685 N   0  0  0  0  0  0  0  0  0  0  0  0
  1  2  1  0  0  0  0
  1 39  1  0  0  0  0
  3  4  1  0  0  0  0
  5  6  1  0  0  0  0
  5 40  1  0  0  0  0
  9 10  1  1  0  0  0
  9 14  1  0  0  0  0
  9 35  1  0  0  0  0
 10  1  1  0  0  0  0
 11 16  1  0  0  0  0
 11 28  1  0  0  0  0
 11 26  1  6  0  0  0
 12 17  1  0  0  0  0
 12 34  1  0  0  0  0
 12 13  1  1  0  0  0
 14 15  1  6  0  0  0
 14 19  1  0  0  0  0
 16 13  1  1  0  0  0
 16 21  1  0  0  0  0
 17 18  1  1  0  0  0
 17 23  1  0  0  0  0
 18  8  1  0  0  0  0
 19 20  1  1  0  0  0
 19 25  1  0  0  0  0
 20  5  1  0  0  0  0
 21  3  1  6  0  0  0
 21 22  1  0  0  0  0
 21 27  1  0  0  0  0
 23 24  1  6  0  0  0
 23 29  1  0  0  0  0
 25 26  1  6  0  0  0
 25 31  1  0  0  0  0
 27  7  1  1  0  0  0
 27 28  1  0  0  0  0
 29 30  1  1  0  0  0
 29 33  1  0  0  0  0
 31 32  1  1  0  0  0
 31 35  1  0  0  0  0
 33 34  1  0  0  0  0
 33 37  1  6  0  0  0
 35 36  1  6  0  0  0
 37 38  1  0  0  0  0
M  END
>  <CHROM.1>
-114.51810635,109.27159597,163.28122287,165.44278998,177.75313573,-98.48477360
101.49205934,80.22127685,61.69142603,-137.77010802,-60.62776816,-0.27724544
36.26540440,1.26788779,3.03612445,0.36983044,0.64206481

>  <Name>
1nta_lig

>  <RI>
0

>  <Rbt.Current_Directory>
/home/itssahil/PROJECTS/Mol_Feturizer/New_Systems/rnas/1nta

>  <Rbt.Executable>
rbdock ($Id: //depot/dev/client3/rdock/2013.1/src/exe/rbdock.cxx#4 $)

>  <Rbt.Library>
libRbt.so (2013.1, Build901 2013/11/27)

>  <Rbt.Parameter_File>
/export/apps/rDock/src/rDock_2013.1_src/data/scripts/dock_solv.prm

>  <Rbt.Receptor>
prm/pocket_docking_6.prm

>  <SCORE>
-21.2554

>  <SCORE.INTER>
1.15042

>  <SCORE.INTER.CONST>
1

>  <SCORE.INTER.POLAR>
-0.758599

>  <SCORE.INTER.ROT>
11

>  <SCORE.INTER.SOLV>
7.17814

>  <SCORE.INTER.VDW>
-10.0304

>  <SCORE.INTER.norm>
0.0287605

>  <SCORE.INTRA>
-22.4058

>  <SCORE.INTRA.DIHEDRAL>
-6.68535

>  <SCORE.INTRA.DIHEDRAL.0>
19.0336

>  <SCORE.INTRA.POLAR>
0

>  <SCORE.INTRA.POLAR.0>
0

>  <SCORE.INTRA.REPUL>
0

>  <SCORE.INTRA.REPUL.0>
0

>  <SCORE.INTRA.SOLV>
-3.76024

>  <SCORE.INTRA.SOLV.lig_0>
-97.5861

>  <SCORE.INTRA.VDW>
-17.183

>  <SCORE.INTRA.VDW.0>
11.7669

>  <SCORE.INTRA.norm>
-0.560145

>  <SCORE.RESTR>
0

>  <SCORE.RESTR.CAVITY>
0

>  <SCORE.RESTR.norm>
0

>  <SCORE.SYSTEM>
0

>  <SCORE.SYSTEM.CONST>
0

>  <SCORE.SYSTEM.DIHEDRAL>
0

>  <SCORE.SYSTEM.SOLV>
0

>  <SCORE.SYSTEM.norm>
0

>  <SCORE.heavy>
40

>  <SCORE.norm>
-0.531385

>  <RMSD>
9.052

$$$$
1nta_lig
 OpenBabel11021811403D
libRbt.so/2013.1/901 2013/11/27
 40 42  0  0  0  0  0  0  0  0999 V2000
   -0.0794   42.1122   -7.5133 C   0  0  0  0  0  0  0  0  0  0  0  0
   -0.8201   42.2095   -8.5535 N   0  0  0  0  0  0  0  0  0  0  0  0
    2.3744   33.5479   -2.8573 C   0  0  0  0  0  0  0  0  0  0  0  0
    3.2283   34.3568   -3.1468 O   0  0  0  0  0  0  0  0  0  0  0  0
   -1.2325   36.0779   -7.9353 C   0  0  0  0  0  0  0  0  0  0  0  0
   -0.2583   35.4303   -8.5195 N   0  0  0  0  0  0  0  0  0  0  0  0
    0.1594   35.0067   -0.8505 C   0  0  0  0  0  0  0  0  0  0  0  0
   -1.5703   29.3789   -3.2278 C   0  0  0  0  0  0  0  0  0  0  0  0
    0.0774   40.0683   -6.3307 C   0  0  2  0  0  0  0  0  0  0  0  0
   -0.5930   41.4165   -6.5099 N   0  0  0  0  0  0  0  0  0  0  0  0
   -0.2179   35.1970   -4.4159 C   0  0  2  0  0  0  0  0  0  0  0  0
    0.3881   31.6668   -4.8683 C   0  0  1  0  0  0  0  0  0  0  0  0
   -0.2123   32.9128   -4.9370 O   0  0  0  0  0  0  0  0  0  0  0  0
   -0.9265   38.9359   -6.6184 C   0  0  1  0  0  0  0  0  0  0  0  0
   -1.2979   39.0465   -7.9593 O   0  0  0  0  0  0  0  0  0  0  0  0
    0.5194   33.8627   -4.3791 C   0  0  2  0  0  0  0  0  0  0  0  0
   -0.5523   30.4874   -4.9849 C   0  0  1  0  0  0  0  0  0  0  0  0
   -1.5652   30.6133   -3.9947 N   0  0  0  0  0  0  0  0  0  0  0  0
   -0.3074   37.5446   -6.4292 C   0  0  2  0  0  0  0  0  0  0  0  0
   -1.2479   36.4294   -6.6935 N   0  0  0  0  0  0  0  0  0  0  0  0
    0.8918   33.7858   -2.9626 C   0  0  1  0  0  0  0  0  0  0  0  0
    0.1336   32.7224   -2.3826 O   0  0  0  0  0  0  0  0  0  0  0  0
   -1.1490   30.4458   -6.2372 C   0  0  2  0  0  0  0  0  0  0  0  0
   -1.7619   29.1887   -6.3751 O   0  0  0  0  0  0  0  0  0  0  0  0
    0.1960   37.4435   -4.9980 C   0  0  1  0  0  0  0  0  0  0  0  0
    0.7704   36.1569   -4.8296 O   0  0  0  0  0  0  0  0  0  0  0  0
    0.5078   35.0417   -2.3063 C   0  0  1  0  0  0  0  0  0  0  0  0
   -0.5743   35.5251   -3.0927 O   0  0  0  0  0  0  0  0  0  0  0  0
   -0.1140   30.6217   -7.3172 C   0  0  1  0  0  0  0  0  0  0  0  0
   -0.7622   30.8164   -8.5396 O   0  0  0  0  0  0  0  0  0  0  0  0
    1.2433   38.5584   -4.7171 C   0  0  2  0  0  0  0  0  0  0  0  0
    1.7109   38.4407   -3.3744 O   0  0  0  0  0  0  0  0  0  0  0  0
    0.7149   31.8269   -7.0294 C   0  0  1  0  0  0  0  0  0  0  0  0
    1.3614   31.6198   -5.8069 O   0  0  0  0  0  0  0  0  0  0  0  0
    0.5800   39.9384   -4.9085 C   0  0  1  0  0  0  0  0  0  0  0  0
    1.5326   40.9832   -4.6522 O   0  0  0  0  0  0  0  0  0  0  0  0
    1.8012   32.0297   -8.1042 C   0  0  0  0  0  0  0  0  0  0  0  0
    1.1787   32.3362   -9.3466 O   0  0  0  0  0  0  0  0  0  0  0  0
    1.0867   42.6573   -7.4411 N   0  0  0  0  0  0  0  0  0  0  0  0
   -2.2548   36.4290   -8.6122 N   0  0  0  0  0  0  0  0  0  0  0  0
  1  2  1  0  0  0  0
  1 39  1  0  0  0  0
  3  4  1  0  0  0  0
  5  6  1  0  0  0  0
  5 40  1  0  0  0  0
  9 10  1  1  0  0  0
  9 14  1  0  0  0  0
  9 35  1  0  0  0  0
 10  1  1  0  0  0  0
 11 16  1  0  0  0  0
 11 28  1  0  0  0  0
 11 26  1  1  0  0  0
 12 17  1  0  0  0  0
 12 34  1  0  0  0  0
 12 13  1  6  0  0  0
 14 15  1  6  0  0  0
 14 19  1  0  0  0  0
 16 13  1  1  0  0  0
 16 21  1  0  0  0  0
 17 18  1  1  0  0  0
 17 23  1  0  0  0  0
 18  8  1  0  0  0  0
 19 20  1  1  0  0  0
 19 25  1  0  0  0  0
 20  5  1  0  0  0  0
 21  3  1  1  0  0  0
 21 22  1  0  0  0  0
 21 27  1  0  0  0  0
 23 24  1  6  0  0  0
 23 29  1  0  0  0  0
 25 26  1  6  0  0  0
 25 31  1  0  0  0  0
 27  7  1  1  0  0  0
 27 28  1  0  0  0  0
 29 30  1  6  0  0  0
 29 33  1  0  0  0  0
 31 32  1  1  0  0  0
 31 35  1  0  0  0  0
 33 34  1  0  0  0  0
 33 37  1  6  0  0  0
 35 36  1  6  0  0  0
 37 38  1  0  0  0  0
M  END
>  <CHROM.1>
-114.90873428,107.71312392,175.93516422,157.66137829,-176.99496557,-125.78681048
88.92122407,72.26115112,69.35877844,-88.52717658,66.04648156,0.08659180,35.27329217
-5.57833759,1.45263594,-1.30463093,-0.23349763

>  <Name>
1nta_lig

>  <RI>
0

>  <Rbt.Current_Directory>
/home/itssahil/PROJECTS/Mol_Feturizer/New_Systems/rnas/1nta

>  <Rbt.Executable>
rbdock ($Id: //depot/dev/client3/rdock/2013.1/src/exe/rbdock.cxx#4 $)

>  <Rbt.Library>
libRbt.so (2013.1, Build901 2013/11/27)

>  <Rbt.Parameter_File>
/export/apps/rDock/src/rDock_2013.1_src/data/scripts/dock_solv.prm

>  <Rbt.Receptor>
prm/pocket_docking_8.prm

>  <SCORE>
-29.9745

>  <SCORE.INTER>
-7.8995

>  <SCORE.INTER.CONST>
1

>  <SCORE.INTER.POLAR>
-0.364443

>  <SCORE.INTER.ROT>
11

>  <SCORE.INTER.SOLV>
9.18764

>  <SCORE.INTER.VDW>
-18.0474

>  <SCORE.INTER.norm>
-0.197487

>  <SCORE.INTRA>
-22.0798

>  <SCORE.INTRA.DIHEDRAL>
-8.68673

>  <SCORE.INTRA.DIHEDRAL.0>
19.0336

>  <SCORE.INTRA.POLAR>
0

>  <SCORE.INTRA.POLAR.0>
0

>  <SCORE.INTRA.REPUL>
0.00637575

>  <SCORE.INTRA.REPUL.0>
0

>  <SCORE.INTRA.SOLV>
-2.47955

>  <SCORE.INTRA.SOLV.lig_0>
-97.5861

>  <SCORE.INTRA.VDW>
-16.5285

>  <SCORE.INTRA.VDW.0>
11.7669

>  <SCORE.INTRA.norm>
-0.551995

>  <SCORE.RESTR>
0.00475401

>  <SCORE.RESTR.CAVITY>
0.00475401

>  <SCORE.RESTR.norm>
0.00011885

>  <SCORE.SYSTEM>
0

>  <SCORE.SYSTEM.CONST>
0

>  <SCORE.SYSTEM.DIHEDRAL>
0

>  <SCORE.SYSTEM.SOLV>
0

>  <SCORE.SYSTEM.norm>
0

>  <SCORE.heavy>
40

>  <SCORE.norm>
-0.749363

>  <RMSD>
9.293

$$$$
1nta_lig
 OpenBabel11021811403D
libRbt.so/2013.1/901 2013/11/27
 40 42  0  0  0  0  0  0  0  0999 V2000
   -7.4999   35.3704    1.5115 C   0  0  0  0  0  0  0  0  0  0  0  0
   -7.6171   36.3555    2.3214 N   0  0  0  0  0  0  0  0  0  0  0  0
    1.7465   34.7231   -2.4030 C   0  0  0  0  0  0  0  0  0  0  0  0
    2.1042   35.1229   -3.4891 O   0  0  0  0  0  0  0  0  0  0  0  0
   -4.6442   32.3887   -3.0252 C   0  0  0  0  0  0  0  0  0  0  0  0
   -4.8106   33.2810   -3.9664 N   0  0  0  0  0  0  0  0  0  0  0  0
    1.6825   32.6556    0.2014 C   0  0  0  0  0  0  0  0  0  0  0  0
   -1.0171   35.9665   -5.4913 C   0  0  0  0  0  0  0  0  0  0  0  0
   -5.3661   34.8360    0.6386 C   0  0  2  0  0  0  0  0  0  0  0  0
   -6.4324   34.6071    1.6920 N   0  0  0  0  0  0  0  0  0  0  0  0
   -1.1992   33.0057   -1.9114 C   0  0  2  0  0  0  0  0  0  0  0  0
   -1.1855   32.8672   -4.9179 C   0  0  1  0  0  0  0  0  0  0  0  0
   -0.2359   32.4891   -3.9837 O   0  0  0  0  0  0  0  0  0  0  0  0
   -5.1427   33.5481   -0.1765 C   0  0  1  0  0  0  0  0  0  0  0  0
   -6.3380   33.2695   -0.8410 O   0  0  0  0  0  0  0  0  0  0  0  0
   -0.1526   33.3350   -2.9704 C   0  0  2  0  0  0  0  0  0  0  0  0
   -0.6766   33.7449   -6.0401 C   0  0  1  0  0  0  0  0  0  0  0  0
   -0.0449   34.8864   -5.4743 N   0  0  0  0  0  0  0  0  0  0  0  0
   -4.0541   33.7148   -1.2451 C   0  0  2  0  0  0  0  0  0  0  0  0
   -3.8091   32.4918   -2.0466 N   0  0  0  0  0  0  0  0  0  0  0  0
    1.0628   33.4057   -2.1526 C   0  0  1  0  0  0  0  0  0  0  0  0
    1.8843   32.2951   -2.5181 O   0  0  0  0  0  0  0  0  0  0  0  0
    0.2420   33.0660   -6.8284 C   0  0  2  0  0  0  0  0  0  0  0  0
    0.4403   33.8210   -7.9970 O   0  0  0  0  0  0  0  0  0  0  0  0
   -2.7658   34.1192   -0.5463 C   0  0  1  0  0  0  0  0  0  0  0  0
   -1.7639   34.2754   -1.5390 O   0  0  0  0  0  0  0  0  0  0  0  0
    0.6886   33.2619   -0.7402 C   0  0  1  0  0  0  0  0  0  0  0  0
   -0.5209   32.5145   -0.7782 O   0  0  0  0  0  0  0  0  0  0  0  0
   -0.2864   31.7037   -7.1937 C   0  0  1  0  0  0  0  0  0  0  0  0
    0.7428   30.9586   -7.7751 O   0  0  0  0  0  0  0  0  0  0  0  0
   -2.9751   35.4434    0.2419 C   0  0  2  0  0  0  0  0  0  0  0  0
   -1.7540   35.8115    0.8813 O   0  0  0  0  0  0  0  0  0  0  0  0
   -0.7419   30.9935   -5.9646 C   0  0  1  0  0  0  0  0  0  0  0  0
   -1.7735   31.7453   -5.3935 O   0  0  0  0  0  0  0  0  0  0  0  0
   -4.0681   35.2312    1.3103 C   0  0  1  0  0  0  0  0  0  0  0  0
   -4.2759   36.4449    2.0510 O   0  0  0  0  0  0  0  0  0  0  0  0
   -1.3094   29.6001   -6.3002 C   0  0  0  0  0  0  0  0  0  0  0  0
   -2.4205   29.7462   -7.1772 O   0  0  0  0  0  0  0  0  0  0  0  0
   -8.3580   35.1363    0.5783 N   0  0  0  0  0  0  0  0  0  0  0  0
   -5.3569   31.3311   -3.0224 N   0  0  0  0  0  0  0  0  0  0  0  0
  1  2  1  0  0  0  0
  1 39  1  0  0  0  0
  3  4  1  0  0  0  0
  5  6  1  0  0  0  0
  5 40  1  0  0  0  0
  9 10  1  1  0  0  0
  9 14  1  0  0  0  0
  9 35  1  0  0  0  0
 10  1  1  0  0  0  0
 11 16  1  0  0  0  0
 11 28  1  0  0  0  0
 11 26  1  1  0  0  0
 12 17  1  0  0  0  0
 12 34  1  0  0  0  0
 12 13  1  1  0  0  0
 14 15  1  6  0  0  0
 14 19  1  0  0  0  0
 16 13  1  6  0  0  0
 16 21  1  0  0  0  0
 17 18  1  1  0  0  0
 17 23  1  0  0  0  0
 18  8  1  0  0  0  0
 19 20  1  1  0  0  0
 19 25  1  0  0  0  0
 20  5  1  0  0  0  0
 21  3  1  6  0  0  0
 21 22  1  0  0  0  0
 21 27  1  0  0  0  0
 23 24  1  6  0  0  0
 23 29  1  0  0  0  0
 25 26  1  6  0  0  0
 25 31  1  0  0  0  0
 27  7  1  1  0  0  0
 27 28  1  0  0  0  0
 29 30  1  1  0  0  0
 29 33  1  0  0  0  0
 31 32  1  1  0  0  0
 31 35  1  0  0  0  0
 33 34  1  0  0  0  0
 33 37  1  6  0  0  0
 35 36  1  6  0  0  0
 37 38  1  0  0  0  0
M  END
>  <CHROM.1>
-117.05872053,-105.43972512,-179.97529461,90.75617433,84.79677116,-97.64569346
84.00980569,57.73852045,-56.69321614,-81.47710787,-60.14043207,-2.15036186
33.47904140,-2.59673199,2.24364804,0.12765771,1.10223668

>  <Name>
1nta_lig

>  <RI>
0

>  <Rbt.Current_Directory>
/home/itssahil/PROJECTS/Mol_Feturizer/New_Systems/rnas/1nta

>  <Rbt.Executable>
rbdock ($Id: //depot/dev/client3/rdock/2013.1/src/exe/rbdock.cxx#4 $)

>  <Rbt.Library>
libRbt.so (2013.1, Build901 2013/11/27)

>  <Rbt.Parameter_File>
/export/apps/rDock/src/rDock_2013.1_src/data/scripts/dock_solv.prm

>  <Rbt.Receptor>
prm/pocket_docking_8.prm

>  <SCORE>
-20.7208

>  <SCORE.INTER>
0.830513

>  <SCORE.INTER.CONST>
1

>  <SCORE.INTER.POLAR>
-0.819876

>  <SCORE.INTER.ROT>
11

>  <SCORE.INTER.SOLV>
6.63031

>  <SCORE.INTER.VDW>
-9.85684

>  <SCORE.INTER.norm>
0.0207628

>  <SCORE.INTRA>
-21.5533

>  <SCORE.INTRA.DIHEDRAL>
-6.7628

>  <SCORE.INTRA.DIHEDRAL.0>
19.0336

>  <SCORE.INTRA.POLAR>
0

>  <SCORE.INTRA.POLAR.0>
0

>  <SCORE.INTRA.REPUL>
0

>  <SCORE.INTRA.REPUL.0>
0

>  <SCORE.INTRA.SOLV>
-2.16211

>  <SCORE.INTRA.SOLV.lig_0>
-97.5861

>  <SCORE.INTRA.VDW>
-17.0908

>  <SCORE.INTRA.VDW.0>
11.7669

>  <SCORE.INTRA.norm>
-0.538831

>  <SCORE.RESTR>
0.00190833

>  <SCORE.RESTR.CAVITY>
0.00190833

>  <SCORE.RESTR.norm>
4.77081e-05

>  <SCORE.SYSTEM>
0

>  <SCORE.SYSTEM.CONST>
0

>  <SCORE.SYSTEM.DIHEDRAL>
0

>  <SCORE.SYSTEM.SOLV>
0

>  <SCORE.SYSTEM.norm>
0

>  <SCORE.heavy>
40

>  <SCORE.norm>
-0.518021

>  <RMSD>
9.620

$$$$
1nta_lig
 OpenBabel11021811403D
libRbt.so/2013.1/901 2013/11/27
 40 42  0  0  0  0  0  0  0  0999 V2000
   -4.0384   30.0881   -1.2413 C   0  0  0  0  0  0  0  0  0  0  0  0
   -3.2629   29.7184   -0.2916 N   0  0  0  0  0  0  0  0  0  0  0  0
   -2.8938   36.1274   -8.4662 C   0  0  0  0  0  0  0  0  0  0  0  0
   -3.9883   35.9032   -7.9981 O   0  0  0  0  0  0  0  0  0  0  0  0
   -5.6909   34.8377   -5.3474 C   0  0  0  0  0  0  0  0  0  0  0  0
   -5.4747   36.0981   -5.0744 N   0  0  0  0  0  0  0  0  0  0  0  0
   -1.5859   38.8265   -7.0289 C   0  0  0  0  0  0  0  0  0  0  0  0
    0.6590   35.1687  -11.1974 C   0  0  0  0  0  0  0  0  0  0  0  0
   -3.3193   31.7846   -2.7263 C   0  0  2  0  0  0  0  0  0  0  0  0
   -3.4486   30.3081   -2.4068 N   0  0  0  0  0  0  0  0  0  0  0  0
   -1.1618   35.5882   -5.5374 C   0  0  2  0  0  0  0  0  0  0  0  0
   -0.3838   33.6681   -8.4646 C   0  0  1  0  0  0  0  0  0  0  0  0
   -0.1875   34.4479   -7.3373 O   0  0  0  0  0  0  0  0  0  0  0  0
   -4.1255   32.1241   -3.9943 C   0  0  1  0  0  0  0  0  0  0  0  0
   -5.4679   31.8712   -3.7081 O   0  0  0  0  0  0  0  0  0  0  0  0
   -1.2740   35.1130   -6.9820 C   0  0  2  0  0  0  0  0  0  0  0  0
    0.7633   33.6549   -9.4509 C   0  0  1  0  0  0  0  0  0  0  0  0
    1.0673   34.9960   -9.8133 N   0  0  0  0  0  0  0  0  0  0  0  0
   -4.0117   33.6050   -4.3797 C   0  0  2  0  0  0  0  0  0  0  0  0
   -4.7724   33.9668   -5.5998 N   0  0  0  0  0  0  0  0  0  0  0  0
   -1.6438   36.3595   -7.6605 C   0  0  1  0  0  0  0  0  0  0  0  0
   -0.5373   36.7391   -8.4813 O   0  0  0  0  0  0  0  0  0  0  0  0
    1.8933   33.0711   -8.8956 C   0  0  2  0  0  0  0  0  0  0  0  0
    2.8023   32.8261   -9.9390 O   0  0  0  0  0  0  0  0  0  0  0  0
   -2.5410   33.9239   -4.5964 C   0  0  1  0  0  0  0  0  0  0  0  0
   -2.4413   35.2949   -4.9488 O   0  0  0  0  0  0  0  0  0  0  0  0
   -1.8506   37.4027   -6.6483 C   0  0  1  0  0  0  0  0  0  0  0  0
   -1.0358   36.9915   -5.5576 O   0  0  0  0  0  0  0  0  0  0  0  0
    1.5357   31.7708   -8.2248 C   0  0  1  0  0  0  0  0  0  0  0  0
    2.6299   31.3305   -7.4758 O   0  0  0  0  0  0  0  0  0  0  0  0
   -1.7303   33.6245   -3.3034 C   0  0  2  0  0  0  0  0  0  0  0  0
   -0.3563   33.9395   -3.5229 O   0  0  0  0  0  0  0  0  0  0  0  0
    0.3876   31.9812   -7.2975 C   0  0  1  0  0  0  0  0  0  0  0  0
   -0.7021   32.4177   -8.0574 O   0  0  0  0  0  0  0  0  0  0  0  0
   -1.8626   32.1268   -2.9564 C   0  0  1  0  0  0  0  0  0  0  0  0
   -1.1187   31.8295   -1.7634 O   0  0  0  0  0  0  0  0  0  0  0  0
   -0.0221   30.6661   -6.6053 C   0  0  0  0  0  0  0  0  0  0  0  0
   -1.1093   30.9206   -5.7231 O   0  0  0  0  0  0  0  0  0  0  0  0
   -5.3079   30.2421   -1.0776 N   0  0  0  0  0  0  0  0  0  0  0  0
   -6.8838   34.3867   -5.3529 N   0  0  0  0  0  0  0  0  0  0  0  0
  1  2  1  0  0  0  0
  1 39  1  0  0  0  0
  3  4  1  0  0  0  0
  5  6  1  0  0  0  0
  5 40  1  0  0  0  0
  9 10  1  6  0  0  0
  9 14  1  0  0  0  0
  9 35  1  0  0  0  0
 10  1  1  0  0  0  0
 11 16  1  0  0  0  0
 11 28  1  0  0  0  0
 11 26  1  1  0  0  0
 12 17  1  0  0  0  0
 12 34  1  0  0  0  0
 12 13  1  1  0  0  0
 14 15  1  1  0  0  0
 14 19  1  0  0  0  0
 16 13  1  6  0  0  0
 16 21  1  0  0  0  0
 17 18  1  1  0  0  0
 17 23  1  0  0  0  0
 18  8  1  0  0  0  0
 19 20  1  6  0  0  0
 19 25  1  0  0  0  0
 20  5  1  0  0  0  0
 21  3  1  6  0  0  0
 21 22  1  0  0  0  0
 21 27  1  0  0  0  0
 23 24  1  6  0  0  0
 23 29  1  0  0  0  0
 25 26  1  1  0  0  0
 25 31  1  0  0  0  0
 27  7  1  6  0  0  0
 27 28  1  0  0  0  0
 29 30  1  1  0  0  0
 29 33  1  0  0  0  0
 31 32  1  6  0  0  0
 31 35  1  0  0  0  0
 33 34  1  0  0  0  0
 33 37  1  6  0  0  0
 35 36  1  1  0  0  0
 37 38  1  0  0  0  0
M  END
>  <CHROM.1>
-117.15254241,-105.30640710,79.48852850,139.84928684,162.03632105,-110.19057935
118.09328703,72.17827940,67.65433282,-163.42606997,179.41842223,-1.77485212
33.65569624,-5.90480020,-2.29408787,0.61462513,-0.66645763

>  <Name>
1nta_lig

>  <RI>
0

>  <Rbt.Current_Directory>
/home/itssahil/PROJECTS/Mol_Feturizer/New_Systems/rnas/1nta

>  <Rbt.Executable>
rbdock ($Id: //depot/dev/client3/rdock/2013.1/src/exe/rbdock.cxx#4 $)

>  <Rbt.Library>
libRbt.so (2013.1, Build901 2013/11/27)

>  <Rbt.Parameter_File>
/export/apps/rDock/src/rDock_2013.1_src/data/scripts/dock_solv.prm

>  <Rbt.Receptor>
prm/pocket_docking_8.prm

>  <SCORE>
-22.8822

>  <SCORE.INTER>
-0.673873

>  <SCORE.INTER.CONST>
1

>  <SCORE.INTER.POLAR>
-0.774597

>  <SCORE.INTER.ROT>
11

>  <SCORE.INTER.SOLV>
9.74901

>  <SCORE.INTER.VDW>
-12.0503

>  <SCORE.INTER.norm>
-0.0168468

>  <SCORE.INTRA>
-22.2083

>  <SCORE.INTRA.DIHEDRAL>
-4.19758

>  <SCORE.INTRA.DIHEDRAL.0>
19.0336

>  <SCORE.INTRA.POLAR>
0

>  <SCORE.INTRA.POLAR.0>
0

>  <SCORE.INTRA.REPUL>
0.0235431

>  <SCORE.INTRA.REPUL.0>
0

>  <SCORE.INTRA.SOLV>
-1.64173

>  <SCORE.INTRA.SOLV.lig_0>
-97.5861

>  <SCORE.INTRA.VDW>
-19.4064

>  <SCORE.INTRA.VDW.0>
11.7669

>  <SCORE.INTRA.norm>
-0.555209

>  <SCORE.RESTR>
0

>  <SCORE.RESTR.CAVITY>
0

>  <SCORE.RESTR.norm>
0

>  <SCORE.SYSTEM>
0

>  <SCORE.SYSTEM.CONST>
0

>  <SCORE.SYSTEM.DIHEDRAL>
0

>  <SCORE.SYSTEM.SOLV>
0

>  <SCORE.SYSTEM.norm>
0

>  <SCORE.heavy>
40

>  <SCORE.norm>
-0.572055

>  <RMSD>
9.671

$$$$
1nta_lig
 OpenBabel11021811403D
libRbt.so/2013.1/901 2013/11/27
 40 42  0  0  0  0  0  0  0  0999 V2000
   -3.9312   30.3099    0.5383 C   0  0  0  0  0  0  0  0  0  0  0  0
   -4.3342   31.1569    1.4103 N   0  0  0  0  0  0  0  0  0  0  0  0
   -3.8615   35.2316   -8.1977 C   0  0  0  0  0  0  0  0  0  0  0  0
   -3.7560   34.7967   -9.3233 O   0  0  0  0  0  0  0  0  0  0  0  0
   -4.3481   30.2941   -5.6683 C   0  0  0  0  0  0  0  0  0  0  0  0
   -4.7964   29.0831   -5.4628 N   0  0  0  0  0  0  0  0  0  0  0  0
   -3.4203   37.5898   -5.8943 C   0  0  0  0  0  0  0  0  0  0  0  0
    1.0271   35.1342  -11.1756 C   0  0  0  0  0  0  0  0  0  0  0  0
   -3.2889   31.5172   -1.3931 C   0  0  2  0  0  0  0  0  0  0  0  0
   -2.8899   30.6893   -0.1872 N   0  0  0  0  0  0  0  0  0  0  0  0
   -1.8597   34.3773   -5.5273 C   0  0  2  0  0  0  0  0  0  0  0  0
   -0.6583   33.5449   -8.7293 C   0  0  1  0  0  0  0  0  0  0  0  0
   -0.6857   34.2738   -7.5522 O   0  0  0  0  0  0  0  0  0  0  0  0
   -3.0714   30.7081   -2.6857 C   0  0  1  0  0  0  0  0  0  0  0  0
   -3.9262   29.6062   -2.6299 O   0  0  0  0  0  0  0  0  0  0  0  0
   -1.9045   34.3878   -7.0515 C   0  0  2  0  0  0  0  0  0  0  0  0
    0.6477   33.5941   -9.4914 C   0  0  1  0  0  0  0  0  0  0  0  0
    0.9821   34.9547   -9.7341 N   0  0  0  0  0  0  0  0  0  0  0  0
   -3.4377   31.5072   -3.9435 C   0  0  2  0  0  0  0  0  0  0  0  0
   -3.2359   30.7599   -5.2080 N   0  0  0  0  0  0  0  0  0  0  0  0
   -2.7067   35.5899   -7.3012 C   0  0  1  0  0  0  0  0  0  0  0  0
   -1.8427   36.5591   -7.8980 O   0  0  0  0  0  0  0  0  0  0  0  0
    1.6718   33.0007   -8.7667 C   0  0  2  0  0  0  0  0  0  0  0  0
    2.7591   32.8176   -9.6381 O   0  0  0  0  0  0  0  0  0  0  0  0
   -2.5851   32.7659   -3.9669 C   0  0  1  0  0  0  0  0  0  0  0  0
   -2.9303   33.5025   -5.1297 O   0  0  0  0  0  0  0  0  0  0  0  0
   -3.1774   36.1172   -6.0143 C   0  0  1  0  0  0  0  0  0  0  0  0
   -2.2028   35.6688   -5.0805 O   0  0  0  0  0  0  0  0  0  0  0  0
    1.2282   31.6656   -8.2290 C   0  0  1  0  0  0  0  0  0  0  0  0
    2.1792   31.2060   -7.3142 O   0  0  0  0  0  0  0  0  0  0  0  0
   -2.8354   33.6081   -2.6836 C   0  0  2  0  0  0  0  0  0  0  0  0
   -2.0354   34.7885   -2.7290 O   0  0  0  0  0  0  0  0  0  0  0  0
   -0.0725   31.8162   -7.5164 C   0  0  1  0  0  0  0  0  0  0  0  0
   -1.0169   32.2725   -8.4412 O   0  0  0  0  0  0  0  0  0  0  0  0
   -2.4465   32.7740   -1.4450 C   0  0  1  0  0  0  0  0  0  0  0  0
   -2.6700   33.5362   -0.2474 O   0  0  0  0  0  0  0  0  0  0  0  0
   -0.5708   30.4646   -6.9676 C   0  0  0  0  0  0  0  0  0  0  0  0
    0.2392   30.0811   -5.8623 O   0  0  0  0  0  0  0  0  0  0  0  0
   -4.5008   29.1654    0.3708 N   0  0  0  0  0  0  0  0  0  0  0  0
   -5.0178   31.1028   -6.3922 N   0  0  0  0  0  0  0  0  0  0  0  0
  1  2  1  0  0  0  0
  1 39  1  0  0  0  0
  3  4  1  0  0  0  0
  5  6  1  0  0  0  0
  5 40  1  0  0  0  0
  9 10  1  1  0  0  0
  9 14  1  0  0  0  0
  9 35  1  0  0  0  0
 10  1  1  0  0  0  0
 11 16  1  0  0  0  0
 11 28  1  0  0  0  0
 11 26  1  1  0  0  0
 12 17  1  0  0  0  0
 12 34  1  0  0  0  0
 12 13  1  1  0  0  0
 14 15  1  1  0  0  0
 14 19  1  0  0  0  0
 16 13  1  6  0  0  0
 16 21  1  0  0  0  0
 17 18  1  1  0  0  0
 17 23  1  0  0  0  0
 18  8  1  0  0  0  0
 19 20  1  6  0  0  0
 19 25  1  0  0  0  0
 20  5  1  0  0  0  0
 21  3  1  6  0  0  0
 21 22  1  0  0  0  0
 21 27  1  0  0  0  0
 23 24  1  6  0  0  0
 23 29  1  0  0  0  0
 25 26  1  6  0  0  0
 25 31  1  0  0  0  0
 27  7  1  6  0  0  0
 27 28  1  0  0  0  0
 29 30  1  1  0  0  0
 29 33  1  0  0  0  0
 31 32  1  6  0  0  0
 31 35  1  0  0  0  0
 33 34  1  0  0  0  0
 33 37  1  6  0  0  0
 35 36  1  1  0  0  0
 37 38  1  0  0  0  0
M  END
>  <CHROM.1>
-109.40301443,-85.28986547,144.83026564,168.94422455,145.27836881,-118.79449905
100.92219553,-95.61788530,-61.48352661,-156.54603215,71.98037858,-1.95186986
32.82777184,-5.51400337,-2.30776597,0.92922715,-0.57809001

>  <Name>
1nta_lig

>  <RI>
0

>  <Rbt.Current_Directory>
/home/itssahil/PROJECTS/Mol_Feturizer/New_Systems/rnas/1nta

>  <Rbt.Executable>
rbdock ($Id: //depot/dev/client3/rdock/2013.1/src/exe/rbdock.cxx#4 $)

>  <Rbt.Library>
libRbt.so (2013.1, Build901 2013/11/27)

>  <Rbt.Parameter_File>
/export/apps/rDock/src/rDock_2013.1_src/data/scripts/dock_solv.prm

>  <Rbt.Receptor>
prm/pocket_docking_8.prm

>  <SCORE>
-21.1617

>  <SCORE.INTER>
-0.375483

>  <SCORE.INTER.CONST>
1

>  <SCORE.INTER.POLAR>
-0.770578

>  <SCORE.INTER.ROT>
11

>  <SCORE.INTER.SOLV>
8.41219

>  <SCORE.INTER.VDW>
-11.4191

>  <SCORE.INTER.norm>
-0.00938708

>  <SCORE.INTRA>
-20.7862

>  <SCORE.INTRA.DIHEDRAL>
-2.01051

>  <SCORE.INTRA.DIHEDRAL.0>
19.0336

>  <SCORE.INTRA.POLAR>
0

>  <SCORE.INTRA.POLAR.0>
0

>  <SCORE.INTRA.REPUL>
0

>  <SCORE.INTRA.REPUL.0>
0

>  <SCORE.INTRA.SOLV>
-4.02796

>  <SCORE.INTRA.SOLV.lig_0>
-97.5861

>  <SCORE.INTRA.VDW>
-17.767

>  <SCORE.INTRA.VDW.0>
11.7669

>  <SCORE.INTRA.norm>
-0.519656

>  <SCORE.RESTR>
0

>  <SCORE.RESTR.CAVITY>
0

>  <SCORE.RESTR.norm>
0

>  <SCORE.SYSTEM>
0

>  <SCORE.SYSTEM.CONST>
0

>  <SCORE.SYSTEM.DIHEDRAL>
0

>  <SCORE.SYSTEM.SOLV>
0

>  <SCORE.SYSTEM.norm>
0

>  <SCORE.heavy>
40

>  <SCORE.norm>
-0.529043

>  <RMSD>
9.818

$$$$
1nta_lig
 OpenBabel11021811403D
libRbt.so/2013.1/901 2013/11/27
 40 42  0  0  0  0  0  0  0  0999 V2000
   -0.5054   42.8567   -3.5741 C   0  0  0  0  0  0  0  0  0  0  0  0
    0.5620   43.4162   -3.1407 N   0  0  0  0  0  0  0  0  0  0  0  0
   -0.1033   37.1710  -11.8947 C   0  0  0  0  0  0  0  0  0  0  0  0
   -0.0083   37.5603  -13.0378 O   0  0  0  0  0  0  0  0  0  0  0  0
   -3.3280   39.4886   -8.2368 C   0  0  0  0  0  0  0  0  0  0  0  0
   -3.0265   39.8756   -9.4489 N   0  0  0  0  0  0  0  0  0  0  0  0
    2.8044   38.7595  -11.6062 C   0  0  0  0  0  0  0  0  0  0  0  0
    0.5921   33.3908  -12.4986 C   0  0  0  0  0  0  0  0  0  0  0  0
   -0.3070   41.1116   -5.1602 C   0  0  2  0  0  0  0  0  0  0  0  0
   -0.4443   41.5408   -3.7124 N   0  0  0  0  0  0  0  0  0  0  0  0
    1.0744   37.5923   -8.6847 C   0  0  2  0  0  0  0  0  0  0  0  0
   -0.0619   34.3673   -9.6269 C   0  0  1  0  0  0  0  0  0  0  0  0
    0.8577   35.3247   -9.2325 O   0  0  0  0  0  0  0  0  0  0  0  0
   -1.4970   40.2202   -5.5628 C   0  0  1  0  0  0  0  0  0  0  0  0
   -2.6488   41.0021   -5.4629 O   0  0  0  0  0  0  0  0  0  0  0  0
    0.5399   36.5390   -9.6491 C   0  0  2  0  0  0  0  0  0  0  0  0
    0.5295   33.1002  -10.2042 C   0  0  1  0  0  0  0  0  0  0  0  0
    1.3872   33.4488  -11.2835 N   0  0  0  0  0  0  0  0  0  0  0  0
   -1.3985   39.7357   -7.0155 C   0  0  2  0  0  0  0  0  0  0  0  0
   -2.5264   38.8703   -7.4363 N   0  0  0  0  0  0  0  0  0  0  0  0
    1.0446   37.0471  -10.9289 C   0  0  1  0  0  0  0  0  0  0  0  0
    2.0371   36.1271  -11.3880 O   0  0  0  0  0  0  0  0  0  0  0  0
    1.2641   32.4112   -9.2493 C   0  0  2  0  0  0  0  0  0  0  0  0
    1.5257   31.1275   -9.7580 O   0  0  0  0  0  0  0  0  0  0  0  0
   -0.0960   38.9663   -7.1683 C   0  0  1  0  0  0  0  0  0  0  0  0
   -0.0083   38.5239   -8.5138 O   0  0  0  0  0  0  0  0  0  0  0  0
    1.6873   38.3469  -10.6987 C   0  0  1  0  0  0  0  0  0  0  0  0
    2.1090   38.2876   -9.3416 O   0  0  0  0  0  0  0  0  0  0  0  0
    0.4800   32.2942   -7.9686 C   0  0  1  0  0  0  0  0  0  0  0  0
    1.3235   31.8171   -6.9620 O   0  0  0  0  0  0  0  0  0  0  0  0
    1.1114   39.8770   -6.8054 C   0  0  2  0  0  0  0  0  0  0  0  0
    2.3234   39.1414   -6.9648 O   0  0  0  0  0  0  0  0  0  0  0  0
   -0.0226   33.6371   -7.5609 C   0  0  1  0  0  0  0  0  0  0  0  0
   -0.8678   34.1031   -8.5728 O   0  0  0  0  0  0  0  0  0  0  0  0
    0.9797   40.3339   -5.3374 C   0  0  1  0  0  0  0  0  0  0  0  0
    2.0880   41.1767   -4.9821 O   0  0  0  0  0  0  0  0  0  0  0  0
   -0.8489   33.5557   -6.2621 C   0  0  0  0  0  0  0  0  0  0  0  0
   -1.2147   34.8700   -5.8571 O   0  0  0  0  0  0  0  0  0  0  0  0
   -1.5690   43.5259   -3.8624 N   0  0  0  0  0  0  0  0  0  0  0  0
   -4.4838   39.7411   -7.7607 N   0  0  0  0  0  0  0  0  0  0  0  0
  1  2  1  0  0  0  0
  1 39  1  0  0  0  0
  3  4  1  0  0  0  0
  5  6  1  0  0  0  0
  5 40  1  0  0  0  0
  9 10  1  1  0  0  0
  9 14  1  0  0  0  0
  9 35  1  0  0  0  0
 10  1  1  0  0  0  0
 11 16  1  0  0  0  0
 11 28  1  0  0  0  0
 11 26  1  6  0  0  0
 12 17  1  0  0  0  0
 12 34  1  0  0  0  0
 12 13  1  1  0  0  0
 14 15  1  6  0  0  0
 14 19  1  0  0  0  0
 16 13  1  1  0  0  0
 16 21  1  0  0  0  0
 17 18  1  6  0  0  0
 17 23  1  0  0  0  0
 18  8  1  0  0  0  0
 19 20  1  1  0  0  0
 19 25  1  0  0  0  0
 20  5  1  0  0  0  0
 21  3  1  6  0  0  0
 21 22  1  0  0  0  0
 21 27  1  0  0  0  0
 23 24  1  6  0  0  0
 23 29  1  0  0  0  0
 25 26  1  6  0  0  0
 25 31  1  0  0  0  0
 27  7  1  6  0  0  0
 27 28  1  0  0  0  0
 29 30  1  1  0  0  0
 29 33  1  0  0  0  0
 31 32  1  1  0  0  0
 31 35  1  0  0  0  0
 33 34  1  0  0  0  0
 33 37  1  1  0  0  0
 35 36  1  6  0  0  0
 37 38  1  0  0  0  0
M  END
>  <CHROM.1>
-120.07135584,-104.27259290,140.99184361,133.85648630,150.92747789,-92.80050654
106.88957934,67.06932333,-179.77861403,-169.85073136,175.39220787,0.06138242
37.46337439,-8.08770288,2.35596491,1.33265773,-0.21205914

>  <Name>
1nta_lig

>  <RI>
0

>  <Rbt.Current_Directory>
/home/itssahil/PROJECTS/Mol_Feturizer/New_Systems/rnas/1nta

>  <Rbt.Executable>
rbdock ($Id: //depot/dev/client3/rdock/2013.1/src/exe/rbdock.cxx#4 $)

>  <Rbt.Library>
libRbt.so (2013.1, Build901 2013/11/27)

>  <Rbt.Parameter_File>
/export/apps/rDock/src/rDock_2013.1_src/data/scripts/dock_solv.prm

>  <Rbt.Receptor>
prm/pocket_docking_8.prm

>  <SCORE>
-18.3215

>  <SCORE.INTER>
0.703352

>  <SCORE.INTER.CONST>
1

>  <SCORE.INTER.POLAR>
0

>  <SCORE.INTER.ROT>
11

>  <SCORE.INTER.SOLV>
5.89472

>  <SCORE.INTER.VDW>
-12.4293

>  <SCORE.INTER.norm>
0.0175838

>  <SCORE.INTRA>
-19.0311

>  <SCORE.INTRA.DIHEDRAL>
0.581621

>  <SCORE.INTRA.DIHEDRAL.0>
19.0336

>  <SCORE.INTRA.POLAR>
0

>  <SCORE.INTRA.POLAR.0>
0

>  <SCORE.INTRA.REPUL>
0

>  <SCORE.INTRA.REPUL.0>
0

>  <SCORE.INTRA.SOLV>
-4.92945

>  <SCORE.INTRA.SOLV.lig_0>
-97.5861

>  <SCORE.INTRA.VDW>
-16.8572

>  <SCORE.INTRA.VDW.0>
11.7669

>  <SCORE.INTRA.norm>
-0.475777

>  <SCORE.RESTR>
0.00622574

>  <SCORE.RESTR.CAVITY>
0.00622574

>  <SCORE.RESTR.norm>
0.000155644

>  <SCORE.SYSTEM>
0

>  <SCORE.SYSTEM.CONST>
0

>  <SCORE.SYSTEM.DIHEDRAL>
0

>  <SCORE.SYSTEM.SOLV>
0

>  <SCORE.SYSTEM.norm>
0

>  <SCORE.heavy>
40

>  <SCORE.norm>
-0.458037

>  <RMSD>
10.433

$$$$
1nta_lig
 OpenBabel11021811403D
libRbt.so/2013.1/901 2013/11/27
 40 42  0  0  0  0  0  0  0  0999 V2000
   -5.5126   42.1884   -2.1611 C   0  0  0  0  0  0  0  0  0  0  0  0
   -5.5414   41.8318   -3.3908 N   0  0  0  0  0  0  0  0  0  0  0  0
    2.9400   45.0012    2.3128 C   0  0  0  0  0  0  0  0  0  0  0  0
    2.3457   45.7017    1.5232 O   0  0  0  0  0  0  0  0  0  0  0  0
    0.1252   44.2527   -2.3976 C   0  0  0  0  0  0  0  0  0  0  0  0
   -0.8464   45.0699   -2.7104 N   0  0  0  0  0  0  0  0  0  0  0  0
    1.0574   44.0150    4.8711 C   0  0  0  0  0  0  0  0  0  0  0  0
    5.2981   42.1617   -1.6453 C   0  0  0  0  0  0  0  0  0  0  0  0
   -3.6431   42.2271   -0.7106 C   0  0  2  0  0  0  0  0  0  0  0  0
   -4.7605   41.4406   -1.3675 N   0  0  0  0  0  0  0  0  0  0  0  0
    0.9722   42.2284    1.7580 C   0  0  2  0  0  0  0  0  0  0  0  0
    3.1472   41.0815    0.3058 C   0  0  1  0  0  0  0  0  0  0  0  0
    3.2496   41.7296    1.5253 O   0  0  0  0  0  0  0  0  0  0  0  0
   -2.4104   42.2665   -1.6336 C   0  0  1  0  0  0  0  0  0  0  0  0
   -2.7845   42.9523   -2.7902 O   0  0  0  0  0  0  0  0  0  0  0  0
    2.4037   42.7400    1.6382 C   0  0  2  0  0  0  0  0  0  0  0  0
    4.4435   40.5299   -0.2454 C   0  0  1  0  0  0  0  0  0  0  0  0
    5.3942   41.5852   -0.3147 N   0  0  0  0  0  0  0  0  0  0  0  0
   -1.2367   43.0320   -1.0081 C   0  0  2  0  0  0  0  0  0  0  0  0
   -0.0303   43.0859   -1.8682 N   0  0  0  0  0  0  0  0  0  0  0  0
    2.4743   43.6503    2.7859 C   0  0  1  0  0  0  0  0  0  0  0  0
    3.3760   43.0710    3.7311 O   0  0  0  0  0  0  0  0  0  0  0  0
    4.9452   39.5242    0.5688 C   0  0  2  0  0  0  0  0  0  0  0  0
    5.9640   38.8685   -0.1432 O   0  0  0  0  0  0  0  0  0  0  0  0
   -0.8814   42.3571    0.3072 C   0  0  1  0  0  0  0  0  0  0  0  0
    0.2016   43.0708    0.8828 O   0  0  0  0  0  0  0  0  0  0  0  0
    1.1446   43.7334    3.4031 C   0  0  1  0  0  0  0  0  0  0  0  0
    0.5316   42.4940    3.0698 O   0  0  0  0  0  0  0  0  0  0  0  0
    3.8595   38.5392    0.9146 C   0  0  1  0  0  0  0  0  0  0  0  0
    4.3249   37.6841    1.9170 O   0  0  0  0  0  0  0  0  0  0  0  0
   -2.1112   42.3551    1.2592 C   0  0  2  0  0  0  0  0  0  0  0  0
   -1.7555   41.7279    2.4902 O   0  0  0  0  0  0  0  0  0  0  0  0
    2.6668   39.2660    1.4356 C   0  0  1  0  0  0  0  0  0  0  0  0
    2.2075   40.1152    0.4240 O   0  0  0  0  0  0  0  0  0  0  0  0
   -3.2634   41.5692    0.5989 C   0  0  1  0  0  0  0  0  0  0  0  0
   -4.4102   41.5550    1.4646 O   0  0  0  0  0  0  0  0  0  0  0  0
    1.5239   38.2915    1.7826 C   0  0  0  0  0  0  0  0  0  0  0  0
    0.3906   39.0348    2.2164 O   0  0  0  0  0  0  0  0  0  0  0  0
   -6.1735   43.2035   -1.7195 N   0  0  0  0  0  0  0  0  0  0  0  0
    1.3331   44.5840   -2.6376 N   0  0  0  0  0  0  0  0  0  0  0  0
  1  2  1  0  0  0  0
  1 39  1  0  0  0  0
  3  4  1  0  0  0  0
  5  6  1  0  0  0  0
  5 40  1  0  0  0  0
  9 10  1  6  0  0  0
  9 14  1  0  0  0  0
  9 35  1  0  0  0  0
 10  1  1  0  0  0  0
 11 16  1  0  0  0  0
 11 28  1  0  0  0  0
 11 26  1  6  0  0  0
 12 17  1  0  0  0  0
 12 34  1  0  0  0  0
 12 13  1  1  0  0  0
 14 15  1  6  0  0  0
 14 19  1  0  0  0  0
 16 13  1  1  0  0  0
 16 21  1  0  0  0  0
 17 18  1  1  0  0  0
 17 23  1  0  0  0  0
 18  8  1  0  0  0  0
 19 20  1  6  0  0  0
 19 25  1  0  0  0  0
 20  5  1  0  0  0  0
 21  3  1  6  0  0  0
 21 22  1  0  0  0  0
 21 27  1  0  0  0  0
 23 24  1  6  0  0  0
 23 29  1  0  0  0  0
 25 26  1  1  0  0  0
 25 31  1  0  0  0  0
 27  7  1  1  0  0  0
 27 28  1  0  0  0  0
 29 30  1  1  0  0  0
 29 33  1  0  0  0  0
 31 32  1  1  0  0  0
 31 35  1  0  0  0  0
 33 34  1  0  0  0  0
 33 37  1  6  0  0  0
 35 36  1  1  0  0  0
 37 38  1  0  0  0  0
M  END
>  <CHROM.1>
-86.60421395,119.58114567,147.53092876,146.16736371,70.21310846,-92.40381305
105.47771239,-30.69314242,62.23056852,-154.43833060,-177.38184165,0.55912573
41.97971330,0.45148600,3.13954965,-0.38068069,0.60067075

>  <Name>
1nta_lig

>  <RI>
0

>  <Rbt.Current_Directory>
/home/itssahil/PROJECTS/Mol_Feturizer/New_Systems/rnas/1nta

>  <Rbt.Executable>
rbdock ($Id: //depot/dev/client3/rdock/2013.1/src/exe/rbdock.cxx#4 $)

>  <Rbt.Library>
libRbt.so (2013.1, Build901 2013/11/27)

>  <Rbt.Parameter_File>
/export/apps/rDock/src/rDock_2013.1_src/data/scripts/dock_solv.prm

>  <Rbt.Receptor>
prm/pocket_docking_8.prm

>  <SCORE>
-14.2708

>  <SCORE.INTER>
5.98991

>  <SCORE.INTER.CONST>
1

>  <SCORE.INTER.POLAR>
0

>  <SCORE.INTER.ROT>
11

>  <SCORE.INTER.SOLV>
5.18461

>  <SCORE.INTER.VDW>
-8.66826

>  <SCORE.INTER.norm>
0.149748

>  <SCORE.INTRA>
-20.2607

>  <SCORE.INTRA.DIHEDRAL>
-4.13268

>  <SCORE.INTRA.DIHEDRAL.0>
19.0336

>  <SCORE.INTRA.POLAR>
0

>  <SCORE.INTRA.POLAR.0>
0

>  <SCORE.INTRA.REPUL>
0.0194508

>  <SCORE.INTRA.REPUL.0>
0

>  <SCORE.INTRA.SOLV>
-4.87112

>  <SCORE.INTRA.SOLV.lig_0>
-97.5861

>  <SCORE.INTRA.VDW>
-15.856

>  <SCORE.INTRA.VDW.0>
11.7669

>  <SCORE.INTRA.norm>
-0.506517

>  <SCORE.RESTR>
0

>  <SCORE.RESTR.CAVITY>
0

>  <SCORE.RESTR.norm>
0

>  <SCORE.SYSTEM>
0

>  <SCORE.SYSTEM.CONST>
0

>  <SCORE.SYSTEM.DIHEDRAL>
0

>  <SCORE.SYSTEM.SOLV>
0

>  <SCORE.SYSTEM.norm>
0

>  <SCORE.heavy>
40

>  <SCORE.norm>
-0.356769

>  <RMSD>
10.485

$$$$
1nta_lig
 OpenBabel11021811403D
libRbt.so/2013.1/901 2013/11/27
 40 42  0  0  0  0  0  0  0  0999 V2000
   17.2120   37.6059   -1.5436 C   0  0  0  0  0  0  0  0  0  0  0  0
   15.9634   37.3383   -1.4464 N   0  0  0  0  0  0  0  0  0  0  0  0
   21.5402   28.8825   -0.3204 C   0  0  0  0  0  0  0  0  0  0  0  0
   22.4327   28.1997    0.1319 O   0  0  0  0  0  0  0  0  0  0  0  0
   15.7879   32.4208   -1.1256 C   0  0  0  0  0  0  0  0  0  0  0  0
   16.0046   32.8442    0.0925 N   0  0  0  0  0  0  0  0  0  0  0  0
   20.4826   30.1189    2.5803 C   0  0  0  0  0  0  0  0  0  0  0  0
   21.7112   25.7801   -1.5134 C   0  0  0  0  0  0  0  0  0  0  0  0
   18.5049   35.6736   -1.1019 C   0  0  2  0  0  0  0  0  0  0  0  0
   17.9919   37.0250   -0.6442 N   0  0  0  0  0  0  0  0  0  0  0  0
   18.4659   30.4362   -0.3731 C   0  0  2  0  0  0  0  0  0  0  0  0
   18.6500   27.3699   -2.0524 C   0  0  1  0  0  0  0  0  0  0  0  0
   18.3021   28.1805   -0.9849 O   0  0  0  0  0  0  0  0  0  0  0  0
   17.3236   34.7200   -1.3630 C   0  0  1  0  0  0  0  0  0  0  0  0
   16.5793   35.2646   -2.4105 O   0  0  0  0  0  0  0  0  0  0  0  0
   19.1780   29.1485   -0.7732 C   0  0  2  0  0  0  0  0  0  0  0  0
   19.4305   26.1248   -1.6927 C   0  0  1  0  0  0  0  0  0  0  0  0
   20.5842   26.5080   -0.9549 N   0  0  0  0  0  0  0  0  0  0  0  0
   17.7857   33.3259   -1.8075 C   0  0  2  0  0  0  0  0  0  0  0  0
   16.6736   32.3794   -2.0634 N   0  0  0  0  0  0  0  0  0  0  0  0
   20.1754   29.0346    0.2960 C   0  0  1  0  0  0  0  0  0  0  0  0
   19.8154   27.9039    1.0921 O   0  0  0  0  0  0  0  0  0  0  0  0
   18.6667   25.2623   -0.9189 C   0  0  2  0  0  0  0  0  0  0  0  0
   19.3329   24.0256   -0.8765 O   0  0  0  0  0  0  0  0  0  0  0  0
   18.6833   32.7578   -0.7196 C   0  0  1  0  0  0  0  0  0  0  0  0
   19.1104   31.4707   -1.1373 O   0  0  0  0  0  0  0  0  0  0  0  0
   20.1036   30.2363    1.1365 C   0  0  1  0  0  0  0  0  0  0  0  0
   18.7632   30.6862    0.9813 O   0  0  0  0  0  0  0  0  0  0  0  0
   17.3028   25.0777   -1.5306 C   0  0  1  0  0  0  0  0  0  0  0  0
   16.4832   24.4079   -0.6185 O   0  0  0  0  0  0  0  0  0  0  0  0
   19.9013   33.6958   -0.4841 C   0  0  2  0  0  0  0  0  0  0  0  0
   20.7360   33.1413    0.5313 O   0  0  0  0  0  0  0  0  0  0  0  0
   16.6948   26.4083   -1.8173 C   0  0  1  0  0  0  0  0  0  0  0  0
   17.5204   27.0679   -2.7331 O   0  0  0  0  0  0  0  0  0  0  0  0
   19.3953   35.0811   -0.0303 C   0  0  1  0  0  0  0  0  0  0  0  0
   20.5073   35.9631    0.1937 O   0  0  0  0  0  0  0  0  0  0  0  0
   15.3032   26.2611   -2.4640 C   0  0  0  0  0  0  0  0  0  0  0  0
   14.3992   25.7156   -1.5100 O   0  0  0  0  0  0  0  0  0  0  0  0
   17.6825   38.3913   -2.4513 N   0  0  0  0  0  0  0  0  0  0  0  0
   14.6337   31.9849   -1.4484 N   0  0  0  0  0  0  0  0  0  0  0  0
  1  2  1  0  0  0  0
  1 39  1  0  0  0  0
  3  4  1  0  0  0  0
  5  6  1  0  0  0  0
  5 40  1  0  0  0  0
  9 10  1  1  0  0  0
  9 14  1  0  0  0  0
  9 35  1  0  0  0  0
 10  1  1  0  0  0  0
 11 16  1  0  0  0  0
 11 28  1  0  0  0  0
 11 26  1  6  0  0  0
 12 17  1  0  0  0  0
 12 34  1  0  0  0  0
 12 13  1  1  0  0  0
 14 15  1  6  0  0  0
 14 19  1  0  0  0  0
 16 13  1  1  0  0  0
 16 21  1  0  0  0  0
 17 18  1  1  0  0  0
 17 23  1  0  0  0  0
 18  8  1  0  0  0  0
 19 20  1  1  0  0  0
 19 25  1  0  0  0  0
 20  5  1  0  0  0  0
 21  3  1  6  0  0  0
 21 22  1  0  0  0  0
 21 27  1  0  0  0  0
 23 24  1  6  0  0  0
 23 29  1  0  0  0  0
 25 26  1  6  0  0  0
 25 31  1  0  0  0  0
 27  7  1  1  0  0  0
 27 28  1  0  0  0  0
 29 30  1  1  0  0  0
 29 33  1  0  0  0  0
 31 32  1  1  0  0  0
 31 35  1  0  0  0  0
 33 34  1  0  0  0  0
 33 37  1  6  0  0  0
 35 36  1  6  0  0  0
 37 38  1  0  0  0  0
M  END
>  <CHROM.1>
-60.45720402,90.04740484,-171.26497417,93.96283429,141.75924895,-133.80474442
-45.55555604,-22.51092140,-144.41628098,-107.95748148,67.85974536,18.41240917
30.53055158,-0.83144153,1.64472036,-0.38494445,0.02606160

>  <Name>
1nta_lig

>  <RI>
0

>  <Rbt.Current_Directory>
/home/itssahil/PROJECTS/Mol_Feturizer/New_Systems/rnas/1nta

>  <Rbt.Executable>
rbdock ($Id: //depot/dev/client3/rdock/2013.1/src/exe/rbdock.cxx#4 $)

>  <Rbt.Library>
libRbt.so (2013.1, Build901 2013/11/27)

>  <Rbt.Parameter_File>
/export/apps/rDock/src/rDock_2013.1_src/data/scripts/dock_solv.prm

>  <Rbt.Receptor>
prm/blind_docking_60.prm

>  <SCORE>
-9.05182

>  <SCORE.INTER>
-5.62568

>  <SCORE.INTER.CONST>
1

>  <SCORE.INTER.POLAR>
0

>  <SCORE.INTER.ROT>
11

>  <SCORE.INTER.SOLV>
29.4925

>  <SCORE.INTER.VDW>
-24.5146

>  <SCORE.INTER.norm>
-0.140642

>  <SCORE.INTRA>
-5.96349

>  <SCORE.INTRA.DIHEDRAL>
3.12725

>  <SCORE.INTRA.DIHEDRAL.0>
19.0336

>  <SCORE.INTRA.POLAR>
0

>  <SCORE.INTRA.POLAR.0>
0

>  <SCORE.INTRA.REPUL>
0

>  <SCORE.INTRA.REPUL.0>
0

>  <SCORE.INTRA.SOLV>
2.1522

>  <SCORE.INTRA.SOLV.lig_0>
-97.5861

>  <SCORE.INTRA.VDW>
-8.60322

>  <SCORE.INTRA.VDW.0>
11.7669

>  <SCORE.INTRA.norm>
-0.149087

>  <SCORE.RESTR>
2.53735

>  <SCORE.RESTR.CAVITY>
2.53735

>  <SCORE.RESTR.norm>
0.0634337

>  <SCORE.SYSTEM>
0

>  <SCORE.SYSTEM.CONST>
0

>  <SCORE.SYSTEM.DIHEDRAL>
0

>  <SCORE.SYSTEM.SOLV>
0

>  <SCORE.SYSTEM.norm>
0

>  <SCORE.heavy>
40

>  <SCORE.norm>
-0.226296

>  <RMSD>
18.514

$$$$
1nta_lig
 OpenBabel11021811403D
libRbt.so/2013.1/901 2013/11/27
 40 42  0  0  0  0  0  0  0  0999 V2000
   18.2869   24.5753   -2.0249 C   0  0  0  0  0  0  0  0  0  0  0  0
   18.7319   23.7651   -1.1385 N   0  0  0  0  0  0  0  0  0  0  0  0
   19.1129   32.6345    3.1622 C   0  0  0  0  0  0  0  0  0  0  0  0
   18.2277   31.9563    3.6352 O   0  0  0  0  0  0  0  0  0  0  0  0
   20.0479   26.4781    2.4369 C   0  0  0  0  0  0  0  0  0  0  0  0
   20.3028   25.1971    2.4994 N   0  0  0  0  0  0  0  0  0  0  0  0
   22.0998   31.2390    3.6009 C   0  0  0  0  0  0  0  0  0  0  0  0
   20.1209   36.2394    0.1216 C   0  0  0  0  0  0  0  0  0  0  0  0
   19.3909   26.6556   -1.7927 C   0  0  2  0  0  0  0  0  0  0  0  0
   19.1909   25.3722   -2.5749 N   0  0  0  0  0  0  0  0  0  0  0  0
   20.0504   30.3034    0.8053 C   0  0  2  0  0  0  0  0  0  0  0  0
   18.7789   33.4262   -0.3218 C   0  0  1  0  0  0  0  0  0  0  0  0
   19.7069   32.4117   -0.1570 O   0  0  0  0  0  0  0  0  0  0  0  0
   19.9838   26.3429   -0.4057 C   0  0  1  0  0  0  0  0  0  0  0  0
   21.2422   25.7767   -0.6146 O   0  0  0  0  0  0  0  0  0  0  0  0
   19.5183   31.7243    0.9570 C   0  0  2  0  0  0  0  0  0  0  0  0
   19.2214   34.5715   -1.2057 C   0  0  1  0  0  0  0  0  0  0  0  0
   20.4471   35.0876   -0.7024 N   0  0  0  0  0  0  0  0  0  0  0  0
   20.1863   27.6065    0.4411 C   0  0  2  0  0  0  0  0  0  0  0  0
   20.7518   27.3421    1.7859 N   0  0  0  0  0  0  0  0  0  0  0  0
   20.1643   32.1347    2.2081 C   0  0  1  0  0  0  0  0  0  0  0  0
   21.1180   33.1471    1.8799 O   0  0  0  0  0  0  0  0  0  0  0  0
   19.4138   34.1482   -2.5133 C   0  0  2  0  0  0  0  0  0  0  0  0
   19.5282   35.2939   -3.3191 O   0  0  0  0  0  0  0  0  0  0  0  0
   18.8381   28.2927    0.5935 C   0  0  1  0  0  0  0  0  0  0  0  0
   19.0317   29.4619    1.3741 O   0  0  0  0  0  0  0  0  0  0  0  0
   20.8833   30.9828    2.7664 C   0  0  1  0  0  0  0  0  0  0  0  0
   21.1859   30.1816    1.6308 O   0  0  0  0  0  0  0  0  0  0  0  0
   18.2410   33.3238   -2.9754 C   0  0  1  0  0  0  0  0  0  0  0  0
   18.5643   32.7163   -4.1915 O   0  0  0  0  0  0  0  0  0  0  0  0
   18.2565   28.6503   -0.8039 C   0  0  2  0  0  0  0  0  0  0  0  0
   16.9979   29.3018   -0.6399 O   0  0  0  0  0  0  0  0  0  0  0  0
   17.9539   32.2529   -1.9787 C   0  0  1  0  0  0  0  0  0  0  0  0
   17.6283   32.8715   -0.7677 O   0  0  0  0  0  0  0  0  0  0  0  0
   18.0593   27.3547   -1.6186 C   0  0  1  0  0  0  0  0  0  0  0  0
   17.5210   27.6642   -2.9145 O   0  0  0  0  0  0  0  0  0  0  0  0
   16.7447   31.3981   -2.4071 C   0  0  0  0  0  0  0  0  0  0  0  0
   17.0802   30.6684   -3.5818 O   0  0  0  0  0  0  0  0  0  0  0  0
   17.0426   24.6194   -2.3593 N   0  0  0  0  0  0  0  0  0  0  0  0
   19.0224   26.9492    3.0309 N   0  0  0  0  0  0  0  0  0  0  0  0
  1  2  1  0  0  0  0
  1 39  1  0  0  0  0
  3  4  1  0  0  0  0
  5  6  1  0  0  0  0
  5 40  1  0  0  0  0
  9 10  1  6  0  0  0
  9 14  1  0  0  0  0
  9 35  1  0  0  0  0
 10  1  1  0  0  0  0
 11 16  1  0  0  0  0
 11 28  1  0  0  0  0
 11 26  1  1  0  0  0
 12 17  1  0  0  0  0
 12 34  1  0  0  0  0
 12 13  1  6  0  0  0
 14 15  1  6  0  0  0
 14 19  1  0  0  0  0
 16 13  1  6  0  0  0
 16 21  1  0  0  0  0
 17 18  1  1  0  0  0
 17 23  1  0  0  0  0
 18  8  1  0  0  0  0
 19 20  1  1  0  0  0
 19 25  1  0  0  0  0
 20  5  1  0  0  0  0
 21  3  1  1  0  0  0
 21 22  1  0  0  0  0
 21 27  1  0  0  0  0
 23 24  1  6  0  0  0
 23 29  1  0  0  0  0
 25 26  1  1  0  0  0
 25 31  1  0  0  0  0
 27  7  1  6  0  0  0
 27 28  1  0  0  0  0
 29 30  1  6  0  0  0
 29 33  1  0  0  0  0
 31 32  1  1  0  0  0
 31 35  1  0  0  0  0
 33 34  1  0  0  0  0
 33 37  1  6  0  0  0
 35 36  1  6  0  0  0
 37 38  1  0  0  0  0
M  END
>  <CHROM.1>
65.05635643,-87.70871939,139.15840508,156.08530776,152.94001248,-96.89691451
-54.48700313,96.09425991,64.65144218,54.62157362,66.66724511,19.21121807
30.05500951,-0.21367320,1.64866821,1.15812847,3.04552023

>  <Name>
1nta_lig

>  <RI>
0

>  <Rbt.Current_Directory>
/home/itssahil/PROJECTS/Mol_Feturizer/New_Systems/rnas/1nta

>  <Rbt.Executable>
rbdock ($Id: //depot/dev/client3/rdock/2013.1/src/exe/rbdock.cxx#4 $)

>  <Rbt.Library>
libRbt.so (2013.1, Build901 2013/11/27)

>  <Rbt.Parameter_File>
/export/apps/rDock/src/rDock_2013.1_src/data/scripts/dock_solv.prm

>  <Rbt.Receptor>
prm/blind_docking_60.prm

>  <SCORE>
-12.9486

>  <SCORE.INTER>
-3.70203

>  <SCORE.INTER.CONST>
1

>  <SCORE.INTER.POLAR>
-1.09545

>  <SCORE.INTER.ROT>
11

>  <SCORE.INTER.SOLV>
14.5297

>  <SCORE.INTER.VDW>
-14.5931

>  <SCORE.INTER.norm>
-0.0925507

>  <SCORE.INTRA>
-14.6123

>  <SCORE.INTRA.DIHEDRAL>
-5.60517

>  <SCORE.INTRA.DIHEDRAL.0>
19.0336

>  <SCORE.INTRA.POLAR>
0

>  <SCORE.INTRA.POLAR.0>
0

>  <SCORE.INTRA.REPUL>
0

>  <SCORE.INTRA.REPUL.0>
0

>  <SCORE.INTRA.SOLV>
1.85346

>  <SCORE.INTRA.SOLV.lig_0>
-97.5861

>  <SCORE.INTRA.VDW>
-12.7365

>  <SCORE.INTRA.VDW.0>
11.7669

>  <SCORE.INTRA.norm>
-0.365308

>  <SCORE.RESTR>
5.36576

>  <SCORE.RESTR.CAVITY>
5.36576

>  <SCORE.RESTR.norm>
0.134144

>  <SCORE.SYSTEM>
0

>  <SCORE.SYSTEM.CONST>
0

>  <SCORE.SYSTEM.DIHEDRAL>
0

>  <SCORE.SYSTEM.SOLV>
0

>  <SCORE.SYSTEM.norm>
0

>  <SCORE.heavy>
40

>  <SCORE.norm>
-0.323715

>  <RMSD>
18.727

$$$$
1nta_lig
 OpenBabel11021811403D
libRbt.so/2013.1/901 2013/11/27
 40 42  0  0  0  0  0  0  0  0999 V2000
   18.7980   22.6225   -1.4335 C   0  0  0  0  0  0  0  0  0  0  0  0
   17.9298   22.1000   -0.6504 N   0  0  0  0  0  0  0  0  0  0  0  0
   18.7518   31.7964    2.6227 C   0  0  0  0  0  0  0  0  0  0  0  0
   17.8442   32.5639    2.3892 O   0  0  0  0  0  0  0  0  0  0  0  0
   17.9902   28.2910   -2.3845 C   0  0  0  0  0  0  0  0  0  0  0  0
   17.7183   29.2566   -3.2232 N   0  0  0  0  0  0  0  0  0  0  0  0
   21.9778   31.2276    3.1978 C   0  0  0  0  0  0  0  0  0  0  0  0
   16.3616   29.4993   -0.1383 C   0  0  0  0  0  0  0  0  0  0  0  0
   19.3517   24.5873   -0.2362 C   0  0  2  0  0  0  0  0  0  0  0  0
   19.7903   23.2662   -0.8371 N   0  0  0  0  0  0  0  0  0  0  0  0
   20.3407   29.7174    0.3818 C   0  0  2  0  0  0  0  0  0  0  0  0
   18.5341   31.2403   -1.5707 C   0  0  1  0  0  0  0  0  0  0  0  0
   19.5055   31.6383   -0.6677 O   0  0  0  0  0  0  0  0  0  0  0  0
   19.4336   25.7032   -1.2950 C   0  0  1  0  0  0  0  0  0  0  0  0
   18.5272   25.3787   -2.3054 O   0  0  0  0  0  0  0  0  0  0  0  0
   19.4578   30.9578    0.4654 C   0  0  2  0  0  0  0  0  0  0  0  0
   17.1054   31.4565   -1.1225 C   0  0  1  0  0  0  0  0  0  0  0  0
   16.9198   30.8135    0.1322 N   0  0  0  0  0  0  0  0  0  0  0  0
   19.0224   27.0713   -0.7345 C   0  0  2  0  0  0  0  0  0  0  0  0
   19.0939   28.1710   -1.7263 N   0  0  0  0  0  0  0  0  0  0  0  0
   19.9307   31.5561    1.7181 C   0  0  1  0  0  0  0  0  0  0  0  0
   20.6054   32.7694    1.3797 O   0  0  0  0  0  0  0  0  0  0  0  0
   16.8249   32.8084   -0.9819 C   0  0  2  0  0  0  0  0  0  0  0  0
   15.4314   32.9434   -0.8590 O   0  0  0  0  0  0  0  0  0  0  0  0
   19.9373   27.3953    0.4359 C   0  0  1  0  0  0  0  0  0  0  0  0
   19.5505   28.6592    0.9523 O   0  0  0  0  0  0  0  0  0  0  0  0
   20.8990   30.6438    2.3392 C   0  0  1  0  0  0  0  0  0  0  0  0
   21.4381   29.9149    1.2433 O   0  0  0  0  0  0  0  0  0  0  0  0
   17.2991   33.5708   -2.1912 C   0  0  1  0  0  0  0  0  0  0  0  0
   17.2251   34.9400   -1.9224 O   0  0  0  0  0  0  0  0  0  0  0  0
   19.8239   26.2932    1.5273 C   0  0  2  0  0  0  0  0  0  0  0  0
   20.6806   26.6200    2.6203 O   0  0  0  0  0  0  0  0  0  0  0  0
   18.7207   33.2262   -2.4787 C   0  0  1  0  0  0  0  0  0  0  0  0
   18.7825   31.8558   -2.7497 O   0  0  0  0  0  0  0  0  0  0  0  0
   20.2543   24.9382    0.9275 C   0  0  1  0  0  0  0  0  0  0  0  0
   20.1574   23.9056    1.9221 O   0  0  0  0  0  0  0  0  0  0  0  0
   19.2376   33.9729   -3.7243 C   0  0  0  0  0  0  0  0  0  0  0  0
   18.6038   33.4440   -4.8834 O   0  0  0  0  0  0  0  0  0  0  0  0
   18.7133   22.5350   -2.7170 N   0  0  0  0  0  0  0  0  0  0  0  0
   17.1180   27.3901   -2.1519 N   0  0  0  0  0  0  0  0  0  0  0  0
  1  2  1  0  0  0  0
  1 39  1  0  0  0  0
  3  4  1  0  0  0  0
  5  6  1  0  0  0  0
  5 40  1  0  0  0  0
  9 10  1  6  0  0  0
  9 14  1  0  0  0  0
  9 35  1  0  0  0  0
 10  1  1  0  0  0  0
 11 16  1  0  0  0  0
 11 28  1  0  0  0  0
 11 26  1  1  0  0  0
 12 17  1  0  0  0  0
 12 34  1  0  0  0  0
 12 13  1  1  0  0  0
 14 15  1  6  0  0  0
 14 19  1  0  0  0  0
 16 13  1  6  0  0  0
 16 21  1  0  0  0  0
 17 18  1  1  0  0  0
 17 23  1  0  0  0  0
 18  8  1  0  0  0  0
 19 20  1  6  0  0  0
 19 25  1  0  0  0  0
 20  5  1  0  0  0  0
 21  3  1  1  0  0  0
 21 22  1  0  0  0  0
 21 27  1  0  0  0  0
 23 24  1  6  0  0  0
 23 29  1  0  0  0  0
 25 26  1  1  0  0  0
 25 31  1  0  0  0  0
 27  7  1  6  0  0  0
 27 28  1  0  0  0  0
 29 30  1  1  0  0  0
 29 33  1  0  0  0  0
 31 32  1  1  0  0  0
 31 35  1  0  0  0  0
 33 34  1  0  0  0  0
 33 37  1  6  0  0  0
 35 36  1  1  0  0  0
 37 38  1  0  0  0  0
M  END
>  <CHROM.1>
-86.70281500,-72.61581163,153.89320941,62.93644631,90.09139763,-95.32407253
88.42704647,172.70769253,-64.46631562,-94.61810138,-69.97061771,18.89269335
29.22668296,-0.45760736,1.31584555,1.08228396,-3.00182272

>  <Name>
1nta_lig

>  <RI>
0

>  <Rbt.Current_Directory>
/home/itssahil/PROJECTS/Mol_Feturizer/New_Systems/rnas/1nta

>  <Rbt.Executable>
rbdock ($Id: //depot/dev/client3/rdock/2013.1/src/exe/rbdock.cxx#4 $)

>  <Rbt.Library>
libRbt.so (2013.1, Build901 2013/11/27)

>  <Rbt.Parameter_File>
/export/apps/rDock/src/rDock_2013.1_src/data/scripts/dock_solv.prm

>  <Rbt.Receptor>
prm/blind_docking_60.prm

>  <SCORE>
-14.179

>  <SCORE.INTER>
-6.86065

>  <SCORE.INTER.CONST>
1

>  <SCORE.INTER.POLAR>
-1.2551

>  <SCORE.INTER.ROT>
11

>  <SCORE.INTER.SOLV>
18.4645

>  <SCORE.INTER.VDW>
-17.4783

>  <SCORE.INTER.norm>
-0.171516

>  <SCORE.INTRA>
-9.98926

>  <SCORE.INTRA.DIHEDRAL>
-4.12906

>  <SCORE.INTRA.DIHEDRAL.0>
19.0336

>  <SCORE.INTRA.POLAR>
0

>  <SCORE.INTRA.POLAR.0>
0

>  <SCORE.INTRA.REPUL>
0

>  <SCORE.INTRA.REPUL.0>
0

>  <SCORE.INTRA.SOLV>
6.19609

>  <SCORE.INTRA.SOLV.lig_0>
-97.5861

>  <SCORE.INTRA.VDW>
-11.0228

>  <SCORE.INTRA.VDW.0>
11.7669

>  <SCORE.INTRA.norm>
-0.249731

>  <SCORE.RESTR>
2.67095

>  <SCORE.RESTR.CAVITY>
2.67095

>  <SCORE.RESTR.norm>
0.0667738

>  <SCORE.SYSTEM>
0

>  <SCORE.SYSTEM.CONST>
0

>  <SCORE.SYSTEM.DIHEDRAL>
0

>  <SCORE.SYSTEM.SOLV>
0

>  <SCORE.SYSTEM.norm>
0

>  <SCORE.heavy>
40

>  <SCORE.norm>
-0.354474

>  <RMSD>
18.754

$$$$
1nta_lig
 OpenBabel11021811403D
libRbt.so/2013.1/901 2013/11/27
 40 42  0  0  0  0  0  0  0  0999 V2000
   19.2129   35.2783   -0.3633 C   0  0  0  0  0  0  0  0  0  0  0  0
   20.1555   35.3802    0.4977 N   0  0  0  0  0  0  0  0  0  0  0  0
   15.9736   26.3980   -1.6092 C   0  0  0  0  0  0  0  0  0  0  0  0
   15.6494   25.3149   -1.1742 O   0  0  0  0  0  0  0  0  0  0  0  0
   20.1311   30.6449    1.2694 C   0  0  0  0  0  0  0  0  0  0  0  0
   20.6773   30.1652    0.1825 N   0  0  0  0  0  0  0  0  0  0  0  0
   17.5635   27.6604   -4.2435 C   0  0  0  0  0  0  0  0  0  0  0  0
   18.9701   22.9087   -0.9585 C   0  0  0  0  0  0  0  0  0  0  0  0
   17.4710   33.7570    0.1383 C   0  0  2  0  0  0  0  0  0  0  0  0
   17.9904   35.1814    0.1376 N   0  0  0  0  0  0  0  0  0  0  0  0
   18.4675   28.6724   -0.9195 C   0  0  2  0  0  0  0  0  0  0  0  0
   18.4461   25.4702    0.6999 C   0  0  1  0  0  0  0  0  0  0  0  0
   18.9283   26.5766    0.0209 O   0  0  0  0  0  0  0  0  0  0  0  0
   18.4483   32.8379    0.8953 C   0  0  1  0  0  0  0  0  0  0  0  0
   18.4810   33.2748    2.2204 O   0  0  0  0  0  0  0  0  0  0  0  0
   17.9681   27.2776   -0.5585 C   0  0  2  0  0  0  0  0  0  0  0  0
   19.4140   24.3142    0.8247 C   0  0  1  0  0  0  0  0  0  0  0  0
   19.8599   23.9515   -0.4759 N   0  0  0  0  0  0  0  0  0  0  0  0
   17.9837   31.3754    0.9079 C   0  0  2  0  0  0  0  0  0  0  0  0
   18.9041   30.4606    1.6248 N   0  0  0  0  0  0  0  0  0  0  0  0
   17.3928   26.8451   -1.8364 C   0  0  1  0  0  0  0  0  0  0  0  0
   18.2162   25.7893   -2.3358 O   0  0  0  0  0  0  0  0  0  0  0  0
   20.5131   24.6637    1.5967 C   0  0  2  0  0  0  0  0  0  0  0  0
   21.2045   23.4817    1.9128 O   0  0  0  0  0  0  0  0  0  0  0  0
   17.8441   30.9129   -0.5338 C   0  0  1  0  0  0  0  0  0  0  0  0
   17.4111   29.5617   -0.5163 O   0  0  0  0  0  0  0  0  0  0  0  0
   17.4510   27.9666   -2.7822 C   0  0  1  0  0  0  0  0  0  0  0  0
   18.5481   28.7474   -2.3243 O   0  0  0  0  0  0  0  0  0  0  0  0
   20.0680   25.3406    2.8665 C   0  0  1  0  0  0  0  0  0  0  0  0
   21.1836   25.8915    3.5023 O   0  0  0  0  0  0  0  0  0  0  0  0
   16.8242   31.8113   -1.2897 C   0  0  2  0  0  0  0  0  0  0  0  0
   16.6993   31.3557   -2.6359 O   0  0  0  0  0  0  0  0  0  0  0  0
   19.1202   26.4450    2.5434 C   0  0  1  0  0  0  0  0  0  0  0  0
   18.0068   25.8824    1.9114 O   0  0  0  0  0  0  0  0  0  0  0  0
   17.3319   33.2685   -1.2879 C   0  0  1  0  0  0  0  0  0  0  0  0
   16.4024   34.1153   -1.9834 O   0  0  0  0  0  0  0  0  0  0  0  0
   18.6253   27.1507    3.8213 C   0  0  0  0  0  0  0  0  0  0  0  0
   17.4872   27.9449    3.5064 O   0  0  0  0  0  0  0  0  0  0  0  0
   19.4345   35.2655   -1.6333 N   0  0  0  0  0  0  0  0  0  0  0  0
   20.8341   31.3340    2.0803 N   0  0  0  0  0  0  0  0  0  0  0  0
  1  2  1  0  0  0  0
  1 39  1  0  0  0  0
  3  4  1  0  0  0  0
  5  6  1  0  0  0  0
  5 40  1  0  0  0  0
  9 10  1  6  0  0  0
  9 14  1  0  0  0  0
  9 35  1  0  0  0  0
 10  1  1  0  0  0  0
 11 16  1  0  0  0  0
 11 28  1  0  0  0  0
 11 26  1  6  0  0  0
 12 17  1  0  0  0  0
 12 34  1  0  0  0  0
 12 13  1  1  0  0  0
 14 15  1  1  0  0  0
 14 19  1  0  0  0  0
 16 13  1  6  0  0  0
 16 21  1  0  0  0  0
 17 18  1  6  0  0  0
 17 23  1  0  0  0  0
 18  8  1  0  0  0  0
 19 20  1  1  0  0  0
 19 25  1  0  0  0  0
 20  5  1  0  0  0  0
 21  3  1  1  0  0  0
 21 22  1  0  0  0  0
 21 27  1  0  0  0  0
 23 24  1  1  0  0  0
 23 29  1  0  0  0  0
 25 26  1  1  0  0  0
 25 31  1  0  0  0  0
 27  7  1  6  0  0  0
 27 28  1  0  0  0  0
 29 30  1  6  0  0  0
 29 33  1  0  0  0  0
 31 32  1  6  0  0  0
 31 35  1  0  0  0  0
 33 34  1  0  0  0  0
 33 37  1  1  0  0  0
 35 36  1  6  0  0  0
 37 38  1  0  0  0  0
M  END
>  <CHROM.1>
55.71043481,-101.12054827,167.80752579,152.64389601,162.85944996,-92.20475186
-47.41937160,-80.33374650,-80.29346447,-108.10260477,-165.13061833,18.52037217
28.96481501,0.08866646,-1.75303772,1.06805623,-3.09815566

>  <Name>
1nta_lig

>  <RI>
0

>  <Rbt.Current_Directory>
/home/itssahil/PROJECTS/Mol_Feturizer/New_Systems/rnas/1nta

>  <Rbt.Executable>
rbdock ($Id: //depot/dev/client3/rdock/2013.1/src/exe/rbdock.cxx#4 $)

>  <Rbt.Library>
libRbt.so (2013.1, Build901 2013/11/27)

>  <Rbt.Parameter_File>
/export/apps/rDock/src/rDock_2013.1_src/data/scripts/dock_solv.prm

>  <Rbt.Receptor>
prm/blind_docking_60.prm

>  <SCORE>
-10.1906

>  <SCORE.INTER>
1.64075

>  <SCORE.INTER.CONST>
1

>  <SCORE.INTER.POLAR>
-0.38242

>  <SCORE.INTER.ROT>
11

>  <SCORE.INTER.SOLV>
17.1893

>  <SCORE.INTER.VDW>
-14.2945

>  <SCORE.INTER.norm>
0.0410187

>  <SCORE.INTRA>
-16.3911

>  <SCORE.INTRA.DIHEDRAL>
-3.11085

>  <SCORE.INTRA.DIHEDRAL.0>
19.0336

>  <SCORE.INTRA.POLAR>
0

>  <SCORE.INTRA.POLAR.0>
0

>  <SCORE.INTRA.REPUL>
0

>  <SCORE.INTRA.REPUL.0>
0

>  <SCORE.INTRA.SOLV>
1.82005

>  <SCORE.INTRA.SOLV.lig_0>
-97.5861

>  <SCORE.INTRA.VDW>
-15.7457

>  <SCORE.INTRA.VDW.0>
11.7669

>  <SCORE.INTRA.norm>
-0.409778

>  <SCORE.RESTR>
4.55976

>  <SCORE.RESTR.CAVITY>
4.55976

>  <SCORE.RESTR.norm>
0.113994

>  <SCORE.SYSTEM>
0

>  <SCORE.SYSTEM.CONST>
0

>  <SCORE.SYSTEM.DIHEDRAL>
0

>  <SCORE.SYSTEM.SOLV>
0

>  <SCORE.SYSTEM.norm>
0

>  <SCORE.heavy>
40

>  <SCORE.norm>
-0.254765

>  <RMSD>
18.786

$$$$
1nta_lig
 OpenBabel11021811403D
libRbt.so/2013.1/901 2013/11/27
 40 42  0  0  0  0  0  0  0  0999 V2000
   18.4328   22.3517   -1.3937 C   0  0  0  0  0  0  0  0  0  0  0  0
   18.4721   21.2854   -0.6856 N   0  0  0  0  0  0  0  0  0  0  0  0
   20.9853   30.6441    1.7662 C   0  0  0  0  0  0  0  0  0  0  0  0
   20.8581   31.8001    2.1051 O   0  0  0  0  0  0  0  0  0  0  0  0
   20.3229   26.2939    2.5813 C   0  0  0  0  0  0  0  0  0  0  0  0
   21.3104   27.1509    2.5661 N   0  0  0  0  0  0  0  0  0  0  0  0
   22.3320   28.1271    0.0597 C   0  0  0  0  0  0  0  0  0  0  0  0
   17.3632   33.4282    2.1184 C   0  0  0  0  0  0  0  0  0  0  0  0
   17.9874   24.6201   -0.8868 C   0  0  2  0  0  0  0  0  0  0  0  0
   17.4711   23.2080   -1.0830 N   0  0  0  0  0  0  0  0  0  0  0  0
   18.9233   29.0952   -0.5179 C   0  0  2  0  0  0  0  0  0  0  0  0
   17.9732   31.9229   -0.9874 C   0  0  1  0  0  0  0  0  0  0  0  0
   19.2368   31.3584   -1.0359 O   0  0  0  0  0  0  0  0  0  0  0  0
   18.2923   24.8697    0.6024 C   0  0  1  0  0  0  0  0  0  0  0  0
   19.3159   23.9929    0.9652 O   0  0  0  0  0  0  0  0  0  0  0  0
   19.4327   30.4644   -0.0811 C   0  0  2  0  0  0  0  0  0  0  0  0
   17.8497   33.1616   -0.1277 C   0  0  1  0  0  0  0  0  0  0  0  0
   18.3147   32.8556    1.1809 N   0  0  0  0  0  0  0  0  0  0  0  0
   18.7975   26.2948    0.8642 C   0  0  2  0  0  0  0  0  0  0  0  0
   19.0968   26.5720    2.2895 N   0  0  0  0  0  0  0  0  0  0  0  0
   20.7895   30.1309    0.3648 C   0  0  1  0  0  0  0  0  0  0  0  0
   21.6987   30.7311   -0.5600 O   0  0  0  0  0  0  0  0  0  0  0  0
   18.6067   34.2048   -0.6424 C   0  0  2  0  0  0  0  0  0  0  0  0
   18.2167   35.3811    0.0203 O   0  0  0  0  0  0  0  0  0  0  0  0
   17.7345   27.2680    0.3797 C   0  0  1  0  0  0  0  0  0  0  0  0
   18.2081   28.5838    0.6208 O   0  0  0  0  0  0  0  0  0  0  0  0
   20.9598   28.6739    0.3044 C   0  0  1  0  0  0  0  0  0  0  0  0
   20.0438   28.2609   -0.7023 O   0  0  0  0  0  0  0  0  0  0  0  0
   18.3572   34.3542   -2.1202 C   0  0  1  0  0  0  0  0  0  0  0  0
   19.2986   35.2390   -2.6523 O   0  0  0  0  0  0  0  0  0  0  0  0
   17.4558   27.0489   -1.1346 C   0  0  2  0  0  0  0  0  0  0  0  0
   16.4646   27.9769   -1.5723 O   0  0  0  0  0  0  0  0  0  0  0  0
   18.5208   33.0348   -2.7948 C   0  0  1  0  0  0  0  0  0  0  0  0
   17.5722   32.1590   -2.2579 O   0  0  0  0  0  0  0  0  0  0  0  0
   16.9418   25.6105   -1.3535 C   0  0  1  0  0  0  0  0  0  0  0  0
   16.6773   25.3883   -2.7483 O   0  0  0  0  0  0  0  0  0  0  0  0
   18.2533   33.1426   -4.3091 C   0  0  0  0  0  0  0  0  0  0  0  0
   19.3588   33.7838   -4.9351 O   0  0  0  0  0  0  0  0  0  0  0  0
   19.2681   22.5788   -2.3491 N   0  0  0  0  0  0  0  0  0  0  0  0
   20.5476   25.0744    2.8792 N   0  0  0  0  0  0  0  0  0  0  0  0
  1  2  1  0  0  0  0
  1 39  1  0  0  0  0
  3  4  1  0  0  0  0
  5  6  1  0  0  0  0
  5 40  1  0  0  0  0
  9 10  1  1  0  0  0
  9 14  1  0  0  0  0
  9 35  1  0  0  0  0
 10  1  1  0  0  0  0
 11 16  1  0  0  0  0
 11 28  1  0  0  0  0
 11 26  1  1  0  0  0
 12 17  1  0  0  0  0
 12 34  1  0  0  0  0
 12 13  1  6  0  0  0
 14 15  1  6  0  0  0
 14 19  1  0  0  0  0
 16 13  1  6  0  0  0
 16 21  1  0  0  0  0
 17 18  1  1  0  0  0
 17 23  1  0  0  0  0
 18  8  1  0  0  0  0
 19 20  1  1  0  0  0
 19 25  1  0  0  0  0
 20  5  1  0  0  0  0
 21  3  1  1  0  0  0
 21 22  1  0  0  0  0
 21 27  1  0  0  0  0
 23 24  1  1  0  0  0
 23 29  1  0  0  0  0
 25 26  1  6  0  0  0
 25 31  1  0  0  0  0
 27  7  1  6  0  0  0
 27 28  1  0  0  0  0
 29 30  1  6  0  0  0
 29 33  1  0  0  0  0
 31 32  1  1  0  0  0
 31 35  1  0  0  0  0
 33 34  1  0  0  0  0
 33 37  1  6  0  0  0
 35 36  1  6  0  0  0
 37 38  1  0  0  0  0
M  END
>  <CHROM.1>
-93.67184264,129.30641952,-176.79699308,89.33300194,85.75316548,-135.73086437
90.14528128,93.93481814,-57.58922184,91.40060848,74.57782327,18.95039231
29.02301279,-0.40549600,1.58642304,1.04656544,3.00749721

>  <Name>
1nta_lig

>  <RI>
0

>  <Rbt.Current_Directory>
/home/itssahil/PROJECTS/Mol_Feturizer/New_Systems/rnas/1nta

>  <Rbt.Executable>
rbdock ($Id: //depot/dev/client3/rdock/2013.1/src/exe/rbdock.cxx#4 $)

>  <Rbt.Library>
libRbt.so (2013.1, Build901 2013/11/27)

>  <Rbt.Parameter_File>
/export/apps/rDock/src/rDock_2013.1_src/data/scripts/dock_solv.prm

>  <Rbt.Receptor>
prm/blind_docking_60.prm

>  <SCORE>
-21.7555

>  <SCORE.INTER>
-9.75112

>  <SCORE.INTER.CONST>
1

>  <SCORE.INTER.POLAR>
0

>  <SCORE.INTER.ROT>
11

>  <SCORE.INTER.SOLV>
17.1391

>  <SCORE.INTER.VDW>
-23.1471

>  <SCORE.INTER.norm>
-0.243778

>  <SCORE.INTRA>
-13.4387

>  <SCORE.INTRA.DIHEDRAL>
-4.64665

>  <SCORE.INTRA.DIHEDRAL.0>
19.0336

>  <SCORE.INTRA.POLAR>
0

>  <SCORE.INTRA.POLAR.0>
0

>  <SCORE.INTRA.REPUL>
0

>  <SCORE.INTRA.REPUL.0>
0

>  <SCORE.INTRA.SOLV>
1.25161

>  <SCORE.INTRA.SOLV.lig_0>
-97.5861

>  <SCORE.INTRA.VDW>
-11.7411

>  <SCORE.INTRA.VDW.0>
11.7669

>  <SCORE.INTRA.norm>
-0.335967

>  <SCORE.RESTR>
1.43424

>  <SCORE.RESTR.CAVITY>
1.43424

>  <SCORE.RESTR.norm>
0.035856

>  <SCORE.SYSTEM>
0

>  <SCORE.SYSTEM.CONST>
0

>  <SCORE.SYSTEM.DIHEDRAL>
0

>  <SCORE.SYSTEM.SOLV>
0

>  <SCORE.SYSTEM.norm>
0

>  <SCORE.heavy>
40

>  <SCORE.norm>
-0.543888

>  <RMSD>
18.832

$$$$
1nta_lig
 OpenBabel11021811403D
libRbt.so/2013.1/901 2013/11/27
 40 42  0  0  0  0  0  0  0  0999 V2000
   18.0854   36.1742   -0.1111 C   0  0  0  0  0  0  0  0  0  0  0  0
   17.4101   36.7749   -1.0184 N   0  0  0  0  0  0  0  0  0  0  0  0
   15.9035   26.5517   -1.5382 C   0  0  0  0  0  0  0  0  0  0  0  0
   15.0566   27.3979   -1.3537 O   0  0  0  0  0  0  0  0  0  0  0  0
   20.7261   30.7061    0.8576 C   0  0  0  0  0  0  0  0  0  0  0  0
   21.2999   30.2859   -0.2397 N   0  0  0  0  0  0  0  0  0  0  0  0
   17.5698   27.4392   -4.2762 C   0  0  0  0  0  0  0  0  0  0  0  0
   18.4684   22.7486   -0.4220 C   0  0  0  0  0  0  0  0  0  0  0  0
   18.2098   33.8253   -0.3710 C   0  0  2  0  0  0  0  0  0  0  0  0
   18.8585   35.1858   -0.5353 N   0  0  0  0  0  0  0  0  0  0  0  0
   18.6255   28.6058   -1.0490 C   0  0  2  0  0  0  0  0  0  0  0  0
   18.3064   25.6074    0.8772 C   0  0  1  0  0  0  0  0  0  0  0  0
   18.8873   26.5523    0.0482 O   0  0  0  0  0  0  0  0  0  0  0  0
   19.1802   32.8580    0.3329 C   0  0  1  0  0  0  0  0  0  0  0  0
   19.4160   33.3690    1.6101 O   0  0  0  0  0  0  0  0  0  0  0  0
   17.9936   27.3011   -0.5762 C   0  0  2  0  0  0  0  0  0  0  0  0
   19.1252   24.3562    1.1068 C   0  0  1  0  0  0  0  0  0  0  0  0
   19.4498   23.7868   -0.1552 N   0  0  0  0  0  0  0  0  0  0  0  0
   18.5835   31.4548    0.5053 C   0  0  2  0  0  0  0  0  0  0  0  0
   19.4932   30.4951    1.1758 N   0  0  0  0  0  0  0  0  0  0  0  0
   17.3567   26.8328   -1.8115 C   0  0  1  0  0  0  0  0  0  0  0  0
   18.0609   25.6633   -2.2339 O   0  0  0  0  0  0  0  0  0  0  0  0
   20.3002   24.6454    1.7863 C   0  0  2  0  0  0  0  0  0  0  0  0
   20.8523   23.4278    2.2194 O   0  0  0  0  0  0  0  0  0  0  0  0
   18.2255   30.9223   -0.8732 C   0  0  1  0  0  0  0  0  0  0  0  0
   17.6711   29.6266   -0.7076 O   0  0  0  0  0  0  0  0  0  0  0  0
   17.5126   27.8665   -2.8424 C   0  0  1  0  0  0  0  0  0  0  0  0
   18.6904   28.5641   -2.4560 O   0  0  0  0  0  0  0  0  0  0  0  0
   20.0145   25.5201    2.9786 C   0  0  1  0  0  0  0  0  0  0  0  0
   21.2241   25.9894    3.4975 O   0  0  0  0  0  0  0  0  0  0  0  0
   17.2111   31.8735   -1.5695 C   0  0  2  0  0  0  0  0  0  0  0  0
   16.8799   31.3522   -2.8556 O   0  0  0  0  0  0  0  0  0  0  0  0
   19.1983   26.6946    2.5581 C   0  0  1  0  0  0  0  0  0  0  0  0
   17.9898   26.2140    2.0444 O   0  0  0  0  0  0  0  0  0  0  0  0
   17.8517   33.2679   -1.7323 C   0  0  1  0  0  0  0  0  0  0  0  0
   16.9291   34.1623   -2.3756 O   0  0  0  0  0  0  0  0  0  0  0  0
   18.8674   27.6054    3.7570 C   0  0  0  0  0  0  0  0  0  0  0  0
   19.9266   28.5375    3.9428 O   0  0  0  0  0  0  0  0  0  0  0  0
   18.0168   36.5026    1.1338 N   0  0  0  0  0  0  0  0  0  0  0  0
   21.4055   31.3582    1.7176 N   0  0  0  0  0  0  0  0  0  0  0  0
  1  2  1  0  0  0  0
  1 39  1  0  0  0  0
  3  4  1  0  0  0  0
  5  6  1  0  0  0  0
  5 40  1  0  0  0  0
  9 10  1  6  0  0  0
  9 14  1  0  0  0  0
  9 35  1  0  0  0  0
 10  1  1  0  0  0  0
 11 16  1  0  0  0  0
 11 28  1  0  0  0  0
 11 26  1  6  0  0  0
 12 17  1  0  0  0  0
 12 34  1  0  0  0  0
 12 13  1  6  0  0  0
 14 15  1  1  0  0  0
 14 19  1  0  0  0  0
 16 13  1  6  0  0  0
 16 21  1  0  0  0  0
 17 18  1  6  0  0  0
 17 23  1  0  0  0  0
 18  8  1  0  0  0  0
 19 20  1  6  0  0  0
 19 25  1  0  0  0  0
 20  5  1  0  0  0  0
 21  3  1  1  0  0  0
 21 22  1  0  0  0  0
 21 27  1  0  0  0  0
 23 24  1  1  0  0  0
 23 29  1  0  0  0  0
 25 26  1  1  0  0  0
 25 31  1  0  0  0  0
 27  7  1  6  0  0  0
 27 28  1  0  0  0  0
 29 30  1  6  0  0  0
 29 33  1  0  0  0  0
 31 32  1  6  0  0  0
 31 35  1  0  0  0  0
 33 34  1  0  0  0  0
 33 37  1  1  0  0  0
 35 36  1  1  0  0  0
 37 38  1  0  0  0  0
M  END
>  <CHROM.1>
-130.04642098,-97.31743692,169.58735238,152.63872990,159.26359124,-96.54138958
-34.85933962,-81.40177670,72.41690324,-102.81773909,86.87716734,18.61435112
29.15459550,0.02528215,-1.75941172,1.02266288,-3.13275044

>  <Name>
1nta_lig

>  <RI>
0

>  <Rbt.Current_Directory>
/home/itssahil/PROJECTS/Mol_Feturizer/New_Systems/rnas/1nta

>  <Rbt.Executable>
rbdock ($Id: //depot/dev/client3/rdock/2013.1/src/exe/rbdock.cxx#4 $)

>  <Rbt.Library>
libRbt.so (2013.1, Build901 2013/11/27)

>  <Rbt.Parameter_File>
/export/apps/rDock/src/rDock_2013.1_src/data/scripts/dock_solv.prm

>  <Rbt.Receptor>
prm/blind_docking_60.prm

>  <SCORE>
-9.91561

>  <SCORE.INTER>
0.247379

>  <SCORE.INTER.CONST>
1

>  <SCORE.INTER.POLAR>
-0.363159

>  <SCORE.INTER.ROT>
11

>  <SCORE.INTER.SOLV>
13.6889

>  <SCORE.INTER.VDW>
-14.1208

>  <SCORE.INTER.norm>
0.00618448

>  <SCORE.INTRA>
-17.6417

>  <SCORE.INTRA.DIHEDRAL>
-1.23955

>  <SCORE.INTRA.DIHEDRAL.0>
19.0336

>  <SCORE.INTRA.POLAR>
0

>  <SCORE.INTRA.POLAR.0>
0

>  <SCORE.INTRA.REPUL>
0

>  <SCORE.INTRA.REPUL.0>
0

>  <SCORE.INTRA.SOLV>
-0.648221

>  <SCORE.INTRA.SOLV.lig_0>
-97.5861

>  <SCORE.INTRA.VDW>
-16.6978

>  <SCORE.INTRA.VDW.0>
11.7669

>  <SCORE.INTRA.norm>
-0.441042

>  <SCORE.RESTR>
7.47868

>  <SCORE.RESTR.CAVITY>
7.47868

>  <SCORE.RESTR.norm>
0.186967

>  <SCORE.SYSTEM>
0

>  <SCORE.SYSTEM.CONST>
0

>  <SCORE.SYSTEM.DIHEDRAL>
0

>  <SCORE.SYSTEM.SOLV>
0

>  <SCORE.SYSTEM.norm>
0

>  <SCORE.heavy>
40

>  <SCORE.norm>
-0.24789

>  <RMSD>
18.856

$$$$
1nta_lig
 OpenBabel11021811403D
libRbt.so/2013.1/901 2013/11/27
 40 42  0  0  0  0  0  0  0  0999 V2000
   18.2604   34.3270   -2.3543 C   0  0  0  0  0  0  0  0  0  0  0  0
   19.4111   34.6719   -2.7982 N   0  0  0  0  0  0  0  0  0  0  0  0
   21.0550   26.3932    0.8842 C   0  0  0  0  0  0  0  0  0  0  0  0
   21.3567   26.1884   -0.2710 O   0  0  0  0  0  0  0  0  0  0  0  0
   21.3344   29.5508   -0.3275 C   0  0  0  0  0  0  0  0  0  0  0  0
   20.7302   29.4443   -1.4823 N   0  0  0  0  0  0  0  0  0  0  0  0
   19.8717   25.8286    3.9407 C   0  0  0  0  0  0  0  0  0  0  0  0
   20.5889   24.3391   -2.4413 C   0  0  0  0  0  0  0  0  0  0  0  0
   18.1026   32.3229   -1.1055 C   0  0  2  0  0  0  0  0  0  0  0  0
   17.9800   33.0351   -2.4384 N   0  0  0  0  0  0  0  0  0  0  0  0
   18.0861   27.9562    1.6658 C   0  0  2  0  0  0  0  0  0  0  0  0
   18.1196   26.5724   -1.4920 C   0  0  1  0  0  0  0  0  0  0  0  0
   17.8358   26.4840   -0.1395 O   0  0  0  0  0  0  0  0  0  0  0  0
   19.5234   31.7512   -0.9398 C   0  0  1  0  0  0  0  0  0  0  0  0
   20.4030   32.8347   -0.9208 O   0  0  0  0  0  0  0  0  0  0  0  0
   18.7491   27.0750    0.6127 C   0  0  2  0  0  0  0  0  0  0  0  0
   18.4881   25.2675   -2.1631 C   0  0  1  0  0  0  0  0  0  0  0  0
   19.5764   24.6843   -1.4576 N   0  0  0  0  0  0  0  0  0  0  0  0
   19.6987   30.9972    0.3852 C   0  0  2  0  0  0  0  0  0  0  0  0
   21.0546   30.4288    0.5762 N   0  0  0  0  0  0  0  0  0  0  0  0
   19.6618   26.2823    1.4430 C   0  0  1  0  0  0  0  0  0  0  0  0
   19.1832   24.9358    1.4317 O   0  0  0  0  0  0  0  0  0  0  0  0
   17.4195   24.3820   -2.1549 C   0  0  2  0  0  0  0  0  0  0  0  0
   17.7291   23.3331   -3.0375 O   0  0  0  0  0  0  0  0  0  0  0  0
   18.6764   29.8725    0.4261 C   0  0  1  0  0  0  0  0  0  0  0  0
   18.8405   29.1811    1.6544 O   0  0  0  0  0  0  0  0  0  0  0  0
   19.6011   26.7852    2.8211 C   0  0  1  0  0  0  0  0  0  0  0  0
   18.3028   27.3571    2.9226 O   0  0  0  0  0  0  0  0  0  0  0  0
   16.1629   25.0726   -2.6160 C   0  0  1  0  0  0  0  0  0  0  0  0
   15.0699   24.2374   -2.3706 O   0  0  0  0  0  0  0  0  0  0  0  0
   17.2375   30.4499    0.3039 C   0  0  2  0  0  0  0  0  0  0  0  0
   16.2932   29.3816    0.3548 O   0  0  0  0  0  0  0  0  0  0  0  0
   15.9700   26.3347   -1.8463 C   0  0  1  0  0  0  0  0  0  0  0  0
   17.0666   27.1637   -2.1020 O   0  0  0  0  0  0  0  0  0  0  0  0
   17.1000   31.1903   -1.0430 C   0  0  1  0  0  0  0  0  0  0  0  0
   15.7753   31.7310   -1.1754 O   0  0  0  0  0  0  0  0  0  0  0  0
   14.7020   27.0822   -2.3043 C   0  0  0  0  0  0  0  0  0  0  0  0
   14.4923   26.8418   -3.6911 O   0  0  0  0  0  0  0  0  0  0  0  0
   17.4254   35.1772   -1.8622 N   0  0  0  0  0  0  0  0  0  0  0  0
   22.2612   28.7306   -0.0199 N   0  0  0  0  0  0  0  0  0  0  0  0
  1  2  1  0  0  0  0
  1 39  1  0  0  0  0
  3  4  1  0  0  0  0
  5  6  1  0  0  0  0
  5 40  1  0  0  0  0
  9 10  1  6  0  0  0
  9 14  1  0  0  0  0
  9 35  1  0  0  0  0
 10  1  1  0  0  0  0
 11 16  1  0  0  0  0
 11 28  1  0  0  0  0
 11 26  1  1  0  0  0
 12 17  1  0  0  0  0
 12 34  1  0  0  0  0
 12 13  1  1  0  0  0
 14 15  1  1  0  0  0
 14 19  1  0  0  0  0
 16 13  1  1  0  0  0
 16 21  1  0  0  0  0
 17 18  1  1  0  0  0
 17 23  1  0  0  0  0
 18  8  1  0  0  0  0
 19 20  1  6  0  0  0
 19 25  1  0  0  0  0
 20  5  1  0  0  0  0
 21  3  1  6  0  0  0
 21 22  1  0  0  0  0
 21 27  1  0  0  0  0
 23 24  1  6  0  0  0
 23 29  1  0  0  0  0
 25 26  1  1  0  0  0
 25 31  1  0  0  0  0
 27  7  1  1  0  0  0
 27 28  1  0  0  0  0
 29 30  1  1  0  0  0
 29 33  1  0  0  0  0
 31 32  1  6  0  0  0
 31 35  1  0  0  0  0
 33 34  1  0  0  0  0
 33 37  1  6  0  0  0
 35 36  1  1  0  0  0
 37 38  1  0  0  0  0
M  END
>  <CHROM.1>
-91.83051157,103.37624363,66.49216455,111.41070608,133.20456141,-129.88184251
-62.34573444,19.73551383,-51.75363969,-169.22118991,-31.93324005,18.45453049
28.33871895,-0.63029970,1.47876765,-0.71482000,-0.09985812

>  <Name>
1nta_lig

>  <RI>
2.40834e+07

>  <Rbt.Current_Directory>
/home/itssahil/PROJECTS/Mol_Feturizer/New_Systems/rnas/1nta

>  <Rbt.Executable>
rbdock ($Id: //depot/dev/client3/rdock/2013.1/src/exe/rbdock.cxx#4 $)

>  <Rbt.Library>
libRbt.so (2013.1, Build901 2013/11/27)

>  <Rbt.Parameter_File>
/export/apps/rDock/src/rDock_2013.1_src/data/scripts/dock_solv.prm

>  <Rbt.Receptor>
prm/blind_docking_80.prm

>  <SCORE>
-2.95328

>  <SCORE.INTER>
5.77083

>  <SCORE.INTER.CONST>
1

>  <SCORE.INTER.POLAR>
-1.56975

>  <SCORE.INTER.ROT>
11

>  <SCORE.INTER.SOLV>
23.5054

>  <SCORE.INTER.VDW>
-9.68873

>  <SCORE.INTER.norm>
0.144271

>  <SCORE.INTRA>
-9.81407

>  <SCORE.INTRA.DIHEDRAL>
0.298735

>  <SCORE.INTRA.DIHEDRAL.0>
19.0336

>  <SCORE.INTRA.POLAR>
0

>  <SCORE.INTRA.POLAR.0>
0

>  <SCORE.INTRA.REPUL>
0

>  <SCORE.INTRA.REPUL.0>
0

>  <SCORE.INTRA.SOLV>
5.32153

>  <SCORE.INTRA.SOLV.lig_0>
-97.5861

>  <SCORE.INTRA.VDW>
-12.6242

>  <SCORE.INTRA.VDW.0>
11.7669

>  <SCORE.INTRA.norm>
-0.245352

>  <SCORE.RESTR>
1.08996

>  <SCORE.RESTR.CAVITY>
1.08996

>  <SCORE.RESTR.norm>
0.027249

>  <SCORE.SYSTEM>
0

>  <SCORE.SYSTEM.CONST>
0

>  <SCORE.SYSTEM.DIHEDRAL>
0

>  <SCORE.SYSTEM.SOLV>
0

>  <SCORE.SYSTEM.norm>
0

>  <SCORE.heavy>
40

>  <SCORE.norm>
-0.0738319

>  <RMSD>
18.981

$$$$
1nta_lig
 OpenBabel11021811403D
libRbt.so/2013.1/901 2013/11/27
 40 42  0  0  0  0  0  0  0  0999 V2000
   17.9169   20.7547    1.1457 C   0  0  0  0  0  0  0  0  0  0  0  0
   18.2569   19.8902    2.0273 N   0  0  0  0  0  0  0  0  0  0  0  0
   20.2590   29.9815    1.3164 C   0  0  0  0  0  0  0  0  0  0  0  0
   20.9700   30.7551    1.9190 O   0  0  0  0  0  0  0  0  0  0  0  0
   16.5654   25.7054   -2.5767 C   0  0  0  0  0  0  0  0  0  0  0  0
   15.8113   26.5921   -1.9808 N   0  0  0  0  0  0  0  0  0  0  0  0
   22.6527   27.9796    0.1656 C   0  0  0  0  0  0  0  0  0  0  0  0
   16.2604   29.0088    0.1160 C   0  0  0  0  0  0  0  0  0  0  0  0
   18.4516   23.0149    0.6918 C   0  0  2  0  0  0  0  0  0  0  0  0
   18.8836   21.5621    0.7356 N   0  0  0  0  0  0  0  0  0  0  0  0
   19.3478   27.8491   -1.2314 C   0  0  2  0  0  0  0  0  0  0  0  0
   17.7431   30.2845   -2.1022 C   0  0  1  0  0  0  0  0  0  0  0  0
   19.0918   30.0935   -1.8529 O   0  0  0  0  0  0  0  0  0  0  0  0
   18.3288   23.4864   -0.7696 C   0  0  1  0  0  0  0  0  0  0  0  0
   17.3178   22.7285   -1.3626 O   0  0  0  0  0  0  0  0  0  0  0  0
   19.3116   29.3135   -0.8077 C   0  0  2  0  0  0  0  0  0  0  0  0
   16.9605   30.9241   -0.9766 C   0  0  1  0  0  0  0  0  0  0  0  0
   17.1500   30.1546    0.2041 N   0  0  0  0  0  0  0  0  0  0  0  0
   17.9159   24.9606   -0.8748 C   0  0  2  0  0  0  0  0  0  0  0  0
   17.7925   25.4502   -2.2687 N   0  0  0  0  0  0  0  0  0  0  0  0
   20.5606   29.4172   -0.0461 C   0  0  1  0  0  0  0  0  0  0  0  0
   21.4435   30.2568   -0.7928 O   0  0  0  0  0  0  0  0  0  0  0  0
   17.3921   32.2222   -0.7425 C   0  0  2  0  0  0  0  0  0  0  0  0
   16.4444   32.8423    0.0898 O   0  0  0  0  0  0  0  0  0  0  0  0
   18.9562   25.7946   -0.1439 C   0  0  1  0  0  0  0  0  0  0  0  0
   18.5678   27.1559   -0.2412 O   0  0  0  0  0  0  0  0  0  0  0  0
   21.1630   28.0820    0.0538 C   0  0  1  0  0  0  0  0  0  0  0  0
   20.6751   27.3967   -1.0930 O   0  0  0  0  0  0  0  0  0  0  0  0
   17.4961   32.9819   -2.0388 C   0  0  1  0  0  0  0  0  0  0  0  0
   18.1548   34.1917   -1.8044 O   0  0  0  0  0  0  0  0  0  0  0  0
   19.0514   25.3512    1.3438 C   0  0  2  0  0  0  0  0  0  0  0  0
   20.0238   26.1511    2.0145 O   0  0  0  0  0  0  0  0  0  0  0  0
   18.2961   32.1958   -3.0209 C   0  0  1  0  0  0  0  0  0  0  0  0
   17.6264   30.9899   -3.2508 O   0  0  0  0  0  0  0  0  0  0  0  0
   19.4774   23.8693    1.4058 C   0  0  1  0  0  0  0  0  0  0  0  0
   19.5721   23.4404    2.7740 O   0  0  0  0  0  0  0  0  0  0  0  0
   18.4085   32.9328   -4.3702 C   0  0  0  0  0  0  0  0  0  0  0  0
   19.3861   33.9611   -4.2616 O   0  0  0  0  0  0  0  0  0  0  0  0
   16.7144   20.8404    0.6887 N   0  0  0  0  0  0  0  0  0  0  0  0
   16.0850   25.0005   -3.5247 N   0  0  0  0  0  0  0  0  0  0  0  0
  1  2  1  0  0  0  0
  1 39  1  0  0  0  0
  3  4  1  0  0  0  0
  5  6  1  0  0  0  0
  5 40  1  0  0  0  0
  9 10  1  6  0  0  0
  9 14  1  0  0  0  0
  9 35  1  0  0  0  0
 10  1  1  0  0  0  0
 11 16  1  0  0  0  0
 11 28  1  0  0  0  0
 11 26  1  1  0  0  0
 12 17  1  0  0  0  0
 12 34  1  0  0  0  0
 12 13  1  1  0  0  0
 14 15  1  6  0  0  0
 14 19  1  0  0  0  0
 16 13  1  6  0  0  0
 16 21  1  0  0  0  0
 17 18  1  1  0  0  0
 17 23  1  0  0  0  0
 18  8  1  0  0  0  0
 19 20  1  6  0  0  0
 19 25  1  0  0  0  0
 20  5  1  0  0  0  0
 21  3  1  1  0  0  0
 21 22  1  0  0  0  0
 21 27  1  0  0  0  0
 23 24  1  1  0  0  0
 23 29  1  0  0  0  0
 25 26  1  1  0  0  0
 25 31  1  0  0  0  0
 27  7  1  6  0  0  0
 27 28  1  0  0  0  0
 29 30  1  1  0  0  0
 29 33  1  0  0  0  0
 31 32  1  1  0  0  0
 31 35  1  0  0  0  0
 33 34  1  0  0  0  0
 33 37  1  6  0  0  0
 35 36  1  1  0  0  0
 37 38  1  0  0  0  0
M  END
>  <CHROM.1>
-109.53790551,-133.79050708,-154.84564521,59.93799206,88.03202359,-80.06694358
111.60763938,61.08433878,-142.72094279,-102.61534039,78.04528380,18.58576898
27.70978392,-0.63538638,1.59317769,0.71606720,2.87360923

>  <Name>
1nta_lig

>  <RI>
0

>  <Rbt.Current_Directory>
/home/itssahil/PROJECTS/Mol_Feturizer/New_Systems/rnas/1nta

>  <Rbt.Executable>
rbdock ($Id: //depot/dev/client3/rdock/2013.1/src/exe/rbdock.cxx#4 $)

>  <Rbt.Library>
libRbt.so (2013.1, Build901 2013/11/27)

>  <Rbt.Parameter_File>
/export/apps/rDock/src/rDock_2013.1_src/data/scripts/dock_solv.prm

>  <Rbt.Receptor>
prm/blind_docking_60.prm

>  <SCORE>
-33.1167

>  <SCORE.INTER>
-20.1696

>  <SCORE.INTER.CONST>
1

>  <SCORE.INTER.POLAR>
-1.64553

>  <SCORE.INTER.ROT>
11

>  <SCORE.INTER.SOLV>
21.7646

>  <SCORE.INTER.VDW>
-26.1495

>  <SCORE.INTER.norm>
-0.50424

>  <SCORE.INTRA>
-13.9955

>  <SCORE.INTRA.DIHEDRAL>
1.15005

>  <SCORE.INTRA.DIHEDRAL.0>
19.0336

>  <SCORE.INTRA.POLAR>
0

>  <SCORE.INTRA.POLAR.0>
0

>  <SCORE.INTRA.REPUL>
0

>  <SCORE.INTRA.REPUL.0>
0

>  <SCORE.INTRA.SOLV>
-2.18124

>  <SCORE.INTRA.SOLV.lig_0>
-97.5861

>  <SCORE.INTRA.VDW>
-13.4799

>  <SCORE.INTRA.VDW.0>
11.7669

>  <SCORE.INTRA.norm>
-0.349887

>  <SCORE.RESTR>
1.04839

>  <SCORE.RESTR.CAVITY>
1.04839

>  <SCORE.RESTR.norm>
0.0262099

>  <SCORE.SYSTEM>
0

>  <SCORE.SYSTEM.CONST>
0

>  <SCORE.SYSTEM.DIHEDRAL>
0

>  <SCORE.SYSTEM.SOLV>
0

>  <SCORE.SYSTEM.norm>
0

>  <SCORE.heavy>
40

>  <SCORE.norm>
-0.827916

>  <RMSD>
19.123

$$$$
1nta_lig
 OpenBabel11021811403D
libRbt.so/2013.1/901 2013/11/27
 40 42  0  0  0  0  0  0  0  0999 V2000
   18.3308   34.1112   -2.7682 C   0  0  0  0  0  0  0  0  0  0  0  0
   19.4591   34.2304   -3.3622 N   0  0  0  0  0  0  0  0  0  0  0  0
   21.1822   27.2364    1.8921 C   0  0  0  0  0  0  0  0  0  0  0  0
   21.9777   27.2113    0.9790 O   0  0  0  0  0  0  0  0  0  0  0  0
   21.1300   30.6212    1.3139 C   0  0  0  0  0  0  0  0  0  0  0  0
   21.3410   30.1045    2.4964 N   0  0  0  0  0  0  0  0  0  0  0  0
   19.0813   26.1915    4.2492 C   0  0  0  0  0  0  0  0  0  0  0  0
   15.2332   26.6207   -2.3554 C   0  0  0  0  0  0  0  0  0  0  0  0
   17.7855   32.2156   -1.4606 C   0  0  2  0  0  0  0  0  0  0  0  0
   17.7876   32.9038   -2.8116 N   0  0  0  0  0  0  0  0  0  0  0  0
   17.8302   27.6742    1.2281 C   0  0  2  0  0  0  0  0  0  0  0  0
   17.6519   25.5959   -0.1648 C   0  0  1  0  0  0  0  0  0  0  0  0
   18.8457   26.2724   -0.3509 O   0  0  0  0  0  0  0  0  0  0  0  0
   19.1294   31.4990   -1.2298 C   0  0  1  0  0  0  0  0  0  0  0  0
   20.1198   32.4820   -1.2000 O   0  0  0  0  0  0  0  0  0  0  0  0
   19.1171   27.1086    0.6372 C   0  0  2  0  0  0  0  0  0  0  0  0
   16.8795   25.2856   -1.4280 C   0  0  1  0  0  0  0  0  0  0  0  0
   16.6652   26.4978   -2.1399 N   0  0  0  0  0  0  0  0  0  0  0  0
   19.1754   30.7633    0.1160 C   0  0  2  0  0  0  0  0  0  0  0  0
   20.4544   30.0576    0.3696 N   0  0  0  0  0  0  0  0  0  0  0  0
   19.8007   26.6405    1.8473 C   0  0  1  0  0  0  0  0  0  0  0  0
   19.8320   25.2129    1.7906 O   0  0  0  0  0  0  0  0  0  0  0  0
   17.5810   24.4047   -2.2392 C   0  0  2  0  0  0  0  0  0  0  0  0
   16.6960   23.9377   -3.2259 O   0  0  0  0  0  0  0  0  0  0  0  0
   18.0367   29.7561    0.1416 C   0  0  1  0  0  0  0  0  0  0  0  0
   18.0818   29.0814    1.3892 O   0  0  0  0  0  0  0  0  0  0  0  0
   19.0113   27.0415    3.0186 C   0  0  1  0  0  0  0  0  0  0  0  0
   17.6819   27.1370    2.5223 O   0  0  0  0  0  0  0  0  0  0  0  0
   18.0918   23.2410   -1.4307 C   0  0  1  0  0  0  0  0  0  0  0  0
   18.9872   22.5046   -2.2107 O   0  0  0  0  0  0  0  0  0  0  0  0
   16.6739   30.4813   -0.0466 C   0  0  2  0  0  0  0  0  0  0  0  0
   15.6185   29.5220   -0.0093 O   0  0  0  0  0  0  0  0  0  0  0  0
   18.8193   23.7423   -0.2299 C   0  0  1  0  0  0  0  0  0  0  0  0
   17.9138   24.4740    0.5447 O   0  0  0  0  0  0  0  0  0  0  0  0
   16.6648   31.1989   -1.4126 C   0  0  1  0  0  0  0  0  0  0  0  0
   15.4117   31.8751   -1.6060 O   0  0  0  0  0  0  0  0  0  0  0  0
   19.3412   22.5784    0.6356 C   0  0  0  0  0  0  0  0  0  0  0  0
   18.2446   21.7641    1.0351 O   0  0  0  0  0  0  0  0  0  0  0  0
   17.7557   35.0986   -2.1709 N   0  0  0  0  0  0  0  0  0  0  0  0
   21.5892   31.7784    1.0376 N   0  0  0  0  0  0  0  0  0  0  0  0
  1  2  1  0  0  0  0
  1 39  1  0  0  0  0
  3  4  1  0  0  0  0
  5  6  1  0  0  0  0
  5 40  1  0  0  0  0
  9 10  1  6  0  0  0
  9 14  1  0  0  0  0
  9 35  1  0  0  0  0
 10  1  1  0  0  0  0
 11 16  1  0  0  0  0
 11 28  1  0  0  0  0
 11 26  1  1  0  0  0
 12 17  1  0  0  0  0
 12 34  1  0  0  0  0
 12 13  1  6  0  0  0
 14 15  1  1  0  0  0
 14 19  1  0  0  0  0
 16 13  1  6  0  0  0
 16 21  1  0  0  0  0
 17 18  1  6  0  0  0
 17 23  1  0  0  0  0
 18  8  1  0  0  0  0
 19 20  1  6  0  0  0
 19 25  1  0  0  0  0
 20  5  1  0  0  0  0
 21  3  1  1  0  0  0
 21 22  1  0  0  0  0
 21 27  1  0  0  0  0
 23 24  1  6  0  0  0
 23 29  1  0  0  0  0
 25 26  1  1  0  0  0
 25 31  1  0  0  0  0
 27  7  1  1  0  0  0
 27 28  1  0  0  0  0
 29 30  1  6  0  0  0
 29 33  1  0  0  0  0
 31 32  1  6  0  0  0
 31 35  1  0  0  0  0
 33 34  1  0  0  0  0
 33 37  1  1  0  0  0
 35 36  1  1  0  0  0
 37 38  1  0  0  0  0
M  END
>  <CHROM.1>
-85.30933328,110.43963147,75.14268208,146.24082345,-31.88824912,-124.68901248
110.58875561,110.80615656,-50.24452779,-138.66400506,-58.32927396,18.51361398
28.08777054,-0.15666772,1.55503868,-0.85433783,-0.16857368

>  <Name>
1nta_lig

>  <RI>
2.40834e+07

>  <Rbt.Current_Directory>
/home/itssahil/PROJECTS/Mol_Feturizer/New_Systems/rnas/1nta

>  <Rbt.Executable>
rbdock ($Id: //depot/dev/client3/rdock/2013.1/src/exe/rbdock.cxx#4 $)

>  <Rbt.Library>
libRbt.so (2013.1, Build901 2013/11/27)

>  <Rbt.Parameter_File>
/export/apps/rDock/src/rDock_2013.1_src/data/scripts/dock_solv.prm

>  <Rbt.Receptor>
prm/blind_docking_80.prm

>  <SCORE>
-16.3389

>  <SCORE.INTER>
-8.09542

>  <SCORE.INTER.CONST>
1

>  <SCORE.INTER.POLAR>
0

>  <SCORE.INTER.ROT>
11

>  <SCORE.INTER.SOLV>
22.0613

>  <SCORE.INTER.VDW>
-23.6841

>  <SCORE.INTER.norm>
-0.202385

>  <SCORE.INTRA>
-10.672

>  <SCORE.INTRA.DIHEDRAL>
-0.806434

>  <SCORE.INTRA.DIHEDRAL.0>
19.0336

>  <SCORE.INTRA.POLAR>
0

>  <SCORE.INTRA.POLAR.0>
0

>  <SCORE.INTRA.REPUL>
0

>  <SCORE.INTRA.REPUL.0>
0

>  <SCORE.INTRA.SOLV>
0.706832

>  <SCORE.INTRA.SOLV.lig_0>
-97.5861

>  <SCORE.INTRA.VDW>
-10.6222

>  <SCORE.INTRA.VDW.0>
11.7669

>  <SCORE.INTRA.norm>
-0.266799

>  <SCORE.RESTR>
2.42843

>  <SCORE.RESTR.CAVITY>
2.42843

>  <SCORE.RESTR.norm>
0.0607108

>  <SCORE.SYSTEM>
0

>  <SCORE.SYSTEM.CONST>
0

>  <SCORE.SYSTEM.DIHEDRAL>
0

>  <SCORE.SYSTEM.SOLV>
0

>  <SCORE.SYSTEM.norm>
0

>  <SCORE.heavy>
40

>  <SCORE.norm>
-0.408474

>  <RMSD>
19.230

$$$$
1nta_lig
 OpenBabel11021811403D
libRbt.so/2013.1/901 2013/11/27
 40 42  0  0  0  0  0  0  0  0999 V2000
   19.3493   28.3636    6.7247 C   0  0  0  0  0  0  0  0  0  0  0  0
   18.9879   27.3920    7.4768 N   0  0  0  0  0  0  0  0  0  0  0  0
   19.7334   25.7246   -2.5006 C   0  0  0  0  0  0  0  0  0  0  0  0
   19.9538   24.9957   -3.4426 O   0  0  0  0  0  0  0  0  0  0  0  0
   20.4041   24.2198    1.0699 C   0  0  0  0  0  0  0  0  0  0  0  0
   20.4126   23.8220   -0.1757 N   0  0  0  0  0  0  0  0  0  0  0  0
   16.5651   24.7902   -2.8882 C   0  0  0  0  0  0  0  0  0  0  0  0
   21.5117   28.5778    0.9289 C   0  0  0  0  0  0  0  0  0  0  0  0
   19.4347   27.2422    4.6425 C   0  0  2  0  0  0  0  0  0  0  0  0
   20.1466   28.0397    5.7177 N   0  0  0  0  0  0  0  0  0  0  0  0
   17.5030   26.9530   -0.1802 C   0  0  2  0  0  0  0  0  0  0  0  0
   18.8082   29.4466   -0.2707 C   0  0  1  0  0  0  0  0  0  0  0  0
   18.5275   28.6790   -1.3886 O   0  0  0  0  0  0  0  0  0  0  0  0
   20.4525   26.7161    3.6128 C   0  0  1  0  0  0  0  0  0  0  0  0
   21.3069   25.8433    4.2882 O   0  0  0  0  0  0  0  0  0  0  0  0
   18.6016   27.3808   -1.1472 C   0  0  2  0  0  0  0  0  0  0  0  0
   20.1866   30.0696   -0.2422 C   0  0  1  0  0  0  0  0  0  0  0  0
   21.1546   29.0402   -0.4018 N   0  0  0  0  0  0  0  0  0  0  0  0
   19.7835   25.9191    2.4851 C   0  0  2  0  0  0  0  0  0  0  0  0
   20.7341   25.4009    1.4722 N   0  0  0  0  0  0  0  0  0  0  0  0
   18.4196   26.4070   -2.2287 C   0  0  1  0  0  0  0  0  0  0  0  0
   17.9398   27.1240   -3.3678 O   0  0  0  0  0  0  0  0  0  0  0  0
   20.3387   30.9938   -1.2663 C   0  0  2  0  0  0  0  0  0  0  0  0
   21.5047   31.7329   -1.0029 O   0  0  0  0  0  0  0  0  0  0  0  0
   18.7729   26.8267    1.8019 C   0  0  1  0  0  0  0  0  0  0  0  0
   18.1550   26.0839    0.7627 O   0  0  0  0  0  0  0  0  0  0  0  0
   17.3929   25.4393   -1.8226 C   0  0  1  0  0  0  0  0  0  0  0  0
   16.5865   26.1593   -0.8983 O   0  0  0  0  0  0  0  0  0  0  0  0
   19.1545   31.9233   -1.3137 C   0  0  1  0  0  0  0  0  0  0  0  0
   19.2166   32.6780   -2.4880 O   0  0  0  0  0  0  0  0  0  0  0  0
   17.7171   27.3245    2.8296 C   0  0  2  0  0  0  0  0  0  0  0  0
   16.7730   28.1651    2.1684 O   0  0  0  0  0  0  0  0  0  0  0  0
   17.8921   31.1306   -1.3328 C   0  0  1  0  0  0  0  0  0  0  0  0
   17.8384   30.3826   -0.1525 O   0  0  0  0  0  0  0  0  0  0  0  0
   18.4278   28.1275    3.9393 C   0  0  1  0  0  0  0  0  0  0  0  0
   17.4677   28.5975    4.8996 O   0  0  0  0  0  0  0  0  0  0  0  0
   16.6541   32.0487   -1.3612 C   0  0  0  0  0  0  0  0  0  0  0  0
   16.6740   32.8965   -0.2184 O   0  0  0  0  0  0  0  0  0  0  0  0
   18.9693   29.5779    6.9328 N   0  0  0  0  0  0  0  0  0  0  0  0
   20.0258   23.4190    1.9876 N   0  0  0  0  0  0  0  0  0  0  0  0
  1  2  1  0  0  0  0
  1 39  1  0  0  0  0
  3  4  1  0  0  0  0
  5  6  1  0  0  0  0
  5 40  1  0  0  0  0
  9 10  1  1  0  0  0
  9 14  1  0  0  0  0
  9 35  1  0  0  0  0
 10  1  1  0  0  0  0
 11 16  1  0  0  0  0
 11 28  1  0  0  0  0
 11 26  1  1  0  0  0
 12 17  1  0  0  0  0
 12 34  1  0  0  0  0
 12 13  1  6  0  0  0
 14 15  1  1  0  0  0
 14 19  1  0  0  0  0
 16 13  1  6  0  0  0
 16 21  1  0  0  0  0
 17 18  1  6  0  0  0
 17 23  1  0  0  0  0
 18  8  1  0  0  0  0
 19 20  1  6  0  0  0
 19 25  1  0  0  0  0
 20  5  1  0  0  0  0
 21  3  1  6  0  0  0
 21 22  1  0  0  0  0
 21 27  1  0  0  0  0
 23 24  1  1  0  0  0
 23 29  1  0  0  0  0
 25 26  1  6  0  0  0
 25 31  1  0  0  0  0
 27  7  1  6  0  0  0
 27 28  1  0  0  0  0
 29 30  1  6  0  0  0
 29 33  1  0  0  0  0
 31 32  1  6  0  0  0
 31 35  1  0  0  0  0
 33 34  1  0  0  0  0
 33 37  1  1  0  0  0
 35 36  1  1  0  0  0
 37 38  1  0  0  0  0
M  END
>  <CHROM.1>
-171.44222152,70.28435399,84.29323099,102.79393230,66.42598971,-91.00031515
141.65782544,136.21809522,-170.14837453,-162.32609250,-58.58731772,18.96766046
27.91941326,0.79634382,0.49924643,-1.43008942,0.76619978

>  <Name>
1nta_lig

>  <RI>
9.25352e+06

>  <Rbt.Current_Directory>
/home/itssahil/PROJECTS/Mol_Feturizer/New_Systems/rnas/1nta

>  <Rbt.Executable>
rbdock ($Id: //depot/dev/client3/rdock/2013.1/src/exe/rbdock.cxx#4 $)

>  <Rbt.Library>
libRbt.so (2013.1, Build901 2013/11/27)

>  <Rbt.Parameter_File>
/export/apps/rDock/src/rDock_2013.1_src/data/scripts/dock_solv.prm

>  <Rbt.Receptor>
prm/blind_docking_40.prm

>  <SCORE>
-16.5405

>  <SCORE.INTER>
-0.00652746

>  <SCORE.INTER.CONST>
1

>  <SCORE.INTER.POLAR>
0

>  <SCORE.INTER.ROT>
11

>  <SCORE.INTER.SOLV>
16.3508

>  <SCORE.INTER.VDW>
-16.3879

>  <SCORE.INTER.norm>
-0.000163186

>  <SCORE.INTRA>
-17.6118

>  <SCORE.INTRA.DIHEDRAL>
-5.92183

>  <SCORE.INTRA.DIHEDRAL.0>
19.0336

>  <SCORE.INTRA.POLAR>
0

>  <SCORE.INTRA.POLAR.0>
0

>  <SCORE.INTRA.REPUL>
0

>  <SCORE.INTRA.REPUL.0>
0

>  <SCORE.INTRA.SOLV>
0.277625

>  <SCORE.INTRA.SOLV.lig_0>
-97.5861

>  <SCORE.INTRA.VDW>
-14.7897

>  <SCORE.INTRA.VDW.0>
11.7669

>  <SCORE.INTRA.norm>
-0.440295

>  <SCORE.RESTR>
1.07785

>  <SCORE.RESTR.CAVITY>
1.07785

>  <SCORE.RESTR.norm>
0.0269463

>  <SCORE.SYSTEM>
0

>  <SCORE.SYSTEM.CONST>
0

>  <SCORE.SYSTEM.DIHEDRAL>
0

>  <SCORE.SYSTEM.SOLV>
0

>  <SCORE.SYSTEM.norm>
0

>  <SCORE.heavy>
40

>  <SCORE.norm>
-0.413512

>  <RMSD>
19.249

$$$$
1nta_lig
 OpenBabel11021811403D
libRbt.so/2013.1/901 2013/11/27
 40 42  0  0  0  0  0  0  0  0999 V2000
   20.1109   21.6759   -3.5842 C   0  0  0  0  0  0  0  0  0  0  0  0
   20.2662   20.4459   -3.2632 N   0  0  0  0  0  0  0  0  0  0  0  0
   17.9678   28.4021    1.8283 C   0  0  0  0  0  0  0  0  0  0  0  0
   16.8591   28.2321    1.3709 O   0  0  0  0  0  0  0  0  0  0  0  0
   18.0906   23.7814    0.6638 C   0  0  0  0  0  0  0  0  0  0  0  0
   18.9046   23.8892    1.6815 N   0  0  0  0  0  0  0  0  0  0  0  0
   20.7317   26.5531    1.8835 C   0  0  0  0  0  0  0  0  0  0  0  0
   21.6250   32.3804    1.5559 C   0  0  0  0  0  0  0  0  0  0  0  0
   20.7744   23.7643   -2.6904 C   0  0  2  0  0  0  0  0  0  0  0  0
   21.1555   22.4598   -3.3627 N   0  0  0  0  0  0  0  0  0  0  0  0
   19.5094   27.9011   -1.2115 C   0  0  2  0  0  0  0  0  0  0  0  0
   19.0775   31.1747    0.2403 C   0  0  1  0  0  0  0  0  0  0  0  0
   19.4304   30.1742   -0.6496 O   0  0  0  0  0  0  0  0  0  0  0  0
   19.5399   23.5559   -1.7929 C   0  0  1  0  0  0  0  0  0  0  0  0
   19.9073   22.6572   -0.7902 O   0  0  0  0  0  0  0  0  0  0  0  0
   18.9521   28.9911   -0.3024 C   0  0  2  0  0  0  0  0  0  0  0  0
   19.8381   32.4737    0.0894 C   0  0  1  0  0  0  0  0  0  0  0  0
   21.2307   32.1976    0.1691 N   0  0  0  0  0  0  0  0  0  0  0  0
   19.0937   24.8522   -1.1033 C   0  0  2  0  0  0  0  0  0  0  0  0
   17.9037   24.6894   -0.2341 N   0  0  0  0  0  0  0  0  0  0  0  0
   19.2379   28.4273    1.0210 C   0  0  1  0  0  0  0  0  0  0  0  0
   20.2419   29.2472    1.6226 O   0  0  0  0  0  0  0  0  0  0  0  0
   19.5667   33.0727   -1.1328 C   0  0  2  0  0  0  0  0  0  0  0  0
   20.0586   34.3882   -1.0807 O   0  0  0  0  0  0  0  0  0  0  0  0
   18.7862   25.8782   -2.1824 C   0  0  1  0  0  0  0  0  0  0  0  0
   18.3778   27.0755   -1.5394 O   0  0  0  0  0  0  0  0  0  0  0  0
   19.7842   27.0754    0.8485 C   0  0  1  0  0  0  0  0  0  0  0  0
   20.3823   27.1070   -0.4415 O   0  0  0  0  0  0  0  0  0  0  0  0
   18.0821   33.1009   -1.3847 C   0  0  1  0  0  0  0  0  0  0  0  0
   17.8536   33.4829   -2.7092 O   0  0  0  0  0  0  0  0  0  0  0  0
   20.0440   26.1245   -3.0634 C   0  0  2  0  0  0  0  0  0  0  0  0
   19.7390   27.0965   -4.0621 O   0  0  0  0  0  0  0  0  0  0  0  0
   17.5111   31.7383   -1.1851 C   0  0  1  0  0  0  0  0  0  0  0  0
   17.7418   31.3679    0.1434 O   0  0  0  0  0  0  0  0  0  0  0  0
   20.4535   24.8020   -3.7450 C   0  0  1  0  0  0  0  0  0  0  0  0
   21.6149   25.0091   -4.5654 O   0  0  0  0  0  0  0  0  0  0  0  0
   15.9868   31.7302   -1.4147 C   0  0  0  0  0  0  0  0  0  0  0  0
   15.3812   32.7024   -0.5703 O   0  0  0  0  0  0  0  0  0  0  0  0
   19.0118   22.1267   -4.0852 N   0  0  0  0  0  0  0  0  0  0  0  0
   17.4283   22.7048    0.4942 N   0  0  0  0  0  0  0  0  0  0  0  0
  1  2  1  0  0  0  0
  1 39  1  0  0  0  0
  3  4  1  0  0  0  0
  5  6  1  0  0  0  0
  5 40  1  0  0  0  0
  9 10  1  6  0  0  0
  9 14  1  0  0  0  0
  9 35  1  0  0  0  0
 10  1  1  0  0  0  0
 11 16  1  0  0  0  0
 11 28  1  0  0  0  0
 11 26  1  1  0  0  0
 12 17  1  0  0  0  0
 12 34  1  0  0  0  0
 12 13  1  6  0  0  0
 14 15  1  1  0  0  0
 14 19  1  0  0  0  0
 16 13  1  1  0  0  0
 16 21  1  0  0  0  0
 17 18  1  6  0  0  0
 17 23  1  0  0  0  0
 18  8  1  0  0  0  0
 19 20  1  6  0  0  0
 19 25  1  0  0  0  0
 20  5  1  0  0  0  0
 21  3  1  1  0  0  0
 21 22  1  0  0  0  0
 21 27  1  0  0  0  0
 23 24  1  1  0  0  0
 23 29  1  0  0  0  0
 25 26  1  1  0  0  0
 25 31  1  0  0  0  0
 27  7  1  1  0  0  0
 27 28  1  0  0  0  0
 29 30  1  6  0  0  0
 29 33  1  0  0  0  0
 31 32  1  6  0  0  0
 31 35  1  0  0  0  0
 33 34  1  0  0  0  0
 33 37  1  1  0  0  0
 35 36  1  1  0  0  0
 37 38  1  0  0  0  0
M  END
>  <CHROM.1>
30.50552244,-134.11305662,-169.26978632,166.58411632,-172.95239865,-93.47610340
56.21147318,69.71743271,32.81179829,87.15759106,-55.23661341,19.19972083
27.68019704,-0.95587857,-1.16164875,1.28288005,-0.20521509

>  <Name>
1nta_lig

>  <RI>
0

>  <Rbt.Current_Directory>
/home/itssahil/PROJECTS/Mol_Feturizer/New_Systems/rnas/1nta

>  <Rbt.Executable>
rbdock ($Id: //depot/dev/client3/rdock/2013.1/src/exe/rbdock.cxx#4 $)

>  <Rbt.Library>
libRbt.so (2013.1, Build901 2013/11/27)

>  <Rbt.Parameter_File>
/export/apps/rDock/src/rDock_2013.1_src/data/scripts/dock_solv.prm

>  <Rbt.Receptor>
prm/blind_docking_60.prm

>  <SCORE>
-13.7692

>  <SCORE.INTER>
-4.78093

>  <SCORE.INTER.CONST>
1

>  <SCORE.INTER.POLAR>
-1.04097

>  <SCORE.INTER.ROT>
11

>  <SCORE.INTER.SOLV>
15.8713

>  <SCORE.INTER.VDW>
-15.9412

>  <SCORE.INTER.norm>
-0.119523

>  <SCORE.INTRA>
-9.81697

>  <SCORE.INTRA.DIHEDRAL>
-9.29913

>  <SCORE.INTRA.DIHEDRAL.0>
19.0336

>  <SCORE.INTRA.POLAR>
0

>  <SCORE.INTRA.POLAR.0>
0

>  <SCORE.INTRA.REPUL>
0

>  <SCORE.INTRA.REPUL.0>
0

>  <SCORE.INTRA.SOLV>
2.11845

>  <SCORE.INTRA.SOLV.lig_0>
-97.5861

>  <SCORE.INTRA.VDW>
-6.22663

>  <SCORE.INTRA.VDW.0>
11.7669

>  <SCORE.INTRA.norm>
-0.245424

>  <SCORE.RESTR>
0.828689

>  <SCORE.RESTR.CAVITY>
0.828689

>  <SCORE.RESTR.norm>
0.0207172

>  <SCORE.SYSTEM>
0

>  <SCORE.SYSTEM.CONST>
0

>  <SCORE.SYSTEM.DIHEDRAL>
0

>  <SCORE.SYSTEM.SOLV>
0

>  <SCORE.SYSTEM.norm>
0

>  <SCORE.heavy>
40

>  <SCORE.norm>
-0.34423

>  <RMSD>
19.368

$$$$
1nta_lig
 OpenBabel11021811403D
libRbt.so/2013.1/901 2013/11/27
 40 42  0  0  0  0  0  0  0  0999 V2000
   20.3861   21.2667   -3.5982 C   0  0  0  0  0  0  0  0  0  0  0  0
   19.6854   20.2018   -3.4750 N   0  0  0  0  0  0  0  0  0  0  0  0
   19.1635   29.1031    2.2990 C   0  0  0  0  0  0  0  0  0  0  0  0
   19.1144   29.9012    3.2089 O   0  0  0  0  0  0  0  0  0  0  0  0
   16.3520   26.0485   -2.3052 C   0  0  0  0  0  0  0  0  0  0  0  0
   16.8965   27.0754   -2.9041 N   0  0  0  0  0  0  0  0  0  0  0  0
   22.2750   28.0579    1.7629 C   0  0  0  0  0  0  0  0  0  0  0  0
   18.3967   32.7093    2.5683 C   0  0  0  0  0  0  0  0  0  0  0  0
   19.6740   23.3551   -2.7426 C   0  0  2  0  0  0  0  0  0  0  0  0
   19.7073   22.3658   -3.8912 N   0  0  0  0  0  0  0  0  0  0  0  0
   19.8985   28.1432   -0.9270 C   0  0  2  0  0  0  0  0  0  0  0  0
   18.1504   31.1732   -0.5448 C   0  0  1  0  0  0  0  0  0  0  0  0
   19.2621   30.3955   -0.8218 O   0  0  0  0  0  0  0  0  0  0  0  0
   18.2481   23.9099   -2.5635 C   0  0  1  0  0  0  0  0  0  0  0  0
   17.4290   22.8344   -2.2167 O   0  0  0  0  0  0  0  0  0  0  0  0
   19.2946   29.2809   -0.1108 C   0  0  2  0  0  0  0  0  0  0  0  0
   18.4177   32.4174    0.2733 C   0  0  1  0  0  0  0  0  0  0  0  0
   19.0790   32.0392    1.4740 N   0  0  0  0  0  0  0  0  0  0  0  0
   18.1596   24.9367   -1.4265 C   0  0  2  0  0  0  0  0  0  0  0  0
   16.8008   25.4958   -1.2287 N   0  0  0  0  0  0  0  0  0  0  0  0
   20.0914   29.1998    1.1178 C   0  0  1  0  0  0  0  0  0  0  0  0
   20.9090   30.3707    1.1702 O   0  0  0  0  0  0  0  0  0  0  0  0
   19.2217   33.3097   -0.4221 C   0  0  2  0  0  0  0  0  0  0  0  0
   19.1814   34.5385    0.2586 O   0  0  0  0  0  0  0  0  0  0  0  0
   19.1242   26.0698   -1.7387 C   0  0  1  0  0  0  0  0  0  0  0  0
   19.0409   27.0142   -0.6829 O   0  0  0  0  0  0  0  0  0  0  0  0
   20.9677   28.0248    1.0336 C   0  0  1  0  0  0  0  0  0  0  0  0
   21.1517   27.8310   -0.3634 O   0  0  0  0  0  0  0  0  0  0  0  0
   18.7069   33.4953   -1.8253 C   0  0  1  0  0  0  0  0  0  0  0  0
   19.6581   34.1993   -2.5683 O   0  0  0  0  0  0  0  0  0  0  0  0
   20.5724   25.5197   -1.8763 C   0  0  2  0  0  0  0  0  0  0  0  0
   21.4631   26.5978   -2.1584 O   0  0  0  0  0  0  0  0  0  0  0  0
   18.5020   32.1654   -2.4671 C   0  0  1  0  0  0  0  0  0  0  0  0
   17.5464   31.4715   -1.7183 O   0  0  0  0  0  0  0  0  0  0  0  0
   20.6206   24.5002   -3.0336 C   0  0  1  0  0  0  0  0  0  0  0  0
   21.9525   23.9804   -3.1776 O   0  0  0  0  0  0  0  0  0  0  0  0
   17.9554   32.3131   -3.9008 C   0  0  0  0  0  0  0  0  0  0  0  0
   18.8586   33.1020   -4.6670 O   0  0  0  0  0  0  0  0  0  0  0  0
   21.6671   21.2725   -3.4527 N   0  0  0  0  0  0  0  0  0  0  0  0
   15.2819   25.5366   -2.7735 N   0  0  0  0  0  0  0  0  0  0  0  0
  1  2  1  0  0  0  0
  1 39  1  0  0  0  0
  3  4  1  0  0  0  0
  5  6  1  0  0  0  0
  5 40  1  0  0  0  0
  9 10  1  6  0  0  0
  9 14  1  0  0  0  0
  9 35  1  0  0  0  0
 10  1  1  0  0  0  0
 11 16  1  0  0  0  0
 11 28  1  0  0  0  0
 11 26  1  1  0  0  0
 12 17  1  0  0  0  0
 12 34  1  0  0  0  0
 12 13  1  6  0  0  0
 14 15  1  1  0  0  0
 14 19  1  0  0  0  0
 16 13  1  6  0  0  0
 16 21  1  0  0  0  0
 17 18  1  1  0  0  0
 17 23  1  0  0  0  0
 18  8  1  0  0  0  0
 19 20  1  6  0  0  0
 19 25  1  0  0  0  0
 20  5  1  0  0  0  0
 21  3  1  1  0  0  0
 21 22  1  0  0  0  0
 21 27  1  0  0  0  0
 23 24  1  1  0  0  0
 23 29  1  0  0  0  0
 25 26  1  1  0  0  0
 25 31  1  0  0  0  0
 27  7  1  1  0  0  0
 27 28  1  0  0  0  0
 29 30  1  6  0  0  0
 29 33  1  0  0  0  0
 31 32  1  6  0  0  0
 31 35  1  0  0  0  0
 33 34  1  0  0  0  0
 33 37  1  6  0  0  0
 35 36  1  1  0  0  0
 37 38  1  0  0  0  0
M  END
>  <CHROM.1>
-135.21619518,110.50401859,156.27430873,106.22651423,145.11576514,-132.28457548
-57.20918164,-61.94311241,-119.71532065,-178.18719360,57.74262839,19.24189186
28.09927314,-1.24430447,1.45399058,1.05611140,-2.78375966

>  <Name>
1nta_lig

>  <RI>
0

>  <Rbt.Current_Directory>
/home/itssahil/PROJECTS/Mol_Feturizer/New_Systems/rnas/1nta

>  <Rbt.Executable>
rbdock ($Id: //depot/dev/client3/rdock/2013.1/src/exe/rbdock.cxx#4 $)

>  <Rbt.Library>
libRbt.so (2013.1, Build901 2013/11/27)

>  <Rbt.Parameter_File>
/export/apps/rDock/src/rDock_2013.1_src/data/scripts/dock_solv.prm

>  <Rbt.Receptor>
prm/blind_docking_60.prm

>  <SCORE>
-8.75282

>  <SCORE.INTER>
-4.96391

>  <SCORE.INTER.CONST>
1

>  <SCORE.INTER.POLAR>
0

>  <SCORE.INTER.ROT>
11

>  <SCORE.INTER.SOLV>
14.7608

>  <SCORE.INTER.VDW>
-19.1629

>  <SCORE.INTER.norm>
-0.124098

>  <SCORE.INTRA>
-6.37998

>  <SCORE.INTRA.DIHEDRAL>
2.58775

>  <SCORE.INTRA.DIHEDRAL.0>
19.0336

>  <SCORE.INTRA.POLAR>
0

>  <SCORE.INTRA.POLAR.0>
0

>  <SCORE.INTRA.REPUL>
0

>  <SCORE.INTRA.REPUL.0>
0

>  <SCORE.INTRA.SOLV>
-0.336087

>  <SCORE.INTRA.SOLV.lig_0>
-97.5861

>  <SCORE.INTRA.VDW>
-7.50581

>  <SCORE.INTRA.VDW.0>
11.7669

>  <SCORE.INTRA.norm>
-0.159499

>  <SCORE.RESTR>
2.59106

>  <SCORE.RESTR.CAVITY>
2.59106

>  <SCORE.RESTR.norm>
0.0647766

>  <SCORE.SYSTEM>
0

>  <SCORE.SYSTEM.CONST>
0

>  <SCORE.SYSTEM.DIHEDRAL>
0

>  <SCORE.SYSTEM.SOLV>
0

>  <SCORE.SYSTEM.norm>
0

>  <SCORE.heavy>
40

>  <SCORE.norm>
-0.218821

>  <RMSD>
19.425

$$$$
1nta_lig
 OpenBabel11021811403D
libRbt.so/2013.1/901 2013/11/27
 40 42  0  0  0  0  0  0  0  0999 V2000
   17.7839   21.9417   -0.6572 C   0  0  0  0  0  0  0  0  0  0  0  0
   17.9153   21.1508    0.3414 N   0  0  0  0  0  0  0  0  0  0  0  0
   18.2232   28.5338    0.9483 C   0  0  0  0  0  0  0  0  0  0  0  0
   17.7493   27.9720    1.9112 O   0  0  0  0  0  0  0  0  0  0  0  0
   22.2970   24.7064   -1.8641 C   0  0  0  0  0  0  0  0  0  0  0  0
   22.8758   23.7286   -1.2169 N   0  0  0  0  0  0  0  0  0  0  0  0
   20.9607   26.8922    1.8826 C   0  0  0  0  0  0  0  0  0  0  0  0
   20.8756   32.8936    2.3173 C   0  0  0  0  0  0  0  0  0  0  0  0
   17.9538   24.2374   -1.2062 C   0  0  2  0  0  0  0  0  0  0  0  0
   17.3107   23.1459   -0.3731 N   0  0  0  0  0  0  0  0  0  0  0  0
   20.8726   28.6422   -1.2511 C   0  0  2  0  0  0  0  0  0  0  0  0
   19.4003   31.6336    0.1349 C   0  0  1  0  0  0  0  0  0  0  0  0
   20.2935   30.7822   -0.4934 O   0  0  0  0  0  0  0  0  0  0  0  0
   19.4459   24.3677   -0.8466 C   0  0  1  0  0  0  0  0  0  0  0  0
   20.0582   23.1610   -1.1886 O   0  0  0  0  0  0  0  0  0  0  0  0
   19.8727   29.5285   -0.5164 C   0  0  2  0  0  0  0  0  0  0  0  0
   19.8502   33.0733    0.2511 C   0  0  1  0  0  0  0  0  0  0  0  0
   21.1155   33.1039    0.8994 N   0  0  0  0  0  0  0  0  0  0  0  0
   20.1444   25.4767   -1.6447 C   0  0  2  0  0  0  0  0  0  0  0  0
   21.5825   25.6335   -1.3203 N   0  0  0  0  0  0  0  0  0  0  0  0
   19.6926   28.7766    0.7298 C   0  0  1  0  0  0  0  0  0  0  0  0
   20.2717   29.5532    1.7804 O   0  0  0  0  0  0  0  0  0  0  0  0
   19.9705   33.6619   -1.0000 C   0  0  2  0  0  0  0  0  0  0  0  0
   20.0962   35.0484   -0.8078 O   0  0  0  0  0  0  0  0  0  0  0  0
   19.4241   26.7856   -1.3623 C   0  0  1  0  0  0  0  0  0  0  0  0
   20.0715   27.8066   -2.1053 O   0  0  0  0  0  0  0  0  0  0  0  0
   20.4301   27.5113    0.6268 C   0  0  1  0  0  0  0  0  0  0  0  0
   21.4722   27.7939   -0.2991 O   0  0  0  0  0  0  0  0  0  0  0  0
   18.7477   33.3786   -1.8324 C   0  0  1  0  0  0  0  0  0  0  0  0
   18.9953   33.7704   -3.1506 O   0  0  0  0  0  0  0  0  0  0  0  0
   17.9264   26.6724   -1.7658 C   0  0  2  0  0  0  0  0  0  0  0  0
   17.2708   27.9120   -1.5034 O   0  0  0  0  0  0  0  0  0  0  0  0
   18.4606   31.9157   -1.8247 C   0  0  1  0  0  0  0  0  0  0  0  0
   18.2109   31.5355   -0.5024 O   0  0  0  0  0  0  0  0  0  0  0  0
   17.2597   25.5554   -0.9357 C   0  0  1  0  0  0  0  0  0  0  0  0
   15.8733   25.4357   -1.2938 O   0  0  0  0  0  0  0  0  0  0  0  0
   17.2016   31.5873   -2.6513 C   0  0  0  0  0  0  0  0  0  0  0  0
   17.5935   31.1579   -3.9502 O   0  0  0  0  0  0  0  0  0  0  0  0
   18.0858   21.5921   -1.8609 N   0  0  0  0  0  0  0  0  0  0  0  0
   22.4423   24.8027   -3.1274 N   0  0  0  0  0  0  0  0  0  0  0  0
  1  2  1  0  0  0  0
  1 39  1  0  0  0  0
  3  4  1  0  0  0  0
  5  6  1  0  0  0  0
  5 40  1  0  0  0  0
  9 10  1  1  0  0  0
  9 14  1  0  0  0  0
  9 35  1  0  0  0  0
 10  1  1  0  0  0  0
 11 16  1  0  0  0  0
 11 28  1  0  0  0  0
 11 26  1  6  0  0  0
 12 17  1  0  0  0  0
 12 34  1  0  0  0  0
 12 13  1  6  0  0  0
 14 15  1  6  0  0  0
 14 19  1  0  0  0  0
 16 13  1  1  0  0  0
 16 21  1  0  0  0  0
 17 18  1  6  0  0  0
 17 23  1  0  0  0  0
 18  8  1  0  0  0  0
 19 20  1  1  0  0  0
 19 25  1  0  0  0  0
 20  5  1  0  0  0  0
 21  3  1  1  0  0  0
 21 22  1  0  0  0  0
 21 27  1  0  0  0  0
 23 24  1  1  0  0  0
 23 29  1  0  0  0  0
 25 26  1  6  0  0  0
 25 31  1  0  0  0  0
 27  7  1  1  0  0  0
 27 28  1  0  0  0  0
 29 30  1  6  0  0  0
 29 33  1  0  0  0  0
 31 32  1  1  0  0  0
 31 35  1  0  0  0  0
 33 34  1  0  0  0  0
 33 37  1  6  0  0  0
 35 36  1  6  0  0  0
 37 38  1  0  0  0  0
M  END
>  <CHROM.1>
-66.08959869,142.82864693,-75.43033996,177.34362243,178.44841905,-76.83629346
76.60024016,-108.92932442,-177.77407860,-105.42041157,97.75902743,19.39025283
28.12863267,-0.76555958,1.61224799,0.41155542,-3.12905477

>  <Name>
1nta_lig

>  <RI>
0

>  <Rbt.Current_Directory>
/home/itssahil/PROJECTS/Mol_Feturizer/New_Systems/rnas/1nta

>  <Rbt.Executable>
rbdock ($Id: //depot/dev/client3/rdock/2013.1/src/exe/rbdock.cxx#4 $)

>  <Rbt.Library>
libRbt.so (2013.1, Build901 2013/11/27)

>  <Rbt.Parameter_File>
/export/apps/rDock/src/rDock_2013.1_src/data/scripts/dock_solv.prm

>  <Rbt.Receptor>
prm/blind_docking_60.prm

>  <SCORE>
-18.9936

>  <SCORE.INTER>
-19.0087

>  <SCORE.INTER.CONST>
1

>  <SCORE.INTER.POLAR>
-2.65987

>  <SCORE.INTER.ROT>
11

>  <SCORE.INTER.SOLV>
25.0207

>  <SCORE.INTER.VDW>
-23.0798

>  <SCORE.INTER.norm>
-0.475217

>  <SCORE.INTRA>
-0.272885

>  <SCORE.INTRA.DIHEDRAL>
-6.35218

>  <SCORE.INTRA.DIHEDRAL.0>
19.0336

>  <SCORE.INTRA.POLAR>
0

>  <SCORE.INTRA.POLAR.0>
0

>  <SCORE.INTRA.REPUL>
0

>  <SCORE.INTRA.REPUL.0>
0

>  <SCORE.INTRA.SOLV>
-1.04011

>  <SCORE.INTRA.SOLV.lig_0>
-97.5861

>  <SCORE.INTRA.VDW>
3.42326

>  <SCORE.INTRA.VDW.0>
11.7669

>  <SCORE.INTRA.norm>
-0.00682214

>  <SCORE.RESTR>
0.28795

>  <SCORE.RESTR.CAVITY>
0.28795

>  <SCORE.RESTR.norm>
0.00719875

>  <SCORE.SYSTEM>
0

>  <SCORE.SYSTEM.CONST>
0

>  <SCORE.SYSTEM.DIHEDRAL>
0

>  <SCORE.SYSTEM.SOLV>
0

>  <SCORE.SYSTEM.norm>
0

>  <SCORE.heavy>
40

>  <SCORE.norm>
-0.47484

>  <RMSD>
19.561

$$$$
1nta_lig
 OpenBabel11021811403D
libRbt.so/2013.1/901 2013/11/27
 40 42  0  0  0  0  0  0  0  0999 V2000
   21.6571   21.7823   -3.2904 C   0  0  0  0  0  0  0  0  0  0  0  0
   20.8660   22.1317   -4.2350 N   0  0  0  0  0  0  0  0  0  0  0  0
   18.9072   29.0788    1.5394 C   0  0  0  0  0  0  0  0  0  0  0  0
   18.3527   28.0781    1.9372 O   0  0  0  0  0  0  0  0  0  0  0  0
   19.0070   23.7202    0.5637 C   0  0  0  0  0  0  0  0  0  0  0  0
   18.0874   23.4494   -0.3256 N   0  0  0  0  0  0  0  0  0  0  0  0
   22.0909   28.2423    1.0643 C   0  0  0  0  0  0  0  0  0  0  0  0
   15.8471   29.0884    0.0055 C   0  0  0  0  0  0  0  0  0  0  0  0
   21.9451   23.9792   -2.4591 C   0  0  2  0  0  0  0  0  0  0  0  0
   22.5645   22.6828   -2.9435 N   0  0  0  0  0  0  0  0  0  0  0  0
   19.7033   27.8877   -1.5936 C   0  0  2  0  0  0  0  0  0  0  0  0
   17.5740   30.3068   -2.0665 C   0  0  1  0  0  0  0  0  0  0  0  0
   18.8867   30.0816   -1.6876 O   0  0  0  0  0  0  0  0  0  0  0  0
   21.1486   23.7334   -1.1637 C   0  0  1  0  0  0  0  0  0  0  0  0
   22.0604   23.3141   -0.1937 O   0  0  0  0  0  0  0  0  0  0  0  0
   19.0127   29.0435   -0.8779 C   0  0  2  0  0  0  0  0  0  0  0  0
   16.7044   30.9746   -1.0241 C   0  0  1  0  0  0  0  0  0  0  0  0
   16.7583   30.2082    0.1725 N   0  0  0  0  0  0  0  0  0  0  0  0
   20.4784   25.0102   -0.6390 C   0  0  2  0  0  0  0  0  0  0  0  0
   19.6983   24.8093    0.6057 N   0  0  0  0  0  0  0  0  0  0  0  0
   19.8190   29.1405    0.3434 C   0  0  1  0  0  0  0  0  0  0  0  0
   20.5390   30.3731    0.2786 O   0  0  0  0  0  0  0  0  0  0  0  0
   17.1465   32.2623   -0.7547 C   0  0  2  0  0  0  0  0  0  0  0  0
   16.1405   32.9129   -0.0202 O   0  0  0  0  0  0  0  0  0  0  0  0
   19.5555   25.5386   -1.7258 C   0  0  1  0  0  0  0  0  0  0  0  0
   18.9413   26.7207   -1.2369 O   0  0  0  0  0  0  0  0  0  0  0  0
   20.7874   28.0370    0.3567 C   0  0  1  0  0  0  0  0  0  0  0  0
   20.9802   27.7306   -1.0188 O   0  0  0  0  0  0  0  0  0  0  0  0
   17.3954   33.0103   -2.0381 C   0  0  1  0  0  0  0  0  0  0  0  0
   18.0612   34.2036   -1.7461 O   0  0  0  0  0  0  0  0  0  0  0  0
   20.3640   25.8303   -3.0219 C   0  0  2  0  0  0  0  0  0  0  0  0
   19.4838   26.3345   -4.0251 O   0  0  0  0  0  0  0  0  0  0  0  0
   18.2646   32.1966   -2.9353 C   0  0  1  0  0  0  0  0  0  0  0  0
   17.5876   31.0075   -3.2238 O   0  0  0  0  0  0  0  0  0  0  0  0
   21.0127   24.5222   -3.5211 C   0  0  1  0  0  0  0  0  0  0  0  0
   21.7645   24.7710   -4.7201 O   0  0  0  0  0  0  0  0  0  0  0  0
   18.5263   32.9213   -4.2704 C   0  0  0  0  0  0  0  0  0  0  0  0
   19.4313   33.9970   -4.0493 O   0  0  0  0  0  0  0  0  0  0  0  0
   21.5824   20.6305   -2.7161 N   0  0  0  0  0  0  0  0  0  0  0  0
   19.2563   22.8820    1.4920 N   0  0  0  0  0  0  0  0  0  0  0  0
  1  2  1  0  0  0  0
  1 39  1  0  0  0  0
  3  4  1  0  0  0  0
  5  6  1  0  0  0  0
  5 40  1  0  0  0  0
  9 10  1  6  0  0  0
  9 14  1  0  0  0  0
  9 35  1  0  0  0  0
 10  1  1  0  0  0  0
 11 16  1  0  0  0  0
 11 28  1  0  0  0  0
 11 26  1  1  0  0  0
 12 17  1  0  0  0  0
 12 34  1  0  0  0  0
 12 13  1  1  0  0  0
 14 15  1  1  0  0  0
 14 19  1  0  0  0  0
 16 13  1  6  0  0  0
 16 21  1  0  0  0  0
 17 18  1  1  0  0  0
 17 23  1  0  0  0  0
 18  8  1  0  0  0  0
 19 20  1  1  0  0  0
 19 25  1  0  0  0  0
 20  5  1  0  0  0  0
 21  3  1  1  0  0  0
 21 22  1  0  0  0  0
 21 27  1  0  0  0  0
 23 24  1  1  0  0  0
 23 29  1  0  0  0  0
 25 26  1  1  0  0  0
 25 31  1  0  0  0  0
 27  7  1  6  0  0  0
 27 28  1  0  0  0  0
 29 30  1  1  0  0  0
 29 33  1  0  0  0  0
 31 32  1  6  0  0  0
 31 35  1  0  0  0  0
 33 34  1  0  0  0  0
 33 37  1  6  0  0  0
 35 36  1  6  0  0  0
 37 38  1  0  0  0  0
M  END
>  <CHROM.1>
64.38577801,60.04124806,-173.95884905,77.13577641,109.53831852,-80.25398458
-42.35289426,-59.67669086,73.56895316,91.75527804,73.15586274,19.44158343
27.63560062,-1.38211541,-0.68969100,1.12189003,-0.79019244

>  <Name>
1nta_lig

>  <RI>
2.40834e+07

>  <Rbt.Current_Directory>
/home/itssahil/PROJECTS/Mol_Feturizer/New_Systems/rnas/1nta

>  <Rbt.Executable>
rbdock ($Id: //depot/dev/client3/rdock/2013.1/src/exe/rbdock.cxx#4 $)

>  <Rbt.Library>
libRbt.so (2013.1, Build901 2013/11/27)

>  <Rbt.Parameter_File>
/export/apps/rDock/src/rDock_2013.1_src/data/scripts/dock_solv.prm

>  <Rbt.Receptor>
prm/blind_docking_80.prm

>  <SCORE>
-23.9407

>  <SCORE.INTER>
-18.7301

>  <SCORE.INTER.CONST>
1

>  <SCORE.INTER.POLAR>
-2.38358

>  <SCORE.INTER.ROT>
11

>  <SCORE.INTER.SOLV>
20.3473

>  <SCORE.INTER.VDW>
-22.2572

>  <SCORE.INTER.norm>
-0.468252

>  <SCORE.INTRA>
-6.54091

>  <SCORE.INTRA.DIHEDRAL>
-3.39287

>  <SCORE.INTRA.DIHEDRAL.0>
19.0336

>  <SCORE.INTRA.POLAR>
0

>  <SCORE.INTRA.POLAR.0>
0

>  <SCORE.INTRA.REPUL>
0

>  <SCORE.INTRA.REPUL.0>
0

>  <SCORE.INTRA.SOLV>
1.73377

>  <SCORE.INTRA.SOLV.lig_0>
-97.5861

>  <SCORE.INTRA.VDW>
-5.71136

>  <SCORE.INTRA.VDW.0>
11.7669

>  <SCORE.INTRA.norm>
-0.163523

>  <SCORE.RESTR>
1.33027

>  <SCORE.RESTR.CAVITY>
1.33027

>  <SCORE.RESTR.norm>
0.0332566

>  <SCORE.SYSTEM>
0

>  <SCORE.SYSTEM.CONST>
0

>  <SCORE.SYSTEM.DIHEDRAL>
0

>  <SCORE.SYSTEM.SOLV>
0

>  <SCORE.SYSTEM.norm>
0

>  <SCORE.heavy>
40

>  <SCORE.norm>
-0.598518

>  <RMSD>
19.583

$$$$
1nta_lig
 OpenBabel11021811403D
libRbt.so/2013.1/901 2013/11/27
 40 42  0  0  0  0  0  0  0  0999 V2000
   17.8544   34.7204   -0.2710 C   0  0  0  0  0  0  0  0  0  0  0  0
   17.2917   34.5521    0.8670 N   0  0  0  0  0  0  0  0  0  0  0  0
   20.6599   26.4062    2.6708 C   0  0  0  0  0  0  0  0  0  0  0  0
   21.6242   27.1257    2.5305 O   0  0  0  0  0  0  0  0  0  0  0  0
   17.7643   30.3162   -2.3304 C   0  0  0  0  0  0  0  0  0  0  0  0
   17.3132   30.9379   -3.3885 N   0  0  0  0  0  0  0  0  0  0  0  0
   17.9437   27.8789    3.9017 C   0  0  0  0  0  0  0  0  0  0  0  0
   22.5345   24.3337   -1.4553 C   0  0  0  0  0  0  0  0  0  0  0  0
   19.7440   33.3009   -0.1484 C   0  0  2  0  0  0  0  0  0  0  0  0
   19.1789   34.7034   -0.2608 N   0  0  0  0  0  0  0  0  0  0  0  0
   18.7261   28.1400    0.4074 C   0  0  2  0  0  0  0  0  0  0  0  0
   19.4135   25.8632   -1.4091 C   0  0  1  0  0  0  0  0  0  0  0  0
   18.8618   25.8658   -0.1389 O   0  0  0  0  0  0  0  0  0  0  0  0
   19.0936   32.3827   -1.2004 C   0  0  1  0  0  0  0  0  0  0  0  0
   19.4477   32.8799   -2.4556 O   0  0  0  0  0  0  0  0  0  0  0  0
   19.3922   26.7891    0.6454 C   0  0  2  0  0  0  0  0  0  0  0  0
   20.2619   24.6564   -1.7444 C   0  0  1  0  0  0  0  0  0  0  0  0
   21.2750   24.5233   -0.7554 N   0  0  0  0  0  0  0  0  0  0  0  0
   19.6121   30.9408   -1.1175 C   0  0  2  0  0  0  0  0  0  0  0  0
   19.0034   30.0270   -2.1137 N   0  0  0  0  0  0  0  0  0  0  0  0
   19.2922   26.6791    2.1044 C   0  0  1  0  0  0  0  0  0  0  0  0
   18.3721   25.6230    2.3874 O   0  0  0  0  0  0  0  0  0  0  0  0
   19.4975   23.4982   -1.7650 C   0  0  2  0  0  0  0  0  0  0  0  0
   20.2706   22.4885   -2.3633 O   0  0  0  0  0  0  0  0  0  0  0  0
   19.3251   30.4165    0.2806 C   0  0  1  0  0  0  0  0  0  0  0  0
   19.8096   29.0847    0.3528 O   0  0  0  0  0  0  0  0  0  0  0  0
   18.7386   27.9317    2.6339 C   0  0  1  0  0  0  0  0  0  0  0  0
   17.9715   28.4529    1.5556 O   0  0  0  0  0  0  0  0  0  0  0  0
   18.2421   23.7129   -2.5689 C   0  0  1  0  0  0  0  0  0  0  0  0
   17.3870   22.6250   -2.3745 O   0  0  0  0  0  0  0  0  0  0  0  0
   20.0174   31.3157    1.3440 C   0  0  2  0  0  0  0  0  0  0  0  0
   19.7455   30.8023    2.6470 O   0  0  0  0  0  0  0  0  0  0  0  0
   17.5468   24.9448   -2.0984 C   0  0  1  0  0  0  0  0  0  0  0  0
   18.4093   26.0268   -2.3009 O   0  0  0  0  0  0  0  0  0  0  0  0
   19.4626   32.7514    1.2339 C   0  0  1  0  0  0  0  0  0  0  0  0
   20.0901   33.5987    2.2103 O   0  0  0  0  0  0  0  0  0  0  0  0
   16.2647   25.2103   -2.9121 C   0  0  0  0  0  0  0  0  0  0  0  0
   15.7153   26.4642   -2.5237 O   0  0  0  0  0  0  0  0  0  0  0  0
   17.1812   34.8997   -1.3559 N   0  0  0  0  0  0  0  0  0  0  0  0
   16.9561   29.9713   -1.4061 N   0  0  0  0  0  0  0  0  0  0  0  0
  1  2  1  0  0  0  0
  1 39  1  0  0  0  0
  3  4  1  0  0  0  0
  5  6  1  0  0  0  0
  5 40  1  0  0  0  0
  9 10  1  1  0  0  0
  9 14  1  0  0  0  0
  9 35  1  0  0  0  0
 10  1  1  0  0  0  0
 11 16  1  0  0  0  0
 11 28  1  0  0  0  0
 11 26  1  1  0  0  0
 12 17  1  0  0  0  0
 12 34  1  0  0  0  0
 12 13  1  1  0  0  0
 14 15  1  6  0  0  0
 14 19  1  0  0  0  0
 16 13  1  6  0  0  0
 16 21  1  0  0  0  0
 17 18  1  1  0  0  0
 17 23  1  0  0  0  0
 18  8  1  0  0  0  0
 19 20  1  6  0  0  0
 19 25  1  0  0  0  0
 20  5  1  0  0  0  0
 21  3  1  1  0  0  0
 21 22  1  0  0  0  0
 21 27  1  0  0  0  0
 23 24  1  6  0  0  0
 23 29  1  0  0  0  0
 25 26  1  6  0  0  0
 25 31  1  0  0  0  0
 27  7  1  1  0  0  0
 27 28  1  0  0  0  0
 29 30  1  1  0  0  0
 29 33  1  0  0  0  0
 31 32  1  1  0  0  0
 31 35  1  0  0  0  0
 33 34  1  0  0  0  0
 33 37  1  6  0  0  0
 35 36  1  1  0  0  0
 37 38  1  0  0  0  0
M  END
>  <CHROM.1>
50.43837978,76.84399883,-173.57248135,110.97264651,83.17199097,-131.72160888
-35.39716710,103.73401503,58.89809800,-109.27047462,-173.92806054,18.93444784
28.51925057,-0.30310873,1.66880944,-1.13060143,0.23600857

>  <Name>
1nta_lig

>  <RI>
0

>  <Rbt.Current_Directory>
/home/itssahil/PROJECTS/Mol_Feturizer/New_Systems/rnas/1nta

>  <Rbt.Executable>
rbdock ($Id: //depot/dev/client3/rdock/2013.1/src/exe/rbdock.cxx#4 $)

>  <Rbt.Library>
libRbt.so (2013.1, Build901 2013/11/27)

>  <Rbt.Parameter_File>
/export/apps/rDock/src/rDock_2013.1_src/data/scripts/dock_solv.prm

>  <Rbt.Receptor>
prm/blind_docking_60.prm

>  <SCORE>
-18.4143

>  <SCORE.INTER>
-8.07513

>  <SCORE.INTER.CONST>
1

>  <SCORE.INTER.POLAR>
-1.56296

>  <SCORE.INTER.ROT>
11

>  <SCORE.INTER.SOLV>
18.0049

>  <SCORE.INTER.VDW>
-17.1085

>  <SCORE.INTER.norm>
-0.201878

>  <SCORE.INTRA>
-12.8116

>  <SCORE.INTRA.DIHEDRAL>
-0.0660201

>  <SCORE.INTRA.DIHEDRAL.0>
19.0336

>  <SCORE.INTRA.POLAR>
0

>  <SCORE.INTRA.POLAR.0>
0

>  <SCORE.INTRA.REPUL>
0.121206

>  <SCORE.INTRA.REPUL.0>
0

>  <SCORE.INTRA.SOLV>
1.1107

>  <SCORE.INTRA.SOLV.lig_0>
-97.5861

>  <SCORE.INTRA.VDW>
-13.94

>  <SCORE.INTRA.VDW.0>
11.7669

>  <SCORE.INTRA.norm>
-0.32029

>  <SCORE.RESTR>
2.47239

>  <SCORE.RESTR.CAVITY>
2.47239

>  <SCORE.RESTR.norm>
0.0618098

>  <SCORE.SYSTEM>
0

>  <SCORE.SYSTEM.CONST>
0

>  <SCORE.SYSTEM.DIHEDRAL>
0

>  <SCORE.SYSTEM.SOLV>
0

>  <SCORE.SYSTEM.norm>
0

>  <SCORE.heavy>
40

>  <SCORE.norm>
-0.460358

>  <RMSD>
19.590

$$$$
1nta_lig
 OpenBabel11021811403D
libRbt.so/2013.1/901 2013/11/27
 40 42  0  0  0  0  0  0  0  0999 V2000
   21.1866   21.5517   -3.5485 C   0  0  0  0  0  0  0  0  0  0  0  0
   22.3801   21.3755   -3.1188 N   0  0  0  0  0  0  0  0  0  0  0  0
   18.9742   28.8887    2.8221 C   0  0  0  0  0  0  0  0  0  0  0  0
   19.1318   28.5830    3.9835 O   0  0  0  0  0  0  0  0  0  0  0  0
   16.9867   25.7012   -2.4382 C   0  0  0  0  0  0  0  0  0  0  0  0
   16.0113   25.0130   -2.9719 N   0  0  0  0  0  0  0  0  0  0  0  0
   22.2055   28.1015    2.8030 C   0  0  0  0  0  0  0  0  0  0  0  0
   16.6489   28.3312   -0.8390 C   0  0  0  0  0  0  0  0  0  0  0  0
   20.6299   23.6475   -2.6008 C   0  0  2  0  0  0  0  0  0  0  0  0
   20.8633   22.8032   -3.8383 N   0  0  0  0  0  0  0  0  0  0  0  0
   20.3448   28.2134   -0.2656 C   0  0  2  0  0  0  0  0  0  0  0  0
   18.7153   30.3934   -1.2757 C   0  0  1  0  0  0  0  0  0  0  0  0
   19.5203   30.4033   -0.1490 O   0  0  0  0  0  0  0  0  0  0  0  0
   19.1675   24.1296   -2.5575 C   0  0  1  0  0  0  0  0  0  0  0  0
   18.3631   22.9940   -2.4502 O   0  0  0  0  0  0  0  0  0  0  0  0
   19.5159   29.2459    0.4909 C   0  0  2  0  0  0  0  0  0  0  0  0
   17.2346   30.5625   -1.0154 C   0  0  1  0  0  0  0  0  0  0  0  0
   16.8183   29.5655   -0.0908 N   0  0  0  0  0  0  0  0  0  0  0  0
   18.8790   25.0108   -1.3347 C   0  0  2  0  0  0  0  0  0  0  0  0
   17.4803   25.4971   -1.2632 N   0  0  0  0  0  0  0  0  0  0  0  0
   20.0861   29.1329    1.8373 C   0  0  1  0  0  0  0  0  0  0  0  0
   20.7842   30.3507    2.1051 O   0  0  0  0  0  0  0  0  0  0  0  0
   16.9605   31.8141   -0.4821 C   0  0  2  0  0  0  0  0  0  0  0  0
   15.5702   32.0088   -0.5457 O   0  0  0  0  0  0  0  0  0  0  0  0
   19.8199   26.2042   -1.3814 C   0  0  1  0  0  0  0  0  0  0  0  0
   19.5515   27.0135   -0.2471 O   0  0  0  0  0  0  0  0  0  0  0  0
   21.0553   28.0302    1.8469 C   0  0  1  0  0  0  0  0  0  0  0  0
   21.4992   27.9493    0.4981 O   0  0  0  0  0  0  0  0  0  0  0  0
   17.6552   32.8870   -1.2790 C   0  0  1  0  0  0  0  0  0  0  0  0
   17.5623   34.0978   -0.5878 O   0  0  0  0  0  0  0  0  0  0  0  0
   21.2987   25.7226   -1.3803 C   0  0  2  0  0  0  0  0  0  0  0  0
   22.1652   26.8555   -1.4138 O   0  0  0  0  0  0  0  0  0  0  0  0
   19.0982   32.5455   -1.4334 C   0  0  1  0  0  0  0  0  0  0  0  0
   19.1795   31.3352   -2.1290 O   0  0  0  0  0  0  0  0  0  0  0  0
   21.5496   24.8498   -2.6278 C   0  0  1  0  0  0  0  0  0  0  0  0
   22.9126   24.3952   -2.6455 O   0  0  0  0  0  0  0  0  0  0  0  0
   19.8410   33.6120   -2.2623 C   0  0  0  0  0  0  0  0  0  0  0  0
   19.1760   33.7826   -3.5088 O   0  0  0  0  0  0  0  0  0  0  0  0
   20.3506   20.5800   -3.6866 N   0  0  0  0  0  0  0  0  0  0  0  0
   17.5367   26.6402   -3.1032 N   0  0  0  0  0  0  0  0  0  0  0  0
  1  2  1  0  0  0  0
  1 39  1  0  0  0  0
  3  4  1  0  0  0  0
  5  6  1  0  0  0  0
  5 40  1  0  0  0  0
  9 10  1  6  0  0  0
  9 14  1  0  0  0  0
  9 35  1  0  0  0  0
 10  1  1  0  0  0  0
 11 16  1  0  0  0  0
 11 28  1  0  0  0  0
 11 26  1  1  0  0  0
 12 17  1  0  0  0  0
 12 34  1  0  0  0  0
 12 13  1  1  0  0  0
 14 15  1  1  0  0  0
 14 19  1  0  0  0  0
 16 13  1  6  0  0  0
 16 21  1  0  0  0  0
 17 18  1  1  0  0  0
 17 23  1  0  0  0  0
 18  8  1  0  0  0  0
 19 20  1  6  0  0  0
 19 25  1  0  0  0  0
 20  5  1  0  0  0  0
 21  3  1  1  0  0  0
 21 22  1  0  0  0  0
 21 27  1  0  0  0  0
 23 24  1  6  0  0  0
 23 29  1  0  0  0  0
 25 26  1  1  0  0  0
 25 31  1  0  0  0  0
 27  7  1  1  0  0  0
 27 28  1  0  0  0  0
 29 30  1  1  0  0  0
 29 33  1  0  0  0  0
 31 32  1  6  0  0  0
 31 35  1  0  0  0  0
 33 34  1  0  0  0  0
 33 37  1  6  0  0  0
 35 36  1  1  0  0  0
 37 38  1  0  0  0  0
M  END
>  <CHROM.1>
-116.66288612,-74.70705295,151.56160957,79.37538244,74.72461683,-79.57755568
-33.16353782,113.18810436,170.10780833,-176.21888169,-54.68141971,19.37559740
27.80748080,-1.02766160,1.24432688,0.78872632,-2.65231080

>  <Name>
1nta_lig

>  <RI>
2.40834e+07

>  <Rbt.Current_Directory>
/home/itssahil/PROJECTS/Mol_Feturizer/New_Systems/rnas/1nta

>  <Rbt.Executable>
rbdock ($Id: //depot/dev/client3/rdock/2013.1/src/exe/rbdock.cxx#4 $)

>  <Rbt.Library>
libRbt.so (2013.1, Build901 2013/11/27)

>  <Rbt.Parameter_File>
/export/apps/rDock/src/rDock_2013.1_src/data/scripts/dock_solv.prm

>  <Rbt.Receptor>
prm/blind_docking_80.prm

>  <SCORE>
-17.7272

>  <SCORE.INTER>
-5.86598

>  <SCORE.INTER.CONST>
1

>  <SCORE.INTER.POLAR>
-0.0478194

>  <SCORE.INTER.ROT>
11

>  <SCORE.INTER.SOLV>
15.2278

>  <SCORE.INTER.VDW>
-19.7605

>  <SCORE.INTER.norm>
-0.146649

>  <SCORE.INTRA>
-12.3199

>  <SCORE.INTRA.DIHEDRAL>
-9.25007

>  <SCORE.INTRA.DIHEDRAL.0>
19.0336

>  <SCORE.INTRA.POLAR>
0

>  <SCORE.INTRA.POLAR.0>
0

>  <SCORE.INTRA.REPUL>
0

>  <SCORE.INTRA.REPUL.0>
0

>  <SCORE.INTRA.SOLV>
0.540359

>  <SCORE.INTRA.SOLV.lig_0>
-97.5861

>  <SCORE.INTRA.VDW>
-7.96505

>  <SCORE.INTRA.VDW.0>
11.7669

>  <SCORE.INTRA.norm>
-0.307998

>  <SCORE.RESTR>
0.458727

>  <SCORE.RESTR.CAVITY>
0.458727

>  <SCORE.RESTR.norm>
0.0114682

>  <SCORE.SYSTEM>
0

>  <SCORE.SYSTEM.CONST>
0

>  <SCORE.SYSTEM.DIHEDRAL>
0

>  <SCORE.SYSTEM.SOLV>
0

>  <SCORE.SYSTEM.norm>
0

>  <SCORE.heavy>
40

>  <SCORE.norm>
-0.443179

>  <RMSD>
19.604

$$$$
1nta_lig
 OpenBabel11021811403D
libRbt.so/2013.1/901 2013/11/27
 40 42  0  0  0  0  0  0  0  0999 V2000
   18.4693   21.8336   -2.7987 C   0  0  0  0  0  0  0  0  0  0  0  0
   19.2057   21.0314   -2.1248 N   0  0  0  0  0  0  0  0  0  0  0  0
   20.8815   30.3272    0.8251 C   0  0  0  0  0  0  0  0  0  0  0  0
   21.4386   29.8162   -0.1214 O   0  0  0  0  0  0  0  0  0  0  0  0
   21.3980   26.6129   -0.0815 C   0  0  0  0  0  0  0  0  0  0  0  0
   21.8769   26.4895   -1.2920 N   0  0  0  0  0  0  0  0  0  0  0  0
   18.3925   32.2110   -0.3228 C   0  0  0  0  0  0  0  0  0  0  0  0
   22.5791   28.6222    3.5922 C   0  0  0  0  0  0  0  0  0  0  0  0
   18.0451   24.0531   -2.0956 C   0  0  2  0  0  0  0  0  0  0  0  0
   17.6481   22.5898   -2.0857 N   0  0  0  0  0  0  0  0  0  0  0  0
   17.8628   28.7293    0.3754 C   0  0  2  0  0  0  0  0  0  0  0  0
   19.3058   27.6831    3.2268 C   0  0  1  0  0  0  0  0  0  0  0  0
   18.5460   28.6663    2.6156 O   0  0  0  0  0  0  0  0  0  0  0  0
   18.9579   24.3617   -0.8937 C   0  0  1  0  0  0  0  0  0  0  0  0
   20.1216   23.6086   -1.0571 O   0  0  0  0  0  0  0  0  0  0  0  0
   18.9716   28.9560    1.3974 C   0  0  2  0  0  0  0  0  0  0  0  0
   20.3808   28.1850    4.1656 C   0  0  1  0  0  0  0  0  0  0  0  0
   21.2121   29.0973    3.4593 N   0  0  0  0  0  0  0  0  0  0  0  0
   19.3731   25.8380   -0.8396 C   0  0  2  0  0  0  0  0  0  0  0  0
   20.2494   26.1722    0.3086 N   0  0  0  0  0  0  0  0  0  0  0  0
   19.3942   30.3184    1.0566 C   0  0  1  0  0  0  0  0  0  0  0  0
   19.0139   31.1642    2.1438 O   0  0  0  0  0  0  0  0  0  0  0  0
   19.8257   28.8350    5.2590 C   0  0  2  0  0  0  0  0  0  0  0  0
   20.8424   29.0052    6.2142 O   0  0  0  0  0  0  0  0  0  0  0  0
   18.1095   26.6804   -0.7641 C   0  0  1  0  0  0  0  0  0  0  0  0
   18.4990   28.0441   -0.7179 O   0  0  0  0  0  0  0  0  0  0  0  0
   18.6676   30.7501   -0.1439 C   0  0  1  0  0  0  0  0  0  0  0  0
   17.4655   29.9905   -0.1113 O   0  0  0  0  0  0  0  0  0  0  0  0
   18.7134   28.0095    5.8505 C   0  0  1  0  0  0  0  0  0  0  0  0
   18.0213   28.7837    6.7853 O   0  0  0  0  0  0  0  0  0  0  0  0
   17.2055   26.4045   -1.9991 C   0  0  2  0  0  0  0  0  0  0  0  0
   16.0315   27.2107   -1.9156 O   0  0  0  0  0  0  0  0  0  0  0  0
   17.7596   27.6067    4.7779 C   0  0  1  0  0  0  0  0  0  0  0  0
   18.4612   26.8299    3.8507 O   0  0  0  0  0  0  0  0  0  0  0  0
   16.8032   24.9148   -2.0114 C   0  0  1  0  0  0  0  0  0  0  0  0
   15.9656   24.6396   -3.1462 O   0  0  0  0  0  0  0  0  0  0  0  0
   16.6151   26.7415    5.3417 C   0  0  0  0  0  0  0  0  0  0  0  0
   17.1664   25.6017    5.9913 O   0  0  0  0  0  0  0  0  0  0  0  0
   18.5169   21.9007   -4.0854 N   0  0  0  0  0  0  0  0  0  0  0  0
   22.0952   27.1855    0.8199 N   0  0  0  0  0  0  0  0  0  0  0  0
  1  2  1  0  0  0  0
  1 39  1  0  0  0  0
  3  4  1  0  0  0  0
  5  6  1  0  0  0  0
  5 40  1  0  0  0  0
  9 10  1  1  0  0  0
  9 14  1  0  0  0  0
  9 35  1  0  0  0  0
 10  1  1  0  0  0  0
 11 16  1  0  0  0  0
 11 28  1  0  0  0  0
 11 26  1  6  0  0  0
 12 17  1  0  0  0  0
 12 34  1  0  0  0  0
 12 13  1  1  0  0  0
 14 15  1  6  0  0  0
 14 19  1  0  0  0  0
 16 13  1  1  0  0  0
 16 21  1  0  0  0  0
 17 18  1  6  0  0  0
 17 23  1  0  0  0  0
 18  8  1  0  0  0  0
 19 20  1  1  0  0  0
 19 25  1  0  0  0  0
 20  5  1  0  0  0  0
 21  3  1  6  0  0  0
 21 22  1  0  0  0  0
 21 27  1  0  0  0  0
 23 24  1  1  0  0  0
 23 29  1  0  0  0  0
 25 26  1  6  0  0  0
 25 31  1  0  0  0  0
 27  7  1  1  0  0  0
 27 28  1  0  0  0  0
 29 30  1  1  0  0  0
 29 33  1  0  0  0  0
 31 32  1  1  0  0  0
 31 35  1  0  0  0  0
 33 34  1  0  0  0  0
 33 37  1  1  0  0  0
 35 36  1  6  0  0  0
 37 38  1  0  0  0  0
M  END
>  <CHROM.1>
-92.29518559,110.48855032,107.50260344,97.25005034,121.69370444,-125.22923415
118.80047482,-15.60852469,70.07038435,-128.99228071,-56.97157898,18.99084018
27.17359687,1.02305410,2.31042763,-1.36576293,-1.51328923

>  <Name>
1nta_lig

>  <RI>
9.25352e+06

>  <Rbt.Current_Directory>
/home/itssahil/PROJECTS/Mol_Feturizer/New_Systems/rnas/1nta

>  <Rbt.Executable>
rbdock ($Id: //depot/dev/client3/rdock/2013.1/src/exe/rbdock.cxx#4 $)

>  <Rbt.Library>
libRbt.so (2013.1, Build901 2013/11/27)

>  <Rbt.Parameter_File>
/export/apps/rDock/src/rDock_2013.1_src/data/scripts/dock_solv.prm

>  <Rbt.Receptor>
prm/blind_docking_40.prm

>  <SCORE>
-16.0234

>  <SCORE.INTER>
-4.66667

>  <SCORE.INTER.CONST>
1

>  <SCORE.INTER.POLAR>
0

>  <SCORE.INTER.ROT>
11

>  <SCORE.INTER.SOLV>
14.098

>  <SCORE.INTER.VDW>
-18.7438

>  <SCORE.INTER.norm>
-0.116667

>  <SCORE.INTRA>
-12.3934

>  <SCORE.INTRA.DIHEDRAL>
10.4997

>  <SCORE.INTRA.DIHEDRAL.0>
19.0336

>  <SCORE.INTRA.POLAR>
0

>  <SCORE.INTRA.POLAR.0>
0

>  <SCORE.INTRA.REPUL>
0

>  <SCORE.INTRA.REPUL.0>
0

>  <SCORE.INTRA.SOLV>
2.9343

>  <SCORE.INTRA.SOLV.lig_0>
-97.5861

>  <SCORE.INTRA.VDW>
-19.1104

>  <SCORE.INTRA.VDW.0>
11.7669

>  <SCORE.INTRA.norm>
-0.309835

>  <SCORE.RESTR>
1.03669

>  <SCORE.RESTR.CAVITY>
1.03669

>  <SCORE.RESTR.norm>
0.0259172

>  <SCORE.SYSTEM>
0

>  <SCORE.SYSTEM.CONST>
0

>  <SCORE.SYSTEM.DIHEDRAL>
0

>  <SCORE.SYSTEM.SOLV>
0

>  <SCORE.SYSTEM.norm>
0

>  <SCORE.heavy>
40

>  <SCORE.norm>
-0.400585

>  <RMSD>
19.650

$$$$
1nta_lig
 OpenBabel11021811403D
libRbt.so/2013.1/901 2013/11/27
 40 42  0  0  0  0  0  0  0  0999 V2000
   17.7980   34.1508   -2.8907 C   0  0  0  0  0  0  0  0  0  0  0  0
   18.5541   33.9094   -3.8958 N   0  0  0  0  0  0  0  0  0  0  0  0
   20.5585   26.8138    3.1650 C   0  0  0  0  0  0  0  0  0  0  0  0
   20.7488   26.7489    4.3596 O   0  0  0  0  0  0  0  0  0  0  0  0
   21.6786   30.1937   -0.4310 C   0  0  0  0  0  0  0  0  0  0  0  0
   22.4848   31.2230   -0.4160 N   0  0  0  0  0  0  0  0  0  0  0  0
   17.3877   27.2459    4.0707 C   0  0  0  0  0  0  0  0  0  0  0  0
   22.7946   24.1063   -0.9554 C   0  0  0  0  0  0  0  0  0  0  0  0
   17.5720   32.3068   -1.4247 C   0  0  2  0  0  0  0  0  0  0  0  0
   16.9912   33.1629   -2.5332 N   0  0  0  0  0  0  0  0  0  0  0  0
   18.3538   27.5696    0.6280 C   0  0  2  0  0  0  0  0  0  0  0  0
   19.9841   25.6097   -0.9283 C   0  0  1  0  0  0  0  0  0  0  0  0
   19.3602   25.4793    0.3010 O   0  0  0  0  0  0  0  0  0  0  0  0
   18.8572   31.6111   -1.9118 C   0  0  1  0  0  0  0  0  0  0  0  0
   19.7843   32.6142   -2.1988 O   0  0  0  0  0  0  0  0  0  0  0  0
   19.4398   26.5784    1.0322 C   0  0  2  0  0  0  0  0  0  0  0  0
   20.5581   24.3330   -1.5021 C   0  0  1  0  0  0  0  0  0  0  0  0
   21.4431   23.7621   -0.5467 N   0  0  0  0  0  0  0  0  0  0  0  0
   19.4775   30.7103   -0.8354 C   0  0  2  0  0  0  0  0  0  0  0  0
   20.7150   30.0203   -1.2719 N   0  0  0  0  0  0  0  0  0  0  0  0
   19.2467   26.5263    2.4851 C   0  0  1  0  0  0  0  0  0  0  0  0
   18.7517   25.2233    2.8000 O   0  0  0  0  0  0  0  0  0  0  0  0
   19.5543   23.4185   -1.7893 C   0  0  2  0  0  0  0  0  0  0  0  0
   20.1181   22.4013   -2.5781 O   0  0  0  0  0  0  0  0  0  0  0  0
   18.4417   29.6712   -0.4364 C   0  0  1  0  0  0  0  0  0  0  0  0
   19.0190   28.8435    0.5612 O   0  0  0  0  0  0  0  0  0  0  0  0
   18.2269   27.5137    2.8600 C   0  0  1  0  0  0  0  0  0  0  0  0
   17.4304   27.6485    1.6894 O   0  0  0  0  0  0  0  0  0  0  0  0
   18.4395   24.0859   -2.5511 C   0  0  1  0  0  0  0  0  0  0  0  0
   17.3486   23.2151   -2.6148 O   0  0  0  0  0  0  0  0  0  0  0  0
   17.1588   30.3694    0.0980 C   0  0  2  0  0  0  0  0  0  0  0  0
   16.2041   29.3791    0.4765 O   0  0  0  0  0  0  0  0  0  0  0  0
   18.0107   25.3222   -1.8370 C   0  0  1  0  0  0  0  0  0  0  0  0
   19.1079   26.1873   -1.7823 O   0  0  0  0  0  0  0  0  0  0  0  0
   16.5620   31.2561   -1.0150 C   0  0  1  0  0  0  0  0  0  0  0  0
   15.3737   31.9100   -0.5405 O   0  0  0  0  0  0  0  0  0  0  0  0
   16.8821   26.0461   -2.5977 C   0  0  0  0  0  0  0  0  0  0  0  0
   15.6662   25.3269   -2.4264 O   0  0  0  0  0  0  0  0  0  0  0  0
   17.8138   35.2799   -2.2686 N   0  0  0  0  0  0  0  0  0  0  0  0
   21.8348   29.2547    0.4177 N   0  0  0  0  0  0  0  0  0  0  0  0
  1  2  1  0  0  0  0
  1 39  1  0  0  0  0
  3  4  1  0  0  0  0
  5  6  1  0  0  0  0
  5 40  1  0  0  0  0
  9 10  1  6  0  0  0
  9 14  1  0  0  0  0
  9 35  1  0  0  0  0
 10  1  1  0  0  0  0
 11 16  1  0  0  0  0
 11 28  1  0  0  0  0
 11 26  1  1  0  0  0
 12 17  1  0  0  0  0
 12 34  1  0  0  0  0
 12 13  1  1  0  0  0
 14 15  1  1  0  0  0
 14 19  1  0  0  0  0
 16 13  1  6  0  0  0
 16 21  1  0  0  0  0
 17 18  1  1  0  0  0
 17 23  1  0  0  0  0
 18  8  1  0  0  0  0
 19 20  1  6  0  0  0
 19 25  1  0  0  0  0
 20  5  1  0  0  0  0
 21  3  1  1  0  0  0
 21 22  1  0  0  0  0
 21 27  1  0  0  0  0
 23 24  1  6  0  0  0
 23 29  1  0  0  0  0
 25 26  1  1  0  0  0
 25 31  1  0  0  0  0
 27  7  1  1  0  0  0
 27 28  1  0  0  0  0
 29 30  1  1  0  0  0
 29 33  1  0  0  0  0
 31 32  1  6  0  0  0
 31 35  1  0  0  0  0
 33 34  1  0  0  0  0
 33 37  1  6  0  0  0
 35 36  1  1  0  0  0
 37 38  1  0  0  0  0
M  END
>  <CHROM.1>
-63.33911401,95.18242790,147.75404588,150.14429429,82.62822749,-100.51788899
128.63860530,-84.97361806,-174.38263311,-157.76886982,74.48988889,18.87281425
28.11954418,-0.46135490,2.11171553,-1.23912697,0.34902060

>  <Name>
1nta_lig

>  <RI>
1.05895e+07

>  <Rbt.Current_Directory>
/home/itssahil/PROJECTS/Mol_Feturizer/New_Systems/rnas/1nta

>  <Rbt.Executable>
rbdock ($Id: //depot/dev/client3/rdock/2013.1/src/exe/rbdock.cxx#4 $)

>  <Rbt.Library>
libRbt.so (2013.1, Build901 2013/11/27)

>  <Rbt.Parameter_File>
/export/apps/rDock/src/rDock_2013.1_src/data/scripts/dock_solv.prm

>  <Rbt.Receptor>
prm/blind_docking_100.prm

>  <SCORE>
-18.0552

>  <SCORE.INTER>
-1.05565

>  <SCORE.INTER.CONST>
1

>  <SCORE.INTER.POLAR>
-0.533768

>  <SCORE.INTER.ROT>
11

>  <SCORE.INTER.SOLV>
29.7691

>  <SCORE.INTER.VDW>
-19.7809

>  <SCORE.INTER.norm>
-0.0263912

>  <SCORE.INTRA>
-17.1832

>  <SCORE.INTRA.DIHEDRAL>
-2.92655

>  <SCORE.INTRA.DIHEDRAL.0>
19.0336

>  <SCORE.INTRA.POLAR>
0

>  <SCORE.INTRA.POLAR.0>
0

>  <SCORE.INTRA.REPUL>
0.0185565

>  <SCORE.INTRA.REPUL.0>
0

>  <SCORE.INTRA.SOLV>
-2.84151

>  <SCORE.INTRA.SOLV.lig_0>
-97.5861

>  <SCORE.INTRA.VDW>
-14.3919

>  <SCORE.INTRA.VDW.0>
11.7669

>  <SCORE.INTRA.norm>
-0.429579

>  <SCORE.RESTR>
0.183661

>  <SCORE.RESTR.CAVITY>
0.183661

>  <SCORE.RESTR.norm>
0.00459153

>  <SCORE.SYSTEM>
0

>  <SCORE.SYSTEM.CONST>
0

>  <SCORE.SYSTEM.DIHEDRAL>
0

>  <SCORE.SYSTEM.SOLV>
0

>  <SCORE.SYSTEM.norm>
0

>  <SCORE.heavy>
40

>  <SCORE.norm>
-0.451379

>  <RMSD>
19.669

$$$$
1nta_lig
 OpenBabel11021811403D
libRbt.so/2013.1/901 2013/11/27
 40 42  0  0  0  0  0  0  0  0999 V2000
   19.3448   34.9722   -0.6130 C   0  0  0  0  0  0  0  0  0  0  0  0
   20.0875   36.0155   -0.6156 N   0  0  0  0  0  0  0  0  0  0  0  0
   17.0690   25.1962   -0.5508 C   0  0  0  0  0  0  0  0  0  0  0  0
   17.5065   25.7760    0.4186 O   0  0  0  0  0  0  0  0  0  0  0  0
   19.6206   28.9496    1.4857 C   0  0  0  0  0  0  0  0  0  0  0  0
   18.6122   28.3121    2.0209 N   0  0  0  0  0  0  0  0  0  0  0  0
   14.6854   26.0178   -2.7198 C   0  0  0  0  0  0  0  0  0  0  0  0
   21.5419   23.3499   -5.3404 C   0  0  0  0  0  0  0  0  0  0  0  0
   18.9851   32.6776   -1.0671 C   0  0  2  0  0  0  0  0  0  0  0  0
   19.8403   33.9173   -1.2426 N   0  0  0  0  0  0  0  0  0  0  0  0
   17.7950   27.8118   -2.6722 C   0  0  2  0  0  0  0  0  0  0  0  0
   19.6194   24.7096   -2.7002 C   0  0  1  0  0  0  0  0  0  0  0  0
   19.2858   26.0278   -2.9620 O   0  0  0  0  0  0  0  0  0  0  0  0
   19.8347   31.5249   -0.4993 C   0  0  1  0  0  0  0  0  0  0  0  0
   20.2692   31.9193    0.7670 O   0  0  0  0  0  0  0  0  0  0  0  0
   18.3400   26.4837   -2.1579 C   0  0  2  0  0  0  0  0  0  0  0  0
   20.9293   24.2423   -3.2957 C   0  0  1  0  0  0  0  0  0  0  0  0
   20.9053   24.4866   -4.6964 N   0  0  0  0  0  0  0  0  0  0  0  0
   19.0240   30.2341   -0.3225 C   0  0  2  0  0  0  0  0  0  0  0  0
   19.8122   29.1009    0.2183 N   0  0  0  0  0  0  0  0  0  0  0  0
   17.0989   25.7283   -1.9586 C   0  0  1  0  0  0  0  0  0  0  0  0
   17.0800   24.6808   -2.9303 O   0  0  0  0  0  0  0  0  0  0  0  0
   22.0028   24.9225   -2.7380 C   0  0  2  0  0  0  0  0  0  0  0  0
   23.1760   24.2438   -3.1091 O   0  0  0  0  0  0  0  0  0  0  0  0
   18.4567   29.8445   -1.6784 C   0  0  1  0  0  0  0  0  0  0  0  0
   17.7053   28.6528   -1.5085 O   0  0  0  0  0  0  0  0  0  0  0  0
   15.9598   26.6190   -2.2136 C   0  0  1  0  0  0  0  0  0  0  0  0
   16.4762   27.5897   -3.1158 O   0  0  0  0  0  0  0  0  0  0  0  0
   21.8875   24.9429   -1.2364 C   0  0  1  0  0  0  0  0  0  0  0  0
   22.8369   25.8287   -0.7202 O   0  0  0  0  0  0  0  0  0  0  0  0
   17.5619   30.9884   -2.2349 C   0  0  2  0  0  0  0  0  0  0  0  0
   17.0312   30.6003   -3.5011 O   0  0  0  0  0  0  0  0  0  0  0  0
   20.5334   25.4253   -0.8413 C   0  0  1  0  0  0  0  0  0  0  0  0
   19.5922   24.5303   -1.3594 O   0  0  0  0  0  0  0  0  0  0  0  0
   18.4150   32.2626   -2.4068 C   0  0  1  0  0  0  0  0  0  0  0  0
   17.6054   33.3323   -2.9218 O   0  0  0  0  0  0  0  0  0  0  0  0
   20.3691   25.4413    0.6913 C   0  0  0  0  0  0  0  0  0  0  0  0
   20.3796   24.1037    1.1770 O   0  0  0  0  0  0  0  0  0  0  0  0
   18.1894   34.9470   -0.0416 N   0  0  0  0  0  0  0  0  0  0  0  0
   20.4928   29.4990    2.2366 N   0  0  0  0  0  0  0  0  0  0  0  0
  1  2  1  0  0  0  0
  1 39  1  0  0  0  0
  3  4  1  0  0  0  0
  5  6  1  0  0  0  0
  5 40  1  0  0  0  0
  9 10  1  6  0  0  0
  9 14  1  0  0  0  0
  9 35  1  0  0  0  0
 10  1  1  0  0  0  0
 11 16  1  0  0  0  0
 11 28  1  0  0  0  0
 11 26  1  1  0  0  0
 12 17  1  0  0  0  0
 12 34  1  0  0  0  0
 12 13  1  1  0  0  0
 14 15  1  1  0  0  0
 14 19  1  0  0  0  0
 16 13  1  6  0  0  0
 16 21  1  0  0  0  0
 17 18  1  6  0  0  0
 17 23  1  0  0  0  0
 18  8  1  0  0  0  0
 19 20  1  6  0  0  0
 19 25  1  0  0  0  0
 20  5  1  0  0  0  0
 21  3  1  1  0  0  0
 21 22  1  0  0  0  0
 21 27  1  0  0  0  0
 23 24  1  1  0  0  0
 23 29  1  0  0  0  0
 25 26  1  1  0  0  0
 25 31  1  0  0  0  0
 27  7  1  6  0  0  0
 27 28  1  0  0  0  0
 29 30  1  1  0  0  0
 29 33  1  0  0  0  0
 31 32  1  6  0  0  0
 31 35  1  0  0  0  0
 33 34  1  0  0  0  0
 33 37  1  1  0  0  0
 35 36  1  1  0  0  0
 37 38  1  0  0  0  0
M  END
>  <CHROM.1>
-124.81225000,173.51246033,122.89009003,-163.60641827,-167.54123749,-140.73764514
99.55240453,82.48395666,35.67338389,-146.15177209,-67.26582764,19.14607622
28.09585377,-1.43654357,-1.72412694,0.51261904,-2.90041446

>  <Name>
1nta_lig

>  <RI>
0

>  <Rbt.Current_Directory>
/home/itssahil/PROJECTS/Mol_Feturizer/New_Systems/rnas/1nta

>  <Rbt.Executable>
rbdock ($Id: //depot/dev/client3/rdock/2013.1/src/exe/rbdock.cxx#4 $)

>  <Rbt.Library>
libRbt.so (2013.1, Build901 2013/11/27)

>  <Rbt.Parameter_File>
/export/apps/rDock/src/rDock_2013.1_src/data/scripts/dock_solv.prm

>  <Rbt.Receptor>
prm/blind_docking_60.prm

>  <SCORE>
-22.2658

>  <SCORE.INTER>
-13.2856

>  <SCORE.INTER.CONST>
1

>  <SCORE.INTER.POLAR>
-1.05102

>  <SCORE.INTER.ROT>
11

>  <SCORE.INTER.SOLV>
16.118

>  <SCORE.INTER.VDW>
-21.6597

>  <SCORE.INTER.norm>
-0.33214

>  <SCORE.INTRA>
-10.7104

>  <SCORE.INTRA.DIHEDRAL>
0.842343

>  <SCORE.INTRA.DIHEDRAL.0>
19.0336

>  <SCORE.INTRA.POLAR>
0

>  <SCORE.INTRA.POLAR.0>
0

>  <SCORE.INTRA.REPUL>
0

>  <SCORE.INTRA.REPUL.0>
0

>  <SCORE.INTRA.SOLV>
-1.99324

>  <SCORE.INTRA.SOLV.lig_0>
-97.5861

>  <SCORE.INTRA.VDW>
-10.1349

>  <SCORE.INTRA.VDW.0>
11.7669

>  <SCORE.INTRA.norm>
-0.26776

>  <SCORE.RESTR>
1.73017

>  <SCORE.RESTR.CAVITY>
1.73017

>  <SCORE.RESTR.norm>
0.0432542

>  <SCORE.SYSTEM>
0

>  <SCORE.SYSTEM.CONST>
0

>  <SCORE.SYSTEM.DIHEDRAL>
0

>  <SCORE.SYSTEM.SOLV>
0

>  <SCORE.SYSTEM.norm>
0

>  <SCORE.heavy>
40

>  <SCORE.norm>
-0.556646

>  <RMSD>
19.701

$$$$
1nta_lig
 OpenBabel11021811403D
libRbt.so/2013.1/901 2013/11/27
 40 42  0  0  0  0  0  0  0  0999 V2000
   18.8696   35.0173   -0.7337 C   0  0  0  0  0  0  0  0  0  0  0  0
   18.4746   35.6245   -1.7898 N   0  0  0  0  0  0  0  0  0  0  0  0
   17.0117   25.0541   -0.5359 C   0  0  0  0  0  0  0  0  0  0  0  0
   17.5823   25.4785    0.4446 O   0  0  0  0  0  0  0  0  0  0  0  0
   20.5912   29.1523    0.6028 C   0  0  0  0  0  0  0  0  0  0  0  0
   21.0930   28.9441   -0.5866 N   0  0  0  0  0  0  0  0  0  0  0  0
   14.6762   26.0431   -2.6875 C   0  0  0  0  0  0  0  0  0  0  0  0
   21.4733   23.4278   -5.3621 C   0  0  0  0  0  0  0  0  0  0  0  0
   18.7380   32.6580   -0.8639 C   0  0  2  0  0  0  0  0  0  0  0  0
   19.5788   33.9175   -0.9393 N   0  0  0  0  0  0  0  0  0  0  0  0
   17.8023   27.7951   -2.4673 C   0  0  2  0  0  0  0  0  0  0  0  0
   19.6142   24.6883   -2.6496 C   0  0  1  0  0  0  0  0  0  0  0  0
   19.2801   26.0174   -2.8480 O   0  0  0  0  0  0  0  0  0  0  0  0
   19.4598   31.5898   -0.0207 C   0  0  1  0  0  0  0  0  0  0  0  0
   19.5751   32.0971    1.2744 O   0  0  0  0  0  0  0  0  0  0  0  0
   18.3245   26.4301   -2.0322 C   0  0  2  0  0  0  0  0  0  0  0  0
   20.9220   24.2494   -3.2708 C   0  0  1  0  0  0  0  0  0  0  0  0
   20.8935   24.5594   -4.6583 N   0  0  0  0  0  0  0  0  0  0  0  0
   18.6632   30.2814    0.0705 C   0  0  2  0  0  0  0  0  0  0  0  0
   19.3311   29.2279    0.8718 N   0  0  0  0  0  0  0  0  0  0  0  0
   17.0724   25.6772   -1.9048 C   0  0  1  0  0  0  0  0  0  0  0  0
   17.0607   24.6960   -2.9437 O   0  0  0  0  0  0  0  0  0  0  0  0
   21.9975   24.9025   -2.6852 C   0  0  2  0  0  0  0  0  0  0  0  0
   23.1694   24.2419   -3.0918 O   0  0  0  0  0  0  0  0  0  0  0  0
   18.4396   29.7664   -1.3425 C   0  0  1  0  0  0  0  0  0  0  0  0
   17.6998   28.5588   -1.2525 O   0  0  0  0  0  0  0  0  0  0  0  0
   15.9472   26.5954   -2.1205 C   0  0  1  0  0  0  0  0  0  0  0  0
   16.4896   27.6174   -2.9477 O   0  0  0  0  0  0  0  0  0  0  0  0
   21.8872   24.8521   -1.1840 C   0  0  1  0  0  0  0  0  0  0  0  0
   22.8385   25.7126   -0.6299 O   0  0  0  0  0  0  0  0  0  0  0  0
   17.6716   30.8245   -2.1846 C   0  0  2  0  0  0  0  0  0  0  0  0
   17.4625   30.3193   -3.5024 O   0  0  0  0  0  0  0  0  0  0  0  0
   20.5346   25.3156   -0.7622 C   0  0  1  0  0  0  0  0  0  0  0  0
   19.5914   24.4460   -1.3187 O   0  0  0  0  0  0  0  0  0  0  0  0
   18.5086   32.1187   -2.2598 C   0  0  1  0  0  0  0  0  0  0  0  0
   17.8154   33.1098   -3.0357 O   0  0  0  0  0  0  0  0  0  0  0  0
   20.3754   25.2594    0.7701 C   0  0  0  0  0  0  0  0  0  0  0  0
   21.0247   26.3853    1.3496 O   0  0  0  0  0  0  0  0  0  0  0  0
   18.5938   35.4413    0.4522 N   0  0  0  0  0  0  0  0  0  0  0  0
   21.3693   29.2727    1.6061 N   0  0  0  0  0  0  0  0  0  0  0  0
  1  2  1  0  0  0  0
  1 39  1  0  0  0  0
  3  4  1  0  0  0  0
  5  6  1  0  0  0  0
  5 40  1  0  0  0  0
  9 10  1  6  0  0  0
  9 14  1  0  0  0  0
  9 35  1  0  0  0  0
 10  1  1  0  0  0  0
 11 16  1  0  0  0  0
 11 28  1  0  0  0  0
 11 26  1  1  0  0  0
 12 17  1  0  0  0  0
 12 34  1  0  0  0  0
 12 13  1  1  0  0  0
 14 15  1  1  0  0  0
 14 19  1  0  0  0  0
 16 13  1  6  0  0  0
 16 21  1  0  0  0  0
 17 18  1  6  0  0  0
 17 23  1  0  0  0  0
 18  8  1  0  0  0  0
 19 20  1  1  0  0  0
 19 25  1  0  0  0  0
 20  5  1  0  0  0  0
 21  3  1  1  0  0  0
 21 22  1  0  0  0  0
 21 27  1  0  0  0  0
 23 24  1  1  0  0  0
 23 29  1  0  0  0  0
 25 26  1  1  0  0  0
 25 31  1  0  0  0  0
 27  7  1  6  0  0  0
 27 28  1  0  0  0  0
 29 30  1  1  0  0  0
 29 33  1  0  0  0  0
 31 32  1  6  0  0  0
 31 35  1  0  0  0  0
 33 34  1  0  0  0  0
 33 37  1  1  0  0  0
 35 36  1  6  0  0  0
 37 38  1  0  0  0  0
M  END
>  <CHROM.1>
-134.66987121,-96.75069059,124.32407589,-164.46018102,-168.74860600,-138.23559049
-43.34829019,-56.77774556,25.77272464,-161.85137371,78.70002739,19.18695086
28.13766095,-1.43978036,-1.75303808,0.46405365,-2.88477678

>  <Name>
1nta_lig

>  <RI>
0

>  <Rbt.Current_Directory>
/home/itssahil/PROJECTS/Mol_Feturizer/New_Systems/rnas/1nta

>  <Rbt.Executable>
rbdock ($Id: //depot/dev/client3/rdock/2013.1/src/exe/rbdock.cxx#4 $)

>  <Rbt.Library>
libRbt.so (2013.1, Build901 2013/11/27)

>  <Rbt.Parameter_File>
/export/apps/rDock/src/rDock_2013.1_src/data/scripts/dock_solv.prm

>  <Rbt.Receptor>
prm/blind_docking_60.prm

>  <SCORE>
-19.5678

>  <SCORE.INTER>
-13.2693

>  <SCORE.INTER.CONST>
1

>  <SCORE.INTER.POLAR>
-1.09545

>  <SCORE.INTER.ROT>
11

>  <SCORE.INTER.SOLV>
16.0244

>  <SCORE.INTER.VDW>
-21.4695

>  <SCORE.INTER.norm>
-0.331731

>  <SCORE.INTRA>
-8.09315

>  <SCORE.INTRA.DIHEDRAL>
-0.879837

>  <SCORE.INTRA.DIHEDRAL.0>
19.0336

>  <SCORE.INTRA.POLAR>
0

>  <SCORE.INTRA.POLAR.0>
0

>  <SCORE.INTRA.REPUL>
0.0270198

>  <SCORE.INTRA.REPUL.0>
0

>  <SCORE.INTRA.SOLV>
2.74732

>  <SCORE.INTRA.SOLV.lig_0>
-97.5861

>  <SCORE.INTRA.VDW>
-9.16199

>  <SCORE.INTRA.VDW.0>
11.7669

>  <SCORE.INTRA.norm>
-0.202329

>  <SCORE.RESTR>
1.79461

>  <SCORE.RESTR.CAVITY>
1.79461

>  <SCORE.RESTR.norm>
0.0448651

>  <SCORE.SYSTEM>
0

>  <SCORE.SYSTEM.CONST>
0

>  <SCORE.SYSTEM.DIHEDRAL>
0

>  <SCORE.SYSTEM.SOLV>
0

>  <SCORE.SYSTEM.norm>
0

>  <SCORE.heavy>
40

>  <SCORE.norm>
-0.489195

>  <RMSD>
19.734

$$$$
1nta_lig
 OpenBabel11021811403D
libRbt.so/2013.1/901 2013/11/27
 40 42  0  0  0  0  0  0  0  0999 V2000
   17.8859   21.4573    2.3845 C   0  0  0  0  0  0  0  0  0  0  0  0
   17.3829   20.4201    1.8265 N   0  0  0  0  0  0  0  0  0  0  0  0
   20.0734   30.5740   -0.1115 C   0  0  0  0  0  0  0  0  0  0  0  0
   21.0646   30.8230    0.5387 O   0  0  0  0  0  0  0  0  0  0  0  0
   17.5248   25.1332   -2.4235 C   0  0  0  0  0  0  0  0  0  0  0  0
   18.1743   26.0179   -3.1344 N   0  0  0  0  0  0  0  0  0  0  0  0
   16.8881   30.9191   -1.0041 C   0  0  0  0  0  0  0  0  0  0  0  0
   22.9194   28.7863    3.7080 C   0  0  0  0  0  0  0  0  0  0  0  0
   18.6878   23.4925    1.4814 C   0  0  2  0  0  0  0  0  0  0  0  0
   18.9020   22.0144    1.7427 N   0  0  0  0  0  0  0  0  0  0  0  0
   18.0393   27.8557    0.4727 C   0  0  2  0  0  0  0  0  0  0  0  0
   19.7412   27.6884    2.9944 C   0  0  1  0  0  0  0  0  0  0  0  0
   18.9510   28.6931    2.4618 O   0  0  0  0  0  0  0  0  0  0  0  0
   17.8585   23.6881    0.1980 C   0  0  1  0  0  0  0  0  0  0  0  0
   16.6065   23.1150    0.4261 O   0  0  0  0  0  0  0  0  0  0  0  0
   19.0511   28.7768    1.1457 C   0  0  2  0  0  0  0  0  0  0  0  0
   20.7272   28.1321    4.0526 C   0  0  1  0  0  0  0  0  0  0  0  0
   21.5321   29.1745    3.5163 N   0  0  0  0  0  0  0  0  0  0  0  0
   17.6299   25.1697   -0.1294 C   0  0  2  0  0  0  0  0  0  0  0  0
   16.8384   25.3956   -1.3625 N   0  0  0  0  0  0  0  0  0  0  0  0
   18.7838   30.0420    0.4538 C   0  0  1  0  0  0  0  0  0  0  0  0
   18.2069   30.9338    1.4098 O   0  0  0  0  0  0  0  0  0  0  0  0
   20.0709   28.6045    5.1805 C   0  0  2  0  0  0  0  0  0  0  0  0
   21.0204   28.7142    6.2108 O   0  0  0  0  0  0  0  0  0  0  0  0
   18.9892   25.8340   -0.2810 C   0  0  1  0  0  0  0  0  0  0  0  0
   18.7720   27.2041   -0.5800 O   0  0  0  0  0  0  0  0  0  0  0  0
   17.7991   29.7988   -0.6078 C   0  0  1  0  0  0  0  0  0  0  0  0
   17.0697   28.6673   -0.1492 O   0  0  0  0  0  0  0  0  0  0  0  0
   18.9865   27.6455    5.5963 C   0  0  1  0  0  0  0  0  0  0  0  0
   18.1938   28.2528    6.5737 O   0  0  0  0  0  0  0  0  0  0  0  0
   19.8126   25.6772    1.0290 C   0  0  2  0  0  0  0  0  0  0  0  0
   21.0789   26.3151    0.8710 O   0  0  0  0  0  0  0  0  0  0  0  0
   18.1217   27.3242    4.4252 C   0  0  1  0  0  0  0  0  0  0  0  0
   18.9236   26.7141    3.4556 O   0  0  0  0  0  0  0  0  0  0  0  0
   20.0282   24.1766    1.3169 C   0  0  1  0  0  0  0  0  0  0  0  0
   20.7890   24.0106    2.5246 O   0  0  0  0  0  0  0  0  0  0  0  0
   17.0094   26.3274    4.8066 C   0  0  0  0  0  0  0  0  0  0  0  0
   16.1345   26.9400    5.7471 O   0  0  0  0  0  0  0  0  0  0  0  0
   17.4399   21.9283    3.4987 N   0  0  0  0  0  0  0  0  0  0  0  0
   17.5236   23.9096   -2.7829 N   0  0  0  0  0  0  0  0  0  0  0  0
  1  2  1  0  0  0  0
  1 39  1  0  0  0  0
  3  4  1  0  0  0  0
  5  6  1  0  0  0  0
  5 40  1  0  0  0  0
  9 10  1  6  0  0  0
  9 14  1  0  0  0  0
  9 35  1  0  0  0  0
 10  1  1  0  0  0  0
 11 16  1  0  0  0  0
 11 28  1  0  0  0  0
 11 26  1  6  0  0  0
 12 17  1  0  0  0  0
 12 34  1  0  0  0  0
 12 13  1  1  0  0  0
 14 15  1  1  0  0  0
 14 19  1  0  0  0  0
 16 13  1  1  0  0  0
 16 21  1  0  0  0  0
 17 18  1  6  0  0  0
 17 23  1  0  0  0  0
 18  8  1  0  0  0  0
 19 20  1  6  0  0  0
 19 25  1  0  0  0  0
 20  5  1  0  0  0  0
 21  3  1  6  0  0  0
 21 22  1  0  0  0  0
 21 27  1  0  0  0  0
 23 24  1  1  0  0  0
 23 29  1  0  0  0  0
 25 26  1  1  0  0  0
 25 31  1  0  0  0  0
 27  7  1  1  0  0  0
 27 28  1  0  0  0  0
 29 30  1  1  0  0  0
 29 33  1  0  0  0  0
 31 32  1  6  0  0  0
 31 35  1  0  0  0  0
 33 34  1  0  0  0  0
 33 37  1  1  0  0  0
 35 36  1  1  0  0  0
 37 38  1  0  0  0  0
M  END
>  <CHROM.1>
-84.16445931,126.29485311,109.13415532,123.74037842,88.33788345,-126.75187028
-72.96045444,-95.91361093,-57.94151812,60.22779205,64.77840108,18.78908823
26.70577490,1.72291823,-2.78154647,-1.28183126,-0.77320241

>  <Name>
1nta_lig

>  <RI>
9.25352e+06

>  <Rbt.Current_Directory>
/home/itssahil/PROJECTS/Mol_Feturizer/New_Systems/rnas/1nta

>  <Rbt.Executable>
rbdock ($Id: //depot/dev/client3/rdock/2013.1/src/exe/rbdock.cxx#4 $)

>  <Rbt.Library>
libRbt.so (2013.1, Build901 2013/11/27)

>  <Rbt.Parameter_File>
/export/apps/rDock/src/rDock_2013.1_src/data/scripts/dock_solv.prm

>  <Rbt.Receptor>
prm/blind_docking_40.prm

>  <SCORE>
-15.6856

>  <SCORE.INTER>
-3.91841

>  <SCORE.INTER.CONST>
1

>  <SCORE.INTER.POLAR>
0

>  <SCORE.INTER.ROT>
11

>  <SCORE.INTER.SOLV>
14.0665

>  <SCORE.INTER.VDW>
-18.2345

>  <SCORE.INTER.norm>
-0.0979603

>  <SCORE.INTRA>
-12.9072

>  <SCORE.INTRA.DIHEDRAL>
0.601831

>  <SCORE.INTRA.DIHEDRAL.0>
19.0336

>  <SCORE.INTRA.POLAR>
0

>  <SCORE.INTRA.POLAR.0>
0

>  <SCORE.INTRA.REPUL>
0

>  <SCORE.INTRA.REPUL.0>
0

>  <SCORE.INTRA.SOLV>
-0.565858

>  <SCORE.INTRA.SOLV.lig_0>
-97.5861

>  <SCORE.INTRA.VDW>
-12.9252

>  <SCORE.INTRA.VDW.0>
11.7669

>  <SCORE.INTRA.norm>
-0.32268

>  <SCORE.RESTR>
1.14003

>  <SCORE.RESTR.CAVITY>
1.14003

>  <SCORE.RESTR.norm>
0.0285008

>  <SCORE.SYSTEM>
0

>  <SCORE.SYSTEM.CONST>
0

>  <SCORE.SYSTEM.DIHEDRAL>
0

>  <SCORE.SYSTEM.SOLV>
0

>  <SCORE.SYSTEM.norm>
0

>  <SCORE.heavy>
40

>  <SCORE.norm>
-0.39214

>  <RMSD>
19.754

$$$$
1nta_lig
 OpenBabel11021811403D
libRbt.so/2013.1/901 2013/11/27
 40 42  0  0  0  0  0  0  0  0999 V2000
   17.0826   33.6308   -0.8505 C   0  0  0  0  0  0  0  0  0  0  0  0
   16.6700   34.1266   -1.9568 N   0  0  0  0  0  0  0  0  0  0  0  0
   20.6045   26.0025    3.1845 C   0  0  0  0  0  0  0  0  0  0  0  0
   20.7083   26.1530    4.3820 O   0  0  0  0  0  0  0  0  0  0  0  0
   17.7618   28.9070   -2.0742 C   0  0  0  0  0  0  0  0  0  0  0  0
   16.9631   28.6286   -1.0771 N   0  0  0  0  0  0  0  0  0  0  0  0
   17.5503   27.0760    3.9468 C   0  0  0  0  0  0  0  0  0  0  0  0
   22.8253   23.9168   -1.4962 C   0  0  0  0  0  0  0  0  0  0  0  0
   19.1049   32.5421   -0.2798 C   0  0  2  0  0  0  0  0  0  0  0  0
   18.3633   33.8307   -0.5779 N   0  0  0  0  0  0  0  0  0  0  0  0
   18.7818   27.3391    0.5846 C   0  0  2  0  0  0  0  0  0  0  0  0
   19.8215   25.2792   -1.0945 C   0  0  1  0  0  0  0  0  0  0  0  0
   19.3321   25.0966    0.1879 O   0  0  0  0  0  0  0  0  0  0  0  0
   18.7039   31.4543   -1.2941 C   0  0  1  0  0  0  0  0  0  0  0  0
   19.1144   31.8947   -2.5533 O   0  0  0  0  0  0  0  0  0  0  0  0
   19.6001   26.1166    0.9859 C   0  0  2  0  0  0  0  0  0  0  0  0
   20.5263   24.0829   -1.6953 C   0  0  1  0  0  0  0  0  0  0  0  0
   21.5651   23.6764   -0.8134 N   0  0  0  0  0  0  0  0  0  0  0  0
   19.4082   30.1176   -1.0257 C   0  0  2  0  0  0  0  0  0  0  0  0
   19.0417   29.0449   -1.9813 N   0  0  0  0  0  0  0  0  0  0  0  0
   19.3078   26.0409    2.4211 C   0  0  1  0  0  0  0  0  0  0  0  0
   18.5241   24.8648    2.6321 O   0  0  0  0  0  0  0  0  0  0  0  0
   19.6479   23.0236   -1.8753 C   0  0  2  0  0  0  0  0  0  0  0  0
   20.2858   22.0760   -2.6939 O   0  0  0  0  0  0  0  0  0  0  0  0
   19.0526   29.6723    0.3839 C   0  0  1  0  0  0  0  0  0  0  0  0
   19.7090   28.4381    0.6280 O   0  0  0  0  0  0  0  0  0  0  0  0
   18.5033   27.2093    2.7997 C   0  0  1  0  0  0  0  0  0  0  0  0
   17.8312   27.5691    1.5989 O   0  0  0  0  0  0  0  0  0  0  0  0
   18.3851   23.4979   -2.5455 C   0  0  1  0  0  0  0  0  0  0  0  0
   17.4336   22.4758   -2.4959 O   0  0  0  0  0  0  0  0  0  0  0  0
   19.4963   30.7486    1.4151 C   0  0  2  0  0  0  0  0  0  0  0  0
   19.1639   30.3084    2.7309 O   0  0  0  0  0  0  0  0  0  0  0  0
   17.8413   24.6796   -1.8173 C   0  0  1  0  0  0  0  0  0  0  0  0
   18.7992   25.6967   -1.8763 O   0  0  0  0  0  0  0  0  0  0  0  0
   18.7600   32.0715    1.1171 C   0  0  1  0  0  0  0  0  0  0  0  0
   19.1563   33.0798    2.0611 O   0  0  0  0  0  0  0  0  0  0  0  0
   16.5568   25.2078   -2.4861 C   0  0  0  0  0  0  0  0  0  0  0  0
   15.9486   26.1723   -1.6348 O   0  0  0  0  0  0  0  0  0  0  0  0
   16.3082   32.9758   -0.0546 N   0  0  0  0  0  0  0  0  0  0  0  0
   17.2850   29.0380   -3.2498 N   0  0  0  0  0  0  0  0  0  0  0  0
  1  2  1  0  0  0  0
  1 39  1  0  0  0  0
  3  4  1  0  0  0  0
  5  6  1  0  0  0  0
  5 40  1  0  0  0  0
  9 10  1  6  0  0  0
  9 14  1  0  0  0  0
  9 35  1  0  0  0  0
 10  1  1  0  0  0  0
 11 16  1  0  0  0  0
 11 28  1  0  0  0  0
 11 26  1  1  0  0  0
 12 17  1  0  0  0  0
 12 34  1  0  0  0  0
 12 13  1  1  0  0  0
 14 15  1  6  0  0  0
 14 19  1  0  0  0  0
 16 13  1  6  0  0  0
 16 21  1  0  0  0  0
 17 18  1  1  0  0  0
 17 23  1  0  0  0  0
 18  8  1  0  0  0  0
 19 20  1  6  0  0  0
 19 25  1  0  0  0  0
 20  5  1  0  0  0  0
 21  3  1  1  0  0  0
 21 22  1  0  0  0  0
 21 27  1  0  0  0  0
 23 24  1  6  0  0  0
 23 29  1  0  0  0  0
 25 26  1  1  0  0  0
 25 31  1  0  0  0  0
 27  7  1  1  0  0  0
 27 28  1  0  0  0  0
 29 30  1  1  0  0  0
 29 33  1  0  0  0  0
 31 32  1  1  0  0  0
 31 35  1  0  0  0  0
 33 34  1  0  0  0  0
 33 37  1  6  0  0  0
 35 36  1  1  0  0  0
 37 38  1  0  0  0  0
M  END
>  <CHROM.1>
43.75976982,-126.08379821,-175.01403176,135.03991544,70.03723590,-113.80295468
-51.97940934,-58.48075986,167.63008927,-105.41885494,169.80069733,18.79003199
27.79716183,-0.18896748,2.07714475,-1.24515690,0.57834131

>  <Name>
1nta_lig

>  <RI>
9.25352e+06

>  <Rbt.Current_Directory>
/home/itssahil/PROJECTS/Mol_Feturizer/New_Systems/rnas/1nta

>  <Rbt.Executable>
rbdock ($Id: //depot/dev/client3/rdock/2013.1/src/exe/rbdock.cxx#4 $)

>  <Rbt.Library>
libRbt.so (2013.1, Build901 2013/11/27)

>  <Rbt.Parameter_File>
/export/apps/rDock/src/rDock_2013.1_src/data/scripts/dock_solv.prm

>  <Rbt.Receptor>
prm/blind_docking_40.prm

>  <SCORE>
-18.6049

>  <SCORE.INTER>
-8.72725

>  <SCORE.INTER.CONST>
1

>  <SCORE.INTER.POLAR>
-1.33912

>  <SCORE.INTER.ROT>
11

>  <SCORE.INTER.SOLV>
20.2007

>  <SCORE.INTER.VDW>
-19.0213

>  <SCORE.INTER.norm>
-0.218181

>  <SCORE.INTRA>
-12.3802

>  <SCORE.INTRA.DIHEDRAL>
-2.4791

>  <SCORE.INTRA.DIHEDRAL.0>
19.0336

>  <SCORE.INTRA.POLAR>
0

>  <SCORE.INTRA.POLAR.0>
0

>  <SCORE.INTRA.REPUL>
0.0797991

>  <SCORE.INTRA.REPUL.0>
0

>  <SCORE.INTRA.SOLV>
5.04342

>  <SCORE.INTRA.SOLV.lig_0>
-97.5861

>  <SCORE.INTRA.VDW>
-14.0614

>  <SCORE.INTRA.VDW.0>
11.7669

>  <SCORE.INTRA.norm>
-0.309505

>  <SCORE.RESTR>
2.50256

>  <SCORE.RESTR.CAVITY>
2.50256

>  <SCORE.RESTR.norm>
0.0625641

>  <SCORE.SYSTEM>
0

>  <SCORE.SYSTEM.CONST>
0

>  <SCORE.SYSTEM.DIHEDRAL>
0

>  <SCORE.SYSTEM.SOLV>
0

>  <SCORE.SYSTEM.norm>
0

>  <SCORE.heavy>
40

>  <SCORE.norm>
-0.465122

>  <RMSD>
19.772

$$$$
1nta_lig
 OpenBabel11021811403D
libRbt.so/2013.1/901 2013/11/27
 40 42  0  0  0  0  0  0  0  0999 V2000
   21.9309   21.6696   -3.5193 C   0  0  0  0  0  0  0  0  0  0  0  0
   20.8957   21.0276   -3.1240 N   0  0  0  0  0  0  0  0  0  0  0  0
   18.9486   28.3530    3.2963 C   0  0  0  0  0  0  0  0  0  0  0  0
   19.0786   28.2759    4.4981 O   0  0  0  0  0  0  0  0  0  0  0  0
   17.3147   25.5156   -0.7343 C   0  0  0  0  0  0  0  0  0  0  0  0
   16.1103   25.1065   -1.0373 N   0  0  0  0  0  0  0  0  0  0  0  0
   22.2718   28.4623    3.3704 C   0  0  0  0  0  0  0  0  0  0  0  0
   17.0647   33.4584    1.4477 C   0  0  0  0  0  0  0  0  0  0  0  0
   21.3093   23.6550   -2.3913 C   0  0  2  0  0  0  0  0  0  0  0  0
   21.7705   22.9763   -3.6663 N   0  0  0  0  0  0  0  0  0  0  0  0
   20.5340   28.1452    0.2448 C   0  0  2  0  0  0  0  0  0  0  0  0
   17.7887   30.2926    0.3446 C   0  0  1  0  0  0  0  0  0  0  0  0
   19.1481   30.0301    0.3693 O   0  0  0  0  0  0  0  0  0  0  0  0
   19.9869   24.4049   -2.6397 C   0  0  1  0  0  0  0  0  0  0  0  0
   19.0287   23.4479   -2.9776 O   0  0  0  0  0  0  0  0  0  0  0  0
   19.4377   28.8988    0.9900 C   0  0  2  0  0  0  0  0  0  0  0  0
   17.4091   31.7092   -0.0269 C   0  0  1  0  0  0  0  0  0  0  0  0
   18.0787   32.6050    0.8514 N   0  0  0  0  0  0  0  0  0  0  0  0
   19.4835   25.1323   -1.3859 C   0  0  2  0  0  0  0  0  0  0  0  0
   18.2135   25.8695   -1.5901 N   0  0  0  0  0  0  0  0  0  0  0  0
   19.9803   28.9104    2.3525 C   0  0  1  0  0  0  0  0  0  0  0  0
   20.3176   30.2640    2.6624 O   0  0  0  0  0  0  0  0  0  0  0  0
   17.7776   31.9991   -1.3331 C   0  0  2  0  0  0  0  0  0  0  0  0
   17.1410   33.1975   -1.6990 O   0  0  0  0  0  0  0  0  0  0  0  0
   20.5613   26.1093   -0.9433 C   0  0  1  0  0  0  0  0  0  0  0  0
   20.0923   26.7763    0.2180 O   0  0  0  0  0  0  0  0  0  0  0  0
   21.2097   28.1082    2.3762 C   0  0  1  0  0  0  0  0  0  0  0  0
   21.6956   28.1820    1.0415 O   0  0  0  0  0  0  0  0  0  0  0  0
   17.3398   30.8946   -2.2588 C   0  0  1  0  0  0  0  0  0  0  0  0
   17.9274   31.0923   -3.5110 O   0  0  0  0  0  0  0  0  0  0  0  0
   21.8862   25.3500   -0.6485 C   0  0  2  0  0  0  0  0  0  0  0  0
   22.8809   26.2810   -0.2252 O   0  0  0  0  0  0  0  0  0  0  0  0
   17.8003   29.5799   -1.7278 C   0  0  1  0  0  0  0  0  0  0  0  0
   17.2040   29.3908   -0.4772 O   0  0  0  0  0  0  0  0  0  0  0  0
   22.3626   24.6417   -1.9340 C   0  0  1  0  0  0  0  0  0  0  0  0
   23.5877   23.9343   -1.6821 O   0  0  0  0  0  0  0  0  0  0  0  0
   17.3534   28.4197   -2.6391 C   0  0  0  0  0  0  0  0  0  0  0  0
   18.5029   27.7942   -3.1981 O   0  0  0  0  0  0  0  0  0  0  0  0
   23.0546   21.0869   -3.7639 N   0  0  0  0  0  0  0  0  0  0  0  0
   17.6624   25.6091    0.4892 N   0  0  0  0  0  0  0  0  0  0  0  0
  1  2  1  0  0  0  0
  1 39  1  0  0  0  0
  3  4  1  0  0  0  0
  5  6  1  0  0  0  0
  5 40  1  0  0  0  0
  9 10  1  6  0  0  0
  9 14  1  0  0  0  0
  9 35  1  0  0  0  0
 10  1  1  0  0  0  0
 11 16  1  0  0  0  0
 11 28  1  0  0  0  0
 11 26  1  1  0  0  0
 12 17  1  0  0  0  0
 12 34  1  0  0  0  0
 12 13  1  6  0  0  0
 14 15  1  1  0  0  0
 14 19  1  0  0  0  0
 16 13  1  6  0  0  0
 16 21  1  0  0  0  0
 17 18  1  1  0  0  0
 17 23  1  0  0  0  0
 18  8  1  0  0  0  0
 19 20  1  6  0  0  0
 19 25  1  0  0  0  0
 20  5  1  0  0  0  0
 21  3  1  1  0  0  0
 21 22  1  0  0  0  0
 21 27  1  0  0  0  0
 23 24  1  6  0  0  0
 23 29  1  0  0  0  0
 25 26  1  1  0  0  0
 25 31  1  0  0  0  0
 27  7  1  1  0  0  0
 27 28  1  0  0  0  0
 29 30  1  6  0  0  0
 29 33  1  0  0  0  0
 31 32  1  6  0  0  0
 31 35  1  0  0  0  0
 33 34  1  0  0  0  0
 33 37  1  6  0  0  0
 35 36  1  1  0  0  0
 37 38  1  0  0  0  0
M  END
>  <CHROM.1>
-122.82033525,57.54429686,149.54657120,165.18220484,139.34637216,-125.81446669
125.29549013,-126.58671429,-177.20993987,-144.62525489,115.42078064,19.55701842
27.46239755,-0.59555430,1.00534597,0.83441862,-2.35202968

>  <Name>
1nta_lig

>  <RI>
9.25352e+06

>  <Rbt.Current_Directory>
/home/itssahil/PROJECTS/Mol_Feturizer/New_Systems/rnas/1nta

>  <Rbt.Executable>
rbdock ($Id: //depot/dev/client3/rdock/2013.1/src/exe/rbdock.cxx#4 $)

>  <Rbt.Library>
libRbt.so (2013.1, Build901 2013/11/27)

>  <Rbt.Parameter_File>
/export/apps/rDock/src/rDock_2013.1_src/data/scripts/dock_solv.prm

>  <Rbt.Receptor>
prm/blind_docking_40.prm

>  <SCORE>
-25.1834

>  <SCORE.INTER>
-11.2386

>  <SCORE.INTER.CONST>
1

>  <SCORE.INTER.POLAR>
-1.09671

>  <SCORE.INTER.ROT>
11

>  <SCORE.INTER.SOLV>
21.6797

>  <SCORE.INTER.VDW>
-21.9966

>  <SCORE.INTER.norm>
-0.280965

>  <SCORE.INTRA>
-15.072

>  <SCORE.INTRA.DIHEDRAL>
5.81426

>  <SCORE.INTRA.DIHEDRAL.0>
19.0336

>  <SCORE.INTRA.POLAR>
0

>  <SCORE.INTRA.POLAR.0>
0

>  <SCORE.INTRA.REPUL>
0

>  <SCORE.INTRA.REPUL.0>
0

>  <SCORE.INTRA.SOLV>
-0.995362

>  <SCORE.INTRA.SOLV.lig_0>
-97.5861

>  <SCORE.INTRA.VDW>
-17.4814

>  <SCORE.INTRA.VDW.0>
11.7669

>  <SCORE.INTRA.norm>
-0.376799

>  <SCORE.RESTR>
1.12717

>  <SCORE.RESTR.CAVITY>
1.12717

>  <SCORE.RESTR.norm>
0.0281792

>  <SCORE.SYSTEM>
0

>  <SCORE.SYSTEM.CONST>
0

>  <SCORE.SYSTEM.DIHEDRAL>
0

>  <SCORE.SYSTEM.SOLV>
0

>  <SCORE.SYSTEM.norm>
0

>  <SCORE.heavy>
40

>  <SCORE.norm>
-0.629585

>  <RMSD>
19.805

$$$$
1nta_lig
 OpenBabel11021811403D
libRbt.so/2013.1/901 2013/11/27
 40 42  0  0  0  0  0  0  0  0999 V2000
   18.5991   33.8550   -2.4573 C   0  0  0  0  0  0  0  0  0  0  0  0
   17.5813   34.5641   -2.1391 N   0  0  0  0  0  0  0  0  0  0  0  0
   20.3760   26.4234    3.9567 C   0  0  0  0  0  0  0  0  0  0  0  0
   20.5812   26.1587    5.1208 O   0  0  0  0  0  0  0  0  0  0  0  0
   21.3573   29.3803    1.7149 C   0  0  0  0  0  0  0  0  0  0  0  0
   21.7730   28.2400    2.2012 N   0  0  0  0  0  0  0  0  0  0  0  0
   17.1797   26.6117    4.8564 C   0  0  0  0  0  0  0  0  0  0  0  0
   22.7815   24.0379   -0.7853 C   0  0  0  0  0  0  0  0  0  0  0  0
   18.4206   31.8471   -1.2174 C   0  0  2  0  0  0  0  0  0  0  0  0
   18.3782   32.5528   -2.5588 N   0  0  0  0  0  0  0  0  0  0  0  0
   18.1666   27.3699    1.4887 C   0  0  2  0  0  0  0  0  0  0  0  0
   19.8444   25.6937   -0.2780 C   0  0  1  0  0  0  0  0  0  0  0  0
   19.2686   25.3763    0.9407 O   0  0  0  0  0  0  0  0  0  0  0  0
   19.7580   31.1001   -1.0548 C   0  0  1  0  0  0  0  0  0  0  0  0
   20.7692   32.0620   -1.0566 O   0  0  0  0  0  0  0  0  0  0  0  0
   19.2914   26.3866    1.7939 C   0  0  2  0  0  0  0  0  0  0  0  0
   20.5340   24.5485   -0.9865 C   0  0  1  0  0  0  0  0  0  0  0  0
   21.4975   23.9832   -0.1066 N   0  0  0  0  0  0  0  0  0  0  0  0
   19.8472   30.3461    0.2787 C   0  0  2  0  0  0  0  0  0  0  0  0
   21.1208   29.6109    0.4672 N   0  0  0  0  0  0  0  0  0  0  0  0
   19.0856   26.1597    3.2281 C   0  0  1  0  0  0  0  0  0  0  0  0
   18.6458   24.8090    3.3843 O   0  0  0  0  0  0  0  0  0  0  0  0
   19.6243   23.5655   -1.3502 C   0  0  2  0  0  0  0  0  0  0  0  0
   20.2713   22.6973   -2.2461 O   0  0  0  0  0  0  0  0  0  0  0  0
   18.6897   29.3622    0.3421 C   0  0  1  0  0  0  0  0  0  0  0  0
   18.7750   28.6705    1.5782 O   0  0  0  0  0  0  0  0  0  0  0  0
   18.0189   27.0527    3.6975 C   0  0  1  0  0  0  0  0  0  0  0  0
   17.2295   27.2865    2.5377 O   0  0  0  0  0  0  0  0  0  0  0  0
   18.4271   24.1826   -2.0243 C   0  0  1  0  0  0  0  0  0  0  0  0
   17.4319   23.2112   -2.1601 O   0  0  0  0  0  0  0  0  0  0  0  0
   17.3355   30.1177    0.2229 C   0  0  2  0  0  0  0  0  0  0  0  0
   16.2628   29.1800    0.2949 O   0  0  0  0  0  0  0  0  0  0  0  0
   17.8895   25.2893   -1.1824 C   0  0  1  0  0  0  0  0  0  0  0  0
   18.8915   26.2566   -1.0563 O   0  0  0  0  0  0  0  0  0  0  0  0
   17.2818   30.8532   -1.1325 C   0  0  1  0  0  0  0  0  0  0  0  0
   16.0361   31.5575   -1.2623 O   0  0  0  0  0  0  0  0  0  0  0  0
   16.6728   25.9608   -1.8495 C   0  0  0  0  0  0  0  0  0  0  0  0
   17.0878   26.5855   -3.0589 O   0  0  0  0  0  0  0  0  0  0  0  0
   19.7638   34.3688   -2.6613 N   0  0  0  0  0  0  0  0  0  0  0  0
   21.1335   30.3597    2.5005 N   0  0  0  0  0  0  0  0  0  0  0  0
  1  2  1  0  0  0  0
  1 39  1  0  0  0  0
  3  4  1  0  0  0  0
  5  6  1  0  0  0  0
  5 40  1  0  0  0  0
  9 10  1  6  0  0  0
  9 14  1  0  0  0  0
  9 35  1  0  0  0  0
 10  1  1  0  0  0  0
 11 16  1  0  0  0  0
 11 28  1  0  0  0  0
 11 26  1  1  0  0  0
 12 17  1  0  0  0  0
 12 34  1  0  0  0  0
 12 13  1  1  0  0  0
 14 15  1  1  0  0  0
 14 19  1  0  0  0  0
 16 13  1  6  0  0  0
 16 21  1  0  0  0  0
 17 18  1  1  0  0  0
 17 23  1  0  0  0  0
 18  8  1  0  0  0  0
 19 20  1  6  0  0  0
 19 25  1  0  0  0  0
 20  5  1  0  0  0  0
 21  3  1  1  0  0  0
 21 22  1  0  0  0  0
 21 27  1  0  0  0  0
 23 24  1  6  0  0  0
 23 29  1  0  0  0  0
 25 26  1  1  0  0  0
 25 31  1  0  0  0  0
 27  7  1  1  0  0  0
 27 28  1  0  0  0  0
 29 30  1  1  0  0  0
 29 33  1  0  0  0  0
 31 32  1  6  0  0  0
 31 35  1  0  0  0  0
 33 34  1  0  0  0  0
 33 37  1  6  0  0  0
 35 36  1  1  0  0  0
 37 38  1  0  0  0  0
M  END
>  <CHROM.1>
-102.77127994,-82.70331928,119.21136750,148.03066964,79.84015514,-123.41384748
158.20702523,135.31089257,-169.90158073,-153.40036815,-64.50168584,19.02253556
27.89164223,0.20705424,2.13150870,-1.34875012,0.29649393

>  <Name>
1nta_lig

>  <RI>
2.40834e+07

>  <Rbt.Current_Directory>
/home/itssahil/PROJECTS/Mol_Feturizer/New_Systems/rnas/1nta

>  <Rbt.Executable>
rbdock ($Id: //depot/dev/client3/rdock/2013.1/src/exe/rbdock.cxx#4 $)

>  <Rbt.Library>
libRbt.so (2013.1, Build901 2013/11/27)

>  <Rbt.Parameter_File>
/export/apps/rDock/src/rDock_2013.1_src/data/scripts/dock_solv.prm

>  <Rbt.Receptor>
prm/blind_docking_80.prm

>  <SCORE>
-28.141

>  <SCORE.INTER>
-12.4576

>  <SCORE.INTER.CONST>
1

>  <SCORE.INTER.POLAR>
0

>  <SCORE.INTER.ROT>
11

>  <SCORE.INTER.SOLV>
20.2264

>  <SCORE.INTER.VDW>
-25.9805

>  <SCORE.INTER.norm>
-0.311441

>  <SCORE.INTRA>
-15.7843

>  <SCORE.INTRA.DIHEDRAL>
0.805458

>  <SCORE.INTRA.DIHEDRAL.0>
19.0336

>  <SCORE.INTRA.POLAR>
0

>  <SCORE.INTRA.POLAR.0>
0

>  <SCORE.INTRA.REPUL>
0

>  <SCORE.INTRA.REPUL.0>
0

>  <SCORE.INTRA.SOLV>
0.16816

>  <SCORE.INTRA.SOLV.lig_0>
-97.5861

>  <SCORE.INTRA.VDW>
-16.2711

>  <SCORE.INTRA.VDW.0>
11.7669

>  <SCORE.INTRA.norm>
-0.394606

>  <SCORE.RESTR>
0.100851

>  <SCORE.RESTR.CAVITY>
0.100851

>  <SCORE.RESTR.norm>
0.00252128

>  <SCORE.SYSTEM>
0

>  <SCORE.SYSTEM.CONST>
0

>  <SCORE.SYSTEM.DIHEDRAL>
0

>  <SCORE.SYSTEM.SOLV>
0

>  <SCORE.SYSTEM.norm>
0

>  <SCORE.heavy>
40

>  <SCORE.norm>
-0.703526

>  <RMSD>
19.816

$$$$
1nta_lig
 OpenBabel11021811403D
libRbt.so/2013.1/901 2013/11/27
 40 42  0  0  0  0  0  0  0  0999 V2000
   21.7696   22.7595   -4.2120 C   0  0  0  0  0  0  0  0  0  0  0  0
   21.4343   21.5980   -3.7895 N   0  0  0  0  0  0  0  0  0  0  0  0
   17.4616   27.5520    3.1866 C   0  0  0  0  0  0  0  0  0  0  0  0
   16.3638   27.8251    2.7536 O   0  0  0  0  0  0  0  0  0  0  0  0
   17.0785   25.2768   -1.5427 C   0  0  0  0  0  0  0  0  0  0  0  0
   15.8661   25.2619   -2.0322 N   0  0  0  0  0  0  0  0  0  0  0  0
   20.6330   27.1698    4.1125 C   0  0  0  0  0  0  0  0  0  0  0  0
   15.5353   31.8945   -1.1337 C   0  0  0  0  0  0  0  0  0  0  0  0
   21.5760   24.0032   -2.2079 C   0  0  2  0  0  0  0  0  0  0  0  0
   22.4415   23.5083   -3.3502 N   0  0  0  0  0  0  0  0  0  0  0  0
   19.8161   27.9361    0.7013 C   0  0  2  0  0  0  0  0  0  0  0  0
   18.4751   30.1092   -0.3423 C   0  0  1  0  0  0  0  0  0  0  0  0
   18.5743   29.8967    1.0224 O   0  0  0  0  0  0  0  0  0  0  0  0
   20.2770   24.6220   -2.7581 C   0  0  1  0  0  0  0  0  0  0  0  0
   19.5775   23.6021   -3.4050 O   0  0  0  0  0  0  0  0  0  0  0  0
   18.6066   28.6126    1.3374 C   0  0  2  0  0  0  0  0  0  0  0  0
   17.7574   31.3771   -0.7499 C   0  0  1  0  0  0  0  0  0  0  0  0
   16.4708   31.3865   -0.1444 N   0  0  0  0  0  0  0  0  0  0  0  0
   19.3703   25.1625   -1.6443 C   0  0  2  0  0  0  0  0  0  0  0  0
   18.1115   25.7702   -2.1386 N   0  0  0  0  0  0  0  0  0  0  0  0
   18.7486   28.1879    2.7339 C   0  0  1  0  0  0  0  0  0  0  0  0
   19.0727   29.3504    3.4992 O   0  0  0  0  0  0  0  0  0  0  0  0
   18.4575   32.5023   -0.3379 C   0  0  2  0  0  0  0  0  0  0  0  0
   17.9027   33.6134   -0.9957 O   0  0  0  0  0  0  0  0  0  0  0  0
   20.1540   26.2052   -0.8631 C   0  0  1  0  0  0  0  0  0  0  0  0
   19.3124   26.6989    0.1673 O   0  0  0  0  0  0  0  0  0  0  0  0
   19.8688   27.2434    2.8270 C   0  0  1  0  0  0  0  0  0  0  0  0
   20.7103   27.5978    1.7365 O   0  0  0  0  0  0  0  0  0  0  0  0
   19.9132   32.3770   -0.7036 C   0  0  1  0  0  0  0  0  0  0  0  0
   20.6293   33.3973   -0.0722 O   0  0  0  0  0  0  0  0  0  0  0  0
   21.4444   25.5729   -0.2683 C   0  0  2  0  0  0  0  0  0  0  0  0
   22.1599   26.5628    0.4689 O   0  0  0  0  0  0  0  0  0  0  0  0
   20.4423   31.0681   -0.2247 C   0  0  1  0  0  0  0  0  0  0  0  0
   19.7218   30.0551   -0.8652 O   0  0  0  0  0  0  0  0  0  0  0  0
   22.3311   25.0514   -1.4185 C   0  0  1  0  0  0  0  0  0  0  0  0
   23.5305   24.4634   -0.8888 O   0  0  0  0  0  0  0  0  0  0  0  0
   21.9276   30.8933   -0.5984 C   0  0  0  0  0  0  0  0  0  0  0  0
   22.3151   29.5454   -0.3578 O   0  0  0  0  0  0  0  0  0  0  0  0
   21.4711   23.1784   -5.3942 N   0  0  0  0  0  0  0  0  0  0  0  0
   17.2982   24.7982   -0.3811 N   0  0  0  0  0  0  0  0  0  0  0  0
  1  2  1  0  0  0  0
  1 39  1  0  0  0  0
  3  4  1  0  0  0  0
  5  6  1  0  0  0  0
  5 40  1  0  0  0  0
  9 10  1  6  0  0  0
  9 14  1  0  0  0  0
  9 35  1  0  0  0  0
 10  1  1  0  0  0  0
 11 16  1  0  0  0  0
 11 28  1  0  0  0  0
 11 26  1  1  0  0  0
 12 17  1  0  0  0  0
 12 34  1  0  0  0  0
 12 13  1  1  0  0  0
 14 15  1  1  0  0  0
 14 19  1  0  0  0  0
 16 13  1  1  0  0  0
 16 21  1  0  0  0  0
 17 18  1  1  0  0  0
 17 23  1  0  0  0  0
 18  8  1  0  0  0  0
 19 20  1  6  0  0  0
 19 25  1  0  0  0  0
 20  5  1  0  0  0  0
 21  3  1  1  0  0  0
 21 22  1  0  0  0  0
 21 27  1  0  0  0  0
 23 24  1  6  0  0  0
 23 29  1  0  0  0  0
 25 26  1  1  0  0  0
 25 31  1  0  0  0  0
 27  7  1  1  0  0  0
 27 28  1  0  0  0  0
 29 30  1  1  0  0  0
 29 33  1  0  0  0  0
 31 32  1  6  0  0  0
 31 35  1  0  0  0  0
 33 34  1  0  0  0  0
 33 37  1  6  0  0  0
 35 36  1  1  0  0  0
 37 38  1  0  0  0  0
M  END
>  <CHROM.1>
-49.29441262,-71.24220851,157.84150687,150.30726907,60.81169971,-139.40527004
128.07651321,-156.04723798,-28.72457329,-163.33368421,-168.82156572,19.62237030
27.64031337,-0.42206012,-1.07626372,0.90745880,0.00698685

>  <Name>
1nta_lig

>  <RI>
2.40834e+07

>  <Rbt.Current_Directory>
/home/itssahil/PROJECTS/Mol_Feturizer/New_Systems/rnas/1nta

>  <Rbt.Executable>
rbdock ($Id: //depot/dev/client3/rdock/2013.1/src/exe/rbdock.cxx#4 $)

>  <Rbt.Library>
libRbt.so (2013.1, Build901 2013/11/27)

>  <Rbt.Parameter_File>
/export/apps/rDock/src/rDock_2013.1_src/data/scripts/dock_solv.prm

>  <Rbt.Receptor>
prm/blind_docking_80.prm

>  <SCORE>
0.705191

>  <SCORE.INTER>
6.52014

>  <SCORE.INTER.CONST>
1

>  <SCORE.INTER.POLAR>
0

>  <SCORE.INTER.ROT>
11

>  <SCORE.INTER.SOLV>
18.6466

>  <SCORE.INTER.VDW>
-12.8021

>  <SCORE.INTER.norm>
0.163004

>  <SCORE.INTRA>
-7.03745

>  <SCORE.INTRA.DIHEDRAL>
-5.29851

>  <SCORE.INTRA.DIHEDRAL.0>
19.0336

>  <SCORE.INTRA.POLAR>
0

>  <SCORE.INTRA.POLAR.0>
0

>  <SCORE.INTRA.REPUL>
0.126766

>  <SCORE.INTRA.REPUL.0>
0

>  <SCORE.INTRA.SOLV>
-2.90703

>  <SCORE.INTRA.SOLV.lig_0>
-97.5861

>  <SCORE.INTRA.VDW>
-3.56852

>  <SCORE.INTRA.VDW.0>
11.7669

>  <SCORE.INTRA.norm>
-0.175936

>  <SCORE.RESTR>
1.2225

>  <SCORE.RESTR.CAVITY>
1.2225

>  <SCORE.RESTR.norm>
0.0305626

>  <SCORE.SYSTEM>
0

>  <SCORE.SYSTEM.CONST>
0

>  <SCORE.SYSTEM.DIHEDRAL>
0

>  <SCORE.SYSTEM.SOLV>
0

>  <SCORE.SYSTEM.norm>
0

>  <SCORE.heavy>
40

>  <SCORE.norm>
0.0176298

>  <RMSD>
19.824

$$$$
1nta_lig
 OpenBabel11021811403D
libRbt.so/2013.1/901 2013/11/27
 40 42  0  0  0  0  0  0  0  0999 V2000
   18.3752   34.3627   -0.7539 C   0  0  0  0  0  0  0  0  0  0  0  0
   17.2327   34.8079   -1.1234 N   0  0  0  0  0  0  0  0  0  0  0  0
   18.6540   24.6549   -1.8999 C   0  0  0  0  0  0  0  0  0  0  0  0
   17.7578   24.2297   -1.2046 O   0  0  0  0  0  0  0  0  0  0  0  0
   16.9576   28.1566   -0.8978 C   0  0  0  0  0  0  0  0  0  0  0  0
   17.1645   26.9022   -0.5921 N   0  0  0  0  0  0  0  0  0  0  0  0
   21.7058   24.5123   -3.2142 C   0  0  0  0  0  0  0  0  0  0  0  0
   18.6307   22.5158    1.3737 C   0  0  0  0  0  0  0  0  0  0  0  0
   18.8911   32.0568   -0.8845 C   0  0  2  0  0  0  0  0  0  0  0  0
   18.3526   33.2231   -0.0791 N   0  0  0  0  0  0  0  0  0  0  0  0
   20.7911   27.2146   -1.0343 C   0  0  2  0  0  0  0  0  0  0  0  0
   18.9862   25.5999    1.5598 C   0  0  1  0  0  0  0  0  0  0  0  0
   20.1040   25.9934    0.8433 O   0  0  0  0  0  0  0  0  0  0  0  0
   17.8004   30.9823   -1.0537 C   0  0  1  0  0  0  0  0  0  0  0  0
   16.7648   31.5599   -1.7899 O   0  0  0  0  0  0  0  0  0  0  0  0
   19.8488   26.1723   -0.4420 C   0  0  2  0  0  0  0  0  0  0  0  0
   19.2017   24.4461    2.5142 C   0  0  1  0  0  0  0  0  0  0  0  0
   19.7456   23.3507    1.7886 N   0  0  0  0  0  0  0  0  0  0  0  0
   18.2980   29.7643   -1.8434 C   0  0  2  0  0  0  0  0  0  0  0  0
   17.2743   28.7067   -2.0215 N   0  0  0  0  0  0  0  0  0  0  0  0
   20.0103   25.0714   -1.3973 C   0  0  1  0  0  0  0  0  0  0  0  0
   20.6792   24.0107   -0.7120 O   0  0  0  0  0  0  0  0  0  0  0  0
   20.0809   24.7949    3.5297 C   0  0  2  0  0  0  0  0  0  0  0  0
   20.0022   23.8017    4.5209 O   0  0  0  0  0  0  0  0  0  0  0  0
   19.4936   29.1815   -1.1067 C   0  0  1  0  0  0  0  0  0  0  0  0
   19.9518   28.0581   -1.8428 O   0  0  0  0  0  0  0  0  0  0  0  0
   20.8679   25.5263   -2.4988 C   0  0  1  0  0  0  0  0  0  0  0  0
   21.6663   26.5483   -1.9150 O   0  0  0  0  0  0  0  0  0  0  0  0
   19.6977   26.1262    4.1207 C   0  0  1  0  0  0  0  0  0  0  0  0
   20.7244   26.5616    4.9625 O   0  0  0  0  0  0  0  0  0  0  0  0
   20.6153   30.2505   -0.9730 C   0  0  2  0  0  0  0  0  0  0  0  0
   21.7311   29.6824   -0.2893 O   0  0  0  0  0  0  0  0  0  0  0  0
   19.5270   27.1304    3.0322 C   0  0  1  0  0  0  0  0  0  0  0  0
   18.4956   26.6870    2.1986 O   0  0  0  0  0  0  0  0  0  0  0  0
   20.0787   31.4516   -0.1665 C   0  0  1  0  0  0  0  0  0  0  0  0
   21.1020   32.4513   -0.0310 O   0  0  0  0  0  0  0  0  0  0  0  0
   19.1140   28.5042    3.5966 C   0  0  0  0  0  0  0  0  0  0  0  0
   19.0939   29.4573    2.5401 O   0  0  0  0  0  0  0  0  0  0  0  0
   19.4760   34.9813   -1.0146 N   0  0  0  0  0  0  0  0  0  0  0  0
   16.3807   28.9255   -0.0597 N   0  0  0  0  0  0  0  0  0  0  0  0
  1  2  1  0  0  0  0
  1 39  1  0  0  0  0
  3  4  1  0  0  0  0
  5  6  1  0  0  0  0
  5 40  1  0  0  0  0
  9 10  1  1  0  0  0
  9 14  1  0  0  0  0
  9 35  1  0  0  0  0
 10  1  1  0  0  0  0
 11 16  1  0  0  0  0
 11 28  1  0  0  0  0
 11 26  1  6  0  0  0
 12 17  1  0  0  0  0
 12 34  1  0  0  0  0
 12 13  1  1  0  0  0
 14 15  1  6  0  0  0
 14 19  1  0  0  0  0
 16 13  1  1  0  0  0
 16 21  1  0  0  0  0
 17 18  1  6  0  0  0
 17 23  1  0  0  0  0
 18  8  1  0  0  0  0
 19 20  1  1  0  0  0
 19 25  1  0  0  0  0
 20  5  1  0  0  0  0
 21  3  1  6  0  0  0
 21 22  1  0  0  0  0
 21 27  1  0  0  0  0
 23 24  1  1  0  0  0
 23 29  1  0  0  0  0
 25 26  1  6  0  0  0
 25 31  1  0  0  0  0
 27  7  1  1  0  0  0
 27 28  1  0  0  0  0
 29 30  1  1  0  0  0
 29 33  1  0  0  0  0
 31 32  1  1  0  0  0
 31 35  1  0  0  0  0
 33 34  1  0  0  0  0
 33 37  1  1  0  0  0
 35 36  1  6  0  0  0
 37 38  1  0  0  0  0
M  END
>  <CHROM.1>
-119.28608670,108.55956552,92.97124668,133.95039425,151.42246753,-93.44745370
-66.54981285,-116.13054042,-60.79350162,-162.19524716,174.24592638,19.30545397
27.92142066,0.16320319,2.92611874,1.43994449,-1.62090722

>  <Name>
1nta_lig

>  <RI>
2.40834e+07

>  <Rbt.Current_Directory>
/home/itssahil/PROJECTS/Mol_Feturizer/New_Systems/rnas/1nta

>  <Rbt.Executable>
rbdock ($Id: //depot/dev/client3/rdock/2013.1/src/exe/rbdock.cxx#4 $)

>  <Rbt.Library>
libRbt.so (2013.1, Build901 2013/11/27)

>  <Rbt.Parameter_File>
/export/apps/rDock/src/rDock_2013.1_src/data/scripts/dock_solv.prm

>  <Rbt.Receptor>
prm/blind_docking_80.prm

>  <SCORE>
-22.5661

>  <SCORE.INTER>
-8.60058

>  <SCORE.INTER.CONST>
1

>  <SCORE.INTER.POLAR>
-0.741662

>  <SCORE.INTER.ROT>
11

>  <SCORE.INTER.SOLV>
13.5068

>  <SCORE.INTER.VDW>
-18.6971

>  <SCORE.INTER.norm>
-0.215014

>  <SCORE.INTRA>
-14.5795

>  <SCORE.INTRA.DIHEDRAL>
-0.98167

>  <SCORE.INTRA.DIHEDRAL.0>
19.0336

>  <SCORE.INTRA.POLAR>
0

>  <SCORE.INTRA.POLAR.0>
0

>  <SCORE.INTRA.REPUL>
0

>  <SCORE.INTRA.REPUL.0>
0

>  <SCORE.INTRA.SOLV>
5.36807

>  <SCORE.INTRA.SOLV.lig_0>
-97.5861

>  <SCORE.INTRA.VDW>
-16.7727

>  <SCORE.INTRA.VDW.0>
11.7669

>  <SCORE.INTRA.norm>
-0.364489

>  <SCORE.RESTR>
0.614072

>  <SCORE.RESTR.CAVITY>
0.614072

>  <SCORE.RESTR.norm>
0.0153518

>  <SCORE.SYSTEM>
0

>  <SCORE.SYSTEM.CONST>
0

>  <SCORE.SYSTEM.DIHEDRAL>
0

>  <SCORE.SYSTEM.SOLV>
0

>  <SCORE.SYSTEM.norm>
0

>  <SCORE.heavy>
40

>  <SCORE.norm>
-0.564151

>  <RMSD>
19.832

$$$$
1nta_lig
 OpenBabel11021811403D
libRbt.so/2013.1/901 2013/11/27
 40 42  0  0  0  0  0  0  0  0999 V2000
   18.3632   21.4246   -2.9405 C   0  0  0  0  0  0  0  0  0  0  0  0
   18.6354   20.4632   -2.1395 N   0  0  0  0  0  0  0  0  0  0  0  0
   20.5959   30.6460   -0.0515 C   0  0  0  0  0  0  0  0  0  0  0  0
   21.3912   31.2243    0.6558 O   0  0  0  0  0  0  0  0  0  0  0  0
   21.7963   25.6034   -0.2051 C   0  0  0  0  0  0  0  0  0  0  0  0
   22.1826   26.8453   -0.0694 N   0  0  0  0  0  0  0  0  0  0  0  0
   17.6032   31.1191   -1.4231 C   0  0  0  0  0  0  0  0  0  0  0  0
   22.0038   28.5486    2.7946 C   0  0  0  0  0  0  0  0  0  0  0  0
   18.0594   23.6903   -2.3286 C   0  0  2  0  0  0  0  0  0  0  0  0
   17.4746   22.3017   -2.4982 N   0  0  0  0  0  0  0  0  0  0  0  0
   18.2930   28.1328    0.4468 C   0  0  2  0  0  0  0  0  0  0  0  0
   18.9227   27.8270    3.0495 C   0  0  1  0  0  0  0  0  0  0  0  0
   18.9817   29.0849    2.4736 O   0  0  0  0  0  0  0  0  0  0  0  0
   19.0718   23.6998   -1.1676 C   0  0  1  0  0  0  0  0  0  0  0  0
   20.1151   22.8444   -1.5248 O   0  0  0  0  0  0  0  0  0  0  0  0
   19.2704   29.0420    1.1837 C   0  0  2  0  0  0  0  0  0  0  0  0
   20.2287   27.3099    3.6113 C   0  0  1  0  0  0  0  0  0  0  0  0
   21.2124   27.3479    2.5851 N   0  0  0  0  0  0  0  0  0  0  0  0
   19.6798   25.0893   -0.9344 C   0  0  2  0  0  0  0  0  0  0  0  0
   20.6564   25.1365    0.1802 N   0  0  0  0  0  0  0  0  0  0  0  0
   19.2024   30.2541    0.3609 C   0  0  1  0  0  0  0  0  0  0  0  0
   18.5698   31.2653    1.1480 O   0  0  0  0  0  0  0  0  0  0  0  0
   20.6582   28.0893    4.6763 C   0  0  2  0  0  0  0  0  0  0  0  0
   21.6924   27.3923    5.3241 O   0  0  0  0  0  0  0  0  0  0  0  0
   18.5444   26.0578   -0.6435 C   0  0  1  0  0  0  0  0  0  0  0  0
   19.1117   27.3412   -0.4322 O   0  0  0  0  0  0  0  0  0  0  0  0
   18.3592   29.9815   -0.8098 C   0  0  1  0  0  0  0  0  0  0  0  0
   17.4863   28.9471   -0.3728 O   0  0  0  0  0  0  0  0  0  0  0  0
   19.5277   28.3244    5.6434 C   0  0  1  0  0  0  0  0  0  0  0  0
   19.9158   29.2982    6.5672 O   0  0  0  0  0  0  0  0  0  0  0  0
   17.5431   26.0843   -1.8332 C   0  0  2  0  0  0  0  0  0  0  0  0
   16.4919   27.0053   -1.5464 O   0  0  0  0  0  0  0  0  0  0  0  0
   18.3318   28.8264    4.9083 C   0  0  1  0  0  0  0  0  0  0  0  0
   17.9501   27.8434    3.9900 O   0  0  0  0  0  0  0  0  0  0  0  0
   16.9483   24.6738   -2.0281 C   0  0  1  0  0  0  0  0  0  0  0  0
   16.0187   24.6778   -3.1238 O   0  0  0  0  0  0  0  0  0  0  0  0
   17.1445   29.0604    5.8632 C   0  0  0  0  0  0  0  0  0  0  0  0
   16.7193   27.8113    6.3960 O   0  0  0  0  0  0  0  0  0  0  0  0
   18.9110   21.5329   -4.1026 N   0  0  0  0  0  0  0  0  0  0  0  0
   22.5638   24.7605   -0.7767 N   0  0  0  0  0  0  0  0  0  0  0  0
  1  2  1  0  0  0  0
  1 39  1  0  0  0  0
  3  4  1  0  0  0  0
  5  6  1  0  0  0  0
  5 40  1  0  0  0  0
  9 10  1  1  0  0  0
  9 14  1  0  0  0  0
  9 35  1  0  0  0  0
 10  1  1  0  0  0  0
 11 16  1  0  0  0  0
 11 28  1  0  0  0  0
 11 26  1  6  0  0  0
 12 17  1  0  0  0  0
 12 34  1  0  0  0  0
 12 13  1  1  0  0  0
 14 15  1  6  0  0  0
 14 19  1  0  0  0  0
 16 13  1  1  0  0  0
 16 21  1  0  0  0  0
 17 18  1  6  0  0  0
 17 23  1  0  0  0  0
 18  8  1  0  0  0  0
 19 20  1  1  0  0  0
 19 25  1  0  0  0  0
 20  5  1  0  0  0  0
 21  3  1  6  0  0  0
 21 22  1  0  0  0  0
 21 27  1  0  0  0  0
 23 24  1  1  0  0  0
 23 29  1  0  0  0  0
 25 26  1  6  0  0  0
 25 31  1  0  0  0  0
 27  7  1  1  0  0  0
 27 28  1  0  0  0  0
 29 30  1  1  0  0  0
 29 33  1  0  0  0  0
 31 32  1  1  0  0  0
 31 35  1  0  0  0  0
 33 34  1  0  0  0  0
 33 37  1  1  0  0  0
 35 36  1  6  0  0  0
 37 38  1  0  0  0  0
M  END
>  <CHROM.1>
-68.52094350,116.35035824,149.24991513,89.83322398,54.38248333,99.33968633
124.62939476,96.88380702,-78.84525597,-151.72604755,-65.84273886,19.14387196
26.96723867,0.81300074,-1.87559663,-1.22127359,0.54056744

>  <Name>
1nta_lig

>  <RI>
9.25352e+06

>  <Rbt.Current_Directory>
/home/itssahil/PROJECTS/Mol_Feturizer/New_Systems/rnas/1nta

>  <Rbt.Executable>
rbdock ($Id: //depot/dev/client3/rdock/2013.1/src/exe/rbdock.cxx#4 $)

>  <Rbt.Library>
libRbt.so (2013.1, Build901 2013/11/27)

>  <Rbt.Parameter_File>
/export/apps/rDock/src/rDock_2013.1_src/data/scripts/dock_solv.prm

>  <Rbt.Receptor>
prm/blind_docking_40.prm

>  <SCORE>
-5.41778

>  <SCORE.INTER>
-3.97597

>  <SCORE.INTER.CONST>
1

>  <SCORE.INTER.POLAR>
0

>  <SCORE.INTER.ROT>
11

>  <SCORE.INTER.SOLV>
15.5846

>  <SCORE.INTER.VDW>
-18.7788

>  <SCORE.INTER.norm>
-0.0993992

>  <SCORE.INTRA>
-1.86493

>  <SCORE.INTRA.DIHEDRAL>
-3.9154

>  <SCORE.INTRA.DIHEDRAL.0>
19.0336

>  <SCORE.INTRA.POLAR>
0

>  <SCORE.INTRA.POLAR.0>
0

>  <SCORE.INTRA.REPUL>
0

>  <SCORE.INTRA.REPUL.0>
0

>  <SCORE.INTRA.SOLV>
0.81307

>  <SCORE.INTRA.SOLV.lig_0>
-97.5861

>  <SCORE.INTRA.VDW>
-0.313763

>  <SCORE.INTRA.VDW.0>
11.7669

>  <SCORE.INTRA.norm>
-0.0466233

>  <SCORE.RESTR>
0.423121

>  <SCORE.RESTR.CAVITY>
0.423121

>  <SCORE.RESTR.norm>
0.010578

>  <SCORE.SYSTEM>
0

>  <SCORE.SYSTEM.CONST>
0

>  <SCORE.SYSTEM.DIHEDRAL>
0

>  <SCORE.SYSTEM.SOLV>
0

>  <SCORE.SYSTEM.norm>
0

>  <SCORE.heavy>
40

>  <SCORE.norm>
-0.135444

>  <RMSD>
19.878

$$$$
1nta_lig
 OpenBabel11021811403D
libRbt.so/2013.1/901 2013/11/27
 40 42  0  0  0  0  0  0  0  0999 V2000
   18.9808   19.7105   -3.2122 C   0  0  0  0  0  0  0  0  0  0  0  0
   17.8805   19.0591   -3.2844 N   0  0  0  0  0  0  0  0  0  0  0  0
   17.5138   27.1560    3.5089 C   0  0  0  0  0  0  0  0  0  0  0  0
   17.4818   27.1935    4.7192 O   0  0  0  0  0  0  0  0  0  0  0  0
   19.7610   25.4339   -2.6634 C   0  0  0  0  0  0  0  0  0  0  0  0
   18.7474   26.1033   -3.1475 N   0  0  0  0  0  0  0  0  0  0  0  0
   20.5600   25.9338    4.0461 C   0  0  0  0  0  0  0  0  0  0  0  0
   18.1918   32.2039    0.7106 C   0  0  0  0  0  0  0  0  0  0  0  0
   18.7129   21.2940   -1.4741 C   0  0  2  0  0  0  0  0  0  0  0  0
   19.3751   20.0309   -1.9889 N   0  0  0  0  0  0  0  0  0  0  0  0
   19.1621   25.9396    0.7391 C   0  0  2  0  0  0  0  0  0  0  0  0
   17.5574   29.0058    0.2903 C   0  0  1  0  0  0  0  0  0  0  0  0
   18.6748   28.2207    0.5192 O   0  0  0  0  0  0  0  0  0  0  0  0
   19.6191   22.5115   -1.7376 C   0  0  1  0  0  0  0  0  0  0  0  0
   19.7467   22.6372   -3.1218 O   0  0  0  0  0  0  0  0  0  0  0  0
   18.4083   27.1583    1.2604 C   0  0  2  0  0  0  0  0  0  0  0  0
   17.8058   30.2711   -0.5010 C   0  0  1  0  0  0  0  0  0  0  0  0
   18.8237   31.0219    0.1488 N   0  0  0  0  0  0  0  0  0  0  0  0
   19.0080   23.8184   -1.2148 C   0  0  2  0  0  0  0  0  0  0  0  0
   19.8565   25.0117   -1.4475 N   0  0  0  0  0  0  0  0  0  0  0  0
   18.7707   27.1270    2.6812 C   0  0  1  0  0  0  0  0  0  0  0  0
   19.6054   28.2598    2.9303 O   0  0  0  0  0  0  0  0  0  0  0  0
   18.2169   29.9794   -1.7940 C   0  0  2  0  0  0  0  0  0  0  0  0
   18.1401   31.1660   -2.5431 O   0  0  0  0  0  0  0  0  0  0  0  0
   18.7671   23.6617    0.2783 C   0  0  1  0  0  0  0  0  0  0  0  0
   18.1989   24.8712    0.7558 O   0  0  0  0  0  0  0  0  0  0  0  0
   19.5496   25.9099    2.9414 C   0  0  1  0  0  0  0  0  0  0  0  0
   20.1508   25.6104    1.6876 O   0  0  0  0  0  0  0  0  0  0  0  0
   17.3178   28.9385   -2.4077 C   0  0  1  0  0  0  0  0  0  0  0  0
   17.8894   28.4921   -3.6021 O   0  0  0  0  0  0  0  0  0  0  0  0
   17.8165   22.4602    0.5457 C   0  0  2  0  0  0  0  0  0  0  0  0
   17.5945   22.3360    1.9495 O   0  0  0  0  0  0  0  0  0  0  0  0
   17.1916   27.7743   -1.4852 C   0  0  1  0  0  0  0  0  0  0  0  0
   16.6155   28.2312   -0.2958 O   0  0  0  0  0  0  0  0  0  0  0  0
   18.4704   21.1672    0.0150 C   0  0  1  0  0  0  0  0  0  0  0  0
   17.6067   20.0439    0.2538 O   0  0  0  0  0  0  0  0  0  0  0  0
   16.2609   26.6937   -2.0704 C   0  0  0  0  0  0  0  0  0  0  0  0
   16.2721   25.5546   -1.2174 O   0  0  0  0  0  0  0  0  0  0  0  0
   19.6601   20.0389   -4.2576 N   0  0  0  0  0  0  0  0  0  0  0  0
   20.7415   25.1337   -3.4216 N   0  0  0  0  0  0  0  0  0  0  0  0
  1  2  1  0  0  0  0
  1 39  1  0  0  0  0
  3  4  1  0  0  0  0
  5  6  1  0  0  0  0
  5 40  1  0  0  0  0
  9 10  1  1  0  0  0
  9 14  1  0  0  0  0
  9 35  1  0  0  0  0
 10  1  1  0  0  0  0
 11 16  1  0  0  0  0
 11 28  1  0  0  0  0
 11 26  1  1  0  0  0
 12 17  1  0  0  0  0
 12 34  1  0  0  0  0
 12 13  1  6  0  0  0
 14 15  1  6  0  0  0
 14 19  1  0  0  0  0
 16 13  1  6  0  0  0
 16 21  1  0  0  0  0
 17 18  1  1  0  0  0
 17 23  1  0  0  0  0
 18  8  1  0  0  0  0
 19 20  1  1  0  0  0
 19 25  1  0  0  0  0
 20  5  1  0  0  0  0
 21  3  1  1  0  0  0
 21 22  1  0  0  0  0
 21 27  1  0  0  0  0
 23 24  1  6  0  0  0
 23 29  1  0  0  0  0
 25 26  1  6  0  0  0
 25 31  1  0  0  0  0
 27  7  1  1  0  0  0
 27 28  1  0  0  0  0
 29 30  1  6  0  0  0
 29 33  1  0  0  0  0
 31 32  1  1  0  0  0
 31 35  1  0  0  0  0
 33 34  1  0  0  0  0
 33 37  1  6  0  0  0
 35 36  1  6  0  0  0
 37 38  1  0  0  0  0
M  END
>  <CHROM.1>
-95.03406814,-83.21943594,179.49292911,177.41325734,139.83618497,-110.18099081
79.01628534,75.93493721,-176.93376241,-69.94151076,174.55628090,18.50475407
25.61362302,-0.39208225,0.56131676,1.48254499,-1.87495476

>  <Name>
1nta_lig

>  <RI>
1.05895e+07

>  <Rbt.Current_Directory>
/home/itssahil/PROJECTS/Mol_Feturizer/New_Systems/rnas/1nta

>  <Rbt.Executable>
rbdock ($Id: //depot/dev/client3/rdock/2013.1/src/exe/rbdock.cxx#4 $)

>  <Rbt.Library>
libRbt.so (2013.1, Build901 2013/11/27)

>  <Rbt.Parameter_File>
/export/apps/rDock/src/rDock_2013.1_src/data/scripts/dock_solv.prm

>  <Rbt.Receptor>
prm/blind_docking_100.prm

>  <SCORE>
-27.0478

>  <SCORE.INTER>
-10.2525

>  <SCORE.INTER.CONST>
1

>  <SCORE.INTER.POLAR>
0

>  <SCORE.INTER.ROT>
11

>  <SCORE.INTER.SOLV>
12.6618

>  <SCORE.INTER.VDW>
-21.9889

>  <SCORE.INTER.norm>
-0.256311

>  <SCORE.INTRA>
-17.3872

>  <SCORE.INTRA.DIHEDRAL>
-9.20217

>  <SCORE.INTRA.DIHEDRAL.0>
19.0336

>  <SCORE.INTRA.POLAR>
0

>  <SCORE.INTRA.POLAR.0>
0

>  <SCORE.INTRA.REPUL>
0

>  <SCORE.INTRA.REPUL.0>
0

>  <SCORE.INTRA.SOLV>
2.56269

>  <SCORE.INTRA.SOLV.lig_0>
-97.5861

>  <SCORE.INTRA.VDW>
-14.0675

>  <SCORE.INTRA.VDW.0>
11.7669

>  <SCORE.INTRA.norm>
-0.434681

>  <SCORE.RESTR>
0.59192

>  <SCORE.RESTR.CAVITY>
0.59192

>  <SCORE.RESTR.norm>
0.014798

>  <SCORE.SYSTEM>
0

>  <SCORE.SYSTEM.CONST>
0

>  <SCORE.SYSTEM.DIHEDRAL>
0

>  <SCORE.SYSTEM.SOLV>
0

>  <SCORE.SYSTEM.norm>
0

>  <SCORE.heavy>
40

>  <SCORE.norm>
-0.676194

>  <RMSD>
19.883

$$$$
1nta_lig
 OpenBabel11021811403D
libRbt.so/2013.1/901 2013/11/27
 40 42  0  0  0  0  0  0  0  0999 V2000
   17.7531   35.2474   -0.7575 C   0  0  0  0  0  0  0  0  0  0  0  0
   18.3626   36.1344   -1.4516 N   0  0  0  0  0  0  0  0  0  0  0  0
   21.2199   27.4922    2.9926 C   0  0  0  0  0  0  0  0  0  0  0  0
   22.3625   27.7476    2.6819 O   0  0  0  0  0  0  0  0  0  0  0  0
   21.1572   31.1421    0.9639 C   0  0  0  0  0  0  0  0  0  0  0  0
   21.3089   30.1815    0.0898 N   0  0  0  0  0  0  0  0  0  0  0  0
   18.5855   25.5370    3.5389 C   0  0  0  0  0  0  0  0  0  0  0  0
   17.1631   27.2665   -2.8123 C   0  0  0  0  0  0  0  0  0  0  0  0
   17.5375   32.9300   -0.3290 C   0  0  2  0  0  0  0  0  0  0  0  0
   17.6223   34.0621   -1.3341 N   0  0  0  0  0  0  0  0  0  0  0  0
   18.5539   27.9193    0.8530 C   0  0  2  0  0  0  0  0  0  0  0  0
   19.7206   26.1927   -0.7734 C   0  0  1  0  0  0  0  0  0  0  0  0
   20.4817   27.2463   -0.2959 O   0  0  0  0  0  0  0  0  0  0  0  0
   18.9296   32.6452    0.2657 C   0  0  1  0  0  0  0  0  0  0  0  0
   19.3245   33.7922    0.9559 O   0  0  0  0  0  0  0  0  0  0  0  0
   20.0610   27.6885    0.8774 C   0  0  2  0  0  0  0  0  0  0  0  0
   19.1961   26.3590   -2.1827 C   0  0  1  0  0  0  0  0  0  0  0  0
   18.4692   27.5790   -2.2568 N   0  0  0  0  0  0  0  0  0  0  0  0
   18.9082   31.4895    1.2750 C   0  0  2  0  0  0  0  0  0  0  0  0
   20.2338   31.1844    1.8647 N   0  0  0  0  0  0  0  0  0  0  0  0
   20.1999   26.8632    2.0818 C   0  0  1  0  0  0  0  0  0  0  0  0
   20.5913   25.5562    1.6567 O   0  0  0  0  0  0  0  0  0  0  0  0
   20.2354   26.3972   -3.1016 C   0  0  2  0  0  0  0  0  0  0  0  0
   19.6763   26.2535   -4.3829 O   0  0  0  0  0  0  0  0  0  0  0  0
   18.3824   30.2526    0.5640 C   0  0  1  0  0  0  0  0  0  0  0  0
   18.3613   29.1884    1.5024 O   0  0  0  0  0  0  0  0  0  0  0  0
   18.8905   26.7652    2.7387 C   0  0  1  0  0  0  0  0  0  0  0  0
   17.9587   26.9454    1.6793 O   0  0  0  0  0  0  0  0  0  0  0  0
   21.2027   25.2714   -2.8461 C   0  0  1  0  0  0  0  0  0  0  0  0
   22.3488   25.4734   -3.6194 O   0  0  0  0  0  0  0  0  0  0  0  0
   16.9580   30.5219    0.0005 C   0  0  2  0  0  0  0  0  0  0  0  0
   16.4782   29.3480   -0.6531 O   0  0  0  0  0  0  0  0  0  0  0  0
   21.6019   25.2661   -1.4097 C   0  0  1  0  0  0  0  0  0  0  0  0
   20.4490   25.0597   -0.6458 O   0  0  0  0  0  0  0  0  0  0  0  0
   17.0246   31.6817   -1.0152 C   0  0  1  0  0  0  0  0  0  0  0  0
   15.7167   31.9455   -1.5487 O   0  0  0  0  0  0  0  0  0  0  0  0
   22.5782   24.1131   -1.1035 C   0  0  0  0  0  0  0  0  0  0  0  0
   22.0833   22.9134   -1.6873 O   0  0  0  0  0  0  0  0  0  0  0  0
   17.2916   35.4887    0.4219 N   0  0  0  0  0  0  0  0  0  0  0  0
   21.9755   32.1202    0.9781 N   0  0  0  0  0  0  0  0  0  0  0  0
  1  2  1  0  0  0  0
  1 39  1  0  0  0  0
  3  4  1  0  0  0  0
  5  6  1  0  0  0  0
  5 40  1  0  0  0  0
  9 10  1  6  0  0  0
  9 14  1  0  0  0  0
  9 35  1  0  0  0  0
 10  1  1  0  0  0  0
 11 16  1  0  0  0  0
 11 28  1  0  0  0  0
 11 26  1  1  0  0  0
 12 17  1  0  0  0  0
 12 34  1  0  0  0  0
 12 13  1  6  0  0  0
 14 15  1  1  0  0  0
 14 19  1  0  0  0  0
 16 13  1  6  0  0  0
 16 21  1  0  0  0  0
 17 18  1  1  0  0  0
 17 23  1  0  0  0  0
 18  8  1  0  0  0  0
 19 20  1  6  0  0  0
 19 25  1  0  0  0  0
 20  5  1  0  0  0  0
 21  3  1  1  0  0  0
 21 22  1  0  0  0  0
 21 27  1  0  0  0  0
 23 24  1  6  0  0  0
 23 29  1  0  0  0  0
 25 26  1  1  0  0  0
 25 31  1  0  0  0  0
 27  7  1  6  0  0  0
 27 28  1  0  0  0  0
 29 30  1  6  0  0  0
 29 33  1  0  0  0  0
 31 32  1  6  0  0  0
 31 35  1  0  0  0  0
 33 34  1  0  0  0  0
 33 37  1  6  0  0  0
 35 36  1  1  0  0  0
 37 38  1  0  0  0  0
M  END
>  <CHROM.1>
-75.01453928,152.26361601,91.02209610,128.08125280,-48.82975448,-127.38358891
-45.73714278,-73.00364756,-56.62997604,-150.40044818,-46.55639763,19.43347173
28.86590789,-0.16608469,2.44581696,-1.13934028,0.91628540

>  <Name>
1nta_lig

>  <RI>
0

>  <Rbt.Current_Directory>
/home/itssahil/PROJECTS/Mol_Feturizer/New_Systems/rnas/1nta

>  <Rbt.Executable>
rbdock ($Id: //depot/dev/client3/rdock/2013.1/src/exe/rbdock.cxx#4 $)

>  <Rbt.Library>
libRbt.so (2013.1, Build901 2013/11/27)

>  <Rbt.Parameter_File>
/export/apps/rDock/src/rDock_2013.1_src/data/scripts/dock_solv.prm

>  <Rbt.Receptor>
prm/blind_docking_60.prm

>  <SCORE>
-15.7539

>  <SCORE.INTER>
-9.82893

>  <SCORE.INTER.CONST>
1

>  <SCORE.INTER.POLAR>
-0.979796

>  <SCORE.INTER.ROT>
11

>  <SCORE.INTER.SOLV>
19.4719

>  <SCORE.INTER.VDW>
-20.7106

>  <SCORE.INTER.norm>
-0.245723

>  <SCORE.INTRA>
-9.43214

>  <SCORE.INTRA.DIHEDRAL>
-0.76779

>  <SCORE.INTRA.DIHEDRAL.0>
19.0336

>  <SCORE.INTRA.POLAR>
0

>  <SCORE.INTRA.POLAR.0>
0

>  <SCORE.INTRA.REPUL>
0.0601447

>  <SCORE.INTRA.REPUL.0>
0

>  <SCORE.INTRA.SOLV>
2.76592

>  <SCORE.INTRA.SOLV.lig_0>
-97.5861

>  <SCORE.INTRA.VDW>
-10.7319

>  <SCORE.INTRA.VDW.0>
11.7669

>  <SCORE.INTRA.norm>
-0.235803

>  <SCORE.RESTR>
3.50719

>  <SCORE.RESTR.CAVITY>
3.50719

>  <SCORE.RESTR.norm>
0.0876797

>  <SCORE.SYSTEM>
0

>  <SCORE.SYSTEM.CONST>
0

>  <SCORE.SYSTEM.DIHEDRAL>
0

>  <SCORE.SYSTEM.SOLV>
0

>  <SCORE.SYSTEM.norm>
0

>  <SCORE.heavy>
40

>  <SCORE.norm>
-0.393847

>  <RMSD>
19.890

$$$$
1nta_lig
 OpenBabel11021811403D
libRbt.so/2013.1/901 2013/11/27
 40 42  0  0  0  0  0  0  0  0999 V2000
   21.2804   21.3932   -3.0742 C   0  0  0  0  0  0  0  0  0  0  0  0
   20.2559   20.6432   -2.9071 N   0  0  0  0  0  0  0  0  0  0  0  0
   19.2915   29.1629    3.0274 C   0  0  0  0  0  0  0  0  0  0  0  0
   18.6555   28.1362    3.1217 O   0  0  0  0  0  0  0  0  0  0  0  0
   18.1718   26.8148   -2.3170 C   0  0  0  0  0  0  0  0  0  0  0  0
   19.0567   27.7037   -2.6864 N   0  0  0  0  0  0  0  0  0  0  0  0
   22.5259   28.5692    3.5250 C   0  0  0  0  0  0  0  0  0  0  0  0
   19.9013   34.4018   -1.0048 C   0  0  0  0  0  0  0  0  0  0  0  0
   20.8076   23.4949   -2.0944 C   0  0  2  0  0  0  0  0  0  0  0  0
   21.0199   22.6635   -3.3445 N   0  0  0  0  0  0  0  0  0  0  0  0
   21.0885   28.1770    0.2584 C   0  0  2  0  0  0  0  0  0  0  0  0
   19.1463   31.2102    0.2354 C   0  0  1  0  0  0  0  0  0  0  0  0
   20.1669   30.3120   -0.0275 O   0  0  0  0  0  0  0  0  0  0  0  0
   19.5849   24.4148   -2.2722 C   0  0  1  0  0  0  0  0  0  0  0  0
   18.4689   23.5906   -2.4243 O   0  0  0  0  0  0  0  0  0  0  0  0
   20.1245   29.2481    0.7571 C   0  0  2  0  0  0  0  0  0  0  0  0
   18.9592   32.2988   -0.7983 C   0  0  1  0  0  0  0  0  0  0  0  0
   20.1959   32.9791   -0.9718 N   0  0  0  0  0  0  0  0  0  0  0  0
   19.3357   25.2990   -1.0430 C   0  0  2  0  0  0  0  0  0  0  0  0
   18.1678   26.2017   -1.1813 N   0  0  0  0  0  0  0  0  0  0  0  0
   20.5140   29.3427    2.1678 C   0  0  1  0  0  0  0  0  0  0  0  0
   21.1197   30.6234    2.3550 O   0  0  0  0  0  0  0  0  0  0  0  0
   18.5623   31.7676   -2.0175 C   0  0  2  0  0  0  0  0  0  0  0  0
   18.1268   32.8327   -2.8243 O   0  0  0  0  0  0  0  0  0  0  0  0
   20.5841   26.1325   -0.8013 C   0  0  1  0  0  0  0  0  0  0  0  0
   20.3496   26.9453    0.3381 O   0  0  0  0  0  0  0  0  0  0  0  0
   21.5176   28.3087    2.4492 C   0  0  1  0  0  0  0  0  0  0  0  0
   22.1404   28.0810    1.1910 O   0  0  0  0  0  0  0  0  0  0  0  0
   17.4323   30.7913   -1.8209 C   0  0  1  0  0  0  0  0  0  0  0  0
   17.2172   30.0996   -3.0157 O   0  0  0  0  0  0  0  0  0  0  0  0
   21.8132   25.2063   -0.5769 C   0  0  2  0  0  0  0  0  0  0  0  0
   22.9712   26.0057   -0.3417 O   0  0  0  0  0  0  0  0  0  0  0  0
   17.7981   29.8026   -0.7668 C   0  0  1  0  0  0  0  0  0  0  0  0
   18.0073   30.5047    0.4243 O   0  0  0  0  0  0  0  0  0  0  0  0
   22.0350   24.3428   -1.8364 C   0  0  1  0  0  0  0  0  0  0  0  0
   23.1684   23.4796   -1.6490 O   0  0  0  0  0  0  0  0  0  0  0  0
   16.6565   28.7961   -0.5219 C   0  0  0  0  0  0  0  0  0  0  0  0
   15.6330   29.4258    0.2403 O   0  0  0  0  0  0  0  0  0  0  0  0
   22.4865   20.9453   -2.9908 N   0  0  0  0  0  0  0  0  0  0  0  0
   17.2088   26.5175   -3.0985 N   0  0  0  0  0  0  0  0  0  0  0  0
  1  2  1  0  0  0  0
  1 39  1  0  0  0  0
  3  4  1  0  0  0  0
  5  6  1  0  0  0  0
  5 40  1  0  0  0  0
  9 10  1  6  0  0  0
  9 14  1  0  0  0  0
  9 35  1  0  0  0  0
 10  1  1  0  0  0  0
 11 16  1  0  0  0  0
 11 28  1  0  0  0  0
 11 26  1  1  0  0  0
 12 17  1  0  0  0  0
 12 34  1  0  0  0  0
 12 13  1  6  0  0  0
 14 15  1  1  0  0  0
 14 19  1  0  0  0  0
 16 13  1  6  0  0  0
 16 21  1  0  0  0  0
 17 18  1  6  0  0  0
 17 23  1  0  0  0  0
 18  8  1  0  0  0  0
 19 20  1  6  0  0  0
 19 25  1  0  0  0  0
 20  5  1  0  0  0  0
 21  3  1  1  0  0  0
 21 22  1  0  0  0  0
 21 27  1  0  0  0  0
 23 24  1  6  0  0  0
 23 29  1  0  0  0  0
 25 26  1  1  0  0  0
 25 31  1  0  0  0  0
 27  7  1  1  0  0  0
 27 28  1  0  0  0  0
 29 30  1  6  0  0  0
 29 33  1  0  0  0  0
 31 32  1  6  0  0  0
 31 35  1  0  0  0  0
 33 34  1  0  0  0  0
 33 37  1  1  0  0  0
 35 36  1  1  0  0  0
 37 38  1  0  0  0  0
M  END
>  <CHROM.1>
-135.67991190,85.56531605,138.62466739,-167.85060413,169.07868461,-135.95406428
-46.92013665,-66.42957835,66.77988325,-150.38690636,-76.13946412,19.78329138
27.70973051,-0.68252453,1.22948878,0.77466468,-2.65426367

>  <Name>
1nta_lig

>  <RI>
9.25352e+06

>  <Rbt.Current_Directory>
/home/itssahil/PROJECTS/Mol_Feturizer/New_Systems/rnas/1nta

>  <Rbt.Executable>
rbdock ($Id: //depot/dev/client3/rdock/2013.1/src/exe/rbdock.cxx#4 $)

>  <Rbt.Library>
libRbt.so (2013.1, Build901 2013/11/27)

>  <Rbt.Parameter_File>
/export/apps/rDock/src/rDock_2013.1_src/data/scripts/dock_solv.prm

>  <Rbt.Receptor>
prm/blind_docking_40.prm

>  <SCORE>
-26.6612

>  <SCORE.INTER>
-14.0043

>  <SCORE.INTER.CONST>
1

>  <SCORE.INTER.POLAR>
-1.36642

>  <SCORE.INTER.ROT>
11

>  <SCORE.INTER.SOLV>
17.4528

>  <SCORE.INTER.VDW>
-21.5324

>  <SCORE.INTER.norm>
-0.350108

>  <SCORE.INTRA>
-13.9997

>  <SCORE.INTRA.DIHEDRAL>
-3.97028

>  <SCORE.INTRA.DIHEDRAL.0>
19.0336

>  <SCORE.INTRA.POLAR>
0

>  <SCORE.INTRA.POLAR.0>
0

>  <SCORE.INTRA.REPUL>
0

>  <SCORE.INTRA.REPUL.0>
0

>  <SCORE.INTRA.SOLV>
3.46774

>  <SCORE.INTRA.SOLV.lig_0>
-97.5861

>  <SCORE.INTRA.VDW>
-13.7484

>  <SCORE.INTRA.VDW.0>
11.7669

>  <SCORE.INTRA.norm>
-0.349992

>  <SCORE.RESTR>
1.34276

>  <SCORE.RESTR.CAVITY>
1.34276

>  <SCORE.RESTR.norm>
0.033569

>  <SCORE.SYSTEM>
0

>  <SCORE.SYSTEM.CONST>
0

>  <SCORE.SYSTEM.DIHEDRAL>
0

>  <SCORE.SYSTEM.SOLV>
0

>  <SCORE.SYSTEM.norm>
0

>  <SCORE.heavy>
40

>  <SCORE.norm>
-0.666531

>  <RMSD>
19.894

$$$$
1nta_lig
 OpenBabel11021811403D
libRbt.so/2013.1/901 2013/11/27
 40 42  0  0  0  0  0  0  0  0999 V2000
   18.4657   21.3273   -2.9207 C   0  0  0  0  0  0  0  0  0  0  0  0
   19.0530   21.4394   -4.0533 N   0  0  0  0  0  0  0  0  0  0  0  0
   19.9116   30.7986   -0.6321 C   0  0  0  0  0  0  0  0  0  0  0  0
   20.0412   31.9352   -1.0304 O   0  0  0  0  0  0  0  0  0  0  0  0
   20.9535   24.7590    0.1117 C   0  0  0  0  0  0  0  0  0  0  0  0
   21.0347   23.8016    0.9987 N   0  0  0  0  0  0  0  0  0  0  0  0
   16.6448   31.3527   -0.9181 C   0  0  0  0  0  0  0  0  0  0  0  0
   22.4603   27.5665    0.5150 C   0  0  0  0  0  0  0  0  0  0  0  0
   17.8960   23.6079   -2.6467 C   0  0  2  0  0  0  0  0  0  0  0  0
   17.4549   22.1589   -2.7173 N   0  0  0  0  0  0  0  0  0  0  0  0
   17.8584   28.1324    0.1053 C   0  0  2  0  0  0  0  0  0  0  0  0
   19.8983   27.6435    2.2659 C   0  0  1  0  0  0  0  0  0  0  0  0
   19.1475   28.7651    1.9564 O   0  0  0  0  0  0  0  0  0  0  0  0
   18.7178   23.8489   -1.3663 C   0  0  1  0  0  0  0  0  0  0  0  0
   19.8673   23.0630   -1.4614 O   0  0  0  0  0  0  0  0  0  0  0  0
   19.0224   28.9511    0.6530 C   0  0  2  0  0  0  0  0  0  0  0  0
   21.3666   27.8985    2.5266 C   0  0  1  0  0  0  0  0  0  0  0  0
   21.9165   28.5784    1.4052 N   0  0  0  0  0  0  0  0  0  0  0  0
   19.1722   25.3083   -1.2301 C   0  0  2  0  0  0  0  0  0  0  0  0
   19.9628   25.5778   -0.0052 N   0  0  0  0  0  0  0  0  0  0  0  0
   18.7115   30.2787    0.1130 C   0  0  1  0  0  0  0  0  0  0  0  0
   18.3610   31.1140    1.2182 O   0  0  0  0  0  0  0  0  0  0  0  0
   21.5447   28.6802    3.6593 C   0  0  2  0  0  0  0  0  0  0  0  0
   22.9062   28.6265    4.0038 O   0  0  0  0  0  0  0  0  0  0  0  0
   17.9330   26.1894   -1.2275 C   0  0  1  0  0  0  0  0  0  0  0  0
   18.3590   27.5374   -1.1050 O   0  0  0  0  0  0  0  0  0  0  0  0
   17.5454   30.1655   -0.7719 C   0  0  1  0  0  0  0  0  0  0  0  0
   16.8434   29.0331   -0.2743 O   0  0  0  0  0  0  0  0  0  0  0  0
   20.7165   28.1479    4.7992 C   0  0  1  0  0  0  0  0  0  0  0  0
   20.7255   29.0795    5.8405 O   0  0  0  0  0  0  0  0  0  0  0  0
   17.1237   25.9817   -2.5392 C   0  0  2  0  0  0  0  0  0  0  0  0
   15.9719   26.8234   -2.5227 O   0  0  0  0  0  0  0  0  0  0  0  0
   19.3069   27.9586    4.3525 C   0  0  1  0  0  0  0  0  0  0  0  0
   19.3091   27.0225    3.3137 O   0  0  0  0  0  0  0  0  0  0  0  0
   16.6782   24.5073   -2.6332 C   0  0  1  0  0  0  0  0  0  0  0  0
   15.9270   24.2950   -3.8396 O   0  0  0  0  0  0  0  0  0  0  0  0
   18.4300   27.3948    5.4880 C   0  0  0  0  0  0  0  0  0  0  0  0
   18.0850   28.4485    6.3801 O   0  0  0  0  0  0  0  0  0  0  0  0
   18.8332   20.4677   -2.0329 N   0  0  0  0  0  0  0  0  0  0  0  0
   21.9145   24.9484   -0.7050 N   0  0  0  0  0  0  0  0  0  0  0  0
  1  2  1  0  0  0  0
  1 39  1  0  0  0  0
  3  4  1  0  0  0  0
  5  6  1  0  0  0  0
  5 40  1  0  0  0  0
  9 10  1  1  0  0  0
  9 14  1  0  0  0  0
  9 35  1  0  0  0  0
 10  1  1  0  0  0  0
 11 16  1  0  0  0  0
 11 28  1  0  0  0  0
 11 26  1  6  0  0  0
 12 17  1  0  0  0  0
 12 34  1  0  0  0  0
 12 13  1  1  0  0  0
 14 15  1  6  0  0  0
 14 19  1  0  0  0  0
 16 13  1  1  0  0  0
 16 21  1  0  0  0  0
 17 18  1  6  0  0  0
 17 23  1  0  0  0  0
 18  8  1  0  0  0  0
 19 20  1  1  0  0  0
 19 25  1  0  0  0  0
 20  5  1  0  0  0  0
 21  3  1  6  0  0  0
 21 22  1  0  0  0  0
 21 27  1  0  0  0  0
 23 24  1  1  0  0  0
 23 29  1  0  0  0  0
 25 26  1  6  0  0  0
 25 31  1  0  0  0  0
 27  7  1  1  0  0  0
 27 28  1  0  0  0  0
 29 30  1  1  0  0  0
 29 33  1  0  0  0  0
 31 32  1  1  0  0  0
 31 35  1  0  0  0  0
 33 34  1  0  0  0  0
 33 37  1  1  0  0  0
 35 36  1  6  0  0  0
 37 38  1  0  0  0  0
M  END
>  <CHROM.1>
-68.79943999,-65.77162025,138.70629046,95.01602253,84.95714355,-92.90647267
52.54541407,-109.07590273,-169.08126949,-117.81399173,78.70992068,19.14365830
26.88695841,0.35944099,-1.96131462,-0.97979598,0.44037510

>  <Name>
1nta_lig

>  <RI>
9.25352e+06

>  <Rbt.Current_Directory>
/home/itssahil/PROJECTS/Mol_Feturizer/New_Systems/rnas/1nta

>  <Rbt.Executable>
rbdock ($Id: //depot/dev/client3/rdock/2013.1/src/exe/rbdock.cxx#4 $)

>  <Rbt.Library>
libRbt.so (2013.1, Build901 2013/11/27)

>  <Rbt.Parameter_File>
/export/apps/rDock/src/rDock_2013.1_src/data/scripts/dock_solv.prm

>  <Rbt.Receptor>
prm/blind_docking_40.prm

>  <SCORE>
-16.253

>  <SCORE.INTER>
-5.43324

>  <SCORE.INTER.CONST>
1

>  <SCORE.INTER.POLAR>
0

>  <SCORE.INTER.ROT>
11

>  <SCORE.INTER.SOLV>
14.7337

>  <SCORE.INTER.VDW>
-19.4667

>  <SCORE.INTER.norm>
-0.135831

>  <SCORE.INTRA>
-11.6958

>  <SCORE.INTRA.DIHEDRAL>
4.44128

>  <SCORE.INTRA.DIHEDRAL.0>
19.0336

>  <SCORE.INTRA.POLAR>
0

>  <SCORE.INTRA.POLAR.0>
0

>  <SCORE.INTRA.REPUL>
0

>  <SCORE.INTRA.REPUL.0>
0

>  <SCORE.INTRA.SOLV>
0.722059

>  <SCORE.INTRA.SOLV.lig_0>
-97.5861

>  <SCORE.INTRA.VDW>
-14.2775

>  <SCORE.INTRA.VDW.0>
11.7669

>  <SCORE.INTRA.norm>
-0.292395

>  <SCORE.RESTR>
0.876025

>  <SCORE.RESTR.CAVITY>
0.876025

>  <SCORE.RESTR.norm>
0.0219006

>  <SCORE.SYSTEM>
0

>  <SCORE.SYSTEM.CONST>
0

>  <SCORE.SYSTEM.DIHEDRAL>
0

>  <SCORE.SYSTEM.SOLV>
0

>  <SCORE.SYSTEM.norm>
0

>  <SCORE.heavy>
40

>  <SCORE.norm>
-0.406325

>  <RMSD>
19.904

$$$$
1nta_lig
 OpenBabel11021811403D
libRbt.so/2013.1/901 2013/11/27
 40 42  0  0  0  0  0  0  0  0999 V2000
   18.7996   33.1053    1.0795 C   0  0  0  0  0  0  0  0  0  0  0  0
   18.2711   33.9199    0.2446 N   0  0  0  0  0  0  0  0  0  0  0  0
   15.0510   26.2848   -1.6774 C   0  0  0  0  0  0  0  0  0  0  0  0
   14.1363   25.5193   -1.4659 O   0  0  0  0  0  0  0  0  0  0  0  0
   21.5665   27.6186   -0.2158 C   0  0  0  0  0  0  0  0  0  0  0  0
   22.8157   27.9520   -0.0205 N   0  0  0  0  0  0  0  0  0  0  0  0
   17.3217   27.6640   -3.6781 C   0  0  0  0  0  0  0  0  0  0  0  0
   16.8370   21.4105    1.9737 C   0  0  0  0  0  0  0  0  0  0  0  0
   19.0447   30.7602    0.8765 C   0  0  2  0  0  0  0  0  0  0  0  0
   19.5505   32.1516    0.5491 N   0  0  0  0  0  0  0  0  0  0  0  0
   18.3431   25.7880   -0.7923 C   0  0  2  0  0  0  0  0  0  0  0  0
   18.2000   23.2454   -0.3624 C   0  0  1  0  0  0  0  0  0  0  0  0
   17.2535   23.7610   -1.2318 O   0  0  0  0  0  0  0  0  0  0  0  0
   20.1587   29.7230    0.6395 C   0  0  1  0  0  0  0  0  0  0  0  0
   21.1906   30.0167    1.5321 O   0  0  0  0  0  0  0  0  0  0  0  0
   17.0313   25.0502   -1.0375 C   0  0  2  0  0  0  0  0  0  0  0  0
   18.0091   21.7931    0.0160 C   0  0  1  0  0  0  0  0  0  0  0  0
   16.6988   21.6287    0.5435 N   0  0  0  0  0  0  0  0  0  0  0  0
   19.6946   28.2902    0.9333 C   0  0  2  0  0  0  0  0  0  0  0  0
   20.7413   27.2640    0.7111 N   0  0  0  0  0  0  0  0  0  0  0  0
   16.4378   25.8750   -2.0950 C   0  0  1  0  0  0  0  0  0  0  0  0
   16.4304   25.0909   -3.2896 O   0  0  0  0  0  0  0  0  0  0  0  0
   18.1576   20.9653   -1.0880 C   0  0  2  0  0  0  0  0  0  0  0  0
   18.2635   19.6449   -0.6187 O   0  0  0  0  0  0  0  0  0  0  0  0
   18.5027   27.9882    0.0389 C   0  0  1  0  0  0  0  0  0  0  0  0
   18.0756   26.6639    0.3171 O   0  0  0  0  0  0  0  0  0  0  0  0
   17.2943   27.0471   -2.3140 C   0  0  1  0  0  0  0  0  0  0  0  0
   18.5863   26.6106   -1.9102 O   0  0  0  0  0  0  0  0  0  0  0  0
   19.4037   21.3287   -1.8519 C   0  0  1  0  0  0  0  0  0  0  0  0
   19.4008   20.6511   -3.0739 O   0  0  0  0  0  0  0  0  0  0  0  0
   17.3583   29.0067    0.3070 C   0  0  2  0  0  0  0  0  0  0  0  0
   16.2465   28.7009   -0.5330 O   0  0  0  0  0  0  0  0  0  0  0  0
   19.4160   22.7935   -2.1287 C   0  0  1  0  0  0  0  0  0  0  0  0
   19.4226   23.4613   -0.9001 O   0  0  0  0  0  0  0  0  0  0  0  0
   17.8615   30.4308   -0.0088 C   0  0  1  0  0  0  0  0  0  0  0  0
   16.8168   31.3876    0.2322 O   0  0  0  0  0  0  0  0  0  0  0  0
   20.6885   23.2088   -2.8934 C   0  0  0  0  0  0  0  0  0  0  0  0
   21.8196   23.0383   -2.0469 O   0  0  0  0  0  0  0  0  0  0  0  0
   18.6122   33.2000    2.3515 N   0  0  0  0  0  0  0  0  0  0  0  0
   21.0783   27.6546   -1.3934 N   0  0  0  0  0  0  0  0  0  0  0  0
  1  2  1  0  0  0  0
  1 39  1  0  0  0  0
  3  4  1  0  0  0  0
  5  6  1  0  0  0  0
  5 40  1  0  0  0  0
  9 10  1  6  0  0  0
  9 14  1  0  0  0  0
  9 35  1  0  0  0  0
 10  1  1  0  0  0  0
 11 16  1  0  0  0  0
 11 28  1  0  0  0  0
 11 26  1  1  0  0  0
 12 17  1  0  0  0  0
 12 34  1  0  0  0  0
 12 13  1  6  0  0  0
 14 15  1  1  0  0  0
 14 19  1  0  0  0  0
 16 13  1  6  0  0  0
 16 21  1  0  0  0  0
 17 18  1  6  0  0  0
 17 23  1  0  0  0  0
 18  8  1  0  0  0  0
 19 20  1  6  0  0  0
 19 25  1  0  0  0  0
 20  5  1  0  0  0  0
 21  3  1  1  0  0  0
 21 22  1  0  0  0  0
 21 27  1  0  0  0  0
 23 24  1  1  0  0  0
 23 29  1  0  0  0  0
 25 26  1  1  0  0  0
 25 31  1  0  0  0  0
 27  7  1  6  0  0  0
 27 28  1  0  0  0  0
 29 30  1  6  0  0  0
 29 33  1  0  0  0  0
 31 32  1  6  0  0  0
 31 35  1  0  0  0  0
 33 34  1  0  0  0  0
 33 37  1  6  0  0  0
 35 36  1  1  0  0  0
 37 38  1  0  0  0  0
M  END
>  <CHROM.1>
-161.93882697,-120.35863931,-130.54647750,148.73508151,41.81269601,-108.27704779
-29.98183351,110.29212204,-62.15708974,-111.00893825,-67.17821319,18.49633029
26.38937899,-0.62943853,1.51519387,-0.14161265,0.19092091

>  <Name>
1nta_lig

>  <RI>
0

>  <Rbt.Current_Directory>
/home/itssahil/PROJECTS/Mol_Feturizer/New_Systems/rnas/1nta

>  <Rbt.Executable>
rbdock ($Id: //depot/dev/client3/rdock/2013.1/src/exe/rbdock.cxx#4 $)

>  <Rbt.Library>
libRbt.so (2013.1, Build901 2013/11/27)

>  <Rbt.Parameter_File>
/export/apps/rDock/src/rDock_2013.1_src/data/scripts/dock_solv.prm

>  <Rbt.Receptor>
prm/blind_docking_60.prm

>  <SCORE>
-10.4149

>  <SCORE.INTER>
-9.21387

>  <SCORE.INTER.CONST>
1

>  <SCORE.INTER.POLAR>
0

>  <SCORE.INTER.ROT>
11

>  <SCORE.INTER.SOLV>
18.8603

>  <SCORE.INTER.VDW>
-23.3627

>  <SCORE.INTER.norm>
-0.230347

>  <SCORE.INTRA>
-2.23931

>  <SCORE.INTRA.DIHEDRAL>
2.67827

>  <SCORE.INTRA.DIHEDRAL.0>
19.0336

>  <SCORE.INTRA.POLAR>
0

>  <SCORE.INTRA.POLAR.0>
0

>  <SCORE.INTRA.REPUL>
0.0344612

>  <SCORE.INTRA.REPUL.0>
0

>  <SCORE.INTRA.SOLV>
0.702314

>  <SCORE.INTRA.SOLV.lig_0>
-97.5861

>  <SCORE.INTRA.VDW>
-4.10191

>  <SCORE.INTRA.VDW.0>
11.7669

>  <SCORE.INTRA.norm>
-0.0559828

>  <SCORE.RESTR>
1.03831

>  <SCORE.RESTR.CAVITY>
1.03831

>  <SCORE.RESTR.norm>
0.0259577

>  <SCORE.SYSTEM>
0

>  <SCORE.SYSTEM.CONST>
0

>  <SCORE.SYSTEM.DIHEDRAL>
0

>  <SCORE.SYSTEM.SOLV>
0

>  <SCORE.SYSTEM.norm>
0

>  <SCORE.heavy>
40

>  <SCORE.norm>
-0.260372

>  <RMSD>
19.944

$$$$
1nta_lig
 OpenBabel11021811403D
libRbt.so/2013.1/901 2013/11/27
 40 42  0  0  0  0  0  0  0  0999 V2000
   19.5793   21.2307   -4.2497 C   0  0  0  0  0  0  0  0  0  0  0  0
   19.3141   20.0155   -3.9448 N   0  0  0  0  0  0  0  0  0  0  0  0
   17.9636   27.2741    3.0446 C   0  0  0  0  0  0  0  0  0  0  0  0
   17.8260   26.1558    3.4893 O   0  0  0  0  0  0  0  0  0  0  0  0
   18.0056   22.2942    1.7534 C   0  0  0  0  0  0  0  0  0  0  0  0
   18.8662   21.7885    2.5981 N   0  0  0  0  0  0  0  0  0  0  0  0
   21.0712   27.8699    4.0688 C   0  0  0  0  0  0  0  0  0  0  0  0
   17.1048   32.0235   -0.4481 C   0  0  0  0  0  0  0  0  0  0  0  0
   19.4893   22.7158   -2.4094 C   0  0  2  0  0  0  0  0  0  0  0  0
   18.8316   22.1456   -3.6509 N   0  0  0  0  0  0  0  0  0  0  0  0
   20.4513   26.6999    0.7316 C   0  0  2  0  0  0  0  0  0  0  0  0
   17.6301   28.6622   -0.2211 C   0  0  1  0  0  0  0  0  0  0  0  0
   18.9616   28.3546    0.0022 O   0  0  0  0  0  0  0  0  0  0  0  0
   18.4750   22.7707   -1.2513 C   0  0  1  0  0  0  0  0  0  0  0  0
   18.1056   21.4554   -0.9656 O   0  0  0  0  0  0  0  0  0  0  0  0
   19.1214   27.4205    0.9247 C   0  0  2  0  0  0  0  0  0  0  0  0
   17.3821   29.8347   -1.1444 C   0  0  1  0  0  0  0  0  0  0  0  0
   18.0824   30.9657   -0.6419 N   0  0  0  0  0  0  0  0  0  0  0  0
   19.0810   23.3630    0.0281 C   0  0  2  0  0  0  0  0  0  0  0  0
   18.1304   23.4353    1.1635 N   0  0  0  0  0  0  0  0  0  0  0  0
   19.1980   27.7769    2.3453 C   0  0  1  0  0  0  0  0  0  0  0  0
   19.3168   29.1991    2.4192 O   0  0  0  0  0  0  0  0  0  0  0  0
   17.8294   29.5621   -2.4296 C   0  0  2  0  0  0  0  0  0  0  0  0
   17.3077   30.5514   -3.2806 O   0  0  0  0  0  0  0  0  0  0  0  0
   19.5825   24.7622   -0.2921 C   0  0  1  0  0  0  0  0  0  0  0  0
   20.1448   25.3037    0.8930 O   0  0  0  0  0  0  0  0  0  0  0  0
   20.4118   27.1793    2.9156 C   0  0  1  0  0  0  0  0  0  0  0  0
   21.2915   27.0582    1.8045 O   0  0  0  0  0  0  0  0  0  0  0  0
   17.3453   28.2079   -2.8770 C   0  0  1  0  0  0  0  0  0  0  0  0
   18.0010   27.8598   -4.0608 O   0  0  0  0  0  0  0  0  0  0  0  0
   20.6400   24.7062   -1.4310 C   0  0  2  0  0  0  0  0  0  0  0  0
   21.1056   26.0257   -1.7096 O   0  0  0  0  0  0  0  0  0  0  0  0
   17.6751   27.1874   -1.8415 C   0  0  1  0  0  0  0  0  0  0  0  0
   17.0114   27.5431   -0.6633 O   0  0  0  0  0  0  0  0  0  0  0  0
   19.9897   24.1150   -2.6993 C   0  0  1  0  0  0  0  0  0  0  0  0
   20.9518   24.0557   -3.7650 O   0  0  0  0  0  0  0  0  0  0  0  0
   17.1768   25.7883   -2.2546 C   0  0  0  0  0  0  0  0  0  0  0  0
   15.7574   25.8076   -2.3536 O   0  0  0  0  0  0  0  0  0  0  0  0
   20.5074   21.5471   -5.0868 N   0  0  0  0  0  0  0  0  0  0  0  0
   16.9603   21.6330    1.4425 N   0  0  0  0  0  0  0  0  0  0  0  0
  1  2  1  0  0  0  0
  1 39  1  0  0  0  0
  3  4  1  0  0  0  0
  5  6  1  0  0  0  0
  5 40  1  0  0  0  0
  9 10  1  6  0  0  0
  9 14  1  0  0  0  0
  9 35  1  0  0  0  0
 10  1  1  0  0  0  0
 11 16  1  0  0  0  0
 11 28  1  0  0  0  0
 11 26  1  1  0  0  0
 12 17  1  0  0  0  0
 12 34  1  0  0  0  0
 12 13  1  6  0  0  0
 14 15  1  1  0  0  0
 14 19  1  0  0  0  0
 16 13  1  6  0  0  0
 16 21  1  0  0  0  0
 17 18  1  1  0  0  0
 17 23  1  0  0  0  0
 18  8  1  0  0  0  0
 19 20  1  1  0  0  0
 19 25  1  0  0  0  0
 20  5  1  0  0  0  0
 21  3  1  1  0  0  0
 21 22  1  0  0  0  0
 21 27  1  0  0  0  0
 23 24  1  6  0  0  0
 23 29  1  0  0  0  0
 25 26  1  1  0  0  0
 25 31  1  0  0  0  0
 27  7  1  1  0  0  0
 27 28  1  0  0  0  0
 29 30  1  6  0  0  0
 29 33  1  0  0  0  0
 31 32  1  6  0  0  0
 31 35  1  0  0  0  0
 33 34  1  0  0  0  0
 33 37  1  6  0  0  0
 35 36  1  6  0  0  0
 37 38  1  0  0  0  0
M  END
>  <CHROM.1>
-134.16063558,95.91166641,80.22858516,173.12093907,155.77158529,-123.42220217
80.01456116,78.04171828,85.47377560,-170.88469015,-63.11802063,18.78894872
25.85449464,-0.59769808,1.04079820,1.36141518,-2.27895110

>  <Name>
1nta_lig

>  <RI>
1.05895e+07

>  <Rbt.Current_Directory>
/home/itssahil/PROJECTS/Mol_Feturizer/New_Systems/rnas/1nta

>  <Rbt.Executable>
rbdock ($Id: //depot/dev/client3/rdock/2013.1/src/exe/rbdock.cxx#4 $)

>  <Rbt.Library>
libRbt.so (2013.1, Build901 2013/11/27)

>  <Rbt.Parameter_File>
/export/apps/rDock/src/rDock_2013.1_src/data/scripts/dock_solv.prm

>  <Rbt.Receptor>
prm/blind_docking_100.prm

>  <SCORE>
-36.2291

>  <SCORE.INTER>
-14.9212

>  <SCORE.INTER.CONST>
1

>  <SCORE.INTER.POLAR>
-1.37995

>  <SCORE.INTER.ROT>
11

>  <SCORE.INTER.SOLV>
12.8439

>  <SCORE.INTER.VDW>
-20.5622

>  <SCORE.INTER.norm>
-0.373029

>  <SCORE.INTRA>
-22.4957

>  <SCORE.INTRA.DIHEDRAL>
-8.17208

>  <SCORE.INTRA.DIHEDRAL.0>
19.0336

>  <SCORE.INTRA.POLAR>
0

>  <SCORE.INTRA.POLAR.0>
0

>  <SCORE.INTRA.REPUL>
0

>  <SCORE.INTRA.REPUL.0>
0

>  <SCORE.INTRA.SOLV>
-3.54066

>  <SCORE.INTRA.SOLV.lig_0>
-97.5861

>  <SCORE.INTRA.VDW>
-16.6393

>  <SCORE.INTRA.VDW.0>
11.7669

>  <SCORE.INTRA.norm>
-0.562393

>  <SCORE.RESTR>
1.18779

>  <SCORE.RESTR.CAVITY>
1.18779

>  <SCORE.RESTR.norm>
0.0296948

>  <SCORE.SYSTEM>
0

>  <SCORE.SYSTEM.CONST>
0

>  <SCORE.SYSTEM.DIHEDRAL>
0

>  <SCORE.SYSTEM.SOLV>
0

>  <SCORE.SYSTEM.norm>
0

>  <SCORE.heavy>
40

>  <SCORE.norm>
-0.905727

>  <RMSD>
19.945

$$$$
1nta_lig
 OpenBabel11021811403D
libRbt.so/2013.1/901 2013/11/27
 40 42  0  0  0  0  0  0  0  0999 V2000
   21.6582   22.5044   -3.3565 C   0  0  0  0  0  0  0  0  0  0  0  0
   21.3365   22.8864   -4.5358 N   0  0  0  0  0  0  0  0  0  0  0  0
   19.3965   29.4998    2.6074 C   0  0  0  0  0  0  0  0  0  0  0  0
   18.5692   28.6239    2.7326 O   0  0  0  0  0  0  0  0  0  0  0  0
   19.5533   24.2663    1.1976 C   0  0  0  0  0  0  0  0  0  0  0  0
   19.6845   22.9849    1.4221 N   0  0  0  0  0  0  0  0  0  0  0  0
   22.4660   28.2248    2.7229 C   0  0  0  0  0  0  0  0  0  0  0  0
   20.1109   34.6146   -1.8034 C   0  0  0  0  0  0  0  0  0  0  0  0
   22.2420   24.4395   -2.1255 C   0  0  2  0  0  0  0  0  0  0  0  0
   22.6720   23.1531   -2.8033 N   0  0  0  0  0  0  0  0  0  0  0  0
   20.6570   28.3274   -0.3766 C   0  0  2  0  0  0  0  0  0  0  0  0
   19.2421   31.6064   -0.2406 C   0  0  1  0  0  0  0  0  0  0  0  0
   20.1826   30.6193   -0.4826 O   0  0  0  0  0  0  0  0  0  0  0  0
   21.6047   24.1293   -0.7578 C   0  0  1  0  0  0  0  0  0  0  0  0
   22.5950   23.5466    0.0346 O   0  0  0  0  0  0  0  0  0  0  0  0
   19.9959   29.5433    0.2634 C   0  0  2  0  0  0  0  0  0  0  0  0
   19.0506   32.6068   -1.3592 C   0  0  1  0  0  0  0  0  0  0  0  0
   20.3122   33.1809   -1.6773 N   0  0  0  0  0  0  0  0  0  0  0  0
   21.1280   25.3962   -0.0349 C   0  0  2  0  0  0  0  0  0  0  0  0
   20.5044   25.1344    1.2845 N   0  0  0  0  0  0  0  0  0  0  0  0
   20.5365   29.4736    1.6249 C   0  0  1  0  0  0  0  0  0  0  0  0
   21.4145   30.5890    1.7895 O   0  0  0  0  0  0  0  0  0  0  0  0
   18.5348   31.9957   -2.4935 C   0  0  2  0  0  0  0  0  0  0  0  0
   18.1108   33.0106   -3.3683 O   0  0  0  0  0  0  0  0  0  0  0  0
   20.1213   26.0996   -0.9313 C   0  0  1  0  0  0  0  0  0  0  0  0
   19.6866   27.2717   -0.2598 O   0  0  0  0  0  0  0  0  0  0  0  0
   21.3224   28.2404    1.7566 C   0  0  1  0  0  0  0  0  0  0  0  0
   21.7533   27.9627    0.4299 O   0  0  0  0  0  0  0  0  0  0  0  0
   17.3625   31.1222   -2.1312 C   0  0  1  0  0  0  0  0  0  0  0  0
   17.0193   30.3413   -3.2378 O   0  0  0  0  0  0  0  0  0  0  0  0
   20.7744   26.4544   -2.2974 C   0  0  2  0  0  0  0  0  0  0  0  0
   19.8186   27.1221   -3.1195 O   0  0  0  0  0  0  0  0  0  0  0  0
   17.7397   30.2106   -1.0135 C   0  0  1  0  0  0  0  0  0  0  0  0
   18.0774   31.0018    0.0888 O   0  0  0  0  0  0  0  0  0  0  0  0
   21.2304   25.1556   -2.9949 C   0  0  1  0  0  0  0  0  0  0  0  0
   21.8365   25.4626   -4.2611 O   0  0  0  0  0  0  0  0  0  0  0  0
   16.5573   29.3123   -0.5996 C   0  0  0  0  0  0  0  0  0  0  0  0
   16.8781   28.6477    0.6172 O   0  0  0  0  0  0  0  0  0  0  0  0
   21.0429   21.5497   -2.7466 N   0  0  0  0  0  0  0  0  0  0  0  0
   18.4217   24.7339    0.8408 N   0  0  0  0  0  0  0  0  0  0  0  0
  1  2  1  0  0  0  0
  1 39  1  0  0  0  0
  3  4  1  0  0  0  0
  5  6  1  0  0  0  0
  5 40  1  0  0  0  0
  9 10  1  6  0  0  0
  9 14  1  0  0  0  0
  9 35  1  0  0  0  0
 10  1  1  0  0  0  0
 11 16  1  0  0  0  0
 11 28  1  0  0  0  0
 11 26  1  1  0  0  0
 12 17  1  0  0  0  0
 12 34  1  0  0  0  0
 12 13  1  6  0  0  0
 14 15  1  1  0  0  0
 14 19  1  0  0  0  0
 16 13  1  6  0  0  0
 16 21  1  0  0  0  0
 17 18  1  6  0  0  0
 17 23  1  0  0  0  0
 18  8  1  0  0  0  0
 19 20  1  1  0  0  0
 19 25  1  0  0  0  0
 20  5  1  0  0  0  0
 21  3  1  1  0  0  0
 21 22  1  0  0  0  0
 21 27  1  0  0  0  0
 23 24  1  6  0  0  0
 23 29  1  0  0  0  0
 25 26  1  1  0  0  0
 25 31  1  0  0  0  0
 27  7  1  1  0  0  0
 27 28  1  0  0  0  0
 29 30  1  6  0  0  0
 29 33  1  0  0  0  0
 31 32  1  6  0  0  0
 31 35  1  0  0  0  0
 33 34  1  0  0  0  0
 33 37  1  1  0  0  0
 35 36  1  6  0  0  0
 37 38  1  0  0  0  0
M  END
>  <CHROM.1>
78.24465618,84.58726117,174.51649128,-157.81672393,157.97367740,-134.96353071
-53.38669753,95.42834772,66.60219326,78.97842682,-169.16636096,20.01413134
27.82567548,-0.73547859,0.20217858,1.26921980,-1.69921244

>  <Name>
1nta_lig

>  <RI>
2.40834e+07

>  <Rbt.Current_Directory>
/home/itssahil/PROJECTS/Mol_Feturizer/New_Systems/rnas/1nta

>  <Rbt.Executable>
rbdock ($Id: //depot/dev/client3/rdock/2013.1/src/exe/rbdock.cxx#4 $)

>  <Rbt.Library>
libRbt.so (2013.1, Build901 2013/11/27)

>  <Rbt.Parameter_File>
/export/apps/rDock/src/rDock_2013.1_src/data/scripts/dock_solv.prm

>  <Rbt.Receptor>
prm/blind_docking_80.prm

>  <SCORE>
-27.2386

>  <SCORE.INTER>
-18.1817

>  <SCORE.INTER.CONST>
1

>  <SCORE.INTER.POLAR>
-2.06686

>  <SCORE.INTER.ROT>
11

>  <SCORE.INTER.SOLV>
20.2187

>  <SCORE.INTER.VDW>
-22.9045

>  <SCORE.INTER.norm>
-0.454543

>  <SCORE.INTRA>
-9.8344

>  <SCORE.INTRA.DIHEDRAL>
-9.71014

>  <SCORE.INTRA.DIHEDRAL.0>
19.0336

>  <SCORE.INTRA.POLAR>
0

>  <SCORE.INTRA.POLAR.0>
0

>  <SCORE.INTRA.REPUL>
0.0166824

>  <SCORE.INTRA.REPUL.0>
0

>  <SCORE.INTRA.SOLV>
1.08935

>  <SCORE.INTRA.SOLV.lig_0>
-97.5861

>  <SCORE.INTRA.VDW>
-5.60741

>  <SCORE.INTRA.VDW.0>
11.7669

>  <SCORE.INTRA.norm>
-0.24586

>  <SCORE.RESTR>
0.777535

>  <SCORE.RESTR.CAVITY>
0.777535

>  <SCORE.RESTR.norm>
0.0194384

>  <SCORE.SYSTEM>
0

>  <SCORE.SYSTEM.CONST>
0

>  <SCORE.SYSTEM.DIHEDRAL>
0

>  <SCORE.SYSTEM.SOLV>
0

>  <SCORE.SYSTEM.norm>
0

>  <SCORE.heavy>
40

>  <SCORE.norm>
-0.680965

>  <RMSD>
19.946

$$$$
1nta_lig
 OpenBabel11021811403D
libRbt.so/2013.1/901 2013/11/27
 40 42  0  0  0  0  0  0  0  0999 V2000
   18.0039   34.7789   -2.0250 C   0  0  0  0  0  0  0  0  0  0  0  0
   19.0356   34.7357   -2.7826 N   0  0  0  0  0  0  0  0  0  0  0  0
   20.6066   26.4699    2.5210 C   0  0  0  0  0  0  0  0  0  0  0  0
   21.4173   27.2989    2.1702 O   0  0  0  0  0  0  0  0  0  0  0  0
   18.2064   27.7543   -2.5638 C   0  0  0  0  0  0  0  0  0  0  0  0
   19.5102   27.8367   -2.5077 N   0  0  0  0  0  0  0  0  0  0  0  0
   17.8512   27.6511    3.9611 C   0  0  0  0  0  0  0  0  0  0  0  0
   17.4081   21.6618    1.2271 C   0  0  0  0  0  0  0  0  0  0  0  0
   18.0861   32.4436   -1.6509 C   0  0  2  0  0  0  0  0  0  0  0  0
   17.2717   33.6755   -1.9944 N   0  0  0  0  0  0  0  0  0  0  0  0
   18.1558   27.6079    0.3840 C   0  0  2  0  0  0  0  0  0  0  0  0
   19.3355   24.1967    0.3496 C   0  0  1  0  0  0  0  0  0  0  0  0
   18.5999   25.3316    0.0519 O   0  0  0  0  0  0  0  0  0  0  0  0
   17.3252   31.1721   -2.0718 C   0  0  1  0  0  0  0  0  0  0  0  0
   17.1906   31.2141   -3.4603 O   0  0  0  0  0  0  0  0  0  0  0  0
   19.0600   26.4116    0.6608 C   0  0  2  0  0  0  0  0  0  0  0  0
   18.7663   22.8986   -0.1794 C   0  0  1  0  0  0  0  0  0  0  0  0
   17.4281   22.7666    0.2831 N   0  0  0  0  0  0  0  0  0  0  0  0
   18.0942   29.8899   -1.7260 C   0  0  2  0  0  0  0  0  0  0  0  0
   17.3882   28.6450   -2.1133 N   0  0  0  0  0  0  0  0  0  0  0  0
   19.1549   26.4630    2.1234 C   0  0  1  0  0  0  0  0  0  0  0  0
   18.4629   25.3212    2.6330 O   0  0  0  0  0  0  0  0  0  0  0  0
   18.7673   22.8811   -1.5671 C   0  0  2  0  0  0  0  0  0  0  0  0
   18.5126   21.5610   -1.9763 O   0  0  0  0  0  0  0  0  0  0  0  0
   18.3394   29.8777   -0.2255 C   0  0  1  0  0  0  0  0  0  0  0  0
   19.0536   28.6923    0.0881 O   0  0  0  0  0  0  0  0  0  0  0  0
   18.4690   27.6715    2.5974 C   0  0  1  0  0  0  0  0  0  0  0  0
   17.5028   27.9379    1.5882 O   0  0  0  0  0  0  0  0  0  0  0  0
   20.1070   23.3218   -2.0959 C   0  0  1  0  0  0  0  0  0  0  0  0
   20.0060   23.5255   -3.4746 O   0  0  0  0  0  0  0  0  0  0  0  0
   19.1464   31.1382    0.1971 C   0  0  2  0  0  0  0  0  0  0  0  0
   19.3752   31.1034    1.6049 O   0  0  0  0  0  0  0  0  0  0  0  0
   20.5007   24.6112   -1.4597 C   0  0  1  0  0  0  0  0  0  0  0  0
   20.6024   24.3951   -0.0819 O   0  0  0  0  0  0  0  0  0  0  0  0
   18.3364   32.4026   -0.1583 C   0  0  1  0  0  0  0  0  0  0  0  0
   19.0658   33.5796    0.2257 O   0  0  0  0  0  0  0  0  0  0  0  0
   21.8788   25.0860   -1.9614 C   0  0  0  0  0  0  0  0  0  0  0  0
   22.1744   26.3539   -1.3870 O   0  0  0  0  0  0  0  0  0  0  0  0
   17.6921   35.8257   -1.3400 N   0  0  0  0  0  0  0  0  0  0  0  0
   17.6591   26.7445   -3.1181 N   0  0  0  0  0  0  0  0  0  0  0  0
  1  2  1  0  0  0  0
  1 39  1  0  0  0  0
  3  4  1  0  0  0  0
  5  6  1  0  0  0  0
  5 40  1  0  0  0  0
  9 10  1  1  0  0  0
  9 14  1  0  0  0  0
  9 35  1  0  0  0  0
 10  1  1  0  0  0  0
 11 16  1  0  0  0  0
 11 28  1  0  0  0  0
 11 26  1  1  0  0  0
 12 17  1  0  0  0  0
 12 34  1  0  0  0  0
 12 13  1  6  0  0  0
 14 15  1  6  0  0  0
 14 19  1  0  0  0  0
 16 13  1  1  0  0  0
 16 21  1  0  0  0  0
 17 18  1  6  0  0  0
 17 23  1  0  0  0  0
 18  8  1  0  0  0  0
 19 20  1  1  0  0  0
 19 25  1  0  0  0  0
 20  5  1  0  0  0  0
 21  3  1  1  0  0  0
 21 22  1  0  0  0  0
 21 27  1  0  0  0  0
 23 24  1  1  0  0  0
 23 29  1  0  0  0  0
 25 26  1  6  0  0  0
 25 31  1  0  0  0  0
 27  7  1  1  0  0  0
 27 28  1  0  0  0  0
 29 30  1  6  0  0  0
 29 33  1  0  0  0  0
 31 32  1  1  0  0  0
 31 35  1  0  0  0  0
 33 34  1  0  0  0  0
 33 37  1  6  0  0  0
 35 36  1  6  0  0  0
 37 38  1  0  0  0  0
M  END
>  <CHROM.1>
-161.52429857,53.78541900,178.55149955,172.95161410,-175.74316564,-111.78337595
141.63066546,9.72127893,58.24639570,-89.86431871,176.64127969,18.85878278
27.78324694,-0.45949111,3.07704752,-1.46109127,1.40721670

>  <Name>
1nta_lig

>  <RI>
0

>  <Rbt.Current_Directory>
/home/itssahil/PROJECTS/Mol_Feturizer/New_Systems/rnas/1nta

>  <Rbt.Executable>
rbdock ($Id: //depot/dev/client3/rdock/2013.1/src/exe/rbdock.cxx#4 $)

>  <Rbt.Library>
libRbt.so (2013.1, Build901 2013/11/27)

>  <Rbt.Parameter_File>
/export/apps/rDock/src/rDock_2013.1_src/data/scripts/dock_solv.prm

>  <Rbt.Receptor>
prm/blind_docking_60.prm

>  <SCORE>
-34.3697

>  <SCORE.INTER>
-15.9735

>  <SCORE.INTER.CONST>
1

>  <SCORE.INTER.POLAR>
-1.38305

>  <SCORE.INTER.ROT>
11

>  <SCORE.INTER.SOLV>
20.8431

>  <SCORE.INTER.VDW>
-23.9199

>  <SCORE.INTER.norm>
-0.399338

>  <SCORE.INTRA>
-19.5996

>  <SCORE.INTRA.DIHEDRAL>
-11.3521

>  <SCORE.INTRA.DIHEDRAL.0>
19.0336

>  <SCORE.INTRA.POLAR>
0

>  <SCORE.INTRA.POLAR.0>
0

>  <SCORE.INTRA.REPUL>
0

>  <SCORE.INTRA.REPUL.0>
0

>  <SCORE.INTRA.SOLV>
2.12946

>  <SCORE.INTRA.SOLV.lig_0>
-97.5861

>  <SCORE.INTRA.VDW>
-14.9883

>  <SCORE.INTRA.VDW.0>
11.7669

>  <SCORE.INTRA.norm>
-0.48999

>  <SCORE.RESTR>
1.20345

>  <SCORE.RESTR.CAVITY>
1.20345

>  <SCORE.RESTR.norm>
0.0300861

>  <SCORE.SYSTEM>
0

>  <SCORE.SYSTEM.CONST>
0

>  <SCORE.SYSTEM.DIHEDRAL>
0

>  <SCORE.SYSTEM.SOLV>
0

>  <SCORE.SYSTEM.norm>
0

>  <SCORE.heavy>
40

>  <SCORE.norm>
-0.859242

>  <RMSD>
19.947

$$$$
1nta_lig
 OpenBabel11021811403D
libRbt.so/2013.1/901 2013/11/27
 40 42  0  0  0  0  0  0  0  0999 V2000
   19.7814   32.9303    1.4722 C   0  0  0  0  0  0  0  0  0  0  0  0
   20.9319   33.1378    1.9950 N   0  0  0  0  0  0  0  0  0  0  0  0
   14.9412   26.1068   -1.6419 C   0  0  0  0  0  0  0  0  0  0  0  0
   14.0386   26.5339   -2.3276 O   0  0  0  0  0  0  0  0  0  0  0  0
   21.1409   27.2913   -0.9405 C   0  0  0  0  0  0  0  0  0  0  0  0
   20.7369   28.2131   -1.7753 N   0  0  0  0  0  0  0  0  0  0  0  0
   16.9868   27.5906   -3.8041 C   0  0  0  0  0  0  0  0  0  0  0  0
   16.6330   21.6567    2.1332 C   0  0  0  0  0  0  0  0  0  0  0  0
   19.2423   30.7428    0.7478 C   0  0  2  0  0  0  0  0  0  0  0  0
   19.7694   32.1261    0.4197 N   0  0  0  0  0  0  0  0  0  0  0  0
   18.3081   25.8331   -0.9658 C   0  0  2  0  0  0  0  0  0  0  0  0
   18.2063   23.2406   -0.3601 C   0  0  1  0  0  0  0  0  0  0  0  0
   17.3242   23.7343   -1.3065 O   0  0  0  0  0  0  0  0  0  0  0  0
   20.2843   29.6750    0.3646 C   0  0  1  0  0  0  0  0  0  0  0  0
   21.4105   29.8957    1.1589 O   0  0  0  0  0  0  0  0  0  0  0  0
   17.0331   25.0102   -1.1154 C   0  0  2  0  0  0  0  0  0  0  0  0
   17.8682   21.8720    0.1888 C   0  0  1  0  0  0  0  0  0  0  0  0
   16.5430   21.9028    0.7038 N   0  0  0  0  0  0  0  0  0  0  0  0
   19.7936   28.2500    0.6536 C   0  0  2  0  0  0  0  0  0  0  0  0
   20.7706   27.1951    0.2921 N   0  0  0  0  0  0  0  0  0  0  0  0
   16.3218   25.7776   -2.1431 C   0  0  1  0  0  0  0  0  0  0  0  0
   16.2880   24.9738   -3.3242 O   0  0  0  0  0  0  0  0  0  0  0  0
   17.9441   20.9033   -0.8021 C   0  0  2  0  0  0  0  0  0  0  0  0
   17.9135   19.6471   -0.1727 O   0  0  0  0  0  0  0  0  0  0  0  0
   18.5078   28.0271   -0.1268 C   0  0  1  0  0  0  0  0  0  0  0  0
   18.0568   26.7098    0.1467 O   0  0  0  0  0  0  0  0  0  0  0  0
   17.0861   26.9972   -2.4330 C   0  0  1  0  0  0  0  0  0  0  0  0
   18.4265   26.6497   -2.1081 O   0  0  0  0  0  0  0  0  0  0  0  0
   19.2275   21.0459   -1.5774 C   0  0  1  0  0  0  0  0  0  0  0  0
   19.1688   20.2257   -2.7071 O   0  0  0  0  0  0  0  0  0  0  0  0
   17.4380   29.0762    0.2898 C   0  0  2  0  0  0  0  0  0  0  0  0
   16.2370   28.8444   -0.4447 O   0  0  0  0  0  0  0  0  0  0  0  0
   19.3881   22.4569   -2.0310 C   0  0  1  0  0  0  0  0  0  0  0  0
   19.4494   23.2678   -0.8935 O   0  0  0  0  0  0  0  0  0  0  0  0
   17.9650   30.4918   -0.0253 C   0  0  1  0  0  0  0  0  0  0  0  0
   16.9891   31.4766    0.3521 O   0  0  0  0  0  0  0  0  0  0  0  0
   20.7029   22.6480   -2.8128 C   0  0  0  0  0  0  0  0  0  0  0  0
   20.6105   21.9650   -4.0578 O   0  0  0  0  0  0  0  0  0  0  0  0
   18.7048   33.4697    1.9328 N   0  0  0  0  0  0  0  0  0  0  0  0
   21.9445   26.3847   -1.3389 N   0  0  0  0  0  0  0  0  0  0  0  0
  1  2  1  0  0  0  0
  1 39  1  0  0  0  0
  3  4  1  0  0  0  0
  5  6  1  0  0  0  0
  5 40  1  0  0  0  0
  9 10  1  6  0  0  0
  9 14  1  0  0  0  0
  9 35  1  0  0  0  0
 10  1  1  0  0  0  0
 11 16  1  0  0  0  0
 11 28  1  0  0  0  0
 11 26  1  1  0  0  0
 12 17  1  0  0  0  0
 12 34  1  0  0  0  0
 12 13  1  6  0  0  0
 14 15  1  1  0  0  0
 14 19  1  0  0  0  0
 16 13  1  6  0  0  0
 16 21  1  0  0  0  0
 17 18  1  6  0  0  0
 17 23  1  0  0  0  0
 18  8  1  0  0  0  0
 19 20  1  6  0  0  0
 19 25  1  0  0  0  0
 20  5  1  0  0  0  0
 21  3  1  1  0  0  0
 21 22  1  0  0  0  0
 21 27  1  0  0  0  0
 23 24  1  1  0  0  0
 23 29  1  0  0  0  0
 25 26  1  1  0  0  0
 25 31  1  0  0  0  0
 27  7  1  6  0  0  0
 27 28  1  0  0  0  0
 29 30  1  6  0  0  0
 29 33  1  0  0  0  0
 31 32  1  6  0  0  0
 31 35  1  0  0  0  0
 33 34  1  0  0  0  0
 33 37  1  1  0  0  0
 35 36  1  1  0  0  0
 37 38  1  0  0  0  0
M  END
>  <CHROM.1>
-123.64172603,104.31767608,-136.59554897,136.62530516,51.11038421,-116.35493754
-54.82030976,1.29000341,-167.18141090,-104.88423431,69.04323752,18.47737207
26.29810585,-0.73843039,-1.46511409,0.14945791,-2.94153561

>  <Name>
1nta_lig

>  <RI>
0

>  <Rbt.Current_Directory>
/home/itssahil/PROJECTS/Mol_Feturizer/New_Systems/rnas/1nta

>  <Rbt.Executable>
rbdock ($Id: //depot/dev/client3/rdock/2013.1/src/exe/rbdock.cxx#4 $)

>  <Rbt.Library>
libRbt.so (2013.1, Build901 2013/11/27)

>  <Rbt.Parameter_File>
/export/apps/rDock/src/rDock_2013.1_src/data/scripts/dock_solv.prm

>  <Rbt.Receptor>
prm/blind_docking_60.prm

>  <SCORE>
-14.9687

>  <SCORE.INTER>
-10.1453

>  <SCORE.INTER.CONST>
1

>  <SCORE.INTER.POLAR>
-0.761716

>  <SCORE.INTER.ROT>
11

>  <SCORE.INTER.SOLV>
17.2807

>  <SCORE.INTER.VDW>
-20.9181

>  <SCORE.INTER.norm>
-0.253634

>  <SCORE.INTRA>
-6.02573

>  <SCORE.INTRA.DIHEDRAL>
3.29115

>  <SCORE.INTRA.DIHEDRAL.0>
19.0336

>  <SCORE.INTRA.POLAR>
0

>  <SCORE.INTRA.POLAR.0>
0

>  <SCORE.INTRA.REPUL>
0

>  <SCORE.INTRA.REPUL.0>
0

>  <SCORE.INTRA.SOLV>
1.35906

>  <SCORE.INTRA.SOLV.lig_0>
-97.5861

>  <SCORE.INTRA.VDW>
-8.35083

>  <SCORE.INTRA.VDW.0>
11.7669

>  <SCORE.INTRA.norm>
-0.150643

>  <SCORE.RESTR>
1.20235

>  <SCORE.RESTR.CAVITY>
1.20235

>  <SCORE.RESTR.norm>
0.0300589

>  <SCORE.SYSTEM>
0

>  <SCORE.SYSTEM.CONST>
0

>  <SCORE.SYSTEM.DIHEDRAL>
0

>  <SCORE.SYSTEM.SOLV>
0

>  <SCORE.SYSTEM.norm>
0

>  <SCORE.heavy>
40

>  <SCORE.norm>
-0.374218

>  <RMSD>
19.950

$$$$
1nta_lig
 OpenBabel11021811403D
libRbt.so/2013.1/901 2013/11/27
 40 42  0  0  0  0  0  0  0  0999 V2000
   17.8913   34.9705   -1.2954 C   0  0  0  0  0  0  0  0  0  0  0  0
   18.0489   36.0394   -0.6080 N   0  0  0  0  0  0  0  0  0  0  0  0
   20.6351   26.4260    2.8253 C   0  0  0  0  0  0  0  0  0  0  0  0
   21.5126   27.1883    2.4843 O   0  0  0  0  0  0  0  0  0  0  0  0
   17.1839   28.3916   -2.2334 C   0  0  0  0  0  0  0  0  0  0  0  0
   17.5803   28.9959   -3.3231 N   0  0  0  0  0  0  0  0  0  0  0  0
   17.7340   27.5059    4.0415 C   0  0  0  0  0  0  0  0  0  0  0  0
   18.0877   21.8196    1.4911 C   0  0  0  0  0  0  0  0  0  0  0  0
   18.0664   32.6851   -0.7062 C   0  0  2  0  0  0  0  0  0  0  0  0
   17.2740   33.9774   -0.6730 N   0  0  0  0  0  0  0  0  0  0  0  0
   18.3981   27.6649    0.5167 C   0  0  2  0  0  0  0  0  0  0  0  0
   19.7222   24.3138    0.2925 C   0  0  1  0  0  0  0  0  0  0  0  0
   18.9017   25.4138    0.1068 O   0  0  0  0  0  0  0  0  0  0  0  0
   17.1172   31.4874   -0.9000 C   0  0  1  0  0  0  0  0  0  0  0  0
   16.5103   31.6414   -2.1473 O   0  0  0  0  0  0  0  0  0  0  0  0
   19.2846   26.4612    0.8176 C   0  0  2  0  0  0  0  0  0  0  0  0
   19.1575   22.9957   -0.1896 C   0  0  1  0  0  0  0  0  0  0  0  0
   17.8927   22.7898    0.4268 N   0  0  0  0  0  0  0  0  0  0  0  0
   17.8643   30.1472   -0.9178 C   0  0  2  0  0  0  0  0  0  0  0  0
   16.9802   28.9708   -1.0981 N   0  0  0  0  0  0  0  0  0  0  0  0
   19.2310   26.4314    2.2829 C   0  0  1  0  0  0  0  0  0  0  0  0
   18.5054   25.2582    2.6562 O   0  0  0  0  0  0  0  0  0  0  0  0
   18.9923   22.9967   -1.5676 C   0  0  2  0  0  0  0  0  0  0  0  0
   18.7549   21.6710   -1.9688 O   0  0  0  0  0  0  0  0  0  0  0  0
   18.6159   30.0091    0.3967 C   0  0  1  0  0  0  0  0  0  0  0  0
   19.3075   28.7702    0.3733 O   0  0  0  0  0  0  0  0  0  0  0  0
   18.4858   27.6068    2.7505 C   0  0  1  0  0  0  0  0  0  0  0  0
   17.6229   27.9226    1.6648 O   0  0  0  0  0  0  0  0  0  0  0  0
   20.2355   23.5117   -2.2442 C   0  0  1  0  0  0  0  0  0  0  0  0
   19.9596   23.7283   -3.5967 O   0  0  0  0  0  0  0  0  0  0  0  0
   19.6079   31.1935    0.5751 C   0  0  2  0  0  0  0  0  0  0  0  0
   20.3102   31.0408    1.8075 O   0  0  0  0  0  0  0  0  0  0  0  0
   20.6397   24.8108   -1.6348 C   0  0  1  0  0  0  0  0  0  0  0  0
   20.9168   24.5819   -0.2834 O   0  0  0  0  0  0  0  0  0  0  0  0
   18.8178   32.5188    0.5975 C   0  0  1  0  0  0  0  0  0  0  0  0
   19.7179   33.6267    0.7628 O   0  0  0  0  0  0  0  0  0  0  0  0
   21.9226   25.3615   -2.2884 C   0  0  0  0  0  0  0  0  0  0  0  0
   22.2367   26.6240   -1.7117 O   0  0  0  0  0  0  0  0  0  0  0  0
   18.3082   34.8617   -2.5106 N   0  0  0  0  0  0  0  0  0  0  0  0
   16.9466   27.1388   -2.2547 N   0  0  0  0  0  0  0  0  0  0  0  0
  1  2  1  0  0  0  0
  1 39  1  0  0  0  0
  3  4  1  0  0  0  0
  5  6  1  0  0  0  0
  5 40  1  0  0  0  0
  9 10  1  1  0  0  0
  9 14  1  0  0  0  0
  9 35  1  0  0  0  0
 10  1  1  0  0  0  0
 11 16  1  0  0  0  0
 11 28  1  0  0  0  0
 11 26  1  1  0  0  0
 12 17  1  0  0  0  0
 12 34  1  0  0  0  0
 12 13  1  6  0  0  0
 14 15  1  6  0  0  0
 14 19  1  0  0  0  0
 16 13  1  6  0  0  0
 16 21  1  0  0  0  0
 17 18  1  1  0  0  0
 17 23  1  0  0  0  0
 18  8  1  0  0  0  0
 19 20  1  1  0  0  0
 19 25  1  0  0  0  0
 20  5  1  0  0  0  0
 21  3  1  1  0  0  0
 21 22  1  0  0  0  0
 21 27  1  0  0  0  0
 23 24  1  6  0  0  0
 23 29  1  0  0  0  0
 25 26  1  6  0  0  0
 25 31  1  0  0  0  0
 27  7  1  1  0  0  0
 27 28  1  0  0  0  0
 29 30  1  6  0  0  0
 29 33  1  0  0  0  0
 31 32  1  1  0  0  0
 31 35  1  0  0  0  0
 33 34  1  0  0  0  0
 33 37  1  6  0  0  0
 35 36  1  6  0  0  0
 37 38  1  0  0  0  0
M  END
>  <CHROM.1>
-141.53501955,-126.29240794,-166.47914526,164.71306666,176.76614481,-103.01604188
112.83561341,-30.25385076,49.16297205,-72.49579959,177.69597916,18.90042728
27.94574843,-0.16693445,2.45235453,-1.39150706,0.84798686

>  <Name>
1nta_lig

>  <RI>
0

>  <Rbt.Current_Directory>
/home/itssahil/PROJECTS/Mol_Feturizer/New_Systems/rnas/1nta

>  <Rbt.Executable>
rbdock ($Id: //depot/dev/client3/rdock/2013.1/src/exe/rbdock.cxx#4 $)

>  <Rbt.Library>
libRbt.so (2013.1, Build901 2013/11/27)

>  <Rbt.Parameter_File>
/export/apps/rDock/src/rDock_2013.1_src/data/scripts/dock_solv.prm

>  <Rbt.Receptor>
prm/blind_docking_60.prm

>  <SCORE>
-29.206

>  <SCORE.INTER>
-10.1866

>  <SCORE.INTER.CONST>
1

>  <SCORE.INTER.POLAR>
-0.716504

>  <SCORE.INTER.ROT>
11

>  <SCORE.INTER.SOLV>
17.0584

>  <SCORE.INTER.VDW>
-21.0222

>  <SCORE.INTER.norm>
-0.254666

>  <SCORE.INTRA>
-20.8044

>  <SCORE.INTRA.DIHEDRAL>
-11.6443

>  <SCORE.INTRA.DIHEDRAL.0>
19.0336

>  <SCORE.INTRA.POLAR>
0

>  <SCORE.INTRA.POLAR.0>
0

>  <SCORE.INTRA.REPUL>
0.000854025

>  <SCORE.INTRA.REPUL.0>
0

>  <SCORE.INTRA.SOLV>
-2.00632

>  <SCORE.INTRA.SOLV.lig_0>
-97.5861

>  <SCORE.INTRA.VDW>
-13.9834

>  <SCORE.INTRA.VDW.0>
11.7669

>  <SCORE.INTRA.norm>
-0.52011

>  <SCORE.RESTR>
1.78499

>  <SCORE.RESTR.CAVITY>
1.78499

>  <SCORE.RESTR.norm>
0.0446247

>  <SCORE.SYSTEM>
0

>  <SCORE.SYSTEM.CONST>
0

>  <SCORE.SYSTEM.DIHEDRAL>
0

>  <SCORE.SYSTEM.SOLV>
0

>  <SCORE.SYSTEM.norm>
0

>  <SCORE.heavy>
40

>  <SCORE.norm>
-0.73015

>  <RMSD>
19.956

$$$$
1nta_lig
 OpenBabel11021811403D
libRbt.so/2013.1/901 2013/11/27
 40 42  0  0  0  0  0  0  0  0999 V2000
   18.5349   20.8944   -3.7979 C   0  0  0  0  0  0  0  0  0  0  0  0
   17.4858   20.2300   -4.1109 N   0  0  0  0  0  0  0  0  0  0  0  0
   17.9886   26.9042    2.8946 C   0  0  0  0  0  0  0  0  0  0  0  0
   17.6659   26.9991    4.0583 O   0  0  0  0  0  0  0  0  0  0  0  0
   18.7470   22.7651    2.2684 C   0  0  0  0  0  0  0  0  0  0  0  0
   19.7079   23.1056    3.0872 N   0  0  0  0  0  0  0  0  0  0  0  0
   20.9798   27.6778    4.1258 C   0  0  0  0  0  0  0  0  0  0  0  0
   17.3442   31.8213   -0.1052 C   0  0  0  0  0  0  0  0  0  0  0  0
   19.1816   22.6822   -2.3885 C   0  0  2  0  0  0  0  0  0  0  0  0
   18.3421   22.1808   -3.5473 N   0  0  0  0  0  0  0  0  0  0  0  0
   20.6413   26.6012    0.7174 C   0  0  2  0  0  0  0  0  0  0  0  0
   17.7504   28.5382   -0.1817 C   0  0  1  0  0  0  0  0  0  0  0  0
   19.0790   28.1738   -0.0412 O   0  0  0  0  0  0  0  0  0  0  0  0
   18.3105   22.8220   -1.1258 C   0  0  1  0  0  0  0  0  0  0  0  0
   17.8572   21.5440   -0.7953 O   0  0  0  0  0  0  0  0  0  0  0  0
   19.2532   27.2172    0.8553 C   0  0  2  0  0  0  0  0  0  0  0  0
   17.4968   29.7287   -1.0801 C   0  0  1  0  0  0  0  0  0  0  0  0
   18.2726   30.8250   -0.6127 N   0  0  0  0  0  0  0  0  0  0  0  0
   19.1050   23.3499    0.0763 C   0  0  2  0  0  0  0  0  0  0  0  0
   18.2959   23.5016    1.3093 N   0  0  0  0  0  0  0  0  0  0  0  0
   19.2212   27.5210    2.2897 C   0  0  1  0  0  0  0  0  0  0  0  0
   19.2309   28.9439    2.4215 O   0  0  0  0  0  0  0  0  0  0  0  0
   17.8547   29.4503   -2.3918 C   0  0  2  0  0  0  0  0  0  0  0  0
   17.3248   30.4683   -3.2028 O   0  0  0  0  0  0  0  0  0  0  0  0
   19.6928   24.6998   -0.3034 C   0  0  1  0  0  0  0  0  0  0  0  0
   20.4291   25.1814    0.8099 O   0  0  0  0  0  0  0  0  0  0  0  0
   20.4405   26.9888    2.9107 C   0  0  1  0  0  0  0  0  0  0  0  0
   21.3895   26.9751    1.8514 O   0  0  0  0  0  0  0  0  0  0  0  0
   17.2885   28.1215   -2.8188 C   0  0  1  0  0  0  0  0  0  0  0  0
   17.8571   27.7580   -4.0424 O   0  0  0  0  0  0  0  0  0  0  0  0
   20.6088   24.5547   -1.5519 C   0  0  2  0  0  0  0  0  0  0  0  0
   21.1584   25.8281   -1.8859 O   0  0  0  0  0  0  0  0  0  0  0  0
   17.6368   27.0784   -1.8123 C   0  0  1  0  0  0  0  0  0  0  0  0
   17.0602   27.4499   -0.5938 O   0  0  0  0  0  0  0  0  0  0  0  0
   19.7717   24.0319   -2.7381 C   0  0  1  0  0  0  0  0  0  0  0  0
   20.6011   23.8918   -3.9031 O   0  0  0  0  0  0  0  0  0  0  0  0
   17.0566   25.7051   -2.2046 C   0  0  0  0  0  0  0  0  0  0  0  0
   15.6421   25.8103   -2.3197 O   0  0  0  0  0  0  0  0  0  0  0  0
   19.7033   20.3531   -3.7345 N   0  0  0  0  0  0  0  0  0  0  0  0
   18.2014   21.6173    2.3751 N   0  0  0  0  0  0  0  0  0  0  0  0
  1  2  1  0  0  0  0
  1 39  1  0  0  0  0
  3  4  1  0  0  0  0
  5  6  1  0  0  0  0
  5 40  1  0  0  0  0
  9 10  1  6  0  0  0
  9 14  1  0  0  0  0
  9 35  1  0  0  0  0
 10  1  1  0  0  0  0
 11 16  1  0  0  0  0
 11 28  1  0  0  0  0
 11 26  1  1  0  0  0
 12 17  1  0  0  0  0
 12 34  1  0  0  0  0
 12 13  1  6  0  0  0
 14 15  1  1  0  0  0
 14 19  1  0  0  0  0
 16 13  1  6  0  0  0
 16 21  1  0  0  0  0
 17 18  1  1  0  0  0
 17 23  1  0  0  0  0
 18  8  1  0  0  0  0
 19 20  1  1  0  0  0
 19 25  1  0  0  0  0
 20  5  1  0  0  0  0
 21  3  1  1  0  0  0
 21 22  1  0  0  0  0
 21 27  1  0  0  0  0
 23 24  1  6  0  0  0
 23 29  1  0  0  0  0
 25 26  1  1  0  0  0
 25 31  1  0  0  0  0
 27  7  1  1  0  0  0
 27 28  1  0  0  0  0
 29 30  1  6  0  0  0
 29 33  1  0  0  0  0
 31 32  1  6  0  0  0
 31 35  1  0  0  0  0
 33 34  1  0  0  0  0
 33 37  1  6  0  0  0
 35 36  1  6  0  0  0
 37 38  1  0  0  0  0
M  END
>  <CHROM.1>
-102.88556114,140.86699213,66.60853077,173.65482847,165.15558072,-112.39144821
119.42802639,85.09242889,-178.56348451,-160.87941711,-58.62136070,18.75191732
25.79750506,-0.47834215,1.43334028,1.28418422,-2.63418312

>  <Name>
1nta_lig

>  <RI>
2.40834e+07

>  <Rbt.Current_Directory>
/home/itssahil/PROJECTS/Mol_Feturizer/New_Systems/rnas/1nta

>  <Rbt.Executable>
rbdock ($Id: //depot/dev/client3/rdock/2013.1/src/exe/rbdock.cxx#4 $)

>  <Rbt.Library>
libRbt.so (2013.1, Build901 2013/11/27)

>  <Rbt.Parameter_File>
/export/apps/rDock/src/rDock_2013.1_src/data/scripts/dock_solv.prm

>  <Rbt.Receptor>
prm/blind_docking_80.prm

>  <SCORE>
-38.726

>  <SCORE.INTER>
-15.3011

>  <SCORE.INTER.CONST>
1

>  <SCORE.INTER.POLAR>
-1.28253

>  <SCORE.INTER.ROT>
11

>  <SCORE.INTER.SOLV>
13.9248

>  <SCORE.INTER.VDW>
-21.5006

>  <SCORE.INTER.norm>
-0.382527

>  <SCORE.INTRA>
-24.8759

>  <SCORE.INTRA.DIHEDRAL>
-11.2081

>  <SCORE.INTRA.DIHEDRAL.0>
19.0336

>  <SCORE.INTRA.POLAR>
0

>  <SCORE.INTRA.POLAR.0>
0

>  <SCORE.INTRA.REPUL>
0

>  <SCORE.INTRA.REPUL.0>
0

>  <SCORE.INTRA.SOLV>
-3.22578

>  <SCORE.INTRA.SOLV.lig_0>
-97.5861

>  <SCORE.INTRA.VDW>
-17.6589

>  <SCORE.INTRA.VDW.0>
11.7669

>  <SCORE.INTRA.norm>
-0.621896

>  <SCORE.RESTR>
1.45094

>  <SCORE.RESTR.CAVITY>
1.45094

>  <SCORE.RESTR.norm>
0.0362736

>  <SCORE.SYSTEM>
0

>  <SCORE.SYSTEM.CONST>
0

>  <SCORE.SYSTEM.DIHEDRAL>
0

>  <SCORE.SYSTEM.SOLV>
0

>  <SCORE.SYSTEM.norm>
0

>  <SCORE.heavy>
40

>  <SCORE.norm>
-0.96815

>  <RMSD>
19.965

$$$$
1nta_lig
 OpenBabel11021811403D
libRbt.so/2013.1/901 2013/11/27
 40 42  0  0  0  0  0  0  0  0999 V2000
   21.2131   22.9285   -4.4071 C   0  0  0  0  0  0  0  0  0  0  0  0
   21.3356   23.5137   -5.5396 N   0  0  0  0  0  0  0  0  0  0  0  0
   18.3226   27.4385    3.5168 C   0  0  0  0  0  0  0  0  0  0  0  0
   17.1828   27.5453    3.1210 O   0  0  0  0  0  0  0  0  0  0  0  0
   18.9835   23.4282    2.0119 C   0  0  0  0  0  0  0  0  0  0  0  0
   19.9873   23.3881    2.8489 N   0  0  0  0  0  0  0  0  0  0  0  0
   21.2480   28.3248    4.8274 C   0  0  0  0  0  0  0  0  0  0  0  0
   17.5596   32.9207    1.0541 C   0  0  0  0  0  0  0  0  0  0  0  0
   20.6922   23.8236   -2.2792 C   0  0  2  0  0  0  0  0  0  0  0  0
   20.2208   23.3628   -3.6446 N   0  0  0  0  0  0  0  0  0  0  0  0
   20.9768   27.5817    1.3253 C   0  0  2  0  0  0  0  0  0  0  0  0
   17.9482   29.4490    0.7401 C   0  0  1  0  0  0  0  0  0  0  0  0
   19.2856   29.0899    0.7303 O   0  0  0  0  0  0  0  0  0  0  0  0
   19.5154   23.8227   -1.2852 C   0  0  1  0  0  0  0  0  0  0  0  0
   19.0854   22.5010   -1.1582 O   0  0  0  0  0  0  0  0  0  0  0  0
   19.5437   28.0636    1.5234 C   0  0  2  0  0  0  0  0  0  0  0  0
   17.6356   30.7994    0.1339 C   0  0  1  0  0  0  0  0  0  0  0  0
   18.4261   31.7851    0.7862 N   0  0  0  0  0  0  0  0  0  0  0  0
   19.9304   24.3042    0.1115 C   0  0  2  0  0  0  0  0  0  0  0  0
   18.8201   24.3206    1.0940 N   0  0  0  0  0  0  0  0  0  0  0  0
   19.4963   28.2140    2.9815 C   0  0  1  0  0  0  0  0  0  0  0  0
   19.3899   29.6116    3.2597 O   0  0  0  0  0  0  0  0  0  0  0  0
   17.9238   30.8167   -1.2236 C   0  0  2  0  0  0  0  0  0  0  0  0
   17.3416   31.9743   -1.7677 O   0  0  0  0  0  0  0  0  0  0  0  0
   20.4975   25.7085   -0.0233 C   0  0  1  0  0  0  0  0  0  0  0  0
   20.8827   26.1472    1.2700 O   0  0  0  0  0  0  0  0  0  0  0  0
   20.7593   27.7228    3.5465 C   0  0  1  0  0  0  0  0  0  0  0  0
   21.6992   27.8969    2.4933 O   0  0  0  0  0  0  0  0  0  0  0  0
   17.3469   29.5995   -1.8975 C   0  0  1  0  0  0  0  0  0  0  0  0
   17.8510   29.5191   -3.1982 O   0  0  0  0  0  0  0  0  0  0  0  0
   21.7141   25.7056   -0.9920 C   0  0  2  0  0  0  0  0  0  0  0  0
   22.2381   27.0284   -1.0973 O   0  0  0  0  0  0  0  0  0  0  0  0
   17.7586   28.3717   -1.1590 C   0  0  1  0  0  0  0  0  0  0  0  0
   17.2461   28.4610    0.1390 O   0  0  0  0  0  0  0  0  0  0  0  0
   21.2537   25.2257   -2.3844 C   0  0  1  0  0  0  0  0  0  0  0  0
   22.3649   25.2169   -3.2954 O   0  0  0  0  0  0  0  0  0  0  0  0
   17.1699   27.1034   -1.8079 C   0  0  0  0  0  0  0  0  0  0  0  0
   17.7656   26.9121   -3.0860 O   0  0  0  0  0  0  0  0  0  0  0  0
   22.0033   21.9829   -4.0280 N   0  0  0  0  0  0  0  0  0  0  0  0
   18.0863   22.5228    2.0555 N   0  0  0  0  0  0  0  0  0  0  0  0
  1  2  1  0  0  0  0
  1 39  1  0  0  0  0
  3  4  1  0  0  0  0
  5  6  1  0  0  0  0
  5 40  1  0  0  0  0
  9 10  1  6  0  0  0
  9 14  1  0  0  0  0
  9 35  1  0  0  0  0
 10  1  1  0  0  0  0
 11 16  1  0  0  0  0
 11 28  1  0  0  0  0
 11 26  1  1  0  0  0
 12 17  1  0  0  0  0
 12 34  1  0  0  0  0
 12 13  1  6  0  0  0
 14 15  1  1  0  0  0
 14 19  1  0  0  0  0
 16 13  1  6  0  0  0
 16 21  1  0  0  0  0
 17 18  1  1  0  0  0
 17 23  1  0  0  0  0
 18  8  1  0  0  0  0
 19 20  1  1  0  0  0
 19 25  1  0  0  0  0
 20  5  1  0  0  0  0
 21  3  1  1  0  0  0
 21 22  1  0  0  0  0
 21 27  1  0  0  0  0
 23 24  1  6  0  0  0
 23 29  1  0  0  0  0
 25 26  1  1  0  0  0
 25 31  1  0  0  0  0
 27  7  1  1  0  0  0
 27 28  1  0  0  0  0
 29 30  1  6  0  0  0
 29 33  1  0  0  0  0
 31 32  1  6  0  0  0
 31 35  1  0  0  0  0
 33 34  1  0  0  0  0
 33 37  1  6  0  0  0
 35 36  1  6  0  0  0
 37 38  1  0  0  0  0
M  END
>  <CHROM.1>
-159.38765987,-123.67984064,81.54861953,165.77845363,171.81842416,-136.11451607
111.78696750,61.55653148,-52.50876751,-159.47412192,67.39085876,19.45876277
26.90007893,-0.11387611,0.61660135,1.20583413,-1.70930701

>  <Name>
1nta_lig

>  <RI>
9.25352e+06

>  <Rbt.Current_Directory>
/home/itssahil/PROJECTS/Mol_Feturizer/New_Systems/rnas/1nta

>  <Rbt.Executable>
rbdock ($Id: //depot/dev/client3/rdock/2013.1/src/exe/rbdock.cxx#4 $)

>  <Rbt.Library>
libRbt.so (2013.1, Build901 2013/11/27)

>  <Rbt.Parameter_File>
/export/apps/rDock/src/rDock_2013.1_src/data/scripts/dock_solv.prm

>  <Rbt.Receptor>
prm/blind_docking_40.prm

>  <SCORE>
-36.0004

>  <SCORE.INTER>
-13.7303

>  <SCORE.INTER.CONST>
1

>  <SCORE.INTER.POLAR>
-1.34997

>  <SCORE.INTER.ROT>
11

>  <SCORE.INTER.SOLV>
14.653

>  <SCORE.INTER.VDW>
-20.4713

>  <SCORE.INTER.norm>
-0.343258

>  <SCORE.INTRA>
-23.3711

>  <SCORE.INTRA.DIHEDRAL>
-9.62528

>  <SCORE.INTRA.DIHEDRAL.0>
19.0336

>  <SCORE.INTRA.POLAR>
0

>  <SCORE.INTRA.POLAR.0>
0

>  <SCORE.INTRA.REPUL>
0

>  <SCORE.INTRA.REPUL.0>
0

>  <SCORE.INTRA.SOLV>
-3.58881

>  <SCORE.INTRA.SOLV.lig_0>
-97.5861

>  <SCORE.INTRA.VDW>
-16.7641

>  <SCORE.INTRA.VDW.0>
11.7669

>  <SCORE.INTRA.norm>
-0.584279

>  <SCORE.RESTR>
1.10109

>  <SCORE.RESTR.CAVITY>
1.10109

>  <SCORE.RESTR.norm>
0.0275271

>  <SCORE.SYSTEM>
0

>  <SCORE.SYSTEM.CONST>
0

>  <SCORE.SYSTEM.DIHEDRAL>
0

>  <SCORE.SYSTEM.SOLV>
0

>  <SCORE.SYSTEM.norm>
0

>  <SCORE.heavy>
40

>  <SCORE.norm>
-0.90001

>  <RMSD>
19.970

$$$$
1nta_lig
 OpenBabel11021811403D
libRbt.so/2013.1/901 2013/11/27
 40 42  0  0  0  0  0  0  0  0999 V2000
   17.6431   34.3910   -0.5234 C   0  0  0  0  0  0  0  0  0  0  0  0
   17.3042   34.7352   -1.7095 N   0  0  0  0  0  0  0  0  0  0  0  0
   20.9542   26.7003    1.2029 C   0  0  0  0  0  0  0  0  0  0  0  0
   21.8286   27.4465    0.8211 O   0  0  0  0  0  0  0  0  0  0  0  0
   20.9936   30.7466    1.7057 C   0  0  0  0  0  0  0  0  0  0  0  0
   21.4439   31.9141    2.0853 N   0  0  0  0  0  0  0  0  0  0  0  0
   18.3044   28.2504    2.4824 C   0  0  0  0  0  0  0  0  0  0  0  0
   17.1114   22.4282    0.4776 C   0  0  0  0  0  0  0  0  0  0  0  0
   17.3055   32.0905   -0.0823 C   0  0  2  0  0  0  0  0  0  0  0  0
   16.8370   33.5244    0.0715 N   0  0  0  0  0  0  0  0  0  0  0  0
   18.6269   27.8358   -1.0693 C   0  0  2  0  0  0  0  0  0  0  0  0
   19.4048   24.3442   -0.6485 C   0  0  1  0  0  0  0  0  0  0  0  0
   18.8708   25.5081   -1.1756 O   0  0  0  0  0  0  0  0  0  0  0  0
   18.7951   31.9775    0.2936 C   0  0  1  0  0  0  0  0  0  0  0  0
   18.9051   32.3138    1.6437 O   0  0  0  0  0  0  0  0  0  0  0  0
   19.4204   26.5977   -0.6659 C   0  0  2  0  0  0  0  0  0  0  0  0
   18.7117   23.0661   -1.0667 C   0  0  1  0  0  0  0  0  0  0  0  0
   17.3294   23.1737   -0.7507 N   0  0  0  0  0  0  0  0  0  0  0  0
   19.3308   30.5484    0.1337 C   0  0  2  0  0  0  0  0  0  0  0  0
   20.7644   30.4035    0.4828 N   0  0  0  0  0  0  0  0  0  0  0  0
   19.5100   26.7815    0.7863 C   0  0  1  0  0  0  0  0  0  0  0  0
   18.7169   25.7589    1.3923 O   0  0  0  0  0  0  0  0  0  0  0  0
   18.8465   22.8476   -2.4305 C   0  0  2  0  0  0  0  0  0  0  0  0
   18.4483   21.5253   -2.6912 O   0  0  0  0  0  0  0  0  0  0  0  0
   19.1250   30.1271   -1.3127 C   0  0  1  0  0  0  0  0  0  0  0  0
   19.6187   28.8042   -1.4541 O   0  0  0  0  0  0  0  0  0  0  0  0
   18.9303   28.0853    1.1323 C   0  0  1  0  0  0  0  0  0  0  0  0
   17.9978   28.3362    0.0880 O   0  0  0  0  0  0  0  0  0  0  0  0
   20.2806   23.0330   -2.8519 C   0  0  1  0  0  0  0  0  0  0  0  0
   20.3455   23.0457   -4.2477 O   0  0  0  0  0  0  0  0  0  0  0  0
   17.6161   30.1973   -1.6830 C   0  0  2  0  0  0  0  0  0  0  0  0
   17.4423   29.7888   -3.0388 O   0  0  0  0  0  0  0  0  0  0  0  0
   20.7891   24.3404   -2.3475 C   0  0  1  0  0  0  0  0  0  0  0  0
   20.7232   24.3153   -0.9510 O   0  0  0  0  0  0  0  0  0  0  0  0
   17.1198   31.6491   -1.5185 C   0  0  1  0  0  0  0  0  0  0  0  0
   15.7260   31.7350   -1.8574 O   0  0  0  0  0  0  0  0  0  0  0  0
   22.2632   24.5584   -2.7422 C   0  0  0  0  0  0  0  0  0  0  0  0
   22.3588   24.6570   -4.1586 O   0  0  0  0  0  0  0  0  0  0  0  0
   18.6945   34.8578    0.0586 N   0  0  0  0  0  0  0  0  0  0  0  0
   20.7721   29.8403    2.5751 N   0  0  0  0  0  0  0  0  0  0  0  0
  1  2  1  0  0  0  0
  1 39  1  0  0  0  0
  3  4  1  0  0  0  0
  5  6  1  0  0  0  0
  5 40  1  0  0  0  0
  9 10  1  6  0  0  0
  9 14  1  0  0  0  0
  9 35  1  0  0  0  0
 10  1  1  0  0  0  0
 11 16  1  0  0  0  0
 11 28  1  0  0  0  0
 11 26  1  1  0  0  0
 12 17  1  0  0  0  0
 12 34  1  0  0  0  0
 12 13  1  6  0  0  0
 14 15  1  1  0  0  0
 14 19  1  0  0  0  0
 16 13  1  1  0  0  0
 16 21  1  0  0  0  0
 17 18  1  6  0  0  0
 17 23  1  0  0  0  0
 18  8  1  0  0  0  0
 19 20  1  6  0  0  0
 19 25  1  0  0  0  0
 20  5  1  0  0  0  0
 21  3  1  1  0  0  0
 21 22  1  0  0  0  0
 21 27  1  0  0  0  0
 23 24  1  1  0  0  0
 23 29  1  0  0  0  0
 25 26  1  1  0  0  0
 25 31  1  0  0  0  0
 27  7  1  1  0  0  0
 27 28  1  0  0  0  0
 29 30  1  6  0  0  0
 29 33  1  0  0  0  0
 31 32  1  6  0  0  0
 31 35  1  0  0  0  0
 33 34  1  0  0  0  0
 33 37  1  1  0  0  0
 35 36  1  1  0  0  0
 37 38  1  0  0  0  0
M  END
>  <CHROM.1>
49.49183966,95.23577268,-155.27421519,173.13819388,-169.12251211,-101.09000005
59.35489113,-97.73615756,60.88377249,84.50201743,64.93759142,19.13439218
27.99917642,-0.60988176,1.80222812,-0.89012099,0.38277527

>  <Name>
1nta_lig

>  <RI>
0

>  <Rbt.Current_Directory>
/home/itssahil/PROJECTS/Mol_Feturizer/New_Systems/rnas/1nta

>  <Rbt.Executable>
rbdock ($Id: //depot/dev/client3/rdock/2013.1/src/exe/rbdock.cxx#4 $)

>  <Rbt.Library>
libRbt.so (2013.1, Build901 2013/11/27)

>  <Rbt.Parameter_File>
/export/apps/rDock/src/rDock_2013.1_src/data/scripts/dock_solv.prm

>  <Rbt.Receptor>
prm/blind_docking_60.prm

>  <SCORE>
-20.328

>  <SCORE.INTER>
-15.4986

>  <SCORE.INTER.CONST>
1

>  <SCORE.INTER.POLAR>
-2.56852

>  <SCORE.INTER.ROT>
11

>  <SCORE.INTER.SOLV>
14.2191

>  <SCORE.INTER.VDW>
-17.4437

>  <SCORE.INTER.norm>
-0.387465

>  <SCORE.INTRA>
-6.43031

>  <SCORE.INTRA.DIHEDRAL>
-10.7095

>  <SCORE.INTRA.DIHEDRAL.0>
19.0336

>  <SCORE.INTRA.POLAR>
0

>  <SCORE.INTRA.POLAR.0>
0

>  <SCORE.INTRA.REPUL>
0

>  <SCORE.INTRA.REPUL.0>
0

>  <SCORE.INTRA.SOLV>
4.41336

>  <SCORE.INTRA.SOLV.lig_0>
-97.5861

>  <SCORE.INTRA.VDW>
-3.28222

>  <SCORE.INTRA.VDW.0>
11.7669

>  <SCORE.INTRA.norm>
-0.160758

>  <SCORE.RESTR>
1.60086

>  <SCORE.RESTR.CAVITY>
1.60086

>  <SCORE.RESTR.norm>
0.0400216

>  <SCORE.SYSTEM>
0

>  <SCORE.SYSTEM.CONST>
0

>  <SCORE.SYSTEM.DIHEDRAL>
0

>  <SCORE.SYSTEM.SOLV>
0

>  <SCORE.SYSTEM.norm>
0

>  <SCORE.heavy>
40

>  <SCORE.norm>
-0.508201

>  <RMSD>
20.000

$$$$
1nta_lig
 OpenBabel11021811403D
libRbt.so/2013.1/901 2013/11/27
 40 42  0  0  0  0  0  0  0  0999 V2000
   21.5046   22.5159   -4.1338 C   0  0  0  0  0  0  0  0  0  0  0  0
   21.8875   21.4593   -3.5197 N   0  0  0  0  0  0  0  0  0  0  0  0
   17.9921   27.6831    3.1062 C   0  0  0  0  0  0  0  0  0  0  0  0
   17.6135   27.6267    4.2554 O   0  0  0  0  0  0  0  0  0  0  0  0
   18.8972   23.4295    1.9535 C   0  0  0  0  0  0  0  0  0  0  0  0
   19.1290   23.6859    3.2146 N   0  0  0  0  0  0  0  0  0  0  0  0
   20.7781   28.6611    4.6369 C   0  0  0  0  0  0  0  0  0  0  0  0
   17.5705   32.6169   -0.0087 C   0  0  0  0  0  0  0  0  0  0  0  0
   20.8767   23.7310   -2.2025 C   0  0  2  0  0  0  0  0  0  0  0  0
   20.5077   23.1771   -3.5649 N   0  0  0  0  0  0  0  0  0  0  0  0
   20.8509   27.6811    1.1837 C   0  0  2  0  0  0  0  0  0  0  0  0
   17.9028   29.4855    0.1610 C   0  0  1  0  0  0  0  0  0  0  0  0
   19.2347   29.1428    0.3232 O   0  0  0  0  0  0  0  0  0  0  0  0
   19.6439   23.7285   -1.2789 C   0  0  1  0  0  0  0  0  0  0  0  0
   19.2643   22.3969   -1.1033 O   0  0  0  0  0  0  0  0  0  0  0  0
   19.4077   28.1731    1.2057 C   0  0  2  0  0  0  0  0  0  0  0  0
   17.6221   30.4953   -0.9300 C   0  0  1  0  0  0  0  0  0  0  0  0
   18.4143   31.6524   -0.6941 N   0  0  0  0  0  0  0  0  0  0  0  0
   19.9538   24.3021    0.1103 C   0  0  2  0  0  0  0  0  0  0  0  0
   18.7873   24.3194    1.0252 N   0  0  0  0  0  0  0  0  0  0  0  0
   19.2171   28.4223    2.6384 C   0  0  1  0  0  0  0  0  0  0  0  0
   19.0909   29.8354    2.8093 O   0  0  0  0  0  0  0  0  0  0  0  0
   17.9367   29.9810   -2.1801 C   0  0  2  0  0  0  0  0  0  0  0  0
   17.3824   30.8390   -3.1452 O   0  0  0  0  0  0  0  0  0  0  0  0
   20.4670   25.7219   -0.0700 C   0  0  1  0  0  0  0  0  0  0  0  0
   20.7552   26.2461    1.2168 O   0  0  0  0  0  0  0  0  0  0  0  0
   20.4154   27.9726    3.3577 C   0  0  1  0  0  0  0  0  0  0  0  0
   21.4558   28.0761    2.3935 O   0  0  0  0  0  0  0  0  0  0  0  0
   17.3549   28.6011   -2.3408 C   0  0  1  0  0  0  0  0  0  0  0  0
   17.8829   28.0176   -3.4955 O   0  0  0  0  0  0  0  0  0  0  0  0
   21.7382   25.7239   -0.9659 C   0  0  2  0  0  0  0  0  0  0  0  0
   22.2101   27.0620   -1.1145 O   0  0  0  0  0  0  0  0  0  0  0  0
   17.7340   27.7551   -1.1733 C   0  0  1  0  0  0  0  0  0  0  0  0
   17.1979   28.3457   -0.0248 O   0  0  0  0  0  0  0  0  0  0  0  0
   21.3826   25.1499   -2.3534 C   0  0  1  0  0  0  0  0  0  0  0  0
   22.5455   25.1442   -3.1975 O   0  0  0  0  0  0  0  0  0  0  0  0
   17.1393   26.3379   -1.2914 C   0  0  0  0  0  0  0  0  0  0  0  0
   17.7575   25.6601   -2.3793 O   0  0  0  0  0  0  0  0  0  0  0  0
   22.0467   22.9108   -5.2349 N   0  0  0  0  0  0  0  0  0  0  0  0
   18.7871   22.2204    1.5632 N   0  0  0  0  0  0  0  0  0  0  0  0
  1  2  1  0  0  0  0
  1 39  1  0  0  0  0
  3  4  1  0  0  0  0
  5  6  1  0  0  0  0
  5 40  1  0  0  0  0
  9 10  1  6  0  0  0
  9 14  1  0  0  0  0
  9 35  1  0  0  0  0
 10  1  1  0  0  0  0
 11 16  1  0  0  0  0
 11 28  1  0  0  0  0
 11 26  1  1  0  0  0
 12 17  1  0  0  0  0
 12 34  1  0  0  0  0
 12 13  1  6  0  0  0
 14 15  1  1  0  0  0
 14 19  1  0  0  0  0
 16 13  1  6  0  0  0
 16 21  1  0  0  0  0
 17 18  1  1  0  0  0
 17 23  1  0  0  0  0
 18  8  1  0  0  0  0
 19 20  1  1  0  0  0
 19 25  1  0  0  0  0
 20  5  1  0  0  0  0
 21  3  1  1  0  0  0
 21 22  1  0  0  0  0
 21 27  1  0  0  0  0
 23 24  1  6  0  0  0
 23 29  1  0  0  0  0
 25 26  1  1  0  0  0
 25 31  1  0  0  0  0
 27  7  1  1  0  0  0
 27 28  1  0  0  0  0
 29 30  1  6  0  0  0
 29 33  1  0  0  0  0
 31 32  1  6  0  0  0
 31 35  1  0  0  0  0
 33 34  1  0  0  0  0
 33 37  1  6  0  0  0
 35 36  1  6  0  0  0
 37 38  1  0  0  0  0
M  END
>  <CHROM.1>
-146.98050647,63.76244257,80.19747746,-174.37414545,170.88911440,-97.38058969
107.91690447,108.87888906,175.52371600,-162.38768494,67.43753828,19.45009841
26.69140847,-0.27332342,0.49878058,1.21468447,-1.59636671

>  <Name>
1nta_lig

>  <RI>
9.25352e+06

>  <Rbt.Current_Directory>
/home/itssahil/PROJECTS/Mol_Feturizer/New_Systems/rnas/1nta

>  <Rbt.Executable>
rbdock ($Id: //depot/dev/client3/rdock/2013.1/src/exe/rbdock.cxx#4 $)

>  <Rbt.Library>
libRbt.so (2013.1, Build901 2013/11/27)

>  <Rbt.Parameter_File>
/export/apps/rDock/src/rDock_2013.1_src/data/scripts/dock_solv.prm

>  <Rbt.Receptor>
prm/blind_docking_40.prm

>  <SCORE>
-39.3868

>  <SCORE.INTER>
-18.3005

>  <SCORE.INTER.CONST>
1

>  <SCORE.INTER.POLAR>
-2.07176

>  <SCORE.INTER.ROT>
11

>  <SCORE.INTER.SOLV>
13.416

>  <SCORE.INTER.VDW>
-20.6998

>  <SCORE.INTER.norm>
-0.457511

>  <SCORE.INTRA>
-22.7573

>  <SCORE.INTRA.DIHEDRAL>
-10.9206

>  <SCORE.INTRA.DIHEDRAL.0>
19.0336

>  <SCORE.INTRA.POLAR>
0

>  <SCORE.INTRA.POLAR.0>
0

>  <SCORE.INTRA.REPUL>
0.00052575

>  <SCORE.INTRA.REPUL.0>
0

>  <SCORE.INTRA.SOLV>
-2.55046

>  <SCORE.INTRA.SOLV.lig_0>
-97.5861

>  <SCORE.INTRA.VDW>
-16.0244

>  <SCORE.INTRA.VDW.0>
11.7669

>  <SCORE.INTRA.norm>
-0.568932

>  <SCORE.RESTR>
1.67098

>  <SCORE.RESTR.CAVITY>
1.67098

>  <SCORE.RESTR.norm>
0.0417746

>  <SCORE.SYSTEM>
0

>  <SCORE.SYSTEM.CONST>
0

>  <SCORE.SYSTEM.DIHEDRAL>
0

>  <SCORE.SYSTEM.SOLV>
0

>  <SCORE.SYSTEM.norm>
0

>  <SCORE.heavy>
40

>  <SCORE.norm>
-0.984669

>  <RMSD>
20.037

$$$$
1nta_lig
 OpenBabel11021811403D
libRbt.so/2013.1/901 2013/11/27
 40 42  0  0  0  0  0  0  0  0999 V2000
   19.2634   21.2136   -3.3347 C   0  0  0  0  0  0  0  0  0  0  0  0
   20.4991   20.9175   -3.4948 N   0  0  0  0  0  0  0  0  0  0  0  0
   17.7936   27.0420    3.7236 C   0  0  0  0  0  0  0  0  0  0  0  0
   17.5837   25.9034    4.0797 O   0  0  0  0  0  0  0  0  0  0  0  0
   17.8534   22.0332    2.0620 C   0  0  0  0  0  0  0  0  0  0  0  0
   18.6068   21.0106    2.3728 N   0  0  0  0  0  0  0  0  0  0  0  0
   20.7178   27.5285    5.2316 C   0  0  0  0  0  0  0  0  0  0  0  0
   18.0920   32.2103    0.9443 C   0  0  0  0  0  0  0  0  0  0  0  0
   19.6574   22.9302   -1.7540 C   0  0  2  0  0  0  0  0  0  0  0  0
   19.0127   22.4831   -3.0515 N   0  0  0  0  0  0  0  0  0  0  0  0
   20.5945   26.5604    1.7764 C   0  0  2  0  0  0  0  0  0  0  0  0
   17.9891   28.8481    0.7888 C   0  0  1  0  0  0  0  0  0  0  0  0
   19.2428   28.2777    0.9321 O   0  0  0  0  0  0  0  0  0  0  0  0
   18.6410   22.8406   -0.6000 C   0  0  1  0  0  0  0  0  0  0  0  0
   18.2977   21.4953   -0.4579 O   0  0  0  0  0  0  0  0  0  0  0  0
   19.2560   27.2901    1.8117 C   0  0  2  0  0  0  0  0  0  0  0  0
   17.9452   30.1180   -0.0322 C   0  0  1  0  0  0  0  0  0  0  0  0
   18.8622   31.0516    0.5243 N   0  0  0  0  0  0  0  0  0  0  0  0
   19.2334   23.3046    0.7373 C   0  0  2  0  0  0  0  0  0  0  0  0
   18.2802   23.2362    1.8708 N   0  0  0  0  0  0  0  0  0  0  0  0
   19.1223   27.5639    3.2463 C   0  0  1  0  0  0  0  0  0  0  0  0
   19.2392   28.9774    3.4204 O   0  0  0  0  0  0  0  0  0  0  0  0
   18.2974   29.8724   -1.3519 C   0  0  2  0  0  0  0  0  0  0  0  0
   17.9519   31.0087   -2.1032 O   0  0  0  0  0  0  0  0  0  0  0  0
   19.7070   24.7397    0.5703 C   0  0  1  0  0  0  0  0  0  0  0  0
   20.2570   25.1624    1.8083 O   0  0  0  0  0  0  0  0  0  0  0  0
   20.2329   26.9153    3.9546 C   0  0  1  0  0  0  0  0  0  0  0  0
   21.2677   26.8436    2.9815 O   0  0  0  0  0  0  0  0  0  0  0  0
   17.5514   28.6751   -1.8795 C   0  0  1  0  0  0  0  0  0  0  0  0
   18.0963   28.3079   -3.1126 O   0  0  0  0  0  0  0  0  0  0  0  0
   20.7668   24.8269   -0.5647 C   0  0  2  0  0  0  0  0  0  0  0  0
   21.2060   26.1776   -0.6990 O   0  0  0  0  0  0  0  0  0  0  0  0
   17.7076   27.5292   -0.9387 C   0  0  1  0  0  0  0  0  0  0  0  0
   17.1561   27.9059    0.2898 O   0  0  0  0  0  0  0  0  0  0  0  0
   20.1299   24.3619   -1.8911 C   0  0  1  0  0  0  0  0  0  0  0  0
   21.0943   24.4362   -2.9537 O   0  0  0  0  0  0  0  0  0  0  0  0
   16.9400   26.2879   -1.4349 C   0  0  0  0  0  0  0  0  0  0  0  0
   17.4676   25.8835   -2.6931 O   0  0  0  0  0  0  0  0  0  0  0  0
   18.3233   20.3372   -3.4365 N   0  0  0  0  0  0  0  0  0  0  0  0
   16.5986   21.8701    1.9031 N   0  0  0  0  0  0  0  0  0  0  0  0
  1  2  1  0  0  0  0
  1 39  1  0  0  0  0
  3  4  1  0  0  0  0
  5  6  1  0  0  0  0
  5 40  1  0  0  0  0
  9 10  1  6  0  0  0
  9 14  1  0  0  0  0
  9 35  1  0  0  0  0
 10  1  1  0  0  0  0
 11 16  1  0  0  0  0
 11 28  1  0  0  0  0
 11 26  1  1  0  0  0
 12 17  1  0  0  0  0
 12 34  1  0  0  0  0
 12 13  1  6  0  0  0
 14 15  1  1  0  0  0
 14 19  1  0  0  0  0
 16 13  1  6  0  0  0
 16 21  1  0  0  0  0
 17 18  1  1  0  0  0
 17 23  1  0  0  0  0
 18  8  1  0  0  0  0
 19 20  1  1  0  0  0
 19 25  1  0  0  0  0
 20  5  1  0  0  0  0
 21  3  1  1  0  0  0
 21 22  1  0  0  0  0
 21 27  1  0  0  0  0
 23 24  1  6  0  0  0
 23 29  1  0  0  0  0
 25 26  1  1  0  0  0
 25 31  1  0  0  0  0
 27  7  1  1  0  0  0
 27 28  1  0  0  0  0
 29 30  1  6  0  0  0
 29 33  1  0  0  0  0
 31 32  1  6  0  0  0
 31 35  1  0  0  0  0
 33 34  1  0  0  0  0
 33 37  1  6  0  0  0
 35 36  1  6  0  0  0
 37 38  1  0  0  0  0
M  END
>  <CHROM.1>
-96.43098036,-61.21278720,72.50130877,170.73693472,171.30967603,-118.60566693
59.65968219,61.42725855,85.66935775,-173.62592513,61.46773023,18.91713881
25.89639276,0.23401423,1.17605589,1.45071682,-2.40987154

>  <Name>
1nta_lig

>  <RI>
9.25352e+06

>  <Rbt.Current_Directory>
/home/itssahil/PROJECTS/Mol_Feturizer/New_Systems/rnas/1nta

>  <Rbt.Executable>
rbdock ($Id: //depot/dev/client3/rdock/2013.1/src/exe/rbdock.cxx#4 $)

>  <Rbt.Library>
libRbt.so (2013.1, Build901 2013/11/27)

>  <Rbt.Parameter_File>
/export/apps/rDock/src/rDock_2013.1_src/data/scripts/dock_solv.prm

>  <Rbt.Receptor>
prm/blind_docking_40.prm

>  <SCORE>
-26.6164

>  <SCORE.INTER>
-5.56437

>  <SCORE.INTER.CONST>
1

>  <SCORE.INTER.POLAR>
-0.00130324

>  <SCORE.INTER.ROT>
11

>  <SCORE.INTER.SOLV>
13.8864

>  <SCORE.INTER.VDW>
-19.2674

>  <SCORE.INTER.norm>
-0.139109

>  <SCORE.INTRA>
-21.052

>  <SCORE.INTRA.DIHEDRAL>
-11.598

>  <SCORE.INTRA.DIHEDRAL.0>
19.0336

>  <SCORE.INTRA.POLAR>
0

>  <SCORE.INTRA.POLAR.0>
0

>  <SCORE.INTRA.REPUL>
0

>  <SCORE.INTRA.REPUL.0>
0

>  <SCORE.INTRA.SOLV>
-2.28812

>  <SCORE.INTRA.SOLV.lig_0>
-97.5861

>  <SCORE.INTRA.VDW>
-14.1089

>  <SCORE.INTRA.VDW.0>
11.7669

>  <SCORE.INTRA.norm>
-0.5263

>  <SCORE.RESTR>
0

>  <SCORE.RESTR.CAVITY>
0

>  <SCORE.RESTR.norm>
0

>  <SCORE.SYSTEM>
0

>  <SCORE.SYSTEM.CONST>
0

>  <SCORE.SYSTEM.DIHEDRAL>
0

>  <SCORE.SYSTEM.SOLV>
0

>  <SCORE.SYSTEM.norm>
0

>  <SCORE.heavy>
40

>  <SCORE.norm>
-0.665409

>  <RMSD>
20.092

$$$$
1nta_lig
 OpenBabel11021811403D
libRbt.so/2013.1/901 2013/11/27
 40 42  0  0  0  0  0  0  0  0999 V2000
   18.6943   33.7749   -0.6600 C   0  0  0  0  0  0  0  0  0  0  0  0
   17.4349   34.0071   -0.6689 N   0  0  0  0  0  0  0  0  0  0  0  0
   19.1396   24.0985   -1.4827 C   0  0  0  0  0  0  0  0  0  0  0  0
   18.3806   24.8259   -2.0846 O   0  0  0  0  0  0  0  0  0  0  0  0
   17.3112   28.0382   -2.6274 C   0  0  0  0  0  0  0  0  0  0  0  0
   17.1923   28.9903   -3.5158 N   0  0  0  0  0  0  0  0  0  0  0  0
   22.2121   23.9334   -2.7452 C   0  0  0  0  0  0  0  0  0  0  0  0
   20.3666   22.7135    4.3468 C   0  0  0  0  0  0  0  0  0  0  0  0
   19.5444   31.5665   -0.6314 C   0  0  2  0  0  0  0  0  0  0  0  0
   19.0878   32.7920    0.1360 N   0  0  0  0  0  0  0  0  0  0  0  0
   21.2783   26.6464   -0.5869 C   0  0  2  0  0  0  0  0  0  0  0  0
   19.4603   24.9102    1.9536 C   0  0  1  0  0  0  0  0  0  0  0  0
   20.5520   25.4339    1.2816 O   0  0  0  0  0  0  0  0  0  0  0  0
   18.4245   30.5091   -0.6543 C   0  0  1  0  0  0  0  0  0  0  0  0
   17.3489   31.0642   -1.3490 O   0  0  0  0  0  0  0  0  0  0  0  0
   20.3195   25.6115   -0.0082 C   0  0  2  0  0  0  0  0  0  0  0  0
   19.6474   24.7179    3.4425 C   0  0  1  0  0  0  0  0  0  0  0  0
   20.8020   23.9158    3.6562 N   0  0  0  0  0  0  0  0  0  0  0  0
   18.8406   29.2340   -1.3998 C   0  0  2  0  0  0  0  0  0  0  0  0
   17.7872   28.1913   -1.4375 N   0  0  0  0  0  0  0  0  0  0  0  0
   20.4899   24.5075   -0.9583 C   0  0  1  0  0  0  0  0  0  0  0  0
   21.1404   23.4441   -0.2596 O   0  0  0  0  0  0  0  0  0  0  0  0
   19.8191   25.9354    4.0861 C   0  0  2  0  0  0  0  0  0  0  0  0
   19.6885   25.7091    5.4669 O   0  0  0  0  0  0  0  0  0  0  0  0
   20.0758   28.6700   -0.7158 C   0  0  1  0  0  0  0  0  0  0  0  0
   20.4582   27.4935   -1.4111 O   0  0  0  0  0  0  0  0  0  0  0  0
   21.3688   24.9543   -2.0463 C   0  0  1  0  0  0  0  0  0  0  0  0
   22.1639   25.9725   -1.4513 O   0  0  0  0  0  0  0  0  0  0  0  0
   18.7703   26.9185    3.6365 C   0  0  1  0  0  0  0  0  0  0  0  0
   19.1073   28.1895    4.1091 O   0  0  0  0  0  0  0  0  0  0  0  0
   21.2238   29.7191   -0.7302 C   0  0  2  0  0  0  0  0  0  0  0  0
   22.3759   29.1684   -0.0941 O   0  0  0  0  0  0  0  0  0  0  0  0
   18.7313   26.9679    2.1470 C   0  0  1  0  0  0  0  0  0  0  0  0
   18.3898   25.6929    1.6853 O   0  0  0  0  0  0  0  0  0  0  0  0
   20.7698   30.9793    0.0360 C   0  0  1  0  0  0  0  0  0  0  0  0
   21.8186   31.9616    0.0349 O   0  0  0  0  0  0  0  0  0  0  0  0
   17.6539   27.9504    1.6468 C   0  0  0  0  0  0  0  0  0  0  0  0
   18.1818   29.2718    1.6631 O   0  0  0  0  0  0  0  0  0  0  0  0
   19.5278   34.4532   -1.3724 N   0  0  0  0  0  0  0  0  0  0  0  0
   16.9182   26.8579   -2.9078 N   0  0  0  0  0  0  0  0  0  0  0  0
  1  2  1  0  0  0  0
  1 39  1  0  0  0  0
  3  4  1  0  0  0  0
  5  6  1  0  0  0  0
  5 40  1  0  0  0  0
  9 10  1  1  0  0  0
  9 14  1  0  0  0  0
  9 35  1  0  0  0  0
 10  1  1  0  0  0  0
 11 16  1  0  0  0  0
 11 28  1  0  0  0  0
 11 26  1  6  0  0  0
 12 17  1  0  0  0  0
 12 34  1  0  0  0  0
 12 13  1  1  0  0  0
 14 15  1  6  0  0  0
 14 19  1  0  0  0  0
 16 13  1  1  0  0  0
 16 21  1  0  0  0  0
 17 18  1  6  0  0  0
 17 23  1  0  0  0  0
 18  8  1  0  0  0  0
 19 20  1  1  0  0  0
 19 25  1  0  0  0  0
 20  5  1  0  0  0  0
 21  3  1  6  0  0  0
 21 22  1  0  0  0  0
 21 27  1  0  0  0  0
 23 24  1  1  0  0  0
 23 29  1  0  0  0  0
 25 26  1  6  0  0  0
 25 31  1  0  0  0  0
 27  7  1  1  0  0  0
 27 28  1  0  0  0  0
 29 30  1  1  0  0  0
 29 33  1  0  0  0  0
 31 32  1  1  0  0  0
 31 35  1  0  0  0  0
 33 34  1  0  0  0  0
 33 37  1  1  0  0  0
 35 36  1  6  0  0  0
 37 38  1  0  0  0  0
M  END
>  <CHROM.1>
-100.11880416,109.14778870,97.26489629,-178.38541236,158.02604530,-119.18133480
110.47622761,-32.56474484,59.85334267,-158.99784371,82.82169395,19.58015035
27.71443076,0.20929807,2.68415435,1.38889813,-1.44641394

>  <Name>
1nta_lig

>  <RI>
2.40834e+07

>  <Rbt.Current_Directory>
/home/itssahil/PROJECTS/Mol_Feturizer/New_Systems/rnas/1nta

>  <Rbt.Executable>
rbdock ($Id: //depot/dev/client3/rdock/2013.1/src/exe/rbdock.cxx#4 $)

>  <Rbt.Library>
libRbt.so (2013.1, Build901 2013/11/27)

>  <Rbt.Parameter_File>
/export/apps/rDock/src/rDock_2013.1_src/data/scripts/dock_solv.prm

>  <Rbt.Receptor>
prm/blind_docking_80.prm

>  <SCORE>
-22.5184

>  <SCORE.INTER>
-4.72055

>  <SCORE.INTER.CONST>
1

>  <SCORE.INTER.POLAR>
-0.556292

>  <SCORE.INTER.ROT>
11

>  <SCORE.INTER.SOLV>
16.6687

>  <SCORE.INTER.VDW>
-17.7823

>  <SCORE.INTER.norm>
-0.118014

>  <SCORE.INTRA>
-19.4901

>  <SCORE.INTRA.DIHEDRAL>
-3.94583

>  <SCORE.INTRA.DIHEDRAL.0>
19.0336

>  <SCORE.INTRA.POLAR>
0

>  <SCORE.INTRA.POLAR.0>
0

>  <SCORE.INTRA.REPUL>
0

>  <SCORE.INTRA.REPUL.0>
0

>  <SCORE.INTRA.SOLV>
-0.905016

>  <SCORE.INTRA.SOLV.lig_0>
-97.5861

>  <SCORE.INTRA.VDW>
-17.0647

>  <SCORE.INTRA.VDW.0>
11.7669

>  <SCORE.INTRA.norm>
-0.487253

>  <SCORE.RESTR>
1.69223

>  <SCORE.RESTR.CAVITY>
1.69223

>  <SCORE.RESTR.norm>
0.0423057

>  <SCORE.SYSTEM>
0

>  <SCORE.SYSTEM.CONST>
0

>  <SCORE.SYSTEM.DIHEDRAL>
0

>  <SCORE.SYSTEM.SOLV>
0

>  <SCORE.SYSTEM.norm>
0

>  <SCORE.heavy>
40

>  <SCORE.norm>
-0.562961

>  <RMSD>
20.099

$$$$
1nta_lig
 OpenBabel11021811403D
libRbt.so/2013.1/901 2013/11/27
 40 42  0  0  0  0  0  0  0  0999 V2000
   17.9482   34.4578   -2.2975 C   0  0  0  0  0  0  0  0  0  0  0  0
   17.4693   35.5398   -1.8077 N   0  0  0  0  0  0  0  0  0  0  0  0
   20.7112   26.5773    2.9462 C   0  0  0  0  0  0  0  0  0  0  0  0
   21.4832   27.4512    2.6182 O   0  0  0  0  0  0  0  0  0  0  0  0
   18.2623   27.5175   -2.4272 C   0  0  0  0  0  0  0  0  0  0  0  0
   19.5664   27.6108   -2.4504 N   0  0  0  0  0  0  0  0  0  0  0  0
   17.8915   27.7534    4.2605 C   0  0  0  0  0  0  0  0  0  0  0  0
   17.9702   21.6843    2.0235 C   0  0  0  0  0  0  0  0  0  0  0  0
   18.0742   32.1841   -1.6530 C   0  0  2  0  0  0  0  0  0  0  0  0
   17.2283   33.3667   -2.0832 N   0  0  0  0  0  0  0  0  0  0  0  0
   18.2699   27.5035    0.6989 C   0  0  2  0  0  0  0  0  0  0  0  0
   19.6222   24.1570    0.8035 C   0  0  1  0  0  0  0  0  0  0  0  0
   18.7916   25.2268    0.5150 O   0  0  0  0  0  0  0  0  0  0  0  0
   17.3447   30.8664   -1.9763 C   0  0  1  0  0  0  0  0  0  0  0  0
   17.2065   30.8027   -3.3637 O   0  0  0  0  0  0  0  0  0  0  0  0
   19.2053   26.3562    1.0650 C   0  0  2  0  0  0  0  0  0  0  0  0
   19.1157   22.8041    0.3541 C   0  0  1  0  0  0  0  0  0  0  0  0
   17.8202   22.5978    0.9032 N   0  0  0  0  0  0  0  0  0  0  0  0
   18.1464   29.6329   -1.5400 C   0  0  2  0  0  0  0  0  0  0  0  0
   17.4713   28.3456   -1.8319 N   0  0  0  0  0  0  0  0  0  0  0  0
   19.2688   26.4991    2.5232 C   0  0  1  0  0  0  0  0  0  0  0  0
   18.6026   25.3685    3.0889 O   0  0  0  0  0  0  0  0  0  0  0  0
   19.0348   22.7351   -1.0296 C   0  0  2  0  0  0  0  0  0  0  0  0
   18.8501   21.3863   -1.3785 O   0  0  0  0  0  0  0  0  0  0  0  0
   18.3948   29.7374   -0.0436 C   0  0  1  0  0  0  0  0  0  0  0  0
   19.1392   28.5965    0.3537 O   0  0  0  0  0  0  0  0  0  0  0  0
   18.5359   27.7113    2.9096 C   0  0  1  0  0  0  0  0  0  0  0  0
   17.5825   27.8845    1.8684 O   0  0  0  0  0  0  0  0  0  0  0  0
   20.3058   23.2466   -1.6552 C   0  0  1  0  0  0  0  0  0  0  0  0
   20.1083   23.3914   -3.0309 O   0  0  0  0  0  0  0  0  0  0  0  0
   19.1706   31.0454    0.2820 C   0  0  2  0  0  0  0  0  0  0  0  0
   19.4029   31.1202    1.6876 O   0  0  0  0  0  0  0  0  0  0  0  0
   20.6447   24.5828   -1.0875 C   0  0  1  0  0  0  0  0  0  0  0  0
   20.8438   24.4256    0.2876 O   0  0  0  0  0  0  0  0  0  0  0  0
   18.3282   32.2595   -0.1625 C   0  0  1  0  0  0  0  0  0  0  0  0
   19.0285   33.4795    0.1312 O   0  0  0  0  0  0  0  0  0  0  0  0
   21.9533   25.1320   -1.6896 C   0  0  0  0  0  0  0  0  0  0  0  0
   22.2524   26.3882   -1.0916 O   0  0  0  0  0  0  0  0  0  0  0  0
   19.0587   34.4267   -2.9517 N   0  0  0  0  0  0  0  0  0  0  0  0
   17.6847   26.5637   -3.0462 N   0  0  0  0  0  0  0  0  0  0  0  0
  1  2  1  0  0  0  0
  1 39  1  0  0  0  0
  3  4  1  0  0  0  0
  5  6  1  0  0  0  0
  5 40  1  0  0  0  0
  9 10  1  1  0  0  0
  9 14  1  0  0  0  0
  9 35  1  0  0  0  0
 10  1  1  0  0  0  0
 11 16  1  0  0  0  0
 11 28  1  0  0  0  0
 11 26  1  1  0  0  0
 12 17  1  0  0  0  0
 12 34  1  0  0  0  0
 12 13  1  6  0  0  0
 14 15  1  6  0  0  0
 14 19  1  0  0  0  0
 16 13  1  1  0  0  0
 16 21  1  0  0  0  0
 17 18  1  1  0  0  0
 17 23  1  0  0  0  0
 18  8  1  0  0  0  0
 19 20  1  1  0  0  0
 19 25  1  0  0  0  0
 20  5  1  0  0  0  0
 21  3  1  1  0  0  0
 21 22  1  0  0  0  0
 21 27  1  0  0  0  0
 23 24  1  1  0  0  0
 23 29  1  0  0  0  0
 25 26  1  6  0  0  0
 25 31  1  0  0  0  0
 27  7  1  1  0  0  0
 27 28  1  0  0  0  0
 29 30  1  6  0  0  0
 29 33  1  0  0  0  0
 31 32  1  1  0  0  0
 31 35  1  0  0  0  0
 33 34  1  0  0  0  0
 33 37  1  6  0  0  0
 35 36  1  6  0  0  0
 37 38  1  0  0  0  0
M  END
>  <CHROM.1>
-156.64730715,-135.41508145,178.61271458,172.55601907,179.11060612,-103.03723391
130.82039012,17.99243340,62.51395690,-88.36924056,-178.43199594,18.96568428
27.67318670,-0.20664165,-3.13776836,-1.43208495,1.40429486

>  <Name>
1nta_lig

>  <RI>
9.25352e+06

>  <Rbt.Current_Directory>
/home/itssahil/PROJECTS/Mol_Feturizer/New_Systems/rnas/1nta

>  <Rbt.Executable>
rbdock ($Id: //depot/dev/client3/rdock/2013.1/src/exe/rbdock.cxx#4 $)

>  <Rbt.Library>
libRbt.so (2013.1, Build901 2013/11/27)

>  <Rbt.Parameter_File>
/export/apps/rDock/src/rDock_2013.1_src/data/scripts/dock_solv.prm

>  <Rbt.Receptor>
prm/blind_docking_40.prm

>  <SCORE>
-38.5798

>  <SCORE.INTER>
-17.2654

>  <SCORE.INTER.CONST>
1

>  <SCORE.INTER.POLAR>
-1.36647

>  <SCORE.INTER.ROT>
11

>  <SCORE.INTER.SOLV>
20.1491

>  <SCORE.INTER.VDW>
-24.6051

>  <SCORE.INTER.norm>
-0.431634

>  <SCORE.INTRA>
-21.9428

>  <SCORE.INTRA.DIHEDRAL>
-11.7716

>  <SCORE.INTRA.DIHEDRAL.0>
19.0336

>  <SCORE.INTRA.POLAR>
0

>  <SCORE.INTRA.POLAR.0>
0

>  <SCORE.INTRA.REPUL>
0

>  <SCORE.INTRA.REPUL.0>
0

>  <SCORE.INTRA.SOLV>
0.418495

>  <SCORE.INTRA.SOLV.lig_0>
-97.5861

>  <SCORE.INTRA.VDW>
-16.2663

>  <SCORE.INTRA.VDW.0>
11.7669

>  <SCORE.INTRA.norm>
-0.548571

>  <SCORE.RESTR>
0.628402

>  <SCORE.RESTR.CAVITY>
0.628402

>  <SCORE.RESTR.norm>
0.01571

>  <SCORE.SYSTEM>
0

>  <SCORE.SYSTEM.CONST>
0

>  <SCORE.SYSTEM.DIHEDRAL>
0

>  <SCORE.SYSTEM.SOLV>
0

>  <SCORE.SYSTEM.norm>
0

>  <SCORE.heavy>
40

>  <SCORE.norm>
-0.964495

>  <RMSD>
20.101

$$$$
1nta_lig
 OpenBabel11021811403D
libRbt.so/2013.1/901 2013/11/27
 40 42  0  0  0  0  0  0  0  0999 V2000
   19.5768   21.1945   -3.9952 C   0  0  0  0  0  0  0  0  0  0  0  0
   20.4588   20.4106   -3.4975 N   0  0  0  0  0  0  0  0  0  0  0  0
   18.2471   27.2737    2.7566 C   0  0  0  0  0  0  0  0  0  0  0  0
   18.1516   26.0804    2.9415 O   0  0  0  0  0  0  0  0  0  0  0  0
   18.4888   22.8842    1.3202 C   0  0  0  0  0  0  0  0  0  0  0  0
   17.9644   21.7262    1.0138 N   0  0  0  0  0  0  0  0  0  0  0  0
   21.2562   28.1696    3.8537 C   0  0  0  0  0  0  0  0  0  0  0  0
   17.0681   32.0801   -0.5137 C   0  0  0  0  0  0  0  0  0  0  0  0
   20.4159   23.0424   -2.7781 C   0  0  2  0  0  0  0  0  0  0  0  0
   19.9346   22.4659   -4.0952 N   0  0  0  0  0  0  0  0  0  0  0  0
   20.8027   27.1150    0.4518 C   0  0  2  0  0  0  0  0  0  0  0  0
   17.7795   28.8512   -0.3650 C   0  0  1  0  0  0  0  0  0  0  0  0
   19.1366   28.6228   -0.2113 O   0  0  0  0  0  0  0  0  0  0  0  0
   19.2387   23.1635   -1.7919 C   0  0  1  0  0  0  0  0  0  0  0  0
   18.7771   21.8703   -1.5419 O   0  0  0  0  0  0  0  0  0  0  0  0
   19.3966   27.6656    0.6636 C   0  0  2  0  0  0  0  0  0  0  0  0
   17.4136   29.9474   -1.3413 C   0  0  1  0  0  0  0  0  0  0  0  0
   18.0845   31.1411   -0.9578 N   0  0  0  0  0  0  0  0  0  0  0  0
   19.6641   23.7649   -0.4458 C   0  0  2  0  0  0  0  0  0  0  0  0
   18.5538   23.9005    0.5274 N   0  0  0  0  0  0  0  0  0  0  0  0
   19.4201   27.9524    2.1017 C   0  0  1  0  0  0  0  0  0  0  0  0
   19.3721   29.3728    2.2510 O   0  0  0  0  0  0  0  0  0  0  0  0
   17.7928   29.6127   -2.6337 C   0  0  2  0  0  0  0  0  0  0  0  0
   17.1682   30.5180   -3.5085 O   0  0  0  0  0  0  0  0  0  0  0  0
   20.2647   25.1363   -0.7111 C   0  0  1  0  0  0  0  0  0  0  0  0
   20.6594   25.6861    0.5362 O   0  0  0  0  0  0  0  0  0  0  0  0
   20.6906   27.4697    2.6570 C   0  0  1  0  0  0  0  0  0  0  0  0
   21.5871   27.5105    1.5536 O   0  0  0  0  0  0  0  0  0  0  0  0
   17.3524   28.2105   -2.9627 C   0  0  1  0  0  0  0  0  0  0  0  0
   17.9496   27.8171   -4.1632 O   0  0  0  0  0  0  0  0  0  0  0  0
   21.4817   25.0129   -1.6715 C   0  0  2  0  0  0  0  0  0  0  0  0
   22.0372   26.3070   -1.8998 O   0  0  0  0  0  0  0  0  0  0  0  0
   17.7990   27.2770   -1.8896 C   0  0  1  0  0  0  0  0  0  0  0  0
   17.1930   27.6773   -0.6946 O   0  0  0  0  0  0  0  0  0  0  0  0
   21.0108   24.4145   -3.0137 C   0  0  1  0  0  0  0  0  0  0  0  0
   22.1223   24.2933   -3.9164 O   0  0  0  0  0  0  0  0  0  0  0  0
   17.3488   25.8317   -2.1808 C   0  0  0  0  0  0  0  0  0  0  0  0
   16.8769   25.2371   -0.9771 O   0  0  0  0  0  0  0  0  0  0  0  0
   18.4153   20.7794   -4.3704 N   0  0  0  0  0  0  0  0  0  0  0  0
   18.9633   23.0750    2.4885 N   0  0  0  0  0  0  0  0  0  0  0  0
  1  2  1  0  0  0  0
  1 39  1  0  0  0  0
  3  4  1  0  0  0  0
  5  6  1  0  0  0  0
  5 40  1  0  0  0  0
  9 10  1  6  0  0  0
  9 14  1  0  0  0  0
  9 35  1  0  0  0  0
 10  1  1  0  0  0  0
 11 16  1  0  0  0  0
 11 28  1  0  0  0  0
 11 26  1  1  0  0  0
 12 17  1  0  0  0  0
 12 34  1  0  0  0  0
 12 13  1  6  0  0  0
 14 15  1  1  0  0  0
 14 19  1  0  0  0  0
 16 13  1  6  0  0  0
 16 21  1  0  0  0  0
 17 18  1  1  0  0  0
 17 23  1  0  0  0  0
 18  8  1  0  0  0  0
 19 20  1  1  0  0  0
 19 25  1  0  0  0  0
 20  5  1  0  0  0  0
 21  3  1  1  0  0  0
 21 22  1  0  0  0  0
 21 27  1  0  0  0  0
 23 24  1  6  0  0  0
 23 29  1  0  0  0  0
 25 26  1  1  0  0  0
 25 31  1  0  0  0  0
 27  7  1  1  0  0  0
 27 28  1  0  0  0  0
 29 30  1  6  0  0  0
 29 33  1  0  0  0  0
 31 32  1  6  0  0  0
 31 35  1  0  0  0  0
 33 34  1  0  0  0  0
 33 37  1  6  0  0  0
 35 36  1  6  0  0  0
 37 38  1  0  0  0  0
M  END
>  <CHROM.1>
-68.93117334,-54.01080823,84.39916545,179.30175700,160.13517132,-112.45363392
94.53607988,-78.93760870,72.69293198,-160.14111215,-137.78911483,19.14640713
26.05560495,-0.76699977,1.02331550,1.26710492,-2.26488150

>  <Name>
1nta_lig

>  <RI>
0

>  <Rbt.Current_Directory>
/home/itssahil/PROJECTS/Mol_Feturizer/New_Systems/rnas/1nta

>  <Rbt.Executable>
rbdock ($Id: //depot/dev/client3/rdock/2013.1/src/exe/rbdock.cxx#4 $)

>  <Rbt.Library>
libRbt.so (2013.1, Build901 2013/11/27)

>  <Rbt.Parameter_File>
/export/apps/rDock/src/rDock_2013.1_src/data/scripts/dock_solv.prm

>  <Rbt.Receptor>
prm/blind_docking_60.prm

>  <SCORE>
-35.3179

>  <SCORE.INTER>
-20.6472

>  <SCORE.INTER.CONST>
1

>  <SCORE.INTER.POLAR>
-2.32982

>  <SCORE.INTER.ROT>
11

>  <SCORE.INTER.SOLV>
13.222

>  <SCORE.INTER.VDW>
-21.3394

>  <SCORE.INTER.norm>
-0.516181

>  <SCORE.INTRA>
-18.6894

>  <SCORE.INTRA.DIHEDRAL>
-4.59293

>  <SCORE.INTRA.DIHEDRAL.0>
19.0336

>  <SCORE.INTRA.POLAR>
0

>  <SCORE.INTRA.POLAR.0>
0

>  <SCORE.INTRA.REPUL>
0.0270465

>  <SCORE.INTRA.REPUL.0>
0

>  <SCORE.INTRA.SOLV>
-0.659986

>  <SCORE.INTRA.SOLV.lig_0>
-97.5861

>  <SCORE.INTRA.VDW>
-16.1982

>  <SCORE.INTRA.VDW.0>
11.7669

>  <SCORE.INTRA.norm>
-0.467235

>  <SCORE.RESTR>
4.01879

>  <SCORE.RESTR.CAVITY>
4.01879

>  <SCORE.RESTR.norm>
0.10047

>  <SCORE.SYSTEM>
0

>  <SCORE.SYSTEM.CONST>
0

>  <SCORE.SYSTEM.DIHEDRAL>
0

>  <SCORE.SYSTEM.SOLV>
0

>  <SCORE.SYSTEM.norm>
0

>  <SCORE.heavy>
40

>  <SCORE.norm>
-0.882946

>  <RMSD>
20.101

$$$$
1nta_lig
 OpenBabel11021811403D
libRbt.so/2013.1/901 2013/11/27
 40 42  0  0  0  0  0  0  0  0999 V2000
   18.1463   34.5423   -2.2345 C   0  0  0  0  0  0  0  0  0  0  0  0
   19.1067   34.3638   -3.0627 N   0  0  0  0  0  0  0  0  0  0  0  0
   20.5794   26.3754    2.6909 C   0  0  0  0  0  0  0  0  0  0  0  0
   21.4076   27.1962    2.3626 O   0  0  0  0  0  0  0  0  0  0  0  0
   18.2031   27.5652   -2.5765 C   0  0  0  0  0  0  0  0  0  0  0  0
   19.5089   27.6296   -2.6014 N   0  0  0  0  0  0  0  0  0  0  0  0
   17.7107   27.5516    3.8944 C   0  0  0  0  0  0  0  0  0  0  0  0
   17.8333   21.6851    1.5410 C   0  0  0  0  0  0  0  0  0  0  0  0
   18.1962   32.2441   -1.6721 C   0  0  2  0  0  0  0  0  0  0  0  0
   17.3863   33.4820   -2.0048 N   0  0  0  0  0  0  0  0  0  0  0  0
   18.2756   27.4180    0.3513 C   0  0  2  0  0  0  0  0  0  0  0  0
   19.5712   24.0481    0.4103 C   0  0  1  0  0  0  0  0  0  0  0  0
   18.7734   25.1408    0.1153 O   0  0  0  0  0  0  0  0  0  0  0  0
   17.4020   30.9771   -2.0421 C   0  0  1  0  0  0  0  0  0  0  0  0
   17.2145   30.9984   -3.4250 O   0  0  0  0  0  0  0  0  0  0  0  0
   19.1733   26.2437    0.7259 C   0  0  2  0  0  0  0  0  0  0  0  0
   19.0720   22.7206   -0.1162 C   0  0  1  0  0  0  0  0  0  0  0  0
   17.7448   22.5155    0.3516 N   0  0  0  0  0  0  0  0  0  0  0  0
   18.1659   29.6897   -1.7045 C   0  0  2  0  0  0  0  0  0  0  0  0
   17.4283   28.4491   -2.0434 N   0  0  0  0  0  0  0  0  0  0  0  0
   19.1607   26.3354    2.1895 C   0  0  1  0  0  0  0  0  0  0  0  0
   18.4489   25.1970    2.6790 O   0  0  0  0  0  0  0  0  0  0  0  0
   19.0684   22.7026   -1.5039 C   0  0  2  0  0  0  0  0  0  0  0  0
   18.8848   21.3703   -1.9119 O   0  0  0  0  0  0  0  0  0  0  0  0
   18.4686   29.6983   -0.2145 C   0  0  1  0  0  0  0  0  0  0  0  0
   19.1779   28.5079    0.0914 O   0  0  0  0  0  0  0  0  0  0  0  0
   18.4258   27.5453    2.5789 C   0  0  1  0  0  0  0  0  0  0  0  0
   17.5322   27.7698    1.4954 O   0  0  0  0  0  0  0  0  0  0  0  0
   20.3798   23.2157   -2.0382 C   0  0  1  0  0  0  0  0  0  0  0  0
   20.2624   23.4130   -3.4165 O   0  0  0  0  0  0  0  0  0  0  0  0
   19.3088   30.9537    0.1555 C   0  0  2  0  0  0  0  0  0  0  0  0
   19.5912   30.9385    1.5539 O   0  0  0  0  0  0  0  0  0  0  0  0
   20.7048   24.5250   -1.4037 C   0  0  1  0  0  0  0  0  0  0  0  0
   20.8237   24.3154   -0.0263 O   0  0  0  0  0  0  0  0  0  0  0  0
   18.5032   32.2238   -0.1898 C   0  0  1  0  0  0  0  0  0  0  0  0
   19.2632   33.3962    0.1462 O   0  0  0  0  0  0  0  0  0  0  0  0
   22.0528   25.0744   -1.9110 C   0  0  0  0  0  0  0  0  0  0  0  0
   22.3448   26.2933   -1.2371 O   0  0  0  0  0  0  0  0  0  0  0  0
   17.9268   35.6774   -1.6639 N   0  0  0  0  0  0  0  0  0  0  0  0
   17.6071   26.5827   -3.1296 N   0  0  0  0  0  0  0  0  0  0  0  0
  1  2  1  0  0  0  0
  1 39  1  0  0  0  0
  3  4  1  0  0  0  0
  5  6  1  0  0  0  0
  5 40  1  0  0  0  0
  9 10  1  1  0  0  0
  9 14  1  0  0  0  0
  9 35  1  0  0  0  0
 10  1  1  0  0  0  0
 11 16  1  0  0  0  0
 11 28  1  0  0  0  0
 11 26  1  1  0  0  0
 12 17  1  0  0  0  0
 12 34  1  0  0  0  0
 12 13  1  6  0  0  0
 14 15  1  6  0  0  0
 14 19  1  0  0  0  0
 16 13  1  1  0  0  0
 16 21  1  0  0  0  0
 17 18  1  6  0  0  0
 17 23  1  0  0  0  0
 18  8  1  0  0  0  0
 19 20  1  1  0  0  0
 19 25  1  0  0  0  0
 20  5  1  0  0  0  0
 21  3  1  1  0  0  0
 21 22  1  0  0  0  0
 21 27  1  0  0  0  0
 23 24  1  1  0  0  0
 23 29  1  0  0  0  0
 25 26  1  6  0  0  0
 25 31  1  0  0  0  0
 27  7  1  1  0  0  0
 27 28  1  0  0  0  0
 29 30  1  6  0  0  0
 29 33  1  0  0  0  0
 31 32  1  1  0  0  0
 31 35  1  0  0  0  0
 33 34  1  0  0  0  0
 33 37  1  6  0  0  0
 35 36  1  6  0  0  0
 37 38  1  0  0  0  0
M  END
>  <CHROM.1>
-154.18978318,49.72524236,-177.34612746,172.72969574,179.14906534,-96.48206814
138.16491941,11.81842354,57.15864181,-85.95611139,-177.58556532,18.99162901
27.62533780,-0.44653814,-2.94998613,-1.44757894,1.63925722

>  <Name>
1nta_lig

>  <RI>
0

>  <Rbt.Current_Directory>
/home/itssahil/PROJECTS/Mol_Feturizer/New_Systems/rnas/1nta

>  <Rbt.Executable>
rbdock ($Id: //depot/dev/client3/rdock/2013.1/src/exe/rbdock.cxx#4 $)

>  <Rbt.Library>
libRbt.so (2013.1, Build901 2013/11/27)

>  <Rbt.Parameter_File>
/export/apps/rDock/src/rDock_2013.1_src/data/scripts/dock_solv.prm

>  <Rbt.Receptor>
prm/blind_docking_60.prm

>  <SCORE>
-34.3934

>  <SCORE.INTER>
-15.0229

>  <SCORE.INTER.CONST>
1

>  <SCORE.INTER.POLAR>
-1.33494

>  <SCORE.INTER.ROT>
11

>  <SCORE.INTER.SOLV>
20.8061

>  <SCORE.INTER.VDW>
-23.4342

>  <SCORE.INTER.norm>
-0.375572

>  <SCORE.INTRA>
-20.6147

>  <SCORE.INTRA.DIHEDRAL>
-12.1722

>  <SCORE.INTRA.DIHEDRAL.0>
19.0336

>  <SCORE.INTRA.POLAR>
0

>  <SCORE.INTRA.POLAR.0>
0

>  <SCORE.INTRA.REPUL>
0

>  <SCORE.INTRA.REPUL.0>
0

>  <SCORE.INTRA.SOLV>
1.11695

>  <SCORE.INTRA.SOLV.lig_0>
-97.5861

>  <SCORE.INTRA.VDW>
-15.087

>  <SCORE.INTRA.VDW.0>
11.7669

>  <SCORE.INTRA.norm>
-0.515366

>  <SCORE.RESTR>
1.24415

>  <SCORE.RESTR.CAVITY>
1.24415

>  <SCORE.RESTR.norm>
0.0311039

>  <SCORE.SYSTEM>
0

>  <SCORE.SYSTEM.CONST>
0

>  <SCORE.SYSTEM.DIHEDRAL>
0

>  <SCORE.SYSTEM.SOLV>
0

>  <SCORE.SYSTEM.norm>
0

>  <SCORE.heavy>
40

>  <SCORE.norm>
-0.859834

>  <RMSD>
20.119

$$$$
1nta_lig
 OpenBabel11021811403D
libRbt.so/2013.1/901 2013/11/27
 40 42  0  0  0  0  0  0  0  0999 V2000
   17.2970   34.9778   -2.0823 C   0  0  0  0  0  0  0  0  0  0  0  0
   17.5179   34.4005   -3.2038 N   0  0  0  0  0  0  0  0  0  0  0  0
   22.3874   26.8492    0.2984 C   0  0  0  0  0  0  0  0  0  0  0  0
   22.7626   25.8931   -0.3438 O   0  0  0  0  0  0  0  0  0  0  0  0
   17.0020   28.2001   -1.6429 C   0  0  0  0  0  0  0  0  0  0  0  0
   17.3901   28.2873   -2.8885 N   0  0  0  0  0  0  0  0  0  0  0  0
   21.4196   28.4083    3.0722 C   0  0  0  0  0  0  0  0  0  0  0  0
   19.4062   23.1533    2.6707 C   0  0  0  0  0  0  0  0  0  0  0  0
   18.0470   32.8686   -1.3148 C   0  0  2  0  0  0  0  0  0  0  0  0
   17.3920   34.2023   -1.0126 N   0  0  0  0  0  0  0  0  0  0  0  0
   19.1399   27.9987    0.3288 C   0  0  2  0  0  0  0  0  0  0  0  0
   19.9733   24.5034    0.1036 C   0  0  1  0  0  0  0  0  0  0  0  0
   19.2277   25.6701    0.0854 O   0  0  0  0  0  0  0  0  0  0  0  0
   17.0969   31.7156   -0.9396 C   0  0  1  0  0  0  0  0  0  0  0  0
   15.9718   31.8271   -1.7579 O   0  0  0  0  0  0  0  0  0  0  0  0
   19.9814   26.7565    0.0568 C   0  0  2  0  0  0  0  0  0  0  0  0
   19.1888   23.2374    0.3689 C   0  0  1  0  0  0  0  0  0  0  0  0
   18.4698   23.3941    1.5857 N   0  0  0  0  0  0  0  0  0  0  0  0
   17.7184   30.3375   -1.2029 C   0  0  2  0  0  0  0  0  0  0  0  0
   16.8323   29.2030   -0.8484 N   0  0  0  0  0  0  0  0  0  0  0  0
   21.0706   26.9373    1.0222 C   0  0  1  0  0  0  0  0  0  0  0  0
   20.9319   25.9170    2.0130 O   0  0  0  0  0  0  0  0  0  0  0  0
   18.2890   22.9828   -0.6566 C   0  0  2  0  0  0  0  0  0  0  0  0
   17.8212   21.6673   -0.4957 O   0  0  0  0  0  0  0  0  0  0  0  0
   19.0030   30.2379   -0.3955 C   0  0  1  0  0  0  0  0  0  0  0  0
   19.5752   28.9636   -0.6454 O   0  0  0  0  0  0  0  0  0  0  0  0
   20.9095   28.2429    1.6742 C   0  0  1  0  0  0  0  0  0  0  0  0
   19.5130   28.4997    1.5919 O   0  0  0  0  0  0  0  0  0  0  0  0
   18.9679   23.1147   -1.9945 C   0  0  1  0  0  0  0  0  0  0  0  0
   17.9978   23.0927   -2.9999 O   0  0  0  0  0  0  0  0  0  0  0  0
   19.9832   31.3744   -0.8033 C   0  0  2  0  0  0  0  0  0  0  0  0
   21.1849   31.2579   -0.0433 O   0  0  0  0  0  0  0  0  0  0  0  0
   19.6885   24.4177   -2.0677 C   0  0  1  0  0  0  0  0  0  0  0  0
   20.6586   24.4275   -1.0606 O   0  0  0  0  0  0  0  0  0  0  0  0
   19.3257   32.7402   -0.5145 C   0  0  1  0  0  0  0  0  0  0  0  0
   20.2174   33.8046   -0.8842 O   0  0  0  0  0  0  0  0  0  0  0  0
   20.4146   24.5817   -3.4176 C   0  0  0  0  0  0  0  0  0  0  0  0
   21.4936   23.6564   -3.4840 O   0  0  0  0  0  0  0  0  0  0  0  0
   16.9969   36.2287   -1.9954 N   0  0  0  0  0  0  0  0  0  0  0  0
   16.7379   27.0580   -1.1406 N   0  0  0  0  0  0  0  0  0  0  0  0
  1  2  1  0  0  0  0
  1 39  1  0  0  0  0
  3  4  1  0  0  0  0
  5  6  1  0  0  0  0
  5 40  1  0  0  0  0
  9 10  1  1  0  0  0
  9 14  1  0  0  0  0
  9 35  1  0  0  0  0
 10  1  1  0  0  0  0
 11 16  1  0  0  0  0
 11 28  1  0  0  0  0
 11 26  1  6  0  0  0
 12 17  1  0  0  0  0
 12 34  1  0  0  0  0
 12 13  1  6  0  0  0
 14 15  1  6  0  0  0
 14 19  1  0  0  0  0
 16 13  1  1  0  0  0
 16 21  1  0  0  0  0
 17 18  1  1  0  0  0
 17 23  1  0  0  0  0
 18  8  1  0  0  0  0
 19 20  1  1  0  0  0
 19 25  1  0  0  0  0
 20  5  1  0  0  0  0
 21  3  1  6  0  0  0
 21 22  1  0  0  0  0
 21 27  1  0  0  0  0
 23 24  1  1  0  0  0
 23 29  1  0  0  0  0
 25 26  1  6  0  0  0
 25 31  1  0  0  0  0
 27  7  1  1  0  0  0
 27 28  1  0  0  0  0
 29 30  1  6  0  0  0
 29 33  1  0  0  0  0
 31 32  1  1  0  0  0
 31 35  1  0  0  0  0
 33 34  1  0  0  0  0
 33 37  1  6  0  0  0
 35 36  1  6  0  0  0
 37 38  1  0  0  0  0
M  END
>  <CHROM.1>
-121.92908972,12.99388167,-172.02339414,170.20268902,-168.24512290,-79.89020795
146.33482428,-28.70731776,-58.71289102,-92.41851032,-68.73748326,19.15821226
27.97271435,-0.61729042,1.80811330,-0.77196358,0.07183213

>  <Name>
1nta_lig

>  <RI>
2.40834e+07

>  <Rbt.Current_Directory>
/home/itssahil/PROJECTS/Mol_Feturizer/New_Systems/rnas/1nta

>  <Rbt.Executable>
rbdock ($Id: //depot/dev/client3/rdock/2013.1/src/exe/rbdock.cxx#4 $)

>  <Rbt.Library>
libRbt.so (2013.1, Build901 2013/11/27)

>  <Rbt.Parameter_File>
/export/apps/rDock/src/rDock_2013.1_src/data/scripts/dock_solv.prm

>  <Rbt.Receptor>
prm/blind_docking_80.prm

>  <SCORE>
-17.9539

>  <SCORE.INTER>
-2.13095

>  <SCORE.INTER.CONST>
1

>  <SCORE.INTER.POLAR>
0

>  <SCORE.INTER.ROT>
11

>  <SCORE.INTER.SOLV>
20.9318

>  <SCORE.INTER.VDW>
-19.3312

>  <SCORE.INTER.norm>
-0.0532738

>  <SCORE.INTRA>
-16.1104

>  <SCORE.INTRA.DIHEDRAL>
-9.8206

>  <SCORE.INTRA.DIHEDRAL.0>
19.0336

>  <SCORE.INTRA.POLAR>
0

>  <SCORE.INTRA.POLAR.0>
0

>  <SCORE.INTRA.REPUL>
0

>  <SCORE.INTRA.REPUL.0>
0

>  <SCORE.INTRA.SOLV>
-0.081404

>  <SCORE.INTRA.SOLV.lig_0>
-97.5861

>  <SCORE.INTRA.VDW>
-11.1594

>  <SCORE.INTRA.VDW.0>
11.7669

>  <SCORE.INTRA.norm>
-0.402761

>  <SCORE.RESTR>
0.287485

>  <SCORE.RESTR.CAVITY>
0.287485

>  <SCORE.RESTR.norm>
0.00718713

>  <SCORE.SYSTEM>
0

>  <SCORE.SYSTEM.CONST>
0

>  <SCORE.SYSTEM.DIHEDRAL>
0

>  <SCORE.SYSTEM.SOLV>
0

>  <SCORE.SYSTEM.norm>
0

>  <SCORE.heavy>
40

>  <SCORE.norm>
-0.448848

>  <RMSD>
20.124

$$$$
1nta_lig
 OpenBabel11021811403D
libRbt.so/2013.1/901 2013/11/27
 40 42  0  0  0  0  0  0  0  0999 V2000
   20.0227   22.7623   -4.5624 C   0  0  0  0  0  0  0  0  0  0  0  0
   18.8272   22.3069   -4.6213 N   0  0  0  0  0  0  0  0  0  0  0  0
   18.0549   27.1907    2.8422 C   0  0  0  0  0  0  0  0  0  0  0  0
   16.9105   27.5486    2.6709 O   0  0  0  0  0  0  0  0  0  0  0  0
   18.2304   22.3009    0.8417 C   0  0  0  0  0  0  0  0  0  0  0  0
   18.7739   21.5738    1.7828 N   0  0  0  0  0  0  0  0  0  0  0  0
   21.0430   28.0765    4.0035 C   0  0  0  0  0  0  0  0  0  0  0  0
   17.0822   32.0124   -0.5907 C   0  0  0  0  0  0  0  0  0  0  0  0
   21.0601   22.7414   -2.4354 C   0  0  2  0  0  0  0  0  0  0  0  0
   20.8543   22.0837   -3.7860 N   0  0  0  0  0  0  0  0  0  0  0  0
   20.6801   26.9025    0.6299 C   0  0  2  0  0  0  0  0  0  0  0  0
   17.7172   28.6756   -0.3311 C   0  0  1  0  0  0  0  0  0  0  0  0
   19.0635   28.4121   -0.1429 O   0  0  0  0  0  0  0  0  0  0  0  0
   19.7350   22.7631   -1.6501 C   0  0  1  0  0  0  0  0  0  0  0  0
   19.3712   21.4353   -1.4208 O   0  0  0  0  0  0  0  0  0  0  0  0
   19.2780   27.4843    0.7749 C   0  0  2  0  0  0  0  0  0  0  0  0
   17.4063   29.8235   -1.2662 C   0  0  1  0  0  0  0  0  0  0  0  0
   18.0864   30.9838   -0.8042 N   0  0  0  0  0  0  0  0  0  0  0  0
   19.8788   23.4404   -0.2807 C   0  0  2  0  0  0  0  0  0  0  0  0
   18.6201   23.4833    0.5016 N   0  0  0  0  0  0  0  0  0  0  0  0
   19.2605   27.8245    2.2014 C   0  0  1  0  0  0  0  0  0  0  0  0
   19.2333   29.2501    2.2964 O   0  0  0  0  0  0  0  0  0  0  0  0
   17.8235   29.5417   -2.5595 C   0  0  2  0  0  0  0  0  0  0  0  0
   17.2469   30.4995   -3.4110 O   0  0  0  0  0  0  0  0  0  0  0  0
   20.3738   24.8602   -0.5068 C   0  0  1  0  0  0  0  0  0  0  0  0
   20.5083   25.4804    0.7624 O   0  0  0  0  0  0  0  0  0  0  0  0
   20.5036   27.3417    2.8156 C   0  0  1  0  0  0  0  0  0  0  0  0
   21.4357   27.3259    1.7414 O   0  0  0  0  0  0  0  0  0  0  0  0
   17.3679   28.1658   -2.9691 C   0  0  1  0  0  0  0  0  0  0  0  0
   17.9985   27.8165   -4.1661 O   0  0  0  0  0  0  0  0  0  0  0  0
   21.7341   24.8410   -1.2605 C   0  0  2  0  0  0  0  0  0  0  0  0
   22.1866   26.1801   -1.4538 O   0  0  0  0  0  0  0  0  0  0  0  0
   17.7591   27.1742   -1.9269 C   0  0  1  0  0  0  0  0  0  0  0  0
   17.1200   27.5308   -0.7354 O   0  0  0  0  0  0  0  0  0  0  0  0
   21.5447   24.1620   -2.6331 C   0  0  1  0  0  0  0  0  0  0  0  0
   22.7919   24.1354   -3.3463 O   0  0  0  0  0  0  0  0  0  0  0  0
   17.2916   25.7537   -2.3012 C   0  0  0  0  0  0  0  0  0  0  0  0
   17.5364   24.8772   -1.2072 O   0  0  0  0  0  0  0  0  0  0  0  0
   20.3953   23.8133   -5.2095 N   0  0  0  0  0  0  0  0  0  0  0  0
   17.2528   21.8359    0.1675 N   0  0  0  0  0  0  0  0  0  0  0  0
  1  2  1  0  0  0  0
  1 39  1  0  0  0  0
  3  4  1  0  0  0  0
  5  6  1  0  0  0  0
  5 40  1  0  0  0  0
  9 10  1  6  0  0  0
  9 14  1  0  0  0  0
  9 35  1  0  0  0  0
 10  1  1  0  0  0  0
 11 16  1  0  0  0  0
 11 28  1  0  0  0  0
 11 26  1  1  0  0  0
 12 17  1  0  0  0  0
 12 34  1  0  0  0  0
 12 13  1  6  0  0  0
 14 15  1  1  0  0  0
 14 19  1  0  0  0  0
 16 13  1  6  0  0  0
 16 21  1  0  0  0  0
 17 18  1  1  0  0  0
 17 23  1  0  0  0  0
 18  8  1  0  0  0  0
 19 20  1  6  0  0  0
 19 25  1  0  0  0  0
 20  5  1  0  0  0  0
 21  3  1  1  0  0  0
 21 22  1  0  0  0  0
 21 27  1  0  0  0  0
 23 24  1  6  0  0  0
 23 29  1  0  0  0  0
 25 26  1  1  0  0  0
 25 31  1  0  0  0  0
 27  7  1  1  0  0  0
 27 28  1  0  0  0  0
 29 30  1  6  0  0  0
 29 33  1  0  0  0  0
 31 32  1  6  0  0  0
 31 35  1  0  0  0  0
 33 34  1  0  0  0  0
 33 37  1  6  0  0  0
 35 36  1  1  0  0  0
 37 38  1  0  0  0  0
M  END
>  <CHROM.1>
63.94689747,-100.80236696,94.53559462,174.13918853,161.29226766,-123.05814795
65.94683632,74.70773444,-71.64079828,-167.02949783,-172.74731094,19.19738115
26.05339932,-0.77819539,0.70038720,1.24607696,-1.92415238

>  <Name>
1nta_lig

>  <RI>
1.05895e+07

>  <Rbt.Current_Directory>
/home/itssahil/PROJECTS/Mol_Feturizer/New_Systems/rnas/1nta

>  <Rbt.Executable>
rbdock ($Id: //depot/dev/client3/rdock/2013.1/src/exe/rbdock.cxx#4 $)

>  <Rbt.Library>
libRbt.so (2013.1, Build901 2013/11/27)

>  <Rbt.Parameter_File>
/export/apps/rDock/src/rDock_2013.1_src/data/scripts/dock_solv.prm

>  <Rbt.Receptor>
prm/blind_docking_100.prm

>  <SCORE>
-36.5697

>  <SCORE.INTER>
-19.6142

>  <SCORE.INTER.CONST>
1

>  <SCORE.INTER.POLAR>
-2.30166

>  <SCORE.INTER.ROT>
11

>  <SCORE.INTER.SOLV>
17.4316

>  <SCORE.INTER.VDW>
-22.1478

>  <SCORE.INTER.norm>
-0.490355

>  <SCORE.INTRA>
-18.2897

>  <SCORE.INTRA.DIHEDRAL>
-8.78816

>  <SCORE.INTRA.DIHEDRAL.0>
19.0336

>  <SCORE.INTRA.POLAR>
0

>  <SCORE.INTRA.POLAR.0>
0

>  <SCORE.INTRA.REPUL>
0

>  <SCORE.INTRA.REPUL.0>
0

>  <SCORE.INTRA.SOLV>
0.474009

>  <SCORE.INTRA.SOLV.lig_0>
-97.5861

>  <SCORE.INTRA.VDW>
-14.1326

>  <SCORE.INTRA.VDW.0>
11.7669

>  <SCORE.INTRA.norm>
-0.457241

>  <SCORE.RESTR>
1.33418

>  <SCORE.RESTR.CAVITY>
1.33418

>  <SCORE.RESTR.norm>
0.0333545

>  <SCORE.SYSTEM>
0

>  <SCORE.SYSTEM.CONST>
0

>  <SCORE.SYSTEM.DIHEDRAL>
0

>  <SCORE.SYSTEM.SOLV>
0

>  <SCORE.SYSTEM.norm>
0

>  <SCORE.heavy>
40

>  <SCORE.norm>
-0.914242

>  <RMSD>
20.138

$$$$
1nta_lig
 OpenBabel11021811403D
libRbt.so/2013.1/901 2013/11/27
 40 42  0  0  0  0  0  0  0  0999 V2000
   18.6872   20.4303   -2.5410 C   0  0  0  0  0  0  0  0  0  0  0  0
   18.5492   19.4587   -1.7182 N   0  0  0  0  0  0  0  0  0  0  0  0
   18.8196   27.6702    3.0221 C   0  0  0  0  0  0  0  0  0  0  0  0
   17.6337   27.7609    2.7927 O   0  0  0  0  0  0  0  0  0  0  0  0
   19.6731   23.7790    3.2291 C   0  0  0  0  0  0  0  0  0  0  0  0
   19.2282   23.4288    4.4078 N   0  0  0  0  0  0  0  0  0  0  0  0
   21.9443   28.6912    3.5274 C   0  0  0  0  0  0  0  0  0  0  0  0
   17.9826   31.9413   -0.2721 C   0  0  0  0  0  0  0  0  0  0  0  0
   19.2366   22.3461   -1.2649 C   0  0  2  0  0  0  0  0  0  0  0  0
   18.2319   21.6017   -2.1224 N   0  0  0  0  0  0  0  0  0  0  0  0
   21.0858   26.8732    0.5528 C   0  0  2  0  0  0  0  0  0  0  0  0
   18.0699   28.7162   -0.1687 C   0  0  1  0  0  0  0  0  0  0  0  0
   19.3664   28.2391   -0.2637 O   0  0  0  0  0  0  0  0  0  0  0  0
   18.5722   22.8123    0.0443 C   0  0  1  0  0  0  0  0  0  0  0  0
   18.1904   21.6657    0.7426 O   0  0  0  0  0  0  0  0  0  0  0  0
   19.7190   27.5094    0.7814 C   0  0  2  0  0  0  0  0  0  0  0  0
   17.7111   29.8156   -1.1441 C   0  0  1  0  0  0  0  0  0  0  0  0
   18.6488   30.8750   -1.0009 N   0  0  0  0  0  0  0  0  0  0  0  0
   19.5390   23.5941    0.9437 C   0  0  2  0  0  0  0  0  0  0  0  0
   18.9310   24.0628    2.2120 N   0  0  0  0  0  0  0  0  0  0  0  0
   19.9136   28.1298    2.0960 C   0  0  1  0  0  0  0  0  0  0  0  0
   19.8956   29.5456    1.9029 O   0  0  0  0  0  0  0  0  0  0  0  0
   17.7483   29.3546   -2.4526 C   0  0  2  0  0  0  0  0  0  0  0  0
   17.1276   30.3212   -3.2622 O   0  0  0  0  0  0  0  0  0  0  0  0
   20.0451   24.7947    0.1600 C   0  0  1  0  0  0  0  0  0  0  0  0
   20.9410   25.5118    0.9947 O   0  0  0  0  0  0  0  0  0  0  0  0
   21.2362   27.7473    2.6057 C   0  0  1  0  0  0  0  0  0  0  0  0
   21.9974   27.4910    1.4319 O   0  0  0  0  0  0  0  0  0  0  0  0
   17.0064   28.0491   -2.5698 C   0  0  1  0  0  0  0  0  0  0  0  0
   17.2619   27.4931   -3.8260 O   0  0  0  0  0  0  0  0  0  0  0  0
   20.7562   24.3257   -1.1413 C   0  0  2  0  0  0  0  0  0  0  0  0
   21.2326   25.4644   -1.8567 O   0  0  0  0  0  0  0  0  0  0  0  0
   17.4919   27.0983   -1.5293 C   0  0  1  0  0  0  0  0  0  0  0  0
   17.2281   27.6625   -0.2774 O   0  0  0  0  0  0  0  0  0  0  0  0
   19.7497   23.5538   -2.0201 C   0  0  1  0  0  0  0  0  0  0  0  0
   20.3882   23.1123   -3.2293 O   0  0  0  0  0  0  0  0  0  0  0  0
   16.7408   25.7542   -1.6040 C   0  0  0  0  0  0  0  0  0  0  0  0
   17.0638   24.9735   -0.4589 O   0  0  0  0  0  0  0  0  0  0  0  0
   19.2278   20.2822   -3.7021 N   0  0  0  0  0  0  0  0  0  0  0  0
   20.9287   23.8830    3.0317 N   0  0  0  0  0  0  0  0  0  0  0  0
  1  2  1  0  0  0  0
  1 39  1  0  0  0  0
  3  4  1  0  0  0  0
  5  6  1  0  0  0  0
  5 40  1  0  0  0  0
  9 10  1  6  0  0  0
  9 14  1  0  0  0  0
  9 35  1  0  0  0  0
 10  1  1  0  0  0  0
 11 16  1  0  0  0  0
 11 28  1  0  0  0  0
 11 26  1  1  0  0  0
 12 17  1  0  0  0  0
 12 34  1  0  0  0  0
 12 13  1  6  0  0  0
 14 15  1  1  0  0  0
 14 19  1  0  0  0  0
 16 13  1  6  0  0  0
 16 21  1  0  0  0  0
 17 18  1  6  0  0  0
 17 23  1  0  0  0  0
 18  8  1  0  0  0  0
 19 20  1  1  0  0  0
 19 25  1  0  0  0  0
 20  5  1  0  0  0  0
 21  3  1  1  0  0  0
 21 22  1  0  0  0  0
 21 27  1  0  0  0  0
 23 24  1  6  0  0  0
 23 29  1  0  0  0  0
 25 26  1  1  0  0  0
 25 31  1  0  0  0  0
 27  7  1  6  0  0  0
 27 28  1  0  0  0  0
 29 30  1  6  0  0  0
 29 33  1  0  0  0  0
 31 32  1  6  0  0  0
 31 35  1  0  0  0  0
 33 34  1  0  0  0  0
 33 37  1  1  0  0  0
 35 36  1  6  0  0  0
 37 38  1  0  0  0  0
M  END
>  <CHROM.1>
-129.57618421,84.11456628,66.42447825,165.87050762,173.21704944,-104.34220000
131.47092257,-143.80080873,-54.11631642,-158.95330520,-169.81783691,19.09093705
25.93961057,-0.10596172,1.46166781,1.14545594,-2.88291462

>  <Name>
1nta_lig

>  <RI>
2.40834e+07

>  <Rbt.Current_Directory>
/home/itssahil/PROJECTS/Mol_Feturizer/New_Systems/rnas/1nta

>  <Rbt.Executable>
rbdock ($Id: //depot/dev/client3/rdock/2013.1/src/exe/rbdock.cxx#4 $)

>  <Rbt.Library>
libRbt.so (2013.1, Build901 2013/11/27)

>  <Rbt.Parameter_File>
/export/apps/rDock/src/rDock_2013.1_src/data/scripts/dock_solv.prm

>  <Rbt.Receptor>
prm/blind_docking_80.prm

>  <SCORE>
-34.4608

>  <SCORE.INTER>
-14.8461

>  <SCORE.INTER.CONST>
1

>  <SCORE.INTER.POLAR>
-1.09545

>  <SCORE.INTER.ROT>
11

>  <SCORE.INTER.SOLV>
14.1528

>  <SCORE.INTER.VDW>
-21.8968

>  <SCORE.INTER.norm>
-0.371151

>  <SCORE.INTRA>
-22.2505

>  <SCORE.INTRA.DIHEDRAL>
-10.5801

>  <SCORE.INTRA.DIHEDRAL.0>
19.0336

>  <SCORE.INTRA.POLAR>
0

>  <SCORE.INTRA.POLAR.0>
0

>  <SCORE.INTRA.REPUL>
0

>  <SCORE.INTRA.REPUL.0>
0

>  <SCORE.INTRA.SOLV>
-1.14106

>  <SCORE.INTRA.SOLV.lig_0>
-97.5861

>  <SCORE.INTRA.VDW>
-16.3899

>  <SCORE.INTRA.VDW.0>
11.7669

>  <SCORE.INTRA.norm>
-0.556262

>  <SCORE.RESTR>
2.6357

>  <SCORE.RESTR.CAVITY>
2.6357

>  <SCORE.RESTR.norm>
0.0658925

>  <SCORE.SYSTEM>
0

>  <SCORE.SYSTEM.CONST>
0

>  <SCORE.SYSTEM.DIHEDRAL>
0

>  <SCORE.SYSTEM.SOLV>
0

>  <SCORE.SYSTEM.norm>
0

>  <SCORE.heavy>
40

>  <SCORE.norm>
-0.861521

>  <RMSD>
20.140

$$$$
1nta_lig
 OpenBabel11021811403D
libRbt.so/2013.1/901 2013/11/27
 40 42  0  0  0  0  0  0  0  0999 V2000
   21.7675   22.7344   -4.4506 C   0  0  0  0  0  0  0  0  0  0  0  0
   22.0308   21.5047   -4.2088 N   0  0  0  0  0  0  0  0  0  0  0  0
   18.1044   27.5829    3.2210 C   0  0  0  0  0  0  0  0  0  0  0  0
   16.9158   27.6016    2.9885 O   0  0  0  0  0  0  0  0  0  0  0  0
   18.8081   23.8900    1.6858 C   0  0  0  0  0  0  0  0  0  0  0  0
   18.6166   22.6155    1.9068 N   0  0  0  0  0  0  0  0  0  0  0  0
   21.0148   28.8701    4.1874 C   0  0  0  0  0  0  0  0  0  0  0  0
   16.9752   27.3249   -2.7571 C   0  0  0  0  0  0  0  0  0  0  0  0
   20.9462   23.8014   -2.5045 C   0  0  2  0  0  0  0  0  0  0  0  0
   20.6737   23.2082   -3.8729 N   0  0  0  0  0  0  0  0  0  0  0  0
   20.5215   27.8496    0.7807 C   0  0  2  0  0  0  0  0  0  0  0  0
   19.0794   28.9439   -1.0385 C   0  0  1  0  0  0  0  0  0  0  0  0
   18.6244   29.1210    0.2573 O   0  0  0  0  0  0  0  0  0  0  0  0
   19.6516   23.8234   -1.6700 C   0  0  1  0  0  0  0  0  0  0  0  0
   19.2600   22.4968   -1.4834 O   0  0  0  0  0  0  0  0  0  0  0  0
   19.0661   28.1885    1.0846 C   0  0  2  0  0  0  0  0  0  0  0  0
   18.0761   29.2594   -2.1261 C   0  0  1  0  0  0  0  0  0  0  0  0
   16.9001   28.4936   -1.8965 N   0  0  0  0  0  0  0  0  0  0  0  0
   19.8634   24.4370   -0.2795 C   0  0  2  0  0  0  0  0  0  0  0  0
   18.6355   24.4787    0.5503 N   0  0  0  0  0  0  0  0  0  0  0  0
   19.1309   28.4386    2.5283 C   0  0  1  0  0  0  0  0  0  0  0  0
   18.8918   29.8333    2.7276 O   0  0  0  0  0  0  0  0  0  0  0  0
   17.7439   30.6069   -2.1239 C   0  0  2  0  0  0  0  0  0  0  0  0
   17.0569   30.8778   -3.3196 O   0  0  0  0  0  0  0  0  0  0  0  0
   20.3886   25.8520   -0.4639 C   0  0  1  0  0  0  0  0  0  0  0  0
   20.5859   26.4132    0.8244 O   0  0  0  0  0  0  0  0  0  0  0  0
   20.4863   28.1277    2.9993 C   0  0  1  0  0  0  0  0  0  0  0  0
   21.3038   28.3244    1.8522 O   0  0  0  0  0  0  0  0  0  0  0  0
   18.9878   31.4534   -2.0560 C   0  0  1  0  0  0  0  0  0  0  0  0
   18.6214   32.7799   -1.8135 O   0  0  0  0  0  0  0  0  0  0  0  0
   21.7196   25.8302   -1.2680 C   0  0  2  0  0  0  0  0  0  0  0  0
   22.2014   27.1643   -1.4214 O   0  0  0  0  0  0  0  0  0  0  0  0
   19.8502   30.9926   -0.9308 C   0  0  1  0  0  0  0  0  0  0  0  0
   20.2137   29.6666   -1.1854 O   0  0  0  0  0  0  0  0  0  0  0  0
   21.4621   25.2162   -2.6600 C   0  0  1  0  0  0  0  0  0  0  0  0
   22.6815   25.1881   -3.4198 O   0  0  0  0  0  0  0  0  0  0  0  0
   21.1456   31.8234   -0.8407 C   0  0  0  0  0  0  0  0  0  0  0  0
   21.7475   31.6152    0.4318 O   0  0  0  0  0  0  0  0  0  0  0  0
   22.5115   23.4650   -5.2089 N   0  0  0  0  0  0  0  0  0  0  0  0
   19.1714   24.6508    2.6427 N   0  0  0  0  0  0  0  0  0  0  0  0
  1  2  1  0  0  0  0
  1 39  1  0  0  0  0
  3  4  1  0  0  0  0
  5  6  1  0  0  0  0
  5 40  1  0  0  0  0
  9 10  1  6  0  0  0
  9 14  1  0  0  0  0
  9 35  1  0  0  0  0
 10  1  1  0  0  0  0
 11 16  1  0  0  0  0
 11 28  1  0  0  0  0
 11 26  1  1  0  0  0
 12 17  1  0  0  0  0
 12 34  1  0  0  0  0
 12 13  1  1  0  0  0
 14 15  1  1  0  0  0
 14 19  1  0  0  0  0
 16 13  1  6  0  0  0
 16 21  1  0  0  0  0
 17 18  1  1  0  0  0
 17 23  1  0  0  0  0
 18  8  1  0  0  0  0
 19 20  1  6  0  0  0
 19 25  1  0  0  0  0
 20  5  1  0  0  0  0
 21  3  1  1  0  0  0
 21 22  1  0  0  0  0
 21 27  1  0  0  0  0
 23 24  1  6  0  0  0
 23 29  1  0  0  0  0
 25 26  1  1  0  0  0
 25 31  1  0  0  0  0
 27  7  1  1  0  0  0
 27 28  1  0  0  0  0
 29 30  1  1  0  0  0
 29 33  1  0  0  0  0
 31 32  1  6  0  0  0
 31 35  1  0  0  0  0
 33 34  1  0  0  0  0
 33 37  1  6  0  0  0
 35 36  1  6  0  0  0
 37 38  1  0  0  0  0
M  END
>  <CHROM.1>
-157.91002878,90.16327785,92.71876436,141.56226188,39.81649715,-98.21737887
124.72106183,-88.26506795,-57.54608496,-155.35471014,163.93010946,19.78441010
27.17270954,-0.54280978,-0.46782198,1.31389468,-0.70470324

>  <Name>
1nta_lig

>  <RI>
9.25352e+06

>  <Rbt.Current_Directory>
/home/itssahil/PROJECTS/Mol_Feturizer/New_Systems/rnas/1nta

>  <Rbt.Executable>
rbdock ($Id: //depot/dev/client3/rdock/2013.1/src/exe/rbdock.cxx#4 $)

>  <Rbt.Library>
libRbt.so (2013.1, Build901 2013/11/27)

>  <Rbt.Parameter_File>
/export/apps/rDock/src/rDock_2013.1_src/data/scripts/dock_solv.prm

>  <Rbt.Receptor>
prm/blind_docking_40.prm

>  <SCORE>
-32.2868

>  <SCORE.INTER>
-18.4165

>  <SCORE.INTER.CONST>
1

>  <SCORE.INTER.POLAR>
-2.70743

>  <SCORE.INTER.ROT>
11

>  <SCORE.INTER.SOLV>
15.714

>  <SCORE.INTER.VDW>
-19.4242

>  <SCORE.INTER.norm>
-0.460412

>  <SCORE.INTRA>
-14.762

>  <SCORE.INTRA.DIHEDRAL>
-0.895985

>  <SCORE.INTRA.DIHEDRAL.0>
19.0336

>  <SCORE.INTRA.POLAR>
0

>  <SCORE.INTRA.POLAR.0>
0

>  <SCORE.INTRA.REPUL>
0.0276184

>  <SCORE.INTRA.REPUL.0>
0

>  <SCORE.INTRA.SOLV>
-1.53151

>  <SCORE.INTRA.SOLV.lig_0>
-97.5861

>  <SCORE.INTRA.VDW>
-13.6864

>  <SCORE.INTRA.VDW.0>
11.7669

>  <SCORE.INTRA.norm>
-0.369051

>  <SCORE.RESTR>
0.891684

>  <SCORE.RESTR.CAVITY>
0.891684

>  <SCORE.RESTR.norm>
0.0222921

>  <SCORE.SYSTEM>
0

>  <SCORE.SYSTEM.CONST>
0

>  <SCORE.SYSTEM.DIHEDRAL>
0

>  <SCORE.SYSTEM.SOLV>
0

>  <SCORE.SYSTEM.norm>
0

>  <SCORE.heavy>
40

>  <SCORE.norm>
-0.807171

>  <RMSD>
20.154

$$$$
1nta_lig
 OpenBabel11021811403D
libRbt.so/2013.1/901 2013/11/27
 40 42  0  0  0  0  0  0  0  0999 V2000
   22.2192   21.4792   -3.3495 C   0  0  0  0  0  0  0  0  0  0  0  0
   20.9708   21.2522   -3.5223 N   0  0  0  0  0  0  0  0  0  0  0  0
   18.9414   28.9226    1.9746 C   0  0  0  0  0  0  0  0  0  0  0  0
   18.2665   27.9544    1.7016 O   0  0  0  0  0  0  0  0  0  0  0  0
   18.3688   27.0577   -3.0261 C   0  0  0  0  0  0  0  0  0  0  0  0
   17.3878   26.2372   -2.7534 N   0  0  0  0  0  0  0  0  0  0  0  0
   22.0852   28.1412    2.7276 C   0  0  0  0  0  0  0  0  0  0  0  0
   20.8772   33.4650    1.9603 C   0  0  0  0  0  0  0  0  0  0  0  0
   21.7594   23.6853   -2.6266 C   0  0  2  0  0  0  0  0  0  0  0  0
   22.5921   22.7441   -3.4751 N   0  0  0  0  0  0  0  0  0  0  0  0
   21.0817   28.5355   -0.6970 C   0  0  2  0  0  0  0  0  0  0  0  0
   19.3380   31.6275   -0.0392 C   0  0  1  0  0  0  0  0  0  0  0  0
   20.2023   30.7051   -0.6046 O   0  0  0  0  0  0  0  0  0  0  0  0
   21.0419   24.7115   -3.5239 C   0  0  1  0  0  0  0  0  0  0  0  0
   20.1666   23.9989   -4.3449 O   0  0  0  0  0  0  0  0  0  0  0  0
   20.0602   29.4935   -0.0937 C   0  0  2  0  0  0  0  0  0  0  0  0
   19.8191   33.0618   -0.0572 C   0  0  1  0  0  0  0  0  0  0  0  0
   21.0962   33.1213    0.5653 N   0  0  0  0  0  0  0  0  0  0  0  0
   20.2004   25.7073   -2.7146 C   0  0  2  0  0  0  0  0  0  0  0  0
   19.4985   26.7138   -3.5467 N   0  0  0  0  0  0  0  0  0  0  0  0
   20.2643   29.2569    1.3392 C   0  0  1  0  0  0  0  0  0  0  0  0
   20.8394   30.4449    1.8869 O   0  0  0  0  0  0  0  0  0  0  0  0
   19.9288   33.5358   -1.3570 C   0  0  2  0  0  0  0  0  0  0  0  0
   20.0861   34.9307   -1.2895 O   0  0  0  0  0  0  0  0  0  0  0  0
   21.1237   26.4221   -1.7407 C   0  0  1  0  0  0  0  0  0  0  0  0
   20.3401   27.3388   -0.9928 O   0  0  0  0  0  0  0  0  0  0  0  0
   21.2244   28.1582    1.5026 C   0  0  1  0  0  0  0  0  0  0  0  0
   22.0047   28.2023    0.3142 O   0  0  0  0  0  0  0  0  0  0  0  0
   18.6857   33.2075   -2.1415 C   0  0  1  0  0  0  0  0  0  0  0  0
   18.9174   33.4769   -3.4928 O   0  0  0  0  0  0  0  0  0  0  0  0
   21.8164   25.3926   -0.8032 C   0  0  2  0  0  0  0  0  0  0  0  0
   22.6694   26.0825    0.1088 O   0  0  0  0  0  0  0  0  0  0  0  0
   18.3691   31.7575   -2.0006 C   0  0  1  0  0  0  0  0  0  0  0  0
   18.1356   31.5001   -0.6462 O   0  0  0  0  0  0  0  0  0  0  0  0
   22.6582   24.4178   -1.6532 C   0  0  1  0  0  0  0  0  0  0  0  0
   23.3079   23.4579   -0.8039 O   0  0  0  0  0  0  0  0  0  0  0  0
   17.0890   31.3856   -2.7747 C   0  0  0  0  0  0  0  0  0  0  0  0
   17.3708   31.3795   -4.1696 O   0  0  0  0  0  0  0  0  0  0  0  0
   23.0614   20.5420   -3.0763 N   0  0  0  0  0  0  0  0  0  0  0  0
   18.2330   28.3050   -2.7975 N   0  0  0  0  0  0  0  0  0  0  0  0
  1  2  1  0  0  0  0
  1 39  1  0  0  0  0
  3  4  1  0  0  0  0
  5  6  1  0  0  0  0
  5 40  1  0  0  0  0
  9 10  1  6  0  0  0
  9 14  1  0  0  0  0
  9 35  1  0  0  0  0
 10  1  1  0  0  0  0
 11 16  1  0  0  0  0
 11 28  1  0  0  0  0
 11 26  1  1  0  0  0
 12 17  1  0  0  0  0
 12 34  1  0  0  0  0
 12 13  1  6  0  0  0
 14 15  1  6  0  0  0
 14 19  1  0  0  0  0
 16 13  1  1  0  0  0
 16 21  1  0  0  0  0
 17 18  1  6  0  0  0
 17 23  1  0  0  0  0
 18  8  1  0  0  0  0
 19 20  1  6  0  0  0
 19 25  1  0  0  0  0
 20  5  1  0  0  0  0
 21  3  1  1  0  0  0
 21 22  1  0  0  0  0
 21 27  1  0  0  0  0
 23 24  1  1  0  0  0
 23 29  1  0  0  0  0
 25 26  1  1  0  0  0
 25 31  1  0  0  0  0
 27  7  1  1  0  0  0
 27 28  1  0  0  0  0
 29 30  1  6  0  0  0
 29 33  1  0  0  0  0
 31 32  1  1  0  0  0
 31 35  1  0  0  0  0
 33 34  1  0  0  0  0
 33 37  1  6  0  0  0
 35 36  1  1  0  0  0
 37 38  1  0  0  0  0
M  END
>  <CHROM.1>
-119.59002278,51.73887983,171.49101825,152.88501745,-177.04576040,-94.46196290
147.44998465,-58.35501191,62.73817316,-144.78233568,73.48599146,20.29710283
28.24509021,-1.22999235,1.13745592,0.96397686,-2.57205386

>  <Name>
1nta_lig

>  <RI>
9.25352e+06

>  <Rbt.Current_Directory>
/home/itssahil/PROJECTS/Mol_Feturizer/New_Systems/rnas/1nta

>  <Rbt.Executable>
rbdock ($Id: //depot/dev/client3/rdock/2013.1/src/exe/rbdock.cxx#4 $)

>  <Rbt.Library>
libRbt.so (2013.1, Build901 2013/11/27)

>  <Rbt.Parameter_File>
/export/apps/rDock/src/rDock_2013.1_src/data/scripts/dock_solv.prm

>  <Rbt.Receptor>
prm/blind_docking_40.prm

>  <SCORE>
-21.3544

>  <SCORE.INTER>
-9.84851

>  <SCORE.INTER.CONST>
1

>  <SCORE.INTER.POLAR>
-0.451332

>  <SCORE.INTER.ROT>
11

>  <SCORE.INTER.SOLV>
23.7846

>  <SCORE.INTER.VDW>
-23.9228

>  <SCORE.INTER.norm>
-0.246213

>  <SCORE.INTRA>
-16.4637

>  <SCORE.INTRA.DIHEDRAL>
-6.00608

>  <SCORE.INTRA.DIHEDRAL.0>
19.0336

>  <SCORE.INTRA.POLAR>
0

>  <SCORE.INTRA.POLAR.0>
0

>  <SCORE.INTRA.REPUL>
0

>  <SCORE.INTRA.REPUL.0>
0

>  <SCORE.INTRA.SOLV>
-0.316413

>  <SCORE.INTRA.SOLV.lig_0>
-97.5861

>  <SCORE.INTRA.VDW>
-13.3025

>  <SCORE.INTRA.VDW.0>
11.7669

>  <SCORE.INTRA.norm>
-0.411592

>  <SCORE.RESTR>
4.95779

>  <SCORE.RESTR.CAVITY>
4.95779

>  <SCORE.RESTR.norm>
0.123945

>  <SCORE.SYSTEM>
0

>  <SCORE.SYSTEM.CONST>
0

>  <SCORE.SYSTEM.DIHEDRAL>
0

>  <SCORE.SYSTEM.SOLV>
0

>  <SCORE.SYSTEM.norm>
0

>  <SCORE.heavy>
40

>  <SCORE.norm>
-0.533861

>  <RMSD>
20.161

$$$$
1nta_lig
 OpenBabel11021811403D
libRbt.so/2013.1/901 2013/11/27
 40 42  0  0  0  0  0  0  0  0999 V2000
   17.4576   33.3955   -1.4749 C   0  0  0  0  0  0  0  0  0  0  0  0
   17.8045   34.5604   -1.0716 N   0  0  0  0  0  0  0  0  0  0  0  0
   20.6346   26.4265    3.6867 C   0  0  0  0  0  0  0  0  0  0  0  0
   21.5384   27.1392    3.3093 O   0  0  0  0  0  0  0  0  0  0  0  0
   17.5623   27.1166   -1.9125 C   0  0  0  0  0  0  0  0  0  0  0  0
   18.2185   26.0082   -1.6874 N   0  0  0  0  0  0  0  0  0  0  0  0
   18.0272   28.2639    4.6284 C   0  0  0  0  0  0  0  0  0  0  0  0
   17.6725   21.5287    2.8338 C   0  0  0  0  0  0  0  0  0  0  0  0
   18.8905   31.5443   -1.8219 C   0  0  2  0  0  0  0  0  0  0  0  0
   18.2756   32.8266   -2.3478 N   0  0  0  0  0  0  0  0  0  0  0  0
   18.4442   27.3314    1.1864 C   0  0  2  0  0  0  0  0  0  0  0  0
   19.3679   23.8904    1.6302 C   0  0  1  0  0  0  0  0  0  0  0  0
   18.5718   25.0037    1.4195 O   0  0  0  0  0  0  0  0  0  0  0  0
   17.8148   30.4468   -1.7151 C   0  0  1  0  0  0  0  0  0  0  0  0
   17.3556   30.1939   -3.0086 O   0  0  0  0  0  0  0  0  0  0  0  0
   19.1596   26.1285    1.7917 C   0  0  2  0  0  0  0  0  0  0  0  0
   18.8047   22.5844    1.1144 C   0  0  1  0  0  0  0  0  0  0  0  0
   17.5125   22.3926    1.6761 N   0  0  0  0  0  0  0  0  0  0  0  0
   18.3772   29.1295   -1.1645 C   0  0  2  0  0  0  0  0  0  0  0  0
   17.3672   28.0508   -1.0437 N   0  0  0  0  0  0  0  0  0  0  0  0
   19.2109   26.5137    3.2058 C   0  0  1  0  0  0  0  0  0  0  0  0
   18.3470   25.6258    3.9182 O   0  0  0  0  0  0  0  0  0  0  0  0
   18.6971   22.5982   -0.2691 C   0  0  2  0  0  0  0  0  0  0  0  0
   18.4575   21.2791   -0.6906 O   0  0  0  0  0  0  0  0  0  0  0  0
   18.9748   29.4084    0.2056 C   0  0  1  0  0  0  0  0  0  0  0  0
   19.4963   28.1882    0.7084 O   0  0  0  0  0  0  0  0  0  0  0  0
   18.6876   27.8788    3.3410 C   0  0  1  0  0  0  0  0  0  0  0  0
   17.8039   28.0205    2.2356 O   0  0  0  0  0  0  0  0  0  0  0  0
   19.9747   23.0997   -0.8894 C   0  0  1  0  0  0  0  0  0  0  0  0
   19.7585   23.3305   -2.2504 O   0  0  0  0  0  0  0  0  0  0  0  0
   20.0924   30.4842    0.0951 C   0  0  2  0  0  0  0  0  0  0  0  0
   20.6472   30.7244    1.3873 O   0  0  0  0  0  0  0  0  0  0  0  0
   20.3719   24.3882   -0.2532 C   0  0  1  0  0  0  0  0  0  0  0  0
   20.5892   24.1450    1.1066 O   0  0  0  0  0  0  0  0  0  0  0  0
   19.4852   31.7931   -0.4520 C   0  0  1  0  0  0  0  0  0  0  0  0
   20.5033   32.8013   -0.5607 O   0  0  0  0  0  0  0  0  0  0  0  0
   21.6887   24.9247   -0.8485 C   0  0  0  0  0  0  0  0  0  0  0  0
   21.4282   25.4875   -2.1293 O   0  0  0  0  0  0  0  0  0  0  0  0
   16.3825   32.8135   -1.0655 N   0  0  0  0  0  0  0  0  0  0  0  0
   17.0812   27.3432   -3.0717 N   0  0  0  0  0  0  0  0  0  0  0  0
  1  2  1  0  0  0  0
  1 39  1  0  0  0  0
  3  4  1  0  0  0  0
  5  6  1  0  0  0  0
  5 40  1  0  0  0  0
  9 10  1  1  0  0  0
  9 14  1  0  0  0  0
  9 35  1  0  0  0  0
 10  1  1  0  0  0  0
 11 16  1  0  0  0  0
 11 28  1  0  0  0  0
 11 26  1  1  0  0  0
 12 17  1  0  0  0  0
 12 34  1  0  0  0  0
 12 13  1  6  0  0  0
 14 15  1  6  0  0  0
 14 19  1  0  0  0  0
 16 13  1  1  0  0  0
 16 21  1  0  0  0  0
 17 18  1  1  0  0  0
 17 23  1  0  0  0  0
 18  8  1  0  0  0  0
 19 20  1  1  0  0  0
 19 25  1  0  0  0  0
 20  5  1  0  0  0  0
 21  3  1  1  0  0  0
 21 22  1  0  0  0  0
 21 27  1  0  0  0  0
 23 24  1  6  0  0  0
 23 29  1  0  0  0  0
 25 26  1  6  0  0  0
 25 31  1  0  0  0  0
 27  7  1  1  0  0  0
 27 28  1  0  0  0  0
 29 30  1  6  0  0  0
 29 33  1  0  0  0  0
 31 32  1  1  0  0  0
 31 35  1  0  0  0  0
 33 34  1  0  0  0  0
 33 37  1  6  0  0  0
 35 36  1  6  0  0  0
 37 38  1  0  0  0  0
M  END
>  <CHROM.1>
69.52863840,117.47982667,-175.49535602,-174.85279402,163.64526677,-96.74002808
109.67020489,95.82837369,66.73530080,-76.46534197,76.14984210,18.93585503
27.33566014,0.26271964,2.18379969,-1.42512301,0.37794826

>  <Name>
1nta_lig

>  <RI>
9.25352e+06

>  <Rbt.Current_Directory>
/home/itssahil/PROJECTS/Mol_Feturizer/New_Systems/rnas/1nta

>  <Rbt.Executable>
rbdock ($Id: //depot/dev/client3/rdock/2013.1/src/exe/rbdock.cxx#4 $)

>  <Rbt.Library>
libRbt.so (2013.1, Build901 2013/11/27)

>  <Rbt.Parameter_File>
/export/apps/rDock/src/rDock_2013.1_src/data/scripts/dock_solv.prm

>  <Rbt.Receptor>
prm/blind_docking_40.prm

>  <SCORE>
-31.8386

>  <SCORE.INTER>
-15.0011

>  <SCORE.INTER.CONST>
1

>  <SCORE.INTER.POLAR>
-1.06922

>  <SCORE.INTER.ROT>
11

>  <SCORE.INTER.SOLV>
14.2665

>  <SCORE.INTER.VDW>
-22.1255

>  <SCORE.INTER.norm>
-0.375029

>  <SCORE.INTRA>
-17.7175

>  <SCORE.INTRA.DIHEDRAL>
-12.1067

>  <SCORE.INTRA.DIHEDRAL.0>
19.0336

>  <SCORE.INTRA.POLAR>
0

>  <SCORE.INTRA.POLAR.0>
0

>  <SCORE.INTRA.REPUL>
0

>  <SCORE.INTRA.REPUL.0>
0

>  <SCORE.INTRA.SOLV>
3.80114

>  <SCORE.INTRA.SOLV.lig_0>
-97.5861

>  <SCORE.INTRA.VDW>
-13.5647

>  <SCORE.INTRA.VDW.0>
11.7669

>  <SCORE.INTRA.norm>
-0.442937

>  <SCORE.RESTR>
0.880053

>  <SCORE.RESTR.CAVITY>
0.880053

>  <SCORE.RESTR.norm>
0.0220013

>  <SCORE.SYSTEM>
0

>  <SCORE.SYSTEM.CONST>
0

>  <SCORE.SYSTEM.DIHEDRAL>
0

>  <SCORE.SYSTEM.SOLV>
0

>  <SCORE.SYSTEM.norm>
0

>  <SCORE.heavy>
40

>  <SCORE.norm>
-0.795964

>  <RMSD>
20.173

$$$$
1nta_lig
 OpenBabel11021811403D
libRbt.so/2013.1/901 2013/11/27
 40 42  0  0  0  0  0  0  0  0999 V2000
   18.9900   21.5999   -3.8097 C   0  0  0  0  0  0  0  0  0  0  0  0
   18.0636   22.4826   -3.7572 N   0  0  0  0  0  0  0  0  0  0  0  0
   18.5029   27.1993    2.6835 C   0  0  0  0  0  0  0  0  0  0  0  0
   17.3333   27.3527    2.4081 O   0  0  0  0  0  0  0  0  0  0  0  0
   18.4094   22.5458    1.0005 C   0  0  0  0  0  0  0  0  0  0  0  0
   18.9503   21.7339    1.8711 N   0  0  0  0  0  0  0  0  0  0  0  0
   21.5007   28.2321    3.6874 C   0  0  0  0  0  0  0  0  0  0  0  0
   17.8331   31.8192   -0.1181 C   0  0  0  0  0  0  0  0  0  0  0  0
   20.7114   22.7337   -2.6470 C   0  0  2  0  0  0  0  0  0  0  0  0
   20.2226   22.0723   -3.9208 N   0  0  0  0  0  0  0  0  0  0  0  0
   21.0331   26.9777    0.3560 C   0  0  2  0  0  0  0  0  0  0  0  0
   17.9888   28.7840   -0.3332 C   0  0  1  0  0  0  0  0  0  0  0  0
   19.3196   28.4028   -0.3667 O   0  0  0  0  0  0  0  0  0  0  0  0
   19.5533   22.8615   -1.6392 C   0  0  1  0  0  0  0  0  0  0  0  0
   19.1479   21.5666   -1.3124 O   0  0  0  0  0  0  0  0  0  0  0  0
   19.6157   27.5030    0.5563 C   0  0  2  0  0  0  0  0  0  0  0  0
   17.5977   29.8586   -1.3236 C   0  0  1  0  0  0  0  0  0  0  0  0
   18.4480   30.9827   -1.1350 N   0  0  0  0  0  0  0  0  0  0  0  0
   19.9859   23.5472   -0.3364 C   0  0  2  0  0  0  0  0  0  0  0  0
   18.8939   23.6914    0.6560 N   0  0  0  0  0  0  0  0  0  0  0  0
   19.6494   27.8702    1.9757 C   0  0  1  0  0  0  0  0  0  0  0  0
   19.5658   29.2950    2.0466 O   0  0  0  0  0  0  0  0  0  0  0  0
   17.7304   29.4072   -2.6292 C   0  0  2  0  0  0  0  0  0  0  0  0
   17.0801   30.3296   -3.4667 O   0  0  0  0  0  0  0  0  0  0  0  0
   20.5269   24.9245   -0.6859 C   0  0  1  0  0  0  0  0  0  0  0  0
   20.9286   25.5525    0.5216 O   0  0  0  0  0  0  0  0  0  0  0  0
   20.9390   27.4520    2.5394 C   0  0  1  0  0  0  0  0  0  0  0  0
   21.8204   27.4542    1.4231 O   0  0  0  0  0  0  0  0  0  0  0  0
   17.0918   28.0518   -2.7828 C   0  0  1  0  0  0  0  0  0  0  0  0
   17.4464   27.5212   -4.0259 O   0  0  0  0  0  0  0  0  0  0  0  0
   21.7254   24.7973   -1.6689 C   0  0  2  0  0  0  0  0  0  0  0  0
   22.2251   26.0977   -1.9763 O   0  0  0  0  0  0  0  0  0  0  0  0
   17.5953   27.1343   -1.7212 C   0  0  1  0  0  0  0  0  0  0  0  0
   17.2320   27.6724   -0.4827 O   0  0  0  0  0  0  0  0  0  0  0  0
   21.2473   24.1130   -2.9667 C   0  0  1  0  0  0  0  0  0  0  0  0
   22.3416   23.9869   -3.8895 O   0  0  0  0  0  0  0  0  0  0  0  0
   16.9484   25.7395   -1.8327 C   0  0  0  0  0  0  0  0  0  0  0  0
   17.1261   25.0418   -0.6053 O   0  0  0  0  0  0  0  0  0  0  0  0
   18.7440   20.3352   -3.7630 N   0  0  0  0  0  0  0  0  0  0  0  0
   17.3327   22.2099    0.4054 N   0  0  0  0  0  0  0  0  0  0  0  0
  1  2  1  0  0  0  0
  1 39  1  0  0  0  0
  3  4  1  0  0  0  0
  5  6  1  0  0  0  0
  5 40  1  0  0  0  0
  9 10  1  6  0  0  0
  9 14  1  0  0  0  0
  9 35  1  0  0  0  0
 10  1  1  0  0  0  0
 11 16  1  0  0  0  0
 11 28  1  0  0  0  0
 11 26  1  1  0  0  0
 12 17  1  0  0  0  0
 12 34  1  0  0  0  0
 12 13  1  6  0  0  0
 14 15  1  1  0  0  0
 14 19  1  0  0  0  0
 16 13  1  6  0  0  0
 16 21  1  0  0  0  0
 17 18  1  6  0  0  0
 17 23  1  0  0  0  0
 18  8  1  0  0  0  0
 19 20  1  1  0  0  0
 19 25  1  0  0  0  0
 20  5  1  0  0  0  0
 21  3  1  1  0  0  0
 21 22  1  0  0  0  0
 21 27  1  0  0  0  0
 23 24  1  6  0  0  0
 23 29  1  0  0  0  0
 25 26  1  1  0  0  0
 25 31  1  0  0  0  0
 27  7  1  1  0  0  0
 27 28  1  0  0  0  0
 29 30  1  6  0  0  0
 29 33  1  0  0  0  0
 31 32  1  6  0  0  0
 31 35  1  0  0  0  0
 33 34  1  0  0  0  0
 33 37  1  6  0  0  0
 35 36  1  6  0  0  0
 37 38  1  0  0  0  0
M  END
>  <CHROM.1>
-8.58726323,71.24308173,84.11759950,177.34362632,172.23407732,-87.83836178
60.02033170,80.09176685,-59.19993899,-160.96255201,-162.41648801,19.18310815
25.96791232,-0.76853065,1.26618901,1.14934466,-2.53539136

>  <Name>
1nta_lig

>  <RI>
0

>  <Rbt.Current_Directory>
/home/itssahil/PROJECTS/Mol_Feturizer/New_Systems/rnas/1nta

>  <Rbt.Executable>
rbdock ($Id: //depot/dev/client3/rdock/2013.1/src/exe/rbdock.cxx#4 $)

>  <Rbt.Library>
libRbt.so (2013.1, Build901 2013/11/27)

>  <Rbt.Parameter_File>
/export/apps/rDock/src/rDock_2013.1_src/data/scripts/dock_solv.prm

>  <Rbt.Receptor>
prm/blind_docking_60.prm

>  <SCORE>
-27.0327

>  <SCORE.INTER>
-18.9246

>  <SCORE.INTER.CONST>
1

>  <SCORE.INTER.POLAR>
-2.07524

>  <SCORE.INTER.ROT>
11

>  <SCORE.INTER.SOLV>
17.2959

>  <SCORE.INTER.VDW>
-22.3976

>  <SCORE.INTER.norm>
-0.473116

>  <SCORE.INTRA>
-11.8538

>  <SCORE.INTRA.DIHEDRAL>
-10.201

>  <SCORE.INTRA.DIHEDRAL.0>
19.0336

>  <SCORE.INTRA.POLAR>
0

>  <SCORE.INTRA.POLAR.0>
0

>  <SCORE.INTRA.REPUL>
0

>  <SCORE.INTRA.REPUL.0>
0

>  <SCORE.INTRA.SOLV>
1.98265

>  <SCORE.INTRA.SOLV.lig_0>
-97.5861

>  <SCORE.INTRA.VDW>
-7.74465

>  <SCORE.INTRA.VDW.0>
11.7669

>  <SCORE.INTRA.norm>
-0.296346

>  <SCORE.RESTR>
3.74571

>  <SCORE.RESTR.CAVITY>
3.74571

>  <SCORE.RESTR.norm>
0.0936429

>  <SCORE.SYSTEM>
0

>  <SCORE.SYSTEM.CONST>
0

>  <SCORE.SYSTEM.DIHEDRAL>
0

>  <SCORE.SYSTEM.SOLV>
0

>  <SCORE.SYSTEM.norm>
0

>  <SCORE.heavy>
40

>  <SCORE.norm>
-0.675819

>  <RMSD>
20.173

$$$$
1nta_lig
 OpenBabel11021811403D
libRbt.so/2013.1/901 2013/11/27
 40 42  0  0  0  0  0  0  0  0999 V2000
   17.2011   18.9787    0.9318 C   0  0  0  0  0  0  0  0  0  0  0  0
   15.9972   19.0240    0.4972 N   0  0  0  0  0  0  0  0  0  0  0  0
   17.9568   27.8478   -2.8154 C   0  0  0  0  0  0  0  0  0  0  0  0
   18.9241   27.4140   -3.4015 O   0  0  0  0  0  0  0  0  0  0  0  0
   20.5733   22.7358   -3.1366 C   0  0  0  0  0  0  0  0  0  0  0  0
   21.5277   23.5097   -2.6895 N   0  0  0  0  0  0  0  0  0  0  0  0
   15.2964   25.9182   -2.3050 C   0  0  0  0  0  0  0  0  0  0  0  0
   21.2844   30.0180   -0.0536 C   0  0  0  0  0  0  0  0  0  0  0  0
   17.9947   20.8830   -0.2276 C   0  0  2  0  0  0  0  0  0  0  0  0
   18.1288   19.4061    0.0884 N   0  0  0  0  0  0  0  0  0  0  0  0
   18.2243   25.5537   -0.2593 C   0  0  2  0  0  0  0  0  0  0  0  0
   19.6801   27.7593    1.1301 C   0  0  1  0  0  0  0  0  0  0  0  0
   18.4327   27.7502    0.5288 O   0  0  0  0  0  0  0  0  0  0  0  0
   18.7163   21.2088   -1.5490 C   0  0  1  0  0  0  0  0  0  0  0  0
   18.0634   20.5011   -2.5594 O   0  0  0  0  0  0  0  0  0  0  0  0
   18.4074   27.0327   -0.5820 C   0  0  2  0  0  0  0  0  0  0  0  0
   20.1100   29.0888    1.7100 C   0  0  1  0  0  0  0  0  0  0  0  0
   20.0364   30.0758    0.6890 N   0  0  0  0  0  0  0  0  0  0  0  0
   18.6332   22.6985   -1.9079 C   0  0  2  0  0  0  0  0  0  0  0  0
   19.3219   23.0493   -3.1730 N   0  0  0  0  0  0  0  0  0  0  0  0
   17.3523   27.2358   -1.5802 C   0  0  1  0  0  0  0  0  0  0  0  0
   16.3660   28.0830   -0.9874 O   0  0  0  0  0  0  0  0  0  0  0  0
   19.2858   29.4655    2.7611 C   0  0  2  0  0  0  0  0  0  0  0  0
   19.9092   30.5333    3.4292 O   0  0  0  0  0  0  0  0  0  0  0  0
   19.2501   23.4929   -0.7676 C   0  0  1  0  0  0  0  0  0  0  0  0
   19.1675   24.8693   -1.1029 O   0  0  0  0  0  0  0  0  0  0  0  0
   16.7318   25.9392   -1.8794 C   0  0  1  0  0  0  0  0  0  0  0  0
   16.9392   25.1765   -0.6969 O   0  0  0  0  0  0  0  0  0  0  0  0
   19.0965   28.3167    3.7166 C   0  0  1  0  0  0  0  0  0  0  0  0
   18.0835   28.6420    4.6224 O   0  0  0  0  0  0  0  0  0  0  0  0
   18.4956   23.2005    0.5605 C   0  0  2  0  0  0  0  0  0  0  0  0
   19.0817   23.9620    1.6150 O   0  0  0  0  0  0  0  0  0  0  0  0
   18.6789   27.0992    2.9644 C   0  0  1  0  0  0  0  0  0  0  0  0
   19.7005   26.7808    2.0643 O   0  0  0  0  0  0  0  0  0  0  0  0
   18.6110   21.6974    0.8899 C   0  0  1  0  0  0  0  0  0  0  0  0
   17.9201   21.4068    2.1159 O   0  0  0  0  0  0  0  0  0  0  0  0
   18.4940   25.8938    3.9073 C   0  0  0  0  0  0  0  0  0  0  0  0
   17.2575   26.0261    4.5991 O   0  0  0  0  0  0  0  0  0  0  0  0
   17.4957   18.5423    2.1087 N   0  0  0  0  0  0  0  0  0  0  0  0
   20.8588   21.5836   -3.6029 N   0  0  0  0  0  0  0  0  0  0  0  0
  1  2  1  0  0  0  0
  1 39  1  0  0  0  0
  3  4  1  0  0  0  0
  5  6  1  0  0  0  0
  5 40  1  0  0  0  0
  9 10  1  1  0  0  0
  9 14  1  0  0  0  0
  9 35  1  0  0  0  0
 10  1  1  0  0  0  0
 11 16  1  0  0  0  0
 11 28  1  0  0  0  0
 11 26  1  6  0  0  0
 12 17  1  0  0  0  0
 12 34  1  0  0  0  0
 12 13  1  1  0  0  0
 14 15  1  6  0  0  0
 14 19  1  0  0  0  0
 16 13  1  1  0  0  0
 16 21  1  0  0  0  0
 17 18  1  6  0  0  0
 17 23  1  0  0  0  0
 18  8  1  0  0  0  0
 19 20  1  6  0  0  0
 19 25  1  0  0  0  0
 20  5  1  0  0  0  0
 21  3  1  6  0  0  0
 21 22  1  0  0  0  0
 21 27  1  0  0  0  0
 23 24  1  1  0  0  0
 23 29  1  0  0  0  0
 25 26  1  6  0  0  0
 25 31  1  0  0  0  0
 27  7  1  1  0  0  0
 27 28  1  0  0  0  0
 29 30  1  1  0  0  0
 29 33  1  0  0  0  0
 31 32  1  1  0  0  0
 31 35  1  0  0  0  0
 33 34  1  0  0  0  0
 33 37  1  1  0  0  0
 35 36  1  1  0  0  0
 37 38  1  0  0  0  0
M  END
>  <CHROM.1>
-159.19534499,64.82814695,171.28718455,140.03218931,82.51142533,-84.85633023
-58.52041902,-88.17387829,51.63458522,110.56412784,77.03594019,18.57024639
25.01110130,0.16887993,2.14419396,-1.38643966,-2.27848275

>  <Name>
1nta_lig

>  <RI>
9.25352e+06

>  <Rbt.Current_Directory>
/home/itssahil/PROJECTS/Mol_Feturizer/New_Systems/rnas/1nta

>  <Rbt.Executable>
rbdock ($Id: //depot/dev/client3/rdock/2013.1/src/exe/rbdock.cxx#4 $)

>  <Rbt.Library>
libRbt.so (2013.1, Build901 2013/11/27)

>  <Rbt.Parameter_File>
/export/apps/rDock/src/rDock_2013.1_src/data/scripts/dock_solv.prm

>  <Rbt.Receptor>
prm/blind_docking_40.prm

>  <SCORE>
-18.0205

>  <SCORE.INTER>
-9.7916

>  <SCORE.INTER.CONST>
1

>  <SCORE.INTER.POLAR>
0

>  <SCORE.INTER.ROT>
11

>  <SCORE.INTER.SOLV>
10.7312

>  <SCORE.INTER.VDW>
-21.0381

>  <SCORE.INTER.norm>
-0.24479

>  <SCORE.INTRA>
-8.58427

>  <SCORE.INTRA.DIHEDRAL>
-0.778238

>  <SCORE.INTRA.DIHEDRAL.0>
19.0336

>  <SCORE.INTRA.POLAR>
0

>  <SCORE.INTRA.POLAR.0>
0

>  <SCORE.INTRA.REPUL>
0.140561

>  <SCORE.INTRA.REPUL.0>
0

>  <SCORE.INTRA.SOLV>
-2.06256

>  <SCORE.INTRA.SOLV.lig_0>
-97.5861

>  <SCORE.INTRA.VDW>
-7.86667

>  <SCORE.INTRA.VDW.0>
11.7669

>  <SCORE.INTRA.norm>
-0.214607

>  <SCORE.RESTR>
0.355346

>  <SCORE.RESTR.CAVITY>
0.355346

>  <SCORE.RESTR.norm>
0.00888366

>  <SCORE.SYSTEM>
0

>  <SCORE.SYSTEM.CONST>
0

>  <SCORE.SYSTEM.DIHEDRAL>
0

>  <SCORE.SYSTEM.SOLV>
0

>  <SCORE.SYSTEM.norm>
0

>  <SCORE.heavy>
40

>  <SCORE.norm>
-0.450513

>  <RMSD>
20.183

$$$$
1nta_lig
 OpenBabel11021811403D
libRbt.so/2013.1/901 2013/11/27
 40 42  0  0  0  0  0  0  0  0999 V2000
   18.6337   33.2501   -2.9897 C   0  0  0  0  0  0  0  0  0  0  0  0
   18.3354   33.0943   -4.2253 N   0  0  0  0  0  0  0  0  0  0  0  0
   20.5866   25.8561    3.5624 C   0  0  0  0  0  0  0  0  0  0  0  0
   21.4063   26.7222    3.3497 O   0  0  0  0  0  0  0  0  0  0  0  0
   16.4729   27.7475   -1.0608 C   0  0  0  0  0  0  0  0  0  0  0  0
   15.9844   28.6657   -0.2684 N   0  0  0  0  0  0  0  0  0  0  0  0
   17.8204   27.2534    4.7696 C   0  0  0  0  0  0  0  0  0  0  0  0
   17.9258   20.6196    1.8148 C   0  0  0  0  0  0  0  0  0  0  0  0
   18.6067   31.3913   -1.5252 C   0  0  2  0  0  0  0  0  0  0  0  0
   17.8818   32.5769   -2.1318 N   0  0  0  0  0  0  0  0  0  0  0  0
   18.3064   26.9540    1.2249 C   0  0  2  0  0  0  0  0  0  0  0  0
   19.5370   23.5761    1.1440 C   0  0  1  0  0  0  0  0  0  0  0  0
   18.6574   24.6429    1.0672 O   0  0  0  0  0  0  0  0  0  0  0  0
   17.7993   30.1007   -1.7606 C   0  0  1  0  0  0  0  0  0  0  0  0
   17.7412   29.8978   -3.1402 O   0  0  0  0  0  0  0  0  0  0  0  0
   19.1368   25.7404    1.6284 C   0  0  2  0  0  0  0  0  0  0  0  0
   19.0126   22.2640    0.6035 C   0  0  1  0  0  0  0  0  0  0  0  0
   17.7902   21.9567    1.2618 N   0  0  0  0  0  0  0  0  0  0  0  0
   18.4760   28.8683   -1.1458 C   0  0  2  0  0  0  0  0  0  0  0  0
   17.7231   27.6074   -1.3493 N   0  0  0  0  0  0  0  0  0  0  0  0
   19.1585   25.8866    3.0875 C   0  0  1  0  0  0  0  0  0  0  0  0
   18.3873   24.8139    3.6321 O   0  0  0  0  0  0  0  0  0  0  0  0
   18.7813   22.3429   -0.7626 C   0  0  2  0  0  0  0  0  0  0  0  0
   18.5878   21.0346   -1.2378 O   0  0  0  0  0  0  0  0  0  0  0  0
   18.6401   29.1156    0.3455 C   0  0  1  0  0  0  0  0  0  0  0  0
   19.2692   27.9749    0.9082 O   0  0  0  0  0  0  0  0  0  0  0  0
   18.5078   27.1538    3.4431 C   0  0  1  0  0  0  0  0  0  0  0  0
   17.6088   27.3937    2.3675 O   0  0  0  0  0  0  0  0  0  0  0  0
   19.9647   22.9610   -1.4598 C   0  0  1  0  0  0  0  0  0  0  0  0
   19.6139   23.2476   -2.7816 O   0  0  0  0  0  0  0  0  0  0  0  0
   19.4927   30.3936    0.5873 C   0  0  2  0  0  0  0  0  0  0  0  0
   19.6440   30.6028    1.9904 O   0  0  0  0  0  0  0  0  0  0  0  0
   20.3359   24.2381   -0.7864 C   0  0  1  0  0  0  0  0  0  0  0  0
   20.6884   23.9394    0.5334 O   0  0  0  0  0  0  0  0  0  0  0  0
   18.7746   31.6087   -0.0364 C   0  0  1  0  0  0  0  0  0  0  0  0
   19.5472   32.8013    0.1775 O   0  0  0  0  0  0  0  0  0  0  0  0
   21.5583   24.8924   -1.4601 C   0  0  0  0  0  0  0  0  0  0  0  0
   21.1966   25.3254   -2.7665 O   0  0  0  0  0  0  0  0  0  0  0  0
   19.5972   34.0139   -2.6016 N   0  0  0  0  0  0  0  0  0  0  0  0
   15.6930   26.8900   -1.5927 N   0  0  0  0  0  0  0  0  0  0  0  0
  1  2  1  0  0  0  0
  1 39  1  0  0  0  0
  3  4  1  0  0  0  0
  5  6  1  0  0  0  0
  5 40  1  0  0  0  0
  9 10  1  1  0  0  0
  9 14  1  0  0  0  0
  9 35  1  0  0  0  0
 10  1  1  0  0  0  0
 11 16  1  0  0  0  0
 11 28  1  0  0  0  0
 11 26  1  1  0  0  0
 12 17  1  0  0  0  0
 12 34  1  0  0  0  0
 12 13  1  6  0  0  0
 14 15  1  6  0  0  0
 14 19  1  0  0  0  0
 16 13  1  1  0  0  0
 16 21  1  0  0  0  0
 17 18  1  1  0  0  0
 17 23  1  0  0  0  0
 18  8  1  0  0  0  0
 19 20  1  1  0  0  0
 19 25  1  0  0  0  0
 20  5  1  0  0  0  0
 21  3  1  1  0  0  0
 21 22  1  0  0  0  0
 21 27  1  0  0  0  0
 23 24  1  6  0  0  0
 23 29  1  0  0  0  0
 25 26  1  1  0  0  0
 25 31  1  0  0  0  0
 27  7  1  1  0  0  0
 27 28  1  0  0  0  0
 29 30  1  6  0  0  0
 29 33  1  0  0  0  0
 31 32  1  1  0  0  0
 31 35  1  0  0  0  0
 33 34  1  0  0  0  0
 33 37  1  6  0  0  0
 35 36  1  6  0  0  0
 37 38  1  0  0  0  0
M  END
>  <CHROM.1>
-124.59637602,106.48414001,172.33552681,176.04571830,166.01794139,-126.24982311
-47.55507848,-22.72282612,68.84471124,-84.68740818,67.48376861,18.84147997
27.09658869,0.07947710,2.93992312,-1.50456745,1.10987053

>  <Name>
1nta_lig

>  <RI>
2.40834e+07

>  <Rbt.Current_Directory>
/home/itssahil/PROJECTS/Mol_Feturizer/New_Systems/rnas/1nta

>  <Rbt.Executable>
rbdock ($Id: //depot/dev/client3/rdock/2013.1/src/exe/rbdock.cxx#4 $)

>  <Rbt.Library>
libRbt.so (2013.1, Build901 2013/11/27)

>  <Rbt.Parameter_File>
/export/apps/rDock/src/rDock_2013.1_src/data/scripts/dock_solv.prm

>  <Rbt.Receptor>
prm/blind_docking_80.prm

>  <SCORE>
-31.9963

>  <SCORE.INTER>
-14.5013

>  <SCORE.INTER.CONST>
1

>  <SCORE.INTER.POLAR>
-1.09143

>  <SCORE.INTER.ROT>
11

>  <SCORE.INTER.SOLV>
23.9514

>  <SCORE.INTER.VDW>
-24.9465

>  <SCORE.INTER.norm>
-0.362532

>  <SCORE.INTRA>
-18.6337

>  <SCORE.INTRA.DIHEDRAL>
-11.0159

>  <SCORE.INTRA.DIHEDRAL.0>
19.0336

>  <SCORE.INTRA.POLAR>
0

>  <SCORE.INTRA.POLAR.0>
0

>  <SCORE.INTRA.REPUL>
0

>  <SCORE.INTRA.REPUL.0>
0

>  <SCORE.INTRA.SOLV>
-0.527216

>  <SCORE.INTRA.SOLV.lig_0>
-97.5861

>  <SCORE.INTRA.VDW>
-12.8622

>  <SCORE.INTRA.VDW.0>
11.7669

>  <SCORE.INTRA.norm>
-0.465843

>  <SCORE.RESTR>
1.13869

>  <SCORE.RESTR.CAVITY>
1.13869

>  <SCORE.RESTR.norm>
0.0284672

>  <SCORE.SYSTEM>
0

>  <SCORE.SYSTEM.CONST>
0

>  <SCORE.SYSTEM.DIHEDRAL>
0

>  <SCORE.SYSTEM.SOLV>
0

>  <SCORE.SYSTEM.norm>
0

>  <SCORE.heavy>
40

>  <SCORE.norm>
-0.799908

>  <RMSD>
20.189

$$$$
1nta_lig
 OpenBabel11021811403D
libRbt.so/2013.1/901 2013/11/27
 40 42  0  0  0  0  0  0  0  0999 V2000
   18.6793   35.5241   -0.2882 C   0  0  0  0  0  0  0  0  0  0  0  0
   17.4937   35.9264   -0.5576 N   0  0  0  0  0  0  0  0  0  0  0  0
   16.7613   26.0554   -1.0143 C   0  0  0  0  0  0  0  0  0  0  0  0
   15.7017   25.7422   -1.5107 O   0  0  0  0  0  0  0  0  0  0  0  0
   20.6099   29.5682    1.8571 C   0  0  0  0  0  0  0  0  0  0  0  0
   20.4887   30.0048    3.0837 N   0  0  0  0  0  0  0  0  0  0  0  0
   17.3033   27.3727   -4.0197 C   0  0  0  0  0  0  0  0  0  0  0  0
   22.9885   27.8559    0.1213 C   0  0  0  0  0  0  0  0  0  0  0  0
   18.8025   33.1917   -0.6694 C   0  0  2  0  0  0  0  0  0  0  0  0
   19.1665   34.5988   -1.1013 N   0  0  0  0  0  0  0  0  0  0  0  0
   19.5907   27.9965   -1.3235 C   0  0  2  0  0  0  0  0  0  0  0  0
   21.1963   26.1487   -1.5267 C   0  0  1  0  0  0  0  0  0  0  0  0
   20.1186   25.7913   -0.7340 O   0  0  0  0  0  0  0  0  0  0  0  0
   20.0470   32.4678   -0.1217 C   0  0  1  0  0  0  0  0  0  0  0  0
   20.4603   33.1636    1.0154 O   0  0  0  0  0  0  0  0  0  0  0  0
   19.1048   26.6337   -0.8420 C   0  0  2  0  0  0  0  0  0  0  0  0
   22.5586   25.8467   -0.9422 C   0  0  1  0  0  0  0  0  0  0  0  0
   22.6506   26.4592    0.3379 N   0  0  0  0  0  0  0  0  0  0  0  0
   19.7419   31.0272    0.3101 C   0  0  2  0  0  0  0  0  0  0  0  0
   20.9196   30.2980    0.8387 N   0  0  0  0  0  0  0  0  0  0  0  0
   18.0134   26.3740   -1.7867 C   0  0  1  0  0  0  0  0  0  0  0  0
   18.4234   25.2872   -2.6190 O   0  0  0  0  0  0  0  0  0  0  0  0
   22.7507   24.4794   -0.8024 C   0  0  2  0  0  0  0  0  0  0  0  0
   24.1153   24.2654   -0.5434 O   0  0  0  0  0  0  0  0  0  0  0  0
   19.1930   30.2803   -0.8952 C   0  0  1  0  0  0  0  0  0  0  0  0
   18.9093   28.9504   -0.4896 O   0  0  0  0  0  0  0  0  0  0  0  0
   17.8290   27.5613   -2.6305 C   0  0  1  0  0  0  0  0  0  0  0  0
   19.1076   28.1841   -2.6339 O   0  0  0  0  0  0  0  0  0  0  0  0
   22.3610   23.7631   -2.0687 C   0  0  1  0  0  0  0  0  0  0  0  0
   22.3340   22.3879   -1.8224 O   0  0  0  0  0  0  0  0  0  0  0  0
   17.9103   30.9831   -1.4240 C   0  0  2  0  0  0  0  0  0  0  0  0
   17.4050   30.2626   -2.5469 O   0  0  0  0  0  0  0  0  0  0  0  0
   20.9963   24.1903   -2.4899 C   0  0  1  0  0  0  0  0  0  0  0  0
   21.0358   25.5661   -2.7372 O   0  0  0  0  0  0  0  0  0  0  0  0
   18.2612   32.4225   -1.8557 C   0  0  1  0  0  0  0  0  0  0  0  0
   17.0877   33.0892   -2.3490 O   0  0  0  0  0  0  0  0  0  0  0  0
   20.5688   23.4926   -3.7963 C   0  0  0  0  0  0  0  0  0  0  0  0
   20.2772   22.1267   -3.5235 O   0  0  0  0  0  0  0  0  0  0  0  0
   19.3553   35.9823    0.7094 N   0  0  0  0  0  0  0  0  0  0  0  0
   20.4404   28.3293    1.6065 N   0  0  0  0  0  0  0  0  0  0  0  0
  1  2  1  0  0  0  0
  1 39  1  0  0  0  0
  3  4  1  0  0  0  0
  5  6  1  0  0  0  0
  5 40  1  0  0  0  0
  9 10  1  6  0  0  0
  9 14  1  0  0  0  0
  9 35  1  0  0  0  0
 10  1  1  0  0  0  0
 11 16  1  0  0  0  0
 11 28  1  0  0  0  0
 11 26  1  1  0  0  0
 12 17  1  0  0  0  0
 12 34  1  0  0  0  0
 12 13  1  1  0  0  0
 14 15  1  1  0  0  0
 14 19  1  0  0  0  0
 16 13  1  6  0  0  0
 16 21  1  0  0  0  0
 17 18  1  1  0  0  0
 17 23  1  0  0  0  0
 18  8  1  0  0  0  0
 19 20  1  6  0  0  0
 19 25  1  0  0  0  0
 20  5  1  0  0  0  0
 21  3  1  1  0  0  0
 21 22  1  0  0  0  0
 21 27  1  0  0  0  0
 23 24  1  6  0  0  0
 23 29  1  0  0  0  0
 25 26  1  1  0  0  0
 25 31  1  0  0  0  0
 27  7  1  6  0  0  0
 27 28  1  0  0  0  0
 29 30  1  1  0  0  0
 29 33  1  0  0  0  0
 31 32  1  6  0  0  0
 31 35  1  0  0  0  0
 33 34  1  0  0  0  0
 33 37  1  6  0  0  0
 35 36  1  1  0  0  0
 37 38  1  0  0  0  0
M  END
>  <CHROM.1>
-108.49347751,-87.47561912,-175.61241421,145.10503293,-23.13342977,-81.46381674
140.02392159,-81.31184340,-176.83946409,-124.56836095,72.72611318,19.76273231
28.42457284,-1.07503069,-1.84818737,0.55794766,-2.82009635

>  <Name>
1nta_lig

>  <RI>
0

>  <Rbt.Current_Directory>
/home/itssahil/PROJECTS/Mol_Feturizer/New_Systems/rnas/1nta

>  <Rbt.Executable>
rbdock ($Id: //depot/dev/client3/rdock/2013.1/src/exe/rbdock.cxx#4 $)

>  <Rbt.Library>
libRbt.so (2013.1, Build901 2013/11/27)

>  <Rbt.Parameter_File>
/export/apps/rDock/src/rDock_2013.1_src/data/scripts/dock_solv.prm

>  <Rbt.Receptor>
prm/blind_docking_60.prm

>  <SCORE>
-3.28512

>  <SCORE.INTER>
0.917747

>  <SCORE.INTER.CONST>
1

>  <SCORE.INTER.POLAR>
-0.350755

>  <SCORE.INTER.ROT>
11

>  <SCORE.INTER.SOLV>
13.7024

>  <SCORE.INTER.VDW>
-13.7198

>  <SCORE.INTER.norm>
0.0229437

>  <SCORE.INTRA>
-7.5418

>  <SCORE.INTRA.DIHEDRAL>
1.87024

>  <SCORE.INTRA.DIHEDRAL.0>
19.0336

>  <SCORE.INTRA.POLAR>
0

>  <SCORE.INTRA.POLAR.0>
0

>  <SCORE.INTRA.REPUL>
0

>  <SCORE.INTRA.REPUL.0>
0

>  <SCORE.INTRA.SOLV>
1.48725

>  <SCORE.INTRA.SOLV.lig_0>
-97.5861

>  <SCORE.INTRA.VDW>
-9.22054

>  <SCORE.INTRA.VDW.0>
11.7669

>  <SCORE.INTRA.norm>
-0.188545

>  <SCORE.RESTR>
3.33893

>  <SCORE.RESTR.CAVITY>
3.33893

>  <SCORE.RESTR.norm>
0.0834732

>  <SCORE.SYSTEM>
0

>  <SCORE.SYSTEM.CONST>
0

>  <SCORE.SYSTEM.DIHEDRAL>
0

>  <SCORE.SYSTEM.SOLV>
0

>  <SCORE.SYSTEM.norm>
0

>  <SCORE.heavy>
40

>  <SCORE.norm>
-0.082128

>  <RMSD>
20.235

$$$$
1nta_lig
 OpenBabel11021811403D
libRbt.so/2013.1/901 2013/11/27
 40 42  0  0  0  0  0  0  0  0999 V2000
   18.6105   34.2782   -2.5323 C   0  0  0  0  0  0  0  0  0  0  0  0
   18.5839   35.3375   -1.8131 N   0  0  0  0  0  0  0  0  0  0  0  0
   20.6482   26.2546    2.6973 C   0  0  0  0  0  0  0  0  0  0  0  0
   21.4799   27.0972    2.4411 O   0  0  0  0  0  0  0  0  0  0  0  0
   17.4536   27.6999   -2.9902 C   0  0  0  0  0  0  0  0  0  0  0  0
   17.7945   28.2742   -4.1143 N   0  0  0  0  0  0  0  0  0  0  0  0
   17.8957   27.7317    3.8391 C   0  0  0  0  0  0  0  0  0  0  0  0
   17.6896   21.3776    1.6151 C   0  0  0  0  0  0  0  0  0  0  0  0
   18.5011   32.0069   -1.8766 C   0  0  2  0  0  0  0  0  0  0  0  0
   17.7842   33.3131   -2.1577 N   0  0  0  0  0  0  0  0  0  0  0  0
   18.3825   27.2752    0.3113 C   0  0  2  0  0  0  0  0  0  0  0  0
   19.4864   23.8473    0.5438 C   0  0  1  0  0  0  0  0  0  0  0  0
   18.7090   24.9559    0.2535 O   0  0  0  0  0  0  0  0  0  0  0  0
   17.5258   30.8245   -2.0304 C   0  0  1  0  0  0  0  0  0  0  0  0
   17.1152   30.8009   -3.3641 O   0  0  0  0  0  0  0  0  0  0  0  0
   19.1994   26.0713    0.7678 C   0  0  2  0  0  0  0  0  0  0  0  0
   18.9425   22.5264    0.0457 C   0  0  1  0  0  0  0  0  0  0  0  0
   17.6220   22.3600    0.5463 N   0  0  0  0  0  0  0  0  0  0  0  0
   18.1931   29.4748   -1.7339 C   0  0  2  0  0  0  0  0  0  0  0  0
   17.2813   28.3134   -1.8678 N   0  0  0  0  0  0  0  0  0  0  0  0
   19.2211   26.2798    2.2193 C   0  0  1  0  0  0  0  0  0  0  0  0
   18.4379   25.2398    2.8083 O   0  0  0  0  0  0  0  0  0  0  0  0
   18.9062   22.4919   -1.3413 C   0  0  2  0  0  0  0  0  0  0  0  0
   18.6805   21.1598   -1.7282 O   0  0  0  0  0  0  0  0  0  0  0  0
   18.7376   29.5200   -0.3150 C   0  0  1  0  0  0  0  0  0  0  0  0
   19.3565   28.2713   -0.0475 O   0  0  0  0  0  0  0  0  0  0  0  0
   18.5836   27.5679    2.5192 C   0  0  1  0  0  0  0  0  0  0  0  0
   17.6883   27.7709    1.4328 O   0  0  0  0  0  0  0  0  0  0  0  0
   20.2171   22.9658   -1.9119 C   0  0  1  0  0  0  0  0  0  0  0  0
   20.0725   23.1494   -3.2895 O   0  0  0  0  0  0  0  0  0  0  0  0
   19.7567   30.6855   -0.1677 C   0  0  2  0  0  0  0  0  0  0  0  0
   20.2636   30.7050    1.1657 O   0  0  0  0  0  0  0  0  0  0  0  0
   20.5888   24.2741   -1.3016 C   0  0  1  0  0  0  0  0  0  0  0  0
   20.7345   24.0781    0.0753 O   0  0  0  0  0  0  0  0  0  0  0  0
   19.0455   32.0225   -0.4640 C   0  0  1  0  0  0  0  0  0  0  0  0
   19.9714   33.1134   -0.3320 O   0  0  0  0  0  0  0  0  0  0  0  0
   21.9378   24.7837   -1.8465 C   0  0  0  0  0  0  0  0  0  0  0  0
   22.9676   23.8771   -1.4688 O   0  0  0  0  0  0  0  0  0  0  0  0
   19.3912   34.1529   -3.5507 N   0  0  0  0  0  0  0  0  0  0  0  0
   17.2427   26.4425   -2.9601 N   0  0  0  0  0  0  0  0  0  0  0  0
  1  2  1  0  0  0  0
  1 39  1  0  0  0  0
  3  4  1  0  0  0  0
  5  6  1  0  0  0  0
  5 40  1  0  0  0  0
  9 10  1  1  0  0  0
  9 14  1  0  0  0  0
  9 35  1  0  0  0  0
 10  1  1  0  0  0  0
 11 16  1  0  0  0  0
 11 28  1  0  0  0  0
 11 26  1  1  0  0  0
 12 17  1  0  0  0  0
 12 34  1  0  0  0  0
 12 13  1  6  0  0  0
 14 15  1  6  0  0  0
 14 19  1  0  0  0  0
 16 13  1  1  0  0  0
 16 21  1  0  0  0  0
 17 18  1  1  0  0  0
 17 23  1  0  0  0  0
 18  8  1  0  0  0  0
 19 20  1  1  0  0  0
 19 25  1  0  0  0  0
 20  5  1  0  0  0  0
 21  3  1  1  0  0  0
 21 22  1  0  0  0  0
 21 27  1  0  0  0  0
 23 24  1  1  0  0  0
 23 29  1  0  0  0  0
 25 26  1  6  0  0  0
 25 31  1  0  0  0  0
 27  7  1  1  0  0  0
 27 28  1  0  0  0  0
 29 30  1  6  0  0  0
 29 33  1  0  0  0  0
 31 32  1  1  0  0  0
 31 35  1  0  0  0  0
 33 34  1  0  0  0  0
 33 37  1  6  0  0  0
 35 36  1  6  0  0  0
 37 38  1  0  0  0  0
M  END
>  <CHROM.1>
-156.31252095,-122.89834750,-171.71830624,176.93641295,174.68068553,-105.17614497
100.78713105,-33.03228833,68.29259225,-80.87581680,-63.71898113,19.04171803
27.41295731,-0.52359119,2.31931425,-1.44227858,0.57691345

>  <Name>
1nta_lig

>  <RI>
0

>  <Rbt.Current_Directory>
/home/itssahil/PROJECTS/Mol_Feturizer/New_Systems/rnas/1nta

>  <Rbt.Executable>
rbdock ($Id: //depot/dev/client3/rdock/2013.1/src/exe/rbdock.cxx#4 $)

>  <Rbt.Library>
libRbt.so (2013.1, Build901 2013/11/27)

>  <Rbt.Parameter_File>
/export/apps/rDock/src/rDock_2013.1_src/data/scripts/dock_solv.prm

>  <Rbt.Receptor>
prm/blind_docking_60.prm

>  <SCORE>
-34.4001

>  <SCORE.INTER>
-14.5907

>  <SCORE.INTER.CONST>
1

>  <SCORE.INTER.POLAR>
-1.38743

>  <SCORE.INTER.ROT>
11

>  <SCORE.INTER.SOLV>
26.1697

>  <SCORE.INTER.VDW>
-24.7589

>  <SCORE.INTER.norm>
-0.364767

>  <SCORE.INTRA>
-22.1944

>  <SCORE.INTRA.DIHEDRAL>
-12.6921

>  <SCORE.INTRA.DIHEDRAL.0>
19.0336

>  <SCORE.INTRA.POLAR>
0

>  <SCORE.INTRA.POLAR.0>
0

>  <SCORE.INTRA.REPUL>
0

>  <SCORE.INTRA.REPUL.0>
0

>  <SCORE.INTRA.SOLV>
-2.77472

>  <SCORE.INTRA.SOLV.lig_0>
-97.5861

>  <SCORE.INTRA.VDW>
-14.461

>  <SCORE.INTRA.VDW.0>
11.7669

>  <SCORE.INTRA.norm>
-0.554859

>  <SCORE.RESTR>
2.38497

>  <SCORE.RESTR.CAVITY>
2.38497

>  <SCORE.RESTR.norm>
0.0596244

>  <SCORE.SYSTEM>
0

>  <SCORE.SYSTEM.CONST>
0

>  <SCORE.SYSTEM.DIHEDRAL>
0

>  <SCORE.SYSTEM.SOLV>
0

>  <SCORE.SYSTEM.norm>
0

>  <SCORE.heavy>
40

>  <SCORE.norm>
-0.860001

>  <RMSD>
20.242

$$$$
1nta_lig
 OpenBabel11021811403D
libRbt.so/2013.1/901 2013/11/27
 40 42  0  0  0  0  0  0  0  0999 V2000
   20.5626   21.9330   -4.9039 C   0  0  0  0  0  0  0  0  0  0  0  0
   19.6514   21.0592   -5.1190 N   0  0  0  0  0  0  0  0  0  0  0  0
   18.0837   26.7694    2.9280 C   0  0  0  0  0  0  0  0  0  0  0  0
   17.8516   26.6495    4.1108 O   0  0  0  0  0  0  0  0  0  0  0  0
   18.2208   23.0688    0.7086 C   0  0  0  0  0  0  0  0  0  0  0  0
   17.5297   22.0271    0.3251 N   0  0  0  0  0  0  0  0  0  0  0  0
   21.0284   27.8396    4.0437 C   0  0  0  0  0  0  0  0  0  0  0  0
   16.9176   27.2263   -2.9336 C   0  0  0  0  0  0  0  0  0  0  0  0
   20.5066   23.5576   -3.1840 C   0  0  2  0  0  0  0  0  0  0  0  0
   20.1289   23.1455   -4.5934 N   0  0  0  0  0  0  0  0  0  0  0  0
   20.5168   27.2565    0.5382 C   0  0  2  0  0  0  0  0  0  0  0  0
   19.0868   28.5902   -1.1434 C   0  0  1  0  0  0  0  0  0  0  0  0
   18.6613   28.6397    0.1734 O   0  0  0  0  0  0  0  0  0  0  0  0
   19.2482   23.6281   -2.2983 C   0  0  1  0  0  0  0  0  0  0  0  0
   18.7191   22.3383   -2.2323 O   0  0  0  0  0  0  0  0  0  0  0  0
   19.0713   27.6004    0.8811 C   0  0  2  0  0  0  0  0  0  0  0  0
   18.0827   29.0723   -2.1672 C   0  0  1  0  0  0  0  0  0  0  0  0
   16.8754   28.3398   -2.0006 N   0  0  0  0  0  0  0  0  0  0  0  0
   19.5685   24.0644   -0.8624 C   0  0  2  0  0  0  0  0  0  0  0  0
   18.3785   24.1477    0.0180 N   0  0  0  0  0  0  0  0  0  0  0  0
   19.1383   27.6711    2.3445 C   0  0  1  0  0  0  0  0  0  0  0  0
   18.9411   29.0379    2.7119 O   0  0  0  0  0  0  0  0  0  0  0  0
   17.8151   30.4246   -2.0065 C   0  0  2  0  0  0  0  0  0  0  0  0
   17.1231   30.8603   -3.1494 O   0  0  0  0  0  0  0  0  0  0  0  0
   20.2402   25.4271   -0.9227 C   0  0  1  0  0  0  0  0  0  0  0  0
   20.5373   25.8241    0.4069 O   0  0  0  0  0  0  0  0  0  0  0  0
   20.4819   27.2638    2.7742 C   0  0  1  0  0  0  0  0  0  0  0  0
   21.3092   27.5733    1.6594 O   0  0  0  0  0  0  0  0  0  0  0  0
   19.0989   31.2004   -1.8699 C   0  0  1  0  0  0  0  0  0  0  0  0
   18.8000   32.5061   -1.4720 O   0  0  0  0  0  0  0  0  0  0  0  0
   21.5357   25.3499   -1.7798 C   0  0  2  0  0  0  0  0  0  0  0  0
   22.1563   26.6339   -1.8158 O   0  0  0  0  0  0  0  0  0  0  0  0
   19.9560   30.5762   -0.8220 C   0  0  1  0  0  0  0  0  0  0  0  0
   20.2519   29.2724   -1.2319 O   0  0  0  0  0  0  0  0  0  0  0  0
   21.1699   24.9181   -3.2154 C   0  0  1  0  0  0  0  0  0  0  0  0
   22.3551   24.8417   -4.0243 O   0  0  0  0  0  0  0  0  0  0  0  0
   21.2907   31.3315   -0.6664 C   0  0  0  0  0  0  0  0  0  0  0  0
   21.0578   32.5567    0.0191 O   0  0  0  0  0  0  0  0  0  0  0  0
   21.8192   21.6570   -4.9878 N   0  0  0  0  0  0  0  0  0  0  0  0
   18.7794   23.0708    1.8550 N   0  0  0  0  0  0  0  0  0  0  0  0
  1  2  1  0  0  0  0
  1 39  1  0  0  0  0
  3  4  1  0  0  0  0
  5  6  1  0  0  0  0
  5 40  1  0  0  0  0
  9 10  1  6  0  0  0
  9 14  1  0  0  0  0
  9 35  1  0  0  0  0
 10  1  1  0  0  0  0
 11 16  1  0  0  0  0
 11 28  1  0  0  0  0
 11 26  1  1  0  0  0
 12 17  1  0  0  0  0
 12 34  1  0  0  0  0
 12 13  1  1  0  0  0
 14 15  1  1  0  0  0
 14 19  1  0  0  0  0
 16 13  1  6  0  0  0
 16 21  1  0  0  0  0
 17 18  1  1  0  0  0
 17 23  1  0  0  0  0
 18  8  1  0  0  0  0
 19 20  1  1  0  0  0
 19 25  1  0  0  0  0
 20  5  1  0  0  0  0
 21  3  1  1  0  0  0
 21 22  1  0  0  0  0
 21 27  1  0  0  0  0
 23 24  1  6  0  0  0
 23 29  1  0  0  0  0
 25 26  1  1  0  0  0
 25 31  1  0  0  0  0
 27  7  1  1  0  0  0
 27 28  1  0  0  0  0
 29 30  1  1  0  0  0
 29 33  1  0  0  0  0
 31 32  1  6  0  0  0
 31 35  1  0  0  0  0
 33 34  1  0  0  0  0
 33 37  1  6  0  0  0
 35 36  1  6  0  0  0
 37 38  1  0  0  0  0
M  END
>  <CHROM.1>
-111.09204713,115.06811682,88.85610480,141.57734387,41.37176062,-94.85575316
95.97103439,-89.53031442,-176.97585256,-150.40871797,74.46569775,19.56982277
26.68756746,-0.82326314,-0.86410551,1.44239731,-0.29218479

>  <Name>
1nta_lig

>  <RI>
1.05895e+07

>  <Rbt.Current_Directory>
/home/itssahil/PROJECTS/Mol_Feturizer/New_Systems/rnas/1nta

>  <Rbt.Executable>
rbdock ($Id: //depot/dev/client3/rdock/2013.1/src/exe/rbdock.cxx#4 $)

>  <Rbt.Library>
libRbt.so (2013.1, Build901 2013/11/27)

>  <Rbt.Parameter_File>
/export/apps/rDock/src/rDock_2013.1_src/data/scripts/dock_solv.prm

>  <Rbt.Receptor>
prm/blind_docking_100.prm

>  <SCORE>
-35.6833

>  <SCORE.INTER>
-19.1118

>  <SCORE.INTER.CONST>
1

>  <SCORE.INTER.POLAR>
-2.39527

>  <SCORE.INTER.ROT>
11

>  <SCORE.INTER.SOLV>
13.1362

>  <SCORE.INTER.VDW>
-20.069

>  <SCORE.INTER.norm>
-0.477794

>  <SCORE.INTRA>
-17.0376

>  <SCORE.INTRA.DIHEDRAL>
-0.985493

>  <SCORE.INTRA.DIHEDRAL.0>
19.0336

>  <SCORE.INTRA.POLAR>
0

>  <SCORE.INTRA.POLAR.0>
0

>  <SCORE.INTRA.REPUL>
0

>  <SCORE.INTRA.REPUL.0>
0

>  <SCORE.INTRA.SOLV>
-4.30934

>  <SCORE.INTRA.SOLV.lig_0>
-97.5861

>  <SCORE.INTRA.VDW>
-14.3901

>  <SCORE.INTRA.VDW.0>
11.7669

>  <SCORE.INTRA.norm>
-0.425939

>  <SCORE.RESTR>
0.466022

>  <SCORE.RESTR.CAVITY>
0.466022

>  <SCORE.RESTR.norm>
0.0116505

>  <SCORE.SYSTEM>
0

>  <SCORE.SYSTEM.CONST>
0

>  <SCORE.SYSTEM.DIHEDRAL>
0

>  <SCORE.SYSTEM.SOLV>
0

>  <SCORE.SYSTEM.norm>
0

>  <SCORE.heavy>
40

>  <SCORE.norm>
-0.892082

>  <RMSD>
20.246

$$$$
1nta_lig
 OpenBabel11021811403D
libRbt.so/2013.1/901 2013/11/27
 40 42  0  0  0  0  0  0  0  0999 V2000
   18.5810   33.3589   -2.9787 C   0  0  0  0  0  0  0  0  0  0  0  0
   18.4032   33.1166   -4.2236 N   0  0  0  0  0  0  0  0  0  0  0  0
   20.4402   25.9818    3.6231 C   0  0  0  0  0  0  0  0  0  0  0  0
   21.2902   26.8063    3.3681 O   0  0  0  0  0  0  0  0  0  0  0  0
   17.7756   26.9910   -2.1140 C   0  0  0  0  0  0  0  0  0  0  0  0
   17.0000   26.5822   -3.0842 N   0  0  0  0  0  0  0  0  0  0  0  0
   17.7167   27.4622    4.8282 C   0  0  0  0  0  0  0  0  0  0  0  0
   17.5318   20.9661    2.1144 C   0  0  0  0  0  0  0  0  0  0  0  0
   18.5067   31.4690   -1.5564 C   0  0  2  0  0  0  0  0  0  0  0  0
   17.8067   32.6768   -2.1482 N   0  0  0  0  0  0  0  0  0  0  0  0
   18.1785   27.1154    1.2847 C   0  0  2  0  0  0  0  0  0  0  0  0
   19.2781   23.6835    1.3167 C   0  0  1  0  0  0  0  0  0  0  0  0
   18.4688   24.7945    1.1485 O   0  0  0  0  0  0  0  0  0  0  0  0
   17.6025   30.2267   -1.6670 C   0  0  1  0  0  0  0  0  0  0  0  0
   17.4105   29.9777   -3.0268 O   0  0  0  0  0  0  0  0  0  0  0  0
   18.9790   25.8846    1.6966 C   0  0  2  0  0  0  0  0  0  0  0  0
   18.7333   22.3928    0.7457 C   0  0  1  0  0  0  0  0  0  0  0  0
   17.4416   22.1621    1.2937 N   0  0  0  0  0  0  0  0  0  0  0  0
   18.2523   28.9757   -1.0608 C   0  0  2  0  0  0  0  0  0  0  0  0
   17.4070   27.7606   -1.1458 N   0  0  0  0  0  0  0  0  0  0  0  0
   19.0113   26.0446    3.1541 C   0  0  1  0  0  0  0  0  0  0  0  0
   18.2150   24.9978    3.7127 O   0  0  0  0  0  0  0  0  0  0  0  0
   18.6305   22.4620   -0.6366 C   0  0  2  0  0  0  0  0  0  0  0  0
   18.4091   21.1584   -1.1127 O   0  0  0  0  0  0  0  0  0  0  0  0
   18.5623   29.2661    0.3991 C   0  0  1  0  0  0  0  0  0  0  0  0
   19.1660   28.1078    0.9536 O   0  0  0  0  0  0  0  0  0  0  0  0
   18.3952   27.3317    3.4999 C   0  0  1  0  0  0  0  0  0  0  0  0
   17.4977   27.5843    2.4258 O   0  0  0  0  0  0  0  0  0  0  0  0
   19.9039   23.0044   -1.2305 C   0  0  1  0  0  0  0  0  0  0  0  0
   19.6897   23.2881   -2.5818 O   0  0  0  0  0  0  0  0  0  0  0  0
   19.5112   30.4931    0.5128 C   0  0  2  0  0  0  0  0  0  0  0  0
   19.7984   30.7431    1.8877 O   0  0  0  0  0  0  0  0  0  0  0  0
   20.2825   24.2705   -0.5405 C   0  0  1  0  0  0  0  0  0  0  0  0
   20.4980   23.9746    0.8090 O   0  0  0  0  0  0  0  0  0  0  0  0
   18.8184   31.7293   -0.0979 C   0  0  1  0  0  0  0  0  0  0  0  0
   19.6800   32.8752   -0.0015 O   0  0  0  0  0  0  0  0  0  0  0  0
   21.5946   24.8474   -1.1079 C   0  0  0  0  0  0  0  0  0  0  0  0
   22.6433   23.9058   -0.9113 O   0  0  0  0  0  0  0  0  0  0  0  0
   19.4507   34.2125   -2.5575 N   0  0  0  0  0  0  0  0  0  0  0  0
   18.9904   26.6054   -2.0694 N   0  0  0  0  0  0  0  0  0  0  0  0
  1  2  1  0  0  0  0
  1 39  1  0  0  0  0
  3  4  1  0  0  0  0
  5  6  1  0  0  0  0
  5 40  1  0  0  0  0
  9 10  1  1  0  0  0
  9 14  1  0  0  0  0
  9 35  1  0  0  0  0
 10  1  1  0  0  0  0
 11 16  1  0  0  0  0
 11 28  1  0  0  0  0
 11 26  1  1  0  0  0
 12 17  1  0  0  0  0
 12 34  1  0  0  0  0
 12 13  1  6  0  0  0
 14 15  1  6  0  0  0
 14 19  1  0  0  0  0
 16 13  1  1  0  0  0
 16 21  1  0  0  0  0
 17 18  1  1  0  0  0
 17 23  1  0  0  0  0
 18  8  1  0  0  0  0
 19 20  1  1  0  0  0
 19 25  1  0  0  0  0
 20  5  1  0  0  0  0
 21  3  1  1  0  0  0
 21 22  1  0  0  0  0
 21 27  1  0  0  0  0
 23 24  1  6  0  0  0
 23 29  1  0  0  0  0
 25 26  1  6  0  0  0
 25 31  1  0  0  0  0
 27  7  1  1  0  0  0
 27 28  1  0  0  0  0
 29 30  1  6  0  0  0
 29 33  1  0  0  0  0
 31 32  1  1  0  0  0
 31 35  1  0  0  0  0
 33 34  1  0  0  0  0
 33 37  1  6  0  0  0
 35 36  1  6  0  0  0
 37 38  1  0  0  0  0
M  END
>  <CHROM.1>
-132.10124285,98.76065172,173.13260926,178.36635955,170.38786738,-114.27900642
100.96405956,-123.95686718,66.75523828,-79.53612318,-60.70724862,18.90920844
27.09157306,0.10114818,2.72279234,-1.50942029,0.87892342

>  <Name>
1nta_lig

>  <RI>
2.40834e+07

>  <Rbt.Current_Directory>
/home/itssahil/PROJECTS/Mol_Feturizer/New_Systems/rnas/1nta

>  <Rbt.Executable>
rbdock ($Id: //depot/dev/client3/rdock/2013.1/src/exe/rbdock.cxx#4 $)

>  <Rbt.Library>
libRbt.so (2013.1, Build901 2013/11/27)

>  <Rbt.Parameter_File>
/export/apps/rDock/src/rDock_2013.1_src/data/scripts/dock_solv.prm

>  <Rbt.Receptor>
prm/blind_docking_80.prm

>  <SCORE>
-39.2296

>  <SCORE.INTER>
-17.6506

>  <SCORE.INTER.CONST>
1

>  <SCORE.INTER.POLAR>
-1.09328

>  <SCORE.INTER.ROT>
11

>  <SCORE.INTER.SOLV>
21.8888

>  <SCORE.INTER.VDW>
-26.3524

>  <SCORE.INTER.norm>
-0.441265

>  <SCORE.INTRA>
-22.1854

>  <SCORE.INTRA.DIHEDRAL>
-12.1471

>  <SCORE.INTRA.DIHEDRAL.0>
19.0336

>  <SCORE.INTRA.POLAR>
0

>  <SCORE.INTRA.POLAR.0>
0

>  <SCORE.INTRA.REPUL>
0

>  <SCORE.INTRA.REPUL.0>
0

>  <SCORE.INTRA.SOLV>
-0.29886

>  <SCORE.INTRA.SOLV.lig_0>
-97.5861

>  <SCORE.INTRA.VDW>
-15.9624

>  <SCORE.INTRA.VDW.0>
11.7669

>  <SCORE.INTRA.norm>
-0.554634

>  <SCORE.RESTR>
0.606361

>  <SCORE.RESTR.CAVITY>
0.606361

>  <SCORE.RESTR.norm>
0.015159

>  <SCORE.SYSTEM>
0

>  <SCORE.SYSTEM.CONST>
0

>  <SCORE.SYSTEM.DIHEDRAL>
0

>  <SCORE.SYSTEM.SOLV>
0

>  <SCORE.SYSTEM.norm>
0

>  <SCORE.heavy>
40

>  <SCORE.norm>
-0.98074

>  <RMSD>
20.247

$$$$
1nta_lig
 OpenBabel11021811403D
libRbt.so/2013.1/901 2013/11/27
 40 42  0  0  0  0  0  0  0  0999 V2000
   16.3472   33.1368   -1.3049 C   0  0  0  0  0  0  0  0  0  0  0  0
   16.9239   34.2554   -1.0676 N   0  0  0  0  0  0  0  0  0  0  0  0
   20.6614   25.8271    2.9083 C   0  0  0  0  0  0  0  0  0  0  0  0
   20.9455   26.0953    4.0549 O   0  0  0  0  0  0  0  0  0  0  0  0
   20.8001   31.1325    1.0710 C   0  0  0  0  0  0  0  0  0  0  0  0
   20.9329   32.3224    1.5966 N   0  0  0  0  0  0  0  0  0  0  0  0
   18.0192   27.6658    3.7443 C   0  0  0  0  0  0  0  0  0  0  0  0
   17.8204   21.4011    1.9706 C   0  0  0  0  0  0  0  0  0  0  0  0
   17.4013   31.0210   -1.4180 C   0  0  2  0  0  0  0  0  0  0  0  0
   17.0069   32.3133   -2.1059 N   0  0  0  0  0  0  0  0  0  0  0  0
   18.7747   27.0355    0.2914 C   0  0  2  0  0  0  0  0  0  0  0  0
   19.5493   23.5355    0.5081 C   0  0  1  0  0  0  0  0  0  0  0  0
   18.8140   24.6931    0.3159 O   0  0  0  0  0  0  0  0  0  0  0  0
   18.4550   31.3012   -0.3297 C   0  0  1  0  0  0  0  0  0  0  0  0
   17.8512   32.1196    0.6261 O   0  0  0  0  0  0  0  0  0  0  0  0
   19.3889   25.7570    0.8513 C   0  0  2  0  0  0  0  0  0  0  0  0
   18.8620   22.2545    0.0893 C   0  0  1  0  0  0  0  0  0  0  0  0
   17.6089   22.1712    0.7564 N   0  0  0  0  0  0  0  0  0  0  0  0
   18.9099   30.0222    0.3858 C   0  0  2  0  0  0  0  0  0  0  0  0
   19.9285   30.2542    1.4378 N   0  0  0  0  0  0  0  0  0  0  0  0
   19.2999   26.0099    2.2931 C   0  0  1  0  0  0  0  0  0  0  0  0
   18.3414   25.0933    2.8254 O   0  0  0  0  0  0  0  0  0  0  0  0
   18.6454   22.2285   -1.2813 C   0  0  2  0  0  0  0  0  0  0  0  0
   18.2865   20.9154   -1.6307 O   0  0  0  0  0  0  0  0  0  0  0  0
   19.4788   29.0749   -0.6586 C   0  0  1  0  0  0  0  0  0  0  0  0
   19.8944   27.8930    0.0077 O   0  0  0  0  0  0  0  0  0  0  0  0
   18.8022   27.3754    2.5015 C   0  0  1  0  0  0  0  0  0  0  0  0
   18.0453   27.6494    1.3290 O   0  0  0  0  0  0  0  0  0  0  0  0
   19.8996   22.6196   -2.0178 C   0  0  1  0  0  0  0  0  0  0  0  0
   19.5910   22.8182   -3.3660 O   0  0  0  0  0  0  0  0  0  0  0  0
   18.4034   28.7542   -1.7354 C   0  0  2  0  0  0  0  0  0  0  0  0
   18.9521   27.8570   -2.6994 O   0  0  0  0  0  0  0  0  0  0  0  0
   20.4303   23.8986   -1.4655 C   0  0  1  0  0  0  0  0  0  0  0  0
   20.7390   23.6876   -0.1181 O   0  0  0  0  0  0  0  0  0  0  0  0
   17.9807   30.0622   -2.4364 C   0  0  1  0  0  0  0  0  0  0  0  0
   16.9869   29.7865   -3.4370 O   0  0  0  0  0  0  0  0  0  0  0  0
   21.7278   24.3228   -2.1816 C   0  0  0  0  0  0  0  0  0  0  0  0
   22.7243   23.3288   -1.9720 O   0  0  0  0  0  0  0  0  0  0  0  0
   15.1994   32.8302   -0.8043 N   0  0  0  0  0  0  0  0  0  0  0  0
   21.5535   30.7798    0.1043 N   0  0  0  0  0  0  0  0  0  0  0  0
  1  2  1  0  0  0  0
  1 39  1  0  0  0  0
  3  4  1  0  0  0  0
  5  6  1  0  0  0  0
  5 40  1  0  0  0  0
  9 10  1  6  0  0  0
  9 14  1  0  0  0  0
  9 35  1  0  0  0  0
 10  1  1  0  0  0  0
 11 16  1  0  0  0  0
 11 28  1  0  0  0  0
 11 26  1  1  0  0  0
 12 17  1  0  0  0  0
 12 34  1  0  0  0  0
 12 13  1  6  0  0  0
 14 15  1  1  0  0  0
 14 19  1  0  0  0  0
 16 13  1  1  0  0  0
 16 21  1  0  0  0  0
 17 18  1  1  0  0  0
 17 23  1  0  0  0  0
 18  8  1  0  0  0  0
 19 20  1  1  0  0  0
 19 25  1  0  0  0  0
 20  5  1  0  0  0  0
 21  3  1  1  0  0  0
 21 22  1  0  0  0  0
 21 27  1  0  0  0  0
 23 24  1  6  0  0  0
 23 29  1  0  0  0  0
 25 26  1  1  0  0  0
 25 31  1  0  0  0  0
 27  7  1  1  0  0  0
 27 28  1  0  0  0  0
 29 30  1  6  0  0  0
 29 33  1  0  0  0  0
 31 32  1  6  0  0  0
 31 35  1  0  0  0  0
 33 34  1  0  0  0  0
 33 37  1  6  0  0  0
 35 36  1  6  0  0  0
 37 38  1  0  0  0  0
M  END
>  <CHROM.1>
-67.48470676,116.94131761,173.67167144,171.96687064,163.96805234,-93.61162364
-40.28531576,112.04832972,172.12322323,79.23579847,-61.85052897,19.00914279
27.21802154,-0.05804453,2.26481952,-1.30298786,0.64706268

>  <Name>
1nta_lig

>  <RI>
0

>  <Rbt.Current_Directory>
/home/itssahil/PROJECTS/Mol_Feturizer/New_Systems/rnas/1nta

>  <Rbt.Executable>
rbdock ($Id: //depot/dev/client3/rdock/2013.1/src/exe/rbdock.cxx#4 $)

>  <Rbt.Library>
libRbt.so (2013.1, Build901 2013/11/27)

>  <Rbt.Parameter_File>
/export/apps/rDock/src/rDock_2013.1_src/data/scripts/dock_solv.prm

>  <Rbt.Receptor>
prm/blind_docking_60.prm

>  <SCORE>
-15.0673

>  <SCORE.INTER>
-1.13715

>  <SCORE.INTER.CONST>
1

>  <SCORE.INTER.POLAR>
-0.332883

>  <SCORE.INTER.ROT>
11

>  <SCORE.INTER.SOLV>
21.2686

>  <SCORE.INTER.VDW>
-17.6713

>  <SCORE.INTER.norm>
-0.0284286

>  <SCORE.INTRA>
-17.5793

>  <SCORE.INTRA.DIHEDRAL>
-13.3131

>  <SCORE.INTRA.DIHEDRAL.0>
19.0336

>  <SCORE.INTRA.POLAR>
0

>  <SCORE.INTRA.POLAR.0>
0

>  <SCORE.INTRA.REPUL>
0

>  <SCORE.INTRA.REPUL.0>
0

>  <SCORE.INTRA.SOLV>
-1.35745

>  <SCORE.INTRA.SOLV.lig_0>
-97.5861

>  <SCORE.INTRA.VDW>
-10.244

>  <SCORE.INTRA.VDW.0>
11.7669

>  <SCORE.INTRA.norm>
-0.439482

>  <SCORE.RESTR>
3.64911

>  <SCORE.RESTR.CAVITY>
3.64911

>  <SCORE.RESTR.norm>
0.0912277

>  <SCORE.SYSTEM>
0

>  <SCORE.SYSTEM.CONST>
0

>  <SCORE.SYSTEM.DIHEDRAL>
0

>  <SCORE.SYSTEM.SOLV>
0

>  <SCORE.SYSTEM.norm>
0

>  <SCORE.heavy>
40

>  <SCORE.norm>
-0.376683

>  <RMSD>
20.258

$$$$
1nta_lig
 OpenBabel11021811403D
libRbt.so/2013.1/901 2013/11/27
 40 42  0  0  0  0  0  0  0  0999 V2000
   21.4526   21.6776   -3.9087 C   0  0  0  0  0  0  0  0  0  0  0  0
   20.5755   20.7637   -3.7202 N   0  0  0  0  0  0  0  0  0  0  0  0
   19.8756   29.9551    0.4072 C   0  0  0  0  0  0  0  0  0  0  0  0
   21.0285   29.6785    0.1591 O   0  0  0  0  0  0  0  0  0  0  0  0
   18.8669   23.3987    1.4383 C   0  0  0  0  0  0  0  0  0  0  0  0
   19.8995   23.4995    2.2342 N   0  0  0  0  0  0  0  0  0  0  0  0
   17.5515   28.6659   -1.5924 C   0  0  0  0  0  0  0  0  0  0  0  0
   22.1199   28.9204    4.0021 C   0  0  0  0  0  0  0  0  0  0  0  0
   21.1336   23.6264   -2.6046 C   0  0  2  0  0  0  0  0  0  0  0  0
   20.9878   22.9176   -3.9370 N   0  0  0  0  0  0  0  0  0  0  0  0
   18.9850   26.6877    1.0387 C   0  0  2  0  0  0  0  0  0  0  0  0
   19.2858   27.5543    3.9065 C   0  0  1  0  0  0  0  0  0  0  0  0
   18.5284   28.0748    2.8707 O   0  0  0  0  0  0  0  0  0  0  0  0
   19.8342   23.4912   -1.7884 C   0  0  1  0  0  0  0  0  0  0  0  0
   19.6536   22.1325   -1.5250 O   0  0  0  0  0  0  0  0  0  0  0  0
   19.1625   28.0450    1.7105 C   0  0  2  0  0  0  0  0  0  0  0  0
   19.9703   28.5774    4.7860 C   0  0  1  0  0  0  0  0  0  0  0  0
   20.7590   29.4290    3.9645 N   0  0  0  0  0  0  0  0  0  0  0  0
   19.9164   24.2117   -0.4361 C   0  0  2  0  0  0  0  0  0  0  0  0
   18.6799   24.1061    0.3751 N   0  0  0  0  0  0  0  0  0  0  0  0
   18.7761   28.9500    0.6230 C   0  0  1  0  0  0  0  0  0  0  0  0
   17.5470   29.5708    1.0052 O   0  0  0  0  0  0  0  0  0  0  0  0
   19.0420   29.3473    5.4728 C   0  0  2  0  0  0  0  0  0  0  0  0
   19.7318   30.0551    6.4719 O   0  0  0  0  0  0  0  0  0  0  0  0
   20.2149   25.6788   -0.7011 C   0  0  1  0  0  0  0  0  0  0  0  0
   20.2933   26.3393    0.5524 O   0  0  0  0  0  0  0  0  0  0  0  0
   18.5381   28.1554   -0.5884 C   0  0  1  0  0  0  0  0  0  0  0  0
   18.1670   26.8746   -0.0934 O   0  0  0  0  0  0  0  0  0  0  0  0
   17.9991   28.4667    6.1096 C   0  0  1  0  0  0  0  0  0  0  0  0
   16.9567   29.2675    6.5832 O   0  0  0  0  0  0  0  0  0  0  0  0
   21.5495   25.8219   -1.4866 C   0  0  2  0  0  0  0  0  0  0  0  0
   21.8173   27.2043   -1.7163 O   0  0  0  0  0  0  0  0  0  0  0  0
   17.4438   27.5276    5.0936 C   0  0  1  0  0  0  0  0  0  0  0  0
   18.4939   26.7293    4.6295 O   0  0  0  0  0  0  0  0  0  0  0  0
   21.4223   25.0937   -2.8411 C   0  0  1  0  0  0  0  0  0  0  0  0
   22.6467   25.2154   -3.5832 O   0  0  0  0  0  0  0  0  0  0  0  0
   16.3851   26.5939    5.7128 C   0  0  0  0  0  0  0  0  0  0  0  0
   16.1119   25.5306    4.8073 O   0  0  0  0  0  0  0  0  0  0  0  0
   22.7046   21.4129   -4.0660 N   0  0  0  0  0  0  0  0  0  0  0  0
   17.9629   22.5324    1.6807 N   0  0  0  0  0  0  0  0  0  0  0  0
  1  2  1  0  0  0  0
  1 39  1  0  0  0  0
  3  4  1  0  0  0  0
  5  6  1  0  0  0  0
  5 40  1  0  0  0  0
  9 10  1  6  0  0  0
  9 14  1  0  0  0  0
  9 35  1  0  0  0  0
 10  1  1  0  0  0  0
 11 16  1  0  0  0  0
 11 28  1  0  0  0  0
 11 26  1  6  0  0  0
 12 17  1  0  0  0  0
 12 34  1  0  0  0  0
 12 13  1  6  0  0  0
 14 15  1  1  0  0  0
 14 19  1  0  0  0  0
 16 13  1  1  0  0  0
 16 21  1  0  0  0  0
 17 18  1  6  0  0  0
 17 23  1  0  0  0  0
 18  8  1  0  0  0  0
 19 20  1  6  0  0  0
 19 25  1  0  0  0  0
 20  5  1  0  0  0  0
 21  3  1  6  0  0  0
 21 22  1  0  0  0  0
 21 27  1  0  0  0  0
 23 24  1  1  0  0  0
 23 29  1  0  0  0  0
 25 26  1  1  0  0  0
 25 31  1  0  0  0  0
 27  7  1  1  0  0  0
 27 28  1  0  0  0  0
 29 30  1  6  0  0  0
 29 33  1  0  0  0  0
 31 32  1  6  0  0  0
 31 35  1  0  0  0  0
 33 34  1  0  0  0  0
 33 37  1  1  0  0  0
 35 36  1  1  0  0  0
 37 38  1  0  0  0  0
M  END
>  <CHROM.1>
-94.65021250,97.18817778,-142.69795095,99.89465661,84.91500918,-96.83304287
112.64379356,44.54827243,56.64573756,-82.60365959,-166.72697117,19.53917242
26.33924361,1.05798617,1.00074908,-1.06485718,-2.69670694

>  <Name>
1nta_lig

>  <RI>
9.25352e+06

>  <Rbt.Current_Directory>
/home/itssahil/PROJECTS/Mol_Feturizer/New_Systems/rnas/1nta

>  <Rbt.Executable>
rbdock ($Id: //depot/dev/client3/rdock/2013.1/src/exe/rbdock.cxx#4 $)

>  <Rbt.Library>
libRbt.so (2013.1, Build901 2013/11/27)

>  <Rbt.Parameter_File>
/export/apps/rDock/src/rDock_2013.1_src/data/scripts/dock_solv.prm

>  <Rbt.Receptor>
prm/blind_docking_40.prm

>  <SCORE>
-21.2194

>  <SCORE.INTER>
-8.09725

>  <SCORE.INTER.CONST>
1

>  <SCORE.INTER.POLAR>
-0.975605

>  <SCORE.INTER.ROT>
11

>  <SCORE.INTER.SOLV>
13.5818

>  <SCORE.INTER.VDW>
-17.6068

>  <SCORE.INTER.norm>
-0.202431

>  <SCORE.INTRA>
-15.3981

>  <SCORE.INTRA.DIHEDRAL>
0.75434

>  <SCORE.INTRA.DIHEDRAL.0>
19.0336

>  <SCORE.INTRA.POLAR>
0

>  <SCORE.INTRA.POLAR.0>
0

>  <SCORE.INTRA.REPUL>
0.0169319

>  <SCORE.INTRA.REPUL.0>
0

>  <SCORE.INTRA.SOLV>
-2.95254

>  <SCORE.INTRA.SOLV.lig_0>
-97.5861

>  <SCORE.INTRA.VDW>
-14.3836

>  <SCORE.INTRA.VDW.0>
11.7669

>  <SCORE.INTRA.norm>
-0.384952

>  <SCORE.RESTR>
2.27593

>  <SCORE.RESTR.CAVITY>
2.27593

>  <SCORE.RESTR.norm>
0.0568983

>  <SCORE.SYSTEM>
0

>  <SCORE.SYSTEM.CONST>
0

>  <SCORE.SYSTEM.DIHEDRAL>
0

>  <SCORE.SYSTEM.SOLV>
0

>  <SCORE.SYSTEM.norm>
0

>  <SCORE.heavy>
40

>  <SCORE.norm>
-0.530485

>  <RMSD>
20.259

$$$$
1nta_lig
 OpenBabel11021811403D
libRbt.so/2013.1/901 2013/11/27
 40 42  0  0  0  0  0  0  0  0999 V2000
   18.0598   18.5431   -0.7685 C   0  0  0  0  0  0  0  0  0  0  0  0
   18.2065   18.4575   -2.0378 N   0  0  0  0  0  0  0  0  0  0  0  0
   21.7159   27.4824    0.1199 C   0  0  0  0  0  0  0  0  0  0  0  0
   22.9179   27.5951    0.0218 O   0  0  0  0  0  0  0  0  0  0  0  0
   19.6524   23.8803    3.0630 C   0  0  0  0  0  0  0  0  0  0  0  0
   20.2792   25.0144    2.8881 N   0  0  0  0  0  0  0  0  0  0  0  0
   22.0691   25.6618   -2.6409 C   0  0  0  0  0  0  0  0  0  0  0  0
   19.1737   27.8206    2.7104 C   0  0  0  0  0  0  0  0  0  0  0  0
   18.1839   20.8514   -0.2616 C   0  0  2  0  0  0  0  0  0  0  0  0
   17.3574   19.5829   -0.3440 N   0  0  0  0  0  0  0  0  0  0  0  0
   18.9014   25.8132   -0.9576 C   0  0  2  0  0  0  0  0  0  0  0  0
   17.9638   28.7988    0.1110 C   0  0  1  0  0  0  0  0  0  0  0  0
   18.5735   28.1330   -0.9390 O   0  0  0  0  0  0  0  0  0  0  0  0
   17.9456   21.5511    1.0899 C   0  0  1  0  0  0  0  0  0  0  0  0
   18.4009   20.6865    2.0865 O   0  0  0  0  0  0  0  0  0  0  0  0
   19.4037   27.1881   -0.5302 C   0  0  2  0  0  0  0  0  0  0  0  0
   18.9059   29.4558    1.0956 C   0  0  1  0  0  0  0  0  0  0  0  0
   19.8135   28.4746    1.5812 N   0  0  0  0  0  0  0  0  0  0  0  0
   18.7412   22.8569    1.2197 C   0  0  2  0  0  0  0  0  0  0  0  0
   18.5320   23.5603    2.5079 N   0  0  0  0  0  0  0  0  0  0  0  0
   20.7869   27.1460   -1.0157 C   0  0  1  0  0  0  0  0  0  0  0  0
   20.8877   28.0838   -2.0892 O   0  0  0  0  0  0  0  0  0  0  0  0
   19.6267   30.4770    0.4926 C   0  0  2  0  0  0  0  0  0  0  0  0
   20.2449   31.2211    1.5120 O   0  0  0  0  0  0  0  0  0  0  0  0
   18.3307   23.7741    0.0786 C   0  0  1  0  0  0  0  0  0  0  0  0
   19.0717   24.9781    0.2013 O   0  0  0  0  0  0  0  0  0  0  0  0
   21.0593   25.8036   -1.5444 C   0  0  1  0  0  0  0  0  0  0  0  0
   19.7812   25.3242   -1.9437 O   0  0  0  0  0  0  0  0  0  0  0  0
   18.7076   31.3722   -0.2963 C   0  0  1  0  0  0  0  0  0  0  0  0
   19.4775   32.2365   -1.0791 O   0  0  0  0  0  0  0  0  0  0  0  0
   18.6113   23.0886   -1.2889 C   0  0  2  0  0  0  0  0  0  0  0  0
   18.2299   23.9677   -2.3458 O   0  0  0  0  0  0  0  0  0  0  0  0
   17.8590   30.5488   -1.2042 C   0  0  1  0  0  0  0  0  0  0  0  0
   17.0907   29.6910   -0.4109 O   0  0  0  0  0  0  0  0  0  0  0  0
   17.7871   21.7875   -1.3834 C   0  0  1  0  0  0  0  0  0  0  0  0
   18.0322   21.1389   -2.6420 O   0  0  0  0  0  0  0  0  0  0  0  0
   16.8884   31.4293   -2.0160 C   0  0  0  0  0  0  0  0  0  0  0  0
   16.0416   32.1407   -1.1206 O   0  0  0  0  0  0  0  0  0  0  0  0
   18.5643   17.6803    0.0460 N   0  0  0  0  0  0  0  0  0  0  0  0
   20.1627   22.9841    3.8133 N   0  0  0  0  0  0  0  0  0  0  0  0
  1  2  1  0  0  0  0
  1 39  1  0  0  0  0
  3  4  1  0  0  0  0
  5  6  1  0  0  0  0
  5 40  1  0  0  0  0
  9 10  1  1  0  0  0
  9 14  1  0  0  0  0
  9 35  1  0  0  0  0
 10  1  1  0  0  0  0
 11 16  1  0  0  0  0
 11 28  1  0  0  0  0
 11 26  1  1  0  0  0
 12 17  1  0  0  0  0
 12 34  1  0  0  0  0
 12 13  1  6  0  0  0
 14 15  1  1  0  0  0
 14 19  1  0  0  0  0
 16 13  1  6  0  0  0
 16 21  1  0  0  0  0
 17 18  1  6  0  0  0
 17 23  1  0  0  0  0
 18  8  1  0  0  0  0
 19 20  1  1  0  0  0
 19 25  1  0  0  0  0
 20  5  1  0  0  0  0
 21  3  1  1  0  0  0
 21 22  1  0  0  0  0
 21 27  1  0  0  0  0
 23 24  1  1  0  0  0
 23 29  1  0  0  0  0
 25 26  1  6  0  0  0
 25 31  1  0  0  0  0
 27  7  1  6  0  0  0
 27 28  1  0  0  0  0
 29 30  1  6  0  0  0
 29 33  1  0  0  0  0
 31 32  1  6  0  0  0
 31 35  1  0  0  0  0
 33 34  1  0  0  0  0
 33 37  1  1  0  0  0
 35 36  1  6  0  0  0
 37 38  1  0  0  0  0
M  END
>  <CHROM.1>
-132.66870627,-81.81668331,164.45298604,57.58936054,115.05015048,-86.31732217
130.15575624,91.20804606,-176.16781098,170.74423936,-59.97946573,19.05987586
25.72488812,-0.12915727,1.72262607,1.21821746,2.97680865

>  <Name>
1nta_lig

>  <RI>
0

>  <Rbt.Current_Directory>
/home/itssahil/PROJECTS/Mol_Feturizer/New_Systems/rnas/1nta

>  <Rbt.Executable>
rbdock ($Id: //depot/dev/client3/rdock/2013.1/src/exe/rbdock.cxx#4 $)

>  <Rbt.Library>
libRbt.so (2013.1, Build901 2013/11/27)

>  <Rbt.Parameter_File>
/export/apps/rDock/src/rDock_2013.1_src/data/scripts/dock_solv.prm

>  <Rbt.Receptor>
prm/blind_docking_60.prm

>  <SCORE>
-5.24774

>  <SCORE.INTER>
-6.31242

>  <SCORE.INTER.CONST>
1

>  <SCORE.INTER.POLAR>
-0.566051

>  <SCORE.INTER.ROT>
11

>  <SCORE.INTER.SOLV>
13.5221

>  <SCORE.INTER.VDW>
-17.7622

>  <SCORE.INTER.norm>
-0.157811

>  <SCORE.INTRA>
-2.82734

>  <SCORE.INTRA.DIHEDRAL>
-6.23016

>  <SCORE.INTRA.DIHEDRAL.0>
19.0336

>  <SCORE.INTRA.POLAR>
0

>  <SCORE.INTRA.POLAR.0>
0

>  <SCORE.INTRA.REPUL>
0

>  <SCORE.INTRA.REPUL.0>
0

>  <SCORE.INTRA.SOLV>
-0.302611

>  <SCORE.INTRA.SOLV.lig_0>
-97.5861

>  <SCORE.INTRA.VDW>
0.439047

>  <SCORE.INTRA.VDW.0>
11.7669

>  <SCORE.INTRA.norm>
-0.0706834

>  <SCORE.RESTR>
3.89202

>  <SCORE.RESTR.CAVITY>
3.89202

>  <SCORE.RESTR.norm>
0.0973006

>  <SCORE.SYSTEM>
0

>  <SCORE.SYSTEM.CONST>
0

>  <SCORE.SYSTEM.DIHEDRAL>
0

>  <SCORE.SYSTEM.SOLV>
0

>  <SCORE.SYSTEM.norm>
0

>  <SCORE.heavy>
40

>  <SCORE.norm>
-0.131193

>  <RMSD>
20.264

$$$$
1nta_lig
 OpenBabel11021811403D
libRbt.so/2013.1/901 2013/11/27
 40 42  0  0  0  0  0  0  0  0999 V2000
   17.7958   18.9160    1.5495 C   0  0  0  0  0  0  0  0  0  0  0  0
   18.4320   18.7272    2.6448 N   0  0  0  0  0  0  0  0  0  0  0  0
   17.9336   28.0942   -2.5916 C   0  0  0  0  0  0  0  0  0  0  0  0
   17.5052   28.9658   -3.3156 O   0  0  0  0  0  0  0  0  0  0  0  0
   18.9431   21.5631   -3.9396 C   0  0  0  0  0  0  0  0  0  0  0  0
   18.0233   20.9979   -4.6774 N   0  0  0  0  0  0  0  0  0  0  0  0
   14.9507   26.6232   -2.5826 C   0  0  0  0  0  0  0  0  0  0  0  0
   22.1327   26.8558   -0.1665 C   0  0  0  0  0  0  0  0  0  0  0  0
   18.1069   20.7226    0.0528 C   0  0  2  0  0  0  0  0  0  0  0  0
   18.5265   19.3466    0.5320 N   0  0  0  0  0  0  0  0  0  0  0  0
   17.6006   25.3698   -0.5095 C   0  0  2  0  0  0  0  0  0  0  0  0
   19.1350   26.7511    1.4429 C   0  0  1  0  0  0  0  0  0  0  0  0
   18.1173   27.3141    0.6913 O   0  0  0  0  0  0  0  0  0  0  0  0
   18.6486   20.9763   -1.3668 C   0  0  1  0  0  0  0  0  0  0  0  0
   18.0515   20.0370   -2.2088 O   0  0  0  0  0  0  0  0  0  0  0  0
   18.0586   26.8240   -0.5357 C   0  0  2  0  0  0  0  0  0  0  0  0
   20.4763   27.4430    1.3383 C   0  0  1  0  0  0  0  0  0  0  0  0
   20.8450   27.5162   -0.0331 N   0  0  0  0  0  0  0  0  0  0  0  0
   18.2732   22.3672   -1.8951 C   0  0  2  0  0  0  0  0  0  0  0  0
   18.7829   22.6478   -3.2588 N   0  0  0  0  0  0  0  0  0  0  0  0
   17.1368   27.3917   -1.5251 C   0  0  1  0  0  0  0  0  0  0  0  0
   16.2654   28.2847   -0.8285 O   0  0  0  0  0  0  0  0  0  0  0  0
   20.4176   28.7284    1.8583 C   0  0  2  0  0  0  0  0  0  0  0  0
   21.7370   29.1909    2.0000 O   0  0  0  0  0  0  0  0  0  0  0  0
   18.8303   23.4034   -0.9318 C   0  0  1  0  0  0  0  0  0  0  0  0
   18.4773   24.6870   -1.4231 O   0  0  0  0  0  0  0  0  0  0  0  0
   16.3300   26.3052   -2.0944 C   0  0  1  0  0  0  0  0  0  0  0  0
   16.3090   25.3182   -1.0704 O   0  0  0  0  0  0  0  0  0  0  0  0
   19.7410   28.7191    3.2039 C   0  0  1  0  0  0  0  0  0  0  0  0
   19.4809   30.0365    3.5903 O   0  0  0  0  0  0  0  0  0  0  0  0
   18.2508   23.1778    0.4937 C   0  0  2  0  0  0  0  0  0  0  0  0
   18.7765   24.1647    1.3796 O   0  0  0  0  0  0  0  0  0  0  0  0
   18.4420   27.9936    3.1099 C   0  0  1  0  0  0  0  0  0  0  0  0
   18.7141   26.6767    2.7266 O   0  0  0  0  0  0  0  0  0  0  0  0
   18.6580   21.7750    0.9913 C   0  0  1  0  0  0  0  0  0  0  0  0
   18.1322   21.5475    2.3091 O   0  0  0  0  0  0  0  0  0  0  0  0
   17.7270   27.9451    4.4747 C   0  0  0  0  0  0  0  0  0  0  0  0
   18.6217   27.4290    5.4535 O   0  0  0  0  0  0  0  0  0  0  0  0
   16.5282   18.7073    1.4410 N   0  0  0  0  0  0  0  0  0  0  0  0
   20.0938   21.0227   -3.8383 N   0  0  0  0  0  0  0  0  0  0  0  0
  1  2  1  0  0  0  0
  1 39  1  0  0  0  0
  3  4  1  0  0  0  0
  5  6  1  0  0  0  0
  5 40  1  0  0  0  0
  9 10  1  1  0  0  0
  9 14  1  0  0  0  0
  9 35  1  0  0  0  0
 10  1  1  0  0  0  0
 11 16  1  0  0  0  0
 11 28  1  0  0  0  0
 11 26  1  6  0  0  0
 12 17  1  0  0  0  0
 12 34  1  0  0  0  0
 12 13  1  6  0  0  0
 14 15  1  6  0  0  0
 14 19  1  0  0  0  0
 16 13  1  1  0  0  0
 16 21  1  0  0  0  0
 17 18  1  6  0  0  0
 17 23  1  0  0  0  0
 18  8  1  0  0  0  0
 19 20  1  6  0  0  0
 19 25  1  0  0  0  0
 20  5  1  0  0  0  0
 21  3  1  6  0  0  0
 21 22  1  0  0  0  0
 21 27  1  0  0  0  0
 23 24  1  1  0  0  0
 23 29  1  0  0  0  0
 25 26  1  6  0  0  0
 25 31  1  0  0  0  0
 27  7  1  1  0  0  0
 27 28  1  0  0  0  0
 29 30  1  6  0  0  0
 29 33  1  0  0  0  0
 31 32  1  1  0  0  0
 31 35  1  0  0  0  0
 33 34  1  0  0  0  0
 33 37  1  1  0  0  0
 35 36  1  1  0  0  0
 37 38  1  0  0  0  0
M  END
>  <CHROM.1>
-161.74859940,-116.81777488,141.04696724,88.59864063,68.87049255,-122.75196138
26.69997065,88.77830349,-157.72559171,116.20143403,-52.60482912,18.47113515
24.82904301,0.08962284,-2.14823684,-1.37664743,-0.23790309

>  <Name>
1nta_lig

>  <RI>
9.25352e+06

>  <Rbt.Current_Directory>
/home/itssahil/PROJECTS/Mol_Feturizer/New_Systems/rnas/1nta

>  <Rbt.Executable>
rbdock ($Id: //depot/dev/client3/rdock/2013.1/src/exe/rbdock.cxx#4 $)

>  <Rbt.Library>
libRbt.so (2013.1, Build901 2013/11/27)

>  <Rbt.Parameter_File>
/export/apps/rDock/src/rDock_2013.1_src/data/scripts/dock_solv.prm

>  <Rbt.Receptor>
prm/blind_docking_40.prm

>  <SCORE>
-15.2526

>  <SCORE.INTER>
-14.8993

>  <SCORE.INTER.CONST>
1

>  <SCORE.INTER.POLAR>
-0.578817

>  <SCORE.INTER.ROT>
11

>  <SCORE.INTER.SOLV>
10.8789

>  <SCORE.INTER.VDW>
-22.5631

>  <SCORE.INTER.norm>
-0.372484

>  <SCORE.INTRA>
-1.53239

>  <SCORE.INTRA.DIHEDRAL>
1.86777

>  <SCORE.INTRA.DIHEDRAL.0>
19.0336

>  <SCORE.INTRA.POLAR>
0

>  <SCORE.INTRA.POLAR.0>
0

>  <SCORE.INTRA.REPUL>
0

>  <SCORE.INTRA.REPUL.0>
0

>  <SCORE.INTRA.SOLV>
-1.69366

>  <SCORE.INTRA.SOLV.lig_0>
-97.5861

>  <SCORE.INTRA.VDW>
-1.61945

>  <SCORE.INTRA.VDW.0>
11.7669

>  <SCORE.INTRA.norm>
-0.0383098

>  <SCORE.RESTR>
1.17913

>  <SCORE.RESTR.CAVITY>
1.17913

>  <SCORE.RESTR.norm>
0.0294782

>  <SCORE.SYSTEM>
0

>  <SCORE.SYSTEM.CONST>
0

>  <SCORE.SYSTEM.DIHEDRAL>
0

>  <SCORE.SYSTEM.SOLV>
0

>  <SCORE.SYSTEM.norm>
0

>  <SCORE.heavy>
40

>  <SCORE.norm>
-0.381315

>  <RMSD>
20.274

$$$$
1nta_lig
 OpenBabel11021811403D
libRbt.so/2013.1/901 2013/11/27
 40 42  0  0  0  0  0  0  0  0999 V2000
   22.4767   22.5049   -4.3181 C   0  0  0  0  0  0  0  0  0  0  0  0
   23.0253   23.2935   -5.1649 N   0  0  0  0  0  0  0  0  0  0  0  0
   20.0734   30.9233    0.4172 C   0  0  0  0  0  0  0  0  0  0  0  0
   20.0745   31.9812   -0.1729 O   0  0  0  0  0  0  0  0  0  0  0  0
   20.0040   24.2984    0.9221 C   0  0  0  0  0  0  0  0  0  0  0  0
   18.9175   24.2540    0.1959 N   0  0  0  0  0  0  0  0  0  0  0  0
   17.5127   30.3897   -1.6370 C   0  0  0  0  0  0  0  0  0  0  0  0
   22.7439   28.6831    3.7475 C   0  0  0  0  0  0  0  0  0  0  0  0
   21.4037   24.2124   -3.0798 C   0  0  2  0  0  0  0  0  0  0  0  0
   21.3075   22.9043   -3.8405 N   0  0  0  0  0  0  0  0  0  0  0  0
   19.0076   27.6582    0.1503 C   0  0  2  0  0  0  0  0  0  0  0  0
   19.5353   27.5248    3.0522 C   0  0  1  0  0  0  0  0  0  0  0  0
   18.7969   28.4570    2.3427 O   0  0  0  0  0  0  0  0  0  0  0  0
   21.1741   23.9681   -1.5763 C   0  0  1  0  0  0  0  0  0  0  0  0
   22.2093   23.1449   -1.1307 O   0  0  0  0  0  0  0  0  0  0  0  0
   19.3331   28.7455    1.1686 C   0  0  2  0  0  0  0  0  0  0  0  0
   20.5246   28.0995    4.0420 C   0  0  1  0  0  0  0  0  0  0  0  0
   21.3814   29.0037    3.3562 N   0  0  0  0  0  0  0  0  0  0  0  0
   21.2369   25.2646   -0.7577 C   0  0  2  0  0  0  0  0  0  0  0  0
   21.0154   25.0673    0.6949 N   0  0  0  0  0  0  0  0  0  0  0  0
   18.9264   29.9487    0.4355 C   0  0  1  0  0  0  0  0  0  0  0  0
   17.7784   30.4812    1.0992 O   0  0  0  0  0  0  0  0  0  0  0  0
   19.8736   28.7806    5.0611 C   0  0  2  0  0  0  0  0  0  0  0  0
   20.8124   29.0230    6.0784 O   0  0  0  0  0  0  0  0  0  0  0  0
   20.1804   26.2150   -1.2985 C   0  0  1  0  0  0  0  0  0  0  0  0
   20.2453   27.4130   -0.5407 O   0  0  0  0  0  0  0  0  0  0  0  0
   18.5374   29.5611   -0.9262 C   0  0  1  0  0  0  0  0  0  0  0  0
   18.1175   28.2087   -0.7932 O   0  0  0  0  0  0  0  0  0  0  0  0
   18.7429   27.9495    5.6081 C   0  0  1  0  0  0  0  0  0  0  0  0
   17.9636   28.7436    6.4535 O   0  0  0  0  0  0  0  0  0  0  0  0
   20.4350   26.4993   -2.8062 C   0  0  2  0  0  0  0  0  0  0  0  0
   19.4410   27.3999   -3.2922 O   0  0  0  0  0  0  0  0  0  0  0  0
   17.8815   27.4715    4.4892 C   0  0  1  0  0  0  0  0  0  0  0  0
   18.6697   26.6755    3.6523 O   0  0  0  0  0  0  0  0  0  0  0  0
   20.3539   25.1747   -3.5936 C   0  0  1  0  0  0  0  0  0  0  0  0
   20.5858   25.4168   -4.9909 O   0  0  0  0  0  0  0  0  0  0  0  0
   16.7217   26.5987    5.0081 C   0  0  0  0  0  0  0  0  0  0  0  0
   16.0686   27.2751    6.0763 O   0  0  0  0  0  0  0  0  0  0  0  0
   23.0241   21.3977   -3.9484 N   0  0  0  0  0  0  0  0  0  0  0  0
   20.1050   23.5589    1.9562 N   0  0  0  0  0  0  0  0  0  0  0  0
  1  2  1  0  0  0  0
  1 39  1  0  0  0  0
  3  4  1  0  0  0  0
  5  6  1  0  0  0  0
  5 40  1  0  0  0  0
  9 10  1  6  0  0  0
  9 14  1  0  0  0  0
  9 35  1  0  0  0  0
 10  1  1  0  0  0  0
 11 16  1  0  0  0  0
 11 28  1  0  0  0  0
 11 26  1  6  0  0  0
 12 17  1  0  0  0  0
 12 34  1  0  0  0  0
 12 13  1  1  0  0  0
 14 15  1  1  0  0  0
 14 19  1  0  0  0  0
 16 13  1  1  0  0  0
 16 21  1  0  0  0  0
 17 18  1  6  0  0  0
 17 23  1  0  0  0  0
 18  8  1  0  0  0  0
 19 20  1  1  0  0  0
 19 25  1  0  0  0  0
 20  5  1  0  0  0  0
 21  3  1  6  0  0  0
 21 22  1  0  0  0  0
 21 27  1  0  0  0  0
 23 24  1  1  0  0  0
 23 29  1  0  0  0  0
 25 26  1  1  0  0  0
 25 31  1  0  0  0  0
 27  7  1  1  0  0  0
 27 28  1  0  0  0  0
 29 30  1  1  0  0  0
 29 33  1  0  0  0  0
 31 32  1  6  0  0  0
 31 35  1  0  0  0  0
 33 34  1  0  0  0  0
 33 37  1  1  0  0  0
 35 36  1  6  0  0  0
 37 38  1  0  0  0  0
M  END
>  <CHROM.1>
-110.49140633,-61.87066507,166.24820189,94.66403312,79.38149203,-132.44787770
-46.00217141,-34.56246868,175.80685431,-118.45783753,49.59979646,19.87733484
26.90518123,0.58912656,-0.58199588,-1.22150261,1.98606067

>  <Name>
1nta_lig

>  <RI>
9.25352e+06

>  <Rbt.Current_Directory>
/home/itssahil/PROJECTS/Mol_Feturizer/New_Systems/rnas/1nta

>  <Rbt.Executable>
rbdock ($Id: //depot/dev/client3/rdock/2013.1/src/exe/rbdock.cxx#4 $)

>  <Rbt.Library>
libRbt.so (2013.1, Build901 2013/11/27)

>  <Rbt.Parameter_File>
/export/apps/rDock/src/rDock_2013.1_src/data/scripts/dock_solv.prm

>  <Rbt.Receptor>
prm/blind_docking_40.prm

>  <SCORE>
-18.174

>  <SCORE.INTER>
-4.47991

>  <SCORE.INTER.CONST>
1

>  <SCORE.INTER.POLAR>
-0.385039

>  <SCORE.INTER.ROT>
11

>  <SCORE.INTER.SOLV>
17.6448

>  <SCORE.INTER.VDW>
-18.5181

>  <SCORE.INTER.norm>
-0.111998

>  <SCORE.INTRA>
-14.4364

>  <SCORE.INTRA.DIHEDRAL>
-0.44775

>  <SCORE.INTRA.DIHEDRAL.0>
19.0336

>  <SCORE.INTRA.POLAR>
0

>  <SCORE.INTRA.POLAR.0>
0

>  <SCORE.INTRA.REPUL>
0

>  <SCORE.INTRA.REPUL.0>
0

>  <SCORE.INTRA.SOLV>
-0.482478

>  <SCORE.INTRA.SOLV.lig_0>
-97.5861

>  <SCORE.INTRA.VDW>
-13.9713

>  <SCORE.INTRA.VDW.0>
11.7669

>  <SCORE.INTRA.norm>
-0.36091

>  <SCORE.RESTR>
0.742281

>  <SCORE.RESTR.CAVITY>
0.742281

>  <SCORE.RESTR.norm>
0.018557

>  <SCORE.SYSTEM>
0

>  <SCORE.SYSTEM.CONST>
0

>  <SCORE.SYSTEM.DIHEDRAL>
0

>  <SCORE.SYSTEM.SOLV>
0

>  <SCORE.SYSTEM.norm>
0

>  <SCORE.heavy>
40

>  <SCORE.norm>
-0.45435

>  <RMSD>
20.280

$$$$
1nta_lig
 OpenBabel11021811403D
libRbt.so/2013.1/901 2013/11/27
 40 42  0  0  0  0  0  0  0  0999 V2000
   17.5303   34.3724    1.5876 C   0  0  0  0  0  0  0  0  0  0  0  0
   17.3805   34.8975    0.4292 N   0  0  0  0  0  0  0  0  0  0  0  0
   22.0779   26.2414   -2.1908 C   0  0  0  0  0  0  0  0  0  0  0  0
   22.5427   25.3603   -2.8800 O   0  0  0  0  0  0  0  0  0  0  0  0
   17.7129   29.6131   -1.9143 C   0  0  0  0  0  0  0  0  0  0  0  0
   17.0029   28.9397   -1.0469 N   0  0  0  0  0  0  0  0  0  0  0  0
   24.7528   27.1402   -0.4307 C   0  0  0  0  0  0  0  0  0  0  0  0
   18.8213   25.6425   -2.3937 C   0  0  0  0  0  0  0  0  0  0  0  0
   18.6055   32.3271    1.0766 C   0  0  2  0  0  0  0  0  0  0  0  0
   17.4000   33.0552    1.6383 N   0  0  0  0  0  0  0  0  0  0  0  0
   21.4577   28.0048    0.7030 C   0  0  2  0  0  0  0  0  0  0  0  0
   19.1344   25.7288    0.5224 C   0  0  1  0  0  0  0  0  0  0  0  0
   20.4895   25.8723    0.7689 O   0  0  0  0  0  0  0  0  0  0  0  0
   18.1824   31.4403   -0.1099 C   0  0  1  0  0  0  0  0  0  0  0  0
   17.7012   32.2900   -1.1072 O   0  0  0  0  0  0  0  0  0  0  0  0
   21.0677   26.7365   -0.0484 C   0  0  2  0  0  0  0  0  0  0  0  0
   18.7561   24.5544   -0.3530 C   0  0  1  0  0  0  0  0  0  0  0  0
   19.4828   24.6427   -1.5721 N   0  0  0  0  0  0  0  0  0  0  0  0
   19.3617   30.6593   -0.7050 C   0  0  2  0  0  0  0  0  0  0  0  0
   18.9895   29.7907   -1.8474 N   0  0  0  0  0  0  0  0  0  0  0  0
   22.3307   26.4052   -0.7161 C   0  0  1  0  0  0  0  0  0  0  0  0
   22.8237   25.2045   -0.1181 O   0  0  0  0  0  0  0  0  0  0  0  0
   19.0605   23.3505    0.2668 C   0  0  2  0  0  0  0  0  0  0  0  0
   18.4227   22.3270   -0.4549 O   0  0  0  0  0  0  0  0  0  0  0  0
   19.9635   29.8024    0.3974 C   0  0  1  0  0  0  0  0  0  0  0  0
   21.0553   29.0854   -0.1572 O   0  0  0  0  0  0  0  0  0  0  0  0
   23.2953   27.4819   -0.4593 C   0  0  1  0  0  0  0  0  0  0  0  0
   22.8644   28.0441    0.7741 O   0  0  0  0  0  0  0  0  0  0  0  0
   18.5599   23.3510    1.6873 C   0  0  1  0  0  0  0  0  0  0  0  0
   19.0845   22.2405    2.3538 O   0  0  0  0  0  0  0  0  0  0  0  0
   20.4328   30.6986    1.5787 C   0  0  2  0  0  0  0  0  0  0  0  0
   21.0033   29.8784    2.5971 O   0  0  0  0  0  0  0  0  0  0  0  0
   19.0288   24.5813    2.3865 C   0  0  1  0  0  0  0  0  0  0  0  0
   18.4954   25.6853    1.7142 O   0  0  0  0  0  0  0  0  0  0  0  0
   19.2187   31.4577    2.1537 C   0  0  1  0  0  0  0  0  0  0  0  0
   19.6320   32.2918    3.2484 O   0  0  0  0  0  0  0  0  0  0  0  0
   18.5190   24.6285    3.8406 C   0  0  0  0  0  0  0  0  0  0  0  0
   18.5440   25.9744    4.3018 O   0  0  0  0  0  0  0  0  0  0  0  0
   17.7859   35.0752    2.6378 N   0  0  0  0  0  0  0  0  0  0  0  0
   17.1446   30.1313   -2.9315 N   0  0  0  0  0  0  0  0  0  0  0  0
  1  2  1  0  0  0  0
  1 39  1  0  0  0  0
  3  4  1  0  0  0  0
  5  6  1  0  0  0  0
  5 40  1  0  0  0  0
  9 10  1  1  0  0  0
  9 14  1  0  0  0  0
  9 35  1  0  0  0  0
 10  1  1  0  0  0  0
 11 16  1  0  0  0  0
 11 28  1  0  0  0  0
 11 26  1  6  0  0  0
 12 17  1  0  0  0  0
 12 34  1  0  0  0  0
 12 13  1  1  0  0  0
 14 15  1  6  0  0  0
 14 19  1  0  0  0  0
 16 13  1  1  0  0  0
 16 21  1  0  0  0  0
 17 18  1  6  0  0  0
 17 23  1  0  0  0  0
 18  8  1  0  0  0  0
 19 20  1  6  0  0  0
 19 25  1  0  0  0  0
 20  5  1  0  0  0  0
 21  3  1  6  0  0  0
 21 22  1  0  0  0  0
 21 27  1  0  0  0  0
 23 24  1  6  0  0  0
 23 29  1  0  0  0  0
 25 26  1  6  0  0  0
 25 31  1  0  0  0  0
 27  7  1  1  0  0  0
 27 28  1  0  0  0  0
 29 30  1  1  0  0  0
 29 33  1  0  0  0  0
 31 32  1  1  0  0  0
 31 35  1  0  0  0  0
 33 34  1  0  0  0  0
 33 37  1  1  0  0  0
 35 36  1  1  0  0  0
 37 38  1  0  0  0  0
M  END
>  <CHROM.1>
-120.32951982,75.30997310,110.99095371,96.46739337,109.53675939,-78.04985211
-15.56598696,-68.04318440,-137.02656097,-164.88855538,-158.51177980,19.67065430
28.07101407,0.39612491,1.87422237,0.75477180,-0.13783180

>  <Name>
1nta_lig

>  <RI>
0

>  <Rbt.Current_Directory>
/home/itssahil/PROJECTS/Mol_Feturizer/New_Systems/rnas/1nta

>  <Rbt.Executable>
rbdock ($Id: //depot/dev/client3/rdock/2013.1/src/exe/rbdock.cxx#4 $)

>  <Rbt.Library>
libRbt.so (2013.1, Build901 2013/11/27)

>  <Rbt.Parameter_File>
/export/apps/rDock/src/rDock_2013.1_src/data/scripts/dock_solv.prm

>  <Rbt.Receptor>
prm/blind_docking_60.prm

>  <SCORE>
5.44351

>  <SCORE.INTER>
5.30035

>  <SCORE.INTER.CONST>
1

>  <SCORE.INTER.POLAR>
-1.99136

>  <SCORE.INTER.ROT>
11

>  <SCORE.INTER.SOLV>
18.623

>  <SCORE.INTER.VDW>
-6.96957

>  <SCORE.INTER.norm>
0.132509

>  <SCORE.INTRA>
-8.70742

>  <SCORE.INTRA.DIHEDRAL>
9.71965

>  <SCORE.INTRA.DIHEDRAL.0>
19.0336

>  <SCORE.INTRA.POLAR>
0

>  <SCORE.INTRA.POLAR.0>
0

>  <SCORE.INTRA.REPUL>
0

>  <SCORE.INTRA.REPUL.0>
0

>  <SCORE.INTRA.SOLV>
-1.83788

>  <SCORE.INTRA.SOLV.lig_0>
-97.5861

>  <SCORE.INTRA.VDW>
-12.6483

>  <SCORE.INTRA.VDW.0>
11.7669

>  <SCORE.INTRA.norm>
-0.217685

>  <SCORE.RESTR>
8.85057

>  <SCORE.RESTR.CAVITY>
8.85057

>  <SCORE.RESTR.norm>
0.221264

>  <SCORE.SYSTEM>
0

>  <SCORE.SYSTEM.CONST>
0

>  <SCORE.SYSTEM.DIHEDRAL>
0

>  <SCORE.SYSTEM.SOLV>
0

>  <SCORE.SYSTEM.norm>
0

>  <SCORE.heavy>
40

>  <SCORE.norm>
0.136088

>  <RMSD>
20.296

$$$$
1nta_lig
 OpenBabel11021811403D
libRbt.so/2013.1/901 2013/11/27
 40 42  0  0  0  0  0  0  0  0999 V2000
   21.5876   22.9592   -4.3019 C   0  0  0  0  0  0  0  0  0  0  0  0
   22.0897   23.8269   -5.0989 N   0  0  0  0  0  0  0  0  0  0  0  0
   18.4108   27.6598    3.4527 C   0  0  0  0  0  0  0  0  0  0  0  0
   17.3749   27.7385    2.8298 O   0  0  0  0  0  0  0  0  0  0  0  0
   18.5282   22.8827    1.2406 C   0  0  0  0  0  0  0  0  0  0  0  0
   19.0209   21.9283    1.9863 N   0  0  0  0  0  0  0  0  0  0  0  0
   21.2977   28.1730    5.0224 C   0  0  0  0  0  0  0  0  0  0  0  0
   17.5333   25.8736   -0.6618 C   0  0  0  0  0  0  0  0  0  0  0  0
   20.9794   23.8081   -2.1782 C   0  0  2  0  0  0  0  0  0  0  0  0
   20.5649   23.3789   -3.5721 N   0  0  0  0  0  0  0  0  0  0  0  0
   21.2480   27.4069    1.5151 C   0  0  2  0  0  0  0  0  0  0  0  0
   19.5568   28.7510   -0.5498 C   0  0  1  0  0  0  0  0  0  0  0  0
   19.8359   29.1156    0.7566 O   0  0  0  0  0  0  0  0  0  0  0  0
   19.7803   23.7107   -1.2162 C   0  0  1  0  0  0  0  0  0  0  0  0
   19.4137   22.3655   -1.1510 O   0  0  0  0  0  0  0  0  0  0  0  0
   19.8807   28.0791    1.5767 C   0  0  2  0  0  0  0  0  0  0  0  0
   18.2171   28.0815   -0.7633 C   0  0  1  0  0  0  0  0  0  0  0  0
   18.1267   26.9575    0.1031 N   0  0  0  0  0  0  0  0  0  0  0  0
   20.1366   24.1566    0.2082 C   0  0  2  0  0  0  0  0  0  0  0  0
   19.0033   24.0801    1.1611 N   0  0  0  0  0  0  0  0  0  0  0  0
   19.7218   28.2618    3.0232 C   0  0  1  0  0  0  0  0  0  0  0  0
   19.7793   29.6662    3.2814 O   0  0  0  0  0  0  0  0  0  0  0  0
   17.1730   28.9518   -0.4828 C   0  0  2  0  0  0  0  0  0  0  0  0
   15.9921   28.3740   -0.9793 O   0  0  0  0  0  0  0  0  0  0  0  0
   20.6361   25.5911    0.1418 C   0  0  1  0  0  0  0  0  0  0  0  0
   20.9674   25.9970    1.4606 O   0  0  0  0  0  0  0  0  0  0  0  0
   20.8508   27.6175    3.7057 C   0  0  1  0  0  0  0  0  0  0  0  0
   21.8972   27.6450    2.7429 O   0  0  0  0  0  0  0  0  0  0  0  0
   17.4033   30.2803   -1.1539 C   0  0  1  0  0  0  0  0  0  0  0  0
   16.4746   31.2028   -0.6650 O   0  0  0  0  0  0  0  0  0  0  0  0
   21.8746   25.6858   -0.7940 C   0  0  2  0  0  0  0  0  0  0  0  0
   22.3344   27.0357   -0.8351 O   0  0  0  0  0  0  0  0  0  0  0  0
   18.7713   30.7774   -0.8315 C   0  0  1  0  0  0  0  0  0  0  0  0
   19.6920   29.8494   -1.3281 O   0  0  0  0  0  0  0  0  0  0  0  0
   21.4727   25.2390   -2.2153 C   0  0  1  0  0  0  0  0  0  0  0  0
   22.6048   25.3204   -3.0964 O   0  0  0  0  0  0  0  0  0  0  0  0
   19.0529   32.1286   -1.5180 C   0  0  0  0  0  0  0  0  0  0  0  0
   18.6522   32.0533   -2.8813 O   0  0  0  0  0  0  0  0  0  0  0  0
   22.0467   21.7580   -4.2089 N   0  0  0  0  0  0  0  0  0  0  0  0
   17.5149   22.6499    0.5021 N   0  0  0  0  0  0  0  0  0  0  0  0
  1  2  1  0  0  0  0
  1 39  1  0  0  0  0
  3  4  1  0  0  0  0
  5  6  1  0  0  0  0
  5 40  1  0  0  0  0
  9 10  1  6  0  0  0
  9 14  1  0  0  0  0
  9 35  1  0  0  0  0
 10  1  1  0  0  0  0
 11 16  1  0  0  0  0
 11 28  1  0  0  0  0
 11 26  1  1  0  0  0
 12 17  1  0  0  0  0
 12 34  1  0  0  0  0
 12 13  1  1  0  0  0
 14 15  1  1  0  0  0
 14 19  1  0  0  0  0
 16 13  1  6  0  0  0
 16 21  1  0  0  0  0
 17 18  1  1  0  0  0
 17 23  1  0  0  0  0
 18  8  1  0  0  0  0
 19 20  1  1  0  0  0
 19 25  1  0  0  0  0
 20  5  1  0  0  0  0
 21  3  1  1  0  0  0
 21 22  1  0  0  0  0
 21 27  1  0  0  0  0
 23 24  1  6  0  0  0
 23 29  1  0  0  0  0
 25 26  1  1  0  0  0
 25 31  1  0  0  0  0
 27  7  1  1  0  0  0
 27 28  1  0  0  0  0
 29 30  1  1  0  0  0
 29 33  1  0  0  0  0
 31 32  1  6  0  0  0
 31 35  1  0  0  0  0
 33 34  1  0  0  0  0
 33 37  1  6  0  0  0
 35 36  1  6  0  0  0
 37 38  1  0  0  0  0
M  END
>  <CHROM.1>
-156.15642276,-97.39714040,81.11864206,61.77387635,82.77243871,-137.88627487
58.28916119,82.79788954,-40.12104631,-170.89449032,-46.74785982,19.67659815
26.73329215,-0.13381440,0.10372344,1.28721836,-1.27212812

>  <Name>
1nta_lig

>  <RI>
9.25352e+06

>  <Rbt.Current_Directory>
/home/itssahil/PROJECTS/Mol_Feturizer/New_Systems/rnas/1nta

>  <Rbt.Executable>
rbdock ($Id: //depot/dev/client3/rdock/2013.1/src/exe/rbdock.cxx#4 $)

>  <Rbt.Library>
libRbt.so (2013.1, Build901 2013/11/27)

>  <Rbt.Parameter_File>
/export/apps/rDock/src/rDock_2013.1_src/data/scripts/dock_solv.prm

>  <Rbt.Receptor>
prm/blind_docking_40.prm

>  <SCORE>
-30.5567

>  <SCORE.INTER>
-15.9624

>  <SCORE.INTER.CONST>
1

>  <SCORE.INTER.POLAR>
-2.43078

>  <SCORE.INTER.ROT>
11

>  <SCORE.INTER.SOLV>
17.1472

>  <SCORE.INTER.VDW>
-19.1881

>  <SCORE.INTER.norm>
-0.39906

>  <SCORE.INTRA>
-15.111

>  <SCORE.INTRA.DIHEDRAL>
-9.81133

>  <SCORE.INTRA.DIHEDRAL.0>
19.0336

>  <SCORE.INTRA.POLAR>
0

>  <SCORE.INTRA.POLAR.0>
0

>  <SCORE.INTRA.REPUL>
0

>  <SCORE.INTRA.REPUL.0>
0

>  <SCORE.INTRA.SOLV>
1.53733

>  <SCORE.INTRA.SOLV.lig_0>
-97.5861

>  <SCORE.INTRA.VDW>
-10.974

>  <SCORE.INTRA.VDW.0>
11.7669

>  <SCORE.INTRA.norm>
-0.377775

>  <SCORE.RESTR>
0.516721

>  <SCORE.RESTR.CAVITY>
0.516721

>  <SCORE.RESTR.norm>
0.012918

>  <SCORE.SYSTEM>
0

>  <SCORE.SYSTEM.CONST>
0

>  <SCORE.SYSTEM.DIHEDRAL>
0

>  <SCORE.SYSTEM.SOLV>
0

>  <SCORE.SYSTEM.norm>
0

>  <SCORE.heavy>
40

>  <SCORE.norm>
-0.763917

>  <RMSD>
20.297

$$$$
1nta_lig
 OpenBabel11021811403D
libRbt.so/2013.1/901 2013/11/27
 40 42  0  0  0  0  0  0  0  0999 V2000
   18.1327   19.3023    2.6857 C   0  0  0  0  0  0  0  0  0  0  0  0
   19.1351   19.1485    3.4678 N   0  0  0  0  0  0  0  0  0  0  0  0
   18.7120   26.8646   -3.0984 C   0  0  0  0  0  0  0  0  0  0  0  0
   18.3807   27.2237   -4.2068 O   0  0  0  0  0  0  0  0  0  0  0  0
   18.5370   21.4781   -1.9179 C   0  0  0  0  0  0  0  0  0  0  0  0
   18.6001   20.1744   -1.8381 N   0  0  0  0  0  0  0  0  0  0  0  0
   15.6670   25.5636   -2.7873 C   0  0  0  0  0  0  0  0  0  0  0  0
   17.2113   31.0766   -0.4319 C   0  0  0  0  0  0  0  0  0  0  0  0
   17.3784   21.5048    2.2604 C   0  0  2  0  0  0  0  0  0  0  0  0
   17.2542   20.2212    3.0579 N   0  0  0  0  0  0  0  0  0  0  0  0
   18.0275   25.3271   -0.0924 C   0  0  2  0  0  0  0  0  0  0  0  0
   19.1958   28.7336   -0.2313 C   0  0  1  0  0  0  0  0  0  0  0  0
   18.5287   27.5976    0.1953 O   0  0  0  0  0  0  0  0  0  0  0  0
   17.3722   21.1930    0.7518 C   0  0  1  0  0  0  0  0  0  0  0  0
   16.1303   20.6304    0.4533 O   0  0  0  0  0  0  0  0  0  0  0  0
   18.5645   26.6206   -0.6954 C   0  0  2  0  0  0  0  0  0  0  0  0
   18.9621   29.9738    0.6031 C   0  0  1  0  0  0  0  0  0  0  0  0
   17.5624   30.2120    0.6822 N   0  0  0  0  0  0  0  0  0  0  0  0
   17.5193   22.4566   -0.1063 C   0  0  2  0  0  0  0  0  0  0  0  0
   17.5221   22.1931   -1.5652 N   0  0  0  0  0  0  0  0  0  0  0  0
   17.7770   26.7041   -1.9297 C   0  0  1  0  0  0  0  0  0  0  0  0
   16.8912   27.8170   -1.7925 O   0  0  0  0  0  0  0  0  0  0  0  0
   19.4653   29.8148    1.8867 C   0  0  2  0  0  0  0  0  0  0  0  0
   19.4823   31.0805    2.4971 O   0  0  0  0  0  0  0  0  0  0  0  0
   18.8222   23.1391    0.2794 C   0  0  1  0  0  0  0  0  0  0  0  0
   18.9514   24.3083   -0.5142 O   0  0  0  0  0  0  0  0  0  0  0  0
   16.9721   25.4829   -2.0578 C   0  0  1  0  0  0  0  0  0  0  0  0
   16.7965   25.0432   -0.7166 O   0  0  0  0  0  0  0  0  0  0  0  0
   20.8655   29.2622    1.8361 C   0  0  1  0  0  0  0  0  0  0  0  0
   21.2530   28.8888    3.1256 O   0  0  0  0  0  0  0  0  0  0  0  0
   18.8140   23.4957    1.7932 C   0  0  2  0  0  0  0  0  0  0  0  0
   20.0387   24.1437    2.1331 O   0  0  0  0  0  0  0  0  0  0  0  0
   20.8982   28.0507    0.9680 C   0  0  1  0  0  0  0  0  0  0  0  0
   20.5127   28.4363   -0.3197 O   0  0  0  0  0  0  0  0  0  0  0  0
   18.6744   22.2000    2.6195 C   0  0  1  0  0  0  0  0  0  0  0  0
   18.6659   22.5088    4.0229 O   0  0  0  0  0  0  0  0  0  0  0  0
   22.3216   27.4663    0.8746 C   0  0  0  0  0  0  0  0  0  0  0  0
   23.0360   28.1370   -0.1574 O   0  0  0  0  0  0  0  0  0  0  0  0
   17.9818   18.6083    1.6097 N   0  0  0  0  0  0  0  0  0  0  0  0
   19.5409   22.1352   -2.3501 N   0  0  0  0  0  0  0  0  0  0  0  0
  1  2  1  0  0  0  0
  1 39  1  0  0  0  0
  3  4  1  0  0  0  0
  5  6  1  0  0  0  0
  5 40  1  0  0  0  0
  9 10  1  1  0  0  0
  9 14  1  0  0  0  0
  9 35  1  0  0  0  0
 10  1  1  0  0  0  0
 11 16  1  0  0  0  0
 11 28  1  0  0  0  0
 11 26  1  6  0  0  0
 12 17  1  0  0  0  0
 12 34  1  0  0  0  0
 12 13  1  1  0  0  0
 14 15  1  6  0  0  0
 14 19  1  0  0  0  0
 16 13  1  1  0  0  0
 16 21  1  0  0  0  0
 17 18  1  1  0  0  0
 17 23  1  0  0  0  0
 18  8  1  0  0  0  0
 19 20  1  6  0  0  0
 19 25  1  0  0  0  0
 20  5  1  0  0  0  0
 21  3  1  6  0  0  0
 21 22  1  0  0  0  0
 21 27  1  0  0  0  0
 23 24  1  6  0  0  0
 23 29  1  0  0  0  0
 25 26  1  6  0  0  0
 25 31  1  0  0  0  0
 27  7  1  1  0  0  0
 27 28  1  0  0  0  0
 29 30  1  1  0  0  0
 29 33  1  0  0  0  0
 31 32  1  1  0  0  0
 31 35  1  0  0  0  0
 33 34  1  0  0  0  0
 33 37  1  6  0  0  0
 35 36  1  1  0  0  0
 37 38  1  0  0  0  0
M  END
>  <CHROM.1>
51.02584721,103.39077673,162.43343592,168.15924873,170.48138543,-90.49818313
-63.67483744,82.88103234,-164.56781867,72.39414035,-85.48316518,18.66641570
25.16897353,0.26992056,-1.93916736,-1.08321559,-0.43153149

>  <Name>
1nta_lig

>  <RI>
9.25352e+06

>  <Rbt.Current_Directory>
/home/itssahil/PROJECTS/Mol_Feturizer/New_Systems/rnas/1nta

>  <Rbt.Executable>
rbdock ($Id: //depot/dev/client3/rdock/2013.1/src/exe/rbdock.cxx#4 $)

>  <Rbt.Library>
libRbt.so (2013.1, Build901 2013/11/27)

>  <Rbt.Parameter_File>
/export/apps/rDock/src/rDock_2013.1_src/data/scripts/dock_solv.prm

>  <Rbt.Receptor>
prm/blind_docking_40.prm

>  <SCORE>
-21.4706

>  <SCORE.INTER>
-8.6027

>  <SCORE.INTER.CONST>
1

>  <SCORE.INTER.POLAR>
-0.0739852

>  <SCORE.INTER.ROT>
11

>  <SCORE.INTER.SOLV>
14.4849

>  <SCORE.INTER.VDW>
-21.2501

>  <SCORE.INTER.norm>
-0.215068

>  <SCORE.INTRA>
-16.4057

>  <SCORE.INTRA.DIHEDRAL>
-11.0189

>  <SCORE.INTRA.DIHEDRAL.0>
19.0336

>  <SCORE.INTRA.POLAR>
0

>  <SCORE.INTRA.POLAR.0>
0

>  <SCORE.INTRA.REPUL>
0

>  <SCORE.INTRA.REPUL.0>
0

>  <SCORE.INTRA.SOLV>
0.860992

>  <SCORE.INTRA.SOLV.lig_0>
-97.5861

>  <SCORE.INTRA.VDW>
-11.3268

>  <SCORE.INTRA.VDW.0>
11.7669

>  <SCORE.INTRA.norm>
-0.410143

>  <SCORE.RESTR>
3.53785

>  <SCORE.RESTR.CAVITY>
3.53785

>  <SCORE.RESTR.norm>
0.0884462

>  <SCORE.SYSTEM>
0

>  <SCORE.SYSTEM.CONST>
0

>  <SCORE.SYSTEM.DIHEDRAL>
0

>  <SCORE.SYSTEM.SOLV>
0

>  <SCORE.SYSTEM.norm>
0

>  <SCORE.heavy>
40

>  <SCORE.norm>
-0.536765

>  <RMSD>
20.302

$$$$
1nta_lig
 OpenBabel11021811403D
libRbt.so/2013.1/901 2013/11/27
 40 42  0  0  0  0  0  0  0  0999 V2000
   19.7932   33.8583   -0.9646 C   0  0  0  0  0  0  0  0  0  0  0  0
   20.1210   34.4516    0.1220 N   0  0  0  0  0  0  0  0  0  0  0  0
   17.7023   24.4631   -0.3422 C   0  0  0  0  0  0  0  0  0  0  0  0
   18.4523   23.5562   -0.0552 O   0  0  0  0  0  0  0  0  0  0  0  0
   19.5420   28.7449    2.0409 C   0  0  0  0  0  0  0  0  0  0  0  0
   19.4514   27.4583    2.2563 N   0  0  0  0  0  0  0  0  0  0  0  0
   15.2393   25.8113   -2.1247 C   0  0  0  0  0  0  0  0  0  0  0  0
   21.5714   27.0108    0.1481 C   0  0  0  0  0  0  0  0  0  0  0  0
   18.1777   32.1301   -0.9016 C   0  0  2  0  0  0  0  0  0  0  0  0
   18.5022   33.5972   -1.1052 N   0  0  0  0  0  0  0  0  0  0  0  0
   18.5417   27.2157   -2.2360 C   0  0  2  0  0  0  0  0  0  0  0  0
   21.0605   25.7668   -2.7531 C   0  0  1  0  0  0  0  0  0  0  0  0
   19.7564   25.3203   -2.8849 O   0  0  0  0  0  0  0  0  0  0  0  0
   19.2723   31.4595   -0.0501 C   0  0  1  0  0  0  0  0  0  0  0  0
   19.2520   32.0731    1.2033 O   0  0  0  0  0  0  0  0  0  0  0  0
   18.9611   25.7812   -1.9339 C   0  0  2  0  0  0  0  0  0  0  0  0
   21.7553   25.3674   -1.4699 C   0  0  1  0  0  0  0  0  0  0  0  0
   20.9626   25.7973   -0.3703 N   0  0  0  0  0  0  0  0  0  0  0  0
   19.0073   29.9640    0.1692 C   0  0  2  0  0  0  0  0  0  0  0  0
   20.0447   29.2846    0.9818 N   0  0  0  0  0  0  0  0  0  0  0  0
   17.6597   25.1553   -1.6781 C   0  0  1  0  0  0  0  0  0  0  0  0
   17.4109   24.2427   -2.7493 O   0  0  0  0  0  0  0  0  0  0  0  0
   21.9181   23.9910   -1.3971 C   0  0  2  0  0  0  0  0  0  0  0  0
   22.8154   23.7233   -0.3492 O   0  0  0  0  0  0  0  0  0  0  0  0
   18.9247   29.2953   -1.1938 C   0  0  1  0  0  0  0  0  0  0  0  0
   18.6761   27.9138   -0.9854 O   0  0  0  0  0  0  0  0  0  0  0  0
   16.6240   26.1956   -1.7042 C   0  0  1  0  0  0  0  0  0  0  0  0
   17.1678   27.2027   -2.5486 O   0  0  0  0  0  0  0  0  0  0  0  0
   22.4817   23.4608   -2.6892 C   0  0  1  0  0  0  0  0  0  0  0  0
   22.4092   22.0654   -2.6773 O   0  0  0  0  0  0  0  0  0  0  0  0
   17.7906   29.9401   -2.0405 C   0  0  2  0  0  0  0  0  0  0  0  0
   17.7220   29.2932   -3.3102 O   0  0  0  0  0  0  0  0  0  0  0  0
   21.6714   23.9620   -3.8359 C   0  0  1  0  0  0  0  0  0  0  0  0
   21.7540   25.3579   -3.8405 O   0  0  0  0  0  0  0  0  0  0  0  0
   18.0991   31.4381   -2.2458 C   0  0  1  0  0  0  0  0  0  0  0  0
   17.0618   32.0524   -3.0277 O   0  0  0  0  0  0  0  0  0  0  0  0
   22.2301   23.4561   -5.1806 C   0  0  0  0  0  0  0  0  0  0  0  0
   21.8543   24.3603   -6.2132 O   0  0  0  0  0  0  0  0  0  0  0  0
   20.6588   33.5307   -1.8622 N   0  0  0  0  0  0  0  0  0  0  0  0
   19.0908   29.5651    2.9070 N   0  0  0  0  0  0  0  0  0  0  0  0
  1  2  1  0  0  0  0
  1 39  1  0  0  0  0
  3  4  1  0  0  0  0
  5  6  1  0  0  0  0
  5 40  1  0  0  0  0
  9 10  1  6  0  0  0
  9 14  1  0  0  0  0
  9 35  1  0  0  0  0
 10  1  1  0  0  0  0
 11 16  1  0  0  0  0
 11 28  1  0  0  0  0
 11 26  1  1  0  0  0
 12 17  1  0  0  0  0
 12 34  1  0  0  0  0
 12 13  1  1  0  0  0
 14 15  1  1  0  0  0
 14 19  1  0  0  0  0
 16 13  1  6  0  0  0
 16 21  1  0  0  0  0
 17 18  1  1  0  0  0
 17 23  1  0  0  0  0
 18  8  1  0  0  0  0
 19 20  1  1  0  0  0
 19 25  1  0  0  0  0
 20  5  1  0  0  0  0
 21  3  1  1  0  0  0
 21 22  1  0  0  0  0
 21 27  1  0  0  0  0
 23 24  1  1  0  0  0
 23 29  1  0  0  0  0
 25 26  1  1  0  0  0
 25 31  1  0  0  0  0
 27  7  1  6  0  0  0
 27 28  1  0  0  0  0
 29 30  1  1  0  0  0
 29 33  1  0  0  0  0
 31 32  1  6  0  0  0
 31 35  1  0  0  0  0
 33 34  1  0  0  0  0
 33 37  1  6  0  0  0
 35 36  1  6  0  0  0
 37 38  1  0  0  0  0
M  END
>  <CHROM.1>
23.04124025,-105.54003304,153.10935347,60.79800488,79.29002850,-101.47857690
121.40032260,111.66809040,-61.07045362,178.16434058,-154.75100552,19.53014107
27.57505801,-1.45549432,-1.90158911,0.76450519,-2.64622733

>  <Name>
1nta_lig

>  <RI>
0

>  <Rbt.Current_Directory>
/home/itssahil/PROJECTS/Mol_Feturizer/New_Systems/rnas/1nta

>  <Rbt.Executable>
rbdock ($Id: //depot/dev/client3/rdock/2013.1/src/exe/rbdock.cxx#4 $)

>  <Rbt.Library>
libRbt.so (2013.1, Build901 2013/11/27)

>  <Rbt.Parameter_File>
/export/apps/rDock/src/rDock_2013.1_src/data/scripts/dock_solv.prm

>  <Rbt.Receptor>
prm/blind_docking_60.prm

>  <SCORE>
-26.7461

>  <SCORE.INTER>
-20.602

>  <SCORE.INTER.CONST>
1

>  <SCORE.INTER.POLAR>
-2.12247

>  <SCORE.INTER.ROT>
11

>  <SCORE.INTER.SOLV>
16.9598

>  <SCORE.INTER.VDW>
-23.2463

>  <SCORE.INTER.norm>
-0.515049

>  <SCORE.INTRA>
-9.22585

>  <SCORE.INTRA.DIHEDRAL>
-8.34392

>  <SCORE.INTRA.DIHEDRAL.0>
19.0336

>  <SCORE.INTRA.POLAR>
0

>  <SCORE.INTRA.POLAR.0>
0

>  <SCORE.INTRA.REPUL>
0

>  <SCORE.INTRA.REPUL.0>
0

>  <SCORE.INTRA.SOLV>
1.60003

>  <SCORE.INTRA.SOLV.lig_0>
-97.5861

>  <SCORE.INTRA.VDW>
-5.8539

>  <SCORE.INTRA.VDW.0>
11.7669

>  <SCORE.INTRA.norm>
-0.230646

>  <SCORE.RESTR>
3.08167

>  <SCORE.RESTR.CAVITY>
3.08167

>  <SCORE.RESTR.norm>
0.0770418

>  <SCORE.SYSTEM>
0

>  <SCORE.SYSTEM.CONST>
0

>  <SCORE.SYSTEM.DIHEDRAL>
0

>  <SCORE.SYSTEM.SOLV>
0

>  <SCORE.SYSTEM.norm>
0

>  <SCORE.heavy>
40

>  <SCORE.norm>
-0.668654

>  <RMSD>
20.310

$$$$
1nta_lig
 OpenBabel11021811403D
libRbt.so/2013.1/901 2013/11/27
 40 42  0  0  0  0  0  0  0  0999 V2000
   19.2857   32.8187    0.7129 C   0  0  0  0  0  0  0  0  0  0  0  0
   18.1095   32.8260    1.2195 N   0  0  0  0  0  0  0  0  0  0  0  0
   20.9290   24.3606   -2.6379 C   0  0  0  0  0  0  0  0  0  0  0  0
   21.9940   24.2102   -3.1950 O   0  0  0  0  0  0  0  0  0  0  0  0
   16.3265   28.7133    0.1766 C   0  0  0  0  0  0  0  0  0  0  0  0
   17.0609   28.4077    1.2144 N   0  0  0  0  0  0  0  0  0  0  0  0
   22.9049   25.7628   -0.3594 C   0  0  0  0  0  0  0  0  0  0  0  0
   18.7072   22.1722   -3.9870 C   0  0  0  0  0  0  0  0  0  0  0  0
   19.3314   31.3870   -1.1709 C   0  0  2  0  0  0  0  0  0  0  0  0
   19.3369   32.7959   -0.6105 N   0  0  0  0  0  0  0  0  0  0  0  0
   19.3452   26.2012   -0.1941 C   0  0  2  0  0  0  0  0  0  0  0  0
   17.6276   23.3680   -0.8491 C   0  0  1  0  0  0  0  0  0  0  0  0
   18.6713   23.9577   -0.1560 O   0  0  0  0  0  0  0  0  0  0  0  0
   17.9986   30.6903   -0.8375 C   0  0  1  0  0  0  0  0  0  0  0  0
   16.9884   31.4044   -1.4837 O   0  0  0  0  0  0  0  0  0  0  0  0
   19.3320   24.8418   -0.8847 C   0  0  2  0  0  0  0  0  0  0  0  0
   18.0219   22.2412   -1.7783 C   0  0  1  0  0  0  0  0  0  0  0  0
   19.0160   22.7184   -2.6762 N   0  0  0  0  0  0  0  0  0  0  0  0
   17.9460   29.2490   -1.3615 C   0  0  2  0  0  0  0  0  0  0  0  0
   16.6776   28.5456   -1.0540 N   0  0  0  0  0  0  0  0  0  0  0  0
   20.7584   24.6583   -1.1723 C   0  0  1  0  0  0  0  0  0  0  0  0
   21.2221   23.5869   -0.3481 O   0  0  0  0  0  0  0  0  0  0  0  0
   18.5351   21.1645   -1.0688 C   0  0  2  0  0  0  0  0  0  0  0  0
   18.5977   20.0679   -1.9454 O   0  0  0  0  0  0  0  0  0  0  0  0
   19.1041   28.4808   -0.7446 C   0  0  1  0  0  0  0  0  0  0  0  0
   19.0528   27.1502   -1.2350 O   0  0  0  0  0  0  0  0  0  0  0  0
   21.4763   25.8812   -0.7918 C   0  0  1  0  0  0  0  0  0  0  0  0
   20.6659   26.4541    0.2270 O   0  0  0  0  0  0  0  0  0  0  0  0
   17.6389   20.8279    0.0940 C   0  0  1  0  0  0  0  0  0  0  0  0
   18.2934   19.9114    0.9211 O   0  0  0  0  0  0  0  0  0  0  0  0
   20.4549   29.1559   -1.1162 C   0  0  2  0  0  0  0  0  0  0  0  0
   21.5286   28.4157   -0.5377 O   0  0  0  0  0  0  0  0  0  0  0  0
   17.3595   22.0586    0.8877 C   0  0  1  0  0  0  0  0  0  0  0  0
   16.7017   22.9666    0.0522 O   0  0  0  0  0  0  0  0  0  0  0  0
   20.4714   30.5968   -0.5642 C   0  0  1  0  0  0  0  0  0  0  0  0
   21.7135   31.2381   -0.8968 O   0  0  0  0  0  0  0  0  0  0  0  0
   16.4270   21.7582    2.0779 C   0  0  0  0  0  0  0  0  0  0  0  0
   17.1174   22.0273    3.2928 O   0  0  0  0  0  0  0  0  0  0  0  0
   20.3514   32.8277    1.4384 N   0  0  0  0  0  0  0  0  0  0  0  0
   15.1581   29.1950    0.3477 N   0  0  0  0  0  0  0  0  0  0  0  0
  1  2  1  0  0  0  0
  1 39  1  0  0  0  0
  3  4  1  0  0  0  0
  5  6  1  0  0  0  0
  5 40  1  0  0  0  0
  9 10  1  1  0  0  0
  9 14  1  0  0  0  0
  9 35  1  0  0  0  0
 10  1  1  0  0  0  0
 11 16  1  0  0  0  0
 11 28  1  0  0  0  0
 11 26  1  6  0  0  0
 12 17  1  0  0  0  0
 12 34  1  0  0  0  0
 12 13  1  1  0  0  0
 14 15  1  6  0  0  0
 14 19  1  0  0  0  0
 16 13  1  1  0  0  0
 16 21  1  0  0  0  0
 17 18  1  6  0  0  0
 17 23  1  0  0  0  0
 18  8  1  0  0  0  0
 19 20  1  1  0  0  0
 19 25  1  0  0  0  0
 20  5  1  0  0  0  0
 21  3  1  6  0  0  0
 21 22  1  0  0  0  0
 21 27  1  0  0  0  0
 23 24  1  6  0  0  0
 23 29  1  0  0  0  0
 25 26  1  6  0  0  0
 25 31  1  0  0  0  0
 27  7  1  1  0  0  0
 27 28  1  0  0  0  0
 29 30  1  1  0  0  0
 29 33  1  0  0  0  0
 31 32  1  1  0  0  0
 31 35  1  0  0  0  0
 33 34  1  0  0  0  0
 33 37  1  1  0  0  0
 35 36  1  6  0  0  0
 37 38  1  0  0  0  0
M  END
>  <CHROM.1>
64.42588129,-88.77892807,-176.82101570,80.62645516,123.55867368,-139.09639973
-46.30892170,-56.82464287,177.03749352,-139.11228752,117.05039084,18.97939341
26.31158725,-0.52314390,1.49717605,0.47470063,0.06654174

>  <Name>
1nta_lig

>  <RI>
0

>  <Rbt.Current_Directory>
/home/itssahil/PROJECTS/Mol_Feturizer/New_Systems/rnas/1nta

>  <Rbt.Executable>
rbdock ($Id: //depot/dev/client3/rdock/2013.1/src/exe/rbdock.cxx#4 $)

>  <Rbt.Library>
libRbt.so (2013.1, Build901 2013/11/27)

>  <Rbt.Parameter_File>
/export/apps/rDock/src/rDock_2013.1_src/data/scripts/dock_solv.prm

>  <Rbt.Receptor>
prm/blind_docking_60.prm

>  <SCORE>
1.53931

>  <SCORE.INTER>
3.68627

>  <SCORE.INTER.CONST>
1

>  <SCORE.INTER.POLAR>
0

>  <SCORE.INTER.ROT>
11

>  <SCORE.INTER.SOLV>
19.6242

>  <SCORE.INTER.VDW>
-15.0172

>  <SCORE.INTER.norm>
0.0921567

>  <SCORE.INTRA>
-3.87141

>  <SCORE.INTRA.DIHEDRAL>
3.51334

>  <SCORE.INTRA.DIHEDRAL.0>
19.0336

>  <SCORE.INTRA.POLAR>
0

>  <SCORE.INTRA.POLAR.0>
0

>  <SCORE.INTRA.REPUL>
0

>  <SCORE.INTRA.REPUL.0>
0

>  <SCORE.INTRA.SOLV>
1.60741

>  <SCORE.INTRA.SOLV.lig_0>
-97.5861

>  <SCORE.INTRA.VDW>
-6.43179

>  <SCORE.INTRA.VDW.0>
11.7669

>  <SCORE.INTRA.norm>
-0.0967853

>  <SCORE.RESTR>
1.72445

>  <SCORE.RESTR.CAVITY>
1.72445

>  <SCORE.RESTR.norm>
0.0431113

>  <SCORE.SYSTEM>
0

>  <SCORE.SYSTEM.CONST>
0

>  <SCORE.SYSTEM.DIHEDRAL>
0

>  <SCORE.SYSTEM.SOLV>
0

>  <SCORE.SYSTEM.norm>
0

>  <SCORE.heavy>
40

>  <SCORE.norm>
0.0384826

>  <RMSD>
20.314

$$$$
1nta_lig
 OpenBabel11021811403D
libRbt.so/2013.1/901 2013/11/27
 40 42  0  0  0  0  0  0  0  0999 V2000
   20.6431   31.7107   -0.3914 C   0  0  0  0  0  0  0  0  0  0  0  0
   20.2271   32.4299   -1.3660 N   0  0  0  0  0  0  0  0  0  0  0  0
   16.6742   25.6813   -2.6252 C   0  0  0  0  0  0  0  0  0  0  0  0
   15.6977   25.0308   -2.9261 O   0  0  0  0  0  0  0  0  0  0  0  0
   19.9720   26.7333    3.3674 C   0  0  0  0  0  0  0  0  0  0  0  0
   18.8567   26.5827    4.0331 N   0  0  0  0  0  0  0  0  0  0  0  0
   19.9278   26.3560   -2.7682 C   0  0  0  0  0  0  0  0  0  0  0  0
   19.3806   23.2660    3.1056 C   0  0  0  0  0  0  0  0  0  0  0  0
   19.1126   30.6029    1.0337 C   0  0  2  0  0  0  0  0  0  0  0  0
   19.9577   31.8261    0.7362 N   0  0  0  0  0  0  0  0  0  0  0  0
   18.3975   25.4414    0.3482 C   0  0  2  0  0  0  0  0  0  0  0  0
   18.7155   22.9165    0.0243 C   0  0  1  0  0  0  0  0  0  0  0  0
   17.4466   23.3898   -0.2647 O   0  0  0  0  0  0  0  0  0  0  0  0
   20.0157   29.4200    1.4314 C   0  0  1  0  0  0  0  0  0  0  0  0
   20.6671   29.7790    2.6124 O   0  0  0  0  0  0  0  0  0  0  0  0
   17.4382   24.6790   -0.5594 C   0  0  2  0  0  0  0  0  0  0  0  0
   18.8116   22.0214    1.2402 C   0  0  1  0  0  0  0  0  0  0  0  0
   18.2652   22.7110    2.3573 N   0  0  0  0  0  0  0  0  0  0  0  0
   19.2133   28.1446    1.7219 C   0  0  2  0  0  0  0  0  0  0  0  0
   20.0520   26.9832    2.1037 N   0  0  0  0  0  0  0  0  0  0  0  0
   17.8687   25.1475   -1.8808 C   0  0  1  0  0  0  0  0  0  0  0  0
   18.4669   24.0356   -2.5500 O   0  0  0  0  0  0  0  0  0  0  0  0
   18.1057   20.8418    1.0495 C   0  0  2  0  0  0  0  0  0  0  0  0
   18.4782   19.9528    2.0722 O   0  0  0  0  0  0  0  0  0  0  0  0
   18.4161   27.7953    0.4752 C   0  0  1  0  0  0  0  0  0  0  0  0
   17.6736   26.6177    0.7503 O   0  0  0  0  0  0  0  0  0  0  0  0
   18.8905   26.1865   -1.7019 C   0  0  1  0  0  0  0  0  0  0  0  0
   19.4777   25.8797   -0.4433 O   0  0  0  0  0  0  0  0  0  0  0  0
   18.4441   20.2388   -0.2886 C   0  0  1  0  0  0  0  0  0  0  0  0
   17.5521   19.1969   -0.5555 O   0  0  0  0  0  0  0  0  0  0  0  0
   17.4702   28.9701    0.0959 C   0  0  2  0  0  0  0  0  0  0  0  0
   16.7241   28.6197   -1.0685 O   0  0  0  0  0  0  0  0  0  0  0  0
   18.2955   21.2678   -1.3571 C   0  0  1  0  0  0  0  0  0  0  0  0
   19.1945   22.3030   -1.0823 O   0  0  0  0  0  0  0  0  0  0  0  0
   18.3147   30.2279   -0.1971 C   0  0  1  0  0  0  0  0  0  0  0  0
   17.4577   31.3258   -0.5508 O   0  0  0  0  0  0  0  0  0  0  0  0
   18.6533   20.6932   -2.7421 C   0  0  0  0  0  0  0  0  0  0  0  0
   20.0197   20.2958   -2.7451 O   0  0  0  0  0  0  0  0  0  0  0  0
   21.6632   30.9291   -0.4946 N   0  0  0  0  0  0  0  0  0  0  0  0
   21.0890   26.6583    3.9783 N   0  0  0  0  0  0  0  0  0  0  0  0
  1  2  1  0  0  0  0
  1 39  1  0  0  0  0
  3  4  1  0  0  0  0
  5  6  1  0  0  0  0
  5 40  1  0  0  0  0
  9 10  1  6  0  0  0
  9 14  1  0  0  0  0
  9 35  1  0  0  0  0
 10  1  1  0  0  0  0
 11 16  1  0  0  0  0
 11 28  1  0  0  0  0
 11 26  1  6  0  0  0
 12 17  1  0  0  0  0
 12 34  1  0  0  0  0
 12 13  1  6  0  0  0
 14 15  1  1  0  0  0
 14 19  1  0  0  0  0
 16 13  1  6  0  0  0
 16 21  1  0  0  0  0
 17 18  1  1  0  0  0
 17 23  1  0  0  0  0
 18  8  1  0  0  0  0
 19 20  1  6  0  0  0
 19 25  1  0  0  0  0
 20  5  1  0  0  0  0
 21  3  1  6  0  0  0
 21 22  1  0  0  0  0
 21 27  1  0  0  0  0
 23 24  1  1  0  0  0
 23 29  1  0  0  0  0
 25 26  1  1  0  0  0
 25 31  1  0  0  0  0
 27  7  1  6  0  0  0
 27 28  1  0  0  0  0
 29 30  1  6  0  0  0
 29 33  1  0  0  0  0
 31 32  1  6  0  0  0
 31 35  1  0  0  0  0
 33 34  1  0  0  0  0
 33 37  1  6  0  0  0
 35 36  1  1  0  0  0
 37 38  1  0  0  0  0
M  END
>  <CHROM.1>
70.96623850,107.85578054,-126.45403777,135.15305677,-39.67920504,-99.04327158
105.66516320,51.62348375,-61.43372054,-92.75758674,-62.48445476,18.77687720
25.76660347,0.07044512,1.18260361,-1.24446665,-0.26972942

>  <Name>
1nta_lig

>  <RI>
2.40834e+07

>  <Rbt.Current_Directory>
/home/itssahil/PROJECTS/Mol_Feturizer/New_Systems/rnas/1nta

>  <Rbt.Executable>
rbdock ($Id: //depot/dev/client3/rdock/2013.1/src/exe/rbdock.cxx#4 $)

>  <Rbt.Library>
libRbt.so (2013.1, Build901 2013/11/27)

>  <Rbt.Parameter_File>
/export/apps/rDock/src/rDock_2013.1_src/data/scripts/dock_solv.prm

>  <Rbt.Receptor>
prm/blind_docking_80.prm

>  <SCORE>
-14.4386

>  <SCORE.INTER>
-10.5454

>  <SCORE.INTER.CONST>
1

>  <SCORE.INTER.POLAR>
0

>  <SCORE.INTER.ROT>
11

>  <SCORE.INTER.SOLV>
14.7103

>  <SCORE.INTER.VDW>
-22.867

>  <SCORE.INTER.norm>
-0.263635

>  <SCORE.INTRA>
-4.01012

>  <SCORE.INTRA.DIHEDRAL>
3.1656

>  <SCORE.INTRA.DIHEDRAL.0>
19.0336

>  <SCORE.INTRA.POLAR>
0

>  <SCORE.INTRA.POLAR.0>
0

>  <SCORE.INTRA.REPUL>
0

>  <SCORE.INTRA.REPUL.0>
0

>  <SCORE.INTRA.SOLV>
0.957765

>  <SCORE.INTRA.SOLV.lig_0>
-97.5861

>  <SCORE.INTRA.VDW>
-6.0718

>  <SCORE.INTRA.VDW.0>
11.7669

>  <SCORE.INTRA.norm>
-0.100253

>  <SCORE.RESTR>
0.116941

>  <SCORE.RESTR.CAVITY>
0.116941

>  <SCORE.RESTR.norm>
0.00292352

>  <SCORE.SYSTEM>
0

>  <SCORE.SYSTEM.CONST>
0

>  <SCORE.SYSTEM.DIHEDRAL>
0

>  <SCORE.SYSTEM.SOLV>
0

>  <SCORE.SYSTEM.norm>
0

>  <SCORE.heavy>
40

>  <SCORE.norm>
-0.360964

>  <RMSD>
20.332

$$$$
1nta_lig
 OpenBabel11021811403D
libRbt.so/2013.1/901 2013/11/27
 40 42  0  0  0  0  0  0  0  0999 V2000
   18.9878   32.8751    0.0799 C   0  0  0  0  0  0  0  0  0  0  0  0
   20.0063   32.9933    0.8471 N   0  0  0  0  0  0  0  0  0  0  0  0
   19.3860   23.4331   -1.4986 C   0  0  0  0  0  0  0  0  0  0  0  0
   18.4252   23.9489   -2.0259 O   0  0  0  0  0  0  0  0  0  0  0  0
   17.0478   27.2674   -2.4958 C   0  0  0  0  0  0  0  0  0  0  0  0
   17.9281   27.0443   -3.4367 N   0  0  0  0  0  0  0  0  0  0  0  0
   22.4281   24.2328   -2.5790 C   0  0  0  0  0  0  0  0  0  0  0  0
   18.0984   22.4724    2.9860 C   0  0  0  0  0  0  0  0  0  0  0  0
   19.4914   31.2800   -1.5942 C   0  0  2  0  0  0  0  0  0  0  0  0
   19.2578   32.7276   -1.2085 N   0  0  0  0  0  0  0  0  0  0  0  0
   20.6474   26.4342   -0.3714 C   0  0  2  0  0  0  0  0  0  0  0  0
   19.0801   25.1527    2.1600 C   0  0  1  0  0  0  0  0  0  0  0  0
   20.2204   24.9596    1.3985 O   0  0  0  0  0  0  0  0  0  0  0  0
   18.1977   30.4661   -1.4025 C   0  0  1  0  0  0  0  0  0  0  0  0
   17.2490   30.9885   -2.2828 O   0  0  0  0  0  0  0  0  0  0  0  0
   20.0057   25.1357    0.1054 C   0  0  2  0  0  0  0  0  0  0  0  0
   19.0908   24.4926    3.5213 C   0  0  1  0  0  0  0  0  0  0  0  0
   19.3542   23.1054    3.3524 N   0  0  0  0  0  0  0  0  0  0  0  0
   18.3821   28.9844   -1.7563 C   0  0  2  0  0  0  0  0  0  0  0  0
   17.1567   28.1690   -1.5788 N   0  0  0  0  0  0  0  0  0  0  0  0
   20.5334   24.1835   -0.8773 C   0  0  1  0  0  0  0  0  0  0  0  0
   21.4324   23.3149   -0.1849 O   0  0  0  0  0  0  0  0  0  0  0  0
   20.0717   25.0416    4.3353 C   0  0  2  0  0  0  0  0  0  0  0  0
   19.8312   24.6011    5.6480 O   0  0  0  0  0  0  0  0  0  0  0  0
   19.4863   28.4232   -0.8744 C   0  0  1  0  0  0  0  0  0  0  0  0
   19.6550   27.0543   -1.2081 O   0  0  0  0  0  0  0  0  0  0  0  0
   21.2931   24.9258   -1.8909 C   0  0  1  0  0  0  0  0  0  0  0  0
   21.7294   26.0945   -1.2077 O   0  0  0  0  0  0  0  0  0  0  0  0
   20.0088   26.5458    4.2904 C   0  0  1  0  0  0  0  0  0  0  0  0
   21.1436   27.0665    4.9176 O   0  0  0  0  0  0  0  0  0  0  0  0
   20.8065   29.2142   -1.0980 C   0  0  2  0  0  0  0  0  0  0  0  0
   21.8318   28.6669   -0.2707 O   0  0  0  0  0  0  0  0  0  0  0  0
   20.0035   27.0079    2.8730 C   0  0  1  0  0  0  0  0  0  0  0  0
   18.8628   26.4846    2.2564 O   0  0  0  0  0  0  0  0  0  0  0  0
   20.5818   30.6939   -0.7226 C   0  0  1  0  0  0  0  0  0  0  0  0
   21.7922   31.4424   -0.9217 O   0  0  0  0  0  0  0  0  0  0  0  0
   19.9194   28.5446    2.7848 C   0  0  0  0  0  0  0  0  0  0  0  0
   21.2332   29.0795    2.6717 O   0  0  0  0  0  0  0  0  0  0  0  0
   17.7786   32.9024    0.5263 N   0  0  0  0  0  0  0  0  0  0  0  0
   15.9742   26.5800   -2.4575 N   0  0  0  0  0  0  0  0  0  0  0  0
  1  2  1  0  0  0  0
  1 39  1  0  0  0  0
  3  4  1  0  0  0  0
  5  6  1  0  0  0  0
  5 40  1  0  0  0  0
  9 10  1  1  0  0  0
  9 14  1  0  0  0  0
  9 35  1  0  0  0  0
 10  1  1  0  0  0  0
 11 16  1  0  0  0  0
 11 28  1  0  0  0  0
 11 26  1  6  0  0  0
 12 17  1  0  0  0  0
 12 34  1  0  0  0  0
 12 13  1  1  0  0  0
 14 15  1  6  0  0  0
 14 19  1  0  0  0  0
 16 13  1  1  0  0  0
 16 21  1  0  0  0  0
 17 18  1  6  0  0  0
 17 23  1  0  0  0  0
 18  8  1  0  0  0  0
 19 20  1  1  0  0  0
 19 25  1  0  0  0  0
 20  5  1  0  0  0  0
 21  3  1  6  0  0  0
 21 22  1  0  0  0  0
 21 27  1  0  0  0  0
 23 24  1  1  0  0  0
 23 29  1  0  0  0  0
 25 26  1  6  0  0  0
 25 31  1  0  0  0  0
 27  7  1  1  0  0  0
 27 28  1  0  0  0  0
 29 30  1  1  0  0  0
 29 33  1  0  0  0  0
 31 32  1  1  0  0  0
 31 35  1  0  0  0  0
 33 34  1  0  0  0  0
 33 37  1  1  0  0  0
 35 36  1  6  0  0  0
 37 38  1  0  0  0  0
M  END
>  <CHROM.1>
65.04574747,86.69498054,132.14922792,158.14109743,107.82735487,-81.27952225
143.02272897,2.94814753,53.91986184,-177.45640460,94.51596370,19.63872173
27.32052698,0.29205836,-2.17453666,1.39228695,-2.96606044

>  <Name>
1nta_lig

>  <RI>
2.40834e+07

>  <Rbt.Current_Directory>
/home/itssahil/PROJECTS/Mol_Feturizer/New_Systems/rnas/1nta

>  <Rbt.Executable>
rbdock ($Id: //depot/dev/client3/rdock/2013.1/src/exe/rbdock.cxx#4 $)

>  <Rbt.Library>
libRbt.so (2013.1, Build901 2013/11/27)

>  <Rbt.Parameter_File>
/export/apps/rDock/src/rDock_2013.1_src/data/scripts/dock_solv.prm

>  <Rbt.Receptor>
prm/blind_docking_80.prm

>  <SCORE>
-16.4806

>  <SCORE.INTER>
-4.83687

>  <SCORE.INTER.CONST>
1

>  <SCORE.INTER.POLAR>
0

>  <SCORE.INTER.ROT>
11

>  <SCORE.INTER.SOLV>
12.0915

>  <SCORE.INTER.VDW>
-18.1884

>  <SCORE.INTER.norm>
-0.120922

>  <SCORE.INTRA>
-13.1469

>  <SCORE.INTRA.DIHEDRAL>
1.65535

>  <SCORE.INTRA.DIHEDRAL.0>
19.0336

>  <SCORE.INTRA.POLAR>
0

>  <SCORE.INTRA.POLAR.0>
0

>  <SCORE.INTRA.REPUL>
0

>  <SCORE.INTRA.REPUL.0>
0

>  <SCORE.INTRA.SOLV>
-0.833489

>  <SCORE.INTRA.SOLV.lig_0>
-97.5861

>  <SCORE.INTRA.VDW>
-13.5578

>  <SCORE.INTRA.VDW.0>
11.7669

>  <SCORE.INTRA.norm>
-0.328672

>  <SCORE.RESTR>
1.50316

>  <SCORE.RESTR.CAVITY>
1.50316

>  <SCORE.RESTR.norm>
0.037579

>  <SCORE.SYSTEM>
0

>  <SCORE.SYSTEM.CONST>
0

>  <SCORE.SYSTEM.DIHEDRAL>
0

>  <SCORE.SYSTEM.SOLV>
0

>  <SCORE.SYSTEM.norm>
0

>  <SCORE.heavy>
40

>  <SCORE.norm>
-0.412015

>  <RMSD>
20.343

$$$$
1nta_lig
 OpenBabel11021811403D
libRbt.so/2013.1/901 2013/11/27
 40 42  0  0  0  0  0  0  0  0999 V2000
   18.5884   20.9609   -0.2552 C   0  0  0  0  0  0  0  0  0  0  0  0
   17.6771   20.0770   -0.4234 N   0  0  0  0  0  0  0  0  0  0  0  0
   20.8261   29.6320   -0.9129 C   0  0  0  0  0  0  0  0  0  0  0  0
   21.7809   29.5047   -0.1784 O   0  0  0  0  0  0  0  0  0  0  0  0
   21.6413   25.4520   -2.9976 C   0  0  0  0  0  0  0  0  0  0  0  0
   22.4729   24.6513   -3.6118 N   0  0  0  0  0  0  0  0  0  0  0  0
   18.0379   31.1815   -1.8544 C   0  0  0  0  0  0  0  0  0  0  0  0
   20.2643   30.6195    3.4932 C   0  0  0  0  0  0  0  0  0  0  0  0
   18.6795   22.7832   -1.7623 C   0  0  2  0  0  0  0  0  0  0  0  0
   19.1653   21.4037   -1.3623 N   0  0  0  0  0  0  0  0  0  0  0  0
   17.9483   27.7398   -0.8358 C   0  0  2  0  0  0  0  0  0  0  0  0
   20.0642   27.9438    2.0582 C   0  0  1  0  0  0  0  0  0  0  0  0
   18.9111   27.9313    1.2915 O   0  0  0  0  0  0  0  0  0  0  0  0
   19.8266   23.5802   -2.4121 C   0  0  1  0  0  0  0  0  0  0  0  0
   20.1862   22.9054   -3.5797 O   0  0  0  0  0  0  0  0  0  0  0  0
   19.1490   28.1514    0.0093 C   0  0  2  0  0  0  0  0  0  0  0  0
   19.8750   28.3389    3.5063 C   0  0  1  0  0  0  0  0  0  0  0  0
   19.2266   29.6037    3.5519 N   0  0  0  0  0  0  0  0  0  0  0  0
   19.3973   24.9967   -2.8169 C   0  0  2  0  0  0  0  0  0  0  0  0
   20.4791   25.7949   -3.4420 N   0  0  0  0  0  0  0  0  0  0  0  0
   19.3881   29.5113   -0.4848 C   0  0  1  0  0  0  0  0  0  0  0  0
   19.0658   30.4108    0.5778 O   0  0  0  0  0  0  0  0  0  0  0  0
   19.0964   27.4088    4.1805 C   0  0  2  0  0  0  0  0  0  0  0  0
   19.2102   27.6753    5.5557 O   0  0  0  0  0  0  0  0  0  0  0  0
   18.9053   25.7144   -1.5700 C   0  0  1  0  0  0  0  0  0  0  0  0
   18.5064   27.0220   -1.9505 O   0  0  0  0  0  0  0  0  0  0  0  0
   18.4768   29.7716   -1.6061 C   0  0  1  0  0  0  0  0  0  0  0  0
   17.3697   28.9141   -1.3571 O   0  0  0  0  0  0  0  0  0  0  0  0
   19.5845   26.0124    3.8970 C   0  0  1  0  0  0  0  0  0  0  0  0
   18.6489   25.0967    4.3853 O   0  0  0  0  0  0  0  0  0  0  0  0
   17.7175   24.9360   -0.9358 C   0  0  2  0  0  0  0  0  0  0  0  0
   17.2636   25.6296    0.2253 O   0  0  0  0  0  0  0  0  0  0  0  0
   19.7116   25.8122    2.4252 C   0  0  1  0  0  0  0  0  0  0  0  0
   20.6522   26.7303    1.9480 O   0  0  0  0  0  0  0  0  0  0  0  0
   18.1922   23.5235   -0.5349 C   0  0  1  0  0  0  0  0  0  0  0  0
   17.1077   22.7878    0.0546 O   0  0  0  0  0  0  0  0  0  0  0  0
   20.2291   24.3982    2.0946 C   0  0  0  0  0  0  0  0  0  0  0  0
   20.6345   24.3553    0.7312 O   0  0  0  0  0  0  0  0  0  0  0  0
   18.9284   21.3904    0.9119 N   0  0  0  0  0  0  0  0  0  0  0  0
   21.9523   25.9358   -1.8594 N   0  0  0  0  0  0  0  0  0  0  0  0
  1  2  1  0  0  0  0
  1 39  1  0  0  0  0
  3  4  1  0  0  0  0
  5  6  1  0  0  0  0
  5 40  1  0  0  0  0
  9 10  1  1  0  0  0
  9 14  1  0  0  0  0
  9 35  1  0  0  0  0
 10  1  1  0  0  0  0
 11 16  1  0  0  0  0
 11 28  1  0  0  0  0
 11 26  1  6  0  0  0
 12 17  1  0  0  0  0
 12 34  1  0  0  0  0
 12 13  1  1  0  0  0
 14 15  1  6  0  0  0
 14 19  1  0  0  0  0
 16 13  1  1  0  0  0
 16 21  1  0  0  0  0
 17 18  1  6  0  0  0
 17 23  1  0  0  0  0
 18  8  1  0  0  0  0
 19 20  1  1  0  0  0
 19 25  1  0  0  0  0
 20  5  1  0  0  0  0
 21  3  1  6  0  0  0
 21 22  1  0  0  0  0
 21 27  1  0  0  0  0
 23 24  1  1  0  0  0
 23 29  1  0  0  0  0
 25 26  1  6  0  0  0
 25 31  1  0  0  0  0
 27  7  1  1  0  0  0
 27 28  1  0  0  0  0
 29 30  1  6  0  0  0
 29 33  1  0  0  0  0
 31 32  1  1  0  0  0
 31 35  1  0  0  0  0
 33 34  1  0  0  0  0
 33 37  1  1  0  0  0
 35 36  1  6  0  0  0
 37 38  1  0  0  0  0
M  END
>  <CHROM.1>
145.87881405,103.85131513,76.21899405,152.84770134,163.78928527,-87.48290134
-29.90828891,99.13246917,-62.36442635,176.40325082,-166.28534618,19.36462465
26.18981520,0.13345905,1.82696625,-1.42778725,-2.42095282

>  <Name>
1nta_lig

>  <RI>
9.25352e+06

>  <Rbt.Current_Directory>
/home/itssahil/PROJECTS/Mol_Feturizer/New_Systems/rnas/1nta

>  <Rbt.Executable>
rbdock ($Id: //depot/dev/client3/rdock/2013.1/src/exe/rbdock.cxx#4 $)

>  <Rbt.Library>
libRbt.so (2013.1, Build901 2013/11/27)

>  <Rbt.Parameter_File>
/export/apps/rDock/src/rDock_2013.1_src/data/scripts/dock_solv.prm

>  <Rbt.Receptor>
prm/blind_docking_40.prm

>  <SCORE>
-9.44504

>  <SCORE.INTER>
-4.50339

>  <SCORE.INTER.CONST>
1

>  <SCORE.INTER.POLAR>
-0.960678

>  <SCORE.INTER.ROT>
11

>  <SCORE.INTER.SOLV>
18.7462

>  <SCORE.INTER.VDW>
-16.9821

>  <SCORE.INTER.norm>
-0.112585

>  <SCORE.INTRA>
-5.87391

>  <SCORE.INTRA.DIHEDRAL>
-9.8325

>  <SCORE.INTRA.DIHEDRAL.0>
19.0336

>  <SCORE.INTRA.POLAR>
0

>  <SCORE.INTRA.POLAR.0>
0

>  <SCORE.INTRA.REPUL>
0.12596

>  <SCORE.INTRA.REPUL.0>
0

>  <SCORE.INTRA.SOLV>
4.45147

>  <SCORE.INTRA.SOLV.lig_0>
-97.5861

>  <SCORE.INTRA.VDW>
-3.8132

>  <SCORE.INTRA.VDW.0>
11.7669

>  <SCORE.INTRA.norm>
-0.146848

>  <SCORE.RESTR>
0.932252

>  <SCORE.RESTR.CAVITY>
0.932252

>  <SCORE.RESTR.norm>
0.0233063

>  <SCORE.SYSTEM>
0

>  <SCORE.SYSTEM.CONST>
0

>  <SCORE.SYSTEM.DIHEDRAL>
0

>  <SCORE.SYSTEM.SOLV>
0

>  <SCORE.SYSTEM.norm>
0

>  <SCORE.heavy>
40

>  <SCORE.norm>
-0.236126

>  <RMSD>
20.359

$$$$
1nta_lig
 OpenBabel11021811403D
libRbt.so/2013.1/901 2013/11/27
 40 42  0  0  0  0  0  0  0  0999 V2000
   21.7388   22.8865   -4.3366 C   0  0  0  0  0  0  0  0  0  0  0  0
   22.1883   21.7128   -4.0904 N   0  0  0  0  0  0  0  0  0  0  0  0
   18.0093   27.2725    3.4058 C   0  0  0  0  0  0  0  0  0  0  0  0
   18.0908   26.0684    3.5098 O   0  0  0  0  0  0  0  0  0  0  0  0
   19.0270   23.4035    1.9223 C   0  0  0  0  0  0  0  0  0  0  0  0
   19.9876   23.5212    2.8017 N   0  0  0  0  0  0  0  0  0  0  0  0
   20.8150   28.5289    4.6749 C   0  0  0  0  0  0  0  0  0  0  0  0
   17.3696   27.0876   -2.5447 C   0  0  0  0  0  0  0  0  0  0  0  0
   20.9820   23.7822   -2.2810 C   0  0  2  0  0  0  0  0  0  0  0  0
   20.6566   23.2371   -3.6580 N   0  0  0  0  0  0  0  0  0  0  0  0
   20.6245   27.6589    1.1968 C   0  0  2  0  0  0  0  0  0  0  0  0
   19.2979   28.8007   -0.7032 C   0  0  1  0  0  0  0  0  0  0  0  0
   18.7686   28.9434    0.5684 O   0  0  0  0  0  0  0  0  0  0  0  0
   19.7402   23.7015   -1.3731 C   0  0  1  0  0  0  0  0  0  0  0  0
   19.4246   22.3498   -1.2271 O   0  0  0  0  0  0  0  0  0  0  0  0
   19.1456   27.9771    1.3889 C   0  0  2  0  0  0  0  0  0  0  0  0
   18.3352   29.0682   -1.8392 C   0  0  1  0  0  0  0  0  0  0  0  0
   17.1932   28.2372   -1.6733 N   0  0  0  0  0  0  0  0  0  0  0  0
   20.0053   24.2628    0.0302 C   0  0  2  0  0  0  0  0  0  0  0  0
   18.8288   24.2054    0.9306 N   0  0  0  0  0  0  0  0  0  0  0  0
   19.0841   28.1629    2.8424 C   0  0  1  0  0  0  0  0  0  0  0  0
   18.8170   29.5462    3.0814 O   0  0  0  0  0  0  0  0  0  0  0  0
   17.9293   30.3953   -1.8484 C   0  0  2  0  0  0  0  0  0  0  0  0
   17.2899   30.6364   -3.0765 O   0  0  0  0  0  0  0  0  0  0  0  0
   20.4500   25.7094   -0.1171 C   0  0  1  0  0  0  0  0  0  0  0  0
   20.6971   26.2222    1.1828 O   0  0  0  0  0  0  0  0  0  0  0  0
   20.3967   27.8377    3.4143 C   0  0  1  0  0  0  0  0  0  0  0  0
   21.3079   28.0891    2.3515 O   0  0  0  0  0  0  0  0  0  0  0  0
   19.1194   31.3085   -1.7135 C   0  0  1  0  0  0  0  0  0  0  0  0
   18.6684   32.6110   -1.4844 O   0  0  0  0  0  0  0  0  0  0  0  0
   21.7300   25.7908   -0.9968 C   0  0  2  0  0  0  0  0  0  0  0  0
   22.1371   27.1530   -1.1146 O   0  0  0  0  0  0  0  0  0  0  0  0
   19.9478   30.8879   -0.5476 C   0  0  1  0  0  0  0  0  0  0  0  0
   20.3965   29.5857   -0.7889 O   0  0  0  0  0  0  0  0  0  0  0  0
   21.4192   25.2268   -2.3991 C   0  0  1  0  0  0  0  0  0  0  0  0
   22.5907   25.2943   -3.2284 O   0  0  0  0  0  0  0  0  0  0  0  0
   21.1890   31.7880   -0.3880 C   0  0  0  0  0  0  0  0  0  0  0  0
   22.0902   31.5368   -1.4603 O   0  0  0  0  0  0  0  0  0  0  0  0
   22.2960   23.6755   -5.1906 N   0  0  0  0  0  0  0  0  0  0  0  0
   18.2150   22.4231    1.9992 N   0  0  0  0  0  0  0  0  0  0  0  0
  1  2  1  0  0  0  0
  1 39  1  0  0  0  0
  3  4  1  0  0  0  0
  5  6  1  0  0  0  0
  5 40  1  0  0  0  0
  9 10  1  6  0  0  0
  9 14  1  0  0  0  0
  9 35  1  0  0  0  0
 10  1  1  0  0  0  0
 11 16  1  0  0  0  0
 11 28  1  0  0  0  0
 11 26  1  1  0  0  0
 12 17  1  0  0  0  0
 12 34  1  0  0  0  0
 12 13  1  1  0  0  0
 14 15  1  1  0  0  0
 14 19  1  0  0  0  0
 16 13  1  6  0  0  0
 16 21  1  0  0  0  0
 17 18  1  1  0  0  0
 17 23  1  0  0  0  0
 18  8  1  0  0  0  0
 19 20  1  1  0  0  0
 19 25  1  0  0  0  0
 20  5  1  0  0  0  0
 21  3  1  1  0  0  0
 21 22  1  0  0  0  0
 21 27  1  0  0  0  0
 23 24  1  6  0  0  0
 23 29  1  0  0  0  0
 25 26  1  1  0  0  0
 25 31  1  0  0  0  0
 27  7  1  1  0  0  0
 27 28  1  0  0  0  0
 29 30  1  1  0  0  0
 29 33  1  0  0  0  0
 31 32  1  6  0  0  0
 31 35  1  0  0  0  0
 33 34  1  0  0  0  0
 33 37  1  6  0  0  0
 35 36  1  6  0  0  0
 37 38  1  0  0  0  0
M  END
>  <CHROM.1>
-159.99491766,84.04607809,85.44886540,137.15208967,41.91037448,-98.82061341
114.52391753,59.22498181,72.73138686,-158.12533771,-69.56648731,19.90252564
26.96986195,-0.30908401,-0.68408247,1.31862696,-0.54973949

>  <Name>
1nta_lig

>  <RI>
9.25352e+06

>  <Rbt.Current_Directory>
/home/itssahil/PROJECTS/Mol_Feturizer/New_Systems/rnas/1nta

>  <Rbt.Executable>
rbdock ($Id: //depot/dev/client3/rdock/2013.1/src/exe/rbdock.cxx#4 $)

>  <Rbt.Library>
libRbt.so (2013.1, Build901 2013/11/27)

>  <Rbt.Parameter_File>
/export/apps/rDock/src/rDock_2013.1_src/data/scripts/dock_solv.prm

>  <Rbt.Receptor>
prm/blind_docking_40.prm

>  <SCORE>
-32.4874

>  <SCORE.INTER>
-18.2682

>  <SCORE.INTER.CONST>
1

>  <SCORE.INTER.POLAR>
-2.67595

>  <SCORE.INTER.ROT>
11

>  <SCORE.INTER.SOLV>
15.61

>  <SCORE.INTER.VDW>
-19.3956

>  <SCORE.INTER.norm>
-0.456705

>  <SCORE.INTRA>
-15.2987

>  <SCORE.INTRA.DIHEDRAL>
-2.21164

>  <SCORE.INTRA.DIHEDRAL.0>
19.0336

>  <SCORE.INTRA.POLAR>
0

>  <SCORE.INTRA.POLAR.0>
0

>  <SCORE.INTRA.REPUL>
0.180386

>  <SCORE.INTRA.REPUL.0>
0

>  <SCORE.INTRA.SOLV>
-2.23435

>  <SCORE.INTRA.SOLV.lig_0>
-97.5861

>  <SCORE.INTRA.VDW>
-13.9776

>  <SCORE.INTRA.VDW.0>
11.7669

>  <SCORE.INTRA.norm>
-0.382467

>  <SCORE.RESTR>
1.07949

>  <SCORE.RESTR.CAVITY>
1.07949

>  <SCORE.RESTR.norm>
0.0269874

>  <SCORE.SYSTEM>
0

>  <SCORE.SYSTEM.CONST>
0

>  <SCORE.SYSTEM.DIHEDRAL>
0

>  <SCORE.SYSTEM.SOLV>
0

>  <SCORE.SYSTEM.norm>
0

>  <SCORE.heavy>
40

>  <SCORE.norm>
-0.812185

>  <RMSD>
20.371

$$$$
1nta_lig
 OpenBabel11021811403D
libRbt.so/2013.1/901 2013/11/27
 40 42  0  0  0  0  0  0  0  0999 V2000
   17.1960   33.4442   -1.2515 C   0  0  0  0  0  0  0  0  0  0  0  0
   16.0310   32.9610   -1.0291 N   0  0  0  0  0  0  0  0  0  0  0  0
   20.7912   26.1916    3.8523 C   0  0  0  0  0  0  0  0  0  0  0  0
   21.0412   26.4650    5.0055 O   0  0  0  0  0  0  0  0  0  0  0  0
   20.9236   30.2022    2.8592 C   0  0  0  0  0  0  0  0  0  0  0  0
   19.9991   30.7383    3.6127 N   0  0  0  0  0  0  0  0  0  0  0  0
   18.3233   28.3503    4.4099 C   0  0  0  0  0  0  0  0  0  0  0  0
   17.8197   21.4268    2.6045 C   0  0  0  0  0  0  0  0  0  0  0  0
   18.3088   31.3845   -0.9056 C   0  0  2  0  0  0  0  0  0  0  0  0
   18.0722   32.6018   -1.7780 N   0  0  0  0  0  0  0  0  0  0  0  0
   19.0983   27.3016    1.0647 C   0  0  2  0  0  0  0  0  0  0  0  0
   19.6296   23.8059    1.4370 C   0  0  1  0  0  0  0  0  0  0  0  0
   18.9058   24.9809    1.3226 O   0  0  0  0  0  0  0  0  0  0  0  0
   19.5940   31.5694   -0.0767 C   0  0  1  0  0  0  0  0  0  0  0  0
   19.3843   32.6595    0.7694 O   0  0  0  0  0  0  0  0  0  0  0  0
   19.5694   26.0341    1.7695 C   0  0  2  0  0  0  0  0  0  0  0  0
   18.9335   22.5639    0.9255 C   0  0  1  0  0  0  0  0  0  0  0  0
   17.6757   22.4457    1.5782 N   0  0  0  0  0  0  0  0  0  0  0  0
   19.8967   30.3544    0.8103 C   0  0  2  0  0  0  0  0  0  0  0  0
   21.1308   30.4961    1.6197 N   0  0  0  0  0  0  0  0  0  0  0  0
   19.4700   26.4401    3.1752 C   0  0  1  0  0  0  0  0  0  0  0  0
   18.4129   25.6784    3.7622 O   0  0  0  0  0  0  0  0  0  0  0  0
   18.7251   22.6363   -0.4447 C   0  0  2  0  0  0  0  0  0  0  0  0
   18.3567   21.3544   -0.8875 O   0  0  0  0  0  0  0  0  0  0  0  0
   20.0276   29.1354   -0.0890 C   0  0  1  0  0  0  0  0  0  0  0  0
   20.3039   28.0146    0.7363 O   0  0  0  0  0  0  0  0  0  0  0  0
   19.1045   27.8610    3.2299 C   0  0  1  0  0  0  0  0  0  0  0  0
   18.4075   28.0851    2.0105 O   0  0  0  0  0  0  0  0  0  0  0  0
   19.9873   23.0665   -1.1450 C   0  0  1  0  0  0  0  0  0  0  0  0
   19.6888   23.3621   -2.4776 O   0  0  0  0  0  0  0  0  0  0  0  0
   18.7152   28.9191   -0.8949 C   0  0  2  0  0  0  0  0  0  0  0  0
   18.8537   27.7663   -1.7239 O   0  0  0  0  0  0  0  0  0  0  0  0
   20.5258   24.2986   -0.5013 C   0  0  1  0  0  0  0  0  0  0  0  0
   20.8244   23.9906    0.8297 O   0  0  0  0  0  0  0  0  0  0  0  0
   18.4524   30.1563   -1.7790 C   0  0  1  0  0  0  0  0  0  0  0  0
   17.2429   29.9752   -2.5334 O   0  0  0  0  0  0  0  0  0  0  0  0
   21.8315   24.7599   -1.1786 C   0  0  0  0  0  0  0  0  0  0  0  0
   22.3383   25.8982   -0.4912 O   0  0  0  0  0  0  0  0  0  0  0  0
   17.5016   34.6665   -0.9783 N   0  0  0  0  0  0  0  0  0  0  0  0
   21.7181   29.3352    3.3524 N   0  0  0  0  0  0  0  0  0  0  0  0
  1  2  1  0  0  0  0
  1 39  1  0  0  0  0
  3  4  1  0  0  0  0
  5  6  1  0  0  0  0
  5 40  1  0  0  0  0
  9 10  1  6  0  0  0
  9 14  1  0  0  0  0
  9 35  1  0  0  0  0
 10  1  1  0  0  0  0
 11 16  1  0  0  0  0
 11 28  1  0  0  0  0
 11 26  1  1  0  0  0
 12 17  1  0  0  0  0
 12 34  1  0  0  0  0
 12 13  1  6  0  0  0
 14 15  1  1  0  0  0
 14 19  1  0  0  0  0
 16 13  1  1  0  0  0
 16 21  1  0  0  0  0
 17 18  1  1  0  0  0
 17 23  1  0  0  0  0
 18  8  1  0  0  0  0
 19 20  1  6  0  0  0
 19 25  1  0  0  0  0
 20  5  1  0  0  0  0
 21  3  1  1  0  0  0
 21 22  1  0  0  0  0
 21 27  1  0  0  0  0
 23 24  1  6  0  0  0
 23 29  1  0  0  0  0
 25 26  1  1  0  0  0
 25 31  1  0  0  0  0
 27  7  1  1  0  0  0
 27 28  1  0  0  0  0
 29 30  1  6  0  0  0
 29 33  1  0  0  0  0
 31 32  1  6  0  0  0
 31 35  1  0  0  0  0
 33 34  1  0  0  0  0
 33 37  1  6  0  0  0
 35 36  1  1  0  0  0
 37 38  1  0  0  0  0
M  END
>  <CHROM.1>
-98.58592923,-59.17239386,172.02839592,-179.20380004,152.97573212,-102.55789529
130.72289551,-54.10781733,177.45354214,95.15238803,-177.28176601,19.32287664
27.48204841,0.76834722,1.94643426,-1.28771557,0.24842081

>  <Name>
1nta_lig

>  <RI>
9.25352e+06

>  <Rbt.Current_Directory>
/home/itssahil/PROJECTS/Mol_Feturizer/New_Systems/rnas/1nta

>  <Rbt.Executable>
rbdock ($Id: //depot/dev/client3/rdock/2013.1/src/exe/rbdock.cxx#4 $)

>  <Rbt.Library>
libRbt.so (2013.1, Build901 2013/11/27)

>  <Rbt.Parameter_File>
/export/apps/rDock/src/rDock_2013.1_src/data/scripts/dock_solv.prm

>  <Rbt.Receptor>
prm/blind_docking_40.prm

>  <SCORE>
-19.3433

>  <SCORE.INTER>
-5.88847

>  <SCORE.INTER.CONST>
1

>  <SCORE.INTER.POLAR>
0

>  <SCORE.INTER.ROT>
11

>  <SCORE.INTER.SOLV>
12.9474

>  <SCORE.INTER.VDW>
-19.1748

>  <SCORE.INTER.norm>
-0.147212

>  <SCORE.INTRA>
-14.8718

>  <SCORE.INTRA.DIHEDRAL>
-6.32249

>  <SCORE.INTRA.DIHEDRAL.0>
19.0336

>  <SCORE.INTRA.POLAR>
0

>  <SCORE.INTRA.POLAR.0>
0

>  <SCORE.INTRA.REPUL>
0

>  <SCORE.INTRA.REPUL.0>
0

>  <SCORE.INTRA.SOLV>
2.6736

>  <SCORE.INTRA.SOLV.lig_0>
-97.5861

>  <SCORE.INTRA.VDW>
-13.0474

>  <SCORE.INTRA.VDW.0>
11.7669

>  <SCORE.INTRA.norm>
-0.371795

>  <SCORE.RESTR>
1.41699

>  <SCORE.RESTR.CAVITY>
1.41699

>  <SCORE.RESTR.norm>
0.0354248

>  <SCORE.SYSTEM>
0

>  <SCORE.SYSTEM.CONST>
0

>  <SCORE.SYSTEM.DIHEDRAL>
0

>  <SCORE.SYSTEM.SOLV>
0

>  <SCORE.SYSTEM.norm>
0

>  <SCORE.heavy>
40

>  <SCORE.norm>
-0.483582

>  <RMSD>
20.376

$$$$
1nta_lig
 OpenBabel11021811403D
libRbt.so/2013.1/901 2013/11/27
 40 42  0  0  0  0  0  0  0  0999 V2000
   18.9202   34.0157    0.9682 C   0  0  0  0  0  0  0  0  0  0  0  0
   18.6500   35.2166    0.6149 N   0  0  0  0  0  0  0  0  0  0  0  0
   16.8773   24.5583   -0.4169 C   0  0  0  0  0  0  0  0  0  0  0  0
   17.3158   23.4872   -0.0596 O   0  0  0  0  0  0  0  0  0  0  0  0
   21.7962   27.8138   -0.1895 C   0  0  0  0  0  0  0  0  0  0  0  0
   21.1552   26.8798    0.4637 N   0  0  0  0  0  0  0  0  0  0  0  0
   15.1268   26.4140   -2.5508 C   0  0  0  0  0  0  0  0  0  0  0  0
   19.6669   22.0430   -4.9836 C   0  0  0  0  0  0  0  0  0  0  0  0
   19.3062   31.7920    0.2563 C   0  0  2  0  0  0  0  0  0  0  0  0
   19.5357   33.2774    0.0567 N   0  0  0  0  0  0  0  0  0  0  0  0
   18.6181   27.0620   -2.0200 C   0  0  2  0  0  0  0  0  0  0  0  0
   19.5497   23.5835   -2.2858 C   0  0  1  0  0  0  0  0  0  0  0  0
   19.4937   24.9472   -2.5199 O   0  0  0  0  0  0  0  0  0  0  0  0
   20.4061   30.9858   -0.4602 C   0  0  1  0  0  0  0  0  0  0  0  0
   21.6181   31.3104    0.1511 O   0  0  0  0  0  0  0  0  0  0  0  0
   18.6573   25.5702   -1.7066 C   0  0  2  0  0  0  0  0  0  0  0  0
   20.6319   22.8410   -3.0383 C   0  0  1  0  0  0  0  0  0  0  0  0
   20.4851   23.1074   -4.4274 N   0  0  0  0  0  0  0  0  0  0  0  0
   20.2107   29.4711   -0.3113 C   0  0  2  0  0  0  0  0  0  0  0  0
   21.2499   28.6631   -0.9933 N   0  0  0  0  0  0  0  0  0  0  0  0
   17.2275   25.2440   -1.7103 C   0  0  1  0  0  0  0  0  0  0  0  0
   16.9866   24.4088   -2.8445 O   0  0  0  0  0  0  0  0  0  0  0  0
   21.8942   23.2505   -2.6319 C   0  0  2  0  0  0  0  0  0  0  0  0
   22.8252   22.3293   -3.1416 O   0  0  0  0  0  0  0  0  0  0  0  0
   18.8473   29.1135   -0.8816 C   0  0  1  0  0  0  0  0  0  0  0  0
   18.6704   27.7129   -0.7381 O   0  0  0  0  0  0  0  0  0  0  0  0
   16.4620   26.4857   -1.8770 C   0  0  1  0  0  0  0  0  0  0  0  0
   17.3534   27.3500   -2.5707 O   0  0  0  0  0  0  0  0  0  0  0  0
   21.9797   23.2716   -1.1283 C   0  0  1  0  0  0  0  0  0  0  0  0
   23.1635   23.9102   -0.7499 O   0  0  0  0  0  0  0  0  0  0  0  0
   17.7300   29.8923   -0.1306 C   0  0  2  0  0  0  0  0  0  0  0  0
   16.4592   29.5360   -0.6723 O   0  0  0  0  0  0  0  0  0  0  0  0
   20.8325   24.0423   -0.5691 C   0  0  1  0  0  0  0  0  0  0  0  0
   19.6542   23.3930   -0.9503 O   0  0  0  0  0  0  0  0  0  0  0  0
   17.9569   31.4077   -0.3127 C   0  0  1  0  0  0  0  0  0  0  0  0
   16.9328   32.1456    0.3740 O   0  0  0  0  0  0  0  0  0  0  0  0
   20.8737   24.0698    0.9716 C   0  0  0  0  0  0  0  0  0  0  0  0
   19.7378   24.7759    1.4575 O   0  0  0  0  0  0  0  0  0  0  0  0
   18.6114   33.5504    2.1302 N   0  0  0  0  0  0  0  0  0  0  0  0
   23.0549   27.9461   -0.0324 N   0  0  0  0  0  0  0  0  0  0  0  0
  1  2  1  0  0  0  0
  1 39  1  0  0  0  0
  3  4  1  0  0  0  0
  5  6  1  0  0  0  0
  5 40  1  0  0  0  0
  9 10  1  6  0  0  0
  9 14  1  0  0  0  0
  9 35  1  0  0  0  0
 10  1  1  0  0  0  0
 11 16  1  0  0  0  0
 11 28  1  0  0  0  0
 11 26  1  1  0  0  0
 12 17  1  0  0  0  0
 12 34  1  0  0  0  0
 12 13  1  1  0  0  0
 14 15  1  1  0  0  0
 14 19  1  0  0  0  0
 16 13  1  6  0  0  0
 16 21  1  0  0  0  0
 17 18  1  6  0  0  0
 17 23  1  0  0  0  0
 18  8  1  0  0  0  0
 19 20  1  6  0  0  0
 19 25  1  0  0  0  0
 20  5  1  0  0  0  0
 21  3  1  1  0  0  0
 21 22  1  0  0  0  0
 21 27  1  0  0  0  0
 23 24  1  6  0  0  0
 23 29  1  0  0  0  0
 25 26  1  1  0  0  0
 25 31  1  0  0  0  0
 27  7  1  6  0  0  0
 27 28  1  0  0  0  0
 29 30  1  6  0  0  0
 29 33  1  0  0  0  0
 31 32  1  6  0  0  0
 31 35  1  0  0  0  0
 33 34  1  0  0  0  0
 33 37  1  1  0  0  0
 35 36  1  1  0  0  0
 37 38  1  0  0  0  0
M  END
>  <CHROM.1>
-159.37881802,-155.38256578,171.03999955,-171.36738713,-179.15410312,-93.34297691
126.60927001,58.68567289,-63.70752199,-114.11826392,-178.05282655,19.39827702
27.11992354,-0.99450091,-1.71970353,0.20266508,-2.83272404

>  <Name>
1nta_lig

>  <RI>
0

>  <Rbt.Current_Directory>
/home/itssahil/PROJECTS/Mol_Feturizer/New_Systems/rnas/1nta

>  <Rbt.Executable>
rbdock ($Id: //depot/dev/client3/rdock/2013.1/src/exe/rbdock.cxx#4 $)

>  <Rbt.Library>
libRbt.so (2013.1, Build901 2013/11/27)

>  <Rbt.Parameter_File>
/export/apps/rDock/src/rDock_2013.1_src/data/scripts/dock_solv.prm

>  <Rbt.Receptor>
prm/blind_docking_60.prm

>  <SCORE>
-21.8919

>  <SCORE.INTER>
-5.93528

>  <SCORE.INTER.CONST>
1

>  <SCORE.INTER.POLAR>
0

>  <SCORE.INTER.ROT>
11

>  <SCORE.INTER.SOLV>
16.7281

>  <SCORE.INTER.VDW>
-20.4662

>  <SCORE.INTER.norm>
-0.148382

>  <SCORE.INTRA>
-17.4692

>  <SCORE.INTRA.DIHEDRAL>
-7.31532

>  <SCORE.INTRA.DIHEDRAL.0>
19.0336

>  <SCORE.INTRA.POLAR>
0

>  <SCORE.INTRA.POLAR.0>
0

>  <SCORE.INTRA.REPUL>
0

>  <SCORE.INTRA.REPUL.0>
0

>  <SCORE.INTRA.SOLV>
1.70911

>  <SCORE.INTRA.SOLV.lig_0>
-97.5861

>  <SCORE.INTRA.VDW>
-14.6661

>  <SCORE.INTRA.VDW.0>
11.7669

>  <SCORE.INTRA.norm>
-0.43673

>  <SCORE.RESTR>
1.51257

>  <SCORE.RESTR.CAVITY>
1.51257

>  <SCORE.RESTR.norm>
0.0378142

>  <SCORE.SYSTEM>
0

>  <SCORE.SYSTEM.CONST>
0

>  <SCORE.SYSTEM.DIHEDRAL>
0

>  <SCORE.SYSTEM.SOLV>
0

>  <SCORE.SYSTEM.norm>
0

>  <SCORE.heavy>
40

>  <SCORE.norm>
-0.547298

>  <RMSD>
20.387

$$$$
1nta_lig
 OpenBabel11021811403D
libRbt.so/2013.1/901 2013/11/27
 40 42  0  0  0  0  0  0  0  0999 V2000
   17.9868   31.9300   -2.6351 C   0  0  0  0  0  0  0  0  0  0  0  0
   18.0562   31.6438   -3.8814 N   0  0  0  0  0  0  0  0  0  0  0  0
   20.5410   25.2095    3.7768 C   0  0  0  0  0  0  0  0  0  0  0  0
   20.8507   25.2057    4.9478 O   0  0  0  0  0  0  0  0  0  0  0  0
   20.4377   30.3194    1.9951 C   0  0  0  0  0  0  0  0  0  0  0  0
   21.4496   29.5483    2.2973 N   0  0  0  0  0  0  0  0  0  0  0  0
   17.9679   26.9686    4.9370 C   0  0  0  0  0  0  0  0  0  0  0  0
   17.4464   20.5755    1.8096 C   0  0  0  0  0  0  0  0  0  0  0  0
   17.2760   30.2786   -1.0961 C   0  0  2  0  0  0  0  0  0  0  0  0
   16.9307   31.4484   -1.9969 N   0  0  0  0  0  0  0  0  0  0  0  0
   18.5450   26.7091    1.4029 C   0  0  2  0  0  0  0  0  0  0  0  0
   19.2973   23.2093    1.1724 C   0  0  1  0  0  0  0  0  0  0  0  0
   18.5538   24.3775    1.1733 O   0  0  0  0  0  0  0  0  0  0  0  0
   18.0525   30.7733    0.1390 C   0  0  1  0  0  0  0  0  0  0  0  0
   17.1979   31.6156    0.8518 O   0  0  0  0  0  0  0  0  0  0  0  0
   19.1685   25.3726    1.7905 C   0  0  2  0  0  0  0  0  0  0  0  0
   18.6522   22.0314    0.4758 C   0  0  1  0  0  0  0  0  0  0  0  0
   17.3692   21.8110    1.0482 N   0  0  0  0  0  0  0  0  0  0  0  0
   18.4499   29.6257    1.0771 C   0  0  2  0  0  0  0  0  0  0  0  0
   19.2038   30.0654    2.2756 N   0  0  0  0  0  0  0  0  0  0  0  0
   19.1535   25.4689    3.2538 C   0  0  1  0  0  0  0  0  0  0  0  0
   18.2100   24.5079    3.7317 O   0  0  0  0  0  0  0  0  0  0  0  0
   18.5038   22.2740   -0.8826 C   0  0  2  0  0  0  0  0  0  0  0  0
   18.1838   21.0531   -1.5006 O   0  0  0  0  0  0  0  0  0  0  0  0
   19.2995   28.6435    0.2864 C   0  0  1  0  0  0  0  0  0  0  0  0
   19.6610   27.5830    1.1573 O   0  0  0  0  0  0  0  0  0  0  0  0
   18.6852   26.8078    3.6326 C   0  0  1  0  0  0  0  0  0  0  0  0
   17.8756   27.2132    2.5357 O   0  0  0  0  0  0  0  0  0  0  0  0
   19.7864   22.8100   -1.4625 C   0  0  1  0  0  0  0  0  0  0  0  0
   19.5415   23.2679   -2.7597 O   0  0  0  0  0  0  0  0  0  0  0  0
   18.5026   28.1076   -0.9370 C   0  0  2  0  0  0  0  0  0  0  0  0
   19.3117   27.1809   -1.6594 O   0  0  0  0  0  0  0  0  0  0  0  0
   20.2685   23.9587   -0.6437 C   0  0  1  0  0  0  0  0  0  0  0  0
   20.5138   23.4888    0.6503 O   0  0  0  0  0  0  0  0  0  0  0  0
   18.1313   29.2887   -1.8580 C   0  0  1  0  0  0  0  0  0  0  0  0
   17.3943   28.8134   -2.9964 O   0  0  0  0  0  0  0  0  0  0  0  0
   21.5927   24.5233   -1.1949 C   0  0  0  0  0  0  0  0  0  0  0  0
   22.6017   23.5240   -1.1031 O   0  0  0  0  0  0  0  0  0  0  0  0
   18.8800   32.6429   -2.0382 N   0  0  0  0  0  0  0  0  0  0  0  0
   20.6424   31.4275    1.3979 N   0  0  0  0  0  0  0  0  0  0  0  0
  1  2  1  0  0  0  0
  1 39  1  0  0  0  0
  3  4  1  0  0  0  0
  5  6  1  0  0  0  0
  5 40  1  0  0  0  0
  9 10  1  6  0  0  0
  9 14  1  0  0  0  0
  9 35  1  0  0  0  0
 10  1  1  0  0  0  0
 11 16  1  0  0  0  0
 11 28  1  0  0  0  0
 11 26  1  1  0  0  0
 12 17  1  0  0  0  0
 12 34  1  0  0  0  0
 12 13  1  6  0  0  0
 14 15  1  1  0  0  0
 14 19  1  0  0  0  0
 16 13  1  1  0  0  0
 16 21  1  0  0  0  0
 17 18  1  1  0  0  0
 17 23  1  0  0  0  0
 18  8  1  0  0  0  0
 19 20  1  1  0  0  0
 19 25  1  0  0  0  0
 20  5  1  0  0  0  0
 21  3  1  1  0  0  0
 21 22  1  0  0  0  0
 21 27  1  0  0  0  0
 23 24  1  6  0  0  0
 23 29  1  0  0  0  0
 25 26  1  1  0  0  0
 25 31  1  0  0  0  0
 27  7  1  1  0  0  0
 27 28  1  0  0  0  0
 29 30  1  6  0  0  0
 29 33  1  0  0  0  0
 31 32  1  6  0  0  0
 31 35  1  0  0  0  0
 33 34  1  0  0  0  0
 33 37  1  6  0  0  0
 35 36  1  6  0  0  0
 37 38  1  0  0  0  0
M  END
>  <CHROM.1>
72.22440345,105.85443201,155.81817149,-179.75387431,162.38689260,-109.59646620
-77.67588107,-104.75326296,-179.27411814,74.29985474,-63.25291095,19.01097263
26.72236254,0.48656670,2.36247866,-1.43963627,0.60662624

>  <Name>
1nta_lig

>  <RI>
2.40834e+07

>  <Rbt.Current_Directory>
/home/itssahil/PROJECTS/Mol_Feturizer/New_Systems/rnas/1nta

>  <Rbt.Executable>
rbdock ($Id: //depot/dev/client3/rdock/2013.1/src/exe/rbdock.cxx#4 $)

>  <Rbt.Library>
libRbt.so (2013.1, Build901 2013/11/27)

>  <Rbt.Parameter_File>
/export/apps/rDock/src/rDock_2013.1_src/data/scripts/dock_solv.prm

>  <Rbt.Receptor>
prm/blind_docking_80.prm

>  <SCORE>
-28.0545

>  <SCORE.INTER>
-12.8825

>  <SCORE.INTER.CONST>
1

>  <SCORE.INTER.POLAR>
-1.09053

>  <SCORE.INTER.ROT>
11

>  <SCORE.INTER.SOLV>
20.97

>  <SCORE.INTER.VDW>
-22.8765

>  <SCORE.INTER.norm>
-0.322062

>  <SCORE.INTRA>
-15.6709

>  <SCORE.INTRA.DIHEDRAL>
-11.5469

>  <SCORE.INTRA.DIHEDRAL.0>
19.0336

>  <SCORE.INTRA.POLAR>
0

>  <SCORE.INTRA.POLAR.0>
0

>  <SCORE.INTRA.REPUL>
0.00679543

>  <SCORE.INTRA.REPUL.0>
0

>  <SCORE.INTRA.SOLV>
0.762856

>  <SCORE.INTRA.SOLV.lig_0>
-97.5861

>  <SCORE.INTRA.VDW>
-10.3128

>  <SCORE.INTRA.VDW.0>
11.7669

>  <SCORE.INTRA.norm>
-0.391772

>  <SCORE.RESTR>
0.498802

>  <SCORE.RESTR.CAVITY>
0.498802

>  <SCORE.RESTR.norm>
0.0124701

>  <SCORE.SYSTEM>
0

>  <SCORE.SYSTEM.CONST>
0

>  <SCORE.SYSTEM.DIHEDRAL>
0

>  <SCORE.SYSTEM.SOLV>
0

>  <SCORE.SYSTEM.norm>
0

>  <SCORE.heavy>
40

>  <SCORE.norm>
-0.701363

>  <RMSD>
20.388

$$$$
1nta_lig
 OpenBabel11021811403D
libRbt.so/2013.1/901 2013/11/27
 40 42  0  0  0  0  0  0  0  0999 V2000
   19.3181   33.6710   -1.9596 C   0  0  0  0  0  0  0  0  0  0  0  0
   19.1272   34.2264   -3.0977 N   0  0  0  0  0  0  0  0  0  0  0  0
   17.6807   24.3335   -0.3136 C   0  0  0  0  0  0  0  0  0  0  0  0
   16.9085   23.4672    0.0337 O   0  0  0  0  0  0  0  0  0  0  0  0
   20.8834   29.9099    1.0696 C   0  0  0  0  0  0  0  0  0  0  0  0
   21.6741   30.0489    0.0375 N   0  0  0  0  0  0  0  0  0  0  0  0
   15.2559   25.6237   -2.1890 C   0  0  0  0  0  0  0  0  0  0  0  0
   21.5470   26.9062    0.3280 C   0  0  0  0  0  0  0  0  0  0  0  0
   17.9484   31.9806   -1.0286 C   0  0  2  0  0  0  0  0  0  0  0  0
   18.2273   33.4559   -1.2394 N   0  0  0  0  0  0  0  0  0  0  0  0
   18.5406   27.0729   -2.2174 C   0  0  2  0  0  0  0  0  0  0  0  0
   21.0948   25.6491   -2.6343 C   0  0  1  0  0  0  0  0  0  0  0  0
   19.8006   25.1865   -2.8031 O   0  0  0  0  0  0  0  0  0  0  0  0
   18.9960   31.3751   -0.0752 C   0  0  1  0  0  0  0  0  0  0  0  0
   18.8469   32.0122    1.1576 O   0  0  0  0  0  0  0  0  0  0  0  0
   18.9700   25.6484   -1.8833 C   0  0  2  0  0  0  0  0  0  0  0  0
   21.7441   25.2902   -1.3159 C   0  0  1  0  0  0  0  0  0  0  0  0
   20.9068   25.7409   -0.2586 N   0  0  0  0  0  0  0  0  0  0  0  0
   18.7761   29.8742    0.1567 C   0  0  2  0  0  0  0  0  0  0  0  0
   19.7703   29.2567    1.0668 N   0  0  0  0  0  0  0  0  0  0  0  0
   17.6700   25.0076   -1.6594 C   0  0  1  0  0  0  0  0  0  0  0  0
   17.4669   24.0779   -2.7254 O   0  0  0  0  0  0  0  0  0  0  0  0
   21.9163   23.9179   -1.2006 C   0  0  2  0  0  0  0  0  0  0  0  0
   22.7757   23.6865   -0.1130 O   0  0  0  0  0  0  0  0  0  0  0  0
   18.8340   29.1755   -1.1925 C   0  0  1  0  0  0  0  0  0  0  0  0
   18.6266   27.7890   -0.9727 O   0  0  0  0  0  0  0  0  0  0  0  0
   16.6215   26.0329   -1.7312 C   0  0  1  0  0  0  0  0  0  0  0  0
   17.1773   27.0364   -2.5719 O   0  0  0  0  0  0  0  0  0  0  0  0
   22.5330   23.3597   -2.4562 C   0  0  1  0  0  0  0  0  0  0  0  0
   22.4725   21.9645   -2.4101 O   0  0  0  0  0  0  0  0  0  0  0  0
   17.7478   29.7536   -2.1437 C   0  0  2  0  0  0  0  0  0  0  0  0
   17.8109   29.0791   -3.3992 O   0  0  0  0  0  0  0  0  0  0  0  0
   21.7621   23.8227   -3.6453 C   0  0  1  0  0  0  0  0  0  0  0  0
   21.8324   25.2188   -3.6838 O   0  0  0  0  0  0  0  0  0  0  0  0
   18.0096   31.2591   -2.3581 C   0  0  1  0  0  0  0  0  0  0  0  0
   17.0157   31.8122   -3.2362 O   0  0  0  0  0  0  0  0  0  0  0  0
   22.3757   23.2875   -4.9542 C   0  0  0  0  0  0  0  0  0  0  0  0
   22.3331   21.8651   -4.9436 O   0  0  0  0  0  0  0  0  0  0  0  0
   20.4918   33.3458   -1.5368 N   0  0  0  0  0  0  0  0  0  0  0  0
   21.2095   30.4234    2.1905 N   0  0  0  0  0  0  0  0  0  0  0  0
  1  2  1  0  0  0  0
  1 39  1  0  0  0  0
  3  4  1  0  0  0  0
  5  6  1  0  0  0  0
  5 40  1  0  0  0  0
  9 10  1  6  0  0  0
  9 14  1  0  0  0  0
  9 35  1  0  0  0  0
 10  1  1  0  0  0  0
 11 16  1  0  0  0  0
 11 28  1  0  0  0  0
 11 26  1  1  0  0  0
 12 17  1  0  0  0  0
 12 34  1  0  0  0  0
 12 13  1  1  0  0  0
 14 15  1  1  0  0  0
 14 19  1  0  0  0  0
 16 13  1  6  0  0  0
 16 21  1  0  0  0  0
 17 18  1  1  0  0  0
 17 23  1  0  0  0  0
 18  8  1  0  0  0  0
 19 20  1  1  0  0  0
 19 25  1  0  0  0  0
 20  5  1  0  0  0  0
 21  3  1  1  0  0  0
 21 22  1  0  0  0  0
 21 27  1  0  0  0  0
 23 24  1  1  0  0  0
 23 29  1  0  0  0  0
 25 26  1  1  0  0  0
 25 31  1  0  0  0  0
 27  7  1  6  0  0  0
 27 28  1  0  0  0  0
 29 30  1  1  0  0  0
 29 33  1  0  0  0  0
 31 32  1  6  0  0  0
 31 35  1  0  0  0  0
 33 34  1  0  0  0  0
 33 37  1  6  0  0  0
 35 36  1  6  0  0  0
 37 38  1  0  0  0  0
M  END
>  <CHROM.1>
70.31940067,115.02079224,154.36635482,59.85280651,79.51098380,-106.44341453
-25.51185018,-63.90732363,-161.38774669,174.52255834,61.44621091,19.56277559
27.49673258,-1.57030730,-1.82115331,0.25124770,-2.90881585

>  <Name>
1nta_lig

>  <RI>
2.40834e+07

>  <Rbt.Current_Directory>
/home/itssahil/PROJECTS/Mol_Feturizer/New_Systems/rnas/1nta

>  <Rbt.Executable>
rbdock ($Id: //depot/dev/client3/rdock/2013.1/src/exe/rbdock.cxx#4 $)

>  <Rbt.Library>
libRbt.so (2013.1, Build901 2013/11/27)

>  <Rbt.Parameter_File>
/export/apps/rDock/src/rDock_2013.1_src/data/scripts/dock_solv.prm

>  <Rbt.Receptor>
prm/blind_docking_80.prm

>  <SCORE>
-22.3062

>  <SCORE.INTER>
-17.3152

>  <SCORE.INTER.CONST>
1

>  <SCORE.INTER.POLAR>
-1.57933

>  <SCORE.INTER.ROT>
11

>  <SCORE.INTER.SOLV>
22.2076

>  <SCORE.INTER.VDW>
-24.6149

>  <SCORE.INTER.norm>
-0.432879

>  <SCORE.INTRA>
-6.9805

>  <SCORE.INTRA.DIHEDRAL>
-10.0841

>  <SCORE.INTRA.DIHEDRAL.0>
19.0336

>  <SCORE.INTRA.POLAR>
0

>  <SCORE.INTRA.POLAR.0>
0

>  <SCORE.INTRA.REPUL>
0

>  <SCORE.INTRA.REPUL.0>
0

>  <SCORE.INTRA.SOLV>
3.18341

>  <SCORE.INTRA.SOLV.lig_0>
-97.5861

>  <SCORE.INTRA.VDW>
-3.53015

>  <SCORE.INTRA.VDW.0>
11.7669

>  <SCORE.INTRA.norm>
-0.174513

>  <SCORE.RESTR>
1.9894

>  <SCORE.RESTR.CAVITY>
1.9894

>  <SCORE.RESTR.norm>
0.0497351

>  <SCORE.SYSTEM>
0

>  <SCORE.SYSTEM.CONST>
0

>  <SCORE.SYSTEM.DIHEDRAL>
0

>  <SCORE.SYSTEM.SOLV>
0

>  <SCORE.SYSTEM.norm>
0

>  <SCORE.heavy>
40

>  <SCORE.norm>
-0.557656

>  <RMSD>
20.396

$$$$
1nta_lig
 OpenBabel11021811403D
libRbt.so/2013.1/901 2013/11/27
 40 42  0  0  0  0  0  0  0  0999 V2000
   18.4427   32.6774   -0.0081 C   0  0  0  0  0  0  0  0  0  0  0  0
   18.6343   33.2126   -1.1557 N   0  0  0  0  0  0  0  0  0  0  0  0
   18.8213   24.2801   -2.5022 C   0  0  0  0  0  0  0  0  0  0  0  0
   18.1308   23.3997   -2.9662 O   0  0  0  0  0  0  0  0  0  0  0  0
   18.4881   27.2638    3.7840 C   0  0  0  0  0  0  0  0  0  0  0  0
   17.4556   26.5260    4.0992 N   0  0  0  0  0  0  0  0  0  0  0  0
   21.5947   25.6632   -1.2954 C   0  0  0  0  0  0  0  0  0  0  0  0
   18.7693   20.4405   -2.8055 C   0  0  0  0  0  0  0  0  0  0  0  0
   18.4946   30.3519    0.4272 C   0  0  2  0  0  0  0  0  0  0  0  0
   19.2420   31.6639    0.2895 N   0  0  0  0  0  0  0  0  0  0  0  0
   18.7547   25.1303    0.8356 C   0  0  2  0  0  0  0  0  0  0  0  0
   17.5566   21.9263   -0.0203 C   0  0  1  0  0  0  0  0  0  0  0  0
   18.4546   22.8274    0.5267 O   0  0  0  0  0  0  0  0  0  0  0  0
   19.1778   29.4621    1.4829 C   0  0  1  0  0  0  0  0  0  0  0  0
   19.0855   30.1295    2.7052 O   0  0  0  0  0  0  0  0  0  0  0  0
   18.4836   23.9777   -0.1252 C   0  0  2  0  0  0  0  0  0  0  0  0
   18.1687   20.6620   -0.5822 C   0  0  1  0  0  0  0  0  0  0  0  0
   19.1633   21.0215   -1.5329 N   0  0  0  0  0  0  0  0  0  0  0  0
   18.4757   28.1077    1.6478 C   0  0  2  0  0  0  0  0  0  0  0  0
   19.1101   27.2226    2.6539 N   0  0  0  0  0  0  0  0  0  0  0  0
   19.4952   24.2277   -1.1573 C   0  0  1  0  0  0  0  0  0  0  0  0
   20.4530   23.1703   -1.0762 O   0  0  0  0  0  0  0  0  0  0  0  0
   18.7567   19.9032    0.4200 C   0  0  2  0  0  0  0  0  0  0  0  0
   19.0328   18.6330   -0.1143 O   0  0  0  0  0  0  0  0  0  0  0  0
   18.4770   27.4087    0.2976 C   0  0  1  0  0  0  0  0  0  0  0  0
   17.8237   26.1588    0.4550 O   0  0  0  0  0  0  0  0  0  0  0  0
   20.1741   25.4936   -0.8540 C   0  0  1  0  0  0  0  0  0  0  0  0
   20.0440   25.6256    0.5562 O   0  0  0  0  0  0  0  0  0  0  0  0
   17.8189   19.7633    1.5902 C   0  0  1  0  0  0  0  0  0  0  0  0
   18.5162   19.2092    2.6669 O   0  0  0  0  0  0  0  0  0  0  0  0
   17.7486   28.2845   -0.7613 C   0  0  2  0  0  0  0  0  0  0  0  0
   17.7511   27.6080   -2.0173 O   0  0  0  0  0  0  0  0  0  0  0  0
   17.3181   21.1069    1.9982 C   0  0  1  0  0  0  0  0  0  0  0  0
   16.6194   21.6501    0.9156 O   0  0  0  0  0  0  0  0  0  0  0  0
   18.4897   29.6304   -0.9038 C   0  0  1  0  0  0  0  0  0  0  0  0
   17.8316   30.4547   -1.8797 O   0  0  0  0  0  0  0  0  0  0  0  0
   16.3375   21.0035    3.1831 C   0  0  0  0  0  0  0  0  0  0  0  0
   15.9172   22.3103    3.5581 O   0  0  0  0  0  0  0  0  0  0  0  0
   17.5310   33.0907    0.8044 N   0  0  0  0  0  0  0  0  0  0  0  0
   18.9335   28.1190    4.6187 N   0  0  0  0  0  0  0  0  0  0  0  0
  1  2  1  0  0  0  0
  1 39  1  0  0  0  0
  3  4  1  0  0  0  0
  5  6  1  0  0  0  0
  5 40  1  0  0  0  0
  9 10  1  6  0  0  0
  9 14  1  0  0  0  0
  9 35  1  0  0  0  0
 10  1  1  0  0  0  0
 11 16  1  0  0  0  0
 11 28  1  0  0  0  0
 11 26  1  6  0  0  0
 12 17  1  0  0  0  0
 12 34  1  0  0  0  0
 12 13  1  1  0  0  0
 14 15  1  1  0  0  0
 14 19  1  0  0  0  0
 16 13  1  1  0  0  0
 16 21  1  0  0  0  0
 17 18  1  6  0  0  0
 17 23  1  0  0  0  0
 18  8  1  0  0  0  0
 19 20  1  1  0  0  0
 19 25  1  0  0  0  0
 20  5  1  0  0  0  0
 21  3  1  6  0  0  0
 21 22  1  0  0  0  0
 21 27  1  0  0  0  0
 23 24  1  6  0  0  0
 23 29  1  0  0  0  0
 25 26  1  1  0  0  0
 25 31  1  0  0  0  0
 27  7  1  1  0  0  0
 27 28  1  0  0  0  0
 29 30  1  1  0  0  0
 29 33  1  0  0  0  0
 31 32  1  6  0  0  0
 31 35  1  0  0  0  0
 33 34  1  0  0  0  0
 33 37  1  1  0  0  0
 35 36  1  6  0  0  0
 37 38  1  0  0  0  0
M  END
>  <CHROM.1>
-147.53608081,-114.90995364,-130.44129486,116.32910323,146.54040556,-120.19190419
99.29947962,86.30487841,-55.96912125,-88.95307918,178.41987119,18.48585373
25.40834616,0.42984953,-1.42529041,-1.33030001,-2.99810662

>  <Name>
1nta_lig

>  <RI>
9.25352e+06

>  <Rbt.Current_Directory>
/home/itssahil/PROJECTS/Mol_Feturizer/New_Systems/rnas/1nta

>  <Rbt.Executable>
rbdock ($Id: //depot/dev/client3/rdock/2013.1/src/exe/rbdock.cxx#4 $)

>  <Rbt.Library>
libRbt.so (2013.1, Build901 2013/11/27)

>  <Rbt.Parameter_File>
/export/apps/rDock/src/rDock_2013.1_src/data/scripts/dock_solv.prm

>  <Rbt.Receptor>
prm/blind_docking_40.prm

>  <SCORE>
-18.9328

>  <SCORE.INTER>
-7.7414

>  <SCORE.INTER.CONST>
1

>  <SCORE.INTER.POLAR>
0

>  <SCORE.INTER.ROT>
11

>  <SCORE.INTER.SOLV>
13.6206

>  <SCORE.INTER.VDW>
-20.6345

>  <SCORE.INTER.norm>
-0.193535

>  <SCORE.INTRA>
-11.2164

>  <SCORE.INTRA.DIHEDRAL>
6.09796

>  <SCORE.INTRA.DIHEDRAL.0>
19.0336

>  <SCORE.INTRA.POLAR>
0

>  <SCORE.INTRA.POLAR.0>
0

>  <SCORE.INTRA.REPUL>
0

>  <SCORE.INTRA.REPUL.0>
0

>  <SCORE.INTRA.SOLV>
-1.60345

>  <SCORE.INTRA.SOLV.lig_0>
-97.5861

>  <SCORE.INTRA.VDW>
-13.4636

>  <SCORE.INTRA.VDW.0>
11.7669

>  <SCORE.INTRA.norm>
-0.280409

>  <SCORE.RESTR>
0.0249486

>  <SCORE.RESTR.CAVITY>
0.0249486

>  <SCORE.RESTR.norm>
0.000623715

>  <SCORE.SYSTEM>
0

>  <SCORE.SYSTEM.CONST>
0

>  <SCORE.SYSTEM.DIHEDRAL>
0

>  <SCORE.SYSTEM.SOLV>
0

>  <SCORE.SYSTEM.norm>
0

>  <SCORE.heavy>
40

>  <SCORE.norm>
-0.47332

>  <RMSD>
20.398

$$$$
1nta_lig
 OpenBabel11021811403D
libRbt.so/2013.1/901 2013/11/27
 40 42  0  0  0  0  0  0  0  0999 V2000
   20.9365   21.7814   -3.6641 C   0  0  0  0  0  0  0  0  0  0  0  0
   19.9969   20.9428   -3.4317 N   0  0  0  0  0  0  0  0  0  0  0  0
   19.6233   28.2698    3.7543 C   0  0  0  0  0  0  0  0  0  0  0  0
   18.4737   28.6508    3.7292 O   0  0  0  0  0  0  0  0  0  0  0  0
   18.6019   23.2181    1.2108 C   0  0  0  0  0  0  0  0  0  0  0  0
   19.0609   22.2108    1.9068 N   0  0  0  0  0  0  0  0  0  0  0  0
   22.9138   28.6166    4.0910 C   0  0  0  0  0  0  0  0  0  0  0  0
   17.6903   26.3020   -0.1596 C   0  0  0  0  0  0  0  0  0  0  0  0
   21.0559   23.6690   -2.2416 C   0  0  2  0  0  0  0  0  0  0  0  0
   20.6020   23.0584   -3.5531 N   0  0  0  0  0  0  0  0  0  0  0  0
   21.4987   27.6991    0.9214 C   0  0  2  0  0  0  0  0  0  0  0  0
   19.4359   29.0514   -0.5630 C   0  0  1  0  0  0  0  0  0  0  0  0
   20.0072   29.4810    0.6230 O   0  0  0  0  0  0  0  0  0  0  0  0
   19.8887   23.6914   -1.2366 C   0  0  1  0  0  0  0  0  0  0  0  0
   19.5379   22.3643   -0.9841 O   0  0  0  0  0  0  0  0  0  0  0  0
   20.2977   28.4825    1.4401 C   0  0  2  0  0  0  0  0  0  0  0  0
   18.0040   28.5748   -0.4569 C   0  0  1  0  0  0  0  0  0  0  0  0
   17.9356   27.5560    0.5328 N   0  0  0  0  0  0  0  0  0  0  0  0
   20.2852   24.3222    0.1050 C   0  0  2  0  0  0  0  0  0  0  0  0
   19.1833   24.3647    1.0960 N   0  0  0  0  0  0  0  0  0  0  0  0
   20.7078   28.7429    2.8239 C   0  0  1  0  0  0  0  0  0  0  0  0
   20.9405   30.1481    2.9392 O   0  0  0  0  0  0  0  0  0  0  0  0
   17.1573   29.6129   -0.0941 C   0  0  2  0  0  0  0  0  0  0  0  0
   15.8373   29.1785   -0.3034 O   0  0  0  0  0  0  0  0  0  0  0  0
   20.7679   25.7386   -0.1647 C   0  0  1  0  0  0  0  0  0  0  0  0
   21.1364   26.3157    1.0782 O   0  0  0  0  0  0  0  0  0  0  0  0
   21.9712   28.0403    3.0804 C   0  0  1  0  0  0  0  0  0  0  0  0
   22.5762   27.9388    1.7972 O   0  0  0  0  0  0  0  0  0  0  0  0
   17.4263   30.8291   -0.9409 C   0  0  1  0  0  0  0  0  0  0  0  0
   16.7388   31.9192   -0.4011 O   0  0  0  0  0  0  0  0  0  0  0  0
   21.9753   25.7170   -1.1447 C   0  0  2  0  0  0  0  0  0  0  0  0
   22.4200   27.0526   -1.3769 O   0  0  0  0  0  0  0  0  0  0  0  0
   18.8841   31.1410   -0.9262 C   0  0  1  0  0  0  0  0  0  0  0  0
   19.5616   30.0460   -1.4716 O   0  0  0  0  0  0  0  0  0  0  0  0
   21.5333   25.0855   -2.4814 C   0  0  1  0  0  0  0  0  0  0  0  0
   22.6363   25.0573   -3.4020 O   0  0  0  0  0  0  0  0  0  0  0  0
   19.2031   32.3704   -1.7998 C   0  0  0  0  0  0  0  0  0  0  0  0
   18.7495   33.5454   -1.1374 O   0  0  0  0  0  0  0  0  0  0  0  0
   22.1282   21.4125   -3.9894 N   0  0  0  0  0  0  0  0  0  0  0  0
   17.5112   23.0943    0.5616 N   0  0  0  0  0  0  0  0  0  0  0  0
  1  2  1  0  0  0  0
  1 39  1  0  0  0  0
  3  4  1  0  0  0  0
  5  6  1  0  0  0  0
  5 40  1  0  0  0  0
  9 10  1  6  0  0  0
  9 14  1  0  0  0  0
  9 35  1  0  0  0  0
 10  1  1  0  0  0  0
 11 16  1  0  0  0  0
 11 28  1  0  0  0  0
 11 26  1  1  0  0  0
 12 17  1  0  0  0  0
 12 34  1  0  0  0  0
 12 13  1  1  0  0  0
 14 15  1  1  0  0  0
 14 19  1  0  0  0  0
 16 13  1  6  0  0  0
 16 21  1  0  0  0  0
 17 18  1  1  0  0  0
 17 23  1  0  0  0  0
 18  8  1  0  0  0  0
 19 20  1  1  0  0  0
 19 25  1  0  0  0  0
 20  5  1  0  0  0  0
 21  3  1  1  0  0  0
 21 22  1  0  0  0  0
 21 27  1  0  0  0  0
 23 24  1  6  0  0  0
 23 29  1  0  0  0  0
 25 26  1  1  0  0  0
 25 31  1  0  0  0  0
 27  7  1  1  0  0  0
 27 28  1  0  0  0  0
 29 30  1  1  0  0  0
 29 33  1  0  0  0  0
 31 32  1  6  0  0  0
 31 35  1  0  0  0  0
 33 34  1  0  0  0  0
 33 37  1  6  0  0  0
 35 36  1  6  0  0  0
 37 38  1  0  0  0  0
M  END
>  <CHROM.1>
-98.47517351,101.10809015,103.41143035,73.39457135,72.41833811,-109.60688802
49.44312383,79.50089385,-57.59664086,-175.10654632,73.22466936,19.86832805
26.95113833,-0.09078630,1.06471235,1.17095862,-2.35682188

>  <Name>
1nta_lig

>  <RI>
9.25352e+06

>  <Rbt.Current_Directory>
/home/itssahil/PROJECTS/Mol_Feturizer/New_Systems/rnas/1nta

>  <Rbt.Executable>
rbdock ($Id: //depot/dev/client3/rdock/2013.1/src/exe/rbdock.cxx#4 $)

>  <Rbt.Library>
libRbt.so (2013.1, Build901 2013/11/27)

>  <Rbt.Parameter_File>
/export/apps/rDock/src/rDock_2013.1_src/data/scripts/dock_solv.prm

>  <Rbt.Receptor>
prm/blind_docking_40.prm

>  <SCORE>
-27.4607

>  <SCORE.INTER>
-13.395

>  <SCORE.INTER.CONST>
1

>  <SCORE.INTER.POLAR>
-1.74048

>  <SCORE.INTER.ROT>
11

>  <SCORE.INTER.SOLV>
15.5672

>  <SCORE.INTER.VDW>
-19.2508

>  <SCORE.INTER.norm>
-0.334875

>  <SCORE.INTRA>
-14.852

>  <SCORE.INTRA.DIHEDRAL>
-7.49236

>  <SCORE.INTRA.DIHEDRAL.0>
19.0336

>  <SCORE.INTRA.POLAR>
0

>  <SCORE.INTRA.POLAR.0>
0

>  <SCORE.INTRA.REPUL>
0

>  <SCORE.INTRA.REPUL.0>
0

>  <SCORE.INTRA.SOLV>
-0.325218

>  <SCORE.INTRA.SOLV.lig_0>
-97.5861

>  <SCORE.INTRA.VDW>
-10.9432

>  <SCORE.INTRA.VDW.0>
11.7669

>  <SCORE.INTRA.norm>
-0.3713

>  <SCORE.RESTR>
0.786315

>  <SCORE.RESTR.CAVITY>
0.786315

>  <SCORE.RESTR.norm>
0.0196579

>  <SCORE.SYSTEM>
0

>  <SCORE.SYSTEM.CONST>
0

>  <SCORE.SYSTEM.DIHEDRAL>
0

>  <SCORE.SYSTEM.SOLV>
0

>  <SCORE.SYSTEM.norm>
0

>  <SCORE.heavy>
40

>  <SCORE.norm>
-0.686517

>  <RMSD>
20.401

$$$$
1nta_lig
 OpenBabel11021811403D
libRbt.so/2013.1/901 2013/11/27
 40 42  0  0  0  0  0  0  0  0999 V2000
   18.2439   18.7638   -3.0311 C   0  0  0  0  0  0  0  0  0  0  0  0
   17.0432   18.3222   -2.9730 N   0  0  0  0  0  0  0  0  0  0  0  0
   18.8908   28.2471   -1.3313 C   0  0  0  0  0  0  0  0  0  0  0  0
   19.3718   29.2114   -0.7780 O   0  0  0  0  0  0  0  0  0  0  0  0
   20.7718   24.6807   -3.3599 C   0  0  0  0  0  0  0  0  0  0  0  0
   19.7066   25.4253   -3.2157 N   0  0  0  0  0  0  0  0  0  0  0  0
   16.2611   26.5824   -2.5039 C   0  0  0  0  0  0  0  0  0  0  0  0
   22.1691   27.9495    1.7646 C   0  0  0  0  0  0  0  0  0  0  0  0
   18.6023   20.7449   -1.7872 C   0  0  2  0  0  0  0  0  0  0  0  0
   18.7331   19.2382   -1.8952 N   0  0  0  0  0  0  0  0  0  0  0  0
   18.3221   25.1484    0.0625 C   0  0  2  0  0  0  0  0  0  0  0  0
   19.1892   26.5524    2.5874 C   0  0  1  0  0  0  0  0  0  0  0  0
   18.1984   26.8510    1.6672 O   0  0  0  0  0  0  0  0  0  0  0  0
   19.8911   21.4249   -2.2866 C   0  0  1  0  0  0  0  0  0  0  0  0
   20.0245   21.1098   -3.6397 O   0  0  0  0  0  0  0  0  0  0  0  0
   18.5704   26.6095    0.4212 C   0  0  2  0  0  0  0  0  0  0  0  0
   20.1609   27.6745    2.8800 C   0  0  1  0  0  0  0  0  0  0  0  0
   20.7296   28.1154    1.6535 N   0  0  0  0  0  0  0  0  0  0  0  0
   19.8242   22.9541   -2.1782 C   0  0  2  0  0  0  0  0  0  0  0  0
   21.0512   23.6422   -2.6464 N   0  0  0  0  0  0  0  0  0  0  0  0
   17.9152   27.2900   -0.7006 C   0  0  1  0  0  0  0  0  0  0  0  0
   16.7665   27.9597   -0.1771 O   0  0  0  0  0  0  0  0  0  0  0  0
   19.5204   28.7440    3.4899 C   0  0  2  0  0  0  0  0  0  0  0  0
   20.5122   29.6033    3.9930 O   0  0  0  0  0  0  0  0  0  0  0  0
   19.5766   23.3129   -0.7215 C   0  0  1  0  0  0  0  0  0  0  0  0
   19.5121   24.7274   -0.6276 O   0  0  0  0  0  0  0  0  0  0  0  0
   17.4640   26.2794   -1.6654 C   0  0  1  0  0  0  0  0  0  0  0  0
   17.2726   25.1111   -0.8770 O   0  0  0  0  0  0  0  0  0  0  0  0
   18.6536   28.2594    4.6223 C   0  0  1  0  0  0  0  0  0  0  0  0
   17.8445   29.3123    5.0572 O   0  0  0  0  0  0  0  0  0  0  0  0
   18.2526   22.6644   -0.2263 C   0  0  2  0  0  0  0  0  0  0  0  0
   18.0326   23.0206    1.1375 O   0  0  0  0  0  0  0  0  0  0  0  0
   17.7711   27.1567    4.1452 C   0  0  1  0  0  0  0  0  0  0  0  0
   18.5904   26.1079    3.7163 O   0  0  0  0  0  0  0  0  0  0  0  0
   18.3642   21.1297   -0.3424 C   0  0  1  0  0  0  0  0  0  0  0  0
   17.1494   20.5112    0.1119 O   0  0  0  0  0  0  0  0  0  0  0  0
   16.8808   26.6192    5.2831 C   0  0  0  0  0  0  0  0  0  0  0  0
   17.6795   26.4068    6.4416 O   0  0  0  0  0  0  0  0  0  0  0  0
   18.9325   18.7540   -4.1210 N   0  0  0  0  0  0  0  0  0  0  0  0
   21.6140   24.9517   -4.2784 N   0  0  0  0  0  0  0  0  0  0  0  0
  1  2  1  0  0  0  0
  1 39  1  0  0  0  0
  3  4  1  0  0  0  0
  5  6  1  0  0  0  0
  5 40  1  0  0  0  0
  9 10  1  1  0  0  0
  9 14  1  0  0  0  0
  9 35  1  0  0  0  0
 10  1  1  0  0  0  0
 11 16  1  0  0  0  0
 11 28  1  0  0  0  0
 11 26  1  6  0  0  0
 12 17  1  0  0  0  0
 12 34  1  0  0  0  0
 12 13  1  6  0  0  0
 14 15  1  6  0  0  0
 14 19  1  0  0  0  0
 16 13  1  1  0  0  0
 16 21  1  0  0  0  0
 17 18  1  6  0  0  0
 17 23  1  0  0  0  0
 18  8  1  0  0  0  0
 19 20  1  1  0  0  0
 19 25  1  0  0  0  0
 20  5  1  0  0  0  0
 21  3  1  6  0  0  0
 21 22  1  0  0  0  0
 21 27  1  0  0  0  0
 23 24  1  1  0  0  0
 23 29  1  0  0  0  0
 25 26  1  6  0  0  0
 25 31  1  0  0  0  0
 27  7  1  1  0  0  0
 27 28  1  0  0  0  0
 29 30  1  6  0  0  0
 29 33  1  0  0  0  0
 31 32  1  1  0  0  0
 31 35  1  0  0  0  0
 33 34  1  0  0  0  0
 33 37  1  1  0  0  0
 35 36  1  6  0  0  0
 37 38  1  0  0  0  0
M  END
>  <CHROM.1>
-93.75983421,-96.38537827,164.94747656,88.06959502,85.41939495,-121.42352327
137.13873893,30.46415174,-63.66905695,128.51785082,-46.82500342,18.83487825
24.97913596,0.14335885,1.55393005,-1.19085607,-2.46070324

>  <Name>
1nta_lig

>  <RI>
9.25352e+06

>  <Rbt.Current_Directory>
/home/itssahil/PROJECTS/Mol_Feturizer/New_Systems/rnas/1nta

>  <Rbt.Executable>
rbdock ($Id: //depot/dev/client3/rdock/2013.1/src/exe/rbdock.cxx#4 $)

>  <Rbt.Library>
libRbt.so (2013.1, Build901 2013/11/27)

>  <Rbt.Parameter_File>
/export/apps/rDock/src/rDock_2013.1_src/data/scripts/dock_solv.prm

>  <Rbt.Receptor>
prm/blind_docking_40.prm

>  <SCORE>
-16.6531

>  <SCORE.INTER>
-9.96

>  <SCORE.INTER.CONST>
1

>  <SCORE.INTER.POLAR>
-0.979796

>  <SCORE.INTER.ROT>
11

>  <SCORE.INTER.SOLV>
14.553

>  <SCORE.INTER.VDW>
-19.1583

>  <SCORE.INTER.norm>
-0.249

>  <SCORE.INTRA>
-6.79169

>  <SCORE.INTRA.DIHEDRAL>
-0.342985

>  <SCORE.INTRA.DIHEDRAL.0>
19.0336

>  <SCORE.INTRA.POLAR>
0

>  <SCORE.INTRA.POLAR.0>
0

>  <SCORE.INTRA.REPUL>
0

>  <SCORE.INTRA.REPUL.0>
0

>  <SCORE.INTRA.SOLV>
-0.0993161

>  <SCORE.INTRA.SOLV.lig_0>
-97.5861

>  <SCORE.INTRA.VDW>
-6.57054

>  <SCORE.INTRA.VDW.0>
11.7669

>  <SCORE.INTRA.norm>
-0.169792

>  <SCORE.RESTR>
0.0986296

>  <SCORE.RESTR.CAVITY>
0.0986296

>  <SCORE.RESTR.norm>
0.00246574

>  <SCORE.SYSTEM>
0

>  <SCORE.SYSTEM.CONST>
0

>  <SCORE.SYSTEM.DIHEDRAL>
0

>  <SCORE.SYSTEM.SOLV>
0

>  <SCORE.SYSTEM.norm>
0

>  <SCORE.heavy>
40

>  <SCORE.norm>
-0.416326

>  <RMSD>
20.416

$$$$
1nta_lig
 OpenBabel11021811403D
libRbt.so/2013.1/901 2013/11/27
 40 42  0  0  0  0  0  0  0  0999 V2000
   18.1995   19.6043   -3.9705 C   0  0  0  0  0  0  0  0  0  0  0  0
   17.1624   18.9252   -3.6491 N   0  0  0  0  0  0  0  0  0  0  0  0
   19.5407   28.0166   -0.5459 C   0  0  0  0  0  0  0  0  0  0  0  0
   20.5727   27.5971   -1.0217 O   0  0  0  0  0  0  0  0  0  0  0  0
   17.8561   21.7384    1.5614 C   0  0  0  0  0  0  0  0  0  0  0  0
   17.0883   20.7355    1.9000 N   0  0  0  0  0  0  0  0  0  0  0  0
   16.8753   27.1795   -2.3504 C   0  0  0  0  0  0  0  0  0  0  0  0
   21.6985   27.9790    2.4857 C   0  0  0  0  0  0  0  0  0  0  0  0
   19.6620   20.5481   -2.3671 C   0  0  2  0  0  0  0  0  0  0  0  0
   19.2822   19.3709   -3.2440 N   0  0  0  0  0  0  0  0  0  0  0  0
   18.2189   24.8959    0.0725 C   0  0  2  0  0  0  0  0  0  0  0  0
   19.0985   26.0872    2.9726 C   0  0  1  0  0  0  0  0  0  0  0  0
   18.1482   26.2551    1.9795 O   0  0  0  0  0  0  0  0  0  0  0  0
   18.5171   20.8692   -1.3878 C   0  0  1  0  0  0  0  0  0  0  0  0
   18.3625   19.7581   -0.5573 O   0  0  0  0  0  0  0  0  0  0  0  0
   18.6629   26.1807    0.7635 C   0  0  2  0  0  0  0  0  0  0  0  0
   19.7138   27.3635    3.5029 C   0  0  1  0  0  0  0  0  0  0  0  0
   20.2520   28.0975    2.4103 N   0  0  0  0  0  0  0  0  0  0  0  0
   18.8376   22.0705   -0.4884 C   0  0  2  0  0  0  0  0  0  0  0  0
   17.7543   22.4112    0.4647 N   0  0  0  0  0  0  0  0  0  0  0  0
   18.3238   27.1798   -0.2551 C   0  0  1  0  0  0  0  0  0  0  0  0
   17.2443   27.9612    0.2610 O   0  0  0  0  0  0  0  0  0  0  0  0
   18.7654   28.1454    4.1474 C   0  0  2  0  0  0  0  0  0  0  0  0
   19.4503   29.1456    4.8584 O   0  0  0  0  0  0  0  0  0  0  0  0
   19.1097   23.2695   -1.3830 C   0  0  1  0  0  0  0  0  0  0  0  0
   19.4088   24.3762   -0.5468 O   0  0  0  0  0  0  0  0  0  0  0  0
   17.8581   26.4833   -1.4608 C   0  0  1  0  0  0  0  0  0  0  0  0
   17.3407   25.2527   -0.9701 O   0  0  0  0  0  0  0  0  0  0  0  0
   17.9603   27.3086    5.1066 C   0  0  1  0  0  0  0  0  0  0  0  0
   16.8693   28.0568    5.5564 O   0  0  0  0  0  0  0  0  0  0  0  0
   20.2946   22.9652   -2.3433 C   0  0  2  0  0  0  0  0  0  0  0  0
   20.5411   24.1042   -3.1662 O   0  0  0  0  0  0  0  0  0  0  0  0
   17.4418   26.0985    4.4071 C   0  0  1  0  0  0  0  0  0  0  0  0
   18.5410   25.3558    3.9649 O   0  0  0  0  0  0  0  0  0  0  0  0
   19.9292   21.7597   -3.2346 C   0  0  1  0  0  0  0  0  0  0  0  0
   21.0125   21.4629   -4.1309 O   0  0  0  0  0  0  0  0  0  0  0  0
   16.6274   25.2044    5.3630 C   0  0  0  0  0  0  0  0  0  0  0  0
   15.4001   25.8521    5.6778 O   0  0  0  0  0  0  0  0  0  0  0  0
   18.1936   20.4624   -4.9327 N   0  0  0  0  0  0  0  0  0  0  0  0
   18.7736   22.1297    2.3560 N   0  0  0  0  0  0  0  0  0  0  0  0
  1  2  1  0  0  0  0
  1 39  1  0  0  0  0
  3  4  1  0  0  0  0
  5  6  1  0  0  0  0
  5 40  1  0  0  0  0
  9 10  1  6  0  0  0
  9 14  1  0  0  0  0
  9 35  1  0  0  0  0
 10  1  1  0  0  0  0
 11 16  1  0  0  0  0
 11 28  1  0  0  0  0
 11 26  1  6  0  0  0
 12 17  1  0  0  0  0
 12 34  1  0  0  0  0
 12 13  1  6  0  0  0
 14 15  1  1  0  0  0
 14 19  1  0  0  0  0
 16 13  1  1  0  0  0
 16 21  1  0  0  0  0
 17 18  1  6  0  0  0
 17 23  1  0  0  0  0
 18  8  1  0  0  0  0
 19 20  1  1  0  0  0
 19 25  1  0  0  0  0
 20  5  1  0  0  0  0
 21  3  1  6  0  0  0
 21 22  1  0  0  0  0
 21 27  1  0  0  0  0
 23 24  1  1  0  0  0
 23 29  1  0  0  0  0
 25 26  1  1  0  0  0
 25 31  1  0  0  0  0
 27  7  1  1  0  0  0
 27 28  1  0  0  0  0
 29 30  1  6  0  0  0
 29 33  1  0  0  0  0
 31 32  1  6  0  0  0
 31 35  1  0  0  0  0
 33 34  1  0  0  0  0
 33 37  1  1  0  0  0
 35 36  1  6  0  0  0
 37 38  1  0  0  0  0
M  END
>  <CHROM.1>
60.42561978,-111.36451424,-172.05034721,93.19509884,109.42515974,-106.67911253
87.11665812,-105.82810065,63.44995079,-75.19018325,70.56096859,18.61246603
24.50961554,0.47151870,1.40242619,-1.16444505,-2.50047823

>  <Name>
1nta_lig

>  <RI>
2.40834e+07

>  <Rbt.Current_Directory>
/home/itssahil/PROJECTS/Mol_Feturizer/New_Systems/rnas/1nta

>  <Rbt.Executable>
rbdock ($Id: //depot/dev/client3/rdock/2013.1/src/exe/rbdock.cxx#4 $)

>  <Rbt.Library>
libRbt.so (2013.1, Build901 2013/11/27)

>  <Rbt.Parameter_File>
/export/apps/rDock/src/rDock_2013.1_src/data/scripts/dock_solv.prm

>  <Rbt.Receptor>
prm/blind_docking_80.prm

>  <SCORE>
-23.7512

>  <SCORE.INTER>
-9.00535

>  <SCORE.INTER.CONST>
1

>  <SCORE.INTER.POLAR>
0

>  <SCORE.INTER.ROT>
11

>  <SCORE.INTER.SOLV>
13.4391

>  <SCORE.INTER.VDW>
-21.4166

>  <SCORE.INTER.norm>
-0.225134

>  <SCORE.INTRA>
-15.9121

>  <SCORE.INTRA.DIHEDRAL>
-3.83043

>  <SCORE.INTRA.DIHEDRAL.0>
19.0336

>  <SCORE.INTRA.POLAR>
0

>  <SCORE.INTRA.POLAR.0>
0

>  <SCORE.INTRA.REPUL>
0.00439263

>  <SCORE.INTRA.REPUL.0>
0

>  <SCORE.INTRA.SOLV>
0.441998

>  <SCORE.INTRA.SOLV.lig_0>
-97.5861

>  <SCORE.INTRA.VDW>
-14.2398

>  <SCORE.INTRA.VDW.0>
11.7669

>  <SCORE.INTRA.norm>
-0.397802

>  <SCORE.RESTR>
1.16622

>  <SCORE.RESTR.CAVITY>
1.16622

>  <SCORE.RESTR.norm>
0.0291555

>  <SCORE.SYSTEM>
0

>  <SCORE.SYSTEM.CONST>
0

>  <SCORE.SYSTEM.DIHEDRAL>
0

>  <SCORE.SYSTEM.SOLV>
0

>  <SCORE.SYSTEM.norm>
0

>  <SCORE.heavy>
40

>  <SCORE.norm>
-0.593781

>  <RMSD>
20.428

$$$$
1nta_lig
 OpenBabel11021811403D
libRbt.so/2013.1/901 2013/11/27
 40 42  0  0  0  0  0  0  0  0999 V2000
   20.5541   21.6150   -4.3760 C   0  0  0  0  0  0  0  0  0  0  0  0
   19.4593   20.9643   -4.5107 N   0  0  0  0  0  0  0  0  0  0  0  0
   18.2579   26.2556    3.0979 C   0  0  0  0  0  0  0  0  0  0  0  0
   17.8930   26.1647    4.2494 O   0  0  0  0  0  0  0  0  0  0  0  0
   17.9851   23.6890    0.1069 C   0  0  0  0  0  0  0  0  0  0  0  0
   17.1416   22.7095   -0.0905 N   0  0  0  0  0  0  0  0  0  0  0  0
   20.9687   27.6904    4.3841 C   0  0  0  0  0  0  0  0  0  0  0  0
   17.3683   26.7954   -3.0499 C   0  0  0  0  0  0  0  0  0  0  0  0
   20.9017   23.4185   -2.8837 C   0  0  2  0  0  0  0  0  0  0  0  0
   20.4254   22.9259   -4.2363 N   0  0  0  0  0  0  0  0  0  0  0  0
   20.7394   27.0773    0.8540 C   0  0  2  0  0  0  0  0  0  0  0  0
   19.2822   28.2581   -0.8903 C   0  0  1  0  0  0  0  0  0  0  0  0
   18.7431   28.2101    0.3843 O   0  0  0  0  0  0  0  0  0  0  0  0
   19.7957   23.2220   -1.8297 C   0  0  1  0  0  0  0  0  0  0  0  0
   19.5697   21.8489   -1.7219 O   0  0  0  0  0  0  0  0  0  0  0  0
   19.2441   27.2267    1.1130 C   0  0  2  0  0  0  0  0  0  0  0  0
   18.3110   28.6238   -1.9911 C   0  0  1  0  0  0  0  0  0  0  0  0
   17.2101   27.7249   -1.9440 N   0  0  0  0  0  0  0  0  0  0  0  0
   20.2150   23.7261   -0.4423 C   0  0  2  0  0  0  0  0  0  0  0  0
   19.1716   23.5567    0.5973 N   0  0  0  0  0  0  0  0  0  0  0  0
   19.2174   27.2922    2.5779 C   0  0  1  0  0  0  0  0  0  0  0  0
   18.8225   28.6183    2.9353 O   0  0  0  0  0  0  0  0  0  0  0  0
   17.8413   29.9201   -1.8330 C   0  0  2  0  0  0  0  0  0  0  0  0
   17.1945   30.2870   -3.0255 O   0  0  0  0  0  0  0  0  0  0  0  0
   20.5640   25.2011   -0.5625 C   0  0  1  0  0  0  0  0  0  0  0  0
   20.9543   25.6610    0.7219 O   0  0  0  0  0  0  0  0  0  0  0  0
   20.5758   27.0597    3.0842 C   0  0  1  0  0  0  0  0  0  0  0  0
   21.4181   27.4845    2.0198 O   0  0  0  0  0  0  0  0  0  0  0  0
   18.9854   30.8639   -1.5708 C   0  0  1  0  0  0  0  0  0  0  0  0
   18.4712   32.1030   -1.1799 O   0  0  0  0  0  0  0  0  0  0  0  0
   21.7114   25.3992   -1.5936 C   0  0  2  0  0  0  0  0  0  0  0  0
   22.0313   26.7865   -1.6845 O   0  0  0  0  0  0  0  0  0  0  0  0
   19.8298   30.3363   -0.4613 C   0  0  1  0  0  0  0  0  0  0  0  0
   20.3418   29.0991   -0.8642 O   0  0  0  0  0  0  0  0  0  0  0  0
   21.2471   24.8898   -2.9742 C   0  0  1  0  0  0  0  0  0  0  0  0
   22.2945   25.0652   -3.9422 O   0  0  0  0  0  0  0  0  0  0  0  0
   21.0255   31.2665   -0.1758 C   0  0  0  0  0  0  0  0  0  0  0  0
   21.8592   31.3237   -1.3277 O   0  0  0  0  0  0  0  0  0  0  0  0
   21.7069   21.0377   -4.3804 N   0  0  0  0  0  0  0  0  0  0  0  0
   17.6604   24.8790   -0.2169 N   0  0  0  0  0  0  0  0  0  0  0  0
  1  2  1  0  0  0  0
  1 39  1  0  0  0  0
  3  4  1  0  0  0  0
  5  6  1  0  0  0  0
  5 40  1  0  0  0  0
  9 10  1  6  0  0  0
  9 14  1  0  0  0  0
  9 35  1  0  0  0  0
 10  1  1  0  0  0  0
 11 16  1  0  0  0  0
 11 28  1  0  0  0  0
 11 26  1  1  0  0  0
 12 17  1  0  0  0  0
 12 34  1  0  0  0  0
 12 13  1  1  0  0  0
 14 15  1  1  0  0  0
 14 19  1  0  0  0  0
 16 13  1  6  0  0  0
 16 21  1  0  0  0  0
 17 18  1  1  0  0  0
 17 23  1  0  0  0  0
 18  8  1  0  0  0  0
 19 20  1  1  0  0  0
 19 25  1  0  0  0  0
 20  5  1  0  0  0  0
 21  3  1  1  0  0  0
 21 22  1  0  0  0  0
 21 27  1  0  0  0  0
 23 24  1  6  0  0  0
 23 29  1  0  0  0  0
 25 26  1  1  0  0  0
 25 31  1  0  0  0  0
 27  7  1  1  0  0  0
 27 28  1  0  0  0  0
 29 30  1  1  0  0  0
 29 33  1  0  0  0  0
 31 32  1  6  0  0  0
 31 35  1  0  0  0  0
 33 34  1  0  0  0  0
 33 37  1  6  0  0  0
 35 36  1  6  0  0  0
 37 38  1  0  0  0  0
M  END
>  <CHROM.1>
-82.26894148,115.73078909,78.63377142,142.19593271,39.16351392,-105.03899255
-33.36157268,106.96106600,-170.68034137,-154.75332847,-62.63859169,19.68157281
26.46572974,-0.67118994,-0.64946948,1.44606749,-0.47501175

>  <Name>
1nta_lig

>  <RI>
1.05895e+07

>  <Rbt.Current_Directory>
/home/itssahil/PROJECTS/Mol_Feturizer/New_Systems/rnas/1nta

>  <Rbt.Executable>
rbdock ($Id: //depot/dev/client3/rdock/2013.1/src/exe/rbdock.cxx#4 $)

>  <Rbt.Library>
libRbt.so (2013.1, Build901 2013/11/27)

>  <Rbt.Parameter_File>
/export/apps/rDock/src/rDock_2013.1_src/data/scripts/dock_solv.prm

>  <Rbt.Receptor>
prm/blind_docking_100.prm

>  <SCORE>
-27.5289

>  <SCORE.INTER>
-16.188

>  <SCORE.INTER.CONST>
1

>  <SCORE.INTER.POLAR>
-2.07524

>  <SCORE.INTER.ROT>
11

>  <SCORE.INTER.SOLV>
15.5733

>  <SCORE.INTER.VDW>
-19.999

>  <SCORE.INTER.norm>
-0.4047

>  <SCORE.INTRA>
-11.9461

>  <SCORE.INTRA.DIHEDRAL>
-4.69712

>  <SCORE.INTRA.DIHEDRAL.0>
19.0336

>  <SCORE.INTRA.POLAR>
0

>  <SCORE.INTRA.POLAR.0>
0

>  <SCORE.INTRA.REPUL>
0.181714

>  <SCORE.INTRA.REPUL.0>
0

>  <SCORE.INTRA.SOLV>
2.18699

>  <SCORE.INTRA.SOLV.lig_0>
-97.5861

>  <SCORE.INTRA.VDW>
-11.5997

>  <SCORE.INTRA.VDW.0>
11.7669

>  <SCORE.INTRA.norm>
-0.298654

>  <SCORE.RESTR>
0.605269

>  <SCORE.RESTR.CAVITY>
0.605269

>  <SCORE.RESTR.norm>
0.0151317

>  <SCORE.SYSTEM>
0

>  <SCORE.SYSTEM.CONST>
0

>  <SCORE.SYSTEM.DIHEDRAL>
0

>  <SCORE.SYSTEM.SOLV>
0

>  <SCORE.SYSTEM.norm>
0

>  <SCORE.heavy>
40

>  <SCORE.norm>
-0.688222

>  <RMSD>
20.434

$$$$
1nta_lig
 OpenBabel11021811403D
libRbt.so/2013.1/901 2013/11/27
 40 42  0  0  0  0  0  0  0  0999 V2000
   16.2418   19.3345    1.8340 C   0  0  0  0  0  0  0  0  0  0  0  0
   15.1624   19.3979    1.1478 N   0  0  0  0  0  0  0  0  0  0  0  0
   19.6084   26.9470   -2.7286 C   0  0  0  0  0  0  0  0  0  0  0  0
   19.3693   26.9199   -3.9158 O   0  0  0  0  0  0  0  0  0  0  0  0
   19.5617   22.9054   -3.0557 C   0  0  0  0  0  0  0  0  0  0  0  0
   19.9938   24.0349   -3.5529 N   0  0  0  0  0  0  0  0  0  0  0  0
   16.6760   25.3786   -2.6765 C   0  0  0  0  0  0  0  0  0  0  0  0
   19.1814   31.1366   -1.1078 C   0  0  0  0  0  0  0  0  0  0  0  0
   17.6465   20.8643    0.6996 C   0  0  2  0  0  0  0  0  0  0  0  0
   17.3657   19.4413    1.1411 N   0  0  0  0  0  0  0  0  0  0  0  0
   18.8248   25.3090    0.1990 C   0  0  2  0  0  0  0  0  0  0  0  0
   20.0966   28.5687    0.5263 C   0  0  1  0  0  0  0  0  0  0  0  0
   19.0975   27.6100    0.5453 O   0  0  0  0  0  0  0  0  0  0  0  0
   18.6874   20.8702   -0.4360 C   0  0  1  0  0  0  0  0  0  0  0  0
   18.1185   20.1980   -1.5187 O   0  0  0  0  0  0  0  0  0  0  0  0
   19.2912   26.6539   -0.3476 C   0  0  2  0  0  0  0  0  0  0  0  0
   19.6474   29.9788    0.8402 C   0  0  1  0  0  0  0  0  0  0  0  0
   18.5957   30.3303   -0.0501 N   0  0  0  0  0  0  0  0  0  0  0  0
   19.0286   22.2899   -0.9080 C   0  0  2  0  0  0  0  0  0  0  0  0
   20.0321   22.3337   -1.9985 N   0  0  0  0  0  0  0  0  0  0  0  0
   18.6008   26.6868   -1.6411 C   0  0  1  0  0  0  0  0  0  0  0  0
   17.6114   27.7153   -1.5669 O   0  0  0  0  0  0  0  0  0  0  0  0
   19.1849   30.0772    2.1450 C   0  0  2  0  0  0  0  0  0  0  0  0
   19.0700   31.4434    2.4540 O   0  0  0  0  0  0  0  0  0  0  0  0
   19.5559   23.0695    0.2862 C   0  0  1  0  0  0  0  0  0  0  0  0
   19.8664   24.3820   -0.1549 O   0  0  0  0  0  0  0  0  0  0  0  0
   17.9205   25.4017   -1.8442 C   0  0  1  0  0  0  0  0  0  0  0  0
   17.6779   24.9276   -0.5254 O   0  0  0  0  0  0  0  0  0  0  0  0
   20.1553   29.4268    3.0957 C   0  0  1  0  0  0  0  0  0  0  0  0
   19.5589   29.3267    4.3553 O   0  0  0  0  0  0  0  0  0  0  0  0
   18.4901   23.1038    1.4183 C   0  0  2  0  0  0  0  0  0  0  0  0
   18.9986   23.8475    2.5244 O   0  0  0  0  0  0  0  0  0  0  0  0
   20.4807   28.0515    2.6210 C   0  0  1  0  0  0  0  0  0  0  0  0
   21.0800   28.1637    1.3626 O   0  0  0  0  0  0  0  0  0  0  0  0
   18.1827   21.6607    1.8702 C   0  0  1  0  0  0  0  0  0  0  0  0
   17.1993   21.6711    2.9180 O   0  0  0  0  0  0  0  0  0  0  0  0
   21.4890   27.3588    3.5590 C   0  0  0  0  0  0  0  0  0  0  0  0
   20.8719   27.1267    4.8200 O   0  0  0  0  0  0  0  0  0  0  0  0
   16.2398   19.1727    3.1131 N   0  0  0  0  0  0  0  0  0  0  0  0
   18.5873   22.3000   -3.6130 N   0  0  0  0  0  0  0  0  0  0  0  0
  1  2  1  0  0  0  0
  1 39  1  0  0  0  0
  3  4  1  0  0  0  0
  5  6  1  0  0  0  0
  5 40  1  0  0  0  0
  9 10  1  1  0  0  0
  9 14  1  0  0  0  0
  9 35  1  0  0  0  0
 10  1  1  0  0  0  0
 11 16  1  0  0  0  0
 11 28  1  0  0  0  0
 11 26  1  6  0  0  0
 12 17  1  0  0  0  0
 12 34  1  0  0  0  0
 12 13  1  1  0  0  0
 14 15  1  6  0  0  0
 14 19  1  0  0  0  0
 16 13  1  1  0  0  0
 16 21  1  0  0  0  0
 17 18  1  6  0  0  0
 17 23  1  0  0  0  0
 18  8  1  0  0  0  0
 19 20  1  6  0  0  0
 19 25  1  0  0  0  0
 20  5  1  0  0  0  0
 21  3  1  6  0  0  0
 21 22  1  0  0  0  0
 21 27  1  0  0  0  0
 23 24  1  1  0  0  0
 23 29  1  0  0  0  0
 25 26  1  6  0  0  0
 25 31  1  0  0  0  0
 27  7  1  1  0  0  0
 27 28  1  0  0  0  0
 29 30  1  1  0  0  0
 29 33  1  0  0  0  0
 31 32  1  1  0  0  0
 31 35  1  0  0  0  0
 33 34  1  0  0  0  0
 33 37  1  1  0  0  0
 35 36  1  1  0  0  0
 37 38  1  0  0  0  0
M  END
>  <CHROM.1>
-162.57080812,75.22881243,-179.44607225,146.13687570,144.21895593,-99.67369720
120.50699017,114.63253622,173.45354296,100.51663651,66.84832326,18.82991297
25.19043637,0.31459790,3.09101125,-1.33698786,-1.49891631

>  <Name>
1nta_lig

>  <RI>
9.25352e+06

>  <Rbt.Current_Directory>
/home/itssahil/PROJECTS/Mol_Feturizer/New_Systems/rnas/1nta

>  <Rbt.Executable>
rbdock ($Id: //depot/dev/client3/rdock/2013.1/src/exe/rbdock.cxx#4 $)

>  <Rbt.Library>
libRbt.so (2013.1, Build901 2013/11/27)

>  <Rbt.Parameter_File>
/export/apps/rDock/src/rDock_2013.1_src/data/scripts/dock_solv.prm

>  <Rbt.Receptor>
prm/blind_docking_40.prm

>  <SCORE>
-13.8046

>  <SCORE.INTER>
-4.4603

>  <SCORE.INTER.CONST>
1

>  <SCORE.INTER.POLAR>
-0.00236738

>  <SCORE.INTER.ROT>
11

>  <SCORE.INTER.SOLV>
10.5012

>  <SCORE.INTER.VDW>
-17.3994

>  <SCORE.INTER.norm>
-0.111508

>  <SCORE.INTRA>
-11.1422

>  <SCORE.INTRA.DIHEDRAL>
-0.645953

>  <SCORE.INTRA.DIHEDRAL.0>
19.0336

>  <SCORE.INTRA.POLAR>
0

>  <SCORE.INTRA.POLAR.0>
0

>  <SCORE.INTRA.REPUL>
0

>  <SCORE.INTRA.REPUL.0>
0

>  <SCORE.INTRA.SOLV>
2.41544

>  <SCORE.INTRA.SOLV.lig_0>
-97.5861

>  <SCORE.INTRA.VDW>
-12.0269

>  <SCORE.INTRA.VDW.0>
11.7669

>  <SCORE.INTRA.norm>
-0.278554

>  <SCORE.RESTR>
1.79791

>  <SCORE.RESTR.CAVITY>
1.79791

>  <SCORE.RESTR.norm>
0.0449478

>  <SCORE.SYSTEM>
0

>  <SCORE.SYSTEM.CONST>
0

>  <SCORE.SYSTEM.DIHEDRAL>
0

>  <SCORE.SYSTEM.SOLV>
0

>  <SCORE.SYSTEM.norm>
0

>  <SCORE.heavy>
40

>  <SCORE.norm>
-0.345114

>  <RMSD>
20.434

$$$$
1nta_lig
 OpenBabel11021811403D
libRbt.so/2013.1/901 2013/11/27
 40 42  0  0  0  0  0  0  0  0999 V2000
   21.3970   23.0321   -4.8688 C   0  0  0  0  0  0  0  0  0  0  0  0
   22.2584   23.7778   -5.4536 N   0  0  0  0  0  0  0  0  0  0  0  0
   18.2721   26.9448    3.4649 C   0  0  0  0  0  0  0  0  0  0  0  0
   17.1068   27.2304    3.2984 O   0  0  0  0  0  0  0  0  0  0  0  0
   18.6126   23.3025    1.2722 C   0  0  0  0  0  0  0  0  0  0  0  0
   19.1735   23.3542    2.4523 N   0  0  0  0  0  0  0  0  0  0  0  0
   21.2516   27.6384    4.7698 C   0  0  0  0  0  0  0  0  0  0  0  0
   17.2316   27.4318   -2.0925 C   0  0  0  0  0  0  0  0  0  0  0  0
   20.7805   23.9618   -2.7817 C   0  0  2  0  0  0  0  0  0  0  0  0
   20.4300   23.6716   -4.2281 N   0  0  0  0  0  0  0  0  0  0  0  0
   20.8529   27.3278    1.2152 C   0  0  2  0  0  0  0  0  0  0  0  0
   19.5020   28.8422   -0.4745 C   0  0  1  0  0  0  0  0  0  0  0  0
   19.1632   28.9128    0.8663 O   0  0  0  0  0  0  0  0  0  0  0  0
   19.5059   23.9536   -1.9166 C   0  0  1  0  0  0  0  0  0  0  0  0
   18.9800   22.6620   -1.9714 O   0  0  0  0  0  0  0  0  0  0  0  0
   19.4339   27.7955    1.5201 C   0  0  2  0  0  0  0  0  0  0  0  0
   18.4296   29.2999   -1.4385 C   0  0  1  0  0  0  0  0  0  0  0  0
   17.2410   28.5632   -1.1803 N   0  0  0  0  0  0  0  0  0  0  0  0
   19.7984   24.2657   -0.4429 C   0  0  2  0  0  0  0  0  0  0  0  0
   18.5922   24.2708    0.4192 N   0  0  0  0  0  0  0  0  0  0  0  0
   19.4376   27.7685    2.9864 C   0  0  1  0  0  0  0  0  0  0  0  0
   19.3593   29.1230    3.4351 O   0  0  0  0  0  0  0  0  0  0  0  0
   18.1634   30.6532   -1.2843 C   0  0  2  0  0  0  0  0  0  0  0  0
   17.3950   31.0642   -2.3868 O   0  0  0  0  0  0  0  0  0  0  0  0
   20.4664   25.6298   -0.3736 C   0  0  1  0  0  0  0  0  0  0  0  0
   20.7377   25.9116    0.9904 O   0  0  0  0  0  0  0  0  0  0  0  0
   20.7121   27.2007    3.4435 C   0  0  1  0  0  0  0  0  0  0  0  0
   21.6183   27.4924    2.3868 O   0  0  0  0  0  0  0  0  0  0  0  0
   19.4478   31.4390   -1.2457 C   0  0  1  0  0  0  0  0  0  0  0  0
   19.1662   32.7498   -0.8520 O   0  0  0  0  0  0  0  0  0  0  0  0
   21.7776   25.6288   -1.2100 C   0  0  2  0  0  0  0  0  0  0  0  0
   22.3943   26.9123   -1.1243 O   0  0  0  0  0  0  0  0  0  0  0  0
   20.3761   30.8388   -0.2455 C   0  0  1  0  0  0  0  0  0  0  0  0
   20.6538   29.5297   -0.6510 O   0  0  0  0  0  0  0  0  0  0  0  0
   21.4396   25.3212   -2.6839 C   0  0  1  0  0  0  0  0  0  0  0  0
   22.6396   25.3168   -3.4744 O   0  0  0  0  0  0  0  0  0  0  0  0
   21.7127   31.6048   -0.1909 C   0  0  0  0  0  0  0  0  0  0  0  0
   22.2474   31.7072   -1.5057 O   0  0  0  0  0  0  0  0  0  0  0  0
   21.4650   21.7449   -4.8950 N   0  0  0  0  0  0  0  0  0  0  0  0
   18.0514   22.2249    0.8847 N   0  0  0  0  0  0  0  0  0  0  0  0
  1  2  1  0  0  0  0
  1 39  1  0  0  0  0
  3  4  1  0  0  0  0
  5  6  1  0  0  0  0
  5 40  1  0  0  0  0
  9 10  1  6  0  0  0
  9 14  1  0  0  0  0
  9 35  1  0  0  0  0
 10  1  1  0  0  0  0
 11 16  1  0  0  0  0
 11 28  1  0  0  0  0
 11 26  1  1  0  0  0
 12 17  1  0  0  0  0
 12 34  1  0  0  0  0
 12 13  1  1  0  0  0
 14 15  1  1  0  0  0
 14 19  1  0  0  0  0
 16 13  1  1  0  0  0
 16 21  1  0  0  0  0
 17 18  1  1  0  0  0
 17 23  1  0  0  0  0
 18  8  1  0  0  0  0
 19 20  1  1  0  0  0
 19 25  1  0  0  0  0
 20  5  1  0  0  0  0
 21  3  1  1  0  0  0
 21 22  1  0  0  0  0
 21 27  1  0  0  0  0
 23 24  1  6  0  0  0
 23 29  1  0  0  0  0
 25 26  1  1  0  0  0
 25 31  1  0  0  0  0
 27  7  1  1  0  0  0
 27 28  1  0  0  0  0
 29 30  1  1  0  0  0
 29 33  1  0  0  0  0
 31 32  1  6  0  0  0
 31 35  1  0  0  0  0
 33 34  1  0  0  0  0
 33 37  1  6  0  0  0
 35 36  1  6  0  0  0
 37 38  1  0  0  0  0
M  END
>  <CHROM.1>
-148.73465115,-90.18501468,88.84033701,131.32815202,48.54037066,-94.73297161
113.29142128,87.31774866,-64.75981846,-156.64060652,-52.59366332,19.93598734
26.96064069,-0.37252945,-0.99373383,1.32152892,-0.08411348

>  <Name>
1nta_lig

>  <RI>
1.05895e+07

>  <Rbt.Current_Directory>
/home/itssahil/PROJECTS/Mol_Feturizer/New_Systems/rnas/1nta

>  <Rbt.Executable>
rbdock ($Id: //depot/dev/client3/rdock/2013.1/src/exe/rbdock.cxx#4 $)

>  <Rbt.Library>
libRbt.so (2013.1, Build901 2013/11/27)

>  <Rbt.Parameter_File>
/export/apps/rDock/src/rDock_2013.1_src/data/scripts/dock_solv.prm

>  <Rbt.Receptor>
prm/blind_docking_100.prm

>  <SCORE>
-32.5503

>  <SCORE.INTER>
-15.0384

>  <SCORE.INTER.CONST>
1

>  <SCORE.INTER.POLAR>
-1.50027

>  <SCORE.INTER.ROT>
11

>  <SCORE.INTER.SOLV>
15.5729

>  <SCORE.INTER.VDW>
-21.149

>  <SCORE.INTER.norm>
-0.37596

>  <SCORE.INTRA>
-18.1405

>  <SCORE.INTRA.DIHEDRAL>
-2.041

>  <SCORE.INTRA.DIHEDRAL.0>
19.0336

>  <SCORE.INTRA.POLAR>
0

>  <SCORE.INTRA.POLAR.0>
0

>  <SCORE.INTRA.REPUL>
0.0251559

>  <SCORE.INTRA.REPUL.0>
0

>  <SCORE.INTRA.SOLV>
-3.53216

>  <SCORE.INTRA.SOLV.lig_0>
-97.5861

>  <SCORE.INTRA.VDW>
-15.4797

>  <SCORE.INTRA.VDW.0>
11.7669

>  <SCORE.INTRA.norm>
-0.453514

>  <SCORE.RESTR>
0.628636

>  <SCORE.RESTR.CAVITY>
0.628636

>  <SCORE.RESTR.norm>
0.0157159

>  <SCORE.SYSTEM>
0

>  <SCORE.SYSTEM.CONST>
0

>  <SCORE.SYSTEM.DIHEDRAL>
0

>  <SCORE.SYSTEM.SOLV>
0

>  <SCORE.SYSTEM.norm>
0

>  <SCORE.heavy>
40

>  <SCORE.norm>
-0.813758

>  <RMSD>
20.435

$$$$
1nta_lig
 OpenBabel11021811403D
libRbt.so/2013.1/901 2013/11/27
 40 42  0  0  0  0  0  0  0  0999 V2000
   18.8292   33.3530   -2.4670 C   0  0  0  0  0  0  0  0  0  0  0  0
   17.7434   34.0095   -2.6405 N   0  0  0  0  0  0  0  0  0  0  0  0
   20.3814   25.7825    3.9091 C   0  0  0  0  0  0  0  0  0  0  0  0
   20.6907   25.6378    5.0713 O   0  0  0  0  0  0  0  0  0  0  0  0
   21.6029   28.8083    1.7263 C   0  0  0  0  0  0  0  0  0  0  0  0
   21.4174   29.7331    2.6320 N   0  0  0  0  0  0  0  0  0  0  0  0
   17.4359   26.5197    5.2662 C   0  0  0  0  0  0  0  0  0  0  0  0
   17.8618   21.0921    1.7360 C   0  0  0  0  0  0  0  0  0  0  0  0
   18.7432   31.3809   -1.1615 C   0  0  2  0  0  0  0  0  0  0  0  0
   18.7152   32.0347   -2.5293 N   0  0  0  0  0  0  0  0  0  0  0  0
   18.0297   27.1207    1.7767 C   0  0  2  0  0  0  0  0  0  0  0  0
   19.5185   23.8781    1.2224 C   0  0  1  0  0  0  0  0  0  0  0  0
   18.6740   24.9696    1.1084 O   0  0  0  0  0  0  0  0  0  0  0  0
   19.9885   30.4837   -1.0295 C   0  0  1  0  0  0  0  0  0  0  0  0
   21.1059   31.3149   -1.1219 O   0  0  0  0  0  0  0  0  0  0  0  0
   18.9987   25.9534    1.9306 C   0  0  2  0  0  0  0  0  0  0  0  0
   19.0659   22.6303    0.4964 C   0  0  1  0  0  0  0  0  0  0  0  0
   17.7541   22.2995    0.9343 N   0  0  0  0  0  0  0  0  0  0  0  0
   20.0568   29.7760    0.3303 C   0  0  2  0  0  0  0  0  0  0  0  0
   21.2416   28.8993    0.4906 N   0  0  0  0  0  0  0  0  0  0  0  0
   18.9713   25.7544    3.3833 C   0  0  1  0  0  0  0  0  0  0  0  0
   18.3310   24.5003    3.6270 O   0  0  0  0  0  0  0  0  0  0  0  0
   19.0454   22.8307   -0.8767 C   0  0  2  0  0  0  0  0  0  0  0  0
   18.9100   21.5728   -1.4885 O   0  0  0  0  0  0  0  0  0  0  0  0
   18.7950   28.9432    0.4920 C   0  0  1  0  0  0  0  0  0  0  0  0
   18.8617   28.2941    1.7521 O   0  0  0  0  0  0  0  0  0  0  0  0
   18.1579   26.8164    3.9885 C   0  0  1  0  0  0  0  0  0  0  0  0
   17.2583   27.1941    2.9536 O   0  0  0  0  0  0  0  0  0  0  0  0
   20.3284   23.4753   -1.3317 C   0  0  1  0  0  0  0  0  0  0  0  0
   20.1857   23.8819   -2.6608 O   0  0  0  0  0  0  0  0  0  0  0  0
   17.5364   29.8525    0.4039 C   0  0  2  0  0  0  0  0  0  0  0  0
   16.3646   29.0555    0.5681 O   0  0  0  0  0  0  0  0  0  0  0  0
   20.6090   24.6809   -0.5008 C   0  0  1  0  0  0  0  0  0  0  0  0
   20.7536   24.2623    0.8256 O   0  0  0  0  0  0  0  0  0  0  0  0
   17.4999   30.5367   -0.9788 C   0  0  1  0  0  0  0  0  0  0  0  0
   16.3421   31.3817   -1.0804 O   0  0  0  0  0  0  0  0  0  0  0  0
   21.9274   25.3586   -0.9235 C   0  0  0  0  0  0  0  0  0  0  0  0
   23.0043   24.4487   -0.7297 O   0  0  0  0  0  0  0  0  0  0  0  0
   19.9591   33.9317   -2.2416 N   0  0  0  0  0  0  0  0  0  0  0  0
   22.2028   27.7272    2.0389 N   0  0  0  0  0  0  0  0  0  0  0  0
  1  2  1  0  0  0  0
  1 39  1  0  0  0  0
  3  4  1  0  0  0  0
  5  6  1  0  0  0  0
  5 40  1  0  0  0  0
  9 10  1  6  0  0  0
  9 14  1  0  0  0  0
  9 35  1  0  0  0  0
 10  1  1  0  0  0  0
 11 16  1  0  0  0  0
 11 28  1  0  0  0  0
 11 26  1  1  0  0  0
 12 17  1  0  0  0  0
 12 34  1  0  0  0  0
 12 13  1  6  0  0  0
 14 15  1  1  0  0  0
 14 19  1  0  0  0  0
 16 13  1  6  0  0  0
 16 21  1  0  0  0  0
 17 18  1  1  0  0  0
 17 23  1  0  0  0  0
 18  8  1  0  0  0  0
 19 20  1  6  0  0  0
 19 25  1  0  0  0  0
 20  5  1  0  0  0  0
 21  3  1  1  0  0  0
 21 22  1  0  0  0  0
 21 27  1  0  0  0  0
 23 24  1  6  0  0  0
 23 29  1  0  0  0  0
 25 26  1  1  0  0  0
 25 31  1  0  0  0  0
 27  7  1  1  0  0  0
 27 28  1  0  0  0  0
 29 30  1  6  0  0  0
 29 33  1  0  0  0  0
 31 32  1  6  0  0  0
 31 35  1  0  0  0  0
 33 34  1  0  0  0  0
 33 37  1  6  0  0  0
 35 36  1  1  0  0  0
 37 38  1  0  0  0  0
M  END
>  <CHROM.1>
-115.54430286,-103.40155467,114.69353651,169.61156501,-179.32370850,-109.61810123
151.10916037,-28.64061245,-179.49660608,-157.12997322,-61.61449974,19.31700706
27.20240143,0.63838486,-1.77417151,-1.28571696,2.66353592

>  <Name>
1nta_lig

>  <RI>
2.40834e+07

>  <Rbt.Current_Directory>
/home/itssahil/PROJECTS/Mol_Feturizer/New_Systems/rnas/1nta

>  <Rbt.Executable>
rbdock ($Id: //depot/dev/client3/rdock/2013.1/src/exe/rbdock.cxx#4 $)

>  <Rbt.Library>
libRbt.so (2013.1, Build901 2013/11/27)

>  <Rbt.Parameter_File>
/export/apps/rDock/src/rDock_2013.1_src/data/scripts/dock_solv.prm

>  <Rbt.Receptor>
prm/blind_docking_80.prm

>  <SCORE>
-32.9756

>  <SCORE.INTER>
-13.1905

>  <SCORE.INTER.CONST>
1

>  <SCORE.INTER.POLAR>
0

>  <SCORE.INTER.ROT>
11

>  <SCORE.INTER.SOLV>
21.8896

>  <SCORE.INTER.VDW>
-27.0235

>  <SCORE.INTER.norm>
-0.329762

>  <SCORE.INTRA>
-19.8395

>  <SCORE.INTRA.DIHEDRAL>
-5.22653

>  <SCORE.INTRA.DIHEDRAL.0>
19.0336

>  <SCORE.INTRA.POLAR>
0

>  <SCORE.INTRA.POLAR.0>
0

>  <SCORE.INTRA.REPUL>
0

>  <SCORE.INTRA.REPUL.0>
0

>  <SCORE.INTRA.SOLV>
-1.04507

>  <SCORE.INTRA.SOLV.lig_0>
-97.5861

>  <SCORE.INTRA.VDW>
-16.7037

>  <SCORE.INTRA.VDW.0>
11.7669

>  <SCORE.INTRA.norm>
-0.495988

>  <SCORE.RESTR>
0.0544073

>  <SCORE.RESTR.CAVITY>
0.0544073

>  <SCORE.RESTR.norm>
0.00136018

>  <SCORE.SYSTEM>
0

>  <SCORE.SYSTEM.CONST>
0

>  <SCORE.SYSTEM.DIHEDRAL>
0

>  <SCORE.SYSTEM.SOLV>
0

>  <SCORE.SYSTEM.norm>
0

>  <SCORE.heavy>
40

>  <SCORE.norm>
-0.82439

>  <RMSD>
20.476

$$$$
1nta_lig
 OpenBabel11021811403D
libRbt.so/2013.1/901 2013/11/27
 40 42  0  0  0  0  0  0  0  0999 V2000
   20.9186   32.4841   -0.8269 C   0  0  0  0  0  0  0  0  0  0  0  0
   20.4960   33.3709   -1.6485 N   0  0  0  0  0  0  0  0  0  0  0  0
   15.8865   24.3923   -0.9948 C   0  0  0  0  0  0  0  0  0  0  0  0
   16.3923   23.8701   -0.0260 O   0  0  0  0  0  0  0  0  0  0  0  0
   20.4919   26.8702    1.9816 C   0  0  0  0  0  0  0  0  0  0  0  0
   20.5544   27.5835    3.0756 N   0  0  0  0  0  0  0  0  0  0  0  0
   15.0974   26.5961   -3.3574 C   0  0  0  0  0  0  0  0  0  0  0  0
   18.1402   21.6924    0.7188 C   0  0  0  0  0  0  0  0  0  0  0  0
   19.4372   31.0059    0.2782 C   0  0  2  0  0  0  0  0  0  0  0  0
   20.1871   32.3237    0.2658 N   0  0  0  0  0  0  0  0  0  0  0  0
   18.4534   26.4095   -2.0952 C   0  0  2  0  0  0  0  0  0  0  0  0
   19.7729   23.4751   -1.6556 C   0  0  1  0  0  0  0  0  0  0  0  0
   18.9027   24.1457   -2.4986 O   0  0  0  0  0  0  0  0  0  0  0  0
   20.4140   29.8439    0.5403 C   0  0  1  0  0  0  0  0  0  0  0  0
   20.9490   30.0359    1.8150 O   0  0  0  0  0  0  0  0  0  0  0  0
   18.0812   24.9517   -1.8469 C   0  0  2  0  0  0  0  0  0  0  0  0
   19.3250   22.0950   -1.2272 C   0  0  1  0  0  0  0  0  0  0  0  0
   18.0340   22.1973   -0.6398 N   0  0  0  0  0  0  0  0  0  0  0  0
   19.7117   28.4795    0.5405 C   0  0  2  0  0  0  0  0  0  0  0  0
   20.6235   27.3364    0.7853 N   0  0  0  0  0  0  0  0  0  0  0  0
   16.6481   24.9701   -2.1575 C   0  0  1  0  0  0  0  0  0  0  0  0
   16.4641   24.2090   -3.3529 O   0  0  0  0  0  0  0  0  0  0  0  0
   19.2594   21.2317   -2.3119 C   0  0  2  0  0  0  0  0  0  0  0  0
   19.1320   19.9255   -1.8093 O   0  0  0  0  0  0  0  0  0  0  0  0
   19.0354   28.2975   -0.8091 C   0  0  1  0  0  0  0  0  0  0  0  0
   18.3848   27.0364   -0.8022 O   0  0  0  0  0  0  0  0  0  0  0  0
   16.2417   26.3560   -2.4221 C   0  0  1  0  0  0  0  0  0  0  0  0
   17.4333   26.9834   -2.8797 O   0  0  0  0  0  0  0  0  0  0  0  0
   20.5144   21.3321   -3.1385 C   0  0  1  0  0  0  0  0  0  0  0  0
   20.3236   20.6429   -4.3389 O   0  0  0  0  0  0  0  0  0  0  0  0
   18.0155   29.4450   -1.0579 C   0  0  2  0  0  0  0  0  0  0  0  0
   17.3846   29.2511   -2.3227 O   0  0  0  0  0  0  0  0  0  0  0  0
   20.7944   22.7610   -3.4582 C   0  0  1  0  0  0  0  0  0  0  0  0
   20.9873   23.4398   -2.2510 O   0  0  0  0  0  0  0  0  0  0  0  0
   18.7615   30.7958   -1.0601 C   0  0  1  0  0  0  0  0  0  0  0  0
   17.8352   31.8701   -1.2898 O   0  0  0  0  0  0  0  0  0  0  0  0
   22.0852   22.9072   -4.2881 C   0  0  0  0  0  0  0  0  0  0  0  0
   22.3154   24.2856   -4.5565 O   0  0  0  0  0  0  0  0  0  0  0  0
   21.9865   31.7947   -1.0421 N   0  0  0  0  0  0  0  0  0  0  0  0
   20.3113   25.6100    2.0569 N   0  0  0  0  0  0  0  0  0  0  0  0
  1  2  1  0  0  0  0
  1 39  1  0  0  0  0
  3  4  1  0  0  0  0
  5  6  1  0  0  0  0
  5 40  1  0  0  0  0
  9 10  1  6  0  0  0
  9 14  1  0  0  0  0
  9 35  1  0  0  0  0
 10  1  1  0  0  0  0
 11 16  1  0  0  0  0
 11 28  1  0  0  0  0
 11 26  1  1  0  0  0
 12 17  1  0  0  0  0
 12 34  1  0  0  0  0
 12 13  1  6  0  0  0
 14 15  1  1  0  0  0
 14 19  1  0  0  0  0
 16 13  1  6  0  0  0
 16 21  1  0  0  0  0
 17 18  1  6  0  0  0
 17 23  1  0  0  0  0
 18  8  1  0  0  0  0
 19 20  1  6  0  0  0
 19 25  1  0  0  0  0
 20  5  1  0  0  0  0
 21  3  1  1  0  0  0
 21 22  1  0  0  0  0
 21 27  1  0  0  0  0
 23 24  1  1  0  0  0
 23 29  1  0  0  0  0
 25 26  1  1  0  0  0
 25 31  1  0  0  0  0
 27  7  1  6  0  0  0
 27 28  1  0  0  0  0
 29 30  1  6  0  0  0
 29 33  1  0  0  0  0
 31 32  1  6  0  0  0
 31 35  1  0  0  0  0
 33 34  1  0  0  0  0
 33 37  1  6  0  0  0
 35 36  1  1  0  0  0
 37 38  1  0  0  0  0
M  END
>  <CHROM.1>
73.18763000,109.49778336,164.70208790,94.64157989,108.45822217,-120.95557794
104.92090181,-52.39588251,-7.14256077,-144.00124319,-179.46737687,19.12779741
26.26070759,-1.28494389,-1.50157227,0.37032128,-2.92961226

>  <Name>
1nta_lig

>  <RI>
9.25352e+06

>  <Rbt.Current_Directory>
/home/itssahil/PROJECTS/Mol_Feturizer/New_Systems/rnas/1nta

>  <Rbt.Executable>
rbdock ($Id: //depot/dev/client3/rdock/2013.1/src/exe/rbdock.cxx#4 $)

>  <Rbt.Library>
libRbt.so (2013.1, Build901 2013/11/27)

>  <Rbt.Parameter_File>
/export/apps/rDock/src/rDock_2013.1_src/data/scripts/dock_solv.prm

>  <Rbt.Receptor>
prm/blind_docking_40.prm

>  <SCORE>
9.22638

>  <SCORE.INTER>
18.0131

>  <SCORE.INTER.CONST>
1

>  <SCORE.INTER.POLAR>
-0.979796

>  <SCORE.INTER.ROT>
11

>  <SCORE.INTER.SOLV>
19.2643

>  <SCORE.INTER.VDW>
-2.08001

>  <SCORE.INTER.norm>
0.450328

>  <SCORE.INTRA>
-10.4601

>  <SCORE.INTRA.DIHEDRAL>
6.26494

>  <SCORE.INTRA.DIHEDRAL.0>
19.0336

>  <SCORE.INTRA.POLAR>
0

>  <SCORE.INTRA.POLAR.0>
0

>  <SCORE.INTRA.REPUL>
0

>  <SCORE.INTRA.REPUL.0>
0

>  <SCORE.INTRA.SOLV>
-1.27986

>  <SCORE.INTRA.SOLV.lig_0>
-97.5861

>  <SCORE.INTRA.VDW>
-12.9526

>  <SCORE.INTRA.VDW.0>
11.7669

>  <SCORE.INTRA.norm>
-0.261502

>  <SCORE.RESTR>
1.67333

>  <SCORE.RESTR.CAVITY>
1.67333

>  <SCORE.RESTR.norm>
0.0418333

>  <SCORE.SYSTEM>
0

>  <SCORE.SYSTEM.CONST>
0

>  <SCORE.SYSTEM.DIHEDRAL>
0

>  <SCORE.SYSTEM.SOLV>
0

>  <SCORE.SYSTEM.norm>
0

>  <SCORE.heavy>
40

>  <SCORE.norm>
0.230659

>  <RMSD>
20.488

$$$$
1nta_lig
 OpenBabel11021811403D
libRbt.so/2013.1/901 2013/11/27
 40 42  0  0  0  0  0  0  0  0999 V2000
   18.5587   18.0878   -0.8336 C   0  0  0  0  0  0  0  0  0  0  0  0
   18.0025   17.4443   -1.7911 N   0  0  0  0  0  0  0  0  0  0  0  0
   17.8485   28.0426   -2.7362 C   0  0  0  0  0  0  0  0  0  0  0  0
   17.4587   29.0139   -3.3461 O   0  0  0  0  0  0  0  0  0  0  0  0
   21.4155   23.1113   -3.2752 C   0  0  0  0  0  0  0  0  0  0  0  0
   22.2304   22.2728   -3.8606 N   0  0  0  0  0  0  0  0  0  0  0  0
   14.7912   26.7491   -2.9393 C   0  0  0  0  0  0  0  0  0  0  0  0
   19.2374   30.2461    0.7890 C   0  0  0  0  0  0  0  0  0  0  0  0
   18.8067   20.2935   -1.6546 C   0  0  2  0  0  0  0  0  0  0  0  0
   19.4492   18.9978   -1.1991 N   0  0  0  0  0  0  0  0  0  0  0  0
   17.3619   25.0542   -1.0928 C   0  0  2  0  0  0  0  0  0  0  0  0
   19.2358   27.2052    0.7578 C   0  0  1  0  0  0  0  0  0  0  0  0
   17.9770   26.7620    0.3884 O   0  0  0  0  0  0  0  0  0  0  0  0
   19.8291   21.1476   -2.4279 C   0  0  1  0  0  0  0  0  0  0  0  0
   20.1844   20.4294   -3.5707 O   0  0  0  0  0  0  0  0  0  0  0  0
   17.8972   26.4687   -0.8988 C   0  0  2  0  0  0  0  0  0  0  0  0
   19.2628   28.2104    1.8881 C   0  0  1  0  0  0  0  0  0  0  0  0
   18.4248   29.3062    1.5428 N   0  0  0  0  0  0  0  0  0  0  0  0
   19.2388   22.4852   -2.8941 C   0  0  2  0  0  0  0  0  0  0  0  0
   20.1977   23.3361   -3.6387 N   0  0  0  0  0  0  0  0  0  0  0  0
   17.0110   27.2293   -1.7860 C   0  0  1  0  0  0  0  0  0  0  0  0
   16.1858   28.0508   -0.9576 O   0  0  0  0  0  0  0  0  0  0  0  0
   18.8028   27.6463    3.0698 C   0  0  2  0  0  0  0  0  0  0  0  0
   19.1308   28.5245    4.1167 O   0  0  0  0  0  0  0  0  0  0  0  0
   18.7524   23.2390   -1.6666 C   0  0  1  0  0  0  0  0  0  0  0  0
   18.2045   24.4729   -2.1036 O   0  0  0  0  0  0  0  0  0  0  0  0
   16.1495   26.2870   -2.5110 C   0  0  1  0  0  0  0  0  0  0  0  0
   16.0717   25.1579   -1.6497 O   0  0  0  0  0  0  0  0  0  0  0  0
   19.4632   26.3134    3.3062 C   0  0  1  0  0  0  0  0  0  0  0  0
   18.8134   25.6655    4.3600 O   0  0  0  0  0  0  0  0  0  0  0  0
   17.6868   22.3983   -0.9073 C   0  0  2  0  0  0  0  0  0  0  0  0
   17.2356   23.1259    0.2339 O   0  0  0  0  0  0  0  0  0  0  0  0
   19.3379   25.4654    2.0865 C   0  0  1  0  0  0  0  0  0  0  0  0
   19.9942   26.1209    1.0402 O   0  0  0  0  0  0  0  0  0  0  0  0
   18.3215   21.0689   -0.4482 C   0  0  1  0  0  0  0  0  0  0  0  0
   17.3517   20.2772    0.2572 O   0  0  0  0  0  0  0  0  0  0  0  0
   20.0206   24.0973    2.2825 C   0  0  0  0  0  0  0  0  0  0  0  0
   19.9938   23.3807    1.0534 O   0  0  0  0  0  0  0  0  0  0  0  0
   18.2777   17.8648    0.4047 N   0  0  0  0  0  0  0  0  0  0  0  0
   21.8051   23.7608   -2.2492 N   0  0  0  0  0  0  0  0  0  0  0  0
  1  2  1  0  0  0  0
  1 39  1  0  0  0  0
  3  4  1  0  0  0  0
  5  6  1  0  0  0  0
  5 40  1  0  0  0  0
  9 10  1  1  0  0  0
  9 14  1  0  0  0  0
  9 35  1  0  0  0  0
 10  1  1  0  0  0  0
 11 16  1  0  0  0  0
 11 28  1  0  0  0  0
 11 26  1  6  0  0  0
 12 17  1  0  0  0  0
 12 34  1  0  0  0  0
 12 13  1  1  0  0  0
 14 15  1  6  0  0  0
 14 19  1  0  0  0  0
 16 13  1  1  0  0  0
 16 21  1  0  0  0  0
 17 18  1  6  0  0  0
 17 23  1  0  0  0  0
 18  8  1  0  0  0  0
 19 20  1  1  0  0  0
 19 25  1  0  0  0  0
 20  5  1  0  0  0  0
 21  3  1  6  0  0  0
 21 22  1  0  0  0  0
 21 27  1  0  0  0  0
 23 24  1  1  0  0  0
 23 29  1  0  0  0  0
 25 26  1  6  0  0  0
 25 31  1  0  0  0  0
 27  7  1  1  0  0  0
 27 28  1  0  0  0  0
 29 30  1  1  0  0  0
 29 33  1  0  0  0  0
 31 32  1  1  0  0  0
 31 35  1  0  0  0  0
 33 34  1  0  0  0  0
 33 37  1  1  0  0  0
 35 36  1  6  0  0  0
 37 38  1  0  0  0  0
M  END
>  <CHROM.1>
-164.05093069,79.96374878,126.71553081,148.43701906,126.56434879,-87.32675484
-28.18633616,93.63037470,-159.94486962,162.02759408,-174.13092407,18.62910267
24.41467637,-0.54848816,-1.15294639,-1.31291564,0.71106378

>  <Name>
1nta_lig

>  <RI>
2.40834e+07

>  <Rbt.Current_Directory>
/home/itssahil/PROJECTS/Mol_Feturizer/New_Systems/rnas/1nta

>  <Rbt.Executable>
rbdock ($Id: //depot/dev/client3/rdock/2013.1/src/exe/rbdock.cxx#4 $)

>  <Rbt.Library>
libRbt.so (2013.1, Build901 2013/11/27)

>  <Rbt.Parameter_File>
/export/apps/rDock/src/rDock_2013.1_src/data/scripts/dock_solv.prm

>  <Rbt.Receptor>
prm/blind_docking_80.prm

>  <SCORE>
-19.397

>  <SCORE.INTER>
-14.403

>  <SCORE.INTER.CONST>
1

>  <SCORE.INTER.POLAR>
-0.653214

>  <SCORE.INTER.ROT>
11

>  <SCORE.INTER.SOLV>
14.2261

>  <SCORE.INTER.VDW>
-23.0999

>  <SCORE.INTER.norm>
-0.360074

>  <SCORE.INTRA>
-5.80264

>  <SCORE.INTRA.DIHEDRAL>
4.16712

>  <SCORE.INTRA.DIHEDRAL.0>
19.0336

>  <SCORE.INTRA.POLAR>
0

>  <SCORE.INTRA.POLAR.0>
0

>  <SCORE.INTRA.REPUL>
0.0126756

>  <SCORE.INTRA.REPUL.0>
0

>  <SCORE.INTRA.SOLV>
-1.013

>  <SCORE.INTRA.SOLV.lig_0>
-97.5861

>  <SCORE.INTRA.VDW>
-7.44308

>  <SCORE.INTRA.VDW.0>
11.7669

>  <SCORE.INTRA.norm>
-0.145066

>  <SCORE.RESTR>
0.808636

>  <SCORE.RESTR.CAVITY>
0.808636

>  <SCORE.RESTR.norm>
0.0202159

>  <SCORE.SYSTEM>
0

>  <SCORE.SYSTEM.CONST>
0

>  <SCORE.SYSTEM.DIHEDRAL>
0

>  <SCORE.SYSTEM.SOLV>
0

>  <SCORE.SYSTEM.norm>
0

>  <SCORE.heavy>
40

>  <SCORE.norm>
-0.484924

>  <RMSD>
20.510

$$$$
1nta_lig
 OpenBabel11021811403D
libRbt.so/2013.1/901 2013/11/27
 40 42  0  0  0  0  0  0  0  0999 V2000
   18.8168   19.7392   -4.0415 C   0  0  0  0  0  0  0  0  0  0  0  0
   19.6328   19.5546   -5.0112 N   0  0  0  0  0  0  0  0  0  0  0  0
   17.8872   26.8678    2.8919 C   0  0  0  0  0  0  0  0  0  0  0  0
   17.1897   27.8535    2.7964 O   0  0  0  0  0  0  0  0  0  0  0  0
   21.4638   24.6386   -2.4618 C   0  0  0  0  0  0  0  0  0  0  0  0
   22.1734   24.4540   -3.5444 N   0  0  0  0  0  0  0  0  0  0  0  0
   20.5113   24.9803    3.6748 C   0  0  0  0  0  0  0  0  0  0  0  0
   16.6866   27.2265   -1.4653 C   0  0  0  0  0  0  0  0  0  0  0  0
   18.8366   21.3807   -2.3370 C   0  0  2  0  0  0  0  0  0  0  0  0
   19.3706   20.0717   -2.8851 N   0  0  0  0  0  0  0  0  0  0  0  0
   19.8466   25.8376    0.2522 C   0  0  2  0  0  0  0  0  0  0  0  0
   19.4206   28.4911   -0.8623 C   0  0  1  0  0  0  0  0  0  0  0  0
   19.8001   28.1731    0.4309 O   0  0  0  0  0  0  0  0  0  0  0  0
   19.8006   22.5314   -2.6826 C   0  0  1  0  0  0  0  0  0  0  0  0
   19.8309   22.6387   -4.0738 O   0  0  0  0  0  0  0  0  0  0  0  0
   19.2140   27.0754    0.8789 C   0  0  2  0  0  0  0  0  0  0  0  0
   18.0251   29.0571   -1.0073 C   0  0  1  0  0  0  0  0  0  0  0  0
   17.1021   28.1480   -0.4211 N   0  0  0  0  0  0  0  0  0  0  0  0
   19.3210   23.8806   -2.1308 C   0  0  2  0  0  0  0  0  0  0  0  0
   20.2283   25.0114   -2.4410 N   0  0  0  0  0  0  0  0  0  0  0  0
   19.2652   26.7276    2.3027 C   0  0  1  0  0  0  0  0  0  0  0  0
   20.2065   27.6078    2.9201 O   0  0  0  0  0  0  0  0  0  0  0  0
   17.9150   30.2848   -0.3696 C   0  0  2  0  0  0  0  0  0  0  0  0
   16.7118   30.8767   -0.7904 O   0  0  0  0  0  0  0  0  0  0  0  0
   19.1841   23.7509   -0.6221 C   0  0  1  0  0  0  0  0  0  0  0  0
   18.7372   24.9997   -0.1176 O   0  0  0  0  0  0  0  0  0  0  0  0
   19.7609   25.3517    2.4335 C   0  0  1  0  0  0  0  0  0  0  0  0
   20.5497   25.1569    1.2661 O   0  0  0  0  0  0  0  0  0  0  0  0
   19.0708   31.1753   -0.7435 C   0  0  1  0  0  0  0  0  0  0  0  0
   19.0658   32.2985    0.0877 O   0  0  0  0  0  0  0  0  0  0  0  0
   18.1773   22.6192   -0.2695 C   0  0  2  0  0  0  0  0  0  0  0  0
   18.0547   22.5200    1.1484 O   0  0  0  0  0  0  0  0  0  0  0  0
   20.3552   30.4467   -0.5384 C   0  0  1  0  0  0  0  0  0  0  0  0
   20.3511   29.3277   -1.3769 O   0  0  0  0  0  0  0  0  0  0  0  0
   18.6999   21.2809   -0.8325 C   0  0  1  0  0  0  0  0  0  0  0  0
   17.7827   20.2210   -0.5159 O   0  0  0  0  0  0  0  0  0  0  0  0
   21.5637   31.3200   -0.9300 C   0  0  0  0  0  0  0  0  0  0  0  0
   21.8574   32.2170    0.1349 O   0  0  0  0  0  0  0  0  0  0  0  0
   17.5415   19.6065   -4.1759 N   0  0  0  0  0  0  0  0  0  0  0  0
   21.9858   24.4233   -1.3183 N   0  0  0  0  0  0  0  0  0  0  0  0
  1  2  1  0  0  0  0
  1 39  1  0  0  0  0
  3  4  1  0  0  0  0
  5  6  1  0  0  0  0
  5 40  1  0  0  0  0
  9 10  1  1  0  0  0
  9 14  1  0  0  0  0
  9 35  1  0  0  0  0
 10  1  1  0  0  0  0
 11 16  1  0  0  0  0
 11 28  1  0  0  0  0
 11 26  1  1  0  0  0
 12 17  1  0  0  0  0
 12 34  1  0  0  0  0
 12 13  1  1  0  0  0
 14 15  1  6  0  0  0
 14 19  1  0  0  0  0
 16 13  1  1  0  0  0
 16 21  1  0  0  0  0
 17 18  1  1  0  0  0
 17 23  1  0  0  0  0
 18  8  1  0  0  0  0
 19 20  1  1  0  0  0
 19 25  1  0  0  0  0
 20  5  1  0  0  0  0
 21  3  1  1  0  0  0
 21 22  1  0  0  0  0
 21 27  1  0  0  0  0
 23 24  1  6  0  0  0
 23 29  1  0  0  0  0
 25 26  1  6  0  0  0
 25 31  1  0  0  0  0
 27  7  1  1  0  0  0
 27 28  1  0  0  0  0
 29 30  1  1  0  0  0
 29 33  1  0  0  0  0
 31 32  1  1  0  0  0
 31 35  1  0  0  0  0
 33 34  1  0  0  0  0
 33 37  1  6  0  0  0
 35 36  1  6  0  0  0
 37 38  1  0  0  0  0
M  END
>  <CHROM.1>
-98.02745579,123.24964167,-175.28728443,73.93191184,75.31977164,-90.06218340
-33.62762109,104.14678112,-52.11729162,-91.64777300,80.38975916,19.29390014
25.80368132,-0.62969259,-1.67006420,1.29767802,0.40339986

>  <Name>
1nta_lig

>  <RI>
1.05895e+07

>  <Rbt.Current_Directory>
/home/itssahil/PROJECTS/Mol_Feturizer/New_Systems/rnas/1nta

>  <Rbt.Executable>
rbdock ($Id: //depot/dev/client3/rdock/2013.1/src/exe/rbdock.cxx#4 $)

>  <Rbt.Library>
libRbt.so (2013.1, Build901 2013/11/27)

>  <Rbt.Parameter_File>
/export/apps/rDock/src/rDock_2013.1_src/data/scripts/dock_solv.prm

>  <Rbt.Receptor>
prm/blind_docking_100.prm

>  <SCORE>
-34.3603

>  <SCORE.INTER>
-16.4144

>  <SCORE.INTER.CONST>
1

>  <SCORE.INTER.POLAR>
-1.75439

>  <SCORE.INTER.ROT>
11

>  <SCORE.INTER.SOLV>
13.8205

>  <SCORE.INTER.VDW>
-20.6351

>  <SCORE.INTER.norm>
-0.410361

>  <SCORE.INTRA>
-18.083

>  <SCORE.INTRA.DIHEDRAL>
-8.42667

>  <SCORE.INTRA.DIHEDRAL.0>
19.0336

>  <SCORE.INTRA.POLAR>
0

>  <SCORE.INTRA.POLAR.0>
0

>  <SCORE.INTRA.REPUL>
0.01401

>  <SCORE.INTRA.REPUL.0>
0

>  <SCORE.INTRA.SOLV>
0.554961

>  <SCORE.INTRA.SOLV.lig_0>
-97.5861

>  <SCORE.INTRA.VDW>
-14.2172

>  <SCORE.INTRA.VDW.0>
11.7669

>  <SCORE.INTRA.norm>
-0.452074

>  <SCORE.RESTR>
0.137115

>  <SCORE.RESTR.CAVITY>
0.137115

>  <SCORE.RESTR.norm>
0.00342789

>  <SCORE.SYSTEM>
0

>  <SCORE.SYSTEM.CONST>
0

>  <SCORE.SYSTEM.DIHEDRAL>
0

>  <SCORE.SYSTEM.SOLV>
0

>  <SCORE.SYSTEM.norm>
0

>  <SCORE.heavy>
40

>  <SCORE.norm>
-0.859007

>  <RMSD>
20.521

$$$$
1nta_lig
 OpenBabel11021811403D
libRbt.so/2013.1/901 2013/11/27
 40 42  0  0  0  0  0  0  0  0999 V2000
   17.5193   17.7262    0.4323 C   0  0  0  0  0  0  0  0  0  0  0  0
   16.7831   17.1843   -0.4646 N   0  0  0  0  0  0  0  0  0  0  0  0
   18.5102   27.3724   -2.5482 C   0  0  0  0  0  0  0  0  0  0  0  0
   19.3350   28.1938   -2.2131 O   0  0  0  0  0  0  0  0  0  0  0  0
   19.7051   22.7150   -4.0079 C   0  0  0  0  0  0  0  0  0  0  0  0
   18.6207   22.3300   -4.6289 N   0  0  0  0  0  0  0  0  0  0  0  0
   15.3085   26.6028   -3.0155 C   0  0  0  0  0  0  0  0  0  0  0  0
   18.7416   30.2337    0.6667 C   0  0  0  0  0  0  0  0  0  0  0  0
   18.1311   19.7285   -0.6710 C   0  0  2  0  0  0  0  0  0  0  0  0
   18.5499   18.4244   -0.0207 N   0  0  0  0  0  0  0  0  0  0  0  0
   17.3318   24.6702   -0.7657 C   0  0  2  0  0  0  0  0  0  0  0  0
   19.2211   27.0929    0.9915 C   0  0  1  0  0  0  0  0  0  0  0  0
   18.0861   26.3755    0.6527 O   0  0  0  0  0  0  0  0  0  0  0  0
   19.3176   20.3418   -1.4385 C   0  0  1  0  0  0  0  0  0  0  0  0
   19.6518   19.4506   -2.4592 O   0  0  0  0  0  0  0  0  0  0  0  0
   18.0880   25.9852   -0.6109 C   0  0  2  0  0  0  0  0  0  0  0  0
   18.9883   28.2865    1.8915 C   0  0  1  0  0  0  0  0  0  0  0  0
   18.0207   29.1330    1.2837 N   0  0  0  0  0  0  0  0  0  0  0  0
   18.9570   21.6790   -2.0994 C   0  0  2  0  0  0  0  0  0  0  0  0
   20.0782   22.3009   -2.8438 N   0  0  0  0  0  0  0  0  0  0  0  0
   17.4478   26.8018   -1.6474 C   0  0  1  0  0  0  0  0  0  0  0  0
   16.7018   27.8226   -0.9815 O   0  0  0  0  0  0  0  0  0  0  0  0
   18.5213   27.8900    3.1368 C   0  0  2  0  0  0  0  0  0  0  0  0
   18.6121   28.9971    3.9977 O   0  0  0  0  0  0  0  0  0  0  0  0
   18.4920   22.6327   -1.0103 C   0  0  1  0  0  0  0  0  0  0  0  0
   18.1566   23.8658   -1.6272 O   0  0  0  0  0  0  0  0  0  0  0  0
   16.5112   25.9577   -2.3997 C   0  0  1  0  0  0  0  0  0  0  0  0
   16.1450   24.9405   -1.4756 O   0  0  0  0  0  0  0  0  0  0  0  0
   19.3615   26.7628    3.6772 C   0  0  1  0  0  0  0  0  0  0  0  0
   18.7324   26.2278    4.8043 O   0  0  0  0  0  0  0  0  0  0  0  0
   17.2658   22.0365   -0.2621 C   0  0  2  0  0  0  0  0  0  0  0  0
   16.8382   22.9493    0.7476 O   0  0  0  0  0  0  0  0  0  0  0  0
   19.4804   25.6867    2.6523 C   0  0  1  0  0  0  0  0  0  0  0  0
   20.1141   26.2316    1.5312 O   0  0  0  0  0  0  0  0  0  0  0  0
   17.6719   20.7007    0.3949 C   0  0  1  0  0  0  0  0  0  0  0  0
   16.5512   20.1337    1.0930 O   0  0  0  0  0  0  0  0  0  0  0  0
   20.3518   24.5215    3.1616 C   0  0  0  0  0  0  0  0  0  0  0  0
   20.4335   23.5222    2.1517 O   0  0  0  0  0  0  0  0  0  0  0  0
   17.2804   17.5994    1.6929 N   0  0  0  0  0  0  0  0  0  0  0  0
   20.4950   23.5445   -4.5686 N   0  0  0  0  0  0  0  0  0  0  0  0
  1  2  1  0  0  0  0
  1 39  1  0  0  0  0
  3  4  1  0  0  0  0
  5  6  1  0  0  0  0
  5 40  1  0  0  0  0
  9 10  1  1  0  0  0
  9 14  1  0  0  0  0
  9 35  1  0  0  0  0
 10  1  1  0  0  0  0
 11 16  1  0  0  0  0
 11 28  1  0  0  0  0
 11 26  1  6  0  0  0
 12 17  1  0  0  0  0
 12 34  1  0  0  0  0
 12 13  1  1  0  0  0
 14 15  1  6  0  0  0
 14 19  1  0  0  0  0
 16 13  1  1  0  0  0
 16 21  1  0  0  0  0
 17 18  1  6  0  0  0
 17 23  1  0  0  0  0
 18  8  1  0  0  0  0
 19 20  1  1  0  0  0
 19 25  1  0  0  0  0
 20  5  1  0  0  0  0
 21  3  1  6  0  0  0
 21 22  1  0  0  0  0
 21 27  1  0  0  0  0
 23 24  1  1  0  0  0
 23 29  1  0  0  0  0
 25 26  1  6  0  0  0
 25 31  1  0  0  0  0
 27  7  1  1  0  0  0
 27 28  1  0  0  0  0
 29 30  1  1  0  0  0
 29 33  1  0  0  0  0
 31 32  1  1  0  0  0
 31 35  1  0  0  0  0
 33 34  1  0  0  0  0
 33 37  1  1  0  0  0
 35 36  1  6  0  0  0
 37 38  1  0  0  0  0
M  END
>  <CHROM.1>
-167.80750611,71.72991071,123.31034192,139.74581184,149.28742160,-101.10275459
133.65512254,-18.07460287,-67.10330092,162.03647513,179.93030939,18.34650993
24.16557703,-0.14401778,-2.15824616,-1.49365407,-0.33283115

>  <Name>
1nta_lig

>  <RI>
2.40834e+07

>  <Rbt.Current_Directory>
/home/itssahil/PROJECTS/Mol_Feturizer/New_Systems/rnas/1nta

>  <Rbt.Executable>
rbdock ($Id: //depot/dev/client3/rdock/2013.1/src/exe/rbdock.cxx#4 $)

>  <Rbt.Library>
libRbt.so (2013.1, Build901 2013/11/27)

>  <Rbt.Parameter_File>
/export/apps/rDock/src/rDock_2013.1_src/data/scripts/dock_solv.prm

>  <Rbt.Receptor>
prm/blind_docking_80.prm

>  <SCORE>
-15.032

>  <SCORE.INTER>
-7.40419

>  <SCORE.INTER.CONST>
1

>  <SCORE.INTER.POLAR>
-0.481951

>  <SCORE.INTER.ROT>
11

>  <SCORE.INTER.SOLV>
12.2668

>  <SCORE.INTER.VDW>
-18.3519

>  <SCORE.INTER.norm>
-0.185105

>  <SCORE.INTRA>
-10.195

>  <SCORE.INTRA.DIHEDRAL>
2.15694

>  <SCORE.INTRA.DIHEDRAL.0>
19.0336

>  <SCORE.INTRA.POLAR>
0

>  <SCORE.INTRA.POLAR.0>
0

>  <SCORE.INTRA.REPUL>
0

>  <SCORE.INTRA.REPUL.0>
0

>  <SCORE.INTRA.SOLV>
-3.79051

>  <SCORE.INTRA.SOLV.lig_0>
-97.5861

>  <SCORE.INTRA.VDW>
-9.37821

>  <SCORE.INTRA.VDW.0>
11.7669

>  <SCORE.INTRA.norm>
-0.254875

>  <SCORE.RESTR>
2.56716

>  <SCORE.RESTR.CAVITY>
2.56716

>  <SCORE.RESTR.norm>
0.064179

>  <SCORE.SYSTEM>
0

>  <SCORE.SYSTEM.CONST>
0

>  <SCORE.SYSTEM.DIHEDRAL>
0

>  <SCORE.SYSTEM.SOLV>
0

>  <SCORE.SYSTEM.norm>
0

>  <SCORE.heavy>
40

>  <SCORE.norm>
-0.3758

>  <RMSD>
20.522

$$$$
1nta_lig
 OpenBabel11021811403D
libRbt.so/2013.1/901 2013/11/27
 40 42  0  0  0  0  0  0  0  0999 V2000
   19.1138   34.0415    0.6715 C   0  0  0  0  0  0  0  0  0  0  0  0
   19.6201   35.2141    0.5783 N   0  0  0  0  0  0  0  0  0  0  0  0
   16.8745   24.5120   -0.4032 C   0  0  0  0  0  0  0  0  0  0  0  0
   17.3720   23.4898    0.0152 O   0  0  0  0  0  0  0  0  0  0  0  0
   21.5334   27.8024   -0.9734 C   0  0  0  0  0  0  0  0  0  0  0  0
   21.6766   27.7507    0.3253 N   0  0  0  0  0  0  0  0  0  0  0  0
   15.0537   26.2400   -2.5850 C   0  0  0  0  0  0  0  0  0  0  0  0
   18.0279   21.4636   -3.9149 C   0  0  0  0  0  0  0  0  0  0  0  0
   19.0789   31.8247   -0.1562 C   0  0  2  0  0  0  0  0  0  0  0  0
   19.1532   33.3133   -0.4343 N   0  0  0  0  0  0  0  0  0  0  0  0
   18.5453   26.9599   -2.1595 C   0  0  2  0  0  0  0  0  0  0  0  0
   19.6766   23.5363   -2.1611 C   0  0  1  0  0  0  0  0  0  0  0  0
   19.4413   24.8359   -2.5773 O   0  0  0  0  0  0  0  0  0  0  0  0
   20.1058   31.0725   -1.0238 C   0  0  1  0  0  0  0  0  0  0  0  0
   21.3725   31.5108   -0.6347 O   0  0  0  0  0  0  0  0  0  0  0  0
   18.6127   25.4854   -1.7768 C   0  0  2  0  0  0  0  0  0  0  0  0
   19.9676   22.5449   -3.2661 C   0  0  1  0  0  0  0  0  0  0  0  0
   18.9025   22.5868   -4.2074 N   0  0  0  0  0  0  0  0  0  0  0  0
   20.0590   29.5550   -0.8005 C   0  0  2  0  0  0  0  0  0  0  0  0
   21.0322   28.7980   -1.6239 N   0  0  0  0  0  0  0  0  0  0  0  0
   17.1880   25.1400   -1.7348 C   0  0  1  0  0  0  0  0  0  0  0  0
   16.9361   24.2485   -2.8228 O   0  0  0  0  0  0  0  0  0  0  0  0
   21.1548   22.8540   -3.9151 C   0  0  2  0  0  0  0  0  0  0  0  0
   21.5065   21.7487   -4.7086 O   0  0  0  0  0  0  0  0  0  0  0  0
   18.6530   29.0744   -1.1228 C   0  0  1  0  0  0  0  0  0  0  0  0
   18.6144   27.6718   -0.9113 O   0  0  0  0  0  0  0  0  0  0  0  0
   16.4012   26.3619   -1.9437 C   0  0  1  0  0  0  0  0  0  0  0  0
   17.2655   27.2042   -2.6963 O   0  0  0  0  0  0  0  0  0  0  0  0
   22.2465   23.1205   -2.9122 C   0  0  1  0  0  0  0  0  0  0  0  0
   23.3517   23.6586   -3.5765 O   0  0  0  0  0  0  0  0  0  0  0  0
   17.6169   29.7994   -0.2175 C   0  0  2  0  0  0  0  0  0  0  0  0
   16.3064   29.3281   -0.5273 O   0  0  0  0  0  0  0  0  0  0  0  0
   21.7750   24.1146   -1.9062 C   0  0  1  0  0  0  0  0  0  0  0  0
   20.6722   23.5647   -1.2454 O   0  0  0  0  0  0  0  0  0  0  0  0
   17.6891   31.3185   -0.4788 C   0  0  1  0  0  0  0  0  0  0  0  0
   16.7372   32.0069    0.3487 O   0  0  0  0  0  0  0  0  0  0  0  0
   22.8597   24.3992   -0.8485 C   0  0  0  0  0  0  0  0  0  0  0  0
   23.1603   23.1958   -0.1510 O   0  0  0  0  0  0  0  0  0  0  0  0
   18.5948   33.5969    1.7648 N   0  0  0  0  0  0  0  0  0  0  0  0
   21.9266   26.8256   -1.6929 N   0  0  0  0  0  0  0  0  0  0  0  0
  1  2  1  0  0  0  0
  1 39  1  0  0  0  0
  3  4  1  0  0  0  0
  5  6  1  0  0  0  0
  5 40  1  0  0  0  0
  9 10  1  6  0  0  0
  9 14  1  0  0  0  0
  9 35  1  0  0  0  0
 10  1  1  0  0  0  0
 11 16  1  0  0  0  0
 11 28  1  0  0  0  0
 11 26  1  1  0  0  0
 12 17  1  0  0  0  0
 12 34  1  0  0  0  0
 12 13  1  6  0  0  0
 14 15  1  1  0  0  0
 14 19  1  0  0  0  0
 16 13  1  6  0  0  0
 16 21  1  0  0  0  0
 17 18  1  6  0  0  0
 17 23  1  0  0  0  0
 18  8  1  0  0  0  0
 19 20  1  6  0  0  0
 19 25  1  0  0  0  0
 20  5  1  0  0  0  0
 21  3  1  1  0  0  0
 21 22  1  0  0  0  0
 21 27  1  0  0  0  0
 23 24  1  6  0  0  0
 23 29  1  0  0  0  0
 25 26  1  1  0  0  0
 25 31  1  0  0  0  0
 27  7  1  6  0  0  0
 27 28  1  0  0  0  0
 29 30  1  6  0  0  0
 29 33  1  0  0  0  0
 31 32  1  6  0  0  0
 31 35  1  0  0  0  0
 33 34  1  0  0  0  0
 33 37  1  1  0  0  0
 35 36  1  1  0  0  0
 37 38  1  0  0  0  0
M  END
>  <CHROM.1>
-136.25800524,156.85066032,176.02841298,149.62798244,171.79897864,-99.49480461
142.59112931,-28.17524659,-60.92529575,-107.99905807,-61.51495597,19.39098364
26.98515626,-1.47112999,-1.72218949,0.04066999,-2.83521668

>  <Name>
1nta_lig

>  <RI>
0

>  <Rbt.Current_Directory>
/home/itssahil/PROJECTS/Mol_Feturizer/New_Systems/rnas/1nta

>  <Rbt.Executable>
rbdock ($Id: //depot/dev/client3/rdock/2013.1/src/exe/rbdock.cxx#4 $)

>  <Rbt.Library>
libRbt.so (2013.1, Build901 2013/11/27)

>  <Rbt.Parameter_File>
/export/apps/rDock/src/rDock_2013.1_src/data/scripts/dock_solv.prm

>  <Rbt.Receptor>
prm/blind_docking_60.prm

>  <SCORE>
-28.9056

>  <SCORE.INTER>
-13.4576

>  <SCORE.INTER.CONST>
1

>  <SCORE.INTER.POLAR>
-1.19243

>  <SCORE.INTER.ROT>
11

>  <SCORE.INTER.SOLV>
17.1759

>  <SCORE.INTER.VDW>
-21.6556

>  <SCORE.INTER.norm>
-0.336439

>  <SCORE.INTRA>
-17.358

>  <SCORE.INTRA.DIHEDRAL>
-4.33529

>  <SCORE.INTRA.DIHEDRAL.0>
19.0336

>  <SCORE.INTRA.POLAR>
0

>  <SCORE.INTRA.POLAR.0>
0

>  <SCORE.INTRA.REPUL>
0

>  <SCORE.INTRA.REPUL.0>
0

>  <SCORE.INTRA.SOLV>
2.29348

>  <SCORE.INTRA.SOLV.lig_0>
-97.5861

>  <SCORE.INTRA.VDW>
-16.3371

>  <SCORE.INTRA.VDW.0>
11.7669

>  <SCORE.INTRA.norm>
-0.43395

>  <SCORE.RESTR>
1.90997

>  <SCORE.RESTR.CAVITY>
1.90997

>  <SCORE.RESTR.norm>
0.0477493

>  <SCORE.SYSTEM>
0

>  <SCORE.SYSTEM.CONST>
0

>  <SCORE.SYSTEM.DIHEDRAL>
0

>  <SCORE.SYSTEM.SOLV>
0

>  <SCORE.SYSTEM.norm>
0

>  <SCORE.heavy>
40

>  <SCORE.norm>
-0.72264

>  <RMSD>
20.542

$$$$
1nta_lig
 OpenBabel11021811403D
libRbt.so/2013.1/901 2013/11/27
 40 42  0  0  0  0  0  0  0  0999 V2000
   18.6015   18.7725   -2.3598 C   0  0  0  0  0  0  0  0  0  0  0  0
   18.4140   18.0492   -1.3197 N   0  0  0  0  0  0  0  0  0  0  0  0
   17.8604   26.9894    2.2636 C   0  0  0  0  0  0  0  0  0  0  0  0
   17.5160   27.1471    3.4142 O   0  0  0  0  0  0  0  0  0  0  0  0
   21.3073   24.3988   -3.7276 C   0  0  0  0  0  0  0  0  0  0  0  0
   20.5652   24.4872   -4.8005 N   0  0  0  0  0  0  0  0  0  0  0  0
   20.3487   25.0498    3.3161 C   0  0  0  0  0  0  0  0  0  0  0  0
   16.8561   27.2770   -1.9263 C   0  0  0  0  0  0  0  0  0  0  0  0
   19.1026   21.0707   -2.0994 C   0  0  2  0  0  0  0  0  0  0  0  0
   19.5931   19.6468   -2.2757 N   0  0  0  0  0  0  0  0  0  0  0  0
   20.0291   25.8655   -0.1657 C   0  0  2  0  0  0  0  0  0  0  0  0
   19.4802   28.7623   -1.1686 C   0  0  1  0  0  0  0  0  0  0  0  0
   20.0286   28.2043   -0.0260 O   0  0  0  0  0  0  0  0  0  0  0  0
   20.2377   22.0638   -2.4129 C   0  0  1  0  0  0  0  0  0  0  0  0
   20.5706   21.8966   -3.7580 O   0  0  0  0  0  0  0  0  0  0  0  0
   19.3742   27.1294    0.3810 C   0  0  2  0  0  0  0  0  0  0  0  0
   18.0075   29.0979   -1.0830 C   0  0  1  0  0  0  0  0  0  0  0  0
   17.2953   27.9272   -0.7030 N   0  0  0  0  0  0  0  0  0  0  0  0
   19.8038   23.5240   -2.2278 C   0  0  2  0  0  0  0  0  0  0  0  0
   20.8742   24.5083   -2.5168 N   0  0  0  0  0  0  0  0  0  0  0  0
   19.2831   26.8045    1.8082 C   0  0  1  0  0  0  0  0  0  0  0  0
   20.1859   27.6710    2.4983 O   0  0  0  0  0  0  0  0  0  0  0  0
   17.7752   30.0917   -0.1426 C   0  0  2  0  0  0  0  0  0  0  0  0
   16.4607   30.5533   -0.3269 O   0  0  0  0  0  0  0  0  0  0  0  0
   19.3404   23.6992   -0.7903 C   0  0  1  0  0  0  0  0  0  0  0  0
   18.9371   25.0498   -0.6257 O   0  0  0  0  0  0  0  0  0  0  0  0
   19.7275   25.4190    2.0047 C   0  0  1  0  0  0  0  0  0  0  0  0
   20.6162   25.1846    0.9193 O   0  0  0  0  0  0  0  0  0  0  0  0
   18.7400   31.2321   -0.3357 C   0  0  1  0  0  0  0  0  0  0  0  0
   18.6460   32.0964    0.7581 O   0  0  0  0  0  0  0  0  0  0  0  0
   18.1643   22.7291   -0.4831 C   0  0  2  0  0  0  0  0  0  0  0  0
   17.7371   22.9156    0.8652 O   0  0  0  0  0  0  0  0  0  0  0  0
   20.1340   30.7075   -0.3995 C   0  0  1  0  0  0  0  0  0  0  0  0
   20.2178   29.8474   -1.4988 O   0  0  0  0  0  0  0  0  0  0  0  0
   18.6435   21.2744   -0.6712 C   0  0  1  0  0  0  0  0  0  0  0  0
   17.5699   20.3614   -0.3907 O   0  0  0  0  0  0  0  0  0  0  0  0
   21.1515   31.8449   -0.6172 C   0  0  0  0  0  0  0  0  0  0  0  0
   20.5975   32.8035   -1.5112 O   0  0  0  0  0  0  0  0  0  0  0  0
   17.8734   18.6641   -3.4182 N   0  0  0  0  0  0  0  0  0  0  0  0
   22.5560   24.1645   -3.8391 N   0  0  0  0  0  0  0  0  0  0  0  0
  1  2  1  0  0  0  0
  1 39  1  0  0  0  0
  3  4  1  0  0  0  0
  5  6  1  0  0  0  0
  5 40  1  0  0  0  0
  9 10  1  1  0  0  0
  9 14  1  0  0  0  0
  9 35  1  0  0  0  0
 10  1  1  0  0  0  0
 11 16  1  0  0  0  0
 11 28  1  0  0  0  0
 11 26  1  1  0  0  0
 12 17  1  0  0  0  0
 12 34  1  0  0  0  0
 12 13  1  1  0  0  0
 14 15  1  6  0  0  0
 14 19  1  0  0  0  0
 16 13  1  1  0  0  0
 16 21  1  0  0  0  0
 17 18  1  1  0  0  0
 17 23  1  0  0  0  0
 18  8  1  0  0  0  0
 19 20  1  1  0  0  0
 19 25  1  0  0  0  0
 20  5  1  0  0  0  0
 21  3  1  1  0  0  0
 21 22  1  0  0  0  0
 21 27  1  0  0  0  0
 23 24  1  6  0  0  0
 23 29  1  0  0  0  0
 25 26  1  6  0  0  0
 25 31  1  0  0  0  0
 27  7  1  1  0  0  0
 27 28  1  0  0  0  0
 29 30  1  1  0  0  0
 29 33  1  0  0  0  0
 31 32  1  1  0  0  0
 31 35  1  0  0  0  0
 33 34  1  0  0  0  0
 33 37  1  6  0  0  0
 35 36  1  6  0  0  0
 37 38  1  0  0  0  0
M  END
>  <CHROM.1>
-163.70181402,-105.50913263,-162.49569851,54.53428471,94.84837859,-93.35274790
59.00721953,56.83135237,-159.59161219,-91.66496135,-37.95006716,19.24552362
25.68675921,-0.69961421,1.57565803,-1.14820398,-2.93151649

>  <Name>
1nta_lig

>  <RI>
0

>  <Rbt.Current_Directory>
/home/itssahil/PROJECTS/Mol_Feturizer/New_Systems/rnas/1nta

>  <Rbt.Executable>
rbdock ($Id: //depot/dev/client3/rdock/2013.1/src/exe/rbdock.cxx#4 $)

>  <Rbt.Library>
libRbt.so (2013.1, Build901 2013/11/27)

>  <Rbt.Parameter_File>
/export/apps/rDock/src/rDock_2013.1_src/data/scripts/dock_solv.prm

>  <Rbt.Receptor>
prm/blind_docking_60.prm

>  <SCORE>
-25.2338

>  <SCORE.INTER>
-13.5147

>  <SCORE.INTER.CONST>
1

>  <SCORE.INTER.POLAR>
-1.75205

>  <SCORE.INTER.ROT>
11

>  <SCORE.INTER.SOLV>
16.6986

>  <SCORE.INTER.VDW>
-19.6692

>  <SCORE.INTER.norm>
-0.337868

>  <SCORE.INTRA>
-13.4777

>  <SCORE.INTRA.DIHEDRAL>
-3.89241

>  <SCORE.INTRA.DIHEDRAL.0>
19.0336

>  <SCORE.INTRA.POLAR>
0

>  <SCORE.INTRA.POLAR.0>
0

>  <SCORE.INTRA.REPUL>
0

>  <SCORE.INTRA.REPUL.0>
0

>  <SCORE.INTRA.SOLV>
-1.8633

>  <SCORE.INTRA.SOLV.lig_0>
-97.5861

>  <SCORE.INTRA.VDW>
-10.5998

>  <SCORE.INTRA.VDW.0>
11.7669

>  <SCORE.INTRA.norm>
-0.336942

>  <SCORE.RESTR>
1.75862

>  <SCORE.RESTR.CAVITY>
1.75862

>  <SCORE.RESTR.norm>
0.0439656

>  <SCORE.SYSTEM>
0

>  <SCORE.SYSTEM.CONST>
0

>  <SCORE.SYSTEM.DIHEDRAL>
0

>  <SCORE.SYSTEM.SOLV>
0

>  <SCORE.SYSTEM.norm>
0

>  <SCORE.heavy>
40

>  <SCORE.norm>
-0.630845

>  <RMSD>
20.561

$$$$
1nta_lig
 OpenBabel11021811403D
libRbt.so/2013.1/901 2013/11/27
 40 42  0  0  0  0  0  0  0  0999 V2000
   19.3382   19.9548   -3.7708 C   0  0  0  0  0  0  0  0  0  0  0  0
   20.4846   19.4944   -4.1080 N   0  0  0  0  0  0  0  0  0  0  0  0
   20.4324   29.1291   -0.5269 C   0  0  0  0  0  0  0  0  0  0  0  0
   20.9221   29.6672   -1.4953 O   0  0  0  0  0  0  0  0  0  0  0  0
   21.9742   25.8170   -1.9831 C   0  0  0  0  0  0  0  0  0  0  0  0
   22.3872   25.4965   -3.1816 N   0  0  0  0  0  0  0  0  0  0  0  0
   17.6755   30.3137   -1.9613 C   0  0  0  0  0  0  0  0  0  0  0  0
   18.8780   29.0610    4.4940 C   0  0  0  0  0  0  0  0  0  0  0  0
   19.2238   22.1384   -2.8654 C   0  0  2  0  0  0  0  0  0  0  0  0
   19.3095   20.6417   -2.6385 N   0  0  0  0  0  0  0  0  0  0  0  0
   17.8733   26.8669   -0.9762 C   0  0  2  0  0  0  0  0  0  0  0  0
   19.4249   27.0656    2.2204 C   0  0  1  0  0  0  0  0  0  0  0  0
   18.4004   27.1327    1.2911 O   0  0  0  0  0  0  0  0  0  0  0  0
   20.2376   22.8689   -1.9647 C   0  0  1  0  0  0  0  0  0  0  0  0
   21.5109   22.4555   -2.3593 O   0  0  0  0  0  0  0  0  0  0  0  0
   18.8339   27.4145    0.0738 C   0  0  2  0  0  0  0  0  0  0  0  0
   18.9850   26.9060    3.6590 C   0  0  1  0  0  0  0  0  0  0  0  0
   18.0837   27.9585    3.9788 N   0  0  0  0  0  0  0  0  0  0  0  0
   20.1787   24.3928   -2.1356 C   0  0  2  0  0  0  0  0  0  0  0  0
   21.1391   25.1293   -1.2792 N   0  0  0  0  0  0  0  0  0  0  0  0
   18.9708   28.8061   -0.3684 C   0  0  1  0  0  0  0  0  0  0  0  0
   18.3421   29.6275    0.6176 O   0  0  0  0  0  0  0  0  0  0  0  0
   18.3452   25.6900    3.8541 C   0  0  2  0  0  0  0  0  0  0  0  0
   18.2351   25.4844    5.2400 O   0  0  0  0  0  0  0  0  0  0  0  0
   18.7662   24.8495   -1.8073 C   0  0  1  0  0  0  0  0  0  0  0  0
   18.7164   26.2583   -1.9704 O   0  0  0  0  0  0  0  0  0  0  0  0
   18.2504   28.9697   -1.6372 C   0  0  1  0  0  0  0  0  0  0  0  0
   17.2440   27.9656   -1.5944 O   0  0  0  0  0  0  0  0  0  0  0  0
   19.1471   24.5716    3.2422 C   0  0  1  0  0  0  0  0  0  0  0  0
   18.3743   23.4075    3.2398 O   0  0  0  0  0  0  0  0  0  0  0  0
   17.7431   24.1474   -2.7449 C   0  0  2  0  0  0  0  0  0  0  0  0
   16.4263   24.5961   -2.4287 O   0  0  0  0  0  0  0  0  0  0  0  0
   19.4886   24.9098    1.8310 C   0  0  1  0  0  0  0  0  0  0  0  0
   20.2645   26.0731    1.8455 O   0  0  0  0  0  0  0  0  0  0  0  0
   17.8271   22.6208   -2.5358 C   0  0  1  0  0  0  0  0  0  0  0  0
   16.8874   21.9532   -3.3938 O   0  0  0  0  0  0  0  0  0  0  0  0
   20.3284   23.7959    1.1751 C   0  0  0  0  0  0  0  0  0  0  0  0
   19.4812   22.6983    0.8548 O   0  0  0  0  0  0  0  0  0  0  0  0
   18.2791   19.7612   -4.4800 N   0  0  0  0  0  0  0  0  0  0  0  0
   22.4228   26.8693   -1.4192 N   0  0  0  0  0  0  0  0  0  0  0  0
  1  2  1  0  0  0  0
  1 39  1  0  0  0  0
  3  4  1  0  0  0  0
  5  6  1  0  0  0  0
  5 40  1  0  0  0  0
  9 10  1  1  0  0  0
  9 14  1  0  0  0  0
  9 35  1  0  0  0  0
 10  1  1  0  0  0  0
 11 16  1  0  0  0  0
 11 28  1  0  0  0  0
 11 26  1  6  0  0  0
 12 17  1  0  0  0  0
 12 34  1  0  0  0  0
 12 13  1  6  0  0  0
 14 15  1  6  0  0  0
 14 19  1  0  0  0  0
 16 13  1  1  0  0  0
 16 21  1  0  0  0  0
 17 18  1  6  0  0  0
 17 23  1  0  0  0  0
 18  8  1  0  0  0  0
 19 20  1  1  0  0  0
 19 25  1  0  0  0  0
 20  5  1  0  0  0  0
 21  3  1  6  0  0  0
 21 22  1  0  0  0  0
 21 27  1  0  0  0  0
 23 24  1  1  0  0  0
 23 29  1  0  0  0  0
 25 26  1  6  0  0  0
 25 31  1  0  0  0  0
 27  7  1  1  0  0  0
 27 28  1  0  0  0  0
 29 30  1  6  0  0  0
 29 33  1  0  0  0  0
 31 32  1  1  0  0  0
 31 35  1  0  0  0  0
 33 34  1  0  0  0  0
 33 37  1  1  0  0  0
 35 36  1  6  0  0  0
 37 38  1  0  0  0  0
M  END
>  <CHROM.1>
-133.74058419,103.90787461,100.35630797,173.20820719,153.83335721,-90.24454753
119.29490769,-30.17147344,131.49924191,-143.13542729,75.66151514,19.20117843
25.35008856,-0.42524871,1.00620974,-1.46609132,-3.02905691

>  <Name>
1nta_lig

>  <RI>
2.40834e+07

>  <Rbt.Current_Directory>
/home/itssahil/PROJECTS/Mol_Feturizer/New_Systems/rnas/1nta

>  <Rbt.Executable>
rbdock ($Id: //depot/dev/client3/rdock/2013.1/src/exe/rbdock.cxx#4 $)

>  <Rbt.Library>
libRbt.so (2013.1, Build901 2013/11/27)

>  <Rbt.Parameter_File>
/export/apps/rDock/src/rDock_2013.1_src/data/scripts/dock_solv.prm

>  <Rbt.Receptor>
prm/blind_docking_80.prm

>  <SCORE>
-19.7699

>  <SCORE.INTER>
-4.521

>  <SCORE.INTER.CONST>
1

>  <SCORE.INTER.POLAR>
-1.69862

>  <SCORE.INTER.ROT>
11

>  <SCORE.INTER.SOLV>
18.7669

>  <SCORE.INTER.VDW>
-14.5409

>  <SCORE.INTER.norm>
-0.113025

>  <SCORE.INTRA>
-16.5597

>  <SCORE.INTRA.DIHEDRAL>
3.84297

>  <SCORE.INTRA.DIHEDRAL.0>
19.0336

>  <SCORE.INTRA.POLAR>
0

>  <SCORE.INTRA.POLAR.0>
0

>  <SCORE.INTRA.REPUL>
0

>  <SCORE.INTRA.REPUL.0>
0

>  <SCORE.INTRA.SOLV>
-0.207758

>  <SCORE.INTRA.SOLV.lig_0>
-97.5861

>  <SCORE.INTRA.VDW>
-18.3773

>  <SCORE.INTRA.VDW.0>
11.7669

>  <SCORE.INTRA.norm>
-0.413992

>  <SCORE.RESTR>
1.31077

>  <SCORE.RESTR.CAVITY>
1.31077

>  <SCORE.RESTR.norm>
0.0327693

>  <SCORE.SYSTEM>
0

>  <SCORE.SYSTEM.CONST>
0

>  <SCORE.SYSTEM.DIHEDRAL>
0

>  <SCORE.SYSTEM.SOLV>
0

>  <SCORE.SYSTEM.norm>
0

>  <SCORE.heavy>
40

>  <SCORE.norm>
-0.494248

>  <RMSD>
20.569

$$$$
1nta_lig
 OpenBabel11021811403D
libRbt.so/2013.1/901 2013/11/27
 40 42  0  0  0  0  0  0  0  0999 V2000
   19.5697   20.7887   -3.7444 C   0  0  0  0  0  0  0  0  0  0  0  0
   20.6054   20.0990   -3.4414 N   0  0  0  0  0  0  0  0  0  0  0  0
   17.7590   26.1211    3.8454 C   0  0  0  0  0  0  0  0  0  0  0  0
   17.5109   26.1091    5.0310 O   0  0  0  0  0  0  0  0  0  0  0  0
   17.7103   21.9572    1.5079 C   0  0  0  0  0  0  0  0  0  0  0  0
   18.3288   21.4745    2.5540 N   0  0  0  0  0  0  0  0  0  0  0  0
   20.8135   26.9510    4.8663 C   0  0  0  0  0  0  0  0  0  0  0  0
   16.1566   26.8837   -1.8016 C   0  0  0  0  0  0  0  0  0  0  0  0
   20.0815   22.5433   -2.2411 C   0  0  2  0  0  0  0  0  0  0  0  0
   19.7089   22.1021   -3.6431 N   0  0  0  0  0  0  0  0  0  0  0  0
   20.1763   26.2851    1.3963 C   0  0  2  0  0  0  0  0  0  0  0  0
   18.7317   27.6324   -0.3341 C   0  0  1  0  0  0  0  0  0  0  0  0
   18.4510   27.8220    1.0086 O   0  0  0  0  0  0  0  0  0  0  0  0
   18.8268   22.5839   -1.3483 C   0  0  1  0  0  0  0  0  0  0  0  0
   18.3401   21.2785   -1.2635 O   0  0  0  0  0  0  0  0  0  0  0  0
   18.7768   26.7765    1.7501 C   0  0  2  0  0  0  0  0  0  0  0  0
   17.8403   28.3876   -1.2952 C   0  0  1  0  0  0  0  0  0  0  0  0
   16.4857   28.0594   -1.0131 N   0  0  0  0  0  0  0  0  0  0  0  0
   19.1413   23.0478    0.0802 C   0  0  2  0  0  0  0  0  0  0  0  0
   17.9544   23.1033    0.9670 N   0  0  0  0  0  0  0  0  0  0  0  0
   18.8808   26.8964    3.2081 C   0  0  1  0  0  0  0  0  0  0  0  0
   18.8199   28.2888    3.5239 O   0  0  0  0  0  0  0  0  0  0  0  0
   18.0090   29.7586   -1.1612 C   0  0  2  0  0  0  0  0  0  0  0  0
   17.3899   30.3734   -2.2630 O   0  0  0  0  0  0  0  0  0  0  0  0
   19.7681   24.4307   -0.0008 C   0  0  1  0  0  0  0  0  0  0  0  0
   20.0601   24.8532    1.3221 O   0  0  0  0  0  0  0  0  0  0  0  0
   20.1891   26.3811    3.6305 C   0  0  1  0  0  0  0  0  0  0  0  0
   21.0182   26.5684    2.4901 O   0  0  0  0  0  0  0  0  0  0  0  0
   19.4740   30.1078   -1.1484 C   0  0  1  0  0  0  0  0  0  0  0  0
   19.6184   31.4462   -0.7741 O   0  0  0  0  0  0  0  0  0  0  0  0
   21.0603   24.3849   -0.8650 C   0  0  2  0  0  0  0  0  0  0  0  0
   21.6388   25.6878   -0.9204 O   0  0  0  0  0  0  0  0  0  0  0  0
   20.1849   29.2622   -0.1474 C   0  0  1  0  0  0  0  0  0  0  0  0
   20.0373   27.9264   -0.5334 O   0  0  0  0  0  0  0  0  0  0  0  0
   20.7001   23.9241   -2.2930 C   0  0  1  0  0  0  0  0  0  0  0  0
   21.8823   23.8761   -3.1085 O   0  0  0  0  0  0  0  0  0  0  0  0
   21.6938   29.5765   -0.1187 C   0  0  0  0  0  0  0  0  0  0  0  0
   22.3939   28.4611    0.4206 O   0  0  0  0  0  0  0  0  0  0  0  0
   18.4620   20.2453   -4.1187 N   0  0  0  0  0  0  0  0  0  0  0  0
   16.8056   21.2664    0.9327 N   0  0  0  0  0  0  0  0  0  0  0  0
  1  2  1  0  0  0  0
  1 39  1  0  0  0  0
  3  4  1  0  0  0  0
  5  6  1  0  0  0  0
  5 40  1  0  0  0  0
  9 10  1  6  0  0  0
  9 14  1  0  0  0  0
  9 35  1  0  0  0  0
 10  1  1  0  0  0  0
 11 16  1  0  0  0  0
 11 28  1  0  0  0  0
 11 26  1  1  0  0  0
 12 17  1  0  0  0  0
 12 34  1  0  0  0  0
 12 13  1  1  0  0  0
 14 15  1  1  0  0  0
 14 19  1  0  0  0  0
 16 13  1  6  0  0  0
 16 21  1  0  0  0  0
 17 18  1  1  0  0  0
 17 23  1  0  0  0  0
 18  8  1  0  0  0  0
 19 20  1  1  0  0  0
 19 25  1  0  0  0  0
 20  5  1  0  0  0  0
 21  3  1  1  0  0  0
 21 22  1  0  0  0  0
 21 27  1  0  0  0  0
 23 24  1  6  0  0  0
 23 29  1  0  0  0  0
 25 26  1  1  0  0  0
 25 31  1  0  0  0  0
 27  7  1  1  0  0  0
 27 28  1  0  0  0  0
 29 30  1  1  0  0  0
 29 33  1  0  0  0  0
 31 32  1  6  0  0  0
 31 35  1  0  0  0  0
 33 34  1  0  0  0  0
 33 37  1  6  0  0  0
 35 36  1  6  0  0  0
 37 38  1  0  0  0  0
M  END
>  <CHROM.1>
-80.20883580,-59.18124402,91.91314090,151.23272890,46.90043248,-88.73045621
85.53675515,80.51369088,-174.04902839,-158.38786610,-157.71843457,19.29227347
25.65015667,0.04606540,-1.60862181,1.42939763,0.41364896

>  <Name>
1nta_lig

>  <RI>
2.40834e+07

>  <Rbt.Current_Directory>
/home/itssahil/PROJECTS/Mol_Feturizer/New_Systems/rnas/1nta

>  <Rbt.Executable>
rbdock ($Id: //depot/dev/client3/rdock/2013.1/src/exe/rbdock.cxx#4 $)

>  <Rbt.Library>
libRbt.so (2013.1, Build901 2013/11/27)

>  <Rbt.Parameter_File>
/export/apps/rDock/src/rDock_2013.1_src/data/scripts/dock_solv.prm

>  <Rbt.Receptor>
prm/blind_docking_80.prm

>  <SCORE>
-19.8943

>  <SCORE.INTER>
-3.53593

>  <SCORE.INTER.CONST>
1

>  <SCORE.INTER.POLAR>
0

>  <SCORE.INTER.ROT>
11

>  <SCORE.INTER.SOLV>
13.6224

>  <SCORE.INTER.VDW>
-17.8314

>  <SCORE.INTER.norm>
-0.0883981

>  <SCORE.INTRA>
-16.532

>  <SCORE.INTRA.DIHEDRAL>
-4.26362

>  <SCORE.INTRA.DIHEDRAL.0>
19.0336

>  <SCORE.INTRA.POLAR>
0

>  <SCORE.INTRA.POLAR.0>
0

>  <SCORE.INTRA.REPUL>
0.00498295

>  <SCORE.INTRA.REPUL.0>
0

>  <SCORE.INTRA.SOLV>
-3.45644

>  <SCORE.INTRA.SOLV.lig_0>
-97.5861

>  <SCORE.INTRA.VDW>
-12.6969

>  <SCORE.INTRA.VDW.0>
11.7669

>  <SCORE.INTRA.norm>
-0.4133

>  <SCORE.RESTR>
0.173605

>  <SCORE.RESTR.CAVITY>
0.173605

>  <SCORE.RESTR.norm>
0.00434013

>  <SCORE.SYSTEM>
0

>  <SCORE.SYSTEM.CONST>
0

>  <SCORE.SYSTEM.DIHEDRAL>
0

>  <SCORE.SYSTEM.SOLV>
0

>  <SCORE.SYSTEM.norm>
0

>  <SCORE.heavy>
40

>  <SCORE.norm>
-0.497358

>  <RMSD>
20.570

$$$$
1nta_lig
 OpenBabel11021811403D
libRbt.so/2013.1/901 2013/11/27
 40 42  0  0  0  0  0  0  0  0999 V2000
   18.8704   33.9593   -1.0970 C   0  0  0  0  0  0  0  0  0  0  0  0
   18.6210   34.5186   -2.2218 N   0  0  0  0  0  0  0  0  0  0  0  0
   17.1570   24.2485   -0.3961 C   0  0  0  0  0  0  0  0  0  0  0  0
   17.8439   24.5636    0.5506 O   0  0  0  0  0  0  0  0  0  0  0  0
   21.1565   28.1319    1.3637 C   0  0  0  0  0  0  0  0  0  0  0  0
   20.1803   28.1386    2.2337 N   0  0  0  0  0  0  0  0  0  0  0  0
   14.9568   25.9324   -2.2359 C   0  0  0  0  0  0  0  0  0  0  0  0
   18.4552   21.7866   -1.5721 C   0  0  0  0  0  0  0  0  0  0  0  0
   19.2651   31.6414   -0.8290 C   0  0  2  0  0  0  0  0  0  0  0  0
   19.8102   33.0261   -1.1196 N   0  0  0  0  0  0  0  0  0  0  0  0
   18.4533   26.7304   -2.4030 C   0  0  2  0  0  0  0  0  0  0  0  0
   20.5289   24.1580   -2.5015 C   0  0  1  0  0  0  0  0  0  0  0  0
   19.3130   24.6261   -2.9706 O   0  0  0  0  0  0  0  0  0  0  0  0
   20.4202   30.6758   -0.5029 C   0  0  1  0  0  0  0  0  0  0  0  0
   21.0290   31.1420    0.6633 O   0  0  0  0  0  0  0  0  0  0  0  0
   18.6170   25.2583   -2.0406 C   0  0  2  0  0  0  0  0  0  0  0  0
   20.5236   22.7305   -2.0004 C   0  0  1  0  0  0  0  0  0  0  0  0
   19.5166   22.6013   -1.0048 N   0  0  0  0  0  0  0  0  0  0  0  0
   19.9278   29.2498   -0.2226 C   0  0  2  0  0  0  0  0  0  0  0  0
   21.0148   28.2914    0.0908 N   0  0  0  0  0  0  0  0  0  0  0  0
   17.2277   24.8814   -1.7599 C   0  0  1  0  0  0  0  0  0  0  0  0
   16.8160   23.9829   -2.7921 O   0  0  0  0  0  0  0  0  0  0  0  0
   20.2554   21.8401   -3.0307 C   0  0  2  0  0  0  0  0  0  0  0  0
   20.5566   20.5484   -2.5662 O   0  0  0  0  0  0  0  0  0  0  0  0
   19.1719   28.7627   -1.4486 C   0  0  1  0  0  0  0  0  0  0  0  0
   18.7160   27.4454   -1.1827 O   0  0  0  0  0  0  0  0  0  0  0  0
   16.3901   26.0851   -1.8306 C   0  0  1  0  0  0  0  0  0  0  0  0
   17.0964   26.9454   -2.7161 O   0  0  0  0  0  0  0  0  0  0  0  0
   21.1093   22.1545   -4.2309 C   0  0  1  0  0  0  0  0  0  0  0  0
   20.6535   21.4079   -5.3204 O   0  0  0  0  0  0  0  0  0  0  0  0
   17.9776   29.7105   -1.7549 C   0  0  2  0  0  0  0  0  0  0  0  0
   17.2754   29.2317   -2.9008 O   0  0  0  0  0  0  0  0  0  0  0  0
   20.9880   23.6010   -4.5708 C   0  0  1  0  0  0  0  0  0  0  0  0
   21.4500   24.3381   -3.4760 O   0  0  0  0  0  0  0  0  0  0  0  0
   18.5148   31.1287   -2.0399 C   0  0  1  0  0  0  0  0  0  0  0  0
   17.4250   32.0204   -2.3265 O   0  0  0  0  0  0  0  0  0  0  0  0
   21.8650   23.9670   -5.7845 C   0  0  0  0  0  0  0  0  0  0  0  0
   23.1889   23.4935   -5.5650 O   0  0  0  0  0  0  0  0  0  0  0  0
   18.2476   34.2765   -0.0136 N   0  0  0  0  0  0  0  0  0  0  0  0
   22.3587   27.9823    1.7622 N   0  0  0  0  0  0  0  0  0  0  0  0
  1  2  1  0  0  0  0
  1 39  1  0  0  0  0
  3  4  1  0  0  0  0
  5  6  1  0  0  0  0
  5 40  1  0  0  0  0
  9 10  1  6  0  0  0
  9 14  1  0  0  0  0
  9 35  1  0  0  0  0
 10  1  1  0  0  0  0
 11 16  1  0  0  0  0
 11 28  1  0  0  0  0
 11 26  1  1  0  0  0
 12 17  1  0  0  0  0
 12 34  1  0  0  0  0
 12 13  1  6  0  0  0
 14 15  1  1  0  0  0
 14 19  1  0  0  0  0
 16 13  1  6  0  0  0
 16 21  1  0  0  0  0
 17 18  1  1  0  0  0
 17 23  1  0  0  0  0
 18  8  1  0  0  0  0
 19 20  1  6  0  0  0
 19 25  1  0  0  0  0
 20  5  1  0  0  0  0
 21  3  1  1  0  0  0
 21 22  1  0  0  0  0
 21 27  1  0  0  0  0
 23 24  1  1  0  0  0
 23 29  1  0  0  0  0
 25 26  1  1  0  0  0
 25 31  1  0  0  0  0
 27  7  1  6  0  0  0
 27 28  1  0  0  0  0
 29 30  1  6  0  0  0
 29 33  1  0  0  0  0
 31 32  1  6  0  0  0
 31 35  1  0  0  0  0
 33 34  1  0  0  0  0
 33 37  1  6  0  0  0
 35 36  1  1  0  0  0
 37 38  1  0  0  0  0
M  END
>  <CHROM.1>
-165.13671904,-113.43427505,154.46287404,93.52167069,115.05527925,109.88076973
97.48691667,35.28059222,34.24201319,-158.06688202,-51.02584882,19.31449592
26.82134663,-1.82576173,-1.67895026,-0.05599113,-2.88775017

>  <Name>
1nta_lig

>  <RI>
9.25352e+06

>  <Rbt.Current_Directory>
/home/itssahil/PROJECTS/Mol_Feturizer/New_Systems/rnas/1nta

>  <Rbt.Executable>
rbdock ($Id: //depot/dev/client3/rdock/2013.1/src/exe/rbdock.cxx#4 $)

>  <Rbt.Library>
libRbt.so (2013.1, Build901 2013/11/27)

>  <Rbt.Parameter_File>
/export/apps/rDock/src/rDock_2013.1_src/data/scripts/dock_solv.prm

>  <Rbt.Receptor>
prm/blind_docking_40.prm

>  <SCORE>
5.38564

>  <SCORE.INTER>
-1.59703

>  <SCORE.INTER.CONST>
1

>  <SCORE.INTER.POLAR>
-0.0614688

>  <SCORE.INTER.ROT>
11

>  <SCORE.INTER.SOLV>
16.0835

>  <SCORE.INTER.VDW>
-17.1543

>  <SCORE.INTER.norm>
-0.0399257

>  <SCORE.INTRA>
3.68736

>  <SCORE.INTRA.DIHEDRAL>
2.68911

>  <SCORE.INTRA.DIHEDRAL.0>
19.0336

>  <SCORE.INTRA.POLAR>
0

>  <SCORE.INTRA.POLAR.0>
0

>  <SCORE.INTRA.REPUL>
0

>  <SCORE.INTRA.REPUL.0>
0

>  <SCORE.INTRA.SOLV>
-2.55851

>  <SCORE.INTRA.SOLV.lig_0>
-97.5861

>  <SCORE.INTRA.VDW>
3.62206

>  <SCORE.INTRA.VDW.0>
11.7669

>  <SCORE.INTRA.norm>
0.092184

>  <SCORE.RESTR>
3.29531

>  <SCORE.RESTR.CAVITY>
3.29531

>  <SCORE.RESTR.norm>
0.0823828

>  <SCORE.SYSTEM>
0

>  <SCORE.SYSTEM.CONST>
0

>  <SCORE.SYSTEM.DIHEDRAL>
0

>  <SCORE.SYSTEM.SOLV>
0

>  <SCORE.SYSTEM.norm>
0

>  <SCORE.heavy>
40

>  <SCORE.norm>
0.134641

>  <RMSD>
20.573

$$$$
1nta_lig
 OpenBabel11021811403D
libRbt.so/2013.1/901 2013/11/27
 40 42  0  0  0  0  0  0  0  0999 V2000
   18.3411   19.2549    1.1586 C   0  0  0  0  0  0  0  0  0  0  0  0
   18.5002   18.9167    2.3835 N   0  0  0  0  0  0  0  0  0  0  0  0
   20.9136   28.2155   -0.6823 C   0  0  0  0  0  0  0  0  0  0  0  0
   21.5887   29.1101   -0.2227 O   0  0  0  0  0  0  0  0  0  0  0  0
   19.6223   23.7697   -2.6240 C   0  0  0  0  0  0  0  0  0  0  0  0
   18.3833   23.5254   -2.9629 N   0  0  0  0  0  0  0  0  0  0  0  0
   18.0961   27.1729   -2.1092 C   0  0  0  0  0  0  0  0  0  0  0  0
   22.6282   28.8028    3.9683 C   0  0  0  0  0  0  0  0  0  0  0  0
   17.7003   21.5063    0.8105 C   0  0  2  0  0  0  0  0  0  0  0  0
   17.3068   20.0457    0.9147 N   0  0  0  0  0  0  0  0  0  0  0  0
   19.1236   25.8469    1.0652 C   0  0  2  0  0  0  0  0  0  0  0  0
   19.8968   27.3794    3.4552 C   0  0  1  0  0  0  0  0  0  0  0  0
   19.3295   27.8402    2.2790 O   0  0  0  0  0  0  0  0  0  0  0  0
   18.7312   21.6972   -0.3181 C   0  0  1  0  0  0  0  0  0  0  0  0
   18.1027   21.3443   -1.5132 O   0  0  0  0  0  0  0  0  0  0  0  0
   19.7895   27.2109    1.2105 C   0  0  2  0  0  0  0  0  0  0  0  0
   20.3831   28.4529    4.4038 C   0  0  1  0  0  0  0  0  0  0  0  0
   21.2879   29.3002    3.7070 N   0  0  0  0  0  0  0  0  0  0  0  0
   19.1845   23.1569   -0.4541 C   0  0  2  0  0  0  0  0  0  0  0  0
   20.1816   23.3769   -1.5291 N   0  0  0  0  0  0  0  0  0  0  0  0
   19.5865   27.7677   -0.1310 C   0  0  1  0  0  0  0  0  0  0  0  0
   18.6631   28.8509   -0.0047 O   0  0  0  0  0  0  0  0  0  0  0  0
   19.3259   29.2163    4.8789 C   0  0  2  0  0  0  0  0  0  0  0  0
   19.8032   29.9792    5.9584 O   0  0  0  0  0  0  0  0  0  0  0  0
   19.7811   23.5910    0.8754 C   0  0  1  0  0  0  0  0  0  0  0  0
   20.1952   24.9420    0.7451 O   0  0  0  0  0  0  0  0  0  0  0  0
   18.9791   26.7364   -0.9815 C   0  0  1  0  0  0  0  0  0  0  0  0
   18.2843   25.8991   -0.0655 O   0  0  0  0  0  0  0  0  0  0  0  0
   18.2059   28.3258    5.3491 C   0  0  1  0  0  0  0  0  0  0  0  0
   17.0749   29.1093    5.5928 O   0  0  0  0  0  0  0  0  0  0  0  0
   18.7286   23.4417    2.0106 C   0  0  2  0  0  0  0  0  0  0  0  0
   19.3030   23.8631    3.2466 O   0  0  0  0  0  0  0  0  0  0  0  0
   17.8695   27.3356    4.2866 C   0  0  1  0  0  0  0  0  0  0  0  0
   19.0061   26.5552    4.0535 O   0  0  0  0  0  0  0  0  0  0  0  0
   18.3069   21.9614    2.1209 C   0  0  1  0  0  0  0  0  0  0  0  0
   17.3341   21.8024    3.1664 O   0  0  0  0  0  0  0  0  0  0  0  0
   16.7384   26.3909    4.7387 C   0  0  0  0  0  0  0  0  0  0  0  0
   17.0308   25.9013    6.0425 O   0  0  0  0  0  0  0  0  0  0  0  0
   19.1291   18.8512    0.2215 N   0  0  0  0  0  0  0  0  0  0  0  0
   20.3784   24.4231   -3.4164 N   0  0  0  0  0  0  0  0  0  0  0  0
  1  2  1  0  0  0  0
  1 39  1  0  0  0  0
  3  4  1  0  0  0  0
  5  6  1  0  0  0  0
  5 40  1  0  0  0  0
  9 10  1  1  0  0  0
  9 14  1  0  0  0  0
  9 35  1  0  0  0  0
 10  1  1  0  0  0  0
 11 16  1  0  0  0  0
 11 28  1  0  0  0  0
 11 26  1  6  0  0  0
 12 17  1  0  0  0  0
 12 34  1  0  0  0  0
 12 13  1  6  0  0  0
 14 15  1  6  0  0  0
 14 19  1  0  0  0  0
 16 13  1  1  0  0  0
 16 21  1  0  0  0  0
 17 18  1  6  0  0  0
 17 23  1  0  0  0  0
 18  8  1  0  0  0  0
 19 20  1  6  0  0  0
 19 25  1  0  0  0  0
 20  5  1  0  0  0  0
 21  3  1  6  0  0  0
 21 22  1  0  0  0  0
 21 27  1  0  0  0  0
 23 24  1  1  0  0  0
 23 29  1  0  0  0  0
 25 26  1  6  0  0  0
 25 31  1  0  0  0  0
 27  7  1  6  0  0  0
 27 28  1  0  0  0  0
 29 30  1  6  0  0  0
 29 33  1  0  0  0  0
 31 32  1  1  0  0  0
 31 35  1  0  0  0  0
 33 34  1  0  0  0  0
 33 37  1  1  0  0  0
 35 36  1  1  0  0  0
 37 38  1  0  0  0  0
M  END
>  <CHROM.1>
59.04294170,98.41793166,166.78714828,132.87449566,78.44758941,-94.56309277
95.92038235,-25.26029333,-64.77915683,88.15183309,-47.85454153,19.06425530
25.32427487,1.57772040,1.89163925,-1.23768059,-2.32495803

>  <Name>
1nta_lig

>  <RI>
9.25352e+06

>  <Rbt.Current_Directory>
/home/itssahil/PROJECTS/Mol_Feturizer/New_Systems/rnas/1nta

>  <Rbt.Executable>
rbdock ($Id: //depot/dev/client3/rdock/2013.1/src/exe/rbdock.cxx#4 $)

>  <Rbt.Library>
libRbt.so (2013.1, Build901 2013/11/27)

>  <Rbt.Parameter_File>
/export/apps/rDock/src/rDock_2013.1_src/data/scripts/dock_solv.prm

>  <Rbt.Receptor>
prm/blind_docking_40.prm

>  <SCORE>
-20.2262

>  <SCORE.INTER>
-7.53536

>  <SCORE.INTER.CONST>
1

>  <SCORE.INTER.POLAR>
0

>  <SCORE.INTER.ROT>
11

>  <SCORE.INTER.SOLV>
13.0415

>  <SCORE.INTER.VDW>
-20.3041

>  <SCORE.INTER.norm>
-0.188384

>  <SCORE.INTRA>
-14.4325

>  <SCORE.INTRA.DIHEDRAL>
-3.7481

>  <SCORE.INTRA.DIHEDRAL.0>
19.0336

>  <SCORE.INTRA.POLAR>
0

>  <SCORE.INTRA.POLAR.0>
0

>  <SCORE.INTRA.REPUL>
0

>  <SCORE.INTRA.REPUL.0>
0

>  <SCORE.INTRA.SOLV>
0.648059

>  <SCORE.INTRA.SOLV.lig_0>
-97.5861

>  <SCORE.INTRA.VDW>
-12.8824

>  <SCORE.INTRA.VDW.0>
11.7669

>  <SCORE.INTRA.norm>
-0.360812

>  <SCORE.RESTR>
1.74168

>  <SCORE.RESTR.CAVITY>
1.74168

>  <SCORE.RESTR.norm>
0.043542

>  <SCORE.SYSTEM>
0

>  <SCORE.SYSTEM.CONST>
0

>  <SCORE.SYSTEM.DIHEDRAL>
0

>  <SCORE.SYSTEM.SOLV>
0

>  <SCORE.SYSTEM.norm>
0

>  <SCORE.heavy>
40

>  <SCORE.norm>
-0.505654

>  <RMSD>
20.587

$$$$
1nta_lig
 OpenBabel11021811403D
libRbt.so/2013.1/901 2013/11/27
 40 42  0  0  0  0  0  0  0  0999 V2000
   18.3079   19.0154   -3.0300 C   0  0  0  0  0  0  0  0  0  0  0  0
   18.2462   18.4482   -4.1766 N   0  0  0  0  0  0  0  0  0  0  0  0
   20.4226   26.9666    1.6379 C   0  0  0  0  0  0  0  0  0  0  0  0
   20.8165   27.4056    2.6959 O   0  0  0  0  0  0  0  0  0  0  0  0
   19.5549   23.9940    1.4638 C   0  0  0  0  0  0  0  0  0  0  0  0
   20.8034   23.6291    1.5978 N   0  0  0  0  0  0  0  0  0  0  0  0
   23.5202   27.6575    0.6436 C   0  0  0  0  0  0  0  0  0  0  0  0
   18.9132   31.3942   -0.7743 C   0  0  0  0  0  0  0  0  0  0  0  0
   19.0994   21.1276   -2.3139 C   0  0  2  0  0  0  0  0  0  0  0  0
   18.0337   20.3113   -3.0189 N   0  0  0  0  0  0  0  0  0  0  0  0
   21.2735   25.8761   -1.5173 C   0  0  2  0  0  0  0  0  0  0  0  0
   18.4444   28.0439   -0.9511 C   0  0  1  0  0  0  0  0  0  0  0  0
   19.4952   27.4001   -1.5826 O   0  0  0  0  0  0  0  0  0  0  0  0
   18.4449   22.1087   -1.3229 C   0  0  1  0  0  0  0  0  0  0  0  0
   17.7928   21.3425   -0.3557 O   0  0  0  0  0  0  0  0  0  0  0  0
   20.2121   26.6602   -0.7532 C   0  0  2  0  0  0  0  0  0  0  0  0
   18.0593   29.3841   -1.5380 C   0  0  1  0  0  0  0  0  0  0  0  0
   19.2127   30.2154   -1.5698 N   0  0  0  0  0  0  0  0  0  0  0  0
   19.4778   22.9799   -0.5956 C   0  0  2  0  0  0  0  0  0  0  0  0
   18.8820   23.9406    0.3637 N   0  0  0  0  0  0  0  0  0  0  0  0
   21.0245   27.2854    0.2956 C   0  0  1  0  0  0  0  0  0  0  0  0
   21.0445   28.6903    0.0348 O   0  0  0  0  0  0  0  0  0  0  0  0
   17.5702   29.2425   -2.8290 C   0  0  2  0  0  0  0  0  0  0  0  0
   16.9663   30.4587   -3.1913 O   0  0  0  0  0  0  0  0  0  0  0  0
   20.2684   23.7474   -1.6434 C   0  0  1  0  0  0  0  0  0  0  0  0
   21.2240   24.5483   -0.9658 O   0  0  0  0  0  0  0  0  0  0  0  0
   22.3973   26.7746    0.1947 C   0  0  1  0  0  0  0  0  0  0  0  0
   22.5307   26.4120   -1.1742 O   0  0  0  0  0  0  0  0  0  0  0  0
   16.5480   28.1377   -2.8841 C   0  0  1  0  0  0  0  0  0  0  0  0
   16.2542   27.8575   -4.2211 O   0  0  0  0  0  0  0  0  0  0  0  0
   20.9673   22.7587   -2.6195 C   0  0  2  0  0  0  0  0  0  0  0  0
   21.7115   23.4965   -3.5876 O   0  0  0  0  0  0  0  0  0  0  0  0
   17.1048   26.9043   -2.2586 C   0  0  1  0  0  0  0  0  0  0  0  0
   17.3916   27.1947   -0.9212 O   0  0  0  0  0  0  0  0  0  0  0  0
   19.8961   21.9101   -3.3361 C   0  0  1  0  0  0  0  0  0  0  0  0
   20.5227   20.9897   -4.2444 O   0  0  0  0  0  0  0  0  0  0  0  0
   16.0788   25.7540   -2.2777 C   0  0  0  0  0  0  0  0  0  0  0  0
   14.8541   26.2100   -1.7144 O   0  0  0  0  0  0  0  0  0  0  0  0
   18.6204   18.3734   -1.9565 N   0  0  0  0  0  0  0  0  0  0  0  0
   18.9076   24.4198    2.4767 N   0  0  0  0  0  0  0  0  0  0  0  0
  1  2  1  0  0  0  0
  1 39  1  0  0  0  0
  3  4  1  0  0  0  0
  5  6  1  0  0  0  0
  5 40  1  0  0  0  0
  9 10  1  6  0  0  0
  9 14  1  0  0  0  0
  9 35  1  0  0  0  0
 10  1  1  0  0  0  0
 11 16  1  0  0  0  0
 11 28  1  0  0  0  0
 11 26  1  1  0  0  0
 12 17  1  0  0  0  0
 12 34  1  0  0  0  0
 12 13  1  6  0  0  0
 14 15  1  1  0  0  0
 14 19  1  0  0  0  0
 16 13  1  6  0  0  0
 16 21  1  0  0  0  0
 17 18  1  6  0  0  0
 17 23  1  0  0  0  0
 18  8  1  0  0  0  0
 19 20  1  1  0  0  0
 19 25  1  0  0  0  0
 20  5  1  0  0  0  0
 21  3  1  1  0  0  0
 21 22  1  0  0  0  0
 21 27  1  0  0  0  0
 23 24  1  1  0  0  0
 23 29  1  0  0  0  0
 25 26  1  1  0  0  0
 25 31  1  0  0  0  0
 27  7  1  6  0  0  0
 27 28  1  0  0  0  0
 29 30  1  6  0  0  0
 29 33  1  0  0  0  0
 31 32  1  6  0  0  0
 31 35  1  0  0  0  0
 33 34  1  0  0  0  0
 33 37  1  1  0  0  0
 35 36  1  6  0  0  0
 37 38  1  0  0  0  0
M  END
>  <CHROM.1>
-132.38037007,-128.87307295,87.92577065,148.59867527,174.83927351,-120.85743385
137.75244142,21.22133894,-175.31268332,-135.88744855,-52.13512824,19.27214123
25.27623620,-1.30289231,1.56390406,0.64281077,-2.96830661

>  <Name>
1nta_lig

>  <RI>
0

>  <Rbt.Current_Directory>
/home/itssahil/PROJECTS/Mol_Feturizer/New_Systems/rnas/1nta

>  <Rbt.Executable>
rbdock ($Id: //depot/dev/client3/rdock/2013.1/src/exe/rbdock.cxx#4 $)

>  <Rbt.Library>
libRbt.so (2013.1, Build901 2013/11/27)

>  <Rbt.Parameter_File>
/export/apps/rDock/src/rDock_2013.1_src/data/scripts/dock_solv.prm

>  <Rbt.Receptor>
prm/blind_docking_60.prm

>  <SCORE>
-11.9014

>  <SCORE.INTER>
2.24498

>  <SCORE.INTER.CONST>
1

>  <SCORE.INTER.POLAR>
-0.857666

>  <SCORE.INTER.ROT>
11

>  <SCORE.INTER.SOLV>
17.7944

>  <SCORE.INTER.VDW>
-12.5093

>  <SCORE.INTER.norm>
0.0561246

>  <SCORE.INTRA>
-18.213

>  <SCORE.INTRA.DIHEDRAL>
-1.31152

>  <SCORE.INTRA.DIHEDRAL.0>
19.0336

>  <SCORE.INTRA.POLAR>
0

>  <SCORE.INTRA.POLAR.0>
0

>  <SCORE.INTRA.REPUL>
0

>  <SCORE.INTRA.REPUL.0>
0

>  <SCORE.INTRA.SOLV>
0.692578

>  <SCORE.INTRA.SOLV.lig_0>
-97.5861

>  <SCORE.INTRA.VDW>
-17.9035

>  <SCORE.INTRA.VDW.0>
11.7669

>  <SCORE.INTRA.norm>
-0.455325

>  <SCORE.RESTR>
4.06659

>  <SCORE.RESTR.CAVITY>
4.06659

>  <SCORE.RESTR.norm>
0.101665

>  <SCORE.SYSTEM>
0

>  <SCORE.SYSTEM.CONST>
0

>  <SCORE.SYSTEM.DIHEDRAL>
0

>  <SCORE.SYSTEM.SOLV>
0

>  <SCORE.SYSTEM.norm>
0

>  <SCORE.heavy>
40

>  <SCORE.norm>
-0.297535

>  <RMSD>
20.591

$$$$
1nta_lig
 OpenBabel11021811403D
libRbt.so/2013.1/901 2013/11/27
 40 42  0  0  0  0  0  0  0  0999 V2000
   20.9387   21.8803   -3.9032 C   0  0  0  0  0  0  0  0  0  0  0  0
   22.2025   21.8354   -4.1052 N   0  0  0  0  0  0  0  0  0  0  0  0
   17.4936   26.8115    3.4182 C   0  0  0  0  0  0  0  0  0  0  0  0
   16.8212   26.8018    4.4257 O   0  0  0  0  0  0  0  0  0  0  0  0
   17.9642   22.3913    1.5507 C   0  0  0  0  0  0  0  0  0  0  0  0
   17.6550   21.2715    0.9505 N   0  0  0  0  0  0  0  0  0  0  0  0
   20.0166   26.8769    5.5842 C   0  0  0  0  0  0  0  0  0  0  0  0
   17.6084   26.2313   -1.6139 C   0  0  0  0  0  0  0  0  0  0  0  0
   20.6711   23.2814   -2.0149 C   0  0  2  0  0  0  0  0  0  0  0  0
   20.4664   23.0501   -3.4993 N   0  0  0  0  0  0  0  0  0  0  0  0
   20.6460   26.4575    2.0744 C   0  0  2  0  0  0  0  0  0  0  0  0
   19.8950   28.1181   -0.0744 C   0  0  1  0  0  0  0  0  0  0  0  0
   19.5660   28.3652    1.2478 O   0  0  0  0  0  0  0  0  0  0  0  0
   19.3145   23.2669   -1.2852 C   0  0  1  0  0  0  0  0  0  0  0  0
   18.7769   21.9884   -1.4420 O   0  0  0  0  0  0  0  0  0  0  0  0
   19.3543   27.2561    1.9363 C   0  0  2  0  0  0  0  0  0  0  0  0
   18.7396   28.1690   -1.0498 C   0  0  1  0  0  0  0  0  0  0  0  0
   17.7297   27.2715   -0.6063 N   0  0  0  0  0  0  0  0  0  0  0  0
   19.4589   23.5201    0.2213 C   0  0  2  0  0  0  0  0  0  0  0  0
   18.1709   23.5177    0.9555 N   0  0  0  0  0  0  0  0  0  0  0  0
   18.9094   27.3154    3.3326 C   0  0  1  0  0  0  0  0  0  0  0  0
   19.0229   28.6756    3.7557 O   0  0  0  0  0  0  0  0  0  0  0  0
   18.2049   29.4475   -1.1249 C   0  0  2  0  0  0  0  0  0  0  0  0
   17.3548   29.4883   -2.2433 O   0  0  0  0  0  0  0  0  0  0  0  0
   20.1375   24.8676    0.4097 C   0  0  1  0  0  0  0  0  0  0  0  0
   20.2717   25.0950    1.8040 O   0  0  0  0  0  0  0  0  0  0  0  0
   19.8143   26.4976    4.1499 C   0  0  1  0  0  0  0  0  0  0  0  0
   21.0388   26.5103    3.4266 O   0  0  0  0  0  0  0  0  0  0  0  0
   19.3023   30.4658   -1.2903 C   0  0  1  0  0  0  0  0  0  0  0  0
   18.7643   31.7443   -1.1217 O   0  0  0  0  0  0  0  0  0  0  0  0
   21.5274   24.8713   -0.2880 C   0  0  2  0  0  0  0  0  0  0  0  0
   22.1521   26.1387   -0.0914 O   0  0  0  0  0  0  0  0  0  0  0  0
   20.3462   30.2557   -0.2469 C   0  0  1  0  0  0  0  0  0  0  0  0
   20.8800   28.9759   -0.4271 O   0  0  0  0  0  0  0  0  0  0  0  0
   21.3378   24.6234   -1.7992 C   0  0  1  0  0  0  0  0  0  0  0  0
   22.6124   24.6241   -2.4627 O   0  0  0  0  0  0  0  0  0  0  0  0
   21.4990   31.2683   -0.3955 C   0  0  0  0  0  0  0  0  0  0  0  0
   21.0359   32.5621   -0.0259 O   0  0  0  0  0  0  0  0  0  0  0  0
   20.1739   20.8567   -4.0752 N   0  0  0  0  0  0  0  0  0  0  0  0
   18.0567   22.4234    2.8222 N   0  0  0  0  0  0  0  0  0  0  0  0
  1  2  1  0  0  0  0
  1 39  1  0  0  0  0
  3  4  1  0  0  0  0
  5  6  1  0  0  0  0
  5 40  1  0  0  0  0
  9 10  1  6  0  0  0
  9 14  1  0  0  0  0
  9 35  1  0  0  0  0
 10  1  1  0  0  0  0
 11 16  1  0  0  0  0
 11 28  1  0  0  0  0
 11 26  1  1  0  0  0
 12 17  1  0  0  0  0
 12 34  1  0  0  0  0
 12 13  1  1  0  0  0
 14 15  1  1  0  0  0
 14 19  1  0  0  0  0
 16 13  1  1  0  0  0
 16 21  1  0  0  0  0
 17 18  1  1  0  0  0
 17 23  1  0  0  0  0
 18  8  1  0  0  0  0
 19 20  1  1  0  0  0
 19 25  1  0  0  0  0
 20  5  1  0  0  0  0
 21  3  1  1  0  0  0
 21 22  1  0  0  0  0
 21 27  1  0  0  0  0
 23 24  1  6  0  0  0
 23 29  1  0  0  0  0
 25 26  1  1  0  0  0
 25 31  1  0  0  0  0
 27  7  1  1  0  0  0
 27 28  1  0  0  0  0
 29 30  1  1  0  0  0
 29 33  1  0  0  0  0
 31 32  1  6  0  0  0
 31 35  1  0  0  0  0
 33 34  1  0  0  0  0
 33 37  1  6  0  0  0
 35 36  1  6  0  0  0
 37 38  1  0  0  0  0
M  END
>  <CHROM.1>
-111.51053611,-80.36914968,78.56680460,95.27179397,66.58009604,-115.67773141
99.79459432,-72.25769075,-175.92797980,-167.96275012,70.49541859,19.65098238
26.19009760,0.19382848,-1.30846529,1.28413181,0.12311316

>  <Name>
1nta_lig

>  <RI>
2.40834e+07

>  <Rbt.Current_Directory>
/home/itssahil/PROJECTS/Mol_Feturizer/New_Systems/rnas/1nta

>  <Rbt.Executable>
rbdock ($Id: //depot/dev/client3/rdock/2013.1/src/exe/rbdock.cxx#4 $)

>  <Rbt.Library>
libRbt.so (2013.1, Build901 2013/11/27)

>  <Rbt.Parameter_File>
/export/apps/rDock/src/rDock_2013.1_src/data/scripts/dock_solv.prm

>  <Rbt.Receptor>
prm/blind_docking_80.prm

>  <SCORE>
-27.7737

>  <SCORE.INTER>
-5.70304

>  <SCORE.INTER.CONST>
1

>  <SCORE.INTER.POLAR>
0

>  <SCORE.INTER.ROT>
11

>  <SCORE.INTER.SOLV>
11.7498

>  <SCORE.INTER.VDW>
-18.652

>  <SCORE.INTER.norm>
-0.142576

>  <SCORE.INTRA>
-22.1314

>  <SCORE.INTRA.DIHEDRAL>
-6.79134

>  <SCORE.INTRA.DIHEDRAL.0>
19.0336

>  <SCORE.INTRA.POLAR>
0

>  <SCORE.INTRA.POLAR.0>
0

>  <SCORE.INTRA.REPUL>
0.0393843

>  <SCORE.INTRA.REPUL.0>
0

>  <SCORE.INTRA.SOLV>
-3.32788

>  <SCORE.INTRA.SOLV.lig_0>
-97.5861

>  <SCORE.INTRA.VDW>
-17.2687

>  <SCORE.INTRA.VDW.0>
11.7669

>  <SCORE.INTRA.norm>
-0.553285

>  <SCORE.RESTR>
0.0607356

>  <SCORE.RESTR.CAVITY>
0.0607356

>  <SCORE.RESTR.norm>
0.00151839

>  <SCORE.SYSTEM>
0

>  <SCORE.SYSTEM.CONST>
0

>  <SCORE.SYSTEM.DIHEDRAL>
0

>  <SCORE.SYSTEM.SOLV>
0

>  <SCORE.SYSTEM.norm>
0

>  <SCORE.heavy>
40

>  <SCORE.norm>
-0.694342

>  <RMSD>
20.599

$$$$
1nta_lig
 OpenBabel11021811403D
libRbt.so/2013.1/901 2013/11/27
 40 42  0  0  0  0  0  0  0  0999 V2000
   17.4453   18.5235   -0.8185 C   0  0  0  0  0  0  0  0  0  0  0  0
   17.4107   17.9311   -1.9534 N   0  0  0  0  0  0  0  0  0  0  0  0
   18.0089   26.8269    4.1596 C   0  0  0  0  0  0  0  0  0  0  0  0
   17.5023   27.9269    4.1827 O   0  0  0  0  0  0  0  0  0  0  0  0
   19.0488   24.8049   -2.1404 C   0  0  0  0  0  0  0  0  0  0  0  0
   17.7621   25.0322   -2.1910 N   0  0  0  0  0  0  0  0  0  0  0  0
   20.4688   24.7555    5.0081 C   0  0  0  0  0  0  0  0  0  0  0  0
   21.4978   30.8086    3.5303 C   0  0  0  0  0  0  0  0  0  0  0  0
   18.1255   20.7130   -0.2320 C   0  0  2  0  0  0  0  0  0  0  0  0
   18.5025   19.2935   -0.6085 N   0  0  0  0  0  0  0  0  0  0  0  0
   19.7528   25.4059    1.5505 C   0  0  2  0  0  0  0  0  0  0  0  0
   19.4039   28.9811    1.8486 C   0  0  1  0  0  0  0  0  0  0  0  0
   19.9381   27.7414    1.5402 O   0  0  0  0  0  0  0  0  0  0  0  0
   19.0737   21.7126   -0.9210 C   0  0  1  0  0  0  0  0  0  0  0  0
   18.8842   21.5775   -2.2972 O   0  0  0  0  0  0  0  0  0  0  0  0
   19.2678   26.7452    2.0946 C   0  0  2  0  0  0  0  0  0  0  0  0
   20.3330   30.1568    1.6406 C   0  0  1  0  0  0  0  0  0  0  0  0
   21.5288   29.9273    2.3751 N   0  0  0  0  0  0  0  0  0  0  0  0
   18.7529   23.1682   -0.5564 C   0  0  2  0  0  0  0  0  0  0  0  0
   19.6499   24.1585   -1.1989 N   0  0  0  0  0  0  0  0  0  0  0  0
   19.3423   26.5056    3.5396 C   0  0  1  0  0  0  0  0  0  0  0  0
   20.3878   27.3337    4.0527 O   0  0  0  0  0  0  0  0  0  0  0  0
   20.6512   30.3111    0.2985 C   0  0  2  0  0  0  0  0  0  0  0  0
   21.2584   31.5694    0.1469 O   0  0  0  0  0  0  0  0  0  0  0  0
   18.8552   23.3092    0.9541 C   0  0  1  0  0  0  0  0  0  0  0  0
   18.5542   24.6557    1.2859 O   0  0  0  0  0  0  0  0  0  0  0  0
   19.7084   25.1018    3.7656 C   0  0  1  0  0  0  0  0  0  0  0  0
   20.4274   24.7398    2.5930 O   0  0  0  0  0  0  0  0  0  0  0  0
   19.4057   30.2489   -0.5460 C   0  0  1  0  0  0  0  0  0  0  0  0
   19.7733   30.1645   -1.8914 O   0  0  0  0  0  0  0  0  0  0  0  0
   17.8668   22.3327    1.6528 C   0  0  2  0  0  0  0  0  0  0  0  0
   17.9700   22.4871    3.0674 O   0  0  0  0  0  0  0  0  0  0  0  0
   18.6208   29.0302   -0.1977 C   0  0  1  0  0  0  0  0  0  0  0  0
   18.2553   29.1268    1.1485 O   0  0  0  0  0  0  0  0  0  0  0  0
   18.2287   20.8826    1.2688 C   0  0  1  0  0  0  0  0  0  0  0  0
   17.3262   19.9639    1.9062 O   0  0  0  0  0  0  0  0  0  0  0  0
   17.3255   28.9412   -1.0287 C   0  0  0  0  0  0  0  0  0  0  0  0
   16.3990   29.9126   -0.5563 O   0  0  0  0  0  0  0  0  0  0  0  0
   16.5180   18.3793    0.0656 N   0  0  0  0  0  0  0  0  0  0  0  0
   19.8018   25.2156   -3.0842 N   0  0  0  0  0  0  0  0  0  0  0  0
  1  2  1  0  0  0  0
  1 39  1  0  0  0  0
  3  4  1  0  0  0  0
  5  6  1  0  0  0  0
  5 40  1  0  0  0  0
  9 10  1  1  0  0  0
  9 14  1  0  0  0  0
  9 35  1  0  0  0  0
 10  1  1  0  0  0  0
 11 16  1  0  0  0  0
 11 28  1  0  0  0  0
 11 26  1  1  0  0  0
 12 17  1  0  0  0  0
 12 34  1  0  0  0  0
 12 13  1  6  0  0  0
 14 15  1  6  0  0  0
 14 19  1  0  0  0  0
 16 13  1  1  0  0  0
 16 21  1  0  0  0  0
 17 18  1  1  0  0  0
 17 23  1  0  0  0  0
 18  8  1  0  0  0  0
 19 20  1  6  0  0  0
 19 25  1  0  0  0  0
 20  5  1  0  0  0  0
 21  3  1  1  0  0  0
 21 22  1  0  0  0  0
 21 27  1  0  0  0  0
 23 24  1  1  0  0  0
 23 29  1  0  0  0  0
 25 26  1  6  0  0  0
 25 31  1  0  0  0  0
 27  7  1  1  0  0  0
 27 28  1  0  0  0  0
 29 30  1  6  0  0  0
 29 33  1  0  0  0  0
 31 32  1  1  0  0  0
 31 35  1  0  0  0  0
 33 34  1  0  0  0  0
 33 37  1  6  0  0  0
 35 36  1  1  0  0  0
 37 38  1  0  0  0  0
M  END
>  <CHROM.1>
-140.13985804,125.23693699,-171.51342917,161.17206682,170.95617115,-106.32449580
107.10940533,27.70065433,-64.21298868,-101.47808082,-72.99979620,18.97649166
25.46693406,0.86382462,2.68078144,1.36100305,2.19939359

>  <Name>
1nta_lig

>  <RI>
2.40834e+07

>  <Rbt.Current_Directory>
/home/itssahil/PROJECTS/Mol_Feturizer/New_Systems/rnas/1nta

>  <Rbt.Executable>
rbdock ($Id: //depot/dev/client3/rdock/2013.1/src/exe/rbdock.cxx#4 $)

>  <Rbt.Library>
libRbt.so (2013.1, Build901 2013/11/27)

>  <Rbt.Parameter_File>
/export/apps/rDock/src/rDock_2013.1_src/data/scripts/dock_solv.prm

>  <Rbt.Receptor>
prm/blind_docking_80.prm

>  <SCORE>
-28.6034

>  <SCORE.INTER>
-8.33081

>  <SCORE.INTER.CONST>
1

>  <SCORE.INTER.POLAR>
-0.678038

>  <SCORE.INTER.ROT>
11

>  <SCORE.INTER.SOLV>
11.1496

>  <SCORE.INTER.VDW>
-17.9436

>  <SCORE.INTER.norm>
-0.20827

>  <SCORE.INTRA>
-21.6329

>  <SCORE.INTRA.DIHEDRAL>
-6.20244

>  <SCORE.INTRA.DIHEDRAL.0>
19.0336

>  <SCORE.INTRA.POLAR>
0

>  <SCORE.INTRA.POLAR.0>
0

>  <SCORE.INTRA.REPUL>
0

>  <SCORE.INTRA.REPUL.0>
0

>  <SCORE.INTRA.SOLV>
-3.99975

>  <SCORE.INTRA.SOLV.lig_0>
-97.5861

>  <SCORE.INTRA.VDW>
-16.5318

>  <SCORE.INTRA.VDW.0>
11.7669

>  <SCORE.INTRA.norm>
-0.540823

>  <SCORE.RESTR>
1.36037

>  <SCORE.RESTR.CAVITY>
1.36037

>  <SCORE.RESTR.norm>
0.0340091

>  <SCORE.SYSTEM>
0

>  <SCORE.SYSTEM.CONST>
0

>  <SCORE.SYSTEM.DIHEDRAL>
0

>  <SCORE.SYSTEM.SOLV>
0

>  <SCORE.SYSTEM.norm>
0

>  <SCORE.heavy>
40

>  <SCORE.norm>
-0.715084

>  <RMSD>
20.610

$$$$
1nta_lig
 OpenBabel11021811403D
libRbt.so/2013.1/901 2013/11/27
 40 42  0  0  0  0  0  0  0  0999 V2000
   18.3053   33.3853   -0.0842 C   0  0  0  0  0  0  0  0  0  0  0  0
   17.1999   33.7559   -0.6141 N   0  0  0  0  0  0  0  0  0  0  0  0
   20.7980   24.1950    2.9706 C   0  0  0  0  0  0  0  0  0  0  0  0
   21.5330   23.2785    2.6757 O   0  0  0  0  0  0  0  0  0  0  0  0
   17.6366   27.6342   -1.8184 C   0  0  0  0  0  0  0  0  0  0  0  0
   17.8762   26.5100   -2.4418 N   0  0  0  0  0  0  0  0  0  0  0  0
   17.9207   25.2376    4.2726 C   0  0  0  0  0  0  0  0  0  0  0  0
   21.3141   26.8720   -1.5065 C   0  0  0  0  0  0  0  0  0  0  0  0
   18.8965   31.2266    0.6845 C   0  0  2  0  0  0  0  0  0  0  0  0
   18.1964   32.5478    0.9363 N   0  0  0  0  0  0  0  0  0  0  0  0
   18.7803   26.0488    0.8824 C   0  0  2  0  0  0  0  0  0  0  0  0
   19.1427   24.4447   -1.2307 C   0  0  1  0  0  0  0  0  0  0  0  0
   19.1437   23.8932    0.0395 O   0  0  0  0  0  0  0  0  0  0  0  0
   17.8837   30.1775    0.1880 C   0  0  1  0  0  0  0  0  0  0  0  0
   17.3880   30.6311   -1.0353 O   0  0  0  0  0  0  0  0  0  0  0  0
   19.5618   24.7419    0.9635 C   0  0  2  0  0  0  0  0  0  0  0  0
   20.5092   24.7251   -1.8161 C   0  0  1  0  0  0  0  0  0  0  0  0
   21.2321   25.5492   -0.9103 N   0  0  0  0  0  0  0  0  0  0  0  0
   18.5341   28.8102   -0.0614 C   0  0  2  0  0  0  0  0  0  0  0  0
   17.5865   27.7736   -0.5363 N   0  0  0  0  0  0  0  0  0  0  0  0
   19.4286   24.4222    2.3886 C   0  0  1  0  0  0  0  0  0  0  0  0
   18.6027   23.2601    2.4864 O   0  0  0  0  0  0  0  0  0  0  0  0
   21.2173   23.5488   -2.0184 C   0  0  2  0  0  0  0  0  0  0  0  0
   22.3286   23.8538   -2.8228 O   0  0  0  0  0  0  0  0  0  0  0  0
   19.1695   28.3462    1.2397 C   0  0  1  0  0  0  0  0  0  0  0  0
   19.7723   27.0836    1.0025 O   0  0  0  0  0  0  0  0  0  0  0  0
   18.7451   25.5355    3.0587 C   0  0  1  0  0  0  0  0  0  0  0  0
   17.9656   26.1316    2.0291 O   0  0  0  0  0  0  0  0  0  0  0  0
   20.3547   22.5313   -2.7178 C   0  0  1  0  0  0  0  0  0  0  0  0
   21.0019   21.2932   -2.6923 O   0  0  0  0  0  0  0  0  0  0  0  0
   20.2252   29.3818    1.7211 C   0  0  2  0  0  0  0  0  0  0  0  0
   20.8169   28.9243    2.9360 O   0  0  0  0  0  0  0  0  0  0  0  0
   19.0546   22.3949   -2.0012 C   0  0  1  0  0  0  0  0  0  0  0  0
   18.4143   23.6376   -2.0360 O   0  0  0  0  0  0  0  0  0  0  0  0
   19.5306   30.7372    1.9692 C   0  0  1  0  0  0  0  0  0  0  0  0
   20.4905   31.7086    2.4162 O   0  0  0  0  0  0  0  0  0  0  0  0
   18.1338   21.3748   -2.6997 C   0  0  0  0  0  0  0  0  0  0  0  0
   17.8668   21.8168   -4.0257 O   0  0  0  0  0  0  0  0  0  0  0  0
   19.4496   33.8008   -0.5087 N   0  0  0  0  0  0  0  0  0  0  0  0
   17.4556   28.7038   -2.4889 N   0  0  0  0  0  0  0  0  0  0  0  0
  1  2  1  0  0  0  0
  1 39  1  0  0  0  0
  3  4  1  0  0  0  0
  5  6  1  0  0  0  0
  5 40  1  0  0  0  0
  9 10  1  1  0  0  0
  9 14  1  0  0  0  0
  9 35  1  0  0  0  0
 10  1  1  0  0  0  0
 11 16  1  0  0  0  0
 11 28  1  0  0  0  0
 11 26  1  1  0  0  0
 12 17  1  0  0  0  0
 12 34  1  0  0  0  0
 12 13  1  1  0  0  0
 14 15  1  6  0  0  0
 14 19  1  0  0  0  0
 16 13  1  6  0  0  0
 16 21  1  0  0  0  0
 17 18  1  1  0  0  0
 17 23  1  0  0  0  0
 18  8  1  0  0  0  0
 19 20  1  1  0  0  0
 19 25  1  0  0  0  0
 20  5  1  0  0  0  0
 21  3  1  1  0  0  0
 21 22  1  0  0  0  0
 21 27  1  0  0  0  0
 23 24  1  6  0  0  0
 23 29  1  0  0  0  0
 25 26  1  6  0  0  0
 25 31  1  0  0  0  0
 27  7  1  1  0  0  0
 27 28  1  0  0  0  0
 29 30  1  1  0  0  0
 29 33  1  0  0  0  0
 31 32  1  1  0  0  0
 31 35  1  0  0  0  0
 33 34  1  0  0  0  0
 33 37  1  6  0  0  0
 35 36  1  6  0  0  0
 37 38  1  0  0  0  0
M  END
>  <CHROM.1>
-96.89991158,119.97209445,-167.06517373,68.96988651,52.52643300,-108.29008418
98.46564414,123.94169518,-66.16967042,-73.60708386,-60.57267399,19.25342713
26.68938708,-0.02786890,2.10979401,-1.33919096,0.74406824

>  <Name>
1nta_lig

>  <RI>
2.40834e+07

>  <Rbt.Current_Directory>
/home/itssahil/PROJECTS/Mol_Feturizer/New_Systems/rnas/1nta

>  <Rbt.Executable>
rbdock ($Id: //depot/dev/client3/rdock/2013.1/src/exe/rbdock.cxx#4 $)

>  <Rbt.Library>
libRbt.so (2013.1, Build901 2013/11/27)

>  <Rbt.Parameter_File>
/export/apps/rDock/src/rDock_2013.1_src/data/scripts/dock_solv.prm

>  <Rbt.Receptor>
prm/blind_docking_80.prm

>  <SCORE>
-12.3475

>  <SCORE.INTER>
1.77817

>  <SCORE.INTER.CONST>
1

>  <SCORE.INTER.POLAR>
0

>  <SCORE.INTER.ROT>
11

>  <SCORE.INTER.SOLV>
11.5937

>  <SCORE.INTER.VDW>
-13.6125

>  <SCORE.INTER.norm>
0.0444544

>  <SCORE.INTRA>
-15.4865

>  <SCORE.INTRA.DIHEDRAL>
-12.78

>  <SCORE.INTRA.DIHEDRAL.0>
19.0336

>  <SCORE.INTRA.POLAR>
0

>  <SCORE.INTRA.POLAR.0>
0

>  <SCORE.INTRA.REPUL>
0

>  <SCORE.INTRA.REPUL.0>
0

>  <SCORE.INTRA.SOLV>
3.22719

>  <SCORE.INTRA.SOLV.lig_0>
-97.5861

>  <SCORE.INTRA.VDW>
-10.7101

>  <SCORE.INTRA.VDW.0>
11.7669

>  <SCORE.INTRA.norm>
-0.387162

>  <SCORE.RESTR>
1.3608

>  <SCORE.RESTR.CAVITY>
1.3608

>  <SCORE.RESTR.norm>
0.0340199

>  <SCORE.SYSTEM>
0

>  <SCORE.SYSTEM.CONST>
0

>  <SCORE.SYSTEM.DIHEDRAL>
0

>  <SCORE.SYSTEM.SOLV>
0

>  <SCORE.SYSTEM.norm>
0

>  <SCORE.heavy>
40

>  <SCORE.norm>
-0.308688

>  <RMSD>
20.613

$$$$
1nta_lig
 OpenBabel11021811403D
libRbt.so/2013.1/901 2013/11/27
 40 42  0  0  0  0  0  0  0  0999 V2000
   19.4829   19.2925   -2.8191 C   0  0  0  0  0  0  0  0  0  0  0  0
   18.7661   18.2360   -2.9198 N   0  0  0  0  0  0  0  0  0  0  0  0
   18.1578   26.0356    3.5717 C   0  0  0  0  0  0  0  0  0  0  0  0
   17.8196   27.1449    3.9216 O   0  0  0  0  0  0  0  0  0  0  0  0
   17.2833   21.3188    1.7460 C   0  0  0  0  0  0  0  0  0  0  0  0
   18.3775   21.1546    2.4428 N   0  0  0  0  0  0  0  0  0  0  0  0
   20.2490   23.4669    3.2712 C   0  0  0  0  0  0  0  0  0  0  0  0
   21.4975   29.5338    3.6312 C   0  0  0  0  0  0  0  0  0  0  0  0
   19.0207   21.5408   -2.2429 C   0  0  2  0  0  0  0  0  0  0  0  0
   18.9155   20.4101   -3.2476 N   0  0  0  0  0  0  0  0  0  0  0  0
   19.1757   25.2849    0.3672 C   0  0  2  0  0  0  0  0  0  0  0  0
   19.4255   28.6503    1.5528 C   0  0  1  0  0  0  0  0  0  0  0  0
   19.8230   27.4480    0.9926 O   0  0  0  0  0  0  0  0  0  0  0  0
   17.9773   21.3541   -1.1251 C   0  0  1  0  0  0  0  0  0  0  0  0
   18.2948   20.1689   -0.4600 O   0  0  0  0  0  0  0  0  0  0  0  0
   19.0555   26.4357    1.3604 C   0  0  2  0  0  0  0  0  0  0  0  0
   20.4767   29.7382    1.5650 C   0  0  1  0  0  0  0  0  0  0  0  0
   21.6394   29.2403    2.2149 N   0  0  0  0  0  0  0  0  0  0  0  0
   18.0223   22.4854   -0.0893 C   0  0  2  0  0  0  0  0  0  0  0  0
   17.0270   22.3403    0.9999 N   0  0  0  0  0  0  0  0  0  0  0  0
   19.2930   25.7388    2.6288 C   0  0  1  0  0  0  0  0  0  0  0  0
   20.5477   26.1980    3.1358 O   0  0  0  0  0  0  0  0  0  0  0  0
   20.8120   30.1238    0.2747 C   0  0  2  0  0  0  0  0  0  0  0  0
   21.5520   31.3152    0.3651 O   0  0  0  0  0  0  0  0  0  0  0  0
   17.7788   23.7990   -0.8153 C   0  0  1  0  0  0  0  0  0  0  0  0
   17.8251   24.8415    0.1463 O   0  0  0  0  0  0  0  0  0  0  0  0
   19.3987   24.2989    2.3620 C   0  0  1  0  0  0  0  0  0  0  0  0
   19.8490   24.2299    1.0146 O   0  0  0  0  0  0  0  0  0  0  0  0
   19.5685   30.3651   -0.5402 C   0  0  1  0  0  0  0  0  0  0  0  0
   19.9271   30.5138   -1.8824 O   0  0  0  0  0  0  0  0  0  0  0  0
   18.8572   24.0125   -1.9154 C   0  0  2  0  0  0  0  0  0  0  0  0
   18.6183   25.2534   -2.5774 O   0  0  0  0  0  0  0  0  0  0  0  0
   18.6559   29.1918   -0.4264 C   0  0  1  0  0  0  0  0  0  0  0  0
   18.3006   29.0548    0.9191 O   0  0  0  0  0  0  0  0  0  0  0  0
   18.7724   22.8616   -2.9399 C   0  0  1  0  0  0  0  0  0  0  0  0
   19.7616   23.0415   -3.9665 O   0  0  0  0  0  0  0  0  0  0  0  0
   17.3599   29.4096   -1.2323 C   0  0  0  0  0  0  0  0  0  0  0  0
   16.5074   28.2831   -1.0608 O   0  0  0  0  0  0  0  0  0  0  0  0
   20.6790   19.2737   -2.3382 N   0  0  0  0  0  0  0  0  0  0  0  0
   16.3838   20.4147    1.7573 N   0  0  0  0  0  0  0  0  0  0  0  0
  1  2  1  0  0  0  0
  1 39  1  0  0  0  0
  3  4  1  0  0  0  0
  5  6  1  0  0  0  0
  5 40  1  0  0  0  0
  9 10  1  6  0  0  0
  9 14  1  0  0  0  0
  9 35  1  0  0  0  0
 10  1  1  0  0  0  0
 11 16  1  0  0  0  0
 11 28  1  0  0  0  0
 11 26  1  1  0  0  0
 12 17  1  0  0  0  0
 12 34  1  0  0  0  0
 12 13  1  6  0  0  0
 14 15  1  1  0  0  0
 14 19  1  0  0  0  0
 16 13  1  6  0  0  0
 16 21  1  0  0  0  0
 17 18  1  6  0  0  0
 17 23  1  0  0  0  0
 18  8  1  0  0  0  0
 19 20  1  1  0  0  0
 19 25  1  0  0  0  0
 20  5  1  0  0  0  0
 21  3  1  1  0  0  0
 21 22  1  0  0  0  0
 21 27  1  0  0  0  0
 23 24  1  1  0  0  0
 23 29  1  0  0  0  0
 25 26  1  1  0  0  0
 25 31  1  0  0  0  0
 27  7  1  1  0  0  0
 27 28  1  0  0  0  0
 29 30  1  6  0  0  0
 29 33  1  0  0  0  0
 31 32  1  6  0  0  0
 31 35  1  0  0  0  0
 33 34  1  0  0  0  0
 33 37  1  6  0  0  0
 35 36  1  6  0  0  0
 37 38  1  0  0  0  0
M  END
>  <CHROM.1>
-78.07610800,130.44217316,177.38090282,160.56913257,158.90716696,-89.42145700
66.68519153,60.96489731,-57.46558751,85.61640040,-178.30271656,19.03200825
25.14929907,0.19996042,-2.74466873,1.42396336,1.43214300

>  <Name>
1nta_lig

>  <RI>
9.25352e+06

>  <Rbt.Current_Directory>
/home/itssahil/PROJECTS/Mol_Feturizer/New_Systems/rnas/1nta

>  <Rbt.Executable>
rbdock ($Id: //depot/dev/client3/rdock/2013.1/src/exe/rbdock.cxx#4 $)

>  <Rbt.Library>
libRbt.so (2013.1, Build901 2013/11/27)

>  <Rbt.Parameter_File>
/export/apps/rDock/src/rDock_2013.1_src/data/scripts/dock_solv.prm

>  <Rbt.Receptor>
prm/blind_docking_40.prm

>  <SCORE>
-23.1625

>  <SCORE.INTER>
-6.59784

>  <SCORE.INTER.CONST>
1

>  <SCORE.INTER.POLAR>
-0.269576

>  <SCORE.INTER.ROT>
11

>  <SCORE.INTER.SOLV>
17.6132

>  <SCORE.INTER.VDW>
-20.3044

>  <SCORE.INTER.norm>
-0.164946

>  <SCORE.INTRA>
-18.5396

>  <SCORE.INTRA.DIHEDRAL>
-10.2217

>  <SCORE.INTRA.DIHEDRAL.0>
19.0336

>  <SCORE.INTRA.POLAR>
0

>  <SCORE.INTRA.POLAR.0>
0

>  <SCORE.INTRA.REPUL>
0

>  <SCORE.INTRA.REPUL.0>
0

>  <SCORE.INTRA.SOLV>
-0.749533

>  <SCORE.INTRA.SOLV.lig_0>
-97.5861

>  <SCORE.INTRA.VDW>
-13.054

>  <SCORE.INTRA.VDW.0>
11.7669

>  <SCORE.INTRA.norm>
-0.463491

>  <SCORE.RESTR>
1.97499

>  <SCORE.RESTR.CAVITY>
1.97499

>  <SCORE.RESTR.norm>
0.0493748

>  <SCORE.SYSTEM>
0

>  <SCORE.SYSTEM.CONST>
0

>  <SCORE.SYSTEM.DIHEDRAL>
0

>  <SCORE.SYSTEM.SOLV>
0

>  <SCORE.SYSTEM.norm>
0

>  <SCORE.heavy>
40

>  <SCORE.norm>
-0.579062

>  <RMSD>
20.619

$$$$
1nta_lig
 OpenBabel11021811403D
libRbt.so/2013.1/901 2013/11/27
 40 42  0  0  0  0  0  0  0  0999 V2000
   20.4844   32.9452   -1.2008 C   0  0  0  0  0  0  0  0  0  0  0  0
   20.3248   33.8718   -2.0703 N   0  0  0  0  0  0  0  0  0  0  0  0
   17.3013   23.9069   -0.1547 C   0  0  0  0  0  0  0  0  0  0  0  0
   16.4486   23.1060    0.1595 O   0  0  0  0  0  0  0  0  0  0  0  0
   20.0090   27.1946    1.8029 C   0  0  0  0  0  0  0  0  0  0  0  0
   19.0843   27.3723    2.7102 N   0  0  0  0  0  0  0  0  0  0  0  0
   14.9956   25.5471   -1.9026 C   0  0  0  0  0  0  0  0  0  0  0  0
   18.4833   21.4333   -4.4062 C   0  0  0  0  0  0  0  0  0  0  0  0
   18.9792   31.4754   -0.1171 C   0  0  2  0  0  0  0  0  0  0  0  0
   19.5490   32.8726   -0.2658 N   0  0  0  0  0  0  0  0  0  0  0  0
   18.4126   26.6491   -1.9192 C   0  0  2  0  0  0  0  0  0  0  0  0
   19.8571   23.3765   -2.3904 C   0  0  1  0  0  0  0  0  0  0  0  0
   19.4601   24.6801   -2.6368 O   0  0  0  0  0  0  0  0  0  0  0  0
   20.0558   30.5208    0.4333 C   0  0  1  0  0  0  0  0  0  0  0  0
   20.3949   30.9751    1.7087 O   0  0  0  0  0  0  0  0  0  0  0  0
   18.6964   25.1709   -1.6750 C   0  0  2  0  0  0  0  0  0  0  0  0
   20.3144   22.5982   -3.6044 C   0  0  1  0  0  0  0  0  0  0  0  0
   19.2831   22.6338   -4.5829 N   0  0  0  0  0  0  0  0  0  0  0  0
   19.5403   29.0832    0.5826 C   0  0  2  0  0  0  0  0  0  0  0  0
   20.5528   28.1351    1.1062 N   0  0  0  0  0  0  0  0  0  0  0  0
   17.3403   24.6556   -1.4599 C   0  0  1  0  0  0  0  0  0  0  0  0
   17.0252   23.8153   -2.5719 O   0  0  0  0  0  0  0  0  0  0  0  0
   21.4680   23.1484   -4.1455 C   0  0  2  0  0  0  0  0  0  0  0  0
   21.9912   22.2221   -5.0638 O   0  0  0  0  0  0  0  0  0  0  0  0
   19.0705   28.6069   -0.7828 C   0  0  1  0  0  0  0  0  0  0  0  0
   18.5918   27.2788   -0.6383 O   0  0  0  0  0  0  0  0  0  0  0  0
   16.4033   25.7859   -1.4516 C   0  0  1  0  0  0  0  0  0  0  0  0
   17.0477   26.7740   -2.2462 O   0  0  0  0  0  0  0  0  0  0  0  0
   22.4817   23.4101   -3.0627 C   0  0  1  0  0  0  0  0  0  0  0  0
   23.5234   24.1765   -3.5918 O   0  0  0  0  0  0  0  0  0  0  0  0
   17.9517   29.5428   -1.3223 C   0  0  2  0  0  0  0  0  0  0  0  0
   17.5172   29.0741   -2.5978 O   0  0  0  0  0  0  0  0  0  0  0  0
   21.8484   24.1816   -1.9553 C   0  0  1  0  0  0  0  0  0  0  0  0
   20.8108   23.4045   -1.4311 O   0  0  0  0  0  0  0  0  0  0  0  0
   18.5120   30.9733   -1.4668 C   0  0  1  0  0  0  0  0  0  0  0  0
   17.4923   31.8542   -1.9657 O   0  0  0  0  0  0  0  0  0  0  0  0
   22.8510   24.4525   -0.8162 C   0  0  0  0  0  0  0  0  0  0  0  0
   23.2050   23.2190   -0.2011 O   0  0  0  0  0  0  0  0  0  0  0  0
   21.4893   32.1379   -1.2269 N   0  0  0  0  0  0  0  0  0  0  0  0
   20.4530   26.0215    1.5728 N   0  0  0  0  0  0  0  0  0  0  0  0
  1  2  1  0  0  0  0
  1 39  1  0  0  0  0
  3  4  1  0  0  0  0
  5  6  1  0  0  0  0
  5 40  1  0  0  0  0
  9 10  1  6  0  0  0
  9 14  1  0  0  0  0
  9 35  1  0  0  0  0
 10  1  1  0  0  0  0
 11 16  1  0  0  0  0
 11 28  1  0  0  0  0
 11 26  1  1  0  0  0
 12 17  1  0  0  0  0
 12 34  1  0  0  0  0
 12 13  1  6  0  0  0
 14 15  1  1  0  0  0
 14 19  1  0  0  0  0
 16 13  1  6  0  0  0
 16 21  1  0  0  0  0
 17 18  1  6  0  0  0
 17 23  1  0  0  0  0
 18  8  1  0  0  0  0
 19 20  1  6  0  0  0
 19 25  1  0  0  0  0
 20  5  1  0  0  0  0
 21  3  1  1  0  0  0
 21 22  1  0  0  0  0
 21 27  1  0  0  0  0
 23 24  1  6  0  0  0
 23 29  1  0  0  0  0
 25 26  1  1  0  0  0
 25 31  1  0  0  0  0
 27  7  1  6  0  0  0
 27 28  1  0  0  0  0
 29 30  1  6  0  0  0
 29 33  1  0  0  0  0
 31 32  1  6  0  0  0
 31 35  1  0  0  0  0
 33 34  1  0  0  0  0
 33 37  1  1  0  0  0
 35 36  1  1  0  0  0
 37 38  1  0  0  0  0
M  END
>  <CHROM.1>
66.93380076,128.68506095,148.41496955,160.08253038,173.89011775,-94.22487117
148.85765700,-45.21617498,-161.37915784,-166.90529610,-66.36315941,19.47506518
26.65496905,-1.39288747,-1.65543221,-0.02071634,-2.86595952

>  <Name>
1nta_lig

>  <RI>
0

>  <Rbt.Current_Directory>
/home/itssahil/PROJECTS/Mol_Feturizer/New_Systems/rnas/1nta

>  <Rbt.Executable>
rbdock ($Id: //depot/dev/client3/rdock/2013.1/src/exe/rbdock.cxx#4 $)

>  <Rbt.Library>
libRbt.so (2013.1, Build901 2013/11/27)

>  <Rbt.Parameter_File>
/export/apps/rDock/src/rDock_2013.1_src/data/scripts/dock_solv.prm

>  <Rbt.Receptor>
prm/blind_docking_60.prm

>  <SCORE>
-22.3065

>  <SCORE.INTER>
-7.54139

>  <SCORE.INTER.CONST>
1

>  <SCORE.INTER.POLAR>
-0.689

>  <SCORE.INTER.ROT>
11

>  <SCORE.INTER.SOLV>
21.0286

>  <SCORE.INTER.VDW>
-20.6738

>  <SCORE.INTER.norm>
-0.188535

>  <SCORE.INTRA>
-17.1315

>  <SCORE.INTRA.DIHEDRAL>
-8.50863

>  <SCORE.INTRA.DIHEDRAL.0>
19.0336

>  <SCORE.INTRA.POLAR>
0

>  <SCORE.INTRA.POLAR.0>
0

>  <SCORE.INTRA.REPUL>
0

>  <SCORE.INTRA.REPUL.0>
0

>  <SCORE.INTRA.SOLV>
-0.222261

>  <SCORE.INTRA.SOLV.lig_0>
-97.5861

>  <SCORE.INTRA.VDW>
-12.7661

>  <SCORE.INTRA.VDW.0>
11.7669

>  <SCORE.INTRA.norm>
-0.428288

>  <SCORE.RESTR>
2.36637

>  <SCORE.RESTR.CAVITY>
2.36637

>  <SCORE.RESTR.norm>
0.0591594

>  <SCORE.SYSTEM>
0

>  <SCORE.SYSTEM.CONST>
0

>  <SCORE.SYSTEM.DIHEDRAL>
0

>  <SCORE.SYSTEM.SOLV>
0

>  <SCORE.SYSTEM.norm>
0

>  <SCORE.heavy>
40

>  <SCORE.norm>
-0.557664

>  <RMSD>
20.623

$$$$
1nta_lig
 OpenBabel11021811403D
libRbt.so/2013.1/901 2013/11/27
 40 42  0  0  0  0  0  0  0  0999 V2000
   19.0504   19.1525   -3.4710 C   0  0  0  0  0  0  0  0  0  0  0  0
   20.2559   18.8285   -3.1847 N   0  0  0  0  0  0  0  0  0  0  0  0
   20.0522   28.6738   -0.4895 C   0  0  0  0  0  0  0  0  0  0  0  0
   21.0488   28.1299   -0.9118 O   0  0  0  0  0  0  0  0  0  0  0  0
   17.3643   22.1655    0.8050 C   0  0  0  0  0  0  0  0  0  0  0  0
   16.2031   21.5805    0.9436 N   0  0  0  0  0  0  0  0  0  0  0  0
   17.5121   28.4402   -2.6237 C   0  0  0  0  0  0  0  0  0  0  0  0
   17.5176   28.5737    5.5300 C   0  0  0  0  0  0  0  0  0  0  0  0
   19.3487   21.4506   -2.9914 C   0  0  2  0  0  0  0  0  0  0  0  0
   18.8876   20.3747   -3.9550 N   0  0  0  0  0  0  0  0  0  0  0  0
   18.1895   25.7814   -0.3081 C   0  0  2  0  0  0  0  0  0  0  0  0
   18.9847   27.0425    2.7813 C   0  0  1  0  0  0  0  0  0  0  0  0
   18.1176   26.9803    1.7035 O   0  0  0  0  0  0  0  0  0  0  0  0
   18.2413   21.7500   -1.9633 C   0  0  1  0  0  0  0  0  0  0  0  0
   18.0387   20.5827   -1.2255 O   0  0  0  0  0  0  0  0  0  0  0  0
   18.7498   26.9153    0.5437 C   0  0  2  0  0  0  0  0  0  0  0  0
   18.3367   26.9136    4.1423 C   0  0  1  0  0  0  0  0  0  0  0  0
   17.3194   27.9005    4.2573 N   0  0  0  0  0  0  0  0  0  0  0  0
   18.6450   22.8513   -0.9740 C   0  0  2  0  0  0  0  0  0  0  0  0
   17.5997   23.1690    0.0283 N   0  0  0  0  0  0  0  0  0  0  0  0
   18.6926   28.0336   -0.4035 C   0  0  1  0  0  0  0  0  0  0  0  0
   17.6990   28.9427    0.0742 O   0  0  0  0  0  0  0  0  0  0  0  0
   17.7678   25.6586    4.3082 C   0  0  2  0  0  0  0  0  0  0  0  0
   17.4563   25.5091    5.6704 O   0  0  0  0  0  0  0  0  0  0  0  0
   18.9688   24.1050   -1.7710 C   0  0  1  0  0  0  0  0  0  0  0  0
   19.3448   25.1188   -0.8519 O   0  0  0  0  0  0  0  0  0  0  0  0
   18.2634   27.5214   -1.7109 C   0  0  1  0  0  0  0  0  0  0  0  0
   17.5044   26.3609   -1.3945 O   0  0  0  0  0  0  0  0  0  0  0  0
   18.7383   24.5841    3.8936 C   0  0  1  0  0  0  0  0  0  0  0  0
   18.0656   23.3605    3.8412 O   0  0  0  0  0  0  0  0  0  0  0  0
   20.1175   23.8186   -2.7795 C   0  0  2  0  0  0  0  0  0  0  0  0
   20.4136   25.0080   -3.5095 O   0  0  0  0  0  0  0  0  0  0  0  0
   19.2716   24.8839    2.5341 C   0  0  1  0  0  0  0  0  0  0  0  0
   19.9455   26.1074    2.5989 O   0  0  0  0  0  0  0  0  0  0  0  0
   19.6689   22.7149   -3.7602 C   0  0  1  0  0  0  0  0  0  0  0  0
   20.7177   22.4362   -4.7021 O   0  0  0  0  0  0  0  0  0  0  0  0
   20.2860   23.8149    2.0817 C   0  0  0  0  0  0  0  0  0  0  0  0
   21.2684   23.6428    3.0967 O   0  0  0  0  0  0  0  0  0  0  0  0
   18.0580   18.3482   -3.2967 N   0  0  0  0  0  0  0  0  0  0  0  0
   18.3626   21.7605    1.4875 N   0  0  0  0  0  0  0  0  0  0  0  0
  1  2  1  0  0  0  0
  1 39  1  0  0  0  0
  3  4  1  0  0  0  0
  5  6  1  0  0  0  0
  5 40  1  0  0  0  0
  9 10  1  6  0  0  0
  9 14  1  0  0  0  0
  9 35  1  0  0  0  0
 10  1  1  0  0  0  0
 11 16  1  0  0  0  0
 11 28  1  0  0  0  0
 11 26  1  6  0  0  0
 12 17  1  0  0  0  0
 12 34  1  0  0  0  0
 12 13  1  6  0  0  0
 14 15  1  1  0  0  0
 14 19  1  0  0  0  0
 16 13  1  1  0  0  0
 16 21  1  0  0  0  0
 17 18  1  6  0  0  0
 17 23  1  0  0  0  0
 18  8  1  0  0  0  0
 19 20  1  1  0  0  0
 19 25  1  0  0  0  0
 20  5  1  0  0  0  0
 21  3  1  6  0  0  0
 21 22  1  0  0  0  0
 21 27  1  0  0  0  0
 23 24  1  1  0  0  0
 23 29  1  0  0  0  0
 25 26  1  1  0  0  0
 25 31  1  0  0  0  0
 27  7  1  1  0  0  0
 27 28  1  0  0  0  0
 29 30  1  6  0  0  0
 29 33  1  0  0  0  0
 31 32  1  6  0  0  0
 31 35  1  0  0  0  0
 33 34  1  0  0  0  0
 33 37  1  1  0  0  0
 35 36  1  6  0  0  0
 37 38  1  0  0  0  0
M  END
>  <CHROM.1>
-82.81216403,-60.13450010,-174.70878982,-171.37909212,130.65708357,-131.13701089
64.42082836,-120.84284540,64.34395822,-83.54167794,-51.52711714,18.76436966
24.51406588,0.12300959,1.03739733,-1.39077520,-2.88419020

>  <Name>
1nta_lig

>  <RI>
2.40834e+07

>  <Rbt.Current_Directory>
/home/itssahil/PROJECTS/Mol_Feturizer/New_Systems/rnas/1nta

>  <Rbt.Executable>
rbdock ($Id: //depot/dev/client3/rdock/2013.1/src/exe/rbdock.cxx#4 $)

>  <Rbt.Library>
libRbt.so (2013.1, Build901 2013/11/27)

>  <Rbt.Parameter_File>
/export/apps/rDock/src/rDock_2013.1_src/data/scripts/dock_solv.prm

>  <Rbt.Receptor>
prm/blind_docking_80.prm

>  <SCORE>
-20.4946

>  <SCORE.INTER>
-5.97383

>  <SCORE.INTER.CONST>
1

>  <SCORE.INTER.POLAR>
0

>  <SCORE.INTER.ROT>
11

>  <SCORE.INTER.SOLV>
19.5241

>  <SCORE.INTER.VDW>
-21.4239

>  <SCORE.INTER.norm>
-0.149346

>  <SCORE.INTRA>
-15.657

>  <SCORE.INTRA.DIHEDRAL>
-6.27561

>  <SCORE.INTRA.DIHEDRAL.0>
19.0336

>  <SCORE.INTRA.POLAR>
0

>  <SCORE.INTRA.POLAR.0>
0

>  <SCORE.INTRA.REPUL>
0

>  <SCORE.INTRA.REPUL.0>
0

>  <SCORE.INTRA.SOLV>
1.26197

>  <SCORE.INTRA.SOLV.lig_0>
-97.5861

>  <SCORE.INTRA.VDW>
-13.1502

>  <SCORE.INTRA.VDW.0>
11.7669

>  <SCORE.INTRA.norm>
-0.391426

>  <SCORE.RESTR>
1.1363

>  <SCORE.RESTR.CAVITY>
1.1363

>  <SCORE.RESTR.norm>
0.0284074

>  <SCORE.SYSTEM>
0

>  <SCORE.SYSTEM.CONST>
0

>  <SCORE.SYSTEM.DIHEDRAL>
0

>  <SCORE.SYSTEM.SOLV>
0

>  <SCORE.SYSTEM.norm>
0

>  <SCORE.heavy>
40

>  <SCORE.norm>
-0.512364

>  <RMSD>
20.626

$$$$
1nta_lig
 OpenBabel11021811403D
libRbt.so/2013.1/901 2013/11/27
 40 42  0  0  0  0  0  0  0  0999 V2000
   19.3201   31.5805   -0.1758 C   0  0  0  0  0  0  0  0  0  0  0  0
   18.2869   32.3293   -0.2845 N   0  0  0  0  0  0  0  0  0  0  0  0
   18.5488   22.2899   -4.0053 C   0  0  0  0  0  0  0  0  0  0  0  0
   17.5575   21.5973   -3.9351 O   0  0  0  0  0  0  0  0  0  0  0  0
   16.4046   25.7919   -2.3708 C   0  0  0  0  0  0  0  0  0  0  0  0
   15.7242   26.4874   -3.2444 N   0  0  0  0  0  0  0  0  0  0  0  0
   21.8485   22.6955   -4.0969 C   0  0  0  0  0  0  0  0  0  0  0  0
   15.9128   19.9098    1.2593 C   0  0  0  0  0  0  0  0  0  0  0  0
   19.1762   29.2552   -0.5920 C   0  0  2  0  0  0  0  0  0  0  0  0
   19.1143   30.4035    0.3962 N   0  0  0  0  0  0  0  0  0  0  0  0
   19.9171   24.1167   -1.4248 C   0  0  2  0  0  0  0  0  0  0  0  0
   17.7844   22.5880    0.1533 C   0  0  1  0  0  0  0  0  0  0  0  0
   18.8456   22.1865   -0.6407 O   0  0  0  0  0  0  0  0  0  0  0  0
   17.9520   28.3374   -0.4139 C   0  0  1  0  0  0  0  0  0  0  0  0
   16.8212   29.0960   -0.7204 O   0  0  0  0  0  0  0  0  0  0  0  0
   18.9911   22.9410   -1.7170 C   0  0  2  0  0  0  0  0  0  0  0  0
   17.4348   21.6520    1.2893 C   0  0  1  0  0  0  0  0  0  0  0  0
   17.2009   20.3551    0.7548 N   0  0  0  0  0  0  0  0  0  0  0  0
   17.9739   27.1415   -1.3752 C   0  0  2  0  0  0  0  0  0  0  0  0
   16.8114   26.2332   -1.2282 N   0  0  0  0  0  0  0  0  0  0  0  0
   19.6015   22.3978   -2.9349 C   0  0  1  0  0  0  0  0  0  0  0  0
   20.1587   21.1257   -2.5980 O   0  0  0  0  0  0  0  0  0  0  0  0
   18.4682   21.5791    2.2128 C   0  0  2  0  0  0  0  0  0  0  0  0
   17.9676   20.9443    3.3624 O   0  0  0  0  0  0  0  0  0  0  0  0
   19.2530   26.3586   -1.1243 C   0  0  1  0  0  0  0  0  0  0  0  0
   19.2699   25.2564   -2.0179 O   0  0  0  0  0  0  0  0  0  0  0  0
   20.6928   23.2873   -3.3513 C   0  0  1  0  0  0  0  0  0  0  0  0
   21.1117   23.9087   -2.1425 O   0  0  0  0  0  0  0  0  0  0  0  0
   18.9498   22.9605    2.5709 C   0  0  1  0  0  0  0  0  0  0  0  0
   20.1333   22.8524    3.3057 O   0  0  0  0  0  0  0  0  0  0  0  0
   20.4931   27.2704   -1.3466 C   0  0  2  0  0  0  0  0  0  0  0  0
   21.6821   26.5162   -1.1169 O   0  0  0  0  0  0  0  0  0  0  0  0
   19.2390   23.7313    1.3280 C   0  0  1  0  0  0  0  0  0  0  0  0
   18.0481   23.8366    0.6027 O   0  0  0  0  0  0  0  0  0  0  0  0
   20.4383   28.4528   -0.3566 C   0  0  1  0  0  0  0  0  0  0  0  0
   21.5777   29.3076   -0.5458 O   0  0  0  0  0  0  0  0  0  0  0  0
   19.7164   25.1605    1.6531 C   0  0  0  0  0  0  0  0  0  0  0  0
   18.6925   25.8450    2.3660 O   0  0  0  0  0  0  0  0  0  0  0  0
   20.4854   31.9453   -0.5894 N   0  0  0  0  0  0  0  0  0  0  0  0
   16.6899   24.5733   -2.6156 N   0  0  0  0  0  0  0  0  0  0  0  0
  1  2  1  0  0  0  0
  1 39  1  0  0  0  0
  3  4  1  0  0  0  0
  5  6  1  0  0  0  0
  5 40  1  0  0  0  0
  9 10  1  1  0  0  0
  9 14  1  0  0  0  0
  9 35  1  0  0  0  0
 10  1  1  0  0  0  0
 11 16  1  0  0  0  0
 11 28  1  0  0  0  0
 11 26  1  6  0  0  0
 12 17  1  0  0  0  0
 12 34  1  0  0  0  0
 12 13  1  1  0  0  0
 14 15  1  6  0  0  0
 14 19  1  0  0  0  0
 16 13  1  1  0  0  0
 16 21  1  0  0  0  0
 17 18  1  6  0  0  0
 17 23  1  0  0  0  0
 18  8  1  0  0  0  0
 19 20  1  1  0  0  0
 19 25  1  0  0  0  0
 20  5  1  0  0  0  0
 21  3  1  6  0  0  0
 21 22  1  0  0  0  0
 21 27  1  0  0  0  0
 23 24  1  1  0  0  0
 23 29  1  0  0  0  0
 25 26  1  6  0  0  0
 25 31  1  0  0  0  0
 27  7  1  1  0  0  0
 27 28  1  0  0  0  0
 29 30  1  1  0  0  0
 29 33  1  0  0  0  0
 31 32  1  1  0  0  0
 31 35  1  0  0  0  0
 33 34  1  0  0  0  0
 33 37  1  1  0  0  0
 35 36  1  6  0  0  0
 37 38  1  0  0  0  0
M  END
>  <CHROM.1>
-131.16688128,107.80095328,133.40189308,171.39900133,89.78049392,-128.27063049
141.72881007,-75.10218280,-62.05318619,-146.92184157,-60.88029349,18.87309496
25.06293217,-0.63106140,1.02967101,1.36944735,0.48540624

>  <Name>
1nta_lig

>  <RI>
2.40834e+07

>  <Rbt.Current_Directory>
/home/itssahil/PROJECTS/Mol_Feturizer/New_Systems/rnas/1nta

>  <Rbt.Executable>
rbdock ($Id: //depot/dev/client3/rdock/2013.1/src/exe/rbdock.cxx#4 $)

>  <Rbt.Library>
libRbt.so (2013.1, Build901 2013/11/27)

>  <Rbt.Parameter_File>
/export/apps/rDock/src/rDock_2013.1_src/data/scripts/dock_solv.prm

>  <Rbt.Receptor>
prm/blind_docking_80.prm

>  <SCORE>
-25.7997

>  <SCORE.INTER>
-9.33559

>  <SCORE.INTER.CONST>
1

>  <SCORE.INTER.POLAR>
0

>  <SCORE.INTER.ROT>
11

>  <SCORE.INTER.SOLV>
12.252

>  <SCORE.INTER.VDW>
-21.2411

>  <SCORE.INTER.norm>
-0.23339

>  <SCORE.INTRA>
-17.4856

>  <SCORE.INTRA.DIHEDRAL>
-0.276622

>  <SCORE.INTRA.DIHEDRAL.0>
19.0336

>  <SCORE.INTRA.POLAR>
0

>  <SCORE.INTRA.POLAR.0>
0

>  <SCORE.INTRA.REPUL>
0

>  <SCORE.INTRA.REPUL.0>
0

>  <SCORE.INTRA.SOLV>
0.877614

>  <SCORE.INTRA.SOLV.lig_0>
-97.5861

>  <SCORE.INTRA.VDW>
-17.7861

>  <SCORE.INTRA.VDW.0>
11.7669

>  <SCORE.INTRA.norm>
-0.437139

>  <SCORE.RESTR>
1.02149

>  <SCORE.RESTR.CAVITY>
1.02149

>  <SCORE.RESTR.norm>
0.0255373

>  <SCORE.SYSTEM>
0

>  <SCORE.SYSTEM.CONST>
0

>  <SCORE.SYSTEM.DIHEDRAL>
0

>  <SCORE.SYSTEM.SOLV>
0

>  <SCORE.SYSTEM.norm>
0

>  <SCORE.heavy>
40

>  <SCORE.norm>
-0.644992

>  <RMSD>
20.672

$$$$
1nta_lig
 OpenBabel11021811403D
libRbt.so/2013.1/901 2013/11/27
 40 42  0  0  0  0  0  0  0  0999 V2000
   18.9709   32.3963    1.3050 C   0  0  0  0  0  0  0  0  0  0  0  0
   19.7915   32.4981    0.3271 N   0  0  0  0  0  0  0  0  0  0  0  0
   20.1227   23.8439   -3.7439 C   0  0  0  0  0  0  0  0  0  0  0  0
   20.9495   23.6248   -4.6015 O   0  0  0  0  0  0  0  0  0  0  0  0
   16.9020   27.0871   -2.3760 C   0  0  0  0  0  0  0  0  0  0  0  0
   17.9419   27.2200   -3.1575 N   0  0  0  0  0  0  0  0  0  0  0  0
   22.8252   24.0629   -1.8177 C   0  0  0  0  0  0  0  0  0  0  0  0
   19.6138   24.5173    2.4667 C   0  0  0  0  0  0  0  0  0  0  0  0
   19.0479   30.1194    0.6646 C   0  0  2  0  0  0  0  0  0  0  0  0
   18.7243   31.1618    1.7170 N   0  0  0  0  0  0  0  0  0  0  0  0
   19.6078   25.0284   -0.5501 C   0  0  2  0  0  0  0  0  0  0  0  0
   19.1273   22.4568    0.0970 C   0  0  1  0  0  0  0  0  0  0  0  0
   18.4191   23.0468   -0.9364 O   0  0  0  0  0  0  0  0  0  0  0  0
   17.7761   29.3368    0.2866 C   0  0  1  0  0  0  0  0  0  0  0  0
   16.8864   30.2486   -0.2835 O   0  0  0  0  0  0  0  0  0  0  0  0
   19.1085   23.9929   -1.5518 C   0  0  2  0  0  0  0  0  0  0  0  0
   18.5732   22.6999    1.4836 C   0  0  1  0  0  0  0  0  0  0  0  0
   18.4587   24.1024    1.6885 N   0  0  0  0  0  0  0  0  0  0  0  0
   18.0493   28.2493   -0.7610 C   0  0  2  0  0  0  0  0  0  0  0  0
   16.8467   27.4721   -1.1454 N   0  0  0  0  0  0  0  0  0  0  0  0
   20.3485   23.6710   -2.2657 C   0  0  1  0  0  0  0  0  0  0  0  0
   20.6948   22.3264   -1.9280 O   0  0  0  0  0  0  0  0  0  0  0  0
   17.3212   22.1193    1.6303 C   0  0  2  0  0  0  0  0  0  0  0  0
   17.0068   22.1259    3.0001 O   0  0  0  0  0  0  0  0  0  0  0  0
   19.0951   27.3018   -0.1949 C   0  0  1  0  0  0  0  0  0  0  0  0
   19.3465   26.3007   -1.1686 O   0  0  0  0  0  0  0  0  0  0  0  0
   21.4132   24.5599   -1.7839 C   0  0  1  0  0  0  0  0  0  0  0  0
   21.0083   24.8987   -0.4632 O   0  0  0  0  0  0  0  0  0  0  0  0
   17.3388   20.7004    1.1255 C   0  0  1  0  0  0  0  0  0  0  0  0
   16.0263   20.2253    1.0609 O   0  0  0  0  0  0  0  0  0  0  0  0
   20.3970   28.0811    0.1466 C   0  0  2  0  0  0  0  0  0  0  0  0
   21.3685   27.1745    0.6659 O   0  0  0  0  0  0  0  0  0  0  0  0
   17.9191   20.6611   -0.2472 C   0  0  1  0  0  0  0  0  0  0  0  0
   19.2325   21.1346   -0.1703 O   0  0  0  0  0  0  0  0  0  0  0  0
   20.0819   29.1561    1.2078 C   0  0  1  0  0  0  0  0  0  0  0  0
   21.2740   29.8874    1.5379 O   0  0  0  0  0  0  0  0  0  0  0  0
   17.9729   19.2200   -0.7919 C   0  0  0  0  0  0  0  0  0  0  0  0
   18.6562   19.2167   -2.0401 O   0  0  0  0  0  0  0  0  0  0  0  0
   18.4155   33.4234    1.8517 N   0  0  0  0  0  0  0  0  0  0  0  0
   15.8316   26.5633   -2.8303 N   0  0  0  0  0  0  0  0  0  0  0  0
  1  2  1  0  0  0  0
  1 39  1  0  0  0  0
  3  4  1  0  0  0  0
  5  6  1  0  0  0  0
  5 40  1  0  0  0  0
  9 10  1  1  0  0  0
  9 14  1  0  0  0  0
  9 35  1  0  0  0  0
 10  1  1  0  0  0  0
 11 16  1  0  0  0  0
 11 28  1  0  0  0  0
 11 26  1  6  0  0  0
 12 17  1  0  0  0  0
 12 34  1  0  0  0  0
 12 13  1  6  0  0  0
 14 15  1  6  0  0  0
 14 19  1  0  0  0  0
 16 13  1  1  0  0  0
 16 21  1  0  0  0  0
 17 18  1  6  0  0  0
 17 23  1  0  0  0  0
 18  8  1  0  0  0  0
 19 20  1  1  0  0  0
 19 25  1  0  0  0  0
 20  5  1  0  0  0  0
 21  3  1  6  0  0  0
 21 22  1  0  0  0  0
 21 27  1  0  0  0  0
 23 24  1  1  0  0  0
 23 29  1  0  0  0  0
 25 26  1  6  0  0  0
 25 31  1  0  0  0  0
 27  7  1  1  0  0  0
 27 28  1  0  0  0  0
 29 30  1  6  0  0  0
 29 33  1  0  0  0  0
 31 32  1  1  0  0  0
 31 35  1  0  0  0  0
 33 34  1  0  0  0  0
 33 37  1  1  0  0  0
 35 36  1  6  0  0  0
 37 38  1  0  0  0  0
M  END
>  <CHROM.1>
-118.87567165,-20.89323792,149.79720154,113.87281250,-54.35335024,-99.60969801
147.98378840,7.41611544,-178.25574773,-144.81639281,-174.08407993,18.98186968
25.48321863,-0.31967803,1.50241030,0.95174535,0.17239003

>  <Name>
1nta_lig

>  <RI>
0

>  <Rbt.Current_Directory>
/home/itssahil/PROJECTS/Mol_Feturizer/New_Systems/rnas/1nta

>  <Rbt.Executable>
rbdock ($Id: //depot/dev/client3/rdock/2013.1/src/exe/rbdock.cxx#4 $)

>  <Rbt.Library>
libRbt.so (2013.1, Build901 2013/11/27)

>  <Rbt.Parameter_File>
/export/apps/rDock/src/rDock_2013.1_src/data/scripts/dock_solv.prm

>  <Rbt.Receptor>
prm/blind_docking_60.prm

>  <SCORE>
-9.49923

>  <SCORE.INTER>
0.230663

>  <SCORE.INTER.CONST>
1

>  <SCORE.INTER.POLAR>
0

>  <SCORE.INTER.ROT>
11

>  <SCORE.INTER.SOLV>
13.2923

>  <SCORE.INTER.VDW>
-15.2103

>  <SCORE.INTER.norm>
0.00576656

>  <SCORE.INTRA>
-11.3889

>  <SCORE.INTRA.DIHEDRAL>
0.0908374

>  <SCORE.INTRA.DIHEDRAL.0>
19.0336

>  <SCORE.INTRA.POLAR>
0

>  <SCORE.INTRA.POLAR.0>
0

>  <SCORE.INTRA.REPUL>
0

>  <SCORE.INTRA.REPUL.0>
0

>  <SCORE.INTRA.SOLV>
-2.03983

>  <SCORE.INTRA.SOLV.lig_0>
-97.5861

>  <SCORE.INTRA.VDW>
-10.4144

>  <SCORE.INTRA.VDW.0>
11.7669

>  <SCORE.INTRA.norm>
-0.284721

>  <SCORE.RESTR>
1.65896

>  <SCORE.RESTR.CAVITY>
1.65896

>  <SCORE.RESTR.norm>
0.0414741

>  <SCORE.SYSTEM>
0

>  <SCORE.SYSTEM.CONST>
0

>  <SCORE.SYSTEM.DIHEDRAL>
0

>  <SCORE.SYSTEM.SOLV>
0

>  <SCORE.SYSTEM.norm>
0

>  <SCORE.heavy>
40

>  <SCORE.norm>
-0.237481

>  <RMSD>
20.681

$$$$
1nta_lig
 OpenBabel11021811403D
libRbt.so/2013.1/901 2013/11/27
 40 42  0  0  0  0  0  0  0  0999 V2000
   18.5767   18.9099   -3.1362 C   0  0  0  0  0  0  0  0  0  0  0  0
   18.6580   19.1626   -4.3891 N   0  0  0  0  0  0  0  0  0  0  0  0
   18.0216   26.8369    2.6533 C   0  0  0  0  0  0  0  0  0  0  0  0
   17.3909   27.8555    2.4748 O   0  0  0  0  0  0  0  0  0  0  0  0
   21.2178   24.3742   -3.4449 C   0  0  0  0  0  0  0  0  0  0  0  0
   20.4706   24.5649   -4.5009 N   0  0  0  0  0  0  0  0  0  0  0  0
   20.4690   24.8171    3.6493 C   0  0  0  0  0  0  0  0  0  0  0  0
   16.8206   27.1617   -1.5365 C   0  0  0  0  0  0  0  0  0  0  0  0
   18.9728   20.9769   -2.0540 C   0  0  2  0  0  0  0  0  0  0  0  0
   19.4312   19.5655   -2.3652 N   0  0  0  0  0  0  0  0  0  0  0  0
   20.0597   25.5958    0.1684 C   0  0  2  0  0  0  0  0  0  0  0  0
   19.6316   28.4502   -0.9022 C   0  0  1  0  0  0  0  0  0  0  0  0
   20.1536   27.9345    0.2722 O   0  0  0  0  0  0  0  0  0  0  0  0
   20.1179   21.9742   -2.3130 C   0  0  1  0  0  0  0  0  0  0  0  0
   20.4119   21.9179   -3.6762 O   0  0  0  0  0  0  0  0  0  0  0  0
   19.4731   26.8917    0.7178 C   0  0  2  0  0  0  0  0  0  0  0  0
   18.1860   28.8907   -0.8300 C   0  0  1  0  0  0  0  0  0  0  0  0
   17.4004   27.7997   -0.3665 N   0  0  0  0  0  0  0  0  0  0  0  0
   19.7169   23.4201   -1.9915 C   0  0  2  0  0  0  0  0  0  0  0  0
   20.7978   24.4077   -2.2250 N   0  0  0  0  0  0  0  0  0  0  0  0
   19.4194   26.5905    2.1522 C   0  0  1  0  0  0  0  0  0  0  0  0
   20.3783   27.4310    2.7974 O   0  0  0  0  0  0  0  0  0  0  0  0
   18.0321   29.9593    0.0420 C   0  0  2  0  0  0  0  0  0  0  0  0
   16.7498   30.4961   -0.1648 O   0  0  0  0  0  0  0  0  0  0  0  0
   19.2949   23.4787   -0.5320 C   0  0  1  0  0  0  0  0  0  0  0  0
   18.9219   24.8166   -0.2412 O   0  0  0  0  0  0  0  0  0  0  0  0
   19.8171   25.1918    2.3545 C   0  0  1  0  0  0  0  0  0  0  0  0
   20.6578   24.9079    1.2430 O   0  0  0  0  0  0  0  0  0  0  0  0
   19.0697   31.0154   -0.2348 C   0  0  1  0  0  0  0  0  0  0  0  0
   19.0466   31.9561    0.7982 O   0  0  0  0  0  0  0  0  0  0  0  0
   18.1091   22.5055   -0.2762 C   0  0  2  0  0  0  0  0  0  0  0  0
   17.7212   22.5824    1.0945 O   0  0  0  0  0  0  0  0  0  0  0  0
   20.4242   30.3937   -0.2717 C   0  0  1  0  0  0  0  0  0  0  0  0
   20.4372   29.4576   -1.3104 O   0  0  0  0  0  0  0  0  0  0  0  0
   18.5554   21.0646   -0.6014 C   0  0  1  0  0  0  0  0  0  0  0  0
   17.4724   20.1489   -0.3702 O   0  0  0  0  0  0  0  0  0  0  0  0
   21.5138   31.4416   -0.5731 C   0  0  0  0  0  0  0  0  0  0  0  0
   20.9887   32.4201   -1.4630 O   0  0  0  0  0  0  0  0  0  0  0  0
   17.7252   18.0707   -2.6536 N   0  0  0  0  0  0  0  0  0  0  0  0
   22.4573   24.1095   -3.5859 N   0  0  0  0  0  0  0  0  0  0  0  0
  1  2  1  0  0  0  0
  1 39  1  0  0  0  0
  3  4  1  0  0  0  0
  5  6  1  0  0  0  0
  5 40  1  0  0  0  0
  9 10  1  1  0  0  0
  9 14  1  0  0  0  0
  9 35  1  0  0  0  0
 10  1  1  0  0  0  0
 11 16  1  0  0  0  0
 11 28  1  0  0  0  0
 11 26  1  1  0  0  0
 12 17  1  0  0  0  0
 12 34  1  0  0  0  0
 12 13  1  1  0  0  0
 14 15  1  6  0  0  0
 14 19  1  0  0  0  0
 16 13  1  1  0  0  0
 16 21  1  0  0  0  0
 17 18  1  1  0  0  0
 17 23  1  0  0  0  0
 18  8  1  0  0  0  0
 19 20  1  1  0  0  0
 19 25  1  0  0  0  0
 20  5  1  0  0  0  0
 21  3  1  1  0  0  0
 21 22  1  0  0  0  0
 21 27  1  0  0  0  0
 23 24  1  6  0  0  0
 23 29  1  0  0  0  0
 25 26  1  6  0  0  0
 25 31  1  0  0  0  0
 27  7  1  1  0  0  0
 27 28  1  0  0  0  0
 29 30  1  1  0  0  0
 29 33  1  0  0  0  0
 31 32  1  1  0  0  0
 31 35  1  0  0  0  0
 33 34  1  0  0  0  0
 33 37  1  6  0  0  0
 35 36  1  6  0  0  0
 37 38  1  0  0  0  0
M  END
>  <CHROM.1>
-131.11305418,81.04313914,-168.52472034,57.89609049,91.37589330,-97.65875835
57.52775523,57.96263300,-51.35732426,-87.69136264,-34.38341249,19.31097599
25.55135788,-0.60600595,-1.66314634,1.18676344,0.34225941

>  <Name>
1nta_lig

>  <RI>
2.40834e+07

>  <Rbt.Current_Directory>
/home/itssahil/PROJECTS/Mol_Feturizer/New_Systems/rnas/1nta

>  <Rbt.Executable>
rbdock ($Id: //depot/dev/client3/rdock/2013.1/src/exe/rbdock.cxx#4 $)

>  <Rbt.Library>
libRbt.so (2013.1, Build901 2013/11/27)

>  <Rbt.Parameter_File>
/export/apps/rDock/src/rDock_2013.1_src/data/scripts/dock_solv.prm

>  <Rbt.Receptor>
prm/blind_docking_80.prm

>  <SCORE>
-30.7681

>  <SCORE.INTER>
-14.796

>  <SCORE.INTER.CONST>
1

>  <SCORE.INTER.POLAR>
-1.74024

>  <SCORE.INTER.ROT>
11

>  <SCORE.INTER.SOLV>
15.0029

>  <SCORE.INTER.VDW>
-19.9975

>  <SCORE.INTER.norm>
-0.3699

>  <SCORE.INTRA>
-15.9721

>  <SCORE.INTRA.DIHEDRAL>
-5.45253

>  <SCORE.INTRA.DIHEDRAL.0>
19.0336

>  <SCORE.INTRA.POLAR>
0

>  <SCORE.INTRA.POLAR.0>
0

>  <SCORE.INTRA.REPUL>
0

>  <SCORE.INTRA.REPUL.0>
0

>  <SCORE.INTRA.SOLV>
-1.61309

>  <SCORE.INTRA.SOLV.lig_0>
-97.5861

>  <SCORE.INTRA.VDW>
-12.4393

>  <SCORE.INTRA.VDW.0>
11.7669

>  <SCORE.INTRA.norm>
-0.399304

>  <SCORE.RESTR>
0

>  <SCORE.RESTR.CAVITY>
0

>  <SCORE.RESTR.norm>
0

>  <SCORE.SYSTEM>
0

>  <SCORE.SYSTEM.CONST>
0

>  <SCORE.SYSTEM.DIHEDRAL>
0

>  <SCORE.SYSTEM.SOLV>
0

>  <SCORE.SYSTEM.norm>
0

>  <SCORE.heavy>
40

>  <SCORE.norm>
-0.769203

>  <RMSD>
20.694

$$$$
1nta_lig
 OpenBabel11021811403D
libRbt.so/2013.1/901 2013/11/27
 40 42  0  0  0  0  0  0  0  0999 V2000
   18.4276   18.1922   -1.6084 C   0  0  0  0  0  0  0  0  0  0  0  0
   18.5644   17.6007   -2.7361 N   0  0  0  0  0  0  0  0  0  0  0  0
   17.9078   28.2525   -2.5373 C   0  0  0  0  0  0  0  0  0  0  0  0
   17.3683   29.0384   -3.2847 O   0  0  0  0  0  0  0  0  0  0  0  0
   21.0131   23.3913   -4.2820 C   0  0  0  0  0  0  0  0  0  0  0  0
   20.2570   22.7569   -5.1396 N   0  0  0  0  0  0  0  0  0  0  0  0
   14.9279   26.7831   -2.3873 C   0  0  0  0  0  0  0  0  0  0  0  0
   20.6031   30.0439    1.9854 C   0  0  0  0  0  0  0  0  0  0  0  0
   18.8279   20.5216   -1.7260 C   0  0  2  0  0  0  0  0  0  0  0  0
   19.3182   19.1375   -1.3481 N   0  0  0  0  0  0  0  0  0  0  0  0
   17.7443   25.3580   -0.6763 C   0  0  2  0  0  0  0  0  0  0  0  0
   19.7102   27.1838    1.0195 C   0  0  1  0  0  0  0  0  0  0  0  0
   18.3795   27.1917    0.6363 O   0  0  0  0  0  0  0  0  0  0  0  0
   20.0059   21.3842   -2.2172 C   0  0  1  0  0  0  0  0  0  0  0  0
   20.5014   20.7825   -3.3750 O   0  0  0  0  0  0  0  0  0  0  0  0
   18.2080   26.8095   -0.6181 C   0  0  2  0  0  0  0  0  0  0  0  0
   20.0048   27.8391    2.3509 C   0  0  1  0  0  0  0  0  0  0  0  0
   19.4959   29.1667    2.3272 N   0  0  0  0  0  0  0  0  0  0  0  0
   19.5710   22.8072   -2.5924 C   0  0  2  0  0  0  0  0  0  0  0  0
   20.6816   23.6679   -3.0657 N   0  0  0  0  0  0  0  0  0  0  0  0
   17.2051   27.4597   -1.4681 C   0  0  1  0  0  0  0  0  0  0  0  0
   16.4056   28.2881   -0.6216 O   0  0  0  0  0  0  0  0  0  0  0  0
   19.4055   27.1453    3.3929 C   0  0  2  0  0  0  0  0  0  0  0  0
   19.9558   27.6232    4.5945 O   0  0  0  0  0  0  0  0  0  0  0  0
   18.9345   23.4439   -1.3671 C   0  0  1  0  0  0  0  0  0  0  0  0
   18.5312   24.7577   -1.7204 O   0  0  0  0  0  0  0  0  0  0  0  0
   16.3432   26.4255   -2.0541 C   0  0  1  0  0  0  0  0  0  0  0  0
   16.4074   25.3537   -1.1214 O   0  0  0  0  0  0  0  0  0  0  0  0
   19.6796   25.6698    3.2664 C   0  0  1  0  0  0  0  0  0  0  0  0
   18.8753   24.9790    4.1766 O   0  0  0  0  0  0  0  0  0  0  0  0
   17.7169   22.5995   -0.8944 C   0  0  2  0  0  0  0  0  0  0  0  0
   17.1275   23.2176    0.2483 O   0  0  0  0  0  0  0  0  0  0  0  0
   19.3331   25.2089    1.8916 C   0  0  1  0  0  0  0  0  0  0  0  0
   20.1457   25.9031    0.9899 O   0  0  0  0  0  0  0  0  0  0  0  0
   18.1972   21.1820   -0.5185 C   0  0  1  0  0  0  0  0  0  0  0  0
   17.0854   20.3855   -0.0777 O   0  0  0  0  0  0  0  0  0  0  0  0
   19.6193   23.7043    1.7161 C   0  0  0  0  0  0  0  0  0  0  0  0
   20.9907   23.4526    2.0003 O   0  0  0  0  0  0  0  0  0  0  0  0
   17.4905   17.8879   -0.7769 N   0  0  0  0  0  0  0  0  0  0  0  0
   22.1840   23.7633   -4.6241 N   0  0  0  0  0  0  0  0  0  0  0  0
  1  2  1  0  0  0  0
  1 39  1  0  0  0  0
  3  4  1  0  0  0  0
  5  6  1  0  0  0  0
  5 40  1  0  0  0  0
  9 10  1  1  0  0  0
  9 14  1  0  0  0  0
  9 35  1  0  0  0  0
 10  1  1  0  0  0  0
 11 16  1  0  0  0  0
 11 28  1  0  0  0  0
 11 26  1  6  0  0  0
 12 17  1  0  0  0  0
 12 34  1  0  0  0  0
 12 13  1  1  0  0  0
 14 15  1  6  0  0  0
 14 19  1  0  0  0  0
 16 13  1  1  0  0  0
 16 21  1  0  0  0  0
 17 18  1  6  0  0  0
 17 23  1  0  0  0  0
 18  8  1  0  0  0  0
 19 20  1  1  0  0  0
 19 25  1  0  0  0  0
 20  5  1  0  0  0  0
 21  3  1  6  0  0  0
 21 22  1  0  0  0  0
 21 27  1  0  0  0  0
 23 24  1  1  0  0  0
 23 29  1  0  0  0  0
 25 26  1  6  0  0  0
 25 31  1  0  0  0  0
 27  7  1  1  0  0  0
 27 28  1  0  0  0  0
 29 30  1  1  0  0  0
 29 33  1  0  0  0  0
 31 32  1  1  0  0  0
 31 35  1  0  0  0  0
 33 34  1  0  0  0  0
 33 37  1  1  0  0  0
 35 36  1  6  0  0  0
 37 38  1  0  0  0  0
M  END
>  <CHROM.1>
-146.03024704,94.87512726,140.19521405,169.58004177,100.80775139,-96.88244708
77.07540953,19.66597797,-169.86386697,171.51088723,-57.47272637,18.81277284
24.45049787,-0.52352556,-1.45275931,-1.36508042,0.55338238

>  <Name>
1nta_lig

>  <RI>
2.40834e+07

>  <Rbt.Current_Directory>
/home/itssahil/PROJECTS/Mol_Feturizer/New_Systems/rnas/1nta

>  <Rbt.Executable>
rbdock ($Id: //depot/dev/client3/rdock/2013.1/src/exe/rbdock.cxx#4 $)

>  <Rbt.Library>
libRbt.so (2013.1, Build901 2013/11/27)

>  <Rbt.Parameter_File>
/export/apps/rDock/src/rDock_2013.1_src/data/scripts/dock_solv.prm

>  <Rbt.Receptor>
prm/blind_docking_80.prm

>  <SCORE>
-25.0408

>  <SCORE.INTER>
-11.6044

>  <SCORE.INTER.CONST>
1

>  <SCORE.INTER.POLAR>
-1.56068

>  <SCORE.INTER.ROT>
11

>  <SCORE.INTER.SOLV>
14.8659

>  <SCORE.INTER.VDW>
-18.4227

>  <SCORE.INTER.norm>
-0.290111

>  <SCORE.INTRA>
-14.5068

>  <SCORE.INTRA.DIHEDRAL>
-4.08249

>  <SCORE.INTRA.DIHEDRAL.0>
19.0336

>  <SCORE.INTRA.POLAR>
0

>  <SCORE.INTRA.POLAR.0>
0

>  <SCORE.INTRA.REPUL>
0

>  <SCORE.INTRA.REPUL.0>
0

>  <SCORE.INTRA.SOLV>
-4.13254

>  <SCORE.INTRA.SOLV.lig_0>
-97.5861

>  <SCORE.INTRA.VDW>
-10.3993

>  <SCORE.INTRA.VDW.0>
11.7669

>  <SCORE.INTRA.norm>
-0.36267

>  <SCORE.RESTR>
1.07047

>  <SCORE.RESTR.CAVITY>
1.07047

>  <SCORE.RESTR.norm>
0.0267618

>  <SCORE.SYSTEM>
0

>  <SCORE.SYSTEM.CONST>
0

>  <SCORE.SYSTEM.DIHEDRAL>
0

>  <SCORE.SYSTEM.SOLV>
0

>  <SCORE.SYSTEM.norm>
0

>  <SCORE.heavy>
40

>  <SCORE.norm>
-0.626019

>  <RMSD>
20.702

$$$$
1nta_lig
 OpenBabel11021811403D
libRbt.so/2013.1/901 2013/11/27
 40 42  0  0  0  0  0  0  0  0999 V2000
   18.6334   18.1549   -1.7519 C   0  0  0  0  0  0  0  0  0  0  0  0
   18.6183   17.5297   -2.8695 N   0  0  0  0  0  0  0  0  0  0  0  0
   17.8575   28.2521   -2.5611 C   0  0  0  0  0  0  0  0  0  0  0  0
   17.3123   29.0949   -3.2392 O   0  0  0  0  0  0  0  0  0  0  0  0
   21.5522   23.7794   -2.8178 C   0  0  0  0  0  0  0  0  0  0  0  0
   22.3546   22.7856   -2.5381 N   0  0  0  0  0  0  0  0  0  0  0  0
   14.8720   26.7910   -2.4447 C   0  0  0  0  0  0  0  0  0  0  0  0
   20.3796   29.9637    1.6634 C   0  0  0  0  0  0  0  0  0  0  0  0
   18.9376   20.4905   -1.9813 C   0  0  2  0  0  0  0  0  0  0  0  0
   19.5240   19.1307   -1.6558 N   0  0  0  0  0  0  0  0  0  0  0  0
   17.7102   25.2521   -0.8739 C   0  0  2  0  0  0  0  0  0  0  0  0
   19.7226   27.0866    0.8614 C   0  0  1  0  0  0  0  0  0  0  0  0
   18.3798   27.0008    0.5342 O   0  0  0  0  0  0  0  0  0  0  0  0
   20.0139   21.3931   -2.6138 C   0  0  1  0  0  0  0  0  0  0  0  0
   20.3930   20.7987   -3.8184 O   0  0  0  0  0  0  0  0  0  0  0  0
   18.1834   26.6953   -0.7375 C   0  0  2  0  0  0  0  0  0  0  0  0
   20.0247   27.7395    2.1923 C   0  0  1  0  0  0  0  0  0  0  0  0
   19.4176   29.0252    2.2167 N   0  0  0  0  0  0  0  0  0  0  0  0
   19.4813   22.7939   -2.9434 C   0  0  2  0  0  0  0  0  0  0  0  0
   20.4929   23.6921   -3.5500 N   0  0  0  0  0  0  0  0  0  0  0  0
   17.1694   27.4001   -1.5285 C   0  0  1  0  0  0  0  0  0  0  0  0
   16.3902   28.1803   -0.6195 O   0  0  0  0  0  0  0  0  0  0  0  0
   19.5243   26.9849    3.2441 C   0  0  2  0  0  0  0  0  0  0  0  0
   20.0887   27.4824    4.4311 O   0  0  0  0  0  0  0  0  0  0  0  0
   18.9688   23.4184   -1.6552 C   0  0  1  0  0  0  0  0  0  0  0  0
   18.4745   24.7116   -1.9663 O   0  0  0  0  0  0  0  0  0  0  0  0
   16.2909   26.4072   -2.1595 C   0  0  1  0  0  0  0  0  0  0  0  0
   16.3654   25.2811   -1.2939 O   0  0  0  0  0  0  0  0  0  0  0  0
   19.9019   25.5366    3.0764 C   0  0  1  0  0  0  0  0  0  0  0  0
   19.1914   24.7718    4.0053 O   0  0  0  0  0  0  0  0  0  0  0  0
   17.8503   22.5323   -1.0367 C   0  0  2  0  0  0  0  0  0  0  0  0
   17.3757   23.1392    0.1640 O   0  0  0  0  0  0  0  0  0  0  0  0
   19.5318   25.0743    1.7083 C   0  0  1  0  0  0  0  0  0  0  0  0
   20.2508   25.8431    0.7877 O   0  0  0  0  0  0  0  0  0  0  0  0
   18.4279   21.1387   -0.7117 C   0  0  1  0  0  0  0  0  0  0  0  0
   17.4086   20.3043   -0.1376 O   0  0  0  0  0  0  0  0  0  0  0  0
   19.9216   23.5989    1.4906 C   0  0  0  0  0  0  0  0  0  0  0  0
   19.0136   22.7653    2.2018 O   0  0  0  0  0  0  0  0  0  0  0  0
   17.8403   17.8549   -0.7807 N   0  0  0  0  0  0  0  0  0  0  0  0
   21.7834   24.9357   -2.3321 N   0  0  0  0  0  0  0  0  0  0  0  0
  1  2  1  0  0  0  0
  1 39  1  0  0  0  0
  3  4  1  0  0  0  0
  5  6  1  0  0  0  0
  5 40  1  0  0  0  0
  9 10  1  1  0  0  0
  9 14  1  0  0  0  0
  9 35  1  0  0  0  0
 10  1  1  0  0  0  0
 11 16  1  0  0  0  0
 11 28  1  0  0  0  0
 11 26  1  6  0  0  0
 12 17  1  0  0  0  0
 12 34  1  0  0  0  0
 12 13  1  1  0  0  0
 14 15  1  6  0  0  0
 14 19  1  0  0  0  0
 16 13  1  1  0  0  0
 16 21  1  0  0  0  0
 17 18  1  6  0  0  0
 17 23  1  0  0  0  0
 18  8  1  0  0  0  0
 19 20  1  1  0  0  0
 19 25  1  0  0  0  0
 20  5  1  0  0  0  0
 21  3  1  6  0  0  0
 21 22  1  0  0  0  0
 21 27  1  0  0  0  0
 23 24  1  1  0  0  0
 23 29  1  0  0  0  0
 25 26  1  6  0  0  0
 25 31  1  0  0  0  0
 27  7  1  1  0  0  0
 27 28  1  0  0  0  0
 29 30  1  1  0  0  0
 29 33  1  0  0  0  0
 31 32  1  1  0  0  0
 31 35  1  0  0  0  0
 33 34  1  0  0  0  0
 33 37  1  1  0  0  0
 35 36  1  6  0  0  0
 37 38  1  0  0  0  0
M  END
>  <CHROM.1>
-148.53953966,95.50999145,135.39925868,166.31733246,106.50789347,-88.83384731
-54.47455103,63.41278696,-168.95801711,167.32561603,74.28814883,18.86668030
24.40799351,-0.52121810,-1.46252729,-1.21141612,0.46429658

>  <Name>
1nta_lig

>  <RI>
2.40834e+07

>  <Rbt.Current_Directory>
/home/itssahil/PROJECTS/Mol_Feturizer/New_Systems/rnas/1nta

>  <Rbt.Executable>
rbdock ($Id: //depot/dev/client3/rdock/2013.1/src/exe/rbdock.cxx#4 $)

>  <Rbt.Library>
libRbt.so (2013.1, Build901 2013/11/27)

>  <Rbt.Parameter_File>
/export/apps/rDock/src/rDock_2013.1_src/data/scripts/dock_solv.prm

>  <Rbt.Receptor>
prm/blind_docking_80.prm

>  <SCORE>
-22.835

>  <SCORE.INTER>
-12.6911

>  <SCORE.INTER.CONST>
1

>  <SCORE.INTER.POLAR>
-0.64809

>  <SCORE.INTER.ROT>
11

>  <SCORE.INTER.SOLV>
14.9345

>  <SCORE.INTER.VDW>
-22.2119

>  <SCORE.INTER.norm>
-0.317277

>  <SCORE.INTRA>
-10.542

>  <SCORE.INTRA.DIHEDRAL>
-1.29739

>  <SCORE.INTRA.DIHEDRAL.0>
19.0336

>  <SCORE.INTRA.POLAR>
0

>  <SCORE.INTRA.POLAR.0>
0

>  <SCORE.INTRA.REPUL>
0

>  <SCORE.INTRA.REPUL.0>
0

>  <SCORE.INTRA.SOLV>
-0.791341

>  <SCORE.INTRA.SOLV.lig_0>
-97.5861

>  <SCORE.INTRA.VDW>
-9.49763

>  <SCORE.INTRA.VDW.0>
11.7669

>  <SCORE.INTRA.norm>
-0.26355

>  <SCORE.RESTR>
0.398125

>  <SCORE.RESTR.CAVITY>
0.398125

>  <SCORE.RESTR.norm>
0.00995313

>  <SCORE.SYSTEM>
0

>  <SCORE.SYSTEM.CONST>
0

>  <SCORE.SYSTEM.DIHEDRAL>
0

>  <SCORE.SYSTEM.SOLV>
0

>  <SCORE.SYSTEM.norm>
0

>  <SCORE.heavy>
40

>  <SCORE.norm>
-0.570874

>  <RMSD>
20.714

$$$$
1nta_lig
 OpenBabel11021811403D
libRbt.so/2013.1/901 2013/11/27
 40 42  0  0  0  0  0  0  0  0999 V2000
   17.6334   31.0665   -0.7892 C   0  0  0  0  0  0  0  0  0  0  0  0
   16.3644   31.0578   -0.6164 N   0  0  0  0  0  0  0  0  0  0  0  0
   19.1504   22.5698   -4.0941 C   0  0  0  0  0  0  0  0  0  0  0  0
   19.2275   22.0764   -5.1977 O   0  0  0  0  0  0  0  0  0  0  0  0
   16.6443   26.0439   -2.4109 C   0  0  0  0  0  0  0  0  0  0  0  0
   15.7493   26.4927   -3.2519 N   0  0  0  0  0  0  0  0  0  0  0  0
   22.4480   22.1911   -4.3026 C   0  0  0  0  0  0  0  0  0  0  0  0
   16.5600   20.4397    1.0017 C   0  0  0  0  0  0  0  0  0  0  0  0
   19.0090   29.1621   -1.0743 C   0  0  2  0  0  0  0  0  0  0  0  0
   18.3041   30.1264   -0.1404 N   0  0  0  0  0  0  0  0  0  0  0  0
   21.0198   24.3282   -1.7960 C   0  0  2  0  0  0  0  0  0  0  0  0
   18.3575   23.1939   -0.2283 C   0  0  1  0  0  0  0  0  0  0  0  0
   19.5795   22.8046   -0.7504 O   0  0  0  0  0  0  0  0  0  0  0  0
   18.0773   27.9854   -1.4212 C   0  0  1  0  0  0  0  0  0  0  0  0
   16.9846   28.5151   -2.1093 O   0  0  0  0  0  0  0  0  0  0  0  0
   19.8391   23.3709   -1.9171 C   0  0  2  0  0  0  0  0  0  0  0  0
   17.8508   22.3583    0.9267 C   0  0  1  0  0  0  0  0  0  0  0  0
   17.8136   20.9959    0.5209 N   0  0  0  0  0  0  0  0  0  0  0  0
   18.7484   26.9627   -2.3478 C   0  0  2  0  0  0  0  0  0  0  0  0
   17.8809   25.8128   -2.6991 N   0  0  0  0  0  0  0  0  0  0  0  0
   20.2511   22.5599   -3.0675 C   0  0  1  0  0  0  0  0  0  0  0  0
   20.5223   21.2435   -2.5821 O   0  0  0  0  0  0  0  0  0  0  0  0
   18.6820   22.4768    2.0318 C   0  0  2  0  0  0  0  0  0  0  0  0
   18.0052   21.9276    3.1342 O   0  0  0  0  0  0  0  0  0  0  0  0
   20.0003   26.4491   -1.6545 C   0  0  1  0  0  0  0  0  0  0  0  0
   20.6186   25.5068   -2.5167 O   0  0  0  0  0  0  0  0  0  0  0  0
   21.4935   23.1180   -3.6158 C   0  0  1  0  0  0  0  0  0  0  0  0
   22.1002   23.7664   -2.5048 O   0  0  0  0  0  0  0  0  0  0  0  0
   18.9909   23.9259    2.3024 C   0  0  1  0  0  0  0  0  0  0  0  0
   20.0088   24.0024    3.2566 O   0  0  0  0  0  0  0  0  0  0  0  0
   20.9639   27.6293   -1.3424 C   0  0  2  0  0  0  0  0  0  0  0  0
   22.1357   27.1267   -0.7023 O   0  0  0  0  0  0  0  0  0  0  0  0
   19.4707   24.5809    1.0522 C   0  0  1  0  0  0  0  0  0  0  0  0
   18.4438   24.5020    0.1063 O   0  0  0  0  0  0  0  0  0  0  0  0
   20.2562   28.6279   -0.4027 C   0  0  1  0  0  0  0  0  0  0  0  0
   21.1318   29.7267   -0.1014 O   0  0  0  0  0  0  0  0  0  0  0  0
   19.7789   26.0734    1.2842 C   0  0  0  0  0  0  0  0  0  0  0  0
   18.5956   26.7334    1.7193 O   0  0  0  0  0  0  0  0  0  0  0  0
   18.2234   31.9333   -1.5394 N   0  0  0  0  0  0  0  0  0  0  0  0
   16.3192   25.8258   -1.1971 N   0  0  0  0  0  0  0  0  0  0  0  0
  1  2  1  0  0  0  0
  1 39  1  0  0  0  0
  3  4  1  0  0  0  0
  5  6  1  0  0  0  0
  5 40  1  0  0  0  0
  9 10  1  1  0  0  0
  9 14  1  0  0  0  0
  9 35  1  0  0  0  0
 10  1  1  0  0  0  0
 11 16  1  0  0  0  0
 11 28  1  0  0  0  0
 11 26  1  6  0  0  0
 12 17  1  0  0  0  0
 12 34  1  0  0  0  0
 12 13  1  1  0  0  0
 14 15  1  6  0  0  0
 14 19  1  0  0  0  0
 16 13  1  1  0  0  0
 16 21  1  0  0  0  0
 17 18  1  6  0  0  0
 17 23  1  0  0  0  0
 18  8  1  0  0  0  0
 19 20  1  1  0  0  0
 19 25  1  0  0  0  0
 20  5  1  0  0  0  0
 21  3  1  6  0  0  0
 21 22  1  0  0  0  0
 21 27  1  0  0  0  0
 23 24  1  1  0  0  0
 23 29  1  0  0  0  0
 25 26  1  6  0  0  0
 25 31  1  0  0  0  0
 27  7  1  1  0  0  0
 27 28  1  0  0  0  0
 29 30  1  1  0  0  0
 29 33  1  0  0  0  0
 31 32  1  1  0  0  0
 31 35  1  0  0  0  0
 33 34  1  0  0  0  0
 33 37  1  1  0  0  0
 35 36  1  6  0  0  0
 37 38  1  0  0  0  0
M  END
>  <CHROM.1>
-89.55425706,116.64165412,92.18898161,166.43532106,113.29043984,-136.66445474
14.74346347,95.65590943,174.12469437,-134.68698508,-60.00249985,19.10465485
25.34507325,-0.96400165,1.91133359,1.15778132,-0.29925355

>  <Name>
1nta_lig

>  <RI>
1.05895e+07

>  <Rbt.Current_Directory>
/home/itssahil/PROJECTS/Mol_Feturizer/New_Systems/rnas/1nta

>  <Rbt.Executable>
rbdock ($Id: //depot/dev/client3/rdock/2013.1/src/exe/rbdock.cxx#4 $)

>  <Rbt.Library>
libRbt.so (2013.1, Build901 2013/11/27)

>  <Rbt.Parameter_File>
/export/apps/rDock/src/rDock_2013.1_src/data/scripts/dock_solv.prm

>  <Rbt.Receptor>
prm/blind_docking_100.prm

>  <SCORE>
-18.0481

>  <SCORE.INTER>
-8.09414

>  <SCORE.INTER.CONST>
1

>  <SCORE.INTER.POLAR>
0

>  <SCORE.INTER.ROT>
11

>  <SCORE.INTER.SOLV>
14.0836

>  <SCORE.INTER.VDW>
-21.024

>  <SCORE.INTER.norm>
-0.202354

>  <SCORE.INTRA>
-10.3355

>  <SCORE.INTRA.DIHEDRAL>
2.7482

>  <SCORE.INTRA.DIHEDRAL.0>
19.0336

>  <SCORE.INTRA.POLAR>
0

>  <SCORE.INTRA.POLAR.0>
0

>  <SCORE.INTRA.REPUL>
0

>  <SCORE.INTRA.REPUL.0>
0

>  <SCORE.INTRA.SOLV>
1.97331

>  <SCORE.INTRA.SOLV.lig_0>
-97.5861

>  <SCORE.INTRA.VDW>
-12.6962

>  <SCORE.INTRA.VDW.0>
11.7669

>  <SCORE.INTRA.norm>
-0.258387

>  <SCORE.RESTR>
0.381472

>  <SCORE.RESTR.CAVITY>
0.381472

>  <SCORE.RESTR.norm>
0.00953679

>  <SCORE.SYSTEM>
0

>  <SCORE.SYSTEM.CONST>
0

>  <SCORE.SYSTEM.DIHEDRAL>
0

>  <SCORE.SYSTEM.SOLV>
0

>  <SCORE.SYSTEM.norm>
0

>  <SCORE.heavy>
40

>  <SCORE.norm>
-0.451203

>  <RMSD>
20.720

$$$$
1nta_lig
 OpenBabel11021811403D
libRbt.so/2013.1/901 2013/11/27
 40 42  0  0  0  0  0  0  0  0999 V2000
   19.6038   28.7614    5.9207 C   0  0  0  0  0  0  0  0  0  0  0  0
   19.6087   27.8970    6.8656 N   0  0  0  0  0  0  0  0  0  0  0  0
   18.1275   26.6960   -2.8905 C   0  0  0  0  0  0  0  0  0  0  0  0
   18.5691   27.4339   -3.7435 O   0  0  0  0  0  0  0  0  0  0  0  0
   18.2731   29.7890   -0.0689 C   0  0  0  0  0  0  0  0  0  0  0  0
   19.4636   30.3288   -0.1036 N   0  0  0  0  0  0  0  0  0  0  0  0
   21.1407   27.1289   -1.5510 C   0  0  0  0  0  0  0  0  0  0  0  0
   17.8748   21.6880    2.4024 C   0  0  0  0  0  0  0  0  0  0  0  0
   20.2078   28.0591    3.7429 C   0  0  2  0  0  0  0  0  0  0  0  0
   20.6127   28.6786    5.0663 N   0  0  0  0  0  0  0  0  0  0  0  0
   18.5659   25.4250    0.2814 C   0  0  2  0  0  0  0  0  0  0  0  0
   19.0453   23.0950   -0.5629 C   0  0  1  0  0  0  0  0  0  0  0  0
   18.0348   23.7393   -1.2567 O   0  0  0  0  0  0  0  0  0  0  0  0
   19.1929   28.9669    3.0224 C   0  0  1  0  0  0  0  0  0  0  0  0
   19.8432   30.1697    2.7428 O   0  0  0  0  0  0  0  0  0  0  0  0
   18.0762   25.0535   -1.1141 C   0  0  2  0  0  0  0  0  0  0  0  0
   18.6168   21.8727    0.2189 C   0  0  1  0  0  0  0  0  0  0  0  0
   17.5597   22.2409    1.0959 N   0  0  0  0  0  0  0  0  0  0  0  0
   18.7288   28.3767    1.6841 C   0  0  2  0  0  0  0  0  0  0  0  0
   17.7467   29.2229    0.9646 N   0  0  0  0  0  0  0  0  0  0  0  0
   18.9630   25.8694   -1.9501 C   0  0  1  0  0  0  0  0  0  0  0  0
   19.8305   24.9732   -2.6474 O   0  0  0  0  0  0  0  0  0  0  0  0
   18.1700   20.8687   -0.6287 C   0  0  2  0  0  0  0  0  0  0  0  0
   18.0752   19.6863    0.1250 O   0  0  0  0  0  0  0  0  0  0  0  0
   18.1077   27.0164    1.9591 C   0  0  1  0  0  0  0  0  0  0  0  0
   17.6836   26.4739    0.7183 O   0  0  0  0  0  0  0  0  0  0  0  0
   19.7800   26.7216   -1.0772 C   0  0  1  0  0  0  0  0  0  0  0  0
   19.8453   25.9999    0.1466 O   0  0  0  0  0  0  0  0  0  0  0  0
   19.1429   20.6665   -1.7605 C   0  0  1  0  0  0  0  0  0  0  0  0
   18.5592   19.8320   -2.7172 O   0  0  0  0  0  0  0  0  0  0  0  0
   19.1437   26.0821    2.6466 C   0  0  2  0  0  0  0  0  0  0  0  0
   18.5463   24.8090    2.8866 O   0  0  0  0  0  0  0  0  0  0  0  0
   19.4462   21.9765   -2.4044 C   0  0  1  0  0  0  0  0  0  0  0  0
   20.0329   22.8018   -1.4399 O   0  0  0  0  0  0  0  0  0  0  0  0
   19.5767   26.7054    3.9901 C   0  0  1  0  0  0  0  0  0  0  0  0
   20.5344   25.8553    4.6420 O   0  0  0  0  0  0  0  0  0  0  0  0
   20.4564   21.8138   -3.5574 C   0  0  0  0  0  0  0  0  0  0  0  0
   20.8941   23.0999   -3.9809 O   0  0  0  0  0  0  0  0  0  0  0  0
   18.6835   29.6571    5.8073 N   0  0  0  0  0  0  0  0  0  0  0  0
   17.5324   29.8224   -1.1066 N   0  0  0  0  0  0  0  0  0  0  0  0
  1  2  1  0  0  0  0
  1 39  1  0  0  0  0
  3  4  1  0  0  0  0
  5  6  1  0  0  0  0
  5 40  1  0  0  0  0
  9 10  1  1  0  0  0
  9 14  1  0  0  0  0
  9 35  1  0  0  0  0
 10  1  1  0  0  0  0
 11 16  1  0  0  0  0
 11 28  1  0  0  0  0
 11 26  1  6  0  0  0
 12 17  1  0  0  0  0
 12 34  1  0  0  0  0
 12 13  1  6  0  0  0
 14 15  1  6  0  0  0
 14 19  1  0  0  0  0
 16 13  1  6  0  0  0
 16 21  1  0  0  0  0
 17 18  1  1  0  0  0
 17 23  1  0  0  0  0
 18  8  1  0  0  0  0
 19 20  1  1  0  0  0
 19 25  1  0  0  0  0
 20  5  1  0  0  0  0
 21  3  1  6  0  0  0
 21 22  1  0  0  0  0
 21 27  1  0  0  0  0
 23 24  1  1  0  0  0
 23 29  1  0  0  0  0
 25 26  1  6  0  0  0
 25 31  1  0  0  0  0
 27  7  1  6  0  0  0
 27 28  1  0  0  0  0
 29 30  1  6  0  0  0
 29 33  1  0  0  0  0
 31 32  1  1  0  0  0
 31 35  1  0  0  0  0
 33 34  1  0  0  0  0
 33 37  1  6  0  0  0
 35 36  1  6  0  0  0
 37 38  1  0  0  0  0
M  END
>  <CHROM.1>
64.79589368,104.13341627,-174.02223027,135.12828402,-34.19026795,-132.89496998
107.61362235,-41.95785724,-176.96794668,105.44158702,-169.74280785,19.05784941
25.58509459,0.51587867,0.60902776,1.53279061,1.64715731

>  <Name>
1nta_lig

>  <RI>
9.25352e+06

>  <Rbt.Current_Directory>
/home/itssahil/PROJECTS/Mol_Feturizer/New_Systems/rnas/1nta

>  <Rbt.Executable>
rbdock ($Id: //depot/dev/client3/rdock/2013.1/src/exe/rbdock.cxx#4 $)

>  <Rbt.Library>
libRbt.so (2013.1, Build901 2013/11/27)

>  <Rbt.Parameter_File>
/export/apps/rDock/src/rDock_2013.1_src/data/scripts/dock_solv.prm

>  <Rbt.Receptor>
prm/blind_docking_40.prm

>  <SCORE>
-6.55007

>  <SCORE.INTER>
-5.27143

>  <SCORE.INTER.CONST>
1

>  <SCORE.INTER.POLAR>
-0.111162

>  <SCORE.INTER.ROT>
11

>  <SCORE.INTER.SOLV>
9.10292

>  <SCORE.INTER.VDW>
-17.1114

>  <SCORE.INTER.norm>
-0.131786

>  <SCORE.INTRA>
-2.89863

>  <SCORE.INTRA.DIHEDRAL>
0.0908534

>  <SCORE.INTRA.DIHEDRAL.0>
19.0336

>  <SCORE.INTRA.POLAR>
0

>  <SCORE.INTRA.POLAR.0>
0

>  <SCORE.INTRA.REPUL>
0

>  <SCORE.INTRA.REPUL.0>
0

>  <SCORE.INTRA.SOLV>
1.84585

>  <SCORE.INTRA.SOLV.lig_0>
-97.5861

>  <SCORE.INTRA.VDW>
-3.86698

>  <SCORE.INTRA.VDW.0>
11.7669

>  <SCORE.INTRA.norm>
-0.0724657

>  <SCORE.RESTR>
1.61999

>  <SCORE.RESTR.CAVITY>
1.61999

>  <SCORE.RESTR.norm>
0.0404997

>  <SCORE.SYSTEM>
0

>  <SCORE.SYSTEM.CONST>
0

>  <SCORE.SYSTEM.DIHEDRAL>
0

>  <SCORE.SYSTEM.SOLV>
0

>  <SCORE.SYSTEM.norm>
0

>  <SCORE.heavy>
40

>  <SCORE.norm>
-0.163752

>  <RMSD>
20.745

$$$$
1nta_lig
 OpenBabel11021811403D
libRbt.so/2013.1/901 2013/11/27
 40 42  0  0  0  0  0  0  0  0999 V2000
   17.9779   17.9358   -2.5697 C   0  0  0  0  0  0  0  0  0  0  0  0
   18.4664   17.5832   -3.6998 N   0  0  0  0  0  0  0  0  0  0  0  0
   18.2798   27.7761   -2.4174 C   0  0  0  0  0  0  0  0  0  0  0  0
   19.2442   27.4643   -3.0807 O   0  0  0  0  0  0  0  0  0  0  0  0
   21.4297   22.8282   -3.4959 C   0  0  0  0  0  0  0  0  0  0  0  0
   22.0924   23.5547   -2.6340 N   0  0  0  0  0  0  0  0  0  0  0  0
   15.5695   25.9551   -3.0498 C   0  0  0  0  0  0  0  0  0  0  0  0
   22.1659   27.1554    0.2550 C   0  0  0  0  0  0  0  0  0  0  0  0
   18.4906   20.1411   -1.8812 C   0  0  2  0  0  0  0  0  0  0  0  0
   18.7810   18.6551   -1.8002 N   0  0  0  0  0  0  0  0  0  0  0  0
   18.0830   24.7468   -0.7886 C   0  0  2  0  0  0  0  0  0  0  0  0
   19.2168   26.1464    1.5137 C   0  0  1  0  0  0  0  0  0  0  0  0
   18.1484   26.5355    0.7232 O   0  0  0  0  0  0  0  0  0  0  0  0
   19.4889   20.8240   -2.8351 C   0  0  1  0  0  0  0  0  0  0  0  0
   19.2791   20.2843   -4.1050 O   0  0  0  0  0  0  0  0  0  0  0  0
   18.3221   26.2342   -0.5528 C   0  0  2  0  0  0  0  0  0  0  0  0
   20.3239   27.1678    1.6548 C   0  0  1  0  0  0  0  0  0  0  0  0
   20.7680   27.5399    0.3562 N   0  0  0  0  0  0  0  0  0  0  0  0
   19.2565   22.3373   -2.9380 C   0  0  2  0  0  0  0  0  0  0  0  0
   20.2036   23.0286   -3.8453 N   0  0  0  0  0  0  0  0  0  0  0  0
   17.4632   26.8244   -1.5847 C   0  0  1  0  0  0  0  0  0  0  0  0
   16.3872   27.4835   -0.9140 O   0  0  0  0  0  0  0  0  0  0  0  0
   19.8768   28.3008    2.3200 C   0  0  2  0  0  0  0  0  0  0  0  0
   21.0054   29.0605    2.6727 O   0  0  0  0  0  0  0  0  0  0  0  0
   19.3808   22.9291   -1.5429 C   0  0  1  0  0  0  0  0  0  0  0  0
   19.1616   24.3275   -1.6433 O   0  0  0  0  0  0  0  0  0  0  0  0
   16.9054   25.7438   -2.4073 C   0  0  1  0  0  0  0  0  0  0  0  0
   16.8968   24.6180   -1.5382 O   0  0  0  0  0  0  0  0  0  0  0  0
   19.1220   27.9144    3.5647 C   0  0  1  0  0  0  0  0  0  0  0  0
   18.4840   29.0464    4.0785 O   0  0  0  0  0  0  0  0  0  0  0  0
   18.3438   22.2734   -0.5871 C   0  0  2  0  0  0  0  0  0  0  0  0
   18.4689   22.8484    0.7126 O   0  0  0  0  0  0  0  0  0  0  0  0
   18.0807   26.9019    3.2288 C   0  0  1  0  0  0  0  0  0  0  0  0
   18.7299   25.7729    2.7195 O   0  0  0  0  0  0  0  0  0  0  0  0
   18.6174   20.7571   -0.5040 C   0  0  1  0  0  0  0  0  0  0  0  0
   17.6689   20.1324    0.3764 O   0  0  0  0  0  0  0  0  0  0  0  0
   17.2982   26.4652    4.4831 C   0  0  0  0  0  0  0  0  0  0  0  0
   18.2019   25.8970    5.4241 O   0  0  0  0  0  0  0  0  0  0  0  0
   16.7866   17.6105   -2.1993 N   0  0  0  0  0  0  0  0  0  0  0  0
   22.0076   21.8510   -4.0769 N   0  0  0  0  0  0  0  0  0  0  0  0
  1  2  1  0  0  0  0
  1 39  1  0  0  0  0
  3  4  1  0  0  0  0
  5  6  1  0  0  0  0
  5 40  1  0  0  0  0
  9 10  1  1  0  0  0
  9 14  1  0  0  0  0
  9 35  1  0  0  0  0
 10  1  1  0  0  0  0
 11 16  1  0  0  0  0
 11 28  1  0  0  0  0
 11 26  1  6  0  0  0
 12 17  1  0  0  0  0
 12 34  1  0  0  0  0
 12 13  1  6  0  0  0
 14 15  1  6  0  0  0
 14 19  1  0  0  0  0
 16 13  1  1  0  0  0
 16 21  1  0  0  0  0
 17 18  1  6  0  0  0
 17 23  1  0  0  0  0
 18  8  1  0  0  0  0
 19 20  1  6  0  0  0
 19 25  1  0  0  0  0
 20  5  1  0  0  0  0
 21  3  1  6  0  0  0
 21 22  1  0  0  0  0
 21 27  1  0  0  0  0
 23 24  1  1  0  0  0
 23 29  1  0  0  0  0
 25 26  1  6  0  0  0
 25 31  1  0  0  0  0
 27  7  1  1  0  0  0
 27 28  1  0  0  0  0
 29 30  1  6  0  0  0
 29 33  1  0  0  0  0
 31 32  1  1  0  0  0
 31 35  1  0  0  0  0
 33 34  1  0  0  0  0
 33 37  1  1  0  0  0
 35 36  1  1  0  0  0
 37 38  1  0  0  0  0
M  END
>  <CHROM.1>
-99.40854177,98.96979368,157.58063696,88.80569236,76.61626364,-117.95808241
-56.90668153,-87.57520408,61.40895206,123.24747455,-59.91151192,18.84841568
24.31765813,-0.52384009,1.61566587,-1.27381111,-2.51872884

>  <Name>
1nta_lig

>  <RI>
2.40834e+07

>  <Rbt.Current_Directory>
/home/itssahil/PROJECTS/Mol_Feturizer/New_Systems/rnas/1nta

>  <Rbt.Executable>
rbdock ($Id: //depot/dev/client3/rdock/2013.1/src/exe/rbdock.cxx#4 $)

>  <Rbt.Library>
libRbt.so (2013.1, Build901 2013/11/27)

>  <Rbt.Parameter_File>
/export/apps/rDock/src/rDock_2013.1_src/data/scripts/dock_solv.prm

>  <Rbt.Receptor>
prm/blind_docking_80.prm

>  <SCORE>
-18.6702

>  <SCORE.INTER>
-10.342

>  <SCORE.INTER.CONST>
1

>  <SCORE.INTER.POLAR>
0

>  <SCORE.INTER.ROT>
11

>  <SCORE.INTER.SOLV>
11.1557

>  <SCORE.INTER.VDW>
-21.5466

>  <SCORE.INTER.norm>
-0.258551

>  <SCORE.INTRA>
-8.42194

>  <SCORE.INTRA.DIHEDRAL>
-1.72346

>  <SCORE.INTRA.DIHEDRAL.0>
19.0336

>  <SCORE.INTRA.POLAR>
0

>  <SCORE.INTRA.POLAR.0>
0

>  <SCORE.INTRA.REPUL>
0

>  <SCORE.INTRA.REPUL.0>
0

>  <SCORE.INTRA.SOLV>
-2.05659

>  <SCORE.INTRA.SOLV.lig_0>
-97.5861

>  <SCORE.INTRA.VDW>
-6.53192

>  <SCORE.INTRA.VDW.0>
11.7669

>  <SCORE.INTRA.norm>
-0.210549

>  <SCORE.RESTR>
0.0937902

>  <SCORE.RESTR.CAVITY>
0.0937902

>  <SCORE.RESTR.norm>
0.00234475

>  <SCORE.SYSTEM>
0

>  <SCORE.SYSTEM.CONST>
0

>  <SCORE.SYSTEM.DIHEDRAL>
0

>  <SCORE.SYSTEM.SOLV>
0

>  <SCORE.SYSTEM.norm>
0

>  <SCORE.heavy>
40

>  <SCORE.norm>
-0.466755

>  <RMSD>
20.747

$$$$
1nta_lig
 OpenBabel11021811403D
libRbt.so/2013.1/901 2013/11/27
 40 42  0  0  0  0  0  0  0  0999 V2000
   18.5589   32.3332   -1.4367 C   0  0  0  0  0  0  0  0  0  0  0  0
   19.0119   33.2913   -0.7176 N   0  0  0  0  0  0  0  0  0  0  0  0
   20.0375   23.3417    0.6964 C   0  0  0  0  0  0  0  0  0  0  0  0
   20.0133   23.9841    1.7231 O   0  0  0  0  0  0  0  0  0  0  0  0
   19.2825   27.7501    2.8339 C   0  0  0  0  0  0  0  0  0  0  0  0
   18.1815   27.7650    3.5393 N   0  0  0  0  0  0  0  0  0  0  0  0
   17.0377   21.9117    0.8283 C   0  0  0  0  0  0  0  0  0  0  0  0
   21.8058   26.4370   -0.3900 C   0  0  0  0  0  0  0  0  0  0  0  0
   18.5072   30.0240   -0.9215 C   0  0  2  0  0  0  0  0  0  0  0  0
   19.2823   31.2236   -1.4305 N   0  0  0  0  0  0  0  0  0  0  0  0
   17.5254   24.9418   -1.0348 C   0  0  2  0  0  0  0  0  0  0  0  0
   20.2209   25.1522   -2.8826 C   0  0  1  0  0  0  0  0  0  0  0  0
   19.2531   24.2561   -2.4608 O   0  0  0  0  0  0  0  0  0  0  0  0
   19.3450   29.2550    0.1175 C   0  0  1  0  0  0  0  0  0  0  0  0
   19.5490   30.1140    1.1985 O   0  0  0  0  0  0  0  0  0  0  0  0
   18.9442   24.4033   -1.1833 C   0  0  2  0  0  0  0  0  0  0  0  0
   21.5662   25.0201   -2.2032 C   0  0  1  0  0  0  0  0  0  0  0  0
   21.3764   25.1095   -0.7967 N   0  0  0  0  0  0  0  0  0  0  0  0
   18.6173   28.0139    0.6514 C   0  0  2  0  0  0  0  0  0  0  0  0
   19.3973   27.2459    1.6514 N   0  0  0  0  0  0  0  0  0  0  0  0
   18.9009   23.2444   -0.2855 C   0  0  1  0  0  0  0  0  0  0  0  0
   18.9923   22.0739   -1.1002 O   0  0  0  0  0  0  0  0  0  0  0  0
   22.1592   23.8013   -2.5012 C   0  0  2  0  0  0  0  0  0  0  0  0
   23.5021   23.8700   -2.0927 O   0  0  0  0  0  0  0  0  0  0  0  0
   18.2958   27.1118   -0.5296 C   0  0  1  0  0  0  0  0  0  0  0  0
   17.6201   25.9679   -0.0309 O   0  0  0  0  0  0  0  0  0  0  0  0
   17.6042   23.2308    0.4031 C   0  0  1  0  0  0  0  0  0  0  0  0
   16.7321   23.9124   -0.4902 O   0  0  0  0  0  0  0  0  0  0  0  0
   22.0975   23.5366   -3.9827 C   0  0  1  0  0  0  0  0  0  0  0  0
   22.4776   22.2138   -4.2237 O   0  0  0  0  0  0  0  0  0  0  0  0
   17.4125   27.8708   -1.5603 C   0  0  2  0  0  0  0  0  0  0  0  0
   17.1131   27.0057   -2.6546 O   0  0  0  0  0  0  0  0  0  0  0  0
   20.7001   23.7184   -4.4693 C   0  0  1  0  0  0  0  0  0  0  0  0
   20.3317   25.0453   -4.2268 O   0  0  0  0  0  0  0  0  0  0  0  0
   18.1824   29.1035   -2.0787 C   0  0  1  0  0  0  0  0  0  0  0  0
   17.3822   29.8186   -3.0343 O   0  0  0  0  0  0  0  0  0  0  0  0
   20.5995   23.4754   -5.9882 C   0  0  0  0  0  0  0  0  0  0  0  0
   21.3620   24.4635   -6.6717 O   0  0  0  0  0  0  0  0  0  0  0  0
   17.4746   32.4387   -2.1261 N   0  0  0  0  0  0  0  0  0  0  0  0
   20.3417   28.2839    3.3024 N   0  0  0  0  0  0  0  0  0  0  0  0
  1  2  1  0  0  0  0
  1 39  1  0  0  0  0
  3  4  1  0  0  0  0
  5  6  1  0  0  0  0
  5 40  1  0  0  0  0
  9 10  1  6  0  0  0
  9 14  1  0  0  0  0
  9 35  1  0  0  0  0
 10  1  1  0  0  0  0
 11 16  1  0  0  0  0
 11 28  1  0  0  0  0
 11 26  1  1  0  0  0
 12 17  1  0  0  0  0
 12 34  1  0  0  0  0
 12 13  1  1  0  0  0
 14 15  1  1  0  0  0
 14 19  1  0  0  0  0
 16 13  1  6  0  0  0
 16 21  1  0  0  0  0
 17 18  1  1  0  0  0
 17 23  1  0  0  0  0
 18  8  1  0  0  0  0
 19 20  1  1  0  0  0
 19 25  1  0  0  0  0
 20  5  1  0  0  0  0
 21  3  1  1  0  0  0
 21 22  1  0  0  0  0
 21 27  1  0  0  0  0
 23 24  1  6  0  0  0
 23 29  1  0  0  0  0
 25 26  1  1  0  0  0
 25 31  1  0  0  0  0
 27  7  1  6  0  0  0
 27 28  1  0  0  0  0
 29 30  1  1  0  0  0
 29 33  1  0  0  0  0
 31 32  1  6  0  0  0
 31 35  1  0  0  0  0
 33 34  1  0  0  0  0
 33 37  1  6  0  0  0
 35 36  1  6  0  0  0
 37 38  1  0  0  0  0
M  END
>  <CHROM.1>
-132.55031269,120.14592340,71.49299745,62.77688156,111.46601434,-103.69513231
82.97080951,67.07325718,83.62273489,-168.06326597,-64.38361121,19.42924011
26.24402931,-1.19382205,-2.44601316,-1.21004993,2.66991014

>  <Name>
1nta_lig

>  <RI>
1.05895e+07

>  <Rbt.Current_Directory>
/home/itssahil/PROJECTS/Mol_Feturizer/New_Systems/rnas/1nta

>  <Rbt.Executable>
rbdock ($Id: //depot/dev/client3/rdock/2013.1/src/exe/rbdock.cxx#4 $)

>  <Rbt.Library>
libRbt.so (2013.1, Build901 2013/11/27)

>  <Rbt.Parameter_File>
/export/apps/rDock/src/rDock_2013.1_src/data/scripts/dock_solv.prm

>  <Rbt.Receptor>
prm/blind_docking_100.prm

>  <SCORE>
-34.6584

>  <SCORE.INTER>
-17.2731

>  <SCORE.INTER.CONST>
1

>  <SCORE.INTER.POLAR>
-1.91533

>  <SCORE.INTER.ROT>
11

>  <SCORE.INTER.SOLV>
13.7264

>  <SCORE.INTER.VDW>
-20.6398

>  <SCORE.INTER.norm>
-0.431828

>  <SCORE.INTRA>
-18.1202

>  <SCORE.INTRA.DIHEDRAL>
-5.3063

>  <SCORE.INTRA.DIHEDRAL.0>
19.0336

>  <SCORE.INTRA.POLAR>
0

>  <SCORE.INTRA.POLAR.0>
0

>  <SCORE.INTRA.REPUL>
0.0141887

>  <SCORE.INTRA.REPUL.0>
0

>  <SCORE.INTRA.SOLV>
-1.02123

>  <SCORE.INTRA.SOLV.lig_0>
-97.5861

>  <SCORE.INTRA.VDW>
-15.0274

>  <SCORE.INTRA.VDW.0>
11.7669

>  <SCORE.INTRA.norm>
-0.453005

>  <SCORE.RESTR>
0.734989

>  <SCORE.RESTR.CAVITY>
0.734989

>  <SCORE.RESTR.norm>
0.0183747

>  <SCORE.SYSTEM>
0

>  <SCORE.SYSTEM.CONST>
0

>  <SCORE.SYSTEM.DIHEDRAL>
0

>  <SCORE.SYSTEM.SOLV>
0

>  <SCORE.SYSTEM.norm>
0

>  <SCORE.heavy>
40

>  <SCORE.norm>
-0.866459

>  <RMSD>
20.780

$$$$
1nta_lig
 OpenBabel11021811403D
libRbt.so/2013.1/901 2013/11/27
 40 42  0  0  0  0  0  0  0  0999 V2000
   19.1621   31.3854   -1.1206 C   0  0  0  0  0  0  0  0  0  0  0  0
   18.0665   32.0212   -1.3095 N   0  0  0  0  0  0  0  0  0  0  0  0
   19.9499   23.2959    1.4269 C   0  0  0  0  0  0  0  0  0  0  0  0
   19.9942   23.0572    2.6136 O   0  0  0  0  0  0  0  0  0  0  0  0
   18.6366   26.8384    2.8477 C   0  0  0  0  0  0  0  0  0  0  0  0
   18.4571   28.0530    3.2974 N   0  0  0  0  0  0  0  0  0  0  0  0
   17.2051   21.4703    1.8682 C   0  0  0  0  0  0  0  0  0  0  0  0
   21.1929   20.3551   -3.6349 C   0  0  0  0  0  0  0  0  0  0  0  0
   18.3980   29.1457   -1.1347 C   0  0  2  0  0  0  0  0  0  0  0  0
   19.2650   30.2256   -1.7521 N   0  0  0  0  0  0  0  0  0  0  0  0
   17.2896   24.0491   -0.6283 C   0  0  2  0  0  0  0  0  0  0  0  0
   20.5184   23.1098   -1.9419 C   0  0  1  0  0  0  0  0  0  0  0  0
   19.1571   23.3491   -1.8577 O   0  0  0  0  0  0  0  0  0  0  0  0
   19.1803   28.4040   -0.0342 C   0  0  1  0  0  0  0  0  0  0  0  0
   19.4677   29.3354    0.9647 O   0  0  0  0  0  0  0  0  0  0  0  0
   18.7794   23.7249   -0.6472 C   0  0  2  0  0  0  0  0  0  0  0  0
   21.0105   22.6358   -3.2916 C   0  0  1  0  0  0  0  0  0  0  0  0
   20.2722   21.4791   -3.6647 N   0  0  0  0  0  0  0  0  0  0  0  0
   18.3574   27.2811    0.6113 C   0  0  2  0  0  0  0  0  0  0  0  0
   19.0817   26.5421    1.6730 N   0  0  0  0  0  0  0  0  0  0  0  0
   18.8812   22.8026    0.4885 C   0  0  1  0  0  0  0  0  0  0  0  0
   19.1848   21.5106   -0.0411 O   0  0  0  0  0  0  0  0  0  0  0  0
   20.8343   23.6144   -4.2598 C   0  0  2  0  0  0  0  0  0  0  0  0
   21.5698   23.2289   -5.3936 O   0  0  0  0  0  0  0  0  0  0  0  0
   17.9481   26.3080   -0.4829 C   0  0  1  0  0  0  0  0  0  0  0  0
   17.1848   25.2741    0.1188 O   0  0  0  0  0  0  0  0  0  0  0  0
   17.5765   22.7352    1.1584 C   0  0  1  0  0  0  0  0  0  0  0  0
   16.6448   23.0531    0.1318 O   0  0  0  0  0  0  0  0  0  0  0  0
   21.3397   24.9426   -3.7606 C   0  0  1  0  0  0  0  0  0  0  0  0
   20.9351   25.9443   -4.6468 O   0  0  0  0  0  0  0  0  0  0  0  0
   17.1198   27.0442   -1.5741 C   0  0  2  0  0  0  0  0  0  0  0  0
   16.7367   26.1137   -2.5853 O   0  0  0  0  0  0  0  0  0  0  0  0
   20.7509   25.2353   -2.4226 C   0  0  1  0  0  0  0  0  0  0  0  0
   21.1648   24.2297   -1.5436 O   0  0  0  0  0  0  0  0  0  0  0  0
   17.9842   28.1566   -2.2037 C   0  0  1  0  0  0  0  0  0  0  0  0
   17.2359   28.8489   -3.2164 O   0  0  0  0  0  0  0  0  0  0  0  0
   21.2607   26.5801   -1.8679 C   0  0  0  0  0  0  0  0  0  0  0  0
   20.5499   27.6433   -2.4919 O   0  0  0  0  0  0  0  0  0  0  0  0
   20.1025   31.8376   -0.3634 N   0  0  0  0  0  0  0  0  0  0  0  0
   18.3874   25.8408    3.6021 N   0  0  0  0  0  0  0  0  0  0  0  0
  1  2  1  0  0  0  0
  1 39  1  0  0  0  0
  3  4  1  0  0  0  0
  5  6  1  0  0  0  0
  5 40  1  0  0  0  0
  9 10  1  6  0  0  0
  9 14  1  0  0  0  0
  9 35  1  0  0  0  0
 10  1  1  0  0  0  0
 11 16  1  0  0  0  0
 11 28  1  0  0  0  0
 11 26  1  1  0  0  0
 12 17  1  0  0  0  0
 12 34  1  0  0  0  0
 12 13  1  6  0  0  0
 14 15  1  1  0  0  0
 14 19  1  0  0  0  0
 16 13  1  6  0  0  0
 16 21  1  0  0  0  0
 17 18  1  6  0  0  0
 17 23  1  0  0  0  0
 18  8  1  0  0  0  0
 19 20  1  1  0  0  0
 19 25  1  0  0  0  0
 20  5  1  0  0  0  0
 21  3  1  1  0  0  0
 21 22  1  0  0  0  0
 21 27  1  0  0  0  0
 23 24  1  6  0  0  0
 23 29  1  0  0  0  0
 25 26  1  1  0  0  0
 25 31  1  0  0  0  0
 27  7  1  6  0  0  0
 27 28  1  0  0  0  0
 29 30  1  6  0  0  0
 29 33  1  0  0  0  0
 31 32  1  6  0  0  0
 31 35  1  0  0  0  0
 33 34  1  0  0  0  0
 33 37  1  1  0  0  0
 35 36  1  6  0  0  0
 37 38  1  0  0  0  0
M  END
>  <CHROM.1>
-89.22054377,-73.14657237,58.60514633,178.25148775,176.87574085,-111.76875868
107.15331378,-49.40097922,154.29886116,-152.65547968,78.91585287,19.17448467
25.63102348,-0.94835636,-1.96736075,-1.17553179,2.94863499

>  <Name>
1nta_lig

>  <RI>
1.05895e+07

>  <Rbt.Current_Directory>
/home/itssahil/PROJECTS/Mol_Feturizer/New_Systems/rnas/1nta

>  <Rbt.Executable>
rbdock ($Id: //depot/dev/client3/rdock/2013.1/src/exe/rbdock.cxx#4 $)

>  <Rbt.Library>
libRbt.so (2013.1, Build901 2013/11/27)

>  <Rbt.Parameter_File>
/export/apps/rDock/src/rDock_2013.1_src/data/scripts/dock_solv.prm

>  <Rbt.Receptor>
prm/blind_docking_100.prm

>  <SCORE>
-28.5263

>  <SCORE.INTER>
-8.67383

>  <SCORE.INTER.CONST>
1

>  <SCORE.INTER.POLAR>
-1.23759

>  <SCORE.INTER.ROT>
11

>  <SCORE.INTER.SOLV>
15.2829

>  <SCORE.INTER.VDW>
-17.6849

>  <SCORE.INTER.norm>
-0.216846

>  <SCORE.INTRA>
-20.1796

>  <SCORE.INTRA.DIHEDRAL>
-8.09616

>  <SCORE.INTRA.DIHEDRAL.0>
19.0336

>  <SCORE.INTRA.POLAR>
0

>  <SCORE.INTRA.POLAR.0>
0

>  <SCORE.INTRA.REPUL>
0.00575859

>  <SCORE.INTRA.REPUL.0>
0

>  <SCORE.INTRA.SOLV>
-0.0841272

>  <SCORE.INTRA.SOLV.lig_0>
-97.5861

>  <SCORE.INTRA.VDW>
-16.1183

>  <SCORE.INTRA.VDW.0>
11.7669

>  <SCORE.INTRA.norm>
-0.504491

>  <SCORE.RESTR>
0.327157

>  <SCORE.RESTR.CAVITY>
0.327157

>  <SCORE.RESTR.norm>
0.00817894

>  <SCORE.SYSTEM>
0

>  <SCORE.SYSTEM.CONST>
0

>  <SCORE.SYSTEM.DIHEDRAL>
0

>  <SCORE.SYSTEM.SOLV>
0

>  <SCORE.SYSTEM.norm>
0

>  <SCORE.heavy>
40

>  <SCORE.norm>
-0.713157

>  <RMSD>
20.786

$$$$
1nta_lig
 OpenBabel11021811403D
libRbt.so/2013.1/901 2013/11/27
 40 42  0  0  0  0  0  0  0  0999 V2000
   19.1875   18.3559   -2.3716 C   0  0  0  0  0  0  0  0  0  0  0  0
   18.3673   17.8566   -1.5243 N   0  0  0  0  0  0  0  0  0  0  0  0
   17.4103   28.2659   -3.0005 C   0  0  0  0  0  0  0  0  0  0  0  0
   18.0096   27.7987   -3.9439 O   0  0  0  0  0  0  0  0  0  0  0  0
   21.1158   23.7238   -4.8233 C   0  0  0  0  0  0  0  0  0  0  0  0
   20.3472   23.4114   -5.8340 N   0  0  0  0  0  0  0  0  0  0  0  0
   14.7254   26.6312   -1.9141 C   0  0  0  0  0  0  0  0  0  0  0  0
   21.2511   30.4476   -0.4388 C   0  0  0  0  0  0  0  0  0  0  0  0
   19.2497   20.7191   -2.2621 C   0  0  2  0  0  0  0  0  0  0  0  0
   19.8978   19.3869   -1.9390 N   0  0  0  0  0  0  0  0  0  0  0  0
   18.0165   25.5427   -0.9794 C   0  0  2  0  0  0  0  0  0  0  0  0
   20.2167   27.5436    0.0008 C   0  0  1  0  0  0  0  0  0  0  0  0
   18.8324   27.5216   -0.0268 O   0  0  0  0  0  0  0  0  0  0  0  0
   20.3040   21.7025   -2.8046 C   0  0  1  0  0  0  0  0  0  0  0  0
   20.7877   21.1686   -4.0000 O   0  0  0  0  0  0  0  0  0  0  0  0
   18.3528   27.0199   -1.1526 C   0  0  2  0  0  0  0  0  0  0  0  0
   20.8302   28.6018    0.8911 C   0  0  1  0  0  0  0  0  0  0  0  0
   20.3142   29.8712    0.5111 N   0  0  0  0  0  0  0  0  0  0  0  0
   19.7073   23.0789   -3.1275 C   0  0  2  0  0  0  0  0  0  0  0  0
   20.6960   24.0533   -3.6482 N   0  0  0  0  0  0  0  0  0  0  0  0
   17.1019   27.5281   -1.7253 C   0  0  1  0  0  0  0  0  0  0  0  0
   16.5011   28.3763   -0.7447 O   0  0  0  0  0  0  0  0  0  0  0  0
   20.5237   28.3718    2.2250 C   0  0  2  0  0  0  0  0  0  0  0  0
   21.3540   29.1983    3.0011 O   0  0  0  0  0  0  0  0  0  0  0  0
   19.0841   23.6323   -1.8558 C   0  0  1  0  0  0  0  0  0  0  0  0
   18.5310   24.9031   -2.1608 O   0  0  0  0  0  0  0  0  0  0  0  0
   16.2026   26.3941   -1.9723 C   0  0  1  0  0  0  0  0  0  0  0  0
   16.6140   25.4151   -1.0261 O   0  0  0  0  0  0  0  0  0  0  0  0
   20.7764   26.9300    2.5799 C   0  0  1  0  0  0  0  0  0  0  0  0
   20.2382   26.6725    3.8434 O   0  0  0  0  0  0  0  0  0  0  0  0
   17.9876   22.6633   -1.3293 C   0  0  2  0  0  0  0  0  0  0  0  0
   17.4082   23.2042   -0.1431 O   0  0  0  0  0  0  0  0  0  0  0  0
   20.0992   26.0418    1.5926 C   0  0  1  0  0  0  0  0  0  0  0  0
   20.6476   26.3049    0.3334 O   0  0  0  0  0  0  0  0  0  0  0  0
   18.6289   21.2970   -1.0081 C   0  0  1  0  0  0  0  0  0  0  0  0
   17.6306   20.3867   -0.5186 O   0  0  0  0  0  0  0  0  0  0  0  0
   20.3516   24.5547    1.9109 C   0  0  0  0  0  0  0  0  0  0  0  0
   19.8306   23.7552    0.8553 O   0  0  0  0  0  0  0  0  0  0  0  0
   19.3135   17.8927   -3.5682 N   0  0  0  0  0  0  0  0  0  0  0  0
   22.3835   23.6912   -4.9583 N   0  0  0  0  0  0  0  0  0  0  0  0
  1  2  1  0  0  0  0
  1 39  1  0  0  0  0
  3  4  1  0  0  0  0
  5  6  1  0  0  0  0
  5 40  1  0  0  0  0
  9 10  1  1  0  0  0
  9 14  1  0  0  0  0
  9 35  1  0  0  0  0
 10  1  1  0  0  0  0
 11 16  1  0  0  0  0
 11 28  1  0  0  0  0
 11 26  1  6  0  0  0
 12 17  1  0  0  0  0
 12 34  1  0  0  0  0
 12 13  1  1  0  0  0
 14 15  1  6  0  0  0
 14 19  1  0  0  0  0
 16 13  1  1  0  0  0
 16 21  1  0  0  0  0
 17 18  1  6  0  0  0
 17 23  1  0  0  0  0
 18  8  1  0  0  0  0
 19 20  1  1  0  0  0
 19 25  1  0  0  0  0
 20  5  1  0  0  0  0
 21  3  1  6  0  0  0
 21 22  1  0  0  0  0
 21 27  1  0  0  0  0
 23 24  1  1  0  0  0
 23 29  1  0  0  0  0
 25 26  1  6  0  0  0
 25 31  1  0  0  0  0
 27  7  1  1  0  0  0
 27 28  1  0  0  0  0
 29 30  1  1  0  0  0
 29 33  1  0  0  0  0
 31 32  1  1  0  0  0
 31 35  1  0  0  0  0
 33 34  1  0  0  0  0
 33 37  1  1  0  0  0
 35 36  1  6  0  0  0
 37 38  1  0  0  0  0
M  END
>  <CHROM.1>
-135.34908341,-93.02231044,142.28050757,153.81247011,96.53415625,-93.78828728
68.40123027,50.03357214,55.61062998,-175.26946683,-172.79880752,19.20392688
24.78659329,-1.14505184,-1.63839109,-1.22996097,0.34322520

>  <Name>
1nta_lig

>  <RI>
1.05895e+07

>  <Rbt.Current_Directory>
/home/itssahil/PROJECTS/Mol_Feturizer/New_Systems/rnas/1nta

>  <Rbt.Executable>
rbdock ($Id: //depot/dev/client3/rdock/2013.1/src/exe/rbdock.cxx#4 $)

>  <Rbt.Library>
libRbt.so (2013.1, Build901 2013/11/27)

>  <Rbt.Parameter_File>
/export/apps/rDock/src/rDock_2013.1_src/data/scripts/dock_solv.prm

>  <Rbt.Receptor>
prm/blind_docking_100.prm

>  <SCORE>
-28.4973

>  <SCORE.INTER>
-11.6208

>  <SCORE.INTER.CONST>
1

>  <SCORE.INTER.POLAR>
-0.853776

>  <SCORE.INTER.ROT>
11

>  <SCORE.INTER.SOLV>
16.0173

>  <SCORE.INTER.VDW>
-21.1737

>  <SCORE.INTER.norm>
-0.290521

>  <SCORE.INTRA>
-17.7472

>  <SCORE.INTRA.DIHEDRAL>
-2.83122

>  <SCORE.INTRA.DIHEDRAL.0>
19.0336

>  <SCORE.INTRA.POLAR>
0

>  <SCORE.INTRA.POLAR.0>
0

>  <SCORE.INTRA.REPUL>
0

>  <SCORE.INTRA.REPUL.0>
0

>  <SCORE.INTRA.SOLV>
-3.48153

>  <SCORE.INTRA.SOLV.lig_0>
-97.5861

>  <SCORE.INTRA.VDW>
-14.5908

>  <SCORE.INTRA.VDW.0>
11.7669

>  <SCORE.INTRA.norm>
-0.44368

>  <SCORE.RESTR>
0.870701

>  <SCORE.RESTR.CAVITY>
0.870701

>  <SCORE.RESTR.norm>
0.0217675

>  <SCORE.SYSTEM>
0

>  <SCORE.SYSTEM.CONST>
0

>  <SCORE.SYSTEM.DIHEDRAL>
0

>  <SCORE.SYSTEM.SOLV>
0

>  <SCORE.SYSTEM.norm>
0

>  <SCORE.heavy>
40

>  <SCORE.norm>
-0.712433

>  <RMSD>
20.812

$$$$
1nta_lig
 OpenBabel11021811403D
libRbt.so/2013.1/901 2013/11/27
 40 42  0  0  0  0  0  0  0  0999 V2000
   18.6492   33.5352   -0.5015 C   0  0  0  0  0  0  0  0  0  0  0  0
   17.4677   33.8266   -0.9004 N   0  0  0  0  0  0  0  0  0  0  0  0
   21.9932   24.6201   -0.1380 C   0  0  0  0  0  0  0  0  0  0  0  0
   22.5707   25.4866   -0.7568 O   0  0  0  0  0  0  0  0  0  0  0  0
   16.8893   27.3054   -2.2872 C   0  0  0  0  0  0  0  0  0  0  0  0
   17.7938   27.3019   -3.2315 N   0  0  0  0  0  0  0  0  0  0  0  0
   20.3605   25.6691    2.5630 C   0  0  0  0  0  0  0  0  0  0  0  0
   18.3425   20.2095    0.1378 C   0  0  0  0  0  0  0  0  0  0  0  0
   19.0480   31.2025   -0.5061 C   0  0  2  0  0  0  0  0  0  0  0  0
   18.7421   32.4658    0.2746 N   0  0  0  0  0  0  0  0  0  0  0  0
   18.8664   25.9571   -0.6890 C   0  0  2  0  0  0  0  0  0  0  0  0
   19.7007   22.5445   -1.5057 C   0  0  1  0  0  0  0  0  0  0  0  0
   18.9806   23.7203   -1.3767 O   0  0  0  0  0  0  0  0  0  0  0  0
   17.8384   30.2494   -0.4652 C   0  0  1  0  0  0  0  0  0  0  0  0
   16.7827   30.8969   -1.1088 O   0  0  0  0  0  0  0  0  0  0  0  0
   19.7316   24.7382   -0.9905 C   0  0  2  0  0  0  0  0  0  0  0  0
   18.8799   21.3139   -1.8229 C   0  0  1  0  0  0  0  0  0  0  0  0
   17.8652   21.1768   -0.8361 N   0  0  0  0  0  0  0  0  0  0  0  0
   18.1006   28.9404   -1.2217 C   0  0  2  0  0  0  0  0  0  0  0  0
   16.9578   27.9961   -1.1991 N   0  0  0  0  0  0  0  0  0  0  0  0
   20.5349   24.6535    0.2336 C   0  0  1  0  0  0  0  0  0  0  0  0
   20.1288   23.4710    0.9256 O   0  0  0  0  0  0  0  0  0  0  0  0
   18.2830   21.4192   -3.0714 C   0  0  2  0  0  0  0  0  0  0  0  0
   17.7956   20.1477   -3.4189 O   0  0  0  0  0  0  0  0  0  0  0  0
   19.3137   28.2698   -0.5968 C   0  0  1  0  0  0  0  0  0  0  0  0
   19.5538   27.0621   -1.3021 O   0  0  0  0  0  0  0  0  0  0  0  0
   20.2289   25.8145    1.0786 C   0  0  1  0  0  0  0  0  0  0  0  0
   18.9056   26.1756    0.7025 O   0  0  0  0  0  0  0  0  0  0  0  0
   19.2896   21.8693   -4.0974 C   0  0  1  0  0  0  0  0  0  0  0  0
   18.6186   22.1969   -5.2784 O   0  0  0  0  0  0  0  0  0  0  0  0
   20.5486   29.2119   -0.6762 C   0  0  2  0  0  0  0  0  0  0  0  0
   21.6777   28.5619   -0.0950 O   0  0  0  0  0  0  0  0  0  0  0  0
   19.9980   23.0865   -3.6083 C   0  0  1  0  0  0  0  0  0  0  0  0
   20.6686   22.7467   -2.4292 O   0  0  0  0  0  0  0  0  0  0  0  0
   20.2483   30.5096    0.1030 C   0  0  1  0  0  0  0  0  0  0  0  0
   21.3792   31.3941    0.0422 O   0  0  0  0  0  0  0  0  0  0  0  0
   21.0530   23.5672   -4.6242 C   0  0  0  0  0  0  0  0  0  0  0  0
   21.8687   24.5623   -4.0163 O   0  0  0  0  0  0  0  0  0  0  0  0
   19.6816   34.2357   -0.8267 N   0  0  0  0  0  0  0  0  0  0  0  0
   15.8319   26.6051   -2.4208 N   0  0  0  0  0  0  0  0  0  0  0  0
  1  2  1  0  0  0  0
  1 39  1  0  0  0  0
  3  4  1  0  0  0  0
  5  6  1  0  0  0  0
  5 40  1  0  0  0  0
  9 10  1  1  0  0  0
  9 14  1  0  0  0  0
  9 35  1  0  0  0  0
 10  1  1  0  0  0  0
 11 16  1  0  0  0  0
 11 28  1  0  0  0  0
 11 26  1  6  0  0  0
 12 17  1  0  0  0  0
 12 34  1  0  0  0  0
 12 13  1  6  0  0  0
 14 15  1  6  0  0  0
 14 19  1  0  0  0  0
 16 13  1  1  0  0  0
 16 21  1  0  0  0  0
 17 18  1  1  0  0  0
 17 23  1  0  0  0  0
 18  8  1  0  0  0  0
 19 20  1  1  0  0  0
 19 25  1  0  0  0  0
 20  5  1  0  0  0  0
 21  3  1  6  0  0  0
 21 22  1  0  0  0  0
 21 27  1  0  0  0  0
 23 24  1  6  0  0  0
 23 29  1  0  0  0  0
 25 26  1  6  0  0  0
 25 31  1  0  0  0  0
 27  7  1  1  0  0  0
 27 28  1  0  0  0  0
 29 30  1  6  0  0  0
 29 33  1  0  0  0  0
 31 32  1  1  0  0  0
 31 35  1  0  0  0  0
 33 34  1  0  0  0  0
 33 37  1  6  0  0  0
 35 36  1  6  0  0  0
 37 38  1  0  0  0  0
M  END
>  <CHROM.1>
-112.22037186,93.40029073,-150.13310373,174.68934972,-172.63575587,-98.15612826
147.12342397,7.95709628,59.54092326,-91.43474451,-169.09071721,19.30676599
26.31925776,-1.25377978,1.61822458,-0.74961231,0.22379038

>  <Name>
1nta_lig

>  <RI>
0

>  <Rbt.Current_Directory>
/home/itssahil/PROJECTS/Mol_Feturizer/New_Systems/rnas/1nta

>  <Rbt.Executable>
rbdock ($Id: //depot/dev/client3/rdock/2013.1/src/exe/rbdock.cxx#4 $)

>  <Rbt.Library>
libRbt.so (2013.1, Build901 2013/11/27)

>  <Rbt.Parameter_File>
/export/apps/rDock/src/rDock_2013.1_src/data/scripts/dock_solv.prm

>  <Rbt.Receptor>
prm/blind_docking_60.prm

>  <SCORE>
-24.2594

>  <SCORE.INTER>
-8.62191

>  <SCORE.INTER.CONST>
1

>  <SCORE.INTER.POLAR>
-0.979796

>  <SCORE.INTER.ROT>
11

>  <SCORE.INTER.SOLV>
14.1303

>  <SCORE.INTER.VDW>
-18.1254

>  <SCORE.INTER.norm>
-0.215548

>  <SCORE.INTRA>
-16.6706

>  <SCORE.INTRA.DIHEDRAL>
-6.96072

>  <SCORE.INTRA.DIHEDRAL.0>
19.0336

>  <SCORE.INTRA.POLAR>
0

>  <SCORE.INTRA.POLAR.0>
0

>  <SCORE.INTRA.REPUL>
0

>  <SCORE.INTRA.REPUL.0>
0

>  <SCORE.INTRA.SOLV>
-1.45164

>  <SCORE.INTRA.SOLV.lig_0>
-97.5861

>  <SCORE.INTRA.VDW>
-12.4644

>  <SCORE.INTRA.VDW.0>
11.7669

>  <SCORE.INTRA.norm>
-0.416764

>  <SCORE.RESTR>
1.03313

>  <SCORE.RESTR.CAVITY>
1.03313

>  <SCORE.RESTR.norm>
0.0258284

>  <SCORE.SYSTEM>
0

>  <SCORE.SYSTEM.CONST>
0

>  <SCORE.SYSTEM.DIHEDRAL>
0

>  <SCORE.SYSTEM.SOLV>
0

>  <SCORE.SYSTEM.norm>
0

>  <SCORE.heavy>
40

>  <SCORE.norm>
-0.606484

>  <RMSD>
20.866

$$$$
1nta_lig
 OpenBabel11021811403D
libRbt.so/2013.1/901 2013/11/27
 40 42  0  0  0  0  0  0  0  0999 V2000
   18.1293   31.1580   -2.0922 C   0  0  0  0  0  0  0  0  0  0  0  0
   17.6922   31.1324   -3.2957 N   0  0  0  0  0  0  0  0  0  0  0  0
   19.3961   23.0633    2.3571 C   0  0  0  0  0  0  0  0  0  0  0  0
   20.5808   23.2823    2.4829 O   0  0  0  0  0  0  0  0  0  0  0  0
   18.2114   26.7225    2.8887 C   0  0  0  0  0  0  0  0  0  0  0  0
   17.2551   27.5953    3.0722 N   0  0  0  0  0  0  0  0  0  0  0  0
   16.6823   21.2277    1.7855 C   0  0  0  0  0  0  0  0  0  0  0  0
   21.8991   26.2060   -1.2945 C   0  0  0  0  0  0  0  0  0  0  0  0
   18.1275   28.9792   -1.1683 C   0  0  2  0  0  0  0  0  0  0  0  0
   18.9079   30.1437   -1.7462 N   0  0  0  0  0  0  0  0  0  0  0  0
   17.6630   23.7902   -0.5301 C   0  0  2  0  0  0  0  0  0  0  0  0
   19.9035   24.0146   -2.0215 C   0  0  1  0  0  0  0  0  0  0  0  0
   19.8510   23.0908   -0.9913 O   0  0  0  0  0  0  0  0  0  0  0  0
   18.8891   28.3723    0.0253 C   0  0  1  0  0  0  0  0  0  0  0  0
   18.9641   29.3588    1.0097 O   0  0  0  0  0  0  0  0  0  0  0  0
   19.0585   23.4729   -0.0038 C   0  0  2  0  0  0  0  0  0  0  0  0
   21.2912   24.3442   -2.5260 C   0  0  1  0  0  0  0  0  0  0  0  0
   22.0857   24.7708   -1.4265 N   0  0  0  0  0  0  0  0  0  0  0  0
   18.1550   27.1716    0.6369 C   0  0  2  0  0  0  0  0  0  0  0  0
   18.8627   26.5588    1.7865 N   0  0  0  0  0  0  0  0  0  0  0  0
   18.7425   22.5587    1.0986 C   0  0  1  0  0  0  0  0  0  0  0  0
   19.2203   21.2646    0.7257 O   0  0  0  0  0  0  0  0  0  0  0  0
   21.8875   23.2349   -3.1092 C   0  0  2  0  0  0  0  0  0  0  0  0
   23.0237   23.6798   -3.8065 O   0  0  0  0  0  0  0  0  0  0  0  0
   17.9737   26.1257   -0.4518 C   0  0  1  0  0  0  0  0  0  0  0  0
   17.2915   25.0196    0.1181 O   0  0  0  0  0  0  0  0  0  0  0  0
   17.2837   22.4896    1.2491 C   0  0  1  0  0  0  0  0  0  0  0  0
   16.7881   22.7962   -0.0483 O   0  0  0  0  0  0  0  0  0  0  0  0
   20.9354   22.5725   -4.0701 C   0  0  1  0  0  0  0  0  0  0  0  0
   21.4650   21.3381   -4.4552 O   0  0  0  0  0  0  0  0  0  0  0  0
   17.1663   26.7216   -1.6399 C   0  0  2  0  0  0  0  0  0  0  0  0
   16.9979   25.7235   -2.6453 O   0  0  0  0  0  0  0  0  0  0  0  0
   19.6270   22.3315   -3.3976 C   0  0  1  0  0  0  0  0  0  0  0  0
   19.1047   23.5725   -3.0201 O   0  0  0  0  0  0  0  0  0  0  0  0
   17.9413   27.9177   -2.2315 C   0  0  1  0  0  0  0  0  0  0  0  0
   17.2111   28.4823   -3.3328 O   0  0  0  0  0  0  0  0  0  0  0  0
   18.6169   21.6714   -4.3569 C   0  0  0  0  0  0  0  0  0  0  0  0
   18.9783   20.3090   -4.5520 O   0  0  0  0  0  0  0  0  0  0  0  0
   17.8303   32.1028   -1.2675 N   0  0  0  0  0  0  0  0  0  0  0  0
   18.5761   25.9710    3.8523 N   0  0  0  0  0  0  0  0  0  0  0  0
  1  2  1  0  0  0  0
  1 39  1  0  0  0  0
  3  4  1  0  0  0  0
  5  6  1  0  0  0  0
  5 40  1  0  0  0  0
  9 10  1  6  0  0  0
  9 14  1  0  0  0  0
  9 35  1  0  0  0  0
 10  1  1  0  0  0  0
 11 16  1  0  0  0  0
 11 28  1  0  0  0  0
 11 26  1  1  0  0  0
 12 17  1  0  0  0  0
 12 34  1  0  0  0  0
 12 13  1  1  0  0  0
 14 15  1  1  0  0  0
 14 19  1  0  0  0  0
 16 13  1  6  0  0  0
 16 21  1  0  0  0  0
 17 18  1  1  0  0  0
 17 23  1  0  0  0  0
 18  8  1  0  0  0  0
 19 20  1  1  0  0  0
 19 25  1  0  0  0  0
 20  5  1  0  0  0  0
 21  3  1  1  0  0  0
 21 22  1  0  0  0  0
 21 27  1  0  0  0  0
 23 24  1  6  0  0  0
 23 29  1  0  0  0  0
 25 26  1  1  0  0  0
 25 31  1  0  0  0  0
 27  7  1  6  0  0  0
 27 28  1  0  0  0  0
 29 30  1  1  0  0  0
 29 33  1  0  0  0  0
 31 32  1  6  0  0  0
 31 35  1  0  0  0  0
 33 34  1  0  0  0  0
 33 37  1  6  0  0  0
 35 36  1  6  0  0  0
 37 38  1  0  0  0  0
M  END
>  <CHROM.1>
-139.84212827,-90.08716732,75.03890671,133.17982202,54.95950125,-88.27334902
113.09125462,-17.10634911,-56.15299426,-150.03896839,73.51984089,18.96747784
25.19974248,-0.93256989,-2.28933843,-1.21400181,2.65150785

>  <Name>
1nta_lig

>  <RI>
1.05895e+07

>  <Rbt.Current_Directory>
/home/itssahil/PROJECTS/Mol_Feturizer/New_Systems/rnas/1nta

>  <Rbt.Executable>
rbdock ($Id: //depot/dev/client3/rdock/2013.1/src/exe/rbdock.cxx#4 $)

>  <Rbt.Library>
libRbt.so (2013.1, Build901 2013/11/27)

>  <Rbt.Parameter_File>
/export/apps/rDock/src/rDock_2013.1_src/data/scripts/dock_solv.prm

>  <Rbt.Receptor>
prm/blind_docking_100.prm

>  <SCORE>
-37.6714

>  <SCORE.INTER>
-18.8556

>  <SCORE.INTER.CONST>
1

>  <SCORE.INTER.POLAR>
-2.50432

>  <SCORE.INTER.ROT>
11

>  <SCORE.INTER.SOLV>
23.131

>  <SCORE.INTER.VDW>
-22.8663

>  <SCORE.INTER.norm>
-0.47139

>  <SCORE.INTRA>
-19.2698

>  <SCORE.INTRA.DIHEDRAL>
-3.47685

>  <SCORE.INTRA.DIHEDRAL.0>
19.0336

>  <SCORE.INTRA.POLAR>
0

>  <SCORE.INTRA.POLAR.0>
0

>  <SCORE.INTRA.REPUL>
0.00216481

>  <SCORE.INTRA.REPUL.0>
0

>  <SCORE.INTRA.SOLV>
-3.01427

>  <SCORE.INTRA.SOLV.lig_0>
-97.5861

>  <SCORE.INTRA.VDW>
-16.035

>  <SCORE.INTRA.VDW.0>
11.7669

>  <SCORE.INTRA.norm>
-0.481745

>  <SCORE.RESTR>
0.453997

>  <SCORE.RESTR.CAVITY>
0.453997

>  <SCORE.RESTR.norm>
0.0113499

>  <SCORE.SYSTEM>
0

>  <SCORE.SYSTEM.CONST>
0

>  <SCORE.SYSTEM.DIHEDRAL>
0

>  <SCORE.SYSTEM.SOLV>
0

>  <SCORE.SYSTEM.norm>
0

>  <SCORE.heavy>
40

>  <SCORE.norm>
-0.941784

>  <RMSD>
20.876

$$$$
1nta_lig
 OpenBabel11021811403D
libRbt.so/2013.1/901 2013/11/27
 40 42  0  0  0  0  0  0  0  0999 V2000
   19.1687   18.2784   -2.8802 C   0  0  0  0  0  0  0  0  0  0  0  0
   19.6892   17.8945   -3.9856 N   0  0  0  0  0  0  0  0  0  0  0  0
   17.2140   28.0515   -3.3144 C   0  0  0  0  0  0  0  0  0  0  0  0
   17.5536   29.2083   -3.4326 O   0  0  0  0  0  0  0  0  0  0  0  0
   20.5307   23.8533   -5.4336 C   0  0  0  0  0  0  0  0  0  0  0  0
   20.9988   24.7785   -6.2302 N   0  0  0  0  0  0  0  0  0  0  0  0
   14.7739   26.2056   -2.0107 C   0  0  0  0  0  0  0  0  0  0  0  0
   21.3103   30.3755   -0.5682 C   0  0  0  0  0  0  0  0  0  0  0  0
   19.1948   20.6210   -2.5455 C   0  0  2  0  0  0  0  0  0  0  0  0
   19.8043   19.2620   -2.2613 N   0  0  0  0  0  0  0  0  0  0  0  0
   18.2075   25.4638   -1.2687 C   0  0  2  0  0  0  0  0  0  0  0  0
   20.2718   27.5178   -0.3979 C   0  0  1  0  0  0  0  0  0  0  0  0
   18.8875   27.5403   -0.4234 O   0  0  0  0  0  0  0  0  0  0  0  0
   20.2353   21.5375   -3.2165 C   0  0  1  0  0  0  0  0  0  0  0  0
   20.5633   20.9582   -4.4432 O   0  0  0  0  0  0  0  0  0  0  0  0
   18.3879   26.9599   -1.5017 C   0  0  2  0  0  0  0  0  0  0  0  0
   20.9158   28.4310    0.6218 C   0  0  1  0  0  0  0  0  0  0  0  0
   20.4379   29.7541    0.4140 N   0  0  0  0  0  0  0  0  0  0  0  0
   19.6791   22.9379   -3.5068 C   0  0  2  0  0  0  0  0  0  0  0  0
   20.6563   23.8493   -4.1491 N   0  0  0  0  0  0  0  0  0  0  0  0
   17.0600   27.3289   -2.0030 C   0  0  1  0  0  0  0  0  0  0  0  0
   16.4436   28.1473   -1.0068 O   0  0  0  0  0  0  0  0  0  0  0  0
   20.6020   28.0365    1.9149 C   0  0  2  0  0  0  0  0  0  0  0  0
   21.4560   28.7288    2.7903 O   0  0  0  0  0  0  0  0  0  0  0  0
   19.2216   23.5455   -2.1902 C   0  0  1  0  0  0  0  0  0  0  0  0
   18.7051   24.8383   -2.4649 O   0  0  0  0  0  0  0  0  0  0  0  0
   16.2604   26.1076   -2.1607 C   0  0  1  0  0  0  0  0  0  0  0  0
   16.8237   25.2026   -1.2191 O   0  0  0  0  0  0  0  0  0  0  0  0
   20.8119   26.5537    2.0760 C   0  0  1  0  0  0  0  0  0  0  0  0
   20.2657   26.1480    3.2964 O   0  0  0  0  0  0  0  0  0  0  0  0
   18.1381   22.6452   -1.5311 C   0  0  2  0  0  0  0  0  0  0  0  0
   17.7145   23.2364   -0.3038 O   0  0  0  0  0  0  0  0  0  0  0  0
   20.1091   25.8235    0.9826 C   0  0  1  0  0  0  0  0  0  0  0  0
   20.6657   26.2340   -0.2328 O   0  0  0  0  0  0  0  0  0  0  0  0
   18.7389   21.2525   -1.2473 C   0  0  1  0  0  0  0  0  0  0  0  0
   17.7523   20.4050   -0.6365 O   0  0  0  0  0  0  0  0  0  0  0  0
   20.3173   24.3008    1.1015 C   0  0  0  0  0  0  0  0  0  0  0  0
   21.5896   23.9590    0.5636 O   0  0  0  0  0  0  0  0  0  0  0  0
   18.1006   17.7429   -2.3958 N   0  0  0  0  0  0  0  0  0  0  0  0
   19.8736   22.8737   -5.9184 N   0  0  0  0  0  0  0  0  0  0  0  0
  1  2  1  0  0  0  0
  1 39  1  0  0  0  0
  3  4  1  0  0  0  0
  5  6  1  0  0  0  0
  5 40  1  0  0  0  0
  9 10  1  1  0  0  0
  9 14  1  0  0  0  0
  9 35  1  0  0  0  0
 10  1  1  0  0  0  0
 11 16  1  0  0  0  0
 11 28  1  0  0  0  0
 11 26  1  6  0  0  0
 12 17  1  0  0  0  0
 12 34  1  0  0  0  0
 12 13  1  1  0  0  0
 14 15  1  6  0  0  0
 14 19  1  0  0  0  0
 16 13  1  1  0  0  0
 16 21  1  0  0  0  0
 17 18  1  6  0  0  0
 17 23  1  0  0  0  0
 18  8  1  0  0  0  0
 19 20  1  1  0  0  0
 19 25  1  0  0  0  0
 20  5  1  0  0  0  0
 21  3  1  6  0  0  0
 21 22  1  0  0  0  0
 21 27  1  0  0  0  0
 23 24  1  1  0  0  0
 23 29  1  0  0  0  0
 25 26  1  6  0  0  0
 25 31  1  0  0  0  0
 27  7  1  1  0  0  0
 27 28  1  0  0  0  0
 29 30  1  1  0  0  0
 29 33  1  0  0  0  0
 31 32  1  1  0  0  0
 31 35  1  0  0  0  0
 33 34  1  0  0  0  0
 33 37  1  1  0  0  0
 35 36  1  6  0  0  0
 37 38  1  0  0  0  0
M  END
>  <CHROM.1>
-119.75502445,97.19185857,150.89247626,166.33531510,87.63060992,-87.70653326
95.21623642,161.80634871,-77.58555579,178.04813189,-80.43641804,19.21852253
24.70765008,-1.49122628,-1.65291445,-1.14479064,0.33245654

>  <Name>
1nta_lig

>  <RI>
1.05895e+07

>  <Rbt.Current_Directory>
/home/itssahil/PROJECTS/Mol_Feturizer/New_Systems/rnas/1nta

>  <Rbt.Executable>
rbdock ($Id: //depot/dev/client3/rdock/2013.1/src/exe/rbdock.cxx#4 $)

>  <Rbt.Library>
libRbt.so (2013.1, Build901 2013/11/27)

>  <Rbt.Parameter_File>
/export/apps/rDock/src/rDock_2013.1_src/data/scripts/dock_solv.prm

>  <Rbt.Receptor>
prm/blind_docking_100.prm

>  <SCORE>
-26.2098

>  <SCORE.INTER>
-14.3355

>  <SCORE.INTER.CONST>
1

>  <SCORE.INTER.POLAR>
-1.37802

>  <SCORE.INTER.ROT>
11

>  <SCORE.INTER.SOLV>
17.7784

>  <SCORE.INTER.VDW>
-21.8231

>  <SCORE.INTER.norm>
-0.358387

>  <SCORE.INTRA>
-12.7894

>  <SCORE.INTRA.DIHEDRAL>
-5.32481

>  <SCORE.INTRA.DIHEDRAL.0>
19.0336

>  <SCORE.INTRA.POLAR>
0

>  <SCORE.INTRA.POLAR.0>
0

>  <SCORE.INTRA.REPUL>
0

>  <SCORE.INTRA.REPUL.0>
0

>  <SCORE.INTRA.SOLV>
-4.51862

>  <SCORE.INTRA.SOLV.lig_0>
-97.5861

>  <SCORE.INTRA.VDW>
-7.86773

>  <SCORE.INTRA.VDW.0>
11.7669

>  <SCORE.INTRA.norm>
-0.319736

>  <SCORE.RESTR>
0.915148

>  <SCORE.RESTR.CAVITY>
0.915148

>  <SCORE.RESTR.norm>
0.0228787

>  <SCORE.SYSTEM>
0

>  <SCORE.SYSTEM.CONST>
0

>  <SCORE.SYSTEM.DIHEDRAL>
0

>  <SCORE.SYSTEM.SOLV>
0

>  <SCORE.SYSTEM.norm>
0

>  <SCORE.heavy>
40

>  <SCORE.norm>
-0.655245

>  <RMSD>
20.900

$$$$
1nta_lig
 OpenBabel11021811403D
libRbt.so/2013.1/901 2013/11/27
 40 42  0  0  0  0  0  0  0  0999 V2000
   17.8297   18.4810   -2.6730 C   0  0  0  0  0  0  0  0  0  0  0  0
   18.5222   17.4286   -2.9032 N   0  0  0  0  0  0  0  0  0  0  0  0
   21.3193   27.3334   -1.3710 C   0  0  0  0  0  0  0  0  0  0  0  0
   21.4046   28.4675   -0.9541 O   0  0  0  0  0  0  0  0  0  0  0  0
   21.3321   22.2538   -3.5086 C   0  0  0  0  0  0  0  0  0  0  0  0
   22.3329   21.4833   -3.8470 N   0  0  0  0  0  0  0  0  0  0  0  0
   20.6809   25.6467   -4.1654 C   0  0  0  0  0  0  0  0  0  0  0  0
   19.4372   25.3320    2.6755 C   0  0  0  0  0  0  0  0  0  0  0  0
   18.0885   20.4410   -1.3722 C   0  0  2  0  0  0  0  0  0  0  0  0
   17.8842   18.9398   -1.4316 N   0  0  0  0  0  0  0  0  0  0  0  0
   18.9064   24.8855   -1.1384 C   0  0  2  0  0  0  0  0  0  0  0  0
   17.8072   27.3136    0.6834 C   0  0  1  0  0  0  0  0  0  0  0  0
   18.0350   27.0040   -0.6469 O   0  0  0  0  0  0  0  0  0  0  0  0
   19.4930   20.8046   -1.8900 C   0  0  1  0  0  0  0  0  0  0  0  0
   19.5475   20.4250   -3.2320 O   0  0  0  0  0  0  0  0  0  0  0  0
   19.1726   26.3554   -0.8319 C   0  0  2  0  0  0  0  0  0  0  0  0
   19.0360   27.3221    1.5660 C   0  0  1  0  0  0  0  0  0  0  0  0
   19.6907   26.0655    1.4467 N   0  0  0  0  0  0  0  0  0  0  0  0
   19.7646   22.3137   -1.8309 C   0  0  2  0  0  0  0  0  0  0  0  0
   21.1107   22.6997   -2.3179 N   0  0  0  0  0  0  0  0  0  0  0  0
   20.0684   26.7154   -1.9358 C   0  0  1  0  0  0  0  0  0  0  0  0
   19.3558   27.6203   -2.7816 O   0  0  0  0  0  0  0  0  0  0  0  0
   19.9160   28.3264    1.1879 C   0  0  2  0  0  0  0  0  0  0  0  0
   20.8682   28.4659    2.2121 O   0  0  0  0  0  0  0  0  0  0  0  0
   19.6088   22.7643   -0.3871 C   0  0  1  0  0  0  0  0  0  0  0  0
   19.8574   24.1606   -0.3387 O   0  0  0  0  0  0  0  0  0  0  0  0
   20.3761   25.5041   -2.7064 C   0  0  1  0  0  0  0  0  0  0  0  0
   19.2527   24.6602   -2.4856 O   0  0  0  0  0  0  0  0  0  0  0  0
   19.1796   29.6276    1.0056 C   0  0  1  0  0  0  0  0  0  0  0  0
   20.0342   30.5516    0.3987 O   0  0  0  0  0  0  0  0  0  0  0  0
   18.1769   22.4390    0.1255 C   0  0  2  0  0  0  0  0  0  0  0  0
   18.0470   22.8781    1.4767 O   0  0  0  0  0  0  0  0  0  0  0  0
   18.0039   29.4204    0.1127 C   0  0  1  0  0  0  0  0  0  0  0  0
   17.1543   28.4977    0.7309 O   0  0  0  0  0  0  0  0  0  0  0  0
   17.9477   20.9145    0.0589 C   0  0  1  0  0  0  0  0  0  0  0  0
   16.6287   20.5932    0.5298 O   0  0  0  0  0  0  0  0  0  0  0  0
   17.2111   30.7280   -0.0826 C   0  0  0  0  0  0  0  0  0  0  0  0
   17.4805   31.6053    1.0049 O   0  0  0  0  0  0  0  0  0  0  0  0
   17.1216   19.0561   -3.5841 N   0  0  0  0  0  0  0  0  0  0  0  0
   20.4999   22.6369   -4.3959 N   0  0  0  0  0  0  0  0  0  0  0  0
  1  2  1  0  0  0  0
  1 39  1  0  0  0  0
  3  4  1  0  0  0  0
  5  6  1  0  0  0  0
  5 40  1  0  0  0  0
  9 10  1  1  0  0  0
  9 14  1  0  0  0  0
  9 35  1  0  0  0  0
 10  1  1  0  0  0  0
 11 16  1  0  0  0  0
 11 28  1  0  0  0  0
 11 26  1  1  0  0  0
 12 17  1  0  0  0  0
 12 34  1  0  0  0  0
 12 13  1  6  0  0  0
 14 15  1  6  0  0  0
 14 19  1  0  0  0  0
 16 13  1  6  0  0  0
 16 21  1  0  0  0  0
 17 18  1  6  0  0  0
 17 23  1  0  0  0  0
 18  8  1  0  0  0  0
 19 20  1  1  0  0  0
 19 25  1  0  0  0  0
 20  5  1  0  0  0  0
 21  3  1  1  0  0  0
 21 22  1  0  0  0  0
 21 27  1  0  0  0  0
 23 24  1  1  0  0  0
 23 29  1  0  0  0  0
 25 26  1  6  0  0  0
 25 31  1  0  0  0  0
 27  7  1  6  0  0  0
 27 28  1  0  0  0  0
 29 30  1  6  0  0  0
 29 33  1  0  0  0  0
 31 32  1  1  0  0  0
 31 35  1  0  0  0  0
 33 34  1  0  0  0  0
 33 37  1  1  0  0  0
 35 36  1  6  0  0  0
 37 38  1  0  0  0  0
M  END
>  <CHROM.1>
-67.75793507,134.32436991,172.20310299,20.84302102,106.45138890,-106.32242854
54.47393471,-123.02020352,-77.13464994,61.67314771,-22.59978014,19.19945765
24.77552603,-0.91645693,1.59967228,-0.92610270,-2.82382180

>  <Name>
1nta_lig

>  <RI>
2.40834e+07

>  <Rbt.Current_Directory>
/home/itssahil/PROJECTS/Mol_Feturizer/New_Systems/rnas/1nta

>  <Rbt.Executable>
rbdock ($Id: //depot/dev/client3/rdock/2013.1/src/exe/rbdock.cxx#4 $)

>  <Rbt.Library>
libRbt.so (2013.1, Build901 2013/11/27)

>  <Rbt.Parameter_File>
/export/apps/rDock/src/rDock_2013.1_src/data/scripts/dock_solv.prm

>  <Rbt.Receptor>
prm/blind_docking_80.prm

>  <SCORE>
5.15045

>  <SCORE.INTER>
1.26261

>  <SCORE.INTER.CONST>
1

>  <SCORE.INTER.POLAR>
-0.257944

>  <SCORE.INTER.ROT>
11

>  <SCORE.INTER.SOLV>
13.811

>  <SCORE.INTER.VDW>
-13.8354

>  <SCORE.INTER.norm>
0.0315651

>  <SCORE.INTRA>
3.55672

>  <SCORE.INTRA.DIHEDRAL>
-0.467871

>  <SCORE.INTRA.DIHEDRAL.0>
19.0336

>  <SCORE.INTRA.POLAR>
0

>  <SCORE.INTRA.POLAR.0>
0

>  <SCORE.INTRA.REPUL>
0.198275

>  <SCORE.INTRA.REPUL.0>
0

>  <SCORE.INTRA.SOLV>
4.76687

>  <SCORE.INTRA.SOLV.lig_0>
-97.5861

>  <SCORE.INTRA.VDW>
0.415847

>  <SCORE.INTRA.VDW.0>
11.7669

>  <SCORE.INTRA.norm>
0.088918

>  <SCORE.RESTR>
0.331122

>  <SCORE.RESTR.CAVITY>
0.331122

>  <SCORE.RESTR.norm>
0.00827806

>  <SCORE.SYSTEM>
0

>  <SCORE.SYSTEM.CONST>
0

>  <SCORE.SYSTEM.DIHEDRAL>
0

>  <SCORE.SYSTEM.SOLV>
0

>  <SCORE.SYSTEM.norm>
0

>  <SCORE.heavy>
40

>  <SCORE.norm>
0.128761

>  <RMSD>
20.900

$$$$
1nta_lig
 OpenBabel11021811403D
libRbt.so/2013.1/901 2013/11/27
 40 42  0  0  0  0  0  0  0  0999 V2000
   15.1194   19.6853    1.9848 C   0  0  0  0  0  0  0  0  0  0  0  0
   14.5997   19.2762    0.8881 N   0  0  0  0  0  0  0  0  0  0  0  0
   22.4437   24.9836   -1.2579 C   0  0  0  0  0  0  0  0  0  0  0  0
   22.5380   26.0974   -0.7912 O   0  0  0  0  0  0  0  0  0  0  0  0
   19.8497   24.0091    2.0797 C   0  0  0  0  0  0  0  0  0  0  0  0
   20.9133   23.3893    1.6386 N   0  0  0  0  0  0  0  0  0  0  0  0
   22.2816   22.6867   -3.6577 C   0  0  0  0  0  0  0  0  0  0  0  0
   20.0896   28.0216    1.2908 C   0  0  0  0  0  0  0  0  0  0  0  0
   17.4733   19.8267    1.7847 C   0  0  2  0  0  0  0  0  0  0  0  0
   16.2578   19.1021    2.3293 N   0  0  0  0  0  0  0  0  0  0  0  0
   19.4243   23.3584   -1.5901 C   0  0  2  0  0  0  0  0  0  0  0  0
   18.3853   26.1688   -0.9584 C   0  0  1  0  0  0  0  0  0  0  0  0
   19.2069   25.6630   -1.9517 O   0  0  0  0  0  0  0  0  0  0  0  0
   17.4498   21.3030    2.2238 C   0  0  1  0  0  0  0  0  0  0  0  0
   17.5390   21.3192    3.6166 O   0  0  0  0  0  0  0  0  0  0  0  0
   20.0476   24.7471   -1.5006 C   0  0  2  0  0  0  0  0  0  0  0  0
   18.7047   27.5774   -0.5085 C   0  0  1  0  0  0  0  0  0  0  0  0
   20.0683   27.6292   -0.1084 N   0  0  0  0  0  0  0  0  0  0  0  0
   18.6478   22.0930    1.6802 C   0  0  2  0  0  0  0  0  0  0  0  0
   18.6550   23.5207    2.0798 N   0  0  0  0  0  0  0  0  0  0  0  0
   21.3353   24.5211   -2.1652 C   0  0  1  0  0  0  0  0  0  0  0  0
   21.3095   25.2465   -3.3962 O   0  0  0  0  0  0  0  0  0  0  0  0
   18.5016   28.4884   -1.5356 C   0  0  2  0  0  0  0  0  0  0  0  0
   18.5268   29.7762   -0.9736 O   0  0  0  0  0  0  0  0  0  0  0  0
   18.6239   22.0003    0.1627 C   0  0  1  0  0  0  0  0  0  0  0  0
   19.7353   22.7293   -0.3343 O   0  0  0  0  0  0  0  0  0  0  0  0
   21.4620   23.0908   -2.4716 C   0  0  1  0  0  0  0  0  0  0  0  0
   20.1173   22.6421   -2.5862 O   0  0  0  0  0  0  0  0  0  0  0  0
   17.1657   28.2515   -2.1898 C   0  0  1  0  0  0  0  0  0  0  0  0
   17.0918   29.0126   -3.3593 O   0  0  0  0  0  0  0  0  0  0  0  0
   18.6925   20.5127   -0.2856 C   0  0  2  0  0  0  0  0  0  0  0  0
   18.6795   20.4471   -1.7107 O   0  0  0  0  0  0  0  0  0  0  0  0
   17.0329   26.8131   -2.5581 C   0  0  1  0  0  0  0  0  0  0  0  0
   17.1044   26.0616   -1.3810 O   0  0  0  0  0  0  0  0  0  0  0  0
   17.4681   19.7572    0.2723 C   0  0  1  0  0  0  0  0  0  0  0  0
   17.5127   18.3791   -0.1324 O   0  0  0  0  0  0  0  0  0  0  0  0
   15.6675   26.5261   -3.2136 C   0  0  0  0  0  0  0  0  0  0  0  0
   15.5539   25.1303   -3.4663 O   0  0  0  0  0  0  0  0  0  0  0  0
   14.5725   20.5996    2.7108 N   0  0  0  0  0  0  0  0  0  0  0  0
   19.9590   25.1782    2.5772 N   0  0  0  0  0  0  0  0  0  0  0  0
  1  2  1  0  0  0  0
  1 39  1  0  0  0  0
  3  4  1  0  0  0  0
  5  6  1  0  0  0  0
  5 40  1  0  0  0  0
  9 10  1  1  0  0  0
  9 14  1  0  0  0  0
  9 35  1  0  0  0  0
 10  1  1  0  0  0  0
 11 16  1  0  0  0  0
 11 28  1  0  0  0  0
 11 26  1  1  0  0  0
 12 17  1  0  0  0  0
 12 34  1  0  0  0  0
 12 13  1  6  0  0  0
 14 15  1  1  0  0  0
 14 19  1  0  0  0  0
 16 13  1  6  0  0  0
 16 21  1  0  0  0  0
 17 18  1  6  0  0  0
 17 23  1  0  0  0  0
 18  8  1  0  0  0  0
 19 20  1  6  0  0  0
 19 25  1  0  0  0  0
 20  5  1  0  0  0  0
 21  3  1  1  0  0  0
 21 22  1  0  0  0  0
 21 27  1  0  0  0  0
 23 24  1  1  0  0  0
 23 29  1  0  0  0  0
 25 26  1  6  0  0  0
 25 31  1  0  0  0  0
 27  7  1  6  0  0  0
 27 28  1  0  0  0  0
 29 30  1  6  0  0  0
 29 33  1  0  0  0  0
 31 32  1  6  0  0  0
 31 35  1  0  0  0  0
 33 34  1  0  0  0  0
 33 37  1  1  0  0  0
 35 36  1  1  0  0  0
 37 38  1  0  0  0  0
M  END
>  <CHROM.1>
55.32345136,90.31042467,138.44254144,107.01955839,89.80152519,-119.54780046
154.66214470,7.45027763,-55.92868098,-146.16398924,-176.23740082,18.65649102
23.92208917,-0.46170437,1.84664762,-0.25643849,2.79432787

>  <Name>
1nta_lig

>  <RI>
9.25352e+06

>  <Rbt.Current_Directory>
/home/itssahil/PROJECTS/Mol_Feturizer/New_Systems/rnas/1nta

>  <Rbt.Executable>
rbdock ($Id: //depot/dev/client3/rdock/2013.1/src/exe/rbdock.cxx#4 $)

>  <Rbt.Library>
libRbt.so (2013.1, Build901 2013/11/27)

>  <Rbt.Parameter_File>
/export/apps/rDock/src/rDock_2013.1_src/data/scripts/dock_solv.prm

>  <Rbt.Receptor>
prm/blind_docking_40.prm

>  <SCORE>
-22.3593

>  <SCORE.INTER>
-11.7119

>  <SCORE.INTER.CONST>
1

>  <SCORE.INTER.POLAR>
-0.577528

>  <SCORE.INTER.ROT>
11

>  <SCORE.INTER.SOLV>
17.76

>  <SCORE.INTER.VDW>
-22.7361

>  <SCORE.INTER.norm>
-0.292796

>  <SCORE.INTRA>
-11.6523

>  <SCORE.INTRA.DIHEDRAL>
3.55096

>  <SCORE.INTRA.DIHEDRAL.0>
19.0336

>  <SCORE.INTRA.POLAR>
0

>  <SCORE.INTRA.POLAR.0>
0

>  <SCORE.INTRA.REPUL>
0

>  <SCORE.INTRA.REPUL.0>
0

>  <SCORE.INTRA.SOLV>
3.34914

>  <SCORE.INTRA.SOLV.lig_0>
-97.5861

>  <SCORE.INTRA.VDW>
-15.1023

>  <SCORE.INTRA.VDW.0>
11.7669

>  <SCORE.INTRA.norm>
-0.291307

>  <SCORE.RESTR>
1.00487

>  <SCORE.RESTR.CAVITY>
1.00487

>  <SCORE.RESTR.norm>
0.0251218

>  <SCORE.SYSTEM>
0

>  <SCORE.SYSTEM.CONST>
0

>  <SCORE.SYSTEM.DIHEDRAL>
0

>  <SCORE.SYSTEM.SOLV>
0

>  <SCORE.SYSTEM.norm>
0

>  <SCORE.heavy>
40

>  <SCORE.norm>
-0.558981

>  <RMSD>
20.902

$$$$
1nta_lig
 OpenBabel11021811403D
libRbt.so/2013.1/901 2013/11/27
 40 42  0  0  0  0  0  0  0  0999 V2000
   17.9971   19.0584   -3.5921 C   0  0  0  0  0  0  0  0  0  0  0  0
   17.2163   18.0618   -3.3993 N   0  0  0  0  0  0  0  0  0  0  0  0
   18.2452   25.7437    3.8959 C   0  0  0  0  0  0  0  0  0  0  0  0
   17.6472   26.7943    3.9725 O   0  0  0  0  0  0  0  0  0  0  0  0
   19.7926   24.8071   -2.6812 C   0  0  0  0  0  0  0  0  0  0  0  0
   20.4359   24.7406   -3.8177 N   0  0  0  0  0  0  0  0  0  0  0  0
   20.8129   23.6854    4.3773 C   0  0  0  0  0  0  0  0  0  0  0  0
   21.5169   29.3605    3.7174 C   0  0  0  0  0  0  0  0  0  0  0  0
   18.4110   20.6182   -1.8611 C   0  0  2  0  0  0  0  0  0  0  0  0
   18.8105   19.3488   -2.5878 N   0  0  0  0  0  0  0  0  0  0  0  0
   19.8975   24.7026    1.0579 C   0  0  2  0  0  0  0  0  0  0  0  0
   19.4855   28.2013    1.8364 C   0  0  1  0  0  0  0  0  0  0  0  0
   20.0047   27.0291    1.3130 O   0  0  0  0  0  0  0  0  0  0  0  0
   19.4455   21.7281   -2.1273 C   0  0  1  0  0  0  0  0  0  0  0  0
   19.4148   21.9991   -3.4961 O   0  0  0  0  0  0  0  0  0  0  0  0
   19.3973   25.9502    1.7780 C   0  0  2  0  0  0  0  0  0  0  0  0
   20.3746   29.4184    1.7063 C   0  0  1  0  0  0  0  0  0  0  0  0
   21.6380   29.1235    2.2887 N   0  0  0  0  0  0  0  0  0  0  0  0
   19.1035   23.0328   -1.3956 C   0  0  2  0  0  0  0  0  0  0  0  0
   20.0817   24.1229   -1.6257 N   0  0  0  0  0  0  0  0  0  0  0  0
   19.5546   25.5483    3.1797 C   0  0  1  0  0  0  0  0  0  0  0  0
   20.5973   26.3516    3.7360 O   0  0  0  0  0  0  0  0  0  0  0  0
   20.5614   29.7609    0.3744 C   0  0  2  0  0  0  0  0  0  0  0  0
   21.1342   31.0438    0.3411 O   0  0  0  0  0  0  0  0  0  0  0  0
   19.0321   22.7333    0.0934 C   0  0  1  0  0  0  0  0  0  0  0  0
   18.7122   23.9420    0.7646 O   0  0  0  0  0  0  0  0  0  0  0  0
   19.9781   24.1431    3.2216 C   0  0  1  0  0  0  0  0  0  0  0  0
   20.6469   23.9473    1.9818 O   0  0  0  0  0  0  0  0  0  0  0  0
   19.2420   29.7805   -0.3518 C   0  0  1  0  0  0  0  0  0  0  0  0
   19.4809   29.8884   -1.7243 O   0  0  0  0  0  0  0  0  0  0  0  0
   17.9568   21.6446    0.3712 C   0  0  2  0  0  0  0  0  0  0  0  0
   17.8975   21.3851    1.7728 O   0  0  0  0  0  0  0  0  0  0  0  0
   18.5105   28.5056   -0.1026 C   0  0  1  0  0  0  0  0  0  0  0  0
   18.2736   28.4098    1.2722 O   0  0  0  0  0  0  0  0  0  0  0  0
   18.3419   20.3488   -0.3729 C   0  0  1  0  0  0  0  0  0  0  0  0
   17.3598   19.3289   -0.1277 O   0  0  0  0  0  0  0  0  0  0  0  0
   17.1433   28.4955   -0.8144 C   0  0  0  0  0  0  0  0  0  0  0  0
   16.3594   29.5833   -0.3376 O   0  0  0  0  0  0  0  0  0  0  0  0
   17.9920   19.7396   -4.6867 N   0  0  0  0  0  0  0  0  0  0  0  0
   18.8124   25.6131   -2.5548 N   0  0  0  0  0  0  0  0  0  0  0  0
  1  2  1  0  0  0  0
  1 39  1  0  0  0  0
  3  4  1  0  0  0  0
  5  6  1  0  0  0  0
  5 40  1  0  0  0  0
  9 10  1  6  0  0  0
  9 14  1  0  0  0  0
  9 35  1  0  0  0  0
 10  1  1  0  0  0  0
 11 16  1  0  0  0  0
 11 28  1  0  0  0  0
 11 26  1  1  0  0  0
 12 17  1  0  0  0  0
 12 34  1  0  0  0  0
 12 13  1  6  0  0  0
 14 15  1  6  0  0  0
 14 19  1  0  0  0  0
 16 13  1  1  0  0  0
 16 21  1  0  0  0  0
 17 18  1  6  0  0  0
 17 23  1  0  0  0  0
 18  8  1  0  0  0  0
 19 20  1  1  0  0  0
 19 25  1  0  0  0  0
 20  5  1  0  0  0  0
 21  3  1  1  0  0  0
 21 22  1  0  0  0  0
 21 27  1  0  0  0  0
 23 24  1  1  0  0  0
 23 29  1  0  0  0  0
 25 26  1  1  0  0  0
 25 31  1  0  0  0  0
 27  7  1  1  0  0  0
 27 28  1  0  0  0  0
 29 30  1  6  0  0  0
 29 33  1  0  0  0  0
 31 32  1  1  0  0  0
 31 35  1  0  0  0  0
 33 34  1  0  0  0  0
 33 37  1  6  0  0  0
 35 36  1  6  0  0  0
 37 38  1  0  0  0  0
M  END
>  <CHROM.1>
-110.74879815,-107.66980507,-179.60873180,161.63304938,173.68154704,-83.87252798
87.41523865,-106.05624000,-57.49933717,-86.53743799,-59.46719382,19.17825411
24.99124251,0.17326825,2.73527603,1.40850763,2.38878436

>  <Name>
1nta_lig

>  <RI>
2.40834e+07

>  <Rbt.Current_Directory>
/home/itssahil/PROJECTS/Mol_Feturizer/New_Systems/rnas/1nta

>  <Rbt.Executable>
rbdock ($Id: //depot/dev/client3/rdock/2013.1/src/exe/rbdock.cxx#4 $)

>  <Rbt.Library>
libRbt.so (2013.1, Build901 2013/11/27)

>  <Rbt.Parameter_File>
/export/apps/rDock/src/rDock_2013.1_src/data/scripts/dock_solv.prm

>  <Rbt.Receptor>
prm/blind_docking_80.prm

>  <SCORE>
-34.4925

>  <SCORE.INTER>
-12.8033

>  <SCORE.INTER.CONST>
1

>  <SCORE.INTER.POLAR>
-0.754145

>  <SCORE.INTER.ROT>
11

>  <SCORE.INTER.SOLV>
10.4353

>  <SCORE.INTER.VDW>
-20.4335

>  <SCORE.INTER.norm>
-0.320082

>  <SCORE.INTRA>
-23.2443

>  <SCORE.INTRA.DIHEDRAL>
-11.1756

>  <SCORE.INTRA.DIHEDRAL.0>
19.0336

>  <SCORE.INTRA.POLAR>
0

>  <SCORE.INTRA.POLAR.0>
0

>  <SCORE.INTRA.REPUL>
0.00198219

>  <SCORE.INTRA.REPUL.0>
0

>  <SCORE.INTRA.SOLV>
-2.3416

>  <SCORE.INTRA.SOLV.lig_0>
-97.5861

>  <SCORE.INTRA.VDW>
-16.4956

>  <SCORE.INTRA.VDW.0>
11.7669

>  <SCORE.INTRA.norm>
-0.581107

>  <SCORE.RESTR>
1.55501

>  <SCORE.RESTR.CAVITY>
1.55501

>  <SCORE.RESTR.norm>
0.0388753

>  <SCORE.SYSTEM>
0

>  <SCORE.SYSTEM.CONST>
0

>  <SCORE.SYSTEM.DIHEDRAL>
0

>  <SCORE.SYSTEM.SOLV>
0

>  <SCORE.SYSTEM.norm>
0

>  <SCORE.heavy>
40

>  <SCORE.norm>
-0.862313

>  <RMSD>
20.908

$$$$
1nta_lig
 OpenBabel11021811403D
libRbt.so/2013.1/901 2013/11/27
 40 42  0  0  0  0  0  0  0  0999 V2000
   18.9231   33.2423   -0.1059 C   0  0  0  0  0  0  0  0  0  0  0  0
   19.4686   34.3191    0.3220 N   0  0  0  0  0  0  0  0  0  0  0  0
   17.0351   23.5955   -0.1931 C   0  0  0  0  0  0  0  0  0  0  0  0
   17.6291   23.3793    0.8401 O   0  0  0  0  0  0  0  0  0  0  0  0
   20.4992   27.0554    2.1555 C   0  0  0  0  0  0  0  0  0  0  0  0
   19.2928   26.5760    2.3122 N   0  0  0  0  0  0  0  0  0  0  0  0
   15.8292   25.1404   -2.8803 C   0  0  0  0  0  0  0  0  0  0  0  0
   20.3384   26.0815   -4.4413 C   0  0  0  0  0  0  0  0  0  0  0  0
   19.2320   30.9023   -0.2784 C   0  0  2  0  0  0  0  0  0  0  0  0
   19.7610   32.3029   -0.5184 N   0  0  0  0  0  0  0  0  0  0  0  0
   19.1488   25.8522   -1.7123 C   0  0  2  0  0  0  0  0  0  0  0  0
   19.8805   23.4799   -3.0842 C   0  0  1  0  0  0  0  0  0  0  0  0
   20.0457   23.6879   -1.7252 O   0  0  0  0  0  0  0  0  0  0  0  0
   20.3434   30.0101    0.3063 C   0  0  1  0  0  0  0  0  0  0  0  0
   20.6917   30.5469    1.5467 O   0  0  0  0  0  0  0  0  0  0  0  0
   19.0762   24.4180   -1.1997 C   0  0  2  0  0  0  0  0  0  0  0  0
   21.0343   23.9297   -3.9533 C   0  0  1  0  0  0  0  0  0  0  0  0
   21.3006   25.3001   -3.6827 N   0  0  0  0  0  0  0  0  0  0  0  0
   19.8699   28.5707    0.5482 C   0  0  2  0  0  0  0  0  0  0  0  0
   20.9165   27.6816    1.1069 N   0  0  0  0  0  0  0  0  0  0  0  0
   17.6699   24.0957   -1.4630 C   0  0  1  0  0  0  0  0  0  0  0  0
   17.6477   23.1121   -2.4993 O   0  0  0  0  0  0  0  0  0  0  0  0
   22.1773   23.1879   -3.6899 C   0  0  2  0  0  0  0  0  0  0  0  0
   23.1004   23.4492   -4.7168 O   0  0  0  0  0  0  0  0  0  0  0  0
   19.3900   28.0033   -0.7783 C   0  0  1  0  0  0  0  0  0  0  0  0
   18.9502   26.6739   -0.5482 O   0  0  0  0  0  0  0  0  0  0  0  0
   16.9945   25.3033   -1.9542 C   0  0  1  0  0  0  0  0  0  0  0  0
   18.0375   26.0627   -2.5527 O   0  0  0  0  0  0  0  0  0  0  0  0
   21.8540   21.7171   -3.6668 C   0  0  1  0  0  0  0  0  0  0  0  0
   22.9557   21.0180   -3.1669 O   0  0  0  0  0  0  0  0  0  0  0  0
   18.2371   28.8765   -1.3503 C   0  0  2  0  0  0  0  0  0  0  0  0
   17.7939   28.3228   -2.5882 O   0  0  0  0  0  0  0  0  0  0  0  0
   20.6938   21.4702   -2.7638 C   0  0  1  0  0  0  0  0  0  0  0  0
   19.5969   22.1708   -3.2750 O   0  0  0  0  0  0  0  0  0  0  0  0
   18.7558   30.3102   -1.5878 C   0  0  1  0  0  0  0  0  0  0  0  0
   17.7041   31.1335   -2.1180 O   0  0  0  0  0  0  0  0  0  0  0  0
   20.3187   19.9754   -2.7290 C   0  0  0  0  0  0  0  0  0  0  0  0
   19.8421   19.5825   -4.0110 O   0  0  0  0  0  0  0  0  0  0  0  0
   17.6444   33.0807   -0.1396 N   0  0  0  0  0  0  0  0  0  0  0  0
   21.3542   26.9378    3.0945 N   0  0  0  0  0  0  0  0  0  0  0  0
  1  2  1  0  0  0  0
  1 39  1  0  0  0  0
  3  4  1  0  0  0  0
  5  6  1  0  0  0  0
  5 40  1  0  0  0  0
  9 10  1  6  0  0  0
  9 14  1  0  0  0  0
  9 35  1  0  0  0  0
 10  1  1  0  0  0  0
 11 16  1  0  0  0  0
 11 28  1  0  0  0  0
 11 26  1  1  0  0  0
 12 17  1  0  0  0  0
 12 34  1  0  0  0  0
 12 13  1  1  0  0  0
 14 15  1  1  0  0  0
 14 19  1  0  0  0  0
 16 13  1  6  0  0  0
 16 21  1  0  0  0  0
 17 18  1  1  0  0  0
 17 23  1  0  0  0  0
 18  8  1  0  0  0  0
 19 20  1  6  0  0  0
 19 25  1  0  0  0  0
 20  5  1  0  0  0  0
 21  3  1  1  0  0  0
 21 22  1  0  0  0  0
 21 27  1  0  0  0  0
 23 24  1  6  0  0  0
 23 29  1  0  0  0  0
 25 26  1  1  0  0  0
 25 31  1  0  0  0  0
 27  7  1  6  0  0  0
 27 28  1  0  0  0  0
 29 30  1  1  0  0  0
 29 33  1  0  0  0  0
 31 32  1  6  0  0  0
 31 35  1  0  0  0  0
 33 34  1  0  0  0  0
 33 37  1  6  0  0  0
 35 36  1  1  0  0  0
 37 38  1  0  0  0  0
M  END
>  <CHROM.1>
-135.35525931,148.02292545,162.06912496,123.32623809,-68.39418996,-81.13140779
128.90158508,38.25859243,-6.31782243,-149.50421439,-65.92697569,19.51956600
26.20201141,-1.46293348,-1.83624051,-1.06176377,-3.04488729

>  <Name>
1nta_lig

>  <RI>
0

>  <Rbt.Current_Directory>
/home/itssahil/PROJECTS/Mol_Feturizer/New_Systems/rnas/1nta

>  <Rbt.Executable>
rbdock ($Id: //depot/dev/client3/rdock/2013.1/src/exe/rbdock.cxx#4 $)

>  <Rbt.Library>
libRbt.so (2013.1, Build901 2013/11/27)

>  <Rbt.Parameter_File>
/export/apps/rDock/src/rDock_2013.1_src/data/scripts/dock_solv.prm

>  <Rbt.Receptor>
prm/blind_docking_60.prm

>  <SCORE>
1.83061

>  <SCORE.INTER>
3.65393

>  <SCORE.INTER.CONST>
1

>  <SCORE.INTER.POLAR>
-0.0964323

>  <SCORE.INTER.ROT>
11

>  <SCORE.INTER.SOLV>
13.7981

>  <SCORE.INTER.VDW>
-12.7753

>  <SCORE.INTER.norm>
0.0913482

>  <SCORE.INTRA>
-4.14526

>  <SCORE.INTRA.DIHEDRAL>
2.3729

>  <SCORE.INTRA.DIHEDRAL.0>
19.0336

>  <SCORE.INTRA.POLAR>
0

>  <SCORE.INTRA.POLAR.0>
0

>  <SCORE.INTRA.REPUL>
0

>  <SCORE.INTRA.REPUL.0>
0

>  <SCORE.INTRA.SOLV>
-3.08089

>  <SCORE.INTRA.SOLV.lig_0>
-97.5861

>  <SCORE.INTRA.VDW>
-3.79126

>  <SCORE.INTRA.VDW.0>
11.7669

>  <SCORE.INTRA.norm>
-0.103631

>  <SCORE.RESTR>
2.32194

>  <SCORE.RESTR.CAVITY>
2.32194

>  <SCORE.RESTR.norm>
0.0580485

>  <SCORE.SYSTEM>
0

>  <SCORE.SYSTEM.CONST>
0

>  <SCORE.SYSTEM.DIHEDRAL>
0

>  <SCORE.SYSTEM.SOLV>
0

>  <SCORE.SYSTEM.norm>
0

>  <SCORE.heavy>
40

>  <SCORE.norm>
0.0457654

>  <RMSD>
20.911

$$$$
1nta_lig
 OpenBabel11021811403D
libRbt.so/2013.1/901 2013/11/27
 40 42  0  0  0  0  0  0  0  0999 V2000
   18.9016   31.3903   -1.2707 C   0  0  0  0  0  0  0  0  0  0  0  0
   17.6509   31.5236   -1.5116 N   0  0  0  0  0  0  0  0  0  0  0  0
   19.4223   23.0062    2.3042 C   0  0  0  0  0  0  0  0  0  0  0  0
   19.1142   23.9914    2.9381 O   0  0  0  0  0  0  0  0  0  0  0  0
   19.2444   27.0664    2.8675 C   0  0  0  0  0  0  0  0  0  0  0  0
   20.2659   27.7559    3.3042 N   0  0  0  0  0  0  0  0  0  0  0  0
   16.6274   21.3212    1.6632 C   0  0  0  0  0  0  0  0  0  0  0  0
   21.8754   26.1741   -1.2588 C   0  0  0  0  0  0  0  0  0  0  0  0
   18.5596   29.0651   -0.9936 C   0  0  2  0  0  0  0  0  0  0  0  0
   19.4100   30.1965   -1.5371 N   0  0  0  0  0  0  0  0  0  0  0  0
   17.7628   23.8791   -0.5859 C   0  0  2  0  0  0  0  0  0  0  0  0
   19.9848   23.9978   -2.0730 C   0  0  1  0  0  0  0  0  0  0  0  0
   19.9187   23.0807   -1.0376 O   0  0  0  0  0  0  0  0  0  0  0  0
   19.3203   28.3188    0.1188 C   0  0  1  0  0  0  0  0  0  0  0  0
   19.5255   29.2278    1.1577 O   0  0  0  0  0  0  0  0  0  0  0  0
   19.1343   23.4814   -0.0510 C   0  0  2  0  0  0  0  0  0  0  0  0
   21.3792   24.3262   -2.5594 C   0  0  1  0  0  0  0  0  0  0  0  0
   22.1570   24.7614   -1.4514 N   0  0  0  0  0  0  0  0  0  0  0  0
   18.5143   27.1451    0.6912 C   0  0  2  0  0  0  0  0  0  0  0  0
   19.2188   26.4004    1.7623 N   0  0  0  0  0  0  0  0  0  0  0  0
   18.7597   22.5614    1.0279 C   0  0  1  0  0  0  0  0  0  0  0  0
   19.1769   21.2530    0.6328 O   0  0  0  0  0  0  0  0  0  0  0  0
   21.9856   23.2141   -3.1266 C   0  0  2  0  0  0  0  0  0  0  0  0
   23.1311   23.6562   -3.8102 O   0  0  0  0  0  0  0  0  0  0  0  0
   18.1933   26.1928   -0.4498 C   0  0  1  0  0  0  0  0  0  0  0  0
   17.4452   25.1117    0.0843 O   0  0  0  0  0  0  0  0  0  0  0  0
   17.2975   22.5623    1.1607 C   0  0  1  0  0  0  0  0  0  0  0  0
   16.8337   22.9203   -0.1353 O   0  0  0  0  0  0  0  0  0  0  0  0
   21.0486   22.5438   -4.0968 C   0  0  1  0  0  0  0  0  0  0  0  0
   21.5855   21.3078   -4.4660 O   0  0  0  0  0  0  0  0  0  0  0  0
   17.3864   26.9316   -1.5551 C   0  0  2  0  0  0  0  0  0  0  0  0
   17.0862   26.0202   -2.6108 O   0  0  0  0  0  0  0  0  0  0  0  0
   19.7309   22.3052   -3.4418 C   0  0  1  0  0  0  0  0  0  0  0  0
   19.2013   23.5478   -3.0802 O   0  0  0  0  0  0  0  0  0  0  0  0
   18.2336   28.0959   -2.1101 C   0  0  1  0  0  0  0  0  0  0  0  0
   17.5047   28.7914   -3.1347 O   0  0  0  0  0  0  0  0  0  0  0  0
   18.7358   21.6372   -4.4113 C   0  0  0  0  0  0  0  0  0  0  0  0
   17.4665   21.5281   -3.7773 O   0  0  0  0  0  0  0  0  0  0  0  0
   19.6206   32.3493   -0.7958 N   0  0  0  0  0  0  0  0  0  0  0  0
   18.1795   27.0009    3.5663 N   0  0  0  0  0  0  0  0  0  0  0  0
  1  2  1  0  0  0  0
  1 39  1  0  0  0  0
  3  4  1  0  0  0  0
  5  6  1  0  0  0  0
  5 40  1  0  0  0  0
  9 10  1  6  0  0  0
  9 14  1  0  0  0  0
  9 35  1  0  0  0  0
 10  1  1  0  0  0  0
 11 16  1  0  0  0  0
 11 28  1  0  0  0  0
 11 26  1  1  0  0  0
 12 17  1  0  0  0  0
 12 34  1  0  0  0  0
 12 13  1  1  0  0  0
 14 15  1  1  0  0  0
 14 19  1  0  0  0  0
 16 13  1  6  0  0  0
 16 21  1  0  0  0  0
 17 18  1  1  0  0  0
 17 23  1  0  0  0  0
 18  8  1  0  0  0  0
 19 20  1  1  0  0  0
 19 25  1  0  0  0  0
 20  5  1  0  0  0  0
 21  3  1  1  0  0  0
 21 22  1  0  0  0  0
 21 27  1  0  0  0  0
 23 24  1  6  0  0  0
 23 29  1  0  0  0  0
 25 26  1  1  0  0  0
 25 31  1  0  0  0  0
 27  7  1  6  0  0  0
 27 28  1  0  0  0  0
 29 30  1  1  0  0  0
 29 33  1  0  0  0  0
 31 32  1  6  0  0  0
 31 35  1  0  0  0  0
 33 34  1  0  0  0  0
 33 37  1  6  0  0  0
 35 36  1  6  0  0  0
 37 38  1  0  0  0  0
M  END
>  <CHROM.1>
-113.71861684,-46.94658603,74.75993164,131.78938018,52.39177083,-83.37065736
73.98090440,-100.29354102,71.44712438,-145.22093447,-175.39364353,19.15943499
25.33740019,-0.82276551,-1.90395807,-1.23985669,3.09026745

>  <Name>
1nta_lig

>  <RI>
1.05895e+07

>  <Rbt.Current_Directory>
/home/itssahil/PROJECTS/Mol_Feturizer/New_Systems/rnas/1nta

>  <Rbt.Executable>
rbdock ($Id: //depot/dev/client3/rdock/2013.1/src/exe/rbdock.cxx#4 $)

>  <Rbt.Library>
libRbt.so (2013.1, Build901 2013/11/27)

>  <Rbt.Parameter_File>
/export/apps/rDock/src/rDock_2013.1_src/data/scripts/dock_solv.prm

>  <Rbt.Receptor>
prm/blind_docking_100.prm

>  <SCORE>
-31.6771

>  <SCORE.INTER>
-14.3054

>  <SCORE.INTER.CONST>
1

>  <SCORE.INTER.POLAR>
-1.50858

>  <SCORE.INTER.ROT>
11

>  <SCORE.INTER.SOLV>
14.2895

>  <SCORE.INTER.VDW>
-20.2048

>  <SCORE.INTER.norm>
-0.357634

>  <SCORE.INTRA>
-17.793

>  <SCORE.INTRA.DIHEDRAL>
-3.21059

>  <SCORE.INTRA.DIHEDRAL.0>
19.0336

>  <SCORE.INTRA.POLAR>
0

>  <SCORE.INTRA.POLAR.0>
0

>  <SCORE.INTRA.REPUL>
0

>  <SCORE.INTRA.REPUL.0>
0

>  <SCORE.INTRA.SOLV>
-1.76454

>  <SCORE.INTRA.SOLV.lig_0>
-97.5861

>  <SCORE.INTRA.VDW>
-15.3054

>  <SCORE.INTRA.VDW.0>
11.7669

>  <SCORE.INTRA.norm>
-0.444824

>  <SCORE.RESTR>
0.421237

>  <SCORE.RESTR.CAVITY>
0.421237

>  <SCORE.RESTR.norm>
0.0105309

>  <SCORE.SYSTEM>
0

>  <SCORE.SYSTEM.CONST>
0

>  <SCORE.SYSTEM.DIHEDRAL>
0

>  <SCORE.SYSTEM.SOLV>
0

>  <SCORE.SYSTEM.norm>
0

>  <SCORE.heavy>
40

>  <SCORE.norm>
-0.791928

>  <RMSD>
20.926

$$$$
1nta_lig
 OpenBabel11021811403D
libRbt.so/2013.1/901 2013/11/27
 40 42  0  0  0  0  0  0  0  0999 V2000
   19.3748   31.3514   -0.9692 C   0  0  0  0  0  0  0  0  0  0  0  0
   18.2002   31.8542   -0.8825 N   0  0  0  0  0  0  0  0  0  0  0  0
   19.8264   23.1027    1.6045 C   0  0  0  0  0  0  0  0  0  0  0  0
   20.9918   23.3565    1.3932 O   0  0  0  0  0  0  0  0  0  0  0  0
   18.6187   26.7222    2.8806 C   0  0  0  0  0  0  0  0  0  0  0  0
   18.0763   25.8199    3.6562 N   0  0  0  0  0  0  0  0  0  0  0  0
   16.9674   21.4081    1.7306 C   0  0  0  0  0  0  0  0  0  0  0  0
   21.8713   20.4470   -3.3031 C   0  0  0  0  0  0  0  0  0  0  0  0
   18.5687   29.1286   -1.0700 C   0  0  2  0  0  0  0  0  0  0  0  0
   19.4603   30.2135   -1.6419 N   0  0  0  0  0  0  0  0  0  0  0  0
   17.4186   24.0331   -0.6770 C   0  0  2  0  0  0  0  0  0  0  0  0
   20.7448   23.2061   -1.7604 C   0  0  1  0  0  0  0  0  0  0  0  0
   19.3616   23.2669   -1.7386 O   0  0  0  0  0  0  0  0  0  0  0  0
   19.3092   28.3700    0.0477 C   0  0  1  0  0  0  0  0  0  0  0  0
   19.5638   29.2873    1.0684 O   0  0  0  0  0  0  0  0  0  0  0  0
   18.8860   23.6349   -0.5606 C   0  0  2  0  0  0  0  0  0  0  0  0
   21.3501   22.6864   -3.0458 C   0  0  1  0  0  0  0  0  0  0  0  0
   20.7858   21.4129   -3.3323 N   0  0  0  0  0  0  0  0  0  0  0  0
   18.4606   27.2416    0.6489 C   0  0  2  0  0  0  0  0  0  0  0  0
   19.1445   26.4863    1.7258 N   0  0  0  0  0  0  0  0  0  0  0  0
   18.8321   22.6842    0.5548 C   0  0  1  0  0  0  0  0  0  0  0  0
   19.1237   21.3903    0.0229 O   0  0  0  0  0  0  0  0  0  0  0  0
   21.0874   23.5442   -4.1047 C   0  0  2  0  0  0  0  0  0  0  0  0
   21.9132   23.1633   -5.1761 O   0  0  0  0  0  0  0  0  0  0  0  0
   18.0875   26.2843   -0.4719 C   0  0  1  0  0  0  0  0  0  0  0  0
   17.3002   25.2452    0.0887 O   0  0  0  0  0  0  0  0  0  0  0  0
   17.4665   22.6679    1.0937 C   0  0  1  0  0  0  0  0  0  0  0  0
   16.6558   23.0544   -0.0092 O   0  0  0  0  0  0  0  0  0  0  0  0
   21.3932   24.9666   -3.7153 C   0  0  1  0  0  0  0  0  0  0  0  0
   20.8978   25.8237   -4.7014 O   0  0  0  0  0  0  0  0  0  0  0  0
   17.3006   27.0375   -1.5819 C   0  0  2  0  0  0  0  0  0  0  0  0
   16.9509   26.1215   -2.6183 O   0  0  0  0  0  0  0  0  0  0  0  0
   20.7163   25.2934   -2.4278 C   0  0  1  0  0  0  0  0  0  0  0  0
   21.2219   24.4331   -1.4482 O   0  0  0  0  0  0  0  0  0  0  0  0
   18.1901   28.1550   -2.1658 C   0  0  1  0  0  0  0  0  0  0  0  0
   17.4803   28.8630   -3.1952 O   0  0  0  0  0  0  0  0  0  0  0  0
   21.0222   26.7378   -1.9845 C   0  0  0  0  0  0  0  0  0  0  0  0
   22.3783   26.8200   -1.5611 O   0  0  0  0  0  0  0  0  0  0  0  0
   20.4071   31.9090   -0.4348 N   0  0  0  0  0  0  0  0  0  0  0  0
   18.6301   27.9447    3.2435 N   0  0  0  0  0  0  0  0  0  0  0  0
  1  2  1  0  0  0  0
  1 39  1  0  0  0  0
  3  4  1  0  0  0  0
  5  6  1  0  0  0  0
  5 40  1  0  0  0  0
  9 10  1  6  0  0  0
  9 14  1  0  0  0  0
  9 35  1  0  0  0  0
 10  1  1  0  0  0  0
 11 16  1  0  0  0  0
 11 28  1  0  0  0  0
 11 26  1  1  0  0  0
 12 17  1  0  0  0  0
 12 34  1  0  0  0  0
 12 13  1  6  0  0  0
 14 15  1  1  0  0  0
 14 19  1  0  0  0  0
 16 13  1  6  0  0  0
 16 21  1  0  0  0  0
 17 18  1  6  0  0  0
 17 23  1  0  0  0  0
 18  8  1  0  0  0  0
 19 20  1  1  0  0  0
 19 25  1  0  0  0  0
 20  5  1  0  0  0  0
 21  3  1  1  0  0  0
 21 22  1  0  0  0  0
 21 27  1  0  0  0  0
 23 24  1  6  0  0  0
 23 29  1  0  0  0  0
 25 26  1  1  0  0  0
 25 31  1  0  0  0  0
 27  7  1  6  0  0  0
 27 28  1  0  0  0  0
 29 30  1  6  0  0  0
 29 33  1  0  0  0  0
 31 32  1  6  0  0  0
 31 35  1  0  0  0  0
 33 34  1  0  0  0  0
 33 37  1  1  0  0  0
 35 36  1  6  0  0  0
 37 38  1  0  0  0  0
M  END
>  <CHROM.1>
-86.91184075,-57.30807423,63.21879183,175.38456865,165.42763851,-117.33627988
110.11630036,119.89400545,-50.77270340,-153.16142726,-71.26462618,19.36335440
25.59152316,-0.89428585,-1.91958831,-1.07338499,3.02477653

>  <Name>
1nta_lig

>  <RI>
1.05895e+07

>  <Rbt.Current_Directory>
/home/itssahil/PROJECTS/Mol_Feturizer/New_Systems/rnas/1nta

>  <Rbt.Executable>
rbdock ($Id: //depot/dev/client3/rdock/2013.1/src/exe/rbdock.cxx#4 $)

>  <Rbt.Library>
libRbt.so (2013.1, Build901 2013/11/27)

>  <Rbt.Parameter_File>
/export/apps/rDock/src/rDock_2013.1_src/data/scripts/dock_solv.prm

>  <Rbt.Receptor>
prm/blind_docking_100.prm

>  <SCORE>
-31.485

>  <SCORE.INTER>
-9.01051

>  <SCORE.INTER.CONST>
1

>  <SCORE.INTER.POLAR>
-0.920581

>  <SCORE.INTER.ROT>
11

>  <SCORE.INTER.SOLV>
16.957

>  <SCORE.INTER.VDW>
-19.5241

>  <SCORE.INTER.norm>
-0.225263

>  <SCORE.INTRA>
-22.5871

>  <SCORE.INTRA.DIHEDRAL>
-9.92168

>  <SCORE.INTRA.DIHEDRAL.0>
19.0336

>  <SCORE.INTRA.POLAR>
0

>  <SCORE.INTRA.POLAR.0>
0

>  <SCORE.INTRA.REPUL>
0

>  <SCORE.INTRA.REPUL.0>
0

>  <SCORE.INTRA.SOLV>
-1.62571

>  <SCORE.INTRA.SOLV.lig_0>
-97.5861

>  <SCORE.INTRA.VDW>
-16.8134

>  <SCORE.INTRA.VDW.0>
11.7669

>  <SCORE.INTRA.norm>
-0.564678

>  <SCORE.RESTR>
0.112639

>  <SCORE.RESTR.CAVITY>
0.112639

>  <SCORE.RESTR.norm>
0.00281598

>  <SCORE.SYSTEM>
0

>  <SCORE.SYSTEM.CONST>
0

>  <SCORE.SYSTEM.DIHEDRAL>
0

>  <SCORE.SYSTEM.SOLV>
0

>  <SCORE.SYSTEM.norm>
0

>  <SCORE.heavy>
40

>  <SCORE.norm>
-0.787124

>  <RMSD>
20.943

$$$$
1nta_lig
 OpenBabel11021811403D
libRbt.so/2013.1/901 2013/11/27
 40 42  0  0  0  0  0  0  0  0999 V2000
   19.4797   33.6501   -0.0065 C   0  0  0  0  0  0  0  0  0  0  0  0
   18.5221   34.4597   -0.2667 N   0  0  0  0  0  0  0  0  0  0  0  0
   17.3133   24.1386   -0.1160 C   0  0  0  0  0  0  0  0  0  0  0  0
   16.4585   23.3317    0.1766 O   0  0  0  0  0  0  0  0  0  0  0  0
   21.6931   27.1527    0.2285 C   0  0  0  0  0  0  0  0  0  0  0  0
   21.7163   25.9019   -0.1519 N   0  0  0  0  0  0  0  0  0  0  0  0
   15.4662   25.8016   -2.3260 C   0  0  0  0  0  0  0  0  0  0  0  0
   18.2067   20.9433   -0.3670 C   0  0  0  0  0  0  0  0  0  0  0  0
   19.4946   31.3560   -0.5878 C   0  0  2  0  0  0  0  0  0  0  0  0
   19.7818   32.7945   -0.9716 N   0  0  0  0  0  0  0  0  0  0  0  0
   19.0121   26.3373   -2.1527 C   0  0  2  0  0  0  0  0  0  0  0  0
   20.3976   23.1159   -1.7621 C   0  0  1  0  0  0  0  0  0  0  0  0
   19.7598   24.1365   -2.4470 O   0  0  0  0  0  0  0  0  0  0  0  0
   20.7631   30.4992   -0.7601 C   0  0  1  0  0  0  0  0  0  0  0  0
   21.7161   30.9911    0.1331 O   0  0  0  0  0  0  0  0  0  0  0  0
   19.0187   24.8952   -1.6570 C   0  0  2  0  0  0  0  0  0  0  0  0
   19.7539   21.7523   -1.8851 C   0  0  1  0  0  0  0  0  0  0  0  0
   18.3932   21.8536   -1.4845 N   0  0  0  0  0  0  0  0  0  0  0  0
   20.5245   29.0250   -0.4073 C   0  0  2  0  0  0  0  0  0  0  0  0
   21.7245   28.1690   -0.5664 N   0  0  0  0  0  0  0  0  0  0  0  0
   17.5818   24.6419   -1.5090 C   0  0  1  0  0  0  0  0  0  0  0  0
   17.2153   23.6863   -2.5063 O   0  0  0  0  0  0  0  0  0  0  0  0
   19.8054   21.2913   -3.1931 C   0  0  2  0  0  0  0  0  0  0  0  0
   19.4690   19.9269   -3.1772 O   0  0  0  0  0  0  0  0  0  0  0  0
   19.4149   28.4995   -1.3042 C   0  0  1  0  0  0  0  0  0  0  0  0
   19.1959   27.1375   -0.9714 O   0  0  0  0  0  0  0  0  0  0  0  0
   16.8544   25.8899   -1.7718 C   0  0  1  0  0  0  0  0  0  0  0  0
   17.7185   26.6173   -2.6361 O   0  0  0  0  0  0  0  0  0  0  0  0
   21.1929   21.4604   -3.7542 C   0  0  1  0  0  0  0  0  0  0  0  0
   21.1589   21.2175   -5.1298 O   0  0  0  0  0  0  0  0  0  0  0  0
   18.1187   29.3344   -1.1003 C   0  0  2  0  0  0  0  0  0  0  0  0
   17.0875   28.8202   -1.9415 O   0  0  0  0  0  0  0  0  0  0  0  0
   21.6571   22.8604   -3.5373 C   0  0  1  0  0  0  0  0  0  0  0  0
   21.6910   23.0913   -2.1586 O   0  0  0  0  0  0  0  0  0  0  0  0
   18.3978   30.8052   -1.4741 C   0  0  1  0  0  0  0  0  0  0  0  0
   17.2104   31.5939   -1.2931 O   0  0  0  0  0  0  0  0  0  0  0  0
   23.0844   23.0683   -4.0813 C   0  0  0  0  0  0  0  0  0  0  0  0
   23.0246   23.2632   -5.4897 O   0  0  0  0  0  0  0  0  0  0  0  0
   20.1071   33.6599    1.1197 N   0  0  0  0  0  0  0  0  0  0  0  0
   21.6105   27.4356    1.4693 N   0  0  0  0  0  0  0  0  0  0  0  0
  1  2  1  0  0  0  0
  1 39  1  0  0  0  0
  3  4  1  0  0  0  0
  5  6  1  0  0  0  0
  5 40  1  0  0  0  0
  9 10  1  6  0  0  0
  9 14  1  0  0  0  0
  9 35  1  0  0  0  0
 10  1  1  0  0  0  0
 11 16  1  0  0  0  0
 11 28  1  0  0  0  0
 11 26  1  1  0  0  0
 12 17  1  0  0  0  0
 12 34  1  0  0  0  0
 12 13  1  6  0  0  0
 14 15  1  1  0  0  0
 14 19  1  0  0  0  0
 16 13  1  6  0  0  0
 16 21  1  0  0  0  0
 17 18  1  6  0  0  0
 17 23  1  0  0  0  0
 18  8  1  0  0  0  0
 19 20  1  6  0  0  0
 19 25  1  0  0  0  0
 20  5  1  0  0  0  0
 21  3  1  1  0  0  0
 21 22  1  0  0  0  0
 21 27  1  0  0  0  0
 23 24  1  1  0  0  0
 23 29  1  0  0  0  0
 25 26  1  1  0  0  0
 25 31  1  0  0  0  0
 27  7  1  6  0  0  0
 27 28  1  0  0  0  0
 29 30  1  6  0  0  0
 29 33  1  0  0  0  0
 31 32  1  6  0  0  0
 31 35  1  0  0  0  0
 33 34  1  0  0  0  0
 33 37  1  1  0  0  0
 35 36  1  1  0  0  0
 37 38  1  0  0  0  0
M  END
>  <CHROM.1>
-124.93574951,-114.37214305,171.04910428,101.21086607,146.98514866,-120.70612673
152.30527851,120.48504726,-146.20218993,-137.96244743,80.31502506,19.50239930
26.30555395,-1.57538659,-1.62942191,-0.17830107,-2.90497537

>  <Name>
1nta_lig

>  <RI>
0

>  <Rbt.Current_Directory>
/home/itssahil/PROJECTS/Mol_Feturizer/New_Systems/rnas/1nta

>  <Rbt.Executable>
rbdock ($Id: //depot/dev/client3/rdock/2013.1/src/exe/rbdock.cxx#4 $)

>  <Rbt.Library>
libRbt.so (2013.1, Build901 2013/11/27)

>  <Rbt.Parameter_File>
/export/apps/rDock/src/rDock_2013.1_src/data/scripts/dock_solv.prm

>  <Rbt.Receptor>
prm/blind_docking_60.prm

>  <SCORE>
-11.8809

>  <SCORE.INTER>
-1.57197

>  <SCORE.INTER.CONST>
1

>  <SCORE.INTER.POLAR>
0

>  <SCORE.INTER.ROT>
11

>  <SCORE.INTER.SOLV>
14.673

>  <SCORE.INTER.VDW>
-16.8723

>  <SCORE.INTER.norm>
-0.0392993

>  <SCORE.INTRA>
-12.7392

>  <SCORE.INTRA.DIHEDRAL>
4.93263

>  <SCORE.INTRA.DIHEDRAL.0>
19.0336

>  <SCORE.INTRA.POLAR>
0

>  <SCORE.INTRA.POLAR.0>
0

>  <SCORE.INTRA.REPUL>
0

>  <SCORE.INTRA.REPUL.0>
0

>  <SCORE.INTRA.SOLV>
0.813071

>  <SCORE.INTRA.SOLV.lig_0>
-97.5861

>  <SCORE.INTRA.VDW>
-15.6121

>  <SCORE.INTRA.VDW.0>
11.7669

>  <SCORE.INTRA.norm>
-0.318481

>  <SCORE.RESTR>
2.43027

>  <SCORE.RESTR.CAVITY>
2.43027

>  <SCORE.RESTR.norm>
0.0607568

>  <SCORE.SYSTEM>
0

>  <SCORE.SYSTEM.CONST>
0

>  <SCORE.SYSTEM.DIHEDRAL>
0

>  <SCORE.SYSTEM.SOLV>
0

>  <SCORE.SYSTEM.norm>
0

>  <SCORE.heavy>
40

>  <SCORE.norm>
-0.297023

>  <RMSD>
20.965

$$$$
1nta_lig
 OpenBabel11021811403D
libRbt.so/2013.1/901 2013/11/27
 40 42  0  0  0  0  0  0  0  0999 V2000
   19.0429   31.5645   -0.9797 C   0  0  0  0  0  0  0  0  0  0  0  0
   20.0482   32.1258   -0.4189 N   0  0  0  0  0  0  0  0  0  0  0  0
   19.7225   23.2134    1.7284 C   0  0  0  0  0  0  0  0  0  0  0  0
   19.6815   22.7686    2.8544 O   0  0  0  0  0  0  0  0  0  0  0  0
   18.4718   27.1519    2.9647 C   0  0  0  0  0  0  0  0  0  0  0  0
   18.7056   28.3401    3.4579 N   0  0  0  0  0  0  0  0  0  0  0  0
   16.8843   21.4824    1.6301 C   0  0  0  0  0  0  0  0  0  0  0  0
   21.4987   20.1236   -3.1425 C   0  0  0  0  0  0  0  0  0  0  0  0
   18.4195   29.2827   -1.0503 C   0  0  2  0  0  0  0  0  0  0  0  0
   19.2930   30.4066   -1.5725 N   0  0  0  0  0  0  0  0  0  0  0  0
   17.4627   24.1566   -0.6948 C   0  0  2  0  0  0  0  0  0  0  0  0
   20.8077   23.0559   -1.4931 C   0  0  1  0  0  0  0  0  0  0  0  0
   19.4831   23.4336   -1.6352 O   0  0  0  0  0  0  0  0  0  0  0  0
   19.1099   28.5836    0.1361 C   0  0  1  0  0  0  0  0  0  0  0  0
   19.2334   29.5291    1.1553 O   0  0  0  0  0  0  0  0  0  0  0  0
   18.9239   23.7740   -0.4860 C   0  0  2  0  0  0  0  0  0  0  0  0
   21.4262   22.3942   -2.7048 C   0  0  1  0  0  0  0  0  0  0  0  0
   20.6225   21.2811   -3.0754 N   0  0  0  0  0  0  0  0  0  0  0  0
   18.2793   27.4191    0.6916 C   0  0  2  0  0  0  0  0  0  0  0  0
   18.9165   26.7195    1.8329 N   0  0  0  0  0  0  0  0  0  0  0  0
   18.8073   22.8023    0.6063 C   0  0  1  0  0  0  0  0  0  0  0  0
   19.1513   21.5221    0.0728 O   0  0  0  0  0  0  0  0  0  0  0  0
   21.4959   23.2756   -3.7746 C   0  0  2  0  0  0  0  0  0  0  0  0
   22.3338   22.7011   -4.7456 O   0  0  0  0  0  0  0  0  0  0  0  0
   18.0479   26.4254   -0.4358 C   0  0  1  0  0  0  0  0  0  0  0  0
   17.2766   25.3529    0.0823 O   0  0  0  0  0  0  0  0  0  0  0  0
   17.4086   22.7597    1.0508 C   0  0  1  0  0  0  0  0  0  0  0  0
   16.6694   23.1566   -0.0977 O   0  0  0  0  0  0  0  0  0  0  0  0
   22.0719   24.5945   -3.3305 C   0  0  1  0  0  0  0  0  0  0  0  0
   21.9081   25.5297   -4.3557 O   0  0  0  0  0  0  0  0  0  0  0  0
   17.3109   27.1166   -1.6181 C   0  0  2  0  0  0  0  0  0  0  0  0
   17.0939   26.1669   -2.6603 O   0  0  0  0  0  0  0  0  0  0  0  0
   21.3397   25.0849   -2.1280 C   0  0  1  0  0  0  0  0  0  0  0  0
   21.5134   24.1442   -1.1080 O   0  0  0  0  0  0  0  0  0  0  0  0
   18.1815   28.2729   -2.1529 C   0  0  1  0  0  0  0  0  0  0  0  0
   17.5173   28.9245   -3.2480 O   0  0  0  0  0  0  0  0  0  0  0  0
   21.9144   26.4259   -1.6300 C   0  0  0  0  0  0  0  0  0  0  0  0
   21.2841   26.7786   -0.4039 O   0  0  0  0  0  0  0  0  0  0  0  0
   17.8655   32.0899   -0.9747 N   0  0  0  0  0  0  0  0  0  0  0  0
   17.7748   26.3163    3.6299 N   0  0  0  0  0  0  0  0  0  0  0  0
  1  2  1  0  0  0  0
  1 39  1  0  0  0  0
  3  4  1  0  0  0  0
  5  6  1  0  0  0  0
  5 40  1  0  0  0  0
  9 10  1  6  0  0  0
  9 14  1  0  0  0  0
  9 35  1  0  0  0  0
 10  1  1  0  0  0  0
 11 16  1  0  0  0  0
 11 28  1  0  0  0  0
 11 26  1  1  0  0  0
 12 17  1  0  0  0  0
 12 34  1  0  0  0  0
 12 13  1  6  0  0  0
 14 15  1  1  0  0  0
 14 19  1  0  0  0  0
 16 13  1  6  0  0  0
 16 21  1  0  0  0  0
 17 18  1  6  0  0  0
 17 23  1  0  0  0  0
 18  8  1  0  0  0  0
 19 20  1  1  0  0  0
 19 25  1  0  0  0  0
 20  5  1  0  0  0  0
 21  3  1  1  0  0  0
 21 22  1  0  0  0  0
 21 27  1  0  0  0  0
 23 24  1  6  0  0  0
 23 29  1  0  0  0  0
 25 26  1  1  0  0  0
 25 31  1  0  0  0  0
 27  7  1  6  0  0  0
 27 28  1  0  0  0  0
 29 30  1  6  0  0  0
 29 33  1  0  0  0  0
 31 32  1  6  0  0  0
 31 35  1  0  0  0  0
 33 34  1  0  0  0  0
 33 37  1  1  0  0  0
 35 36  1  6  0  0  0
 37 38  1  0  0  0  0
M  END
>  <CHROM.1>
-90.29217618,123.55730990,65.42558144,168.23613891,-179.00052687,-126.41788123
96.80055149,-68.97728778,165.83085306,-156.43478163,-173.72276791,19.33322751
25.61333749,-0.71690585,-1.99744501,-1.03064126,2.97022955

>  <Name>
1nta_lig

>  <RI>
2.40834e+07

>  <Rbt.Current_Directory>
/home/itssahil/PROJECTS/Mol_Feturizer/New_Systems/rnas/1nta

>  <Rbt.Executable>
rbdock ($Id: //depot/dev/client3/rdock/2013.1/src/exe/rbdock.cxx#4 $)

>  <Rbt.Library>
libRbt.so (2013.1, Build901 2013/11/27)

>  <Rbt.Parameter_File>
/export/apps/rDock/src/rDock_2013.1_src/data/scripts/dock_solv.prm

>  <Rbt.Receptor>
prm/blind_docking_80.prm

>  <SCORE>
-28.3817

>  <SCORE.INTER>
-5.3276

>  <SCORE.INTER.CONST>
1

>  <SCORE.INTER.POLAR>
-0.996703

>  <SCORE.INTER.ROT>
11

>  <SCORE.INTER.SOLV>
16.8755

>  <SCORE.INTER.VDW>
-16.7879

>  <SCORE.INTER.norm>
-0.13319

>  <SCORE.INTRA>
-23.5186

>  <SCORE.INTRA.DIHEDRAL>
-10.982

>  <SCORE.INTRA.DIHEDRAL.0>
19.0336

>  <SCORE.INTRA.POLAR>
0

>  <SCORE.INTRA.POLAR.0>
0

>  <SCORE.INTRA.REPUL>
0

>  <SCORE.INTRA.REPUL.0>
0

>  <SCORE.INTRA.SOLV>
-2.44276

>  <SCORE.INTRA.SOLV.lig_0>
-97.5861

>  <SCORE.INTRA.VDW>
-16.8062

>  <SCORE.INTRA.VDW.0>
11.7669

>  <SCORE.INTRA.norm>
-0.587964

>  <SCORE.RESTR>
0.464439

>  <SCORE.RESTR.CAVITY>
0.464439

>  <SCORE.RESTR.norm>
0.011611

>  <SCORE.SYSTEM>
0

>  <SCORE.SYSTEM.CONST>
0

>  <SCORE.SYSTEM.DIHEDRAL>
0

>  <SCORE.SYSTEM.SOLV>
0

>  <SCORE.SYSTEM.norm>
0

>  <SCORE.heavy>
40

>  <SCORE.norm>
-0.709543

>  <RMSD>
20.969

$$$$
1nta_lig
 OpenBabel11021811403D
libRbt.so/2013.1/901 2013/11/27
 40 42  0  0  0  0  0  0  0  0999 V2000
   18.6658   31.5666   -1.5756 C   0  0  0  0  0  0  0  0  0  0  0  0
   19.1602   32.4612   -0.8040 N   0  0  0  0  0  0  0  0  0  0  0  0
   19.7293   23.2159    1.7122 C   0  0  0  0  0  0  0  0  0  0  0  0
   20.9145   23.4379    1.5964 O   0  0  0  0  0  0  0  0  0  0  0  0
   18.5771   27.1058    2.9356 C   0  0  0  0  0  0  0  0  0  0  0  0
   17.3748   26.9608    3.4288 N   0  0  0  0  0  0  0  0  0  0  0  0
   16.9013   21.4682    1.6155 C   0  0  0  0  0  0  0  0  0  0  0  0
   21.5545   20.1319   -3.1804 C   0  0  0  0  0  0  0  0  0  0  0  0
   18.4210   29.2735   -1.0443 C   0  0  2  0  0  0  0  0  0  0  0  0
   19.2910   30.3988   -1.5694 N   0  0  0  0  0  0  0  0  0  0  0  0
   17.4680   24.1373   -0.7180 C   0  0  2  0  0  0  0  0  0  0  0  0
   20.8231   23.0617   -1.5083 C   0  0  1  0  0  0  0  0  0  0  0  0
   19.4941   23.4227   -1.6526 O   0  0  0  0  0  0  0  0  0  0  0  0
   19.1333   28.5510    0.1149 C   0  0  1  0  0  0  0  0  0  0  0  0
   19.2878   29.4797    1.1453 O   0  0  0  0  0  0  0  0  0  0  0  0
   18.9311   23.7640   -0.5055 C   0  0  2  0  0  0  0  0  0  0  0  0
   21.4479   22.3955   -2.7144 C   0  0  1  0  0  0  0  0  0  0  0  0
   20.6568   21.2698   -3.0734 N   0  0  0  0  0  0  0  0  0  0  0  0
   18.3065   27.3843    0.6718 C   0  0  2  0  0  0  0  0  0  0  0  0
   18.9646   26.6624    1.7871 N   0  0  0  0  0  0  0  0  0  0  0  0
   18.8183   22.7956    0.5901 C   0  0  1  0  0  0  0  0  0  0  0  0
   19.1706   21.5154    0.0617 O   0  0  0  0  0  0  0  0  0  0  0  0
   21.5065   23.2674   -3.7926 C   0  0  2  0  0  0  0  0  0  0  0  0
   22.3500   22.6933   -4.7590 O   0  0  0  0  0  0  0  0  0  0  0  0
   18.0413   26.4099   -0.4650 C   0  0  1  0  0  0  0  0  0  0  0  0
   17.2738   25.3353    0.0545 O   0  0  0  0  0  0  0  0  0  0  0  0
   17.4192   22.7464    1.0325 C   0  0  1  0  0  0  0  0  0  0  0  0
   16.6796   23.1350   -0.1186 O   0  0  0  0  0  0  0  0  0  0  0  0
   22.0677   24.5970   -3.3617 C   0  0  1  0  0  0  0  0  0  0  0  0
   21.8921   25.5203   -4.3957 O   0  0  0  0  0  0  0  0  0  0  0  0
   17.2825   27.1248   -1.6190 C   0  0  2  0  0  0  0  0  0  0  0  0
   17.0339   26.1930   -2.6703 O   0  0  0  0  0  0  0  0  0  0  0  0
   21.3311   25.0905   -2.1632 C   0  0  1  0  0  0  0  0  0  0  0  0
   21.5166   24.1616   -1.1345 O   0  0  0  0  0  0  0  0  0  0  0  0
   18.1496   28.2827   -2.1563 C   0  0  1  0  0  0  0  0  0  0  0  0
   17.4653   28.9561   -3.2255 O   0  0  0  0  0  0  0  0  0  0  0  0
   21.8908   26.4426   -1.6787 C   0  0  0  0  0  0  0  0  0  0  0  0
   21.3525   26.7390   -0.3952 O   0  0  0  0  0  0  0  0  0  0  0  0
   17.6321   31.7848   -2.3145 N   0  0  0  0  0  0  0  0  0  0  0  0
   19.4592   27.7477    3.5961 N   0  0  0  0  0  0  0  0  0  0  0  0
  1  2  1  0  0  0  0
  1 39  1  0  0  0  0
  3  4  1  0  0  0  0
  5  6  1  0  0  0  0
  5 40  1  0  0  0  0
  9 10  1  6  0  0  0
  9 14  1  0  0  0  0
  9 35  1  0  0  0  0
 10  1  1  0  0  0  0
 11 16  1  0  0  0  0
 11 28  1  0  0  0  0
 11 26  1  1  0  0  0
 12 17  1  0  0  0  0
 12 34  1  0  0  0  0
 12 13  1  6  0  0  0
 14 15  1  1  0  0  0
 14 19  1  0  0  0  0
 16 13  1  6  0  0  0
 16 21  1  0  0  0  0
 17 18  1  6  0  0  0
 17 23  1  0  0  0  0
 18  8  1  0  0  0  0
 19 20  1  1  0  0  0
 19 25  1  0  0  0  0
 20  5  1  0  0  0  0
 21  3  1  1  0  0  0
 21 22  1  0  0  0  0
 21 27  1  0  0  0  0
 23 24  1  6  0  0  0
 23 29  1  0  0  0  0
 25 26  1  1  0  0  0
 25 31  1  0  0  0  0
 27  7  1  6  0  0  0
 27 28  1  0  0  0  0
 29 30  1  6  0  0  0
 29 33  1  0  0  0  0
 31 32  1  6  0  0  0
 31 35  1  0  0  0  0
 33 34  1  0  0  0  0
 33 37  1  1  0  0  0
 35 36  1  6  0  0  0
 37 38  1  0  0  0  0
M  END
>  <CHROM.1>
-125.47091150,116.02077598,65.33692760,168.05456245,-179.39988210,-128.55052683
95.01619839,68.27122211,-54.14328378,-154.45486218,-168.27577553,19.34895150
25.62650502,-0.82459480,-2.06865511,-1.03001066,2.87189346

>  <Name>
1nta_lig

>  <RI>
2.40834e+07

>  <Rbt.Current_Directory>
/home/itssahil/PROJECTS/Mol_Feturizer/New_Systems/rnas/1nta

>  <Rbt.Executable>
rbdock ($Id: //depot/dev/client3/rdock/2013.1/src/exe/rbdock.cxx#4 $)

>  <Rbt.Library>
libRbt.so (2013.1, Build901 2013/11/27)

>  <Rbt.Parameter_File>
/export/apps/rDock/src/rDock_2013.1_src/data/scripts/dock_solv.prm

>  <Rbt.Receptor>
prm/blind_docking_80.prm

>  <SCORE>
-29.6784

>  <SCORE.INTER>
-5.92308

>  <SCORE.INTER.CONST>
1

>  <SCORE.INTER.POLAR>
-1.01497

>  <SCORE.INTER.ROT>
11

>  <SCORE.INTER.SOLV>
20.0815

>  <SCORE.INTER.VDW>
-18.1926

>  <SCORE.INTER.norm>
-0.148077

>  <SCORE.INTRA>
-24.2237

>  <SCORE.INTRA.DIHEDRAL>
-10.3756

>  <SCORE.INTRA.DIHEDRAL.0>
19.0336

>  <SCORE.INTRA.POLAR>
0

>  <SCORE.INTRA.POLAR.0>
0

>  <SCORE.INTRA.REPUL>
0

>  <SCORE.INTRA.REPUL.0>
0

>  <SCORE.INTRA.SOLV>
-2.67919

>  <SCORE.INTRA.SOLV.lig_0>
-97.5861

>  <SCORE.INTRA.VDW>
-17.6963

>  <SCORE.INTRA.VDW.0>
11.7669

>  <SCORE.INTRA.norm>
-0.605593

>  <SCORE.RESTR>
0.468376

>  <SCORE.RESTR.CAVITY>
0.468376

>  <SCORE.RESTR.norm>
0.0117094

>  <SCORE.SYSTEM>
0

>  <SCORE.SYSTEM.CONST>
0

>  <SCORE.SYSTEM.DIHEDRAL>
0

>  <SCORE.SYSTEM.SOLV>
0

>  <SCORE.SYSTEM.norm>
0

>  <SCORE.heavy>
40

>  <SCORE.norm>
-0.74196

>  <RMSD>
20.975

$$$$
1nta_lig
 OpenBabel11021811403D
libRbt.so/2013.1/901 2013/11/27
 40 42  0  0  0  0  0  0  0  0999 V2000
   21.0007   30.5021    3.8288 C   0  0  0  0  0  0  0  0  0  0  0  0
   22.0020   31.2177    3.4748 N   0  0  0  0  0  0  0  0  0  0  0  0
   20.8928   25.2952   -3.0076 C   0  0  0  0  0  0  0  0  0  0  0  0
   21.8563   25.3927   -3.7351 O   0  0  0  0  0  0  0  0  0  0  0  0
   18.0308   29.0506   -1.7567 C   0  0  0  0  0  0  0  0  0  0  0  0
   16.9666   28.3197   -1.9643 N   0  0  0  0  0  0  0  0  0  0  0  0
   22.6339   26.4337   -0.4126 C   0  0  0  0  0  0  0  0  0  0  0  0
   18.1924   21.4251   -4.1096 C   0  0  0  0  0  0  0  0  0  0  0  0
   19.9610   29.2109    2.1399 C   0  0  2  0  0  0  0  0  0  0  0  0
   19.9879   30.4759    2.9754 N   0  0  0  0  0  0  0  0  0  0  0  0
   19.3040   25.1722    0.0467 C   0  0  2  0  0  0  0  0  0  0  0  0
   18.3052   22.5191   -1.1600 C   0  0  1  0  0  0  0  0  0  0  0  0
   19.5591   23.0350   -0.8787 O   0  0  0  0  0  0  0  0  0  0  0  0
   19.6230   29.5509    0.6760 C   0  0  1  0  0  0  0  0  0  0  0  0
   20.6565   30.3538    0.1911 O   0  0  0  0  0  0  0  0  0  0  0  0
   19.6577   24.3216   -1.1684 C   0  0  2  0  0  0  0  0  0  0  0  0
   18.2977   21.1551   -1.8142 C   0  0  1  0  0  0  0  0  0  0  0  0
   19.0946   21.2103   -2.9907 N   0  0  0  0  0  0  0  0  0  0  0  0
   19.5588   28.3022   -0.2137 C   0  0  2  0  0  0  0  0  0  0  0  0
   19.2306   28.5921   -1.6302 N   0  0  0  0  0  0  0  0  0  0  0  0
   20.9466   24.9050   -1.5548 C   0  0  1  0  0  0  0  0  0  0  0  0
   21.9507   23.9209   -1.2988 O   0  0  0  0  0  0  0  0  0  0  0  0
   18.8170   20.1897   -0.9631 C   0  0  2  0  0  0  0  0  0  0  0  0
   18.5087   18.9315   -1.5080 O   0  0  0  0  0  0  0  0  0  0  0  0
   18.5057   27.3680    0.3608 C   0  0  1  0  0  0  0  0  0  0  0  0
   18.4530   26.2139   -0.4633 O   0  0  0  0  0  0  0  0  0  0  0  0
   21.2103   26.0704   -0.7016 C   0  0  1  0  0  0  0  0  0  0  0  0
   20.4870   25.7951    0.4917 O   0  0  0  0  0  0  0  0  0  0  0  0
   18.1991   20.3099    0.4052 C   0  0  1  0  0  0  0  0  0  0  0  0
   18.9051   19.4963    1.2951 O   0  0  0  0  0  0  0  0  0  0  0  0
   18.8670   26.9867    1.8246 C   0  0  2  0  0  0  0  0  0  0  0  0
   17.8741   26.1026    2.3420 O   0  0  0  0  0  0  0  0  0  0  0  0
   18.2975   21.7195    0.8805 C   0  0  1  0  0  0  0  0  0  0  0  0
   17.5851   22.5237   -0.0145 O   0  0  0  0  0  0  0  0  0  0  0  0
   18.9119   28.2660    2.6864 C   0  0  1  0  0  0  0  0  0  0  0  0
   19.2437   27.9342    4.0445 O   0  0  0  0  0  0  0  0  0  0  0  0
   17.6565   21.8877    2.2723 C   0  0  0  0  0  0  0  0  0  0  0  0
   16.3094   21.4317    2.2252 O   0  0  0  0  0  0  0  0  0  0  0  0
   20.9735   29.8530    4.9424 N   0  0  0  0  0  0  0  0  0  0  0  0
   17.9241   30.3197   -1.6902 N   0  0  0  0  0  0  0  0  0  0  0  0
  1  2  1  0  0  0  0
  1 39  1  0  0  0  0
  3  4  1  0  0  0  0
  5  6  1  0  0  0  0
  5 40  1  0  0  0  0
  9 10  1  1  0  0  0
  9 14  1  0  0  0  0
  9 35  1  0  0  0  0
 10  1  1  0  0  0  0
 11 16  1  0  0  0  0
 11 28  1  0  0  0  0
 11 26  1  6  0  0  0
 12 17  1  0  0  0  0
 12 34  1  0  0  0  0
 12 13  1  1  0  0  0
 14 15  1  6  0  0  0
 14 19  1  0  0  0  0
 16 13  1  1  0  0  0
 16 21  1  0  0  0  0
 17 18  1  6  0  0  0
 17 23  1  0  0  0  0
 18  8  1  0  0  0  0
 19 20  1  6  0  0  0
 19 25  1  0  0  0  0
 20  5  1  0  0  0  0
 21  3  1  6  0  0  0
 21 22  1  0  0  0  0
 21 27  1  0  0  0  0
 23 24  1  6  0  0  0
 23 29  1  0  0  0  0
 25 26  1  6  0  0  0
 25 31  1  0  0  0  0
 27  7  1  1  0  0  0
 27 28  1  0  0  0  0
 29 30  1  1  0  0  0
 29 33  1  0  0  0  0
 31 32  1  1  0  0  0
 31 35  1  0  0  0  0
 33 34  1  0  0  0  0
 33 37  1  1  0  0  0
 35 36  1  1  0  0  0
 37 38  1  0  0  0  0
M  END
>  <CHROM.1>
-137.92764042,101.20882349,-154.70123250,137.80173915,91.61422907,-96.87668326
-66.25311945,-90.82433516,-155.02094979,93.79536123,-55.71376317,19.36148147
25.48285626,0.09808889,0.98586028,1.27547767,0.87079980

>  <Name>
1nta_lig

>  <RI>
9.25352e+06

>  <Rbt.Current_Directory>
/home/itssahil/PROJECTS/Mol_Feturizer/New_Systems/rnas/1nta

>  <Rbt.Executable>
rbdock ($Id: //depot/dev/client3/rdock/2013.1/src/exe/rbdock.cxx#4 $)

>  <Rbt.Library>
libRbt.so (2013.1, Build901 2013/11/27)

>  <Rbt.Parameter_File>
/export/apps/rDock/src/rDock_2013.1_src/data/scripts/dock_solv.prm

>  <Rbt.Receptor>
prm/blind_docking_40.prm

>  <SCORE>
-14.6355

>  <SCORE.INTER>
-10.7544

>  <SCORE.INTER.CONST>
1

>  <SCORE.INTER.POLAR>
-1.75439

>  <SCORE.INTER.ROT>
11

>  <SCORE.INTER.SOLV>
13.1025

>  <SCORE.INTER.VDW>
-16.6225

>  <SCORE.INTER.norm>
-0.26886

>  <SCORE.INTRA>
-5.32882

>  <SCORE.INTRA.DIHEDRAL>
2.38777

>  <SCORE.INTRA.DIHEDRAL.0>
19.0336

>  <SCORE.INTRA.POLAR>
0

>  <SCORE.INTRA.POLAR.0>
0

>  <SCORE.INTRA.REPUL>
0

>  <SCORE.INTRA.REPUL.0>
0

>  <SCORE.INTRA.SOLV>
-1.98625

>  <SCORE.INTRA.SOLV.lig_0>
-97.5861

>  <SCORE.INTRA.VDW>
-5.52958

>  <SCORE.INTRA.VDW.0>
11.7669

>  <SCORE.INTRA.norm>
-0.133221

>  <SCORE.RESTR>
1.44772

>  <SCORE.RESTR.CAVITY>
1.44772

>  <SCORE.RESTR.norm>
0.0361931

>  <SCORE.SYSTEM>
0

>  <SCORE.SYSTEM.CONST>
0

>  <SCORE.SYSTEM.DIHEDRAL>
0

>  <SCORE.SYSTEM.SOLV>
0

>  <SCORE.SYSTEM.norm>
0

>  <SCORE.heavy>
40

>  <SCORE.norm>
-0.365888

>  <RMSD>
20.994

$$$$
1nta_lig
 OpenBabel11021811403D
libRbt.so/2013.1/901 2013/11/27
 40 42  0  0  0  0  0  0  0  0999 V2000
   19.2459   31.3721   -0.3358 C   0  0  0  0  0  0  0  0  0  0  0  0
   18.2365   32.1010   -0.6358 N   0  0  0  0  0  0  0  0  0  0  0  0
   19.6269   22.3695   -4.8037 C   0  0  0  0  0  0  0  0  0  0  0  0
   18.5735   21.7757   -4.7322 O   0  0  0  0  0  0  0  0  0  0  0  0
   16.7147   26.2983   -2.2851 C   0  0  0  0  0  0  0  0  0  0  0  0
   15.4799   26.5852   -2.6058 N   0  0  0  0  0  0  0  0  0  0  0  0
   22.9327   22.7283   -4.7390 C   0  0  0  0  0  0  0  0  0  0  0  0
   17.3327   19.1829    0.0252 C   0  0  0  0  0  0  0  0  0  0  0  0
   19.4882   29.1225   -1.0294 C   0  0  2  0  0  0  0  0  0  0  0  0
   18.9681   30.1183   -0.0111 N   0  0  0  0  0  0  0  0  0  0  0  0
   20.8918   24.2362   -2.1991 C   0  0  2  0  0  0  0  0  0  0  0  0
   18.4388   22.3877   -0.9978 C   0  0  1  0  0  0  0  0  0  0  0  0
   19.7545   22.3390   -1.4270 O   0  0  0  0  0  0  0  0  0  0  0  0
   18.3325   28.2489   -1.5531 C   0  0  1  0  0  0  0  0  0  0  0  0
   17.4411   29.0976   -2.2113 O   0  0  0  0  0  0  0  0  0  0  0  0
   19.9643   23.0667   -2.5112 C   0  0  2  0  0  0  0  0  0  0  0  0
   18.0660   21.3769    0.0643 C   0  0  1  0  0  0  0  0  0  0  0  0
   18.3927   20.0767   -0.4102 N   0  0  0  0  0  0  0  0  0  0  0  0
   18.8057   27.2042   -2.5725 C   0  0  2  0  0  0  0  0  0  0  0  0
   17.7189   26.3415   -3.0948 N   0  0  0  0  0  0  0  0  0  0  0  0
   20.6265   22.4876   -3.6846 C   0  0  1  0  0  0  0  0  0  0  0  0
   21.1477   21.2162   -3.2922 O   0  0  0  0  0  0  0  0  0  0  0  0
   18.7580   21.6130    1.2439 C   0  0  2  0  0  0  0  0  0  0  0  0
   18.1549   20.8426    2.2527 O   0  0  0  0  0  0  0  0  0  0  0  0
   19.8550   26.3323   -1.9011 C   0  0  1  0  0  0  0  0  0  0  0  0
   20.2916   25.3707   -2.8489 O   0  0  0  0  0  0  0  0  0  0  0  0
   21.7501   23.3526   -4.0655 C   0  0  1  0  0  0  0  0  0  0  0  0
   22.1175   23.9957   -2.8513 O   0  0  0  0  0  0  0  0  0  0  0  0
   18.6830   23.0714    1.6127 C   0  0  1  0  0  0  0  0  0  0  0  0
   19.5771   23.3221    2.6568 O   0  0  0  0  0  0  0  0  0  0  0  0
   21.0448   27.2055   -1.4104 C   0  0  2  0  0  0  0  0  0  0  0  0
   22.0223   26.3694   -0.7935 O   0  0  0  0  0  0  0  0  0  0  0  0
   19.0810   23.9077    0.4445 C   0  0  1  0  0  0  0  0  0  0  0  0
   18.1783   23.6520   -0.5923 O   0  0  0  0  0  0  0  0  0  0  0  0
   20.5295   28.2344   -0.3823 C   0  0  1  0  0  0  0  0  0  0  0  0
   21.6156   29.0513    0.0845 O   0  0  0  0  0  0  0  0  0  0  0  0
   18.9977   25.4107    0.7768 C   0  0  0  0  0  0  0  0  0  0  0  0
   20.0411   25.7479    1.6839 O   0  0  0  0  0  0  0  0  0  0  0  0
   20.4529   31.8252   -0.3430 N   0  0  0  0  0  0  0  0  0  0  0  0
   16.9970   25.9681   -1.0861 N   0  0  0  0  0  0  0  0  0  0  0  0
  1  2  1  0  0  0  0
  1 39  1  0  0  0  0
  3  4  1  0  0  0  0
  5  6  1  0  0  0  0
  5 40  1  0  0  0  0
  9 10  1  1  0  0  0
  9 14  1  0  0  0  0
  9 35  1  0  0  0  0
 10  1  1  0  0  0  0
 11 16  1  0  0  0  0
 11 28  1  0  0  0  0
 11 26  1  6  0  0  0
 12 17  1  0  0  0  0
 12 34  1  0  0  0  0
 12 13  1  1  0  0  0
 14 15  1  6  0  0  0
 14 19  1  0  0  0  0
 16 13  1  1  0  0  0
 16 21  1  0  0  0  0
 17 18  1  6  0  0  0
 17 23  1  0  0  0  0
 18  8  1  0  0  0  0
 19 20  1  1  0  0  0
 19 25  1  0  0  0  0
 20  5  1  0  0  0  0
 21  3  1  6  0  0  0
 21 22  1  0  0  0  0
 21 27  1  0  0  0  0
 23 24  1  1  0  0  0
 23 29  1  0  0  0  0
 25 26  1  6  0  0  0
 25 31  1  0  0  0  0
 27  7  1  1  0  0  0
 27 28  1  0  0  0  0
 29 30  1  1  0  0  0
 29 33  1  0  0  0  0
 31 32  1  1  0  0  0
 31 35  1  0  0  0  0
 33 34  1  0  0  0  0
 33 37  1  1  0  0  0
 35 36  1  6  0  0  0
 37 38  1  0  0  0  0
M  END
>  <CHROM.1>
-123.50918032,112.66118468,114.66651891,168.53392316,114.05467893,-141.31409441
-22.94500934,125.24778574,-56.07675583,-159.04042245,70.72834896,19.37985316
25.07991119,-1.25273818,1.57824161,1.10707121,0.05487020

>  <Name>
1nta_lig

>  <RI>
1.05895e+07

>  <Rbt.Current_Directory>
/home/itssahil/PROJECTS/Mol_Feturizer/New_Systems/rnas/1nta

>  <Rbt.Executable>
rbdock ($Id: //depot/dev/client3/rdock/2013.1/src/exe/rbdock.cxx#4 $)

>  <Rbt.Library>
libRbt.so (2013.1, Build901 2013/11/27)

>  <Rbt.Parameter_File>
/export/apps/rDock/src/rDock_2013.1_src/data/scripts/dock_solv.prm

>  <Rbt.Receptor>
prm/blind_docking_100.prm

>  <SCORE>
-18.6685

>  <SCORE.INTER>
-8.18061

>  <SCORE.INTER.CONST>
1

>  <SCORE.INTER.POLAR>
0

>  <SCORE.INTER.ROT>
11

>  <SCORE.INTER.SOLV>
11.8514

>  <SCORE.INTER.VDW>
-20.3376

>  <SCORE.INTER.norm>
-0.204515

>  <SCORE.INTRA>
-10.5604

>  <SCORE.INTRA.DIHEDRAL>
1.75231

>  <SCORE.INTRA.DIHEDRAL.0>
19.0336

>  <SCORE.INTRA.POLAR>
0

>  <SCORE.INTRA.POLAR.0>
0

>  <SCORE.INTRA.REPUL>
0.00198285

>  <SCORE.INTRA.REPUL.0>
0

>  <SCORE.INTRA.SOLV>
1.83806

>  <SCORE.INTRA.SOLV.lig_0>
-97.5861

>  <SCORE.INTRA.VDW>
-12.3655

>  <SCORE.INTRA.VDW.0>
11.7669

>  <SCORE.INTRA.norm>
-0.264011

>  <SCORE.RESTR>
0.0725554

>  <SCORE.RESTR.CAVITY>
0.0725554

>  <SCORE.RESTR.norm>
0.00181388

>  <SCORE.SYSTEM>
0

>  <SCORE.SYSTEM.CONST>
0

>  <SCORE.SYSTEM.DIHEDRAL>
0

>  <SCORE.SYSTEM.SOLV>
0

>  <SCORE.SYSTEM.norm>
0

>  <SCORE.heavy>
40

>  <SCORE.norm>
-0.466712

>  <RMSD>
21.071

$$$$
1nta_lig
 OpenBabel11021811403D
libRbt.so/2013.1/901 2013/11/27
 40 42  0  0  0  0  0  0  0  0999 V2000
   19.6615   31.1959   -0.6660 C   0  0  0  0  0  0  0  0  0  0  0  0
   18.5941   31.7963   -0.2916 N   0  0  0  0  0  0  0  0  0  0  0  0
   19.2097   23.0667    2.3115 C   0  0  0  0  0  0  0  0  0  0  0  0
   19.0984   22.4698    3.3596 O   0  0  0  0  0  0  0  0  0  0  0  0
   19.7378   26.8587    2.5454 C   0  0  0  0  0  0  0  0  0  0  0  0
   18.9287   27.1672    3.5252 N   0  0  0  0  0  0  0  0  0  0  0  0
   16.4901   21.3532    1.4576 C   0  0  0  0  0  0  0  0  0  0  0  0
   21.8040   26.2874   -1.4519 C   0  0  0  0  0  0  0  0  0  0  0  0
   18.6348   29.0913   -1.0085 C   0  0  2  0  0  0  0  0  0  0  0  0
   19.4893   30.2221   -1.5473 N   0  0  0  0  0  0  0  0  0  0  0  0
   17.8066   23.8789   -0.7283 C   0  0  2  0  0  0  0  0  0  0  0  0
   20.0420   23.9112   -2.0861 C   0  0  1  0  0  0  0  0  0  0  0  0
   19.9976   23.0865   -0.9746 O   0  0  0  0  0  0  0  0  0  0  0  0
   19.4523   28.2333   -0.0243 C   0  0  1  0  0  0  0  0  0  0  0  0
   19.7923   29.0539    1.0522 O   0  0  0  0  0  0  0  0  0  0  0  0
   19.1276   23.4992   -0.0680 C   0  0  2  0  0  0  0  0  0  0  0  0
   21.4291   24.2896   -2.5569 C   0  0  1  0  0  0  0  0  0  0  0  0
   22.1357   24.8725   -1.4692 N   0  0  0  0  0  0  0  0  0  0  0  0
   18.6426   27.0565    0.5363 C   0  0  2  0  0  0  0  0  0  0  0  0
   19.4005   26.2055    1.4846 N   0  0  0  0  0  0  0  0  0  0  0  0
   18.6640   22.5957    0.9901 C   0  0  1  0  0  0  0  0  0  0  0  0
   19.1206   21.2833    0.6564 O   0  0  0  0  0  0  0  0  0  0  0  0
   22.1269   23.1757   -3.0024 C   0  0  2  0  0  0  0  0  0  0  0  0
   23.2657   23.6328   -3.6874 O   0  0  0  0  0  0  0  0  0  0  0  0
   18.1764   26.2053   -0.6342 C   0  0  1  0  0  0  0  0  0  0  0  0
   17.4255   25.1210   -0.1106 O   0  0  0  0  0  0  0  0  0  0  0  0
   17.1958   22.5897    0.9939 C   0  0  1  0  0  0  0  0  0  0  0  0
   16.8460   22.9223   -0.3440 O   0  0  0  0  0  0  0  0  0  0  0  0
   21.2718   22.3605   -3.9366 C   0  0  1  0  0  0  0  0  0  0  0  0
   21.9012   21.1361   -4.1758 O   0  0  0  0  0  0  0  0  0  0  0  0
   17.3132   27.0573   -1.6077 C   0  0  2  0  0  0  0  0  0  0  0  0
   16.8771   26.2395   -2.6924 O   0  0  0  0  0  0  0  0  0  0  0  0
   19.9492   22.0913   -3.3036 C   0  0  1  0  0  0  0  0  0  0  0  0
   19.3271   23.3221   -3.0722 O   0  0  0  0  0  0  0  0  0  0  0  0
   18.1649   28.2217   -2.1552 C   0  0  1  0  0  0  0  0  0  0  0  0
   17.3844   29.0212   -3.0587 O   0  0  0  0  0  0  0  0  0  0  0  0
   19.0360   21.2745   -4.2391 C   0  0  0  0  0  0  0  0  0  0  0  0
   17.7500   21.1469   -3.6433 O   0  0  0  0  0  0  0  0  0  0  0  0
   20.8273   31.5111   -0.2145 N   0  0  0  0  0  0  0  0  0  0  0  0
   20.9565   27.2319    2.5895 N   0  0  0  0  0  0  0  0  0  0  0  0
  1  2  1  0  0  0  0
  1 39  1  0  0  0  0
  3  4  1  0  0  0  0
  5  6  1  0  0  0  0
  5 40  1  0  0  0  0
  9 10  1  6  0  0  0
  9 14  1  0  0  0  0
  9 35  1  0  0  0  0
 10  1  1  0  0  0  0
 11 16  1  0  0  0  0
 11 28  1  0  0  0  0
 11 26  1  1  0  0  0
 12 17  1  0  0  0  0
 12 34  1  0  0  0  0
 12 13  1  1  0  0  0
 14 15  1  1  0  0  0
 14 19  1  0  0  0  0
 16 13  1  6  0  0  0
 16 21  1  0  0  0  0
 17 18  1  1  0  0  0
 17 23  1  0  0  0  0
 18  8  1  0  0  0  0
 19 20  1  1  0  0  0
 19 25  1  0  0  0  0
 20  5  1  0  0  0  0
 21  3  1  1  0  0  0
 21 22  1  0  0  0  0
 21 27  1  0  0  0  0
 23 24  1  6  0  0  0
 23 29  1  0  0  0  0
 25 26  1  1  0  0  0
 25 31  1  0  0  0  0
 27  7  1  6  0  0  0
 27 28  1  0  0  0  0
 29 30  1  1  0  0  0
 29 33  1  0  0  0  0
 31 32  1  6  0  0  0
 31 35  1  0  0  0  0
 33 34  1  0  0  0  0
 33 37  1  6  0  0  0
 35 36  1  6  0  0  0
 37 38  1  0  0  0  0
M  END
>  <CHROM.1>
-75.50919152,-62.09111953,77.05934578,133.43968417,45.71840774,-85.95938273
63.84401589,76.01301550,-173.51937577,-134.49135982,-174.82044037,19.31789484
25.23569616,-0.80120788,-1.69502074,-1.16715688,-3.01641795

>  <Name>
1nta_lig

>  <RI>
0

>  <Rbt.Current_Directory>
/home/itssahil/PROJECTS/Mol_Feturizer/New_Systems/rnas/1nta

>  <Rbt.Executable>
rbdock ($Id: //depot/dev/client3/rdock/2013.1/src/exe/rbdock.cxx#4 $)

>  <Rbt.Library>
libRbt.so (2013.1, Build901 2013/11/27)

>  <Rbt.Parameter_File>
/export/apps/rDock/src/rDock_2013.1_src/data/scripts/dock_solv.prm

>  <Rbt.Receptor>
prm/blind_docking_60.prm

>  <SCORE>
-27.0438

>  <SCORE.INTER>
-14.0132

>  <SCORE.INTER.CONST>
1

>  <SCORE.INTER.POLAR>
-1.56856

>  <SCORE.INTER.ROT>
11

>  <SCORE.INTER.SOLV>
13.9428

>  <SCORE.INTER.VDW>
-19.6946

>  <SCORE.INTER.norm>
-0.350331

>  <SCORE.INTRA>
-15.2498

>  <SCORE.INTRA.DIHEDRAL>
-1.71841

>  <SCORE.INTRA.DIHEDRAL.0>
19.0336

>  <SCORE.INTRA.POLAR>
0

>  <SCORE.INTRA.POLAR.0>
0

>  <SCORE.INTRA.REPUL>
0

>  <SCORE.INTRA.REPUL.0>
0

>  <SCORE.INTRA.SOLV>
-1.82539

>  <SCORE.INTRA.SOLV.lig_0>
-97.5861

>  <SCORE.INTRA.VDW>
-13.4779

>  <SCORE.INTRA.VDW.0>
11.7669

>  <SCORE.INTRA.norm>
-0.381246

>  <SCORE.RESTR>
2.21925

>  <SCORE.RESTR.CAVITY>
2.21925

>  <SCORE.RESTR.norm>
0.0554813

>  <SCORE.SYSTEM>
0

>  <SCORE.SYSTEM.CONST>
0

>  <SCORE.SYSTEM.DIHEDRAL>
0

>  <SCORE.SYSTEM.SOLV>
0

>  <SCORE.SYSTEM.norm>
0

>  <SCORE.heavy>
40

>  <SCORE.norm>
-0.676095

>  <RMSD>
21.087

$$$$
1nta_lig
 OpenBabel11021811403D
libRbt.so/2013.1/901 2013/11/27
 40 42  0  0  0  0  0  0  0  0999 V2000
   17.8116   17.6895   -2.3231 C   0  0  0  0  0  0  0  0  0  0  0  0
   18.5961   17.5436   -3.3248 N   0  0  0  0  0  0  0  0  0  0  0  0
   18.3362   25.4254    4.0339 C   0  0  0  0  0  0  0  0  0  0  0  0
   17.6709   26.4372    4.0037 O   0  0  0  0  0  0  0  0  0  0  0  0
   19.1262   23.2621   -2.5352 C   0  0  0  0  0  0  0  0  0  0  0  0
   17.9425   23.0289   -3.0394 N   0  0  0  0  0  0  0  0  0  0  0  0
   21.0517   23.5481    4.4377 C   0  0  0  0  0  0  0  0  0  0  0  0
   20.1397   30.0800    1.7653 C   0  0  0  0  0  0  0  0  0  0  0  0
   18.0227   19.3722   -0.6725 C   0  0  2  0  0  0  0  0  0  0  0  0
   18.4009   17.9929   -1.1762 N   0  0  0  0  0  0  0  0  0  0  0  0
   19.6278   24.0046    1.1736 C   0  0  2  0  0  0  0  0  0  0  0  0
   18.7515   27.3971    0.9591 C   0  0  1  0  0  0  0  0  0  0  0  0
   19.6459   26.3445    1.0574 O   0  0  0  0  0  0  0  0  0  0  0  0
   18.9552   20.4336   -1.2863 C   0  0  1  0  0  0  0  0  0  0  0  0
   18.7452   20.4170   -2.6660 O   0  0  0  0  0  0  0  0  0  0  0  0
   19.1678   25.3334    1.7633 C   0  0  2  0  0  0  0  0  0  0  0  0
   19.2586   28.6103    0.2109 C   0  0  1  0  0  0  0  0  0  0  0  0
   20.4755   29.0382    0.8093 N   0  0  0  0  0  0  0  0  0  0  0  0
   18.6328   21.8501   -0.7922 C   0  0  2  0  0  0  0  0  0  0  0  0
   19.5150   22.8979   -1.3597 N   0  0  0  0  0  0  0  0  0  0  0  0
   19.5409   25.1609    3.1711 C   0  0  1  0  0  0  0  0  0  0  0  0
   20.6071   26.0732    3.4414 O   0  0  0  0  0  0  0  0  0  0  0  0
   19.4933   28.3121   -1.1240 C   0  0  2  0  0  0  0  0  0  0  0  0
   19.6695   29.5277   -1.8070 O   0  0  0  0  0  0  0  0  0  0  0  0
   18.7578   21.8604    0.7232 C   0  0  1  0  0  0  0  0  0  0  0  0
   18.4552   23.1712    1.1749 O   0  0  0  0  0  0  0  0  0  0  0  0
   20.0402   23.7934    3.3614 C   0  0  1  0  0  0  0  0  0  0  0  0
   20.5382   23.4266    2.0806 O   0  0  0  0  0  0  0  0  0  0  0  0
   18.3198   27.5719   -1.7101 C   0  0  1  0  0  0  0  0  0  0  0  0
   18.6769   27.0777   -2.9674 O   0  0  0  0  0  0  0  0  0  0  0  0
   17.7850   20.8209    1.3493 C   0  0  2  0  0  0  0  0  0  0  0  0
   17.9092   20.8529    2.7702 O   0  0  0  0  0  0  0  0  0  0  0  0
   17.9652   26.4170   -0.8365 C   0  0  1  0  0  0  0  0  0  0  0  0
   17.6063   26.9228    0.4168 O   0  0  0  0  0  0  0  0  0  0  0  0
   18.1482   19.4118    0.8357 C   0  0  1  0  0  0  0  0  0  0  0  0
   17.2601   18.4357    1.4044 O   0  0  0  0  0  0  0  0  0  0  0  0
   16.7532   25.6443   -1.3934 C   0  0  0  0  0  0  0  0  0  0  0  0
   15.6592   26.5406   -1.5512 O   0  0  0  0  0  0  0  0  0  0  0  0
   16.5339   17.5466   -2.4186 N   0  0  0  0  0  0  0  0  0  0  0  0
   20.0021   23.8731   -3.2323 N   0  0  0  0  0  0  0  0  0  0  0  0
  1  2  1  0  0  0  0
  1 39  1  0  0  0  0
  3  4  1  0  0  0  0
  5  6  1  0  0  0  0
  5 40  1  0  0  0  0
  9 10  1  6  0  0  0
  9 14  1  0  0  0  0
  9 35  1  0  0  0  0
 10  1  1  0  0  0  0
 11 16  1  0  0  0  0
 11 28  1  0  0  0  0
 11 26  1  1  0  0  0
 12 17  1  0  0  0  0
 12 34  1  0  0  0  0
 12 13  1  6  0  0  0
 14 15  1  6  0  0  0
 14 19  1  0  0  0  0
 16 13  1  6  0  0  0
 16 21  1  0  0  0  0
 17 18  1  1  0  0  0
 17 23  1  0  0  0  0
 18  8  1  0  0  0  0
 19 20  1  6  0  0  0
 19 25  1  0  0  0  0
 20  5  1  0  0  0  0
 21  3  1  1  0  0  0
 21 22  1  0  0  0  0
 21 27  1  0  0  0  0
 23 24  1  6  0  0  0
 23 29  1  0  0  0  0
 25 26  1  1  0  0  0
 25 31  1  0  0  0  0
 27  7  1  1  0  0  0
 27 28  1  0  0  0  0
 29 30  1  6  0  0  0
 29 33  1  0  0  0  0
 31 32  1  1  0  0  0
 31 35  1  0  0  0  0
 33 34  1  0  0  0  0
 33 37  1  6  0  0  0
 35 36  1  1  0  0  0
 37 38  1  0  0  0  0
M  END
>  <CHROM.1>
-86.68604206,114.87500206,-176.36633185,177.61529982,143.49919713,-94.92331421
81.98824356,16.85793043,-54.67283775,-87.38608618,-56.18957096,18.73510865
23.87636255,0.14401633,2.27679384,1.37508867,2.65432687

>  <Name>
1nta_lig

>  <RI>
2.40834e+07

>  <Rbt.Current_Directory>
/home/itssahil/PROJECTS/Mol_Feturizer/New_Systems/rnas/1nta

>  <Rbt.Executable>
rbdock ($Id: //depot/dev/client3/rdock/2013.1/src/exe/rbdock.cxx#4 $)

>  <Rbt.Library>
libRbt.so (2013.1, Build901 2013/11/27)

>  <Rbt.Parameter_File>
/export/apps/rDock/src/rDock_2013.1_src/data/scripts/dock_solv.prm

>  <Rbt.Receptor>
prm/blind_docking_80.prm

>  <SCORE>
-30.6294

>  <SCORE.INTER>
-11.4565

>  <SCORE.INTER.CONST>
1

>  <SCORE.INTER.POLAR>
-0.735873

>  <SCORE.INTER.ROT>
11

>  <SCORE.INTER.SOLV>
12.7393

>  <SCORE.INTER.VDW>
-20.3646

>  <SCORE.INTER.norm>
-0.286413

>  <SCORE.INTRA>
-20.3096

>  <SCORE.INTRA.DIHEDRAL>
-8.19421

>  <SCORE.INTRA.DIHEDRAL.0>
19.0336

>  <SCORE.INTRA.POLAR>
0

>  <SCORE.INTRA.POLAR.0>
0

>  <SCORE.INTRA.REPUL>
0

>  <SCORE.INTRA.REPUL.0>
0

>  <SCORE.INTRA.SOLV>
-0.820719

>  <SCORE.INTRA.SOLV.lig_0>
-97.5861

>  <SCORE.INTRA.VDW>
-15.8021

>  <SCORE.INTRA.VDW.0>
11.7669

>  <SCORE.INTRA.norm>
-0.50774

>  <SCORE.RESTR>
1.13668

>  <SCORE.RESTR.CAVITY>
1.13668

>  <SCORE.RESTR.norm>
0.028417

>  <SCORE.SYSTEM>
0

>  <SCORE.SYSTEM.CONST>
0

>  <SCORE.SYSTEM.DIHEDRAL>
0

>  <SCORE.SYSTEM.SOLV>
0

>  <SCORE.SYSTEM.norm>
0

>  <SCORE.heavy>
40

>  <SCORE.norm>
-0.765736

>  <RMSD>
21.149

$$$$
1nta_lig
 OpenBabel11021811403D
libRbt.so/2013.1/901 2013/11/27
 40 42  0  0  0  0  0  0  0  0999 V2000
   21.7788   21.3002   -4.9757 C   0  0  0  0  0  0  0  0  0  0  0  0
   21.3556   20.1688   -5.4010 N   0  0  0  0  0  0  0  0  0  0  0  0
   18.3310   25.6228    3.4284 C   0  0  0  0  0  0  0  0  0  0  0  0
   17.7935   26.6733    3.7021 O   0  0  0  0  0  0  0  0  0  0  0  0
   18.2769   21.1948    0.2398 C   0  0  0  0  0  0  0  0  0  0  0  0
   18.7078   19.9742    0.0550 N   0  0  0  0  0  0  0  0  0  0  0  0
   20.7253   23.3217    3.6130 C   0  0  0  0  0  0  0  0  0  0  0  0
   21.1944   29.8657    3.9007 C   0  0  0  0  0  0  0  0  0  0  0  0
   20.7094   22.7094   -3.4037 C   0  0  2  0  0  0  0  0  0  0  0  0
   20.8553   22.2398   -4.8380 N   0  0  0  0  0  0  0  0  0  0  0  0
   20.1522   25.1055    0.5502 C   0  0  2  0  0  0  0  0  0  0  0  0
   19.6742   28.4450    1.6868 C   0  0  1  0  0  0  0  0  0  0  0  0
   20.3728   27.3052    1.3259 O   0  0  0  0  0  0  0  0  0  0  0  0
   19.4312   22.1170   -2.7805 C   0  0  1  0  0  0  0  0  0  0  0  0
   19.5903   20.7306   -2.7556 O   0  0  0  0  0  0  0  0  0  0  0  0
   19.6668   26.1997    1.4948 C   0  0  2  0  0  0  0  0  0  0  0  0
   20.4839   29.7229    1.7035 C   0  0  1  0  0  0  0  0  0  0  0  0
   21.6123   29.5357    2.5484 N   0  0  0  0  0  0  0  0  0  0  0  0
   19.2194   22.5786   -1.3325 C   0  0  2  0  0  0  0  0  0  0  0  0
   17.9945   22.0308   -0.7021 N   0  0  0  0  0  0  0  0  0  0  0  0
   19.6823   25.4906    2.7785 C   0  0  1  0  0  0  0  0  0  0  0  0
   20.7197   26.0721    3.5709 O   0  0  0  0  0  0  0  0  0  0  0  0
   20.9247   30.0520    0.4294 C   0  0  2  0  0  0  0  0  0  0  0  0
   21.4010   31.3735    0.4719 O   0  0  0  0  0  0  0  0  0  0  0  0
   19.1457   24.0973   -1.3281 C   0  0  1  0  0  0  0  0  0  0  0  0
   18.9535   24.5188    0.0132 O   0  0  0  0  0  0  0  0  0  0  0  0
   20.0184   24.0824    2.5343 C   0  0  1  0  0  0  0  0  0  0  0  0
   20.7763   24.1123    1.3311 O   0  0  0  0  0  0  0  0  0  0  0  0
   19.7913   29.9578   -0.5581 C   0  0  1  0  0  0  0  0  0  0  0  0
   20.3079   30.0562   -1.8527 O   0  0  0  0  0  0  0  0  0  0  0  0
   20.4534   24.7002   -1.9156 C   0  0  2  0  0  0  0  0  0  0  0  0
   20.3695   26.1242   -1.8934 O   0  0  0  0  0  0  0  0  0  0  0  0
   19.1141   28.6366   -0.4233 C   0  0  1  0  0  0  0  0  0  0  0  0
   18.5981   28.5504    0.8735 O   0  0  0  0  0  0  0  0  0  0  0  0
   20.6241   24.2206   -3.3723 C   0  0  1  0  0  0  0  0  0  0  0  0
   21.8279   24.7684   -3.9340 O   0  0  0  0  0  0  0  0  0  0  0  0
   17.9330   28.5093   -1.4058 C   0  0  0  0  0  0  0  0  0  0  0  0
   17.3286   27.2307   -1.2478 O   0  0  0  0  0  0  0  0  0  0  0  0
   23.0202   21.5164   -4.7032 N   0  0  0  0  0  0  0  0  0  0  0  0
   18.0849   21.6259    1.4246 N   0  0  0  0  0  0  0  0  0  0  0  0
  1  2  1  0  0  0  0
  1 39  1  0  0  0  0
  3  4  1  0  0  0  0
  5  6  1  0  0  0  0
  5 40  1  0  0  0  0
  9 10  1  6  0  0  0
  9 14  1  0  0  0  0
  9 35  1  0  0  0  0
 10  1  1  0  0  0  0
 11 16  1  0  0  0  0
 11 28  1  0  0  0  0
 11 26  1  1  0  0  0
 12 17  1  0  0  0  0
 12 34  1  0  0  0  0
 12 13  1  6  0  0  0
 14 15  1  1  0  0  0
 14 19  1  0  0  0  0
 16 13  1  1  0  0  0
 16 21  1  0  0  0  0
 17 18  1  1  0  0  0
 17 23  1  0  0  0  0
 18  8  1  0  0  0  0
 19 20  1  6  0  0  0
 19 25  1  0  0  0  0
 20  5  1  0  0  0  0
 21  3  1  1  0  0  0
 21 22  1  0  0  0  0
 21 27  1  0  0  0  0
 23 24  1  1  0  0  0
 23 29  1  0  0  0  0
 25 26  1  1  0  0  0
 25 31  1  0  0  0  0
 27  7  1  1  0  0  0
 27 28  1  0  0  0  0
 29 30  1  6  0  0  0
 29 33  1  0  0  0  0
 31 32  1  6  0  0  0
 31 35  1  0  0  0  0
 33 34  1  0  0  0  0
 33 37  1  6  0  0  0
 35 36  1  1  0  0  0
 37 38  1  0  0  0  0
M  END
>  <CHROM.1>
-104.39656942,117.92975141,146.18268247,171.77359189,154.12827615,-87.07987838
111.71600107,-74.84886719,-57.85194490,106.86533696,179.47401143,19.92460756
25.36560220,-0.25223695,-1.44308075,1.28741085,0.44904843

>  <Name>
1nta_lig

>  <RI>
1.05895e+07

>  <Rbt.Current_Directory>
/home/itssahil/PROJECTS/Mol_Feturizer/New_Systems/rnas/1nta

>  <Rbt.Executable>
rbdock ($Id: //depot/dev/client3/rdock/2013.1/src/exe/rbdock.cxx#4 $)

>  <Rbt.Library>
libRbt.so (2013.1, Build901 2013/11/27)

>  <Rbt.Parameter_File>
/export/apps/rDock/src/rDock_2013.1_src/data/scripts/dock_solv.prm

>  <Rbt.Receptor>
prm/blind_docking_100.prm

>  <SCORE>
-23.7434

>  <SCORE.INTER>
-11.6713

>  <SCORE.INTER.CONST>
1

>  <SCORE.INTER.POLAR>
-1.74039

>  <SCORE.INTER.ROT>
11

>  <SCORE.INTER.SOLV>
12.9501

>  <SCORE.INTER.VDW>
-17.2296

>  <SCORE.INTER.norm>
-0.291783

>  <SCORE.INTRA>
-14.1059

>  <SCORE.INTRA.DIHEDRAL>
-1.28106

>  <SCORE.INTRA.DIHEDRAL.0>
19.0336

>  <SCORE.INTRA.POLAR>
0

>  <SCORE.INTRA.POLAR.0>
0

>  <SCORE.INTRA.REPUL>
0

>  <SCORE.INTRA.REPUL.0>
0

>  <SCORE.INTRA.SOLV>
-1.79033

>  <SCORE.INTRA.SOLV.lig_0>
-97.5861

>  <SCORE.INTRA.VDW>
-12.5702

>  <SCORE.INTRA.VDW.0>
11.7669

>  <SCORE.INTRA.norm>
-0.352647

>  <SCORE.RESTR>
2.03384

>  <SCORE.RESTR.CAVITY>
2.03384

>  <SCORE.RESTR.norm>
0.050846

>  <SCORE.SYSTEM>
0

>  <SCORE.SYSTEM.CONST>
0

>  <SCORE.SYSTEM.DIHEDRAL>
0

>  <SCORE.SYSTEM.SOLV>
0

>  <SCORE.SYSTEM.norm>
0

>  <SCORE.heavy>
40

>  <SCORE.norm>
-0.593584

>  <RMSD>
21.155

$$$$
1nta_lig
 OpenBabel11021811403D
libRbt.so/2013.1/901 2013/11/27
 40 42  0  0  0  0  0  0  0  0999 V2000
   18.1731   31.4622   -0.3263 C   0  0  0  0  0  0  0  0  0  0  0  0
   19.0408   32.0540   -1.0590 N   0  0  0  0  0  0  0  0  0  0  0  0
   19.4627   22.3461   -4.2961 C   0  0  0  0  0  0  0  0  0  0  0  0
   18.4755   21.6448   -4.3239 O   0  0  0  0  0  0  0  0  0  0  0  0
   16.0464   25.8370   -2.1500 C   0  0  0  0  0  0  0  0  0  0  0  0
   16.1034   25.1731   -3.2751 N   0  0  0  0  0  0  0  0  0  0  0  0
   22.6599   23.1928   -3.9460 C   0  0  0  0  0  0  0  0  0  0  0  0
   18.1005   18.9201   -3.1931 C   0  0  0  0  0  0  0  0  0  0  0  0
   18.8016   29.2151   -0.7216 C   0  0  2  0  0  0  0  0  0  0  0  0
   18.5862   30.3493    0.2615 N   0  0  0  0  0  0  0  0  0  0  0  0
   20.2356   24.1983   -1.4960 C   0  0  2  0  0  0  0  0  0  0  0  0
   18.1331   21.4526   -0.9644 C   0  0  1  0  0  0  0  0  0  0  0  0
   19.3550   22.1030   -0.9273 O   0  0  0  0  0  0  0  0  0  0  0  0
   17.7592   28.1057   -0.4860 C   0  0  1  0  0  0  0  0  0  0  0  0
   16.5045   28.6579   -0.7486 O   0  0  0  0  0  0  0  0  0  0  0  0
   19.5253   22.9268   -1.9478 C   0  0  2  0  0  0  0  0  0  0  0  0
   18.2037   19.9498   -1.1238 C   0  0  1  0  0  0  0  0  0  0  0  0
   18.9684   19.6508   -2.2849 N   0  0  0  0  0  0  0  0  0  0  0  0
   17.9443   26.9183   -1.4401 C   0  0  2  0  0  0  0  0  0  0  0  0
   16.9598   25.8283   -1.2383 N   0  0  0  0  0  0  0  0  0  0  0  0
   20.3505   22.5360   -3.0954 C   0  0  1  0  0  0  0  0  0  0  0  0
   21.0337   21.3335   -2.7358 O   0  0  0  0  0  0  0  0  0  0  0  0
   18.8064   19.3581   -0.0226 C   0  0  2  0  0  0  0  0  0  0  0  0
   18.5722   17.9746   -0.1013 O   0  0  0  0  0  0  0  0  0  0  0  0
   19.3469   26.3666   -1.2391 C   0  0  1  0  0  0  0  0  0  0  0  0
   19.5139   25.2715   -2.1260 O   0  0  0  0  0  0  0  0  0  0  0  0
   21.3502   23.5843   -3.3350 C   0  0  1  0  0  0  0  0  0  0  0  0
   21.5267   24.1903   -2.0604 O   0  0  0  0  0  0  0  0  0  0  0  0
   18.2126   19.8967    1.2525 C   0  0  1  0  0  0  0  0  0  0  0  0
   18.9920   19.4713    2.3313 O   0  0  0  0  0  0  0  0  0  0  0  0
   20.4042   27.4721   -1.5196 C   0  0  2  0  0  0  0  0  0  0  0  0
   21.7123   26.9331   -1.3361 O   0  0  0  0  0  0  0  0  0  0  0  0
   18.2256   21.3872    1.2242 C   0  0  1  0  0  0  0  0  0  0  0  0
   17.4402   21.8017    0.1441 O   0  0  0  0  0  0  0  0  0  0  0  0
   20.1900   28.6410   -0.5352 C   0  0  1  0  0  0  0  0  0  0  0  0
   21.1592   29.6738   -0.7779 O   0  0  0  0  0  0  0  0  0  0  0  0
   17.6060   21.9775    2.5064 C   0  0  0  0  0  0  0  0  0  0  0  0
   18.1576   23.2681    2.7413 O   0  0  0  0  0  0  0  0  0  0  0  0
   16.9751   31.9128   -0.1720 N   0  0  0  0  0  0  0  0  0  0  0  0
   15.0398   26.5804   -1.9039 N   0  0  0  0  0  0  0  0  0  0  0  0
  1  2  1  0  0  0  0
  1 39  1  0  0  0  0
  3  4  1  0  0  0  0
  5  6  1  0  0  0  0
  5 40  1  0  0  0  0
  9 10  1  1  0  0  0
  9 14  1  0  0  0  0
  9 35  1  0  0  0  0
 10  1  1  0  0  0  0
 11 16  1  0  0  0  0
 11 28  1  0  0  0  0
 11 26  1  6  0  0  0
 12 17  1  0  0  0  0
 12 34  1  0  0  0  0
 12 13  1  1  0  0  0
 14 15  1  6  0  0  0
 14 19  1  0  0  0  0
 16 13  1  1  0  0  0
 16 21  1  0  0  0  0
 17 18  1  6  0  0  0
 17 23  1  0  0  0  0
 18  8  1  0  0  0  0
 19 20  1  1  0  0  0
 19 25  1  0  0  0  0
 20  5  1  0  0  0  0
 21  3  1  6  0  0  0
 21 22  1  0  0  0  0
 21 27  1  0  0  0  0
 23 24  1  6  0  0  0
 23 29  1  0  0  0  0
 25 26  1  6  0  0  0
 25 31  1  0  0  0  0
 27  7  1  1  0  0  0
 27 28  1  0  0  0  0
 29 30  1  1  0  0  0
 29 33  1  0  0  0  0
 31 32  1  1  0  0  0
 31 35  1  0  0  0  0
 33 34  1  0  0  0  0
 33 37  1  1  0  0  0
 35 36  1  6  0  0  0
 37 38  1  0  0  0  0
M  END
>  <CHROM.1>
-112.35367469,-69.81066056,139.05544711,116.06402530,141.40921329,-119.30140176
103.57738251,91.17079560,-52.42872422,-140.07451835,153.51893903,18.86402318
24.43560513,-1.15552511,1.62613919,0.85111078,-0.02775027

>  <Name>
1nta_lig

>  <RI>
0

>  <Rbt.Current_Directory>
/home/itssahil/PROJECTS/Mol_Feturizer/New_Systems/rnas/1nta

>  <Rbt.Executable>
rbdock ($Id: //depot/dev/client3/rdock/2013.1/src/exe/rbdock.cxx#4 $)

>  <Rbt.Library>
libRbt.so (2013.1, Build901 2013/11/27)

>  <Rbt.Parameter_File>
/export/apps/rDock/src/rDock_2013.1_src/data/scripts/dock_solv.prm

>  <Rbt.Receptor>
prm/blind_docking_60.prm

>  <SCORE>
-20.5892

>  <SCORE.INTER>
-6.79619

>  <SCORE.INTER.CONST>
1

>  <SCORE.INTER.POLAR>
0

>  <SCORE.INTER.ROT>
11

>  <SCORE.INTER.SOLV>
17.0152

>  <SCORE.INTER.VDW>
-21.1359

>  <SCORE.INTER.norm>
-0.169905

>  <SCORE.INTRA>
-14.9281

>  <SCORE.INTRA.DIHEDRAL>
11.0552

>  <SCORE.INTRA.DIHEDRAL.0>
19.0336

>  <SCORE.INTRA.POLAR>
0

>  <SCORE.INTRA.POLAR.0>
0

>  <SCORE.INTRA.REPUL>
0.0110294

>  <SCORE.INTRA.REPUL.0>
0

>  <SCORE.INTRA.SOLV>
-3.28489

>  <SCORE.INTRA.SOLV.lig_0>
-97.5861

>  <SCORE.INTRA.VDW>
-18.8684

>  <SCORE.INTRA.VDW.0>
11.7669

>  <SCORE.INTRA.norm>
-0.373203

>  <SCORE.RESTR>
1.13506

>  <SCORE.RESTR.CAVITY>
1.13506

>  <SCORE.RESTR.norm>
0.0283766

>  <SCORE.SYSTEM>
0

>  <SCORE.SYSTEM.CONST>
0

>  <SCORE.SYSTEM.DIHEDRAL>
0

>  <SCORE.SYSTEM.SOLV>
0

>  <SCORE.SYSTEM.norm>
0

>  <SCORE.heavy>
40

>  <SCORE.norm>
-0.514731

>  <RMSD>
21.172

$$$$
1nta_lig
 OpenBabel11021811403D
libRbt.so/2013.1/901 2013/11/27
 40 42  0  0  0  0  0  0  0  0999 V2000
   20.9824   29.4138    4.8803 C   0  0  0  0  0  0  0  0  0  0  0  0
   21.7358   30.0454    4.0596 N   0  0  0  0  0  0  0  0  0  0  0  0
   19.6303   25.2419   -2.9926 C   0  0  0  0  0  0  0  0  0  0  0  0
   20.1886   25.9939   -3.7609 O   0  0  0  0  0  0  0  0  0  0  0  0
   18.5413   28.2673   -1.2807 C   0  0  0  0  0  0  0  0  0  0  0  0
   19.6253   28.9504   -1.5419 N   0  0  0  0  0  0  0  0  0  0  0  0
   22.0656   26.3336   -1.0079 C   0  0  0  0  0  0  0  0  0  0  0  0
   18.7344   20.4353   -3.9753 C   0  0  0  0  0  0  0  0  0  0  0  0
   19.7400   28.1884    3.2817 C   0  0  2  0  0  0  0  0  0  0  0  0
   19.7569   29.1569    4.4482 N   0  0  0  0  0  0  0  0  0  0  0  0
   19.2376   24.6031    0.3699 C   0  0  2  0  0  0  0  0  0  0  0  0
   18.2043   21.9386   -1.2798 C   0  0  1  0  0  0  0  0  0  0  0  0
   19.3392   22.6225   -0.8775 O   0  0  0  0  0  0  0  0  0  0  0  0
   18.8456   28.7353    2.1530 C   0  0  1  0  0  0  0  0  0  0  0  0
   19.4273   29.9227    1.7061 O   0  0  0  0  0  0  0  0  0  0  0  0
   19.2145   23.9335   -0.9999 C   0  0  2  0  0  0  0  0  0  0  0  0
   18.4255   20.4974   -1.6833 C   0  0  1  0  0  0  0  0  0  0  0  0
   19.4232   20.4562   -2.6957 N   0  0  0  0  0  0  0  0  0  0  0  0
   18.7723   27.7824    0.9524 C   0  0  2  0  0  0  0  0  0  0  0  0
   17.9151   28.2754   -0.1522 N   0  0  0  0  0  0  0  0  0  0  0  0
   20.2272   24.7181   -1.7139 C   0  0  1  0  0  0  0  0  0  0  0  0
   21.3403   23.8546   -1.9538 O   0  0  0  0  0  0  0  0  0  0  0  0
   18.8479   19.7351   -0.6032 C   0  0  2  0  0  0  0  0  0  0  0  0
   18.7457   18.3826   -0.9708 O   0  0  0  0  0  0  0  0  0  0  0  0
   18.2348   26.4473    1.4427 C   0  0  1  0  0  0  0  0  0  0  0  0
   18.1724   25.5692    0.3296 O   0  0  0  0  0  0  0  0  0  0  0  0
   20.6699   25.8163   -0.8458 C   0  0  1  0  0  0  0  0  0  0  0  0
   20.4411   25.3290    0.4707 O   0  0  0  0  0  0  0  0  0  0  0  0
   17.9757   19.9972    0.5965 C   0  0  1  0  0  0  0  0  0  0  0  0
   18.5619   19.4100    1.7208 O   0  0  0  0  0  0  0  0  0  0  0  0
   19.1600   25.8703    2.5516 C   0  0  2  0  0  0  0  0  0  0  0  0
   18.6455   24.6143    2.9908 O   0  0  0  0  0  0  0  0  0  0  0  0
   17.8739   21.4654    0.8344 C   0  0  1  0  0  0  0  0  0  0  0  0
   17.2831   22.0419   -0.2943 O   0  0  0  0  0  0  0  0  0  0  0  0
   19.1989   26.8515    3.7419 C   0  0  1  0  0  0  0  0  0  0  0  0
   20.0491   26.3352    4.7790 O   0  0  0  0  0  0  0  0  0  0  0  0
   16.9710   21.7757    2.0447 C   0  0  0  0  0  0  0  0  0  0  0  0
   17.6119   21.3276    3.2337 O   0  0  0  0  0  0  0  0  0  0  0  0
   21.3839   29.0543    6.0516 N   0  0  0  0  0  0  0  0  0  0  0  0
   18.0158   27.5423   -2.1888 N   0  0  0  0  0  0  0  0  0  0  0  0
  1  2  1  0  0  0  0
  1 39  1  0  0  0  0
  3  4  1  0  0  0  0
  5  6  1  0  0  0  0
  5 40  1  0  0  0  0
  9 10  1  1  0  0  0
  9 14  1  0  0  0  0
  9 35  1  0  0  0  0
 10  1  1  0  0  0  0
 11 16  1  0  0  0  0
 11 28  1  0  0  0  0
 11 26  1  6  0  0  0
 12 17  1  0  0  0  0
 12 34  1  0  0  0  0
 12 13  1  1  0  0  0
 14 15  1  6  0  0  0
 14 19  1  0  0  0  0
 16 13  1  1  0  0  0
 16 21  1  0  0  0  0
 17 18  1  6  0  0  0
 17 23  1  0  0  0  0
 18  8  1  0  0  0  0
 19 20  1  6  0  0  0
 19 25  1  0  0  0  0
 20  5  1  0  0  0  0
 21  3  1  6  0  0  0
 21 22  1  0  0  0  0
 21 27  1  0  0  0  0
 23 24  1  6  0  0  0
 23 29  1  0  0  0  0
 25 26  1  6  0  0  0
 25 31  1  0  0  0  0
 27  7  1  1  0  0  0
 27 28  1  0  0  0  0
 29 30  1  1  0  0  0
 29 33  1  0  0  0  0
 31 32  1  1  0  0  0
 31 35  1  0  0  0  0
 33 34  1  0  0  0  0
 33 37  1  1  0  0  0
 35 36  1  1  0  0  0
 37 38  1  0  0  0  0
M  END
>  <CHROM.1>
-131.57067004,66.10270775,-168.77630032,157.13316253,114.25782314,-95.38064168
127.34586559,-61.07227321,175.14216542,104.78073003,68.17322305,19.23422134
24.86907396,0.53594796,0.73331843,1.36205864,1.28365019

>  <Name>
1nta_lig

>  <RI>
9.25352e+06

>  <Rbt.Current_Directory>
/home/itssahil/PROJECTS/Mol_Feturizer/New_Systems/rnas/1nta

>  <Rbt.Executable>
rbdock ($Id: //depot/dev/client3/rdock/2013.1/src/exe/rbdock.cxx#4 $)

>  <Rbt.Library>
libRbt.so (2013.1, Build901 2013/11/27)

>  <Rbt.Parameter_File>
/export/apps/rDock/src/rDock_2013.1_src/data/scripts/dock_solv.prm

>  <Rbt.Receptor>
prm/blind_docking_40.prm

>  <SCORE>
-16.4505

>  <SCORE.INTER>
-9.7786

>  <SCORE.INTER.CONST>
1

>  <SCORE.INTER.POLAR>
-0.774597

>  <SCORE.INTER.ROT>
11

>  <SCORE.INTER.SOLV>
10.2513

>  <SCORE.INTER.VDW>
-18.2875

>  <SCORE.INTER.norm>
-0.244465

>  <SCORE.INTRA>
-8.35052

>  <SCORE.INTRA.DIHEDRAL>
2.07297

>  <SCORE.INTRA.DIHEDRAL.0>
19.0336

>  <SCORE.INTRA.POLAR>
0

>  <SCORE.INTRA.POLAR.0>
0

>  <SCORE.INTRA.REPUL>
0

>  <SCORE.INTRA.REPUL.0>
0

>  <SCORE.INTRA.SOLV>
2.00218

>  <SCORE.INTRA.SOLV.lig_0>
-97.5861

>  <SCORE.INTRA.VDW>
-10.3881

>  <SCORE.INTRA.VDW.0>
11.7669

>  <SCORE.INTRA.norm>
-0.208763

>  <SCORE.RESTR>
1.67863

>  <SCORE.RESTR.CAVITY>
1.67863

>  <SCORE.RESTR.norm>
0.0419657

>  <SCORE.SYSTEM>
0

>  <SCORE.SYSTEM.CONST>
0

>  <SCORE.SYSTEM.DIHEDRAL>
0

>  <SCORE.SYSTEM.SOLV>
0

>  <SCORE.SYSTEM.norm>
0

>  <SCORE.heavy>
40

>  <SCORE.norm>
-0.411262

>  <RMSD>
21.175

$$$$
1nta_lig
 OpenBabel11021811403D
libRbt.so/2013.1/901 2013/11/27
 40 42  0  0  0  0  0  0  0  0999 V2000
   22.0258   23.4950   -7.9303 C   0  0  0  0  0  0  0  0  0  0  0  0
   22.0165   24.6916   -8.3866 N   0  0  0  0  0  0  0  0  0  0  0  0
   16.8682   23.4856    0.0882 C   0  0  0  0  0  0  0  0  0  0  0  0
   16.0780   22.6963    0.5569 O   0  0  0  0  0  0  0  0  0  0  0  0
   21.4283   25.6802   -2.2486 C   0  0  0  0  0  0  0  0  0  0  0  0
   22.4957   24.9299   -2.1610 N   0  0  0  0  0  0  0  0  0  0  0  0
   18.8149   21.7921    2.1867 C   0  0  0  0  0  0  0  0  0  0  0  0
   18.4871   27.2606    3.2921 C   0  0  0  0  0  0  0  0  0  0  0  0
   21.5493   23.0923   -5.6475 C   0  0  2  0  0  0  0  0  0  0  0  0
   22.5757   23.3444   -6.7346 N   0  0  0  0  0  0  0  0  0  0  0  0
   20.2428   23.5443   -0.6028 C   0  0  2  0  0  0  0  0  0  0  0  0
   18.3575   26.5163    0.1778 C   0  0  1  0  0  0  0  0  0  0  0  0
   19.4106   25.6947   -0.1877 O   0  0  0  0  0  0  0  0  0  0  0  0
   21.4306   24.3278   -4.7352 C   0  0  1  0  0  0  0  0  0  0  0  0
   20.9587   25.3779   -5.5243 O   0  0  0  0  0  0  0  0  0  0  0  0
   19.0295   24.4493   -0.4176 C   0  0  2  0  0  0  0  0  0  0  0  0
   18.7310   27.7056    1.0349 C   0  0  1  0  0  0  0  0  0  0  0  0
   19.4267   27.2382    2.1837 N   0  0  0  0  0  0  0  0  0  0  0  0
   20.4199   24.1202   -3.5994 C   0  0  2  0  0  0  0  0  0  0  0  0
   20.2833   25.2891   -2.6977 N   0  0  0  0  0  0  0  0  0  0  0  0
   18.2710   23.7006    0.5898 C   0  0  1  0  0  0  0  0  0  0  0  0
   18.2996   24.4658    1.7964 O   0  0  0  0  0  0  0  0  0  0  0  0
   19.5489   28.5854    0.3398 C   0  0  2  0  0  0  0  0  0  0  0  0
   19.6083   29.7820    1.0744 O   0  0  0  0  0  0  0  0  0  0  0  0
   20.8646   22.9139   -2.7876 C   0  0  1  0  0  0  0  0  0  0  0  0
   19.9249   22.7243   -1.7413 O   0  0  0  0  0  0  0  0  0  0  0  0
   18.9490   22.4216    0.8348 C   0  0  1  0  0  0  0  0  0  0  0  0
   20.3089   22.6846    0.5116 O   0  0  0  0  0  0  0  0  0  0  0  0
   18.9792   28.8623   -1.0267 C   0  0  1  0  0  0  0  0  0  0  0  0
   19.9314   29.5487   -1.7848 O   0  0  0  0  0  0  0  0  0  0  0  0
   20.9426   21.6542   -3.6963 C   0  0  2  0  0  0  0  0  0  0  0  0
   21.3508   20.5321   -2.9155 O   0  0  0  0  0  0  0  0  0  0  0  0
   18.6716   27.5760   -1.7146 C   0  0  1  0  0  0  0  0  0  0  0  0
   17.7159   26.8997   -0.9500 O   0  0  0  0  0  0  0  0  0  0  0  0
   21.9742   21.8997   -4.8173 C   0  0  1  0  0  0  0  0  0  0  0  0
   22.0618   20.7452   -5.6684 O   0  0  0  0  0  0  0  0  0  0  0  0
   18.0666   27.8182   -3.1116 C   0  0  0  0  0  0  0  0  0  0  0  0
   17.4122   29.0817   -3.1255 O   0  0  0  0  0  0  0  0  0  0  0  0
   21.5383   22.4996   -8.5890 N   0  0  0  0  0  0  0  0  0  0  0  0
   21.4710   26.8908   -1.8495 N   0  0  0  0  0  0  0  0  0  0  0  0
  1  2  1  0  0  0  0
  1 39  1  0  0  0  0
  3  4  1  0  0  0  0
  5  6  1  0  0  0  0
  5 40  1  0  0  0  0
  9 10  1  6  0  0  0
  9 14  1  0  0  0  0
  9 35  1  0  0  0  0
 10  1  1  0  0  0  0
 11 16  1  0  0  0  0
 11 28  1  0  0  0  0
 11 26  1  6  0  0  0
 12 17  1  0  0  0  0
 12 34  1  0  0  0  0
 12 13  1  6  0  0  0
 14 15  1  6  0  0  0
 14 19  1  0  0  0  0
 16 13  1  1  0  0  0
 16 21  1  0  0  0  0
 17 18  1  1  0  0  0
 17 23  1  0  0  0  0
 18  8  1  0  0  0  0
 19 20  1  1  0  0  0
 19 25  1  0  0  0  0
 20  5  1  0  0  0  0
 21  3  1  6  0  0  0
 21 22  1  0  0  0  0
 21 27  1  0  0  0  0
 23 24  1  1  0  0  0
 23 29  1  0  0  0  0
 25 26  1  1  0  0  0
 25 31  1  0  0  0  0
 27  7  1  1  0  0  0
 27 28  1  0  0  0  0
 29 30  1  6  0  0  0
 29 33  1  0  0  0  0
 31 32  1  1  0  0  0
 31 35  1  0  0  0  0
 33 34  1  0  0  0  0
 33 37  1  6  0  0  0
 35 36  1  6  0  0  0
 37 38  1  0  0  0  0
M  END
>  <CHROM.1>
-108.78853253,106.75076363,119.51119905,153.29727819,-171.24415677,-102.12983504
-52.56805292,-23.45795533,165.13020725,-85.11443299,-26.64723257,19.88550399
24.91107888,-1.96194700,-0.23893864,1.17633159,-0.25319781

>  <Name>
1nta_lig

>  <RI>
1.05895e+07

>  <Rbt.Current_Directory>
/home/itssahil/PROJECTS/Mol_Feturizer/New_Systems/rnas/1nta

>  <Rbt.Executable>
rbdock ($Id: //depot/dev/client3/rdock/2013.1/src/exe/rbdock.cxx#4 $)

>  <Rbt.Library>
libRbt.so (2013.1, Build901 2013/11/27)

>  <Rbt.Parameter_File>
/export/apps/rDock/src/rDock_2013.1_src/data/scripts/dock_solv.prm

>  <Rbt.Receptor>
prm/blind_docking_100.prm

>  <SCORE>
-1.53194

>  <SCORE.INTER>
6.38806

>  <SCORE.INTER.CONST>
1

>  <SCORE.INTER.POLAR>
-2.184

>  <SCORE.INTER.ROT>
11

>  <SCORE.INTER.SOLV>
23.1303

>  <SCORE.INTER.VDW>
-7.10471

>  <SCORE.INTER.norm>
0.159702

>  <SCORE.INTRA>
-8.09508

>  <SCORE.INTRA.DIHEDRAL>
1.0888

>  <SCORE.INTRA.DIHEDRAL.0>
19.0336

>  <SCORE.INTRA.POLAR>
0

>  <SCORE.INTRA.POLAR.0>
0

>  <SCORE.INTRA.REPUL>
0

>  <SCORE.INTRA.REPUL.0>
0

>  <SCORE.INTRA.SOLV>
7.47495

>  <SCORE.INTRA.SOLV.lig_0>
-97.5861

>  <SCORE.INTRA.VDW>
-12.377

>  <SCORE.INTRA.VDW.0>
11.7669

>  <SCORE.INTRA.norm>
-0.202377

>  <SCORE.RESTR>
0.175078

>  <SCORE.RESTR.CAVITY>
0.175078

>  <SCORE.RESTR.norm>
0.00437696

>  <SCORE.SYSTEM>
0

>  <SCORE.SYSTEM.CONST>
0

>  <SCORE.SYSTEM.DIHEDRAL>
0

>  <SCORE.SYSTEM.SOLV>
0

>  <SCORE.SYSTEM.norm>
0

>  <SCORE.heavy>
40

>  <SCORE.norm>
-0.0382984

>  <RMSD>
21.189

$$$$
1nta_lig
 OpenBabel11021811403D
libRbt.so/2013.1/901 2013/11/27
 40 42  0  0  0  0  0  0  0  0999 V2000
   18.8067   32.1123    0.2244 C   0  0  0  0  0  0  0  0  0  0  0  0
   17.7430   32.5388    0.7961 N   0  0  0  0  0  0  0  0  0  0  0  0
   20.0226   23.1805   -4.0228 C   0  0  0  0  0  0  0  0  0  0  0  0
   20.6168   23.0486   -5.0701 O   0  0  0  0  0  0  0  0  0  0  0  0
   16.8220   26.3084   -2.0059 C   0  0  0  0  0  0  0  0  0  0  0  0
   16.4305   25.0756   -2.1979 N   0  0  0  0  0  0  0  0  0  0  0  0
   23.0949   23.9429   -3.0023 C   0  0  0  0  0  0  0  0  0  0  0  0
   18.4313   20.3464   -4.0893 C   0  0  0  0  0  0  0  0  0  0  0  0
   19.4579   29.8786   -0.2081 C   0  0  2  0  0  0  0  0  0  0  0  0
   19.3536   31.0348    0.7672 N   0  0  0  0  0  0  0  0  0  0  0  0
   20.2530   24.7273   -0.9532 C   0  0  2  0  0  0  0  0  0  0  0  0
   18.1328   21.9322   -1.1331 C   0  0  1  0  0  0  0  0  0  0  0  0
   19.2933   22.5974   -0.7751 O   0  0  0  0  0  0  0  0  0  0  0  0
   18.2469   28.9402   -0.0476 C   0  0  1  0  0  0  0  0  0  0  0  0
   17.1095   29.6750   -0.3858 O   0  0  0  0  0  0  0  0  0  0  0  0
   19.6456   23.5184   -1.6565 C   0  0  2  0  0  0  0  0  0  0  0  0
   18.3351   20.5845   -1.7900 C   0  0  1  0  0  0  0  0  0  0  0  0
   19.1877   20.7504   -2.9159 N   0  0  0  0  0  0  0  0  0  0  0  0
   18.3115   27.7359   -0.9964 C   0  0  2  0  0  0  0  0  0  0  0  0
   17.1627   26.8079   -0.8656 N   0  0  0  0  0  0  0  0  0  0  0  0
   20.6714   23.2350   -2.6657 C   0  0  1  0  0  0  0  0  0  0  0  0
   21.2824   21.9928   -2.3111 O   0  0  0  0  0  0  0  0  0  0  0  0
   18.9192   19.6828   -0.9115 C   0  0  2  0  0  0  0  0  0  0  0  0
   18.8037   18.4015   -1.4772 O   0  0  0  0  0  0  0  0  0  0  0  0
   19.5987   26.9790   -0.7102 C   0  0  1  0  0  0  0  0  0  0  0  0
   19.6551   25.8689   -1.5924 O   0  0  0  0  0  0  0  0  0  0  0  0
   21.6925   24.2882   -2.6073 C   0  0  1  0  0  0  0  0  0  0  0  0
   21.6264   24.7589   -1.2668 O   0  0  0  0  0  0  0  0  0  0  0  0
   18.2104   19.7113    0.4172 C   0  0  1  0  0  0  0  0  0  0  0  0
   18.9582   18.9832    1.3462 O   0  0  0  0  0  0  0  0  0  0  0  0
   20.8267   27.9113   -0.9146 C   0  0  2  0  0  0  0  0  0  0  0  0
   22.0239   27.1811   -0.6518 O   0  0  0  0  0  0  0  0  0  0  0  0
   18.1033   21.1173    0.9012 C   0  0  1  0  0  0  0  0  0  0  0  0
   17.3507   21.8354   -0.0333 O   0  0  0  0  0  0  0  0  0  0  0  0
   20.7288   29.1017    0.0624 C   0  0  1  0  0  0  0  0  0  0  0  0
   21.8564   29.9754   -0.1105 O   0  0  0  0  0  0  0  0  0  0  0  0
   17.3643   21.1903    2.2520 C   0  0  0  0  0  0  0  0  0  0  0  0
   17.5647   22.4770    2.8260 O   0  0  0  0  0  0  0  0  0  0  0  0
   19.3175   32.6924   -0.8075 N   0  0  0  0  0  0  0  0  0  0  0  0
   16.9105   27.1061   -2.9970 N   0  0  0  0  0  0  0  0  0  0  0  0
  1  2  1  0  0  0  0
  1 39  1  0  0  0  0
  3  4  1  0  0  0  0
  5  6  1  0  0  0  0
  5 40  1  0  0  0  0
  9 10  1  1  0  0  0
  9 14  1  0  0  0  0
  9 35  1  0  0  0  0
 10  1  1  0  0  0  0
 11 16  1  0  0  0  0
 11 28  1  0  0  0  0
 11 26  1  6  0  0  0
 12 17  1  0  0  0  0
 12 34  1  0  0  0  0
 12 13  1  1  0  0  0
 14 15  1  6  0  0  0
 14 19  1  0  0  0  0
 16 13  1  1  0  0  0
 16 21  1  0  0  0  0
 17 18  1  6  0  0  0
 17 23  1  0  0  0  0
 18  8  1  0  0  0  0
 19 20  1  1  0  0  0
 19 25  1  0  0  0  0
 20  5  1  0  0  0  0
 21  3  1  6  0  0  0
 21 22  1  0  0  0  0
 21 27  1  0  0  0  0
 23 24  1  6  0  0  0
 23 29  1  0  0  0  0
 25 26  1  6  0  0  0
 25 31  1  0  0  0  0
 27  7  1  1  0  0  0
 27 28  1  0  0  0  0
 29 30  1  1  0  0  0
 29 33  1  0  0  0  0
 31 32  1  1  0  0  0
 31 35  1  0  0  0  0
 33 34  1  0  0  0  0
 33 37  1  1  0  0  0
 35 36  1  6  0  0  0
 37 38  1  0  0  0  0
M  END
>  <CHROM.1>
-95.39167093,121.27331236,152.32384869,98.98838222,143.96595990,-118.66664177
144.22861136,141.70914471,175.10738991,-144.20473423,166.09418065,19.22058213
24.92243335,-1.03989417,1.53468904,0.78916623,0.11536086

>  <Name>
1nta_lig

>  <RI>
9.25352e+06

>  <Rbt.Current_Directory>
/home/itssahil/PROJECTS/Mol_Feturizer/New_Systems/rnas/1nta

>  <Rbt.Executable>
rbdock ($Id: //depot/dev/client3/rdock/2013.1/src/exe/rbdock.cxx#4 $)

>  <Rbt.Library>
libRbt.so (2013.1, Build901 2013/11/27)

>  <Rbt.Parameter_File>
/export/apps/rDock/src/rDock_2013.1_src/data/scripts/dock_solv.prm

>  <Rbt.Receptor>
prm/blind_docking_40.prm

>  <SCORE>
-14.1499

>  <SCORE.INTER>
-0.525147

>  <SCORE.INTER.CONST>
1

>  <SCORE.INTER.POLAR>
0

>  <SCORE.INTER.ROT>
11

>  <SCORE.INTER.SOLV>
13.5119

>  <SCORE.INTER.VDW>
-15.7874

>  <SCORE.INTER.norm>
-0.0131287

>  <SCORE.INTRA>
-14.36

>  <SCORE.INTRA.DIHEDRAL>
3.1451

>  <SCORE.INTRA.DIHEDRAL.0>
19.0336

>  <SCORE.INTRA.POLAR>
0

>  <SCORE.INTRA.POLAR.0>
0

>  <SCORE.INTRA.REPUL>
0

>  <SCORE.INTRA.REPUL.0>
0

>  <SCORE.INTRA.SOLV>
-0.87163

>  <SCORE.INTRA.SOLV.lig_0>
-97.5861

>  <SCORE.INTRA.VDW>
-15.4967

>  <SCORE.INTRA.VDW.0>
11.7669

>  <SCORE.INTRA.norm>
-0.359

>  <SCORE.RESTR>
0.735265

>  <SCORE.RESTR.CAVITY>
0.735265

>  <SCORE.RESTR.norm>
0.0183816

>  <SCORE.SYSTEM>
0

>  <SCORE.SYSTEM.CONST>
0

>  <SCORE.SYSTEM.DIHEDRAL>
0

>  <SCORE.SYSTEM.SOLV>
0

>  <SCORE.SYSTEM.norm>
0

>  <SCORE.heavy>
40

>  <SCORE.norm>
-0.353747

>  <RMSD>
21.203

$$$$
1nta_lig
 OpenBabel11021811403D
libRbt.so/2013.1/901 2013/11/27
 40 42  0  0  0  0  0  0  0  0999 V2000
   18.9809   31.9162   -0.0064 C   0  0  0  0  0  0  0  0  0  0  0  0
   17.8457   32.5090    0.0003 N   0  0  0  0  0  0  0  0  0  0  0  0
   20.0350   22.9062   -4.1334 C   0  0  0  0  0  0  0  0  0  0  0  0
   20.6294   22.9401   -5.1883 O   0  0  0  0  0  0  0  0  0  0  0  0
   16.5367   25.9026   -1.8891 C   0  0  0  0  0  0  0  0  0  0  0  0
   16.9876   24.8941   -2.5887 N   0  0  0  0  0  0  0  0  0  0  0  0
   23.0686   23.8148   -3.1171 C   0  0  0  0  0  0  0  0  0  0  0  0
   19.0201   19.4213   -3.6357 C   0  0  0  0  0  0  0  0  0  0  0  0
   19.1338   29.5808   -0.3571 C   0  0  2  0  0  0  0  0  0  0  0  0
   19.0161   30.7436    0.6088 N   0  0  0  0  0  0  0  0  0  0  0  0
   20.1953   24.4620   -1.0639 C   0  0  2  0  0  0  0  0  0  0  0  0
   18.2488   21.5274   -1.2717 C   0  0  1  0  0  0  0  0  0  0  0  0
   19.3390   22.2885   -0.8848 O   0  0  0  0  0  0  0  0  0  0  0  0
   18.0204   28.5517   -0.0845 C   0  0  1  0  0  0  0  0  0  0  0  0
   16.8031   29.1865   -0.3361 O   0  0  0  0  0  0  0  0  0  0  0  0
   19.6455   23.2254   -1.7666 C   0  0  2  0  0  0  0  0  0  0  0  0
   18.5245   20.0526   -1.4658 C   0  0  1  0  0  0  0  0  0  0  0  0
   19.5937   19.9076   -2.3921 N   0  0  0  0  0  0  0  0  0  0  0  0
   18.1047   27.3383   -1.0201 C   0  0  2  0  0  0  0  0  0  0  0  0
   17.0498   26.3241   -0.7824 N   0  0  0  0  0  0  0  0  0  0  0  0
   20.6822   22.9915   -2.7771 C   0  0  1  0  0  0  0  0  0  0  0  0
   21.3526   21.7800   -2.4236 O   0  0  0  0  0  0  0  0  0  0  0  0
   18.8810   19.4489   -0.2681 C   0  0  2  0  0  0  0  0  0  0  0  0
   18.8301   18.0578   -0.4609 O   0  0  0  0  0  0  0  0  0  0  0  0
   19.4684   26.6926   -0.8324 C   0  0  1  0  0  0  0  0  0  0  0  0
   19.5424   25.5737   -1.7021 O   0  0  0  0  0  0  0  0  0  0  0  0
   21.6519   24.0925   -2.7200 C   0  0  1  0  0  0  0  0  0  0  0  0
   21.5651   24.5594   -1.3794 O   0  0  0  0  0  0  0  0  0  0  0  0
   17.9194   19.8407    0.8230 C   0  0  1  0  0  0  0  0  0  0  0  0
   18.4328   19.4206    2.0528 O   0  0  0  0  0  0  0  0  0  0  0  0
   20.5956   27.7160   -1.1501 C   0  0  2  0  0  0  0  0  0  0  0  0
   21.8657   27.0892   -0.9787 O   0  0  0  0  0  0  0  0  0  0  0  0
   17.7742   21.3239    0.8581 C   0  0  1  0  0  0  0  0  0  0  0  0
   17.2567   21.7327   -0.3750 O   0  0  0  0  0  0  0  0  0  0  0  0
   20.4816   28.9134   -0.1835 C   0  0  1  0  0  0  0  0  0  0  0  0
   21.5164   29.8710   -0.4607 O   0  0  0  0  0  0  0  0  0  0  0  0
   16.7804   21.7641    1.9512 C   0  0  0  0  0  0  0  0  0  0  0  0
   15.5061   21.1897    1.6839 O   0  0  0  0  0  0  0  0  0  0  0  0
   20.0237   32.4249   -0.5685 N   0  0  0  0  0  0  0  0  0  0  0  0
   15.5288   26.5628   -2.3071 N   0  0  0  0  0  0  0  0  0  0  0  0
  1  2  1  0  0  0  0
  1 39  1  0  0  0  0
  3  4  1  0  0  0  0
  5  6  1  0  0  0  0
  5 40  1  0  0  0  0
  9 10  1  1  0  0  0
  9 14  1  0  0  0  0
  9 35  1  0  0  0  0
 10  1  1  0  0  0  0
 11 16  1  0  0  0  0
 11 28  1  0  0  0  0
 11 26  1  6  0  0  0
 12 17  1  0  0  0  0
 12 34  1  0  0  0  0
 12 13  1  1  0  0  0
 14 15  1  6  0  0  0
 14 19  1  0  0  0  0
 16 13  1  1  0  0  0
 16 21  1  0  0  0  0
 17 18  1  6  0  0  0
 17 23  1  0  0  0  0
 18  8  1  0  0  0  0
 19 20  1  1  0  0  0
 19 25  1  0  0  0  0
 20  5  1  0  0  0  0
 21  3  1  6  0  0  0
 21 22  1  0  0  0  0
 21 27  1  0  0  0  0
 23 24  1  6  0  0  0
 23 29  1  0  0  0  0
 25 26  1  6  0  0  0
 25 31  1  0  0  0  0
 27  7  1  1  0  0  0
 27 28  1  0  0  0  0
 29 30  1  1  0  0  0
 29 33  1  0  0  0  0
 31 32  1  1  0  0  0
 31 35  1  0  0  0  0
 33 34  1  0  0  0  0
 33 37  1  1  0  0  0
 35 36  1  6  0  0  0
 37 38  1  0  0  0  0
M  END
>  <CHROM.1>
-127.04094812,108.28159258,154.00168505,118.48697499,146.81233230,-107.33176693
135.85794421,88.86770809,167.17333643,-139.94176352,-60.11316841,19.07739518
24.65402091,-1.06708468,1.52011906,0.64368317,0.07773193

>  <Name>
1nta_lig

>  <RI>
0

>  <Rbt.Current_Directory>
/home/itssahil/PROJECTS/Mol_Feturizer/New_Systems/rnas/1nta

>  <Rbt.Executable>
rbdock ($Id: //depot/dev/client3/rdock/2013.1/src/exe/rbdock.cxx#4 $)

>  <Rbt.Library>
libRbt.so (2013.1, Build901 2013/11/27)

>  <Rbt.Parameter_File>
/export/apps/rDock/src/rDock_2013.1_src/data/scripts/dock_solv.prm

>  <Rbt.Receptor>
prm/blind_docking_60.prm

>  <SCORE>
-17.5931

>  <SCORE.INTER>
-2.77082

>  <SCORE.INTER.CONST>
1

>  <SCORE.INTER.POLAR>
0

>  <SCORE.INTER.ROT>
11

>  <SCORE.INTER.SOLV>
15.0727

>  <SCORE.INTER.VDW>
-17.8048

>  <SCORE.INTER.norm>
-0.0692704

>  <SCORE.INTRA>
-16.5659

>  <SCORE.INTRA.DIHEDRAL>
5.41323

>  <SCORE.INTRA.DIHEDRAL.0>
19.0336

>  <SCORE.INTRA.POLAR>
0

>  <SCORE.INTRA.POLAR.0>
0

>  <SCORE.INTRA.REPUL>
0

>  <SCORE.INTRA.REPUL.0>
0

>  <SCORE.INTRA.SOLV>
-0.914792

>  <SCORE.INTRA.SOLV.lig_0>
-97.5861

>  <SCORE.INTRA.VDW>
-18.8152

>  <SCORE.INTRA.VDW.0>
11.7669

>  <SCORE.INTRA.norm>
-0.414149

>  <SCORE.RESTR>
1.74362

>  <SCORE.RESTR.CAVITY>
1.74362

>  <SCORE.RESTR.norm>
0.0435904

>  <SCORE.SYSTEM>
0

>  <SCORE.SYSTEM.CONST>
0

>  <SCORE.SYSTEM.DIHEDRAL>
0

>  <SCORE.SYSTEM.SOLV>
0

>  <SCORE.SYSTEM.norm>
0

>  <SCORE.heavy>
40

>  <SCORE.norm>
-0.439829

>  <RMSD>
21.224

$$$$
1nta_lig
 OpenBabel11021811403D
libRbt.so/2013.1/901 2013/11/27
 40 42  0  0  0  0  0  0  0  0999 V2000
   20.9734   31.1203   -0.2773 C   0  0  0  0  0  0  0  0  0  0  0  0
   21.9764   31.4691   -0.9931 N   0  0  0  0  0  0  0  0  0  0  0  0
   19.0267   22.2030   -4.2913 C   0  0  0  0  0  0  0  0  0  0  0  0
   17.9990   21.6634   -4.6376 O   0  0  0  0  0  0  0  0  0  0  0  0
   17.0356   27.2230   -2.6333 C   0  0  0  0  0  0  0  0  0  0  0  0
   17.3789   28.2844   -3.3155 N   0  0  0  0  0  0  0  0  0  0  0  0
   22.1669   21.8554   -3.2522 C   0  0  0  0  0  0  0  0  0  0  0  0
   19.7576   24.0284    1.7174 C   0  0  0  0  0  0  0  0  0  0  0  0
   20.8459   28.7836   -0.6296 C   0  0  2  0  0  0  0  0  0  0  0  0
   21.0802   29.9426    0.3195 N   0  0  0  0  0  0  0  0  0  0  0  0
   19.7907   23.6811   -1.2747 C   0  0  2  0  0  0  0  0  0  0  0  0
   18.9436   21.6164    0.0015 C   0  0  1  0  0  0  0  0  0  0  0  0
   18.1324   22.0433   -1.0364 O   0  0  0  0  0  0  0  0  0  0  0  0
   19.3563   28.3911   -0.6277 C   0  0  1  0  0  0  0  0  0  0  0  0
   18.6419   29.4862   -1.1160 O   0  0  0  0  0  0  0  0  0  0  0  0
   18.7920   22.7433   -1.9442 C   0  0  2  0  0  0  0  0  0  0  0  0
   18.5373   22.0922    1.3789 C   0  0  1  0  0  0  0  0  0  0  0  0
   18.4468   23.5113    1.3619 N   0  0  0  0  0  0  0  0  0  0  0  0
   19.0639   27.2045   -1.5557 C   0  0  2  0  0  0  0  0  0  0  0  0
   17.6388   26.7961   -1.5752 N   0  0  0  0  0  0  0  0  0  0  0  0
   19.6500   22.0737   -2.9273 C   0  0  1  0  0  0  0  0  0  0  0  0
   19.7758   20.7097   -2.5203 O   0  0  0  0  0  0  0  0  0  0  0  0
   17.3065   21.5666    1.7464 C   0  0  2  0  0  0  0  0  0  0  0  0
   17.1366   21.8020    3.1215 O   0  0  0  0  0  0  0  0  0  0  0  0
   19.9131   26.0288   -1.0991 C   0  0  1  0  0  0  0  0  0  0  0  0
   19.6415   24.9358   -1.9625 O   0  0  0  0  0  0  0  0  0  0  0  0
   20.9803   22.6939   -2.8906 C   0  0  1  0  0  0  0  0  0  0  0  0
   21.0850   23.2079   -1.5686 O   0  0  0  0  0  0  0  0  0  0  0  0
   17.2694   20.0844    1.4818 C   0  0  1  0  0  0  0  0  0  0  0  0
   15.9567   19.6294    1.6309 O   0  0  0  0  0  0  0  0  0  0  0  0
   21.4211   26.4067   -1.1422 C   0  0  2  0  0  0  0  0  0  0  0  0
   22.2011   25.2890   -0.7209 O   0  0  0  0  0  0  0  0  0  0  0  0
   17.7035   19.8113    0.0820 C   0  0  1  0  0  0  0  0  0  0  0  0
   19.0185   20.2667   -0.0549 O   0  0  0  0  0  0  0  0  0  0  0  0
   21.6743   27.5948   -0.1907 C   0  0  1  0  0  0  0  0  0  0  0  0
   23.0641   27.9590   -0.2156 O   0  0  0  0  0  0  0  0  0  0  0  0
   17.6981   18.3000   -0.2218 C   0  0  0  0  0  0  0  0  0  0  0  0
   16.3802   17.8992   -0.5789 O   0  0  0  0  0  0  0  0  0  0  0  0
   19.9256   31.8602   -0.1473 N   0  0  0  0  0  0  0  0  0  0  0  0
   16.0195   26.5410   -2.9923 N   0  0  0  0  0  0  0  0  0  0  0  0
  1  2  1  0  0  0  0
  1 39  1  0  0  0  0
  3  4  1  0  0  0  0
  5  6  1  0  0  0  0
  5 40  1  0  0  0  0
  9 10  1  1  0  0  0
  9 14  1  0  0  0  0
  9 35  1  0  0  0  0
 10  1  1  0  0  0  0
 11 16  1  0  0  0  0
 11 28  1  0  0  0  0
 11 26  1  6  0  0  0
 12 17  1  0  0  0  0
 12 34  1  0  0  0  0
 12 13  1  6  0  0  0
 14 15  1  6  0  0  0
 14 19  1  0  0  0  0
 16 13  1  1  0  0  0
 16 21  1  0  0  0  0
 17 18  1  6  0  0  0
 17 23  1  0  0  0  0
 18  8  1  0  0  0  0
 19 20  1  1  0  0  0
 19 25  1  0  0  0  0
 20  5  1  0  0  0  0
 21  3  1  6  0  0  0
 21 22  1  0  0  0  0
 21 27  1  0  0  0  0
 23 24  1  1  0  0  0
 23 29  1  0  0  0  0
 25 26  1  6  0  0  0
 25 31  1  0  0  0  0
 27  7  1  1  0  0  0
 27 28  1  0  0  0  0
 29 30  1  6  0  0  0
 29 33  1  0  0  0  0
 31 32  1  1  0  0  0
 31 35  1  0  0  0  0
 33 34  1  0  0  0  0
 33 37  1  1  0  0  0
 35 36  1  6  0  0  0
 37 38  1  0  0  0  0
M  END
>  <CHROM.1>
-91.11473462,-77.04985593,149.08110800,120.83409488,-40.36667574,-89.87643693
102.22269083,-26.62840236,-68.20709147,-149.55300741,83.34241075,19.23038111
24.39723157,-0.88581866,0.93568073,1.11185294,0.51931810

>  <Name>
1nta_lig

>  <RI>
0

>  <Rbt.Current_Directory>
/home/itssahil/PROJECTS/Mol_Feturizer/New_Systems/rnas/1nta

>  <Rbt.Executable>
rbdock ($Id: //depot/dev/client3/rdock/2013.1/src/exe/rbdock.cxx#4 $)

>  <Rbt.Library>
libRbt.so (2013.1, Build901 2013/11/27)

>  <Rbt.Parameter_File>
/export/apps/rDock/src/rDock_2013.1_src/data/scripts/dock_solv.prm

>  <Rbt.Receptor>
prm/blind_docking_60.prm

>  <SCORE>
-19.2709

>  <SCORE.INTER>
-9.88839

>  <SCORE.INTER.CONST>
1

>  <SCORE.INTER.POLAR>
0

>  <SCORE.INTER.ROT>
11

>  <SCORE.INTER.SOLV>
19.2721

>  <SCORE.INTER.VDW>
-23.9496

>  <SCORE.INTER.norm>
-0.24721

>  <SCORE.INTRA>
-12.1829

>  <SCORE.INTRA.DIHEDRAL>
2.75623

>  <SCORE.INTRA.DIHEDRAL.0>
19.0336

>  <SCORE.INTRA.POLAR>
0

>  <SCORE.INTRA.POLAR.0>
0

>  <SCORE.INTRA.REPUL>
0.00567711

>  <SCORE.INTRA.REPUL.0>
0

>  <SCORE.INTRA.SOLV>
-3.73551

>  <SCORE.INTRA.SOLV.lig_0>
-97.5861

>  <SCORE.INTRA.VDW>
-11.7216

>  <SCORE.INTRA.VDW.0>
11.7669

>  <SCORE.INTRA.norm>
-0.304572

>  <SCORE.RESTR>
2.80038

>  <SCORE.RESTR.CAVITY>
2.80038

>  <SCORE.RESTR.norm>
0.0700096

>  <SCORE.SYSTEM>
0

>  <SCORE.SYSTEM.CONST>
0

>  <SCORE.SYSTEM.DIHEDRAL>
0

>  <SCORE.SYSTEM.SOLV>
0

>  <SCORE.SYSTEM.norm>
0

>  <SCORE.heavy>
40

>  <SCORE.norm>
-0.481773

>  <RMSD>
21.227

$$$$
1nta_lig
 OpenBabel11021811403D
libRbt.so/2013.1/901 2013/11/27
 40 42  0  0  0  0  0  0  0  0999 V2000
   18.9062   32.8244   -0.9743 C   0  0  0  0  0  0  0  0  0  0  0  0
   19.8823   33.4368   -1.5331 N   0  0  0  0  0  0  0  0  0  0  0  0
   21.9654   24.1151   -0.2045 C   0  0  0  0  0  0  0  0  0  0  0  0
   22.5467   24.8992   -0.9219 O   0  0  0  0  0  0  0  0  0  0  0  0
   17.0320   26.9583   -3.0161 C   0  0  0  0  0  0  0  0  0  0  0  0
   17.9621   26.9691   -3.9351 N   0  0  0  0  0  0  0  0  0  0  0  0
   20.1237   25.3447    2.2770 C   0  0  0  0  0  0  0  0  0  0  0  0
   20.9804   24.8433   -4.4656 C   0  0  0  0  0  0  0  0  0  0  0  0
   19.4709   30.5263   -0.9453 C   0  0  2  0  0  0  0  0  0  0  0  0
   19.2427   31.8169   -0.1828 N   0  0  0  0  0  0  0  0  0  0  0  0
   18.8458   25.2874   -1.0777 C   0  0  2  0  0  0  0  0  0  0  0  0
   19.0220   22.8100   -2.9185 C   0  0  1  0  0  0  0  0  0  0  0  0
   19.0709   23.0033   -1.5482 O   0  0  0  0  0  0  0  0  0  0  0  0
   18.1550   29.7318   -1.0461 C   0  0  1  0  0  0  0  0  0  0  0  0
   17.2625   30.5069   -1.7880 O   0  0  0  0  0  0  0  0  0  0  0  0
   19.7643   24.0773   -1.2092 C   0  0  2  0  0  0  0  0  0  0  0  0
   20.3637   22.7812   -3.6169 C   0  0  1  0  0  0  0  0  0  0  0  0
   21.0664   23.9767   -3.3021 N   0  0  0  0  0  0  0  0  0  0  0  0
   18.3319   28.4012   -1.7898 C   0  0  2  0  0  0  0  0  0  0  0  0
   17.0849   27.6070   -1.9016 N   0  0  0  0  0  0  0  0  0  0  0  0
   20.4849   24.1308    0.0670 C   0  0  1  0  0  0  0  0  0  0  0  0
   20.0671   23.0018    0.8369 O   0  0  0  0  0  0  0  0  0  0  0  0
   21.1190   21.6926   -3.2038 C   0  0  2  0  0  0  0  0  0  0  0  0
   22.2006   21.5633   -4.0918 O   0  0  0  0  0  0  0  0  0  0  0  0
   19.3789   27.5835   -1.0502 C   0  0  1  0  0  0  0  0  0  0  0  0
   19.5410   26.3562   -1.7438 O   0  0  0  0  0  0  0  0  0  0  0  0
   20.0889   25.3516    0.7801 C   0  0  1  0  0  0  0  0  0  0  0  0
   18.7843   25.6311    0.2874 O   0  0  0  0  0  0  0  0  0  0  0  0
   20.2890   20.4362   -3.2363 C   0  0  1  0  0  0  0  0  0  0  0  0
   20.9904   19.4122   -2.5945 O   0  0  0  0  0  0  0  0  0  0  0  0
   20.7225   28.3642   -0.9851 C   0  0  2  0  0  0  0  0  0  0  0  0
   21.6939   27.5774   -0.2976 O   0  0  0  0  0  0  0  0  0  0  0  0
   19.0097   20.6581   -2.5038 C   0  0  1  0  0  0  0  0  0  0  0  0
   18.3149   21.6813   -3.1562 O   0  0  0  0  0  0  0  0  0  0  0  0
   20.5043   29.6881   -0.2231 C   0  0  1  0  0  0  0  0  0  0  0  0
   21.7361   30.4245   -0.1513 O   0  0  0  0  0  0  0  0  0  0  0  0
   18.1219   19.3982   -2.5319 C   0  0  0  0  0  0  0  0  0  0  0  0
   18.6615   18.4255   -1.6444 O   0  0  0  0  0  0  0  0  0  0  0  0
   17.6766   33.1590   -1.1700 N   0  0  0  0  0  0  0  0  0  0  0  0
   15.9640   26.2872   -3.2042 N   0  0  0  0  0  0  0  0  0  0  0  0
  1  2  1  0  0  0  0
  1 39  1  0  0  0  0
  3  4  1  0  0  0  0
  5  6  1  0  0  0  0
  5 40  1  0  0  0  0
  9 10  1  1  0  0  0
  9 14  1  0  0  0  0
  9 35  1  0  0  0  0
 10  1  1  0  0  0  0
 11 16  1  0  0  0  0
 11 28  1  0  0  0  0
 11 26  1  6  0  0  0
 12 17  1  0  0  0  0
 12 34  1  0  0  0  0
 12 13  1  1  0  0  0
 14 15  1  6  0  0  0
 14 19  1  0  0  0  0
 16 13  1  1  0  0  0
 16 21  1  0  0  0  0
 17 18  1  1  0  0  0
 17 23  1  0  0  0  0
 18  8  1  0  0  0  0
 19 20  1  1  0  0  0
 19 25  1  0  0  0  0
 20  5  1  0  0  0  0
 21  3  1  6  0  0  0
 21 22  1  0  0  0  0
 21 27  1  0  0  0  0
 23 24  1  6  0  0  0
 23 29  1  0  0  0  0
 25 26  1  6  0  0  0
 25 31  1  0  0  0  0
 27  7  1  1  0  0  0
 27 28  1  0  0  0  0
 29 30  1  1  0  0  0
 29 33  1  0  0  0  0
 31 32  1  1  0  0  0
 31 35  1  0  0  0  0
 33 34  1  0  0  0  0
 33 37  1  6  0  0  0
 35 36  1  6  0  0  0
 37 38  1  0  0  0  0
M  END
>  <CHROM.1>
-90.26055195,-83.59130936,-141.39118065,53.47990640,92.62810028,-103.50452725
145.48319368,1.08741922,55.21497575,-101.79925935,74.15102049,19.58606129
25.70436194,-1.59111771,1.67679963,-0.64208065,0.20861577

>  <Name>
1nta_lig

>  <RI>
0

>  <Rbt.Current_Directory>
/home/itssahil/PROJECTS/Mol_Feturizer/New_Systems/rnas/1nta

>  <Rbt.Executable>
rbdock ($Id: //depot/dev/client3/rdock/2013.1/src/exe/rbdock.cxx#4 $)

>  <Rbt.Library>
libRbt.so (2013.1, Build901 2013/11/27)

>  <Rbt.Parameter_File>
/export/apps/rDock/src/rDock_2013.1_src/data/scripts/dock_solv.prm

>  <Rbt.Receptor>
prm/blind_docking_60.prm

>  <SCORE>
-16.6911

>  <SCORE.INTER>
-6.78828

>  <SCORE.INTER.CONST>
1

>  <SCORE.INTER.POLAR>
0

>  <SCORE.INTER.ROT>
11

>  <SCORE.INTER.SOLV>
16.3892

>  <SCORE.INTER.VDW>
-20.9219

>  <SCORE.INTER.norm>
-0.169707

>  <SCORE.INTRA>
-11.0709

>  <SCORE.INTRA.DIHEDRAL>
0.368156

>  <SCORE.INTRA.DIHEDRAL.0>
19.0336

>  <SCORE.INTRA.POLAR>
0

>  <SCORE.INTRA.POLAR.0>
0

>  <SCORE.INTRA.REPUL>
0

>  <SCORE.INTRA.REPUL.0>
0

>  <SCORE.INTRA.SOLV>
0.416365

>  <SCORE.INTRA.SOLV.lig_0>
-97.5861

>  <SCORE.INTRA.VDW>
-11.4631

>  <SCORE.INTRA.VDW.0>
11.7669

>  <SCORE.INTRA.norm>
-0.276771

>  <SCORE.RESTR>
1.16802

>  <SCORE.RESTR.CAVITY>
1.16802

>  <SCORE.RESTR.norm>
0.0292006

>  <SCORE.SYSTEM>
0

>  <SCORE.SYSTEM.CONST>
0

>  <SCORE.SYSTEM.DIHEDRAL>
0

>  <SCORE.SYSTEM.SOLV>
0

>  <SCORE.SYSTEM.norm>
0

>  <SCORE.heavy>
40

>  <SCORE.norm>
-0.417278

>  <RMSD>
21.294

$$$$
1nta_lig
 OpenBabel11021811403D
libRbt.so/2013.1/901 2013/11/27
 40 42  0  0  0  0  0  0  0  0999 V2000
   20.5584   22.6927   -7.6102 C   0  0  0  0  0  0  0  0  0  0  0  0
   20.0805   22.6681   -8.7981 N   0  0  0  0  0  0  0  0  0  0  0  0
   17.9625   22.8706    1.3249 C   0  0  0  0  0  0  0  0  0  0  0  0
   17.7356   22.1252    2.2524 O   0  0  0  0  0  0  0  0  0  0  0  0
   18.6885   20.5278   -1.7100 C   0  0  0  0  0  0  0  0  0  0  0  0
   18.8199   19.5919   -2.6137 N   0  0  0  0  0  0  0  0  0  0  0  0
   20.7049   23.4368    3.1193 C   0  0  0  0  0  0  0  0  0  0  0  0
   16.0151   26.5507   -3.0017 C   0  0  0  0  0  0  0  0  0  0  0  0
   20.2785   22.9311   -5.2724 C   0  0  2  0  0  0  0  0  0  0  0  0
   19.7345   23.1365   -6.6727 N   0  0  0  0  0  0  0  0  0  0  0  0
   20.4929   24.5694   -0.2811 C   0  0  2  0  0  0  0  0  0  0  0  0
   18.7482   26.3259   -1.4347 C   0  0  1  0  0  0  0  0  0  0  0  0
   18.5397   25.8563   -0.1488 O   0  0  0  0  0  0  0  0  0  0  0  0
   19.1556   22.4506   -4.3338 C   0  0  1  0  0  0  0  0  0  0  0  0
   18.7284   21.2086   -4.8058 O   0  0  0  0  0  0  0  0  0  0  0  0
   19.0007   24.6293    0.0269 C   0  0  2  0  0  0  0  0  0  0  0  0
   17.8272   27.4430   -1.8736 C   0  0  1  0  0  0  0  0  0  0  0  0
   16.4813   27.0155   -1.7061 N   0  0  0  0  0  0  0  0  0  0  0  0
   19.6450   22.2482   -2.8935 C   0  0  2  0  0  0  0  0  0  0  0  0
   18.5879   21.7899   -1.9604 N   0  0  0  0  0  0  0  0  0  0  0  0
   18.9607   23.9970    1.3496 C   0  0  1  0  0  0  0  0  0  0  0  0
   18.6055   25.0102    2.2927 O   0  0  0  0  0  0  0  0  0  0  0  0
   18.0339   28.5878   -1.1168 C   0  0  2  0  0  0  0  0  0  0  0  0
   17.3746   29.6487   -1.7609 O   0  0  0  0  0  0  0  0  0  0  0  0
   20.2089   23.5702   -2.3973 C   0  0  1  0  0  0  0  0  0  0  0  0
   20.6630   23.3764   -1.0669 O   0  0  0  0  0  0  0  0  0  0  0  0
   20.3053   23.5075    1.6781 C   0  0  1  0  0  0  0  0  0  0  0  0
   21.1722   24.3554    0.9348 O   0  0  0  0  0  0  0  0  0  0  0  0
   19.5054   28.8944   -1.0212 C   0  0  1  0  0  0  0  0  0  0  0  0
   19.6992   29.8967   -0.0671 O   0  0  0  0  0  0  0  0  0  0  0  0
   21.3730   24.0366   -3.3171 C   0  0  2  0  0  0  0  0  0  0  0  0
   21.8952   25.2716   -2.8299 O   0  0  0  0  0  0  0  0  0  0  0  0
   20.2461   27.6782   -0.5799 C   0  0  1  0  0  0  0  0  0  0  0  0
   20.0485   26.6838   -1.5429 O   0  0  0  0  0  0  0  0  0  0  0  0
   20.8384   24.2374   -4.7506 C   0  0  1  0  0  0  0  0  0  0  0  0
   21.9003   24.6699   -5.6168 O   0  0  0  0  0  0  0  0  0  0  0  0
   21.7613   27.9468   -0.4892 C   0  0  0  0  0  0  0  0  0  0  0  0
   22.4368   26.7264   -0.2077 O   0  0  0  0  0  0  0  0  0  0  0  0
   21.7617   22.3164   -7.3408 N   0  0  0  0  0  0  0  0  0  0  0  0
   18.6276   20.2120   -0.4759 N   0  0  0  0  0  0  0  0  0  0  0  0
  1  2  1  0  0  0  0
  1 39  1  0  0  0  0
  3  4  1  0  0  0  0
  5  6  1  0  0  0  0
  5 40  1  0  0  0  0
  9 10  1  6  0  0  0
  9 14  1  0  0  0  0
  9 35  1  0  0  0  0
 10  1  1  0  0  0  0
 11 16  1  0  0  0  0
 11 28  1  0  0  0  0
 11 26  1  6  0  0  0
 12 17  1  0  0  0  0
 12 34  1  0  0  0  0
 12 13  1  1  0  0  0
 14 15  1  6  0  0  0
 14 19  1  0  0  0  0
 16 13  1  1  0  0  0
 16 21  1  0  0  0  0
 17 18  1  1  0  0  0
 17 23  1  0  0  0  0
 18  8  1  0  0  0  0
 19 20  1  1  0  0  0
 19 25  1  0  0  0  0
 20  5  1  0  0  0  0
 21  3  1  1  0  0  0
 21 22  1  0  0  0  0
 21 27  1  0  0  0  0
 23 24  1  6  0  0  0
 23 29  1  0  0  0  0
 25 26  1  1  0  0  0
 25 31  1  0  0  0  0
 27  7  1  1  0  0  0
 27 28  1  0  0  0  0
 29 30  1  1  0  0  0
 29 33  1  0  0  0  0
 31 32  1  1  0  0  0
 31 35  1  0  0  0  0
 33 34  1  0  0  0  0
 33 37  1  6  0  0  0
 35 36  1  6  0  0  0
 37 38  1  0  0  0  0
M  END
>  <CHROM.1>
-138.37694301,170.76088558,75.69661044,157.57167979,58.08286986,-97.83887252
102.70125181,-49.25750767,177.24196911,-147.03930721,-173.73354877,19.58849048
24.55456749,-1.87472660,-0.61051279,1.41952232,0.00813893

>  <Name>
1nta_lig

>  <RI>
1.05895e+07

>  <Rbt.Current_Directory>
/home/itssahil/PROJECTS/Mol_Feturizer/New_Systems/rnas/1nta

>  <Rbt.Executable>
rbdock ($Id: //depot/dev/client3/rdock/2013.1/src/exe/rbdock.cxx#4 $)

>  <Rbt.Library>
libRbt.so (2013.1, Build901 2013/11/27)

>  <Rbt.Parameter_File>
/export/apps/rDock/src/rDock_2013.1_src/data/scripts/dock_solv.prm

>  <Rbt.Receptor>
prm/blind_docking_100.prm

>  <SCORE>
-23.855

>  <SCORE.INTER>
-6.10533

>  <SCORE.INTER.CONST>
1

>  <SCORE.INTER.POLAR>
-0.328631

>  <SCORE.INTER.ROT>
11

>  <SCORE.INTER.SOLV>
12.1664

>  <SCORE.INTER.VDW>
-17.9636

>  <SCORE.INTER.norm>
-0.152633

>  <SCORE.INTRA>
-18.2801

>  <SCORE.INTRA.DIHEDRAL>
-6.87641

>  <SCORE.INTRA.DIHEDRAL.0>
19.0336

>  <SCORE.INTRA.POLAR>
0

>  <SCORE.INTRA.POLAR.0>
0

>  <SCORE.INTRA.REPUL>
0.0264078

>  <SCORE.INTRA.REPUL.0>
0

>  <SCORE.INTRA.SOLV>
-1.72192

>  <SCORE.INTRA.SOLV.lig_0>
-97.5861

>  <SCORE.INTRA.VDW>
-14.113

>  <SCORE.INTRA.VDW.0>
11.7669

>  <SCORE.INTRA.norm>
-0.457003

>  <SCORE.RESTR>
0.530489

>  <SCORE.RESTR.CAVITY>
0.530489

>  <SCORE.RESTR.norm>
0.0132622

>  <SCORE.SYSTEM>
0

>  <SCORE.SYSTEM.CONST>
0

>  <SCORE.SYSTEM.DIHEDRAL>
0

>  <SCORE.SYSTEM.SOLV>
0

>  <SCORE.SYSTEM.norm>
0

>  <SCORE.heavy>
40

>  <SCORE.norm>
-0.596374

>  <RMSD>
21.303

$$$$
1nta_lig
 OpenBabel11021811403D
libRbt.so/2013.1/901 2013/11/27
 40 42  0  0  0  0  0  0  0  0999 V2000
   19.6403   30.5120    1.7972 C   0  0  0  0  0  0  0  0  0  0  0  0
   20.6935   30.7130    2.4975 N   0  0  0  0  0  0  0  0  0  0  0  0
   18.4822   22.1617   -3.8235 C   0  0  0  0  0  0  0  0  0  0  0  0
   17.5103   21.4416   -3.7600 O   0  0  0  0  0  0  0  0  0  0  0  0
   16.3448   26.0488   -2.0629 C   0  0  0  0  0  0  0  0  0  0  0  0
   17.0192   26.5216   -3.0785 N   0  0  0  0  0  0  0  0  0  0  0  0
   21.7492   22.6905   -4.1531 C   0  0  0  0  0  0  0  0  0  0  0  0
   18.4597   18.2767   -2.5738 C   0  0  0  0  0  0  0  0  0  0  0  0
   19.2206   28.4224    0.7686 C   0  0  2  0  0  0  0  0  0  0  0  0
   19.0572   29.3349    1.9684 N   0  0  0  0  0  0  0  0  0  0  0  0
   20.0514   23.6360   -1.1342 C   0  0  2  0  0  0  0  0  0  0  0  0
   17.9796   20.7637   -0.6178 C   0  0  1  0  0  0  0  0  0  0  0  0
   19.0996   21.5754   -0.5532 O   0  0  0  0  0  0  0  0  0  0  0  0
   17.9337   27.6056    0.5460 C   0  0  1  0  0  0  0  0  0  0  0  0
   16.9165   28.5139    0.2487 O   0  0  0  0  0  0  0  0  0  0  0  0
   19.1264   22.4845   -1.5134 C   0  0  2  0  0  0  0  0  0  0  0  0
   18.2477   19.2794   -0.4997 C   0  0  1  0  0  0  0  0  0  0  0  0
   19.1964   18.9079   -1.4917 N   0  0  0  0  0  0  0  0  0  0  0  0
   18.0504   26.6448   -0.6448 C   0  0  2  0  0  0  0  0  0  0  0  0
   16.8300   25.8381   -0.8856 N   0  0  0  0  0  0  0  0  0  0  0  0
   19.6295   22.1476   -2.8492 C   0  0  1  0  0  0  0  0  0  0  0  0
   20.2425   20.8599   -2.7584 O   0  0  0  0  0  0  0  0  0  0  0  0
   18.7565   18.9615    0.7518 C   0  0  2  0  0  0  0  0  0  0  0  0
   18.6995   17.5643    0.8921 O   0  0  0  0  0  0  0  0  0  0  0  0
   19.2216   25.7109   -0.3836 C   0  0  1  0  0  0  0  0  0  0  0  0
   19.3272   24.8273   -1.4889 O   0  0  0  0  0  0  0  0  0  0  0  0
   20.6575   23.1259   -3.2255 C   0  0  1  0  0  0  0  0  0  0  0  0
   21.1765   23.5771   -1.9805 O   0  0  0  0  0  0  0  0  0  0  0  0
   17.9318   19.6092    1.8330 C   0  0  1  0  0  0  0  0  0  0  0  0
   18.5979   19.4748    3.0539 O   0  0  0  0  0  0  0  0  0  0  0  0
   20.5314   26.5297   -0.2025 C   0  0  2  0  0  0  0  0  0  0  0  0
   21.6191   25.6366    0.0309 O   0  0  0  0  0  0  0  0  0  0  0  0
   17.7735   21.0630    1.5434 C   0  0  1  0  0  0  0  0  0  0  0  0
   17.1031   21.1857    0.3224 O   0  0  0  0  0  0  0  0  0  0  0  0
   20.3765   27.4744    1.0078 C   0  0  1  0  0  0  0  0  0  0  0  0
   21.5784   28.2401    1.1925 O   0  0  0  0  0  0  0  0  0  0  0  0
   16.9165   21.7588    2.6194 C   0  0  0  0  0  0  0  0  0  0  0  0
   15.6476   21.1189    2.6929 O   0  0  0  0  0  0  0  0  0  0  0  0
   19.1775   31.3912    0.9756 N   0  0  0  0  0  0  0  0  0  0  0  0
   15.1044   25.7834   -2.1950 N   0  0  0  0  0  0  0  0  0  0  0  0
  1  2  1  0  0  0  0
  1 39  1  0  0  0  0
  3  4  1  0  0  0  0
  5  6  1  0  0  0  0
  5 40  1  0  0  0  0
  9 10  1  1  0  0  0
  9 14  1  0  0  0  0
  9 35  1  0  0  0  0
 10  1  1  0  0  0  0
 11 16  1  0  0  0  0
 11 28  1  0  0  0  0
 11 26  1  6  0  0  0
 12 17  1  0  0  0  0
 12 34  1  0  0  0  0
 12 13  1  1  0  0  0
 14 15  1  6  0  0  0
 14 19  1  0  0  0  0
 16 13  1  1  0  0  0
 16 21  1  0  0  0  0
 17 18  1  6  0  0  0
 17 23  1  0  0  0  0
 18  8  1  0  0  0  0
 19 20  1  1  0  0  0
 19 25  1  0  0  0  0
 20  5  1  0  0  0  0
 21  3  1  6  0  0  0
 21 22  1  0  0  0  0
 21 27  1  0  0  0  0
 23 24  1  1  0  0  0
 23 29  1  0  0  0  0
 25 26  1  6  0  0  0
 25 31  1  0  0  0  0
 27  7  1  6  0  0  0
 27 28  1  0  0  0  0
 29 30  1  1  0  0  0
 29 33  1  0  0  0  0
 31 32  1  1  0  0  0
 31 35  1  0  0  0  0
 33 34  1  0  0  0  0
 33 37  1  1  0  0  0
 35 36  1  6  0  0  0
 37 38  1  0  0  0  0
M  END
>  <CHROM.1>
-142.53387078,-109.10707569,125.68129083,132.41441361,159.55563425,-101.71480975
120.22067298,21.85472018,-61.26002716,-158.89083982,-57.43953763,18.79868957
23.87414013,-0.42821546,1.31950790,1.22378414,0.37167620

>  <Name>
1nta_lig

>  <RI>
9.25352e+06

>  <Rbt.Current_Directory>
/home/itssahil/PROJECTS/Mol_Feturizer/New_Systems/rnas/1nta

>  <Rbt.Executable>
rbdock ($Id: //depot/dev/client3/rdock/2013.1/src/exe/rbdock.cxx#4 $)

>  <Rbt.Library>
libRbt.so (2013.1, Build901 2013/11/27)

>  <Rbt.Parameter_File>
/export/apps/rDock/src/rDock_2013.1_src/data/scripts/dock_solv.prm

>  <Rbt.Receptor>
prm/blind_docking_40.prm

>  <SCORE>
-24.6447

>  <SCORE.INTER>
-7.23136

>  <SCORE.INTER.CONST>
1

>  <SCORE.INTER.POLAR>
0

>  <SCORE.INTER.ROT>
11

>  <SCORE.INTER.SOLV>
15.1707

>  <SCORE.INTER.VDW>
-20.8111

>  <SCORE.INTER.norm>
-0.180784

>  <SCORE.INTRA>
-18.0786

>  <SCORE.INTRA.DIHEDRAL>
2.1261

>  <SCORE.INTRA.DIHEDRAL.0>
19.0336

>  <SCORE.INTRA.POLAR>
0

>  <SCORE.INTRA.POLAR.0>
0

>  <SCORE.INTRA.REPUL>
0

>  <SCORE.INTRA.REPUL.0>
0

>  <SCORE.INTRA.SOLV>
-4.20091

>  <SCORE.INTRA.SOLV.lig_0>
-97.5861

>  <SCORE.INTRA.VDW>
-17.0412

>  <SCORE.INTRA.VDW.0>
11.7669

>  <SCORE.INTRA.norm>
-0.451965

>  <SCORE.RESTR>
0.665244

>  <SCORE.RESTR.CAVITY>
0.665244

>  <SCORE.RESTR.norm>
0.0166311

>  <SCORE.SYSTEM>
0

>  <SCORE.SYSTEM.CONST>
0

>  <SCORE.SYSTEM.DIHEDRAL>
0

>  <SCORE.SYSTEM.SOLV>
0

>  <SCORE.SYSTEM.norm>
0

>  <SCORE.heavy>
40

>  <SCORE.norm>
-0.616118

>  <RMSD>
21.341

$$$$
1nta_lig
 OpenBabel11021811403D
libRbt.so/2013.1/901 2013/11/27
 40 42  0  0  0  0  0  0  0  0999 V2000
   18.1185   32.1432   -1.1218 C   0  0  0  0  0  0  0  0  0  0  0  0
   17.4617   32.6073   -2.1185 N   0  0  0  0  0  0  0  0  0  0  0  0
   22.1880   23.2195   -3.1356 C   0  0  0  0  0  0  0  0  0  0  0  0
   22.5089   24.1256   -3.8726 O   0  0  0  0  0  0  0  0  0  0  0  0
   16.8657   26.2127   -2.6161 C   0  0  0  0  0  0  0  0  0  0  0  0
   15.6326   26.5936   -2.8262 N   0  0  0  0  0  0  0  0  0  0  0  0
   23.7638   24.3735   -0.4437 C   0  0  0  0  0  0  0  0  0  0  0  0
   19.4956   22.0880   -5.0624 C   0  0  0  0  0  0  0  0  0  0  0  0
   18.6357   29.8352   -1.2025 C   0  0  2  0  0  0  0  0  0  0  0  0
   17.7392   30.9478   -0.6951 N   0  0  0  0  0  0  0  0  0  0  0  0
   20.2259   24.8532   -0.8226 C   0  0  2  0  0  0  0  0  0  0  0  0
   18.5215   22.2504   -1.9492 C   0  0  1  0  0  0  0  0  0  0  0  0
   19.5526   22.6270   -1.1051 O   0  0  0  0  0  0  0  0  0  0  0  0
   17.8060   28.8070   -1.9945 C   0  0  1  0  0  0  0  0  0  0  0  0
   17.2851   29.4686   -3.1076 O   0  0  0  0  0  0  0  0  0  0  0  0
   20.3250   23.5634   -1.6300 C   0  0  2  0  0  0  0  0  0  0  0  0
   18.8873   21.2280   -3.0026 C   0  0  1  0  0  0  0  0  0  0  0  0
   19.9942   21.7189   -3.7482 N   0  0  0  0  0  0  0  0  0  0  0  0
   18.6602   27.6427   -2.5135 C   0  0  2  0  0  0  0  0  0  0  0  0
   17.8924   26.6302   -3.2774 N   0  0  0  0  0  0  0  0  0  0  0  0
   21.7790   23.3838   -1.6963 C   0  0  1  0  0  0  0  0  0  0  0  0
   22.0999   22.2337   -0.9111 O   0  0  0  0  0  0  0  0  0  0  0  0
   19.2361   20.0162   -2.4231 C   0  0  2  0  0  0  0  0  0  0  0  0
   19.2712   19.0507   -3.4438 O   0  0  0  0  0  0  0  0  0  0  0  0
   19.3184   26.9717   -1.3183 C   0  0  1  0  0  0  0  0  0  0  0  0
   20.1095   25.8985   -1.8041 O   0  0  0  0  0  0  0  0  0  0  0  0
   22.4259   24.5546   -1.0910 C   0  0  1  0  0  0  0  0  0  0  0  0
   21.4597   25.0445   -0.1694 O   0  0  0  0  0  0  0  0  0  0  0  0
   18.2169   19.6171   -1.3886 C   0  0  1  0  0  0  0  0  0  0  0  0
   18.7107   18.5320   -0.6598 O   0  0  0  0  0  0  0  0  0  0  0  0
   20.1929   27.9965   -0.5413 C   0  0  2  0  0  0  0  0  0  0  0  0
   20.8094   27.3464    0.5689 O   0  0  0  0  0  0  0  0  0  0  0  0
   17.9862   20.7485   -0.4456 C   0  0  1  0  0  0  0  0  0  0  0  0
   17.4890   21.8267   -1.1842 O   0  0  0  0  0  0  0  0  0  0  0  0
   19.2968   29.1436   -0.0292 C   0  0  1  0  0  0  0  0  0  0  0  0
   20.0872   30.1017    0.6933 O   0  0  0  0  0  0  0  0  0  0  0  0
   16.9320   20.3851    0.6187 C   0  0  0  0  0  0  0  0  0  0  0  0
   17.4926   19.4490    1.5321 O   0  0  0  0  0  0  0  0  0  0  0  0
   19.0817   32.7942   -0.5645 N   0  0  0  0  0  0  0  0  0  0  0  0
   17.1218   25.3842   -1.6810 N   0  0  0  0  0  0  0  0  0  0  0  0
  1  2  1  0  0  0  0
  1 39  1  0  0  0  0
  3  4  1  0  0  0  0
  5  6  1  0  0  0  0
  5 40  1  0  0  0  0
  9 10  1  1  0  0  0
  9 14  1  0  0  0  0
  9 35  1  0  0  0  0
 10  1  1  0  0  0  0
 11 16  1  0  0  0  0
 11 28  1  0  0  0  0
 11 26  1  6  0  0  0
 12 17  1  0  0  0  0
 12 34  1  0  0  0  0
 12 13  1  1  0  0  0
 14 15  1  6  0  0  0
 14 19  1  0  0  0  0
 16 13  1  1  0  0  0
 16 21  1  0  0  0  0
 17 18  1  1  0  0  0
 17 23  1  0  0  0  0
 18  8  1  0  0  0  0
 19 20  1  1  0  0  0
 19 25  1  0  0  0  0
 20  5  1  0  0  0  0
 21  3  1  6  0  0  0
 21 22  1  0  0  0  0
 21 27  1  0  0  0  0
 23 24  1  6  0  0  0
 23 29  1  0  0  0  0
 25 26  1  6  0  0  0
 25 31  1  0  0  0  0
 27  7  1  1  0  0  0
 27 28  1  0  0  0  0
 29 30  1  1  0  0  0
 29 33  1  0  0  0  0
 31 32  1  1  0  0  0
 31 35  1  0  0  0  0
 33 34  1  0  0  0  0
 33 37  1  1  0  0  0
 35 36  1  6  0  0  0
 37 38  1  0  0  0  0
M  END
>  <CHROM.1>
-121.95408143,99.87513508,147.98343991,82.82329657,115.29140038,-108.06465317
-52.31299993,102.18869851,90.88742301,-151.67255194,71.86888415,19.29273186
24.97407943,-1.54155681,1.64103088,-0.09231758,0.04687981

>  <Name>
1nta_lig

>  <RI>
1.05895e+07

>  <Rbt.Current_Directory>
/home/itssahil/PROJECTS/Mol_Feturizer/New_Systems/rnas/1nta

>  <Rbt.Executable>
rbdock ($Id: //depot/dev/client3/rdock/2013.1/src/exe/rbdock.cxx#4 $)

>  <Rbt.Library>
libRbt.so (2013.1, Build901 2013/11/27)

>  <Rbt.Parameter_File>
/export/apps/rDock/src/rDock_2013.1_src/data/scripts/dock_solv.prm

>  <Rbt.Receptor>
prm/blind_docking_100.prm

>  <SCORE>
4.82946

>  <SCORE.INTER>
16.7733

>  <SCORE.INTER.CONST>
1

>  <SCORE.INTER.POLAR>
-1.815

>  <SCORE.INTER.ROT>
11

>  <SCORE.INTER.SOLV>
14.9092

>  <SCORE.INTER.VDW>
1.32915

>  <SCORE.INTER.norm>
0.419333

>  <SCORE.INTRA>
-12.5727

>  <SCORE.INTRA.DIHEDRAL>
4.00949

>  <SCORE.INTRA.DIHEDRAL.0>
19.0336

>  <SCORE.INTRA.POLAR>
0

>  <SCORE.INTRA.POLAR.0>
0

>  <SCORE.INTRA.REPUL>
0

>  <SCORE.INTRA.REPUL.0>
0

>  <SCORE.INTRA.SOLV>
0.835674

>  <SCORE.INTRA.SOLV.lig_0>
-97.5861

>  <SCORE.INTRA.VDW>
-14.9952

>  <SCORE.INTRA.VDW.0>
11.7669

>  <SCORE.INTRA.norm>
-0.314316

>  <SCORE.RESTR>
0.628813

>  <SCORE.RESTR.CAVITY>
0.628813

>  <SCORE.RESTR.norm>
0.0157203

>  <SCORE.SYSTEM>
0

>  <SCORE.SYSTEM.CONST>
0

>  <SCORE.SYSTEM.DIHEDRAL>
0

>  <SCORE.SYSTEM.SOLV>
0

>  <SCORE.SYSTEM.norm>
0

>  <SCORE.heavy>
40

>  <SCORE.norm>
0.120737

>  <RMSD>
21.364

$$$$
1nta_lig
 OpenBabel11021811403D
libRbt.so/2013.1/901 2013/11/27
 40 42  0  0  0  0  0  0  0  0999 V2000
   18.2303   31.1320   -0.3746 C   0  0  0  0  0  0  0  0  0  0  0  0
   16.9645   31.2803   -0.5011 N   0  0  0  0  0  0  0  0  0  0  0  0
   19.4679   22.1471   -4.6582 C   0  0  0  0  0  0  0  0  0  0  0  0
   19.8419   21.8000   -5.7568 O   0  0  0  0  0  0  0  0  0  0  0  0
   15.9429   25.7012   -2.3219 C   0  0  0  0  0  0  0  0  0  0  0  0
   15.9640   25.3314   -3.5760 N   0  0  0  0  0  0  0  0  0  0  0  0
   22.6496   23.0433   -4.2901 C   0  0  0  0  0  0  0  0  0  0  0  0
   18.3127   18.8610   -3.7906 C   0  0  0  0  0  0  0  0  0  0  0  0
   18.8234   28.8887   -0.8397 C   0  0  2  0  0  0  0  0  0  0  0  0
   18.6190   29.9931    0.1789 N   0  0  0  0  0  0  0  0  0  0  0  0
   20.2204   23.8977   -1.7881 C   0  0  2  0  0  0  0  0  0  0  0  0
   18.2045   21.0461   -1.3943 C   0  0  1  0  0  0  0  0  0  0  0  0
   19.3854   21.7634   -1.3018 O   0  0  0  0  0  0  0  0  0  0  0  0
   17.7564   27.7933   -0.6536 C   0  0  1  0  0  0  0  0  0  0  0  0
   16.5162   28.3794   -0.9111 O   0  0  0  0  0  0  0  0  0  0  0  0
   19.5330   22.6318   -2.2883 C   0  0  2  0  0  0  0  0  0  0  0  0
   18.3662   19.5539   -1.5839 C   0  0  1  0  0  0  0  0  0  0  0  0
   19.1842   19.3260   -2.7246 N   0  0  0  0  0  0  0  0  0  0  0  0
   17.9292   26.6353   -1.6455 C   0  0  2  0  0  0  0  0  0  0  0  0
   16.9208   25.5593   -1.4917 N   0  0  0  0  0  0  0  0  0  0  0  0
   20.3589   22.3053   -3.4554 C   0  0  1  0  0  0  0  0  0  0  0  0
   21.0682   21.1031   -3.1492 O   0  0  0  0  0  0  0  0  0  0  0  0
   18.9657   18.9714   -0.4760 C   0  0  2  0  0  0  0  0  0  0  0  0
   18.8137   17.5791   -0.5925 O   0  0  0  0  0  0  0  0  0  0  0  0
   19.3180   26.0488   -1.4478 C   0  0  1  0  0  0  0  0  0  0  0  0
   19.4737   24.9811   -2.3695 O   0  0  0  0  0  0  0  0  0  0  0  0
   21.3360   23.3826   -3.6566 C   0  0  1  0  0  0  0  0  0  0  0  0
   21.5080   23.9391   -2.3590 O   0  0  0  0  0  0  0  0  0  0  0  0
   18.3008   19.4454    0.7897 C   0  0  1  0  0  0  0  0  0  0  0  0
   19.0678   19.0394    1.8848 O   0  0  0  0  0  0  0  0  0  0  0  0
   20.4003   27.1415   -1.6787 C   0  0  2  0  0  0  0  0  0  0  0  0
   21.6952   26.5702   -1.4992 O   0  0  0  0  0  0  0  0  0  0  0  0
   18.2294   20.9344    0.7942 C   0  0  1  0  0  0  0  0  0  0  0  0
   17.4571   21.3293   -0.3026 O   0  0  0  0  0  0  0  0  0  0  0  0
   20.1978   28.2806   -0.6576 C   0  0  1  0  0  0  0  0  0  0  0  0
   21.1902   29.3012   -0.8542 O   0  0  0  0  0  0  0  0  0  0  0  0
   17.5357   21.4584    2.0672 C   0  0  0  0  0  0  0  0  0  0  0  0
   16.1782   21.0313    2.0700 O   0  0  0  0  0  0  0  0  0  0  0  0
   19.0734   32.0304   -0.7545 N   0  0  0  0  0  0  0  0  0  0  0  0
   14.9051   26.2704   -1.8472 N   0  0  0  0  0  0  0  0  0  0  0  0
  1  2  1  0  0  0  0
  1 39  1  0  0  0  0
  3  4  1  0  0  0  0
  5  6  1  0  0  0  0
  5 40  1  0  0  0  0
  9 10  1  1  0  0  0
  9 14  1  0  0  0  0
  9 35  1  0  0  0  0
 10  1  1  0  0  0  0
 11 16  1  0  0  0  0
 11 28  1  0  0  0  0
 11 26  1  6  0  0  0
 12 17  1  0  0  0  0
 12 34  1  0  0  0  0
 12 13  1  1  0  0  0
 14 15  1  6  0  0  0
 14 19  1  0  0  0  0
 16 13  1  1  0  0  0
 16 21  1  0  0  0  0
 17 18  1  6  0  0  0
 17 23  1  0  0  0  0
 18  8  1  0  0  0  0
 19 20  1  1  0  0  0
 19 25  1  0  0  0  0
 20  5  1  0  0  0  0
 21  3  1  6  0  0  0
 21 22  1  0  0  0  0
 21 27  1  0  0  0  0
 23 24  1  6  0  0  0
 23 29  1  0  0  0  0
 25 26  1  6  0  0  0
 25 31  1  0  0  0  0
 27  7  1  1  0  0  0
 27 28  1  0  0  0  0
 29 30  1  1  0  0  0
 29 33  1  0  0  0  0
 31 32  1  1  0  0  0
 31 35  1  0  0  0  0
 33 34  1  0  0  0  0
 33 37  1  1  0  0  0
 35 36  1  6  0  0  0
 37 38  1  0  0  0  0
M  END
>  <CHROM.1>
-112.11909157,88.98603019,140.47329681,116.89787437,144.23907001,-105.96527499
96.64961513,81.18248072,-175.43892006,-142.75042915,-64.86574133,18.86900098
24.08811129,-1.48105030,1.63102131,0.80784627,-0.00514471

>  <Name>
1nta_lig

>  <RI>
1.05895e+07

>  <Rbt.Current_Directory>
/home/itssahil/PROJECTS/Mol_Feturizer/New_Systems/rnas/1nta

>  <Rbt.Executable>
rbdock ($Id: //depot/dev/client3/rdock/2013.1/src/exe/rbdock.cxx#4 $)

>  <Rbt.Library>
libRbt.so (2013.1, Build901 2013/11/27)

>  <Rbt.Parameter_File>
/export/apps/rDock/src/rDock_2013.1_src/data/scripts/dock_solv.prm

>  <Rbt.Receptor>
prm/blind_docking_100.prm

>  <SCORE>
-24.3532

>  <SCORE.INTER>
-7.67675

>  <SCORE.INTER.CONST>
1

>  <SCORE.INTER.POLAR>
0

>  <SCORE.INTER.ROT>
11

>  <SCORE.INTER.SOLV>
17.759

>  <SCORE.INTER.VDW>
-21.9708

>  <SCORE.INTER.norm>
-0.191919

>  <SCORE.INTRA>
-16.9838

>  <SCORE.INTRA.DIHEDRAL>
7.33819

>  <SCORE.INTRA.DIHEDRAL.0>
19.0336

>  <SCORE.INTRA.POLAR>
0

>  <SCORE.INTRA.POLAR.0>
0

>  <SCORE.INTRA.REPUL>
5.0516e-05

>  <SCORE.INTRA.REPUL.0>
0

>  <SCORE.INTRA.SOLV>
-3.88987

>  <SCORE.INTRA.SOLV.lig_0>
-97.5861

>  <SCORE.INTRA.VDW>
-18.7082

>  <SCORE.INTRA.VDW.0>
11.7669

>  <SCORE.INTRA.norm>
-0.424595

>  <SCORE.RESTR>
0.307324

>  <SCORE.RESTR.CAVITY>
0.307324

>  <SCORE.RESTR.norm>
0.00768309

>  <SCORE.SYSTEM>
0

>  <SCORE.SYSTEM.CONST>
0

>  <SCORE.SYSTEM.DIHEDRAL>
0

>  <SCORE.SYSTEM.SOLV>
0

>  <SCORE.SYSTEM.norm>
0

>  <SCORE.heavy>
40

>  <SCORE.norm>
-0.60883

>  <RMSD>
21.375

$$$$
1nta_lig
 OpenBabel11021811403D
libRbt.so/2013.1/901 2013/11/27
 40 42  0  0  0  0  0  0  0  0999 V2000
   17.7405   28.2053    5.1212 C   0  0  0  0  0  0  0  0  0  0  0  0
   18.1791   29.4075    5.1713 N   0  0  0  0  0  0  0  0  0  0  0  0
   19.8732   23.9860   -3.3787 C   0  0  0  0  0  0  0  0  0  0  0  0
   20.2349   24.1011   -4.5291 O   0  0  0  0  0  0  0  0  0  0  0  0
   18.5325   28.3772   -1.4543 C   0  0  0  0  0  0  0  0  0  0  0  0
   17.5258   29.1931   -1.6292 N   0  0  0  0  0  0  0  0  0  0  0  0
   23.1531   23.7584   -2.8765 C   0  0  0  0  0  0  0  0  0  0  0  0
   18.7157   20.3772   -3.7375 C   0  0  0  0  0  0  0  0  0  0  0  0
   18.4049   27.5140    2.9575 C   0  0  2  0  0  0  0  0  0  0  0  0
   17.2889   27.8114    3.9399 N   0  0  0  0  0  0  0  0  0  0  0  0
   20.9141   24.1671   -0.0997 C   0  0  2  0  0  0  0  0  0  0  0  0
   18.2935   21.9035   -0.9778 C   0  0  1  0  0  0  0  0  0  0  0  0
   19.5026   22.3313   -0.4557 O   0  0  0  0  0  0  0  0  0  0  0  0
   17.8590   27.5260    1.5171 C   0  0  1  0  0  0  0  0  0  0  0  0
   17.4055   28.8206    1.2600 O   0  0  0  0  0  0  0  0  0  0  0  0
   19.9362   23.4456   -1.0208 C   0  0  2  0  0  0  0  0  0  0  0  0
   18.2699   20.4729   -1.4693 C   0  0  1  0  0  0  0  0  0  0  0  0
   19.3164   20.2999   -2.4164 N   0  0  0  0  0  0  0  0  0  0  0  0
   18.9431   27.2070    0.4790 C   0  0  2  0  0  0  0  0  0  0  0  0
   18.4514   27.2053   -0.9196 N   0  0  0  0  0  0  0  0  0  0  0  0
   20.7053   23.4016   -2.2688 C   0  0  1  0  0  0  0  0  0  0  0  0
   21.0414   22.0340   -2.5111 O   0  0  0  0  0  0  0  0  0  0  0  0
   18.4579   19.5815   -0.4223 C   0  0  2  0  0  0  0  0  0  0  0  0
   18.1317   18.2979   -0.8923 O   0  0  0  0  0  0  0  0  0  0  0  0
   19.5208   25.8391    0.8060 C   0  0  1  0  0  0  0  0  0  0  0  0
   20.5248   25.5509   -0.1544 O   0  0  0  0  0  0  0  0  0  0  0  0
   21.9488   24.1595   -2.0822 C   0  0  1  0  0  0  0  0  0  0  0  0
   22.1938   24.0814   -0.6833 O   0  0  0  0  0  0  0  0  0  0  0  0
   17.5616   19.9358    0.7351 C   0  0  1  0  0  0  0  0  0  0  0  0
   17.9394   19.1818    1.8492 O   0  0  0  0  0  0  0  0  0  0  0  0
   20.1132   25.8361    2.2440 C   0  0  2  0  0  0  0  0  0  0  0  0
   20.6590   24.5489    2.5280 O   0  0  0  0  0  0  0  0  0  0  0  0
   17.7196   21.3796    1.0714 C   0  0  1  0  0  0  0  0  0  0  0  0
   17.3356   22.1243   -0.0481 O   0  0  0  0  0  0  0  0  0  0  0  0
   18.9917   26.1507    3.2561 C   0  0  1  0  0  0  0  0  0  0  0  0
   19.5196   26.1516    4.5925 O   0  0  0  0  0  0  0  0  0  0  0  0
   16.8015   21.7864    2.2410 C   0  0  0  0  0  0  0  0  0  0  0  0
   17.3597   21.3118    3.4609 O   0  0  0  0  0  0  0  0  0  0  0  0
   17.7325   27.4284    6.1500 N   0  0  0  0  0  0  0  0  0  0  0  0
   19.6974   28.7154   -1.8481 N   0  0  0  0  0  0  0  0  0  0  0  0
  1  2  1  0  0  0  0
  1 39  1  0  0  0  0
  3  4  1  0  0  0  0
  5  6  1  0  0  0  0
  5 40  1  0  0  0  0
  9 10  1  1  0  0  0
  9 14  1  0  0  0  0
  9 35  1  0  0  0  0
 10  1  1  0  0  0  0
 11 16  1  0  0  0  0
 11 28  1  0  0  0  0
 11 26  1  6  0  0  0
 12 17  1  0  0  0  0
 12 34  1  0  0  0  0
 12 13  1  1  0  0  0
 14 15  1  6  0  0  0
 14 19  1  0  0  0  0
 16 13  1  1  0  0  0
 16 21  1  0  0  0  0
 17 18  1  6  0  0  0
 17 23  1  0  0  0  0
 18  8  1  0  0  0  0
 19 20  1  6  0  0  0
 19 25  1  0  0  0  0
 20  5  1  0  0  0  0
 21  3  1  6  0  0  0
 21 22  1  0  0  0  0
 21 27  1  0  0  0  0
 23 24  1  6  0  0  0
 23 29  1  0  0  0  0
 25 26  1  6  0  0  0
 25 31  1  0  0  0  0
 27  7  1  6  0  0  0
 27 28  1  0  0  0  0
 29 30  1  1  0  0  0
 29 33  1  0  0  0  0
 31 32  1  1  0  0  0
 31 35  1  0  0  0  0
 33 34  1  0  0  0  0
 33 37  1  1  0  0  0
 35 36  1  1  0  0  0
 37 38  1  0  0  0  0
M  END
>  <CHROM.1>
-161.13318632,75.50028613,87.31745104,126.66795084,157.55490292,-99.99069852
89.11726703,-102.84549858,179.32695369,-167.25454307,76.35054421,19.07731649
24.28374153,0.32567422,1.85458284,1.16394962,0.31350680

>  <Name>
1nta_lig

>  <RI>
9.25352e+06

>  <Rbt.Current_Directory>
/home/itssahil/PROJECTS/Mol_Feturizer/New_Systems/rnas/1nta

>  <Rbt.Executable>
rbdock ($Id: //depot/dev/client3/rdock/2013.1/src/exe/rbdock.cxx#4 $)

>  <Rbt.Library>
libRbt.so (2013.1, Build901 2013/11/27)

>  <Rbt.Parameter_File>
/export/apps/rDock/src/rDock_2013.1_src/data/scripts/dock_solv.prm

>  <Rbt.Receptor>
prm/blind_docking_40.prm

>  <SCORE>
-21.8052

>  <SCORE.INTER>
-4.54458

>  <SCORE.INTER.CONST>
1

>  <SCORE.INTER.POLAR>
-0.774597

>  <SCORE.INTER.ROT>
11

>  <SCORE.INTER.SOLV>
17.6981

>  <SCORE.INTER.VDW>
-17.2804

>  <SCORE.INTER.norm>
-0.113615

>  <SCORE.INTRA>
-18.3286

>  <SCORE.INTRA.DIHEDRAL>
-2.14921

>  <SCORE.INTRA.DIHEDRAL.0>
19.0336

>  <SCORE.INTRA.POLAR>
0

>  <SCORE.INTRA.POLAR.0>
0

>  <SCORE.INTRA.REPUL>
0.00191898

>  <SCORE.INTRA.REPUL.0>
0

>  <SCORE.INTRA.SOLV>
-3.37091

>  <SCORE.INTRA.SOLV.lig_0>
-97.5861

>  <SCORE.INTRA.VDW>
-15.5781

>  <SCORE.INTRA.VDW.0>
11.7669

>  <SCORE.INTRA.norm>
-0.458215

>  <SCORE.RESTR>
1.06795

>  <SCORE.RESTR.CAVITY>
1.06795

>  <SCORE.RESTR.norm>
0.0266988

>  <SCORE.SYSTEM>
0

>  <SCORE.SYSTEM.CONST>
0

>  <SCORE.SYSTEM.DIHEDRAL>
0

>  <SCORE.SYSTEM.SOLV>
0

>  <SCORE.SYSTEM.norm>
0

>  <SCORE.heavy>
40

>  <SCORE.norm>
-0.545131

>  <RMSD>
21.385

$$$$
1nta_lig
 OpenBabel11021811403D
libRbt.so/2013.1/901 2013/11/27
 40 42  0  0  0  0  0  0  0  0999 V2000
   19.3208   31.7259    0.2945 C   0  0  0  0  0  0  0  0  0  0  0  0
   18.2107   32.3451    0.1389 N   0  0  0  0  0  0  0  0  0  0  0  0
   19.9110   22.8462   -4.1617 C   0  0  0  0  0  0  0  0  0  0  0  0
   20.4369   22.5187   -5.2026 O   0  0  0  0  0  0  0  0  0  0  0  0
   16.5079   25.9003   -1.7379 C   0  0  0  0  0  0  0  0  0  0  0  0
   16.8904   24.9161   -2.5091 N   0  0  0  0  0  0  0  0  0  0  0  0
   22.9846   23.6703   -3.1948 C   0  0  0  0  0  0  0  0  0  0  0  0
   18.4071   19.9116   -4.2707 C   0  0  0  0  0  0  0  0  0  0  0  0
   19.2917   29.3997   -0.1392 C   0  0  2  0  0  0  0  0  0  0  0  0
   19.2343   30.5338    0.8655 N   0  0  0  0  0  0  0  0  0  0  0  0
   20.1776   24.2816   -1.0413 C   0  0  2  0  0  0  0  0  0  0  0  0
   18.1384   21.4331   -1.2680 C   0  0  1  0  0  0  0  0  0  0  0  0
   19.2920   22.1159   -0.9209 O   0  0  0  0  0  0  0  0  0  0  0  0
   18.1449   28.4045    0.1203 C   0  0  1  0  0  0  0  0  0  0  0  0
   16.9485   29.0921   -0.0888 O   0  0  0  0  0  0  0  0  0  0  0  0
   19.5897   23.0809   -1.7748 C   0  0  2  0  0  0  0  0  0  0  0  0
   18.3550   20.1084   -1.9660 C   0  0  1  0  0  0  0  0  0  0  0  0
   19.1748   20.3243   -3.1077 N   0  0  0  0  0  0  0  0  0  0  0  0
   18.1675   27.2200   -0.8551 C   0  0  2  0  0  0  0  0  0  0  0  0
   17.0792   26.2385   -0.6311 N   0  0  0  0  0  0  0  0  0  0  0  0
   20.5954   22.8703   -2.8213 C   0  0  1  0  0  0  0  0  0  0  0  0
   21.2555   21.6364   -2.5320 O   0  0  0  0  0  0  0  0  0  0  0  0
   18.9817   19.1978   -1.1269 C   0  0  2  0  0  0  0  0  0  0  0  0
   18.8814   17.9297   -1.7242 O   0  0  0  0  0  0  0  0  0  0  0  0
   19.5088   26.5181   -0.7129 C   0  0  1  0  0  0  0  0  0  0  0  0
   19.5257   25.4264   -1.6192 O   0  0  0  0  0  0  0  0  0  0  0  0
   21.5836   23.9538   -2.7492 C   0  0  1  0  0  0  0  0  0  0  0  0
   21.5400   24.3705   -1.3901 O   0  0  0  0  0  0  0  0  0  0  0  0
   18.3062   19.1743    0.2191 C   0  0  1  0  0  0  0  0  0  0  0  0
   19.0937   18.4397    1.1093 O   0  0  0  0  0  0  0  0  0  0  0  0
   20.6683   27.5087   -1.0178 C   0  0  2  0  0  0  0  0  0  0  0  0
   21.9165   26.8297   -0.8896 O   0  0  0  0  0  0  0  0  0  0  0  0
   18.1790   20.5641    0.7435 C   0  0  1  0  0  0  0  0  0  0  0  0
   17.3867   21.2887   -0.1524 O   0  0  0  0  0  0  0  0  0  0  0  0
   20.6160   28.6772   -0.0114 C   0  0  1  0  0  0  0  0  0  0  0  0
   21.6815   29.6042   -0.2764 O   0  0  0  0  0  0  0  0  0  0  0  0
   17.4729   20.5837    2.1136 C   0  0  0  0  0  0  0  0  0  0  0  0
   16.1629   20.0460    1.9726 O   0  0  0  0  0  0  0  0  0  0  0  0
   20.4501   32.2273   -0.0736 N   0  0  0  0  0  0  0  0  0  0  0  0
   15.5129   26.6216   -2.0785 N   0  0  0  0  0  0  0  0  0  0  0  0
  1  2  1  0  0  0  0
  1 39  1  0  0  0  0
  3  4  1  0  0  0  0
  5  6  1  0  0  0  0
  5 40  1  0  0  0  0
  9 10  1  1  0  0  0
  9 14  1  0  0  0  0
  9 35  1  0  0  0  0
 10  1  1  0  0  0  0
 11 16  1  0  0  0  0
 11 28  1  0  0  0  0
 11 26  1  6  0  0  0
 12 17  1  0  0  0  0
 12 34  1  0  0  0  0
 12 13  1  1  0  0  0
 14 15  1  6  0  0  0
 14 19  1  0  0  0  0
 16 13  1  1  0  0  0
 16 21  1  0  0  0  0
 17 18  1  6  0  0  0
 17 23  1  0  0  0  0
 18  8  1  0  0  0  0
 19 20  1  1  0  0  0
 19 25  1  0  0  0  0
 20  5  1  0  0  0  0
 21  3  1  6  0  0  0
 21 22  1  0  0  0  0
 21 27  1  0  0  0  0
 23 24  1  6  0  0  0
 23 29  1  0  0  0  0
 25 26  1  6  0  0  0
 25 31  1  0  0  0  0
 27  7  1  1  0  0  0
 27 28  1  0  0  0  0
 29 30  1  1  0  0  0
 29 33  1  0  0  0  0
 31 32  1  1  0  0  0
 31 35  1  0  0  0  0
 33 34  1  0  0  0  0
 33 37  1  1  0  0  0
 35 36  1  6  0  0  0
 37 38  1  0  0  0  0
M  END
>  <CHROM.1>
-131.16086091,100.24048027,154.79255256,99.92608612,143.52386381,-119.65191816
134.11040503,88.71011642,-169.84133707,-141.43637638,-60.88371167,19.15683117
24.42378616,-1.11774042,1.49760230,0.68805142,0.14763000

>  <Name>
1nta_lig

>  <RI>
2.40834e+07

>  <Rbt.Current_Directory>
/home/itssahil/PROJECTS/Mol_Feturizer/New_Systems/rnas/1nta

>  <Rbt.Executable>
rbdock ($Id: //depot/dev/client3/rdock/2013.1/src/exe/rbdock.cxx#4 $)

>  <Rbt.Library>
libRbt.so (2013.1, Build901 2013/11/27)

>  <Rbt.Parameter_File>
/export/apps/rDock/src/rDock_2013.1_src/data/scripts/dock_solv.prm

>  <Rbt.Receptor>
prm/blind_docking_80.prm

>  <SCORE>
-19.4282

>  <SCORE.INTER>
-3.85121

>  <SCORE.INTER.CONST>
1

>  <SCORE.INTER.POLAR>
0

>  <SCORE.INTER.ROT>
11

>  <SCORE.INTER.SOLV>
12.9653

>  <SCORE.INTER.VDW>
-17.8226

>  <SCORE.INTER.norm>
-0.0962802

>  <SCORE.INTRA>
-16.3145

>  <SCORE.INTRA.DIHEDRAL>
3.77923

>  <SCORE.INTRA.DIHEDRAL.0>
19.0336

>  <SCORE.INTRA.POLAR>
0

>  <SCORE.INTRA.POLAR.0>
0

>  <SCORE.INTRA.REPUL>
0

>  <SCORE.INTRA.REPUL.0>
0

>  <SCORE.INTRA.SOLV>
-0.592574

>  <SCORE.INTRA.SOLV.lig_0>
-97.5861

>  <SCORE.INTRA.VDW>
-17.9078

>  <SCORE.INTRA.VDW.0>
11.7669

>  <SCORE.INTRA.norm>
-0.407862

>  <SCORE.RESTR>
0.737448

>  <SCORE.RESTR.CAVITY>
0.737448

>  <SCORE.RESTR.norm>
0.0184362

>  <SCORE.SYSTEM>
0

>  <SCORE.SYSTEM.CONST>
0

>  <SCORE.SYSTEM.DIHEDRAL>
0

>  <SCORE.SYSTEM.SOLV>
0

>  <SCORE.SYSTEM.norm>
0

>  <SCORE.heavy>
40

>  <SCORE.norm>
-0.485706

>  <RMSD>
21.413

$$$$
1nta_lig
 OpenBabel11021811403D
libRbt.so/2013.1/901 2013/11/27
 40 42  0  0  0  0  0  0  0  0999 V2000
   19.6105   22.9364   -9.0829 C   0  0  0  0  0  0  0  0  0  0  0  0
   18.3785   23.0871   -8.7674 N   0  0  0  0  0  0  0  0  0  0  0  0
   20.2198   24.1595    0.4147 C   0  0  0  0  0  0  0  0  0  0  0  0
   20.5740   23.7021    1.4790 O   0  0  0  0  0  0  0  0  0  0  0  0
   18.0685   20.9750   -3.3481 C   0  0  0  0  0  0  0  0  0  0  0  0
   18.4425   20.7464   -2.1161 N   0  0  0  0  0  0  0  0  0  0  0  0
   23.4599   23.9167   -0.2952 C   0  0  0  0  0  0  0  0  0  0  0  0
   20.5483   30.1074   -0.2152 C   0  0  0  0  0  0  0  0  0  0  0  0
   20.5076   21.9723   -7.1165 C   0  0  2  0  0  0  0  0  0  0  0  0
   20.1959   21.8526   -8.5956 N   0  0  0  0  0  0  0  0  0  0  0  0
   21.0972   24.7706   -2.8602 C   0  0  2  0  0  0  0  0  0  0  0  0
   19.4181   27.2277   -0.8155 C   0  0  1  0  0  0  0  0  0  0  0  0
   20.0994   26.6455   -1.8711 O   0  0  0  0  0  0  0  0  0  0  0  0
   19.2027   21.9576   -6.2981 C   0  0  1  0  0  0  0  0  0  0  0  0
   18.6029   20.7141   -6.5027 O   0  0  0  0  0  0  0  0  0  0  0  0
   20.3159   25.3537   -1.6877 C   0  0  2  0  0  0  0  0  0  0  0  0
   18.9565   28.6496   -1.0479 C   0  0  1  0  0  0  0  0  0  0  0  0
   20.0805   29.4383   -1.4175 N   0  0  0  0  0  0  0  0  0  0  0  0
   19.4567   22.0999   -4.7914 C   0  0  2  0  0  0  0  0  0  0  0  0
   18.2209   22.0943   -3.9723 N   0  0  0  0  0  0  0  0  0  0  0  0
   21.1172   24.8828   -0.5533 C   0  0  1  0  0  0  0  0  0  0  0  0
   21.7313   26.0304    0.0367 O   0  0  0  0  0  0  0  0  0  0  0  0
   18.0113   28.7087   -2.0624 C   0  0  2  0  0  0  0  0  0  0  0  0
   17.4208   29.9833   -2.0203 O   0  0  0  0  0  0  0  0  0  0  0  0
   20.2020   23.4048   -4.5604 C   0  0  1  0  0  0  0  0  0  0  0  0
   20.4374   23.5295   -3.1665 O   0  0  0  0  0  0  0  0  0  0  0  0
   22.1747   23.9987   -1.0590 C   0  0  1  0  0  0  0  0  0  0  0  0
   22.3856   24.4416   -2.3940 O   0  0  0  0  0  0  0  0  0  0  0  0
   16.9530   27.6573   -1.8550 C   0  0  1  0  0  0  0  0  0  0  0  0
   16.1595   27.5794   -3.0024 O   0  0  0  0  0  0  0  0  0  0  0  0
   21.5418   23.4052   -5.3501 C   0  0  2  0  0  0  0  0  0  0  0  0
   22.2306   24.6318   -5.1126 O   0  0  0  0  0  0  0  0  0  0  0  0
   17.5967   26.3299   -1.6398 C   0  0  1  0  0  0  0  0  0  0  0  0
   18.3847   26.4181   -0.4880 O   0  0  0  0  0  0  0  0  0  0  0  0
   21.2426   23.2704   -6.8579 C   0  0  1  0  0  0  0  0  0  0  0  0
   22.4696   23.2697   -7.6059 O   0  0  0  0  0  0  0  0  0  0  0  0
   16.5444   25.2285   -1.4032 C   0  0  0  0  0  0  0  0  0  0  0  0
   17.1969   24.0475   -0.9507 O   0  0  0  0  0  0  0  0  0  0  0  0
   20.2441   23.7826   -9.8208 N   0  0  0  0  0  0  0  0  0  0  0  0
   17.5287   20.0419   -4.0294 N   0  0  0  0  0  0  0  0  0  0  0  0
  1  2  1  0  0  0  0
  1 39  1  0  0  0  0
  3  4  1  0  0  0  0
  5  6  1  0  0  0  0
  5 40  1  0  0  0  0
  9 10  1  6  0  0  0
  9 14  1  0  0  0  0
  9 35  1  0  0  0  0
 10  1  1  0  0  0  0
 11 16  1  0  0  0  0
 11 28  1  0  0  0  0
 11 26  1  1  0  0  0
 12 17  1  0  0  0  0
 12 34  1  0  0  0  0
 12 13  1  6  0  0  0
 14 15  1  1  0  0  0
 14 19  1  0  0  0  0
 16 13  1  6  0  0  0
 16 21  1  0  0  0  0
 17 18  1  6  0  0  0
 17 23  1  0  0  0  0
 18  8  1  0  0  0  0
 19 20  1  1  0  0  0
 19 25  1  0  0  0  0
 20  5  1  0  0  0  0
 21  3  1  1  0  0  0
 21 22  1  0  0  0  0
 21 27  1  0  0  0  0
 23 24  1  1  0  0  0
 23 29  1  0  0  0  0
 25 26  1  1  0  0  0
 25 31  1  0  0  0  0
 27  7  1  1  0  0  0
 27 28  1  0  0  0  0
 29 30  1  6  0  0  0
 29 33  1  0  0  0  0
 31 32  1  6  0  0  0
 31 35  1  0  0  0  0
 33 34  1  0  0  0  0
 33 37  1  1  0  0  0
 35 36  1  6  0  0  0
 37 38  1  0  0  0  0
M  END
>  <CHROM.1>
69.51238188,-74.84418380,132.66225666,-171.24839511,-178.60897941,-97.17246816
105.40921596,95.36836590,-176.76777369,-177.79148169,-168.86271746,19.68534107
24.60615332,-3.27688689,1.40524527,1.11868909,-2.10008908

>  <Name>
1nta_lig

>  <RI>
1.05895e+07

>  <Rbt.Current_Directory>
/home/itssahil/PROJECTS/Mol_Feturizer/New_Systems/rnas/1nta

>  <Rbt.Executable>
rbdock ($Id: //depot/dev/client3/rdock/2013.1/src/exe/rbdock.cxx#4 $)

>  <Rbt.Library>
libRbt.so (2013.1, Build901 2013/11/27)

>  <Rbt.Parameter_File>
/export/apps/rDock/src/rDock_2013.1_src/data/scripts/dock_solv.prm

>  <Rbt.Receptor>
prm/blind_docking_100.prm

>  <SCORE>
-26.6293

>  <SCORE.INTER>
-11.5137

>  <SCORE.INTER.CONST>
1

>  <SCORE.INTER.POLAR>
-1.49897

>  <SCORE.INTER.ROT>
11

>  <SCORE.INTER.SOLV>
20.4033

>  <SCORE.INTER.VDW>
-20.4137

>  <SCORE.INTER.norm>
-0.287842

>  <SCORE.INTRA>
-16.1478

>  <SCORE.INTRA.DIHEDRAL>
-8.47529

>  <SCORE.INTRA.DIHEDRAL.0>
19.0336

>  <SCORE.INTRA.POLAR>
0

>  <SCORE.INTRA.POLAR.0>
0

>  <SCORE.INTRA.REPUL>
0

>  <SCORE.INTRA.REPUL.0>
0

>  <SCORE.INTRA.SOLV>
-2.00227

>  <SCORE.INTRA.SOLV.lig_0>
-97.5861

>  <SCORE.INTRA.VDW>
-10.909

>  <SCORE.INTRA.VDW.0>
11.7669

>  <SCORE.INTRA.norm>
-0.403695

>  <SCORE.RESTR>
1.03218

>  <SCORE.RESTR.CAVITY>
1.03218

>  <SCORE.RESTR.norm>
0.0258045

>  <SCORE.SYSTEM>
0

>  <SCORE.SYSTEM.CONST>
0

>  <SCORE.SYSTEM.DIHEDRAL>
0

>  <SCORE.SYSTEM.SOLV>
0

>  <SCORE.SYSTEM.norm>
0

>  <SCORE.heavy>
40

>  <SCORE.norm>
-0.665733

>  <RMSD>
21.431

$$$$
1nta_lig
 OpenBabel11021811403D
libRbt.so/2013.1/901 2013/11/27
 40 42  0  0  0  0  0  0  0  0999 V2000
   19.2530   31.5522   -0.2512 C   0  0  0  0  0  0  0  0  0  0  0  0
   18.2223   32.2674   -0.5086 N   0  0  0  0  0  0  0  0  0  0  0  0
   19.8556   22.5225   -4.7001 C   0  0  0  0  0  0  0  0  0  0  0  0
   20.2982   22.3057   -5.8067 O   0  0  0  0  0  0  0  0  0  0  0  0
   16.8391   26.1269   -1.8421 C   0  0  0  0  0  0  0  0  0  0  0  0
   17.2261   25.5820   -0.7182 N   0  0  0  0  0  0  0  0  0  0  0  0
   23.1099   22.9216   -4.1413 C   0  0  0  0  0  0  0  0  0  0  0  0
   18.3340   19.5419   -4.0715 C   0  0  0  0  0  0  0  0  0  0  0  0
   19.4870   29.2728   -0.8429 C   0  0  2  0  0  0  0  0  0  0  0  0
   19.0032   30.3139    0.1476 N   0  0  0  0  0  0  0  0  0  0  0  0
   20.6945   24.2916   -1.8655 C   0  0  2  0  0  0  0  0  0  0  0  0
   18.2672   21.7369   -1.5411 C   0  0  1  0  0  0  0  0  0  0  0  0
   19.4942   22.3481   -1.3448 O   0  0  0  0  0  0  0  0  0  0  0  0
   18.3036   28.4148   -1.3289 C   0  0  1  0  0  0  0  0  0  0  0  0
   17.4294   29.2662   -2.0064 O   0  0  0  0  0  0  0  0  0  0  0  0
   19.8446   23.1246   -2.3564 C   0  0  2  0  0  0  0  0  0  0  0  0
   18.3240   20.2620   -1.8728 C   0  0  1  0  0  0  0  0  0  0  0  0
   19.1627   20.0826   -3.0071 N   0  0  0  0  0  0  0  0  0  0  0  0
   18.7393   27.3260   -2.3185 C   0  0  2  0  0  0  0  0  0  0  0  0
   17.6250   26.4771   -2.8041 N   0  0  0  0  0  0  0  0  0  0  0  0
   20.6805   22.6054   -3.4438 C   0  0  1  0  0  0  0  0  0  0  0  0
   21.1638   21.3251   -3.0320 O   0  0  0  0  0  0  0  0  0  0  0  0
   18.8386   19.5304   -0.8117 C   0  0  2  0  0  0  0  0  0  0  0  0
   18.5876   18.1719   -1.0698 O   0  0  0  0  0  0  0  0  0  0  0  0
   19.7709   26.4476   -1.6286 C   0  0  1  0  0  0  0  0  0  0  0  0
   20.1728   25.4451   -2.5489 O   0  0  0  0  0  0  0  0  0  0  0  0
   21.8305   23.5006   -3.6219 C   0  0  1  0  0  0  0  0  0  0  0  0
   22.0060   24.0956   -2.3420 O   0  0  0  0  0  0  0  0  0  0  0  0
   18.1663   19.9300    0.4755 C   0  0  1  0  0  0  0  0  0  0  0  0
   18.8615   19.3619    1.5461 O   0  0  0  0  0  0  0  0  0  0  0  0
   20.9881   27.3033   -1.1757 C   0  0  2  0  0  0  0  0  0  0  0  0
   21.9485   26.4608   -0.5407 O   0  0  0  0  0  0  0  0  0  0  0  0
   18.2058   21.4127    0.6255 C   0  0  1  0  0  0  0  0  0  0  0  0
   17.5047   21.9704   -0.4481 O   0  0  0  0  0  0  0  0  0  0  0  0
   20.5101   28.3776   -0.1765 C   0  0  1  0  0  0  0  0  0  0  0  0
   21.6219   29.1791    0.2551 O   0  0  0  0  0  0  0  0  0  0  0  0
   17.5082   21.8635    1.9242 C   0  0  0  0  0  0  0  0  0  0  0  0
   18.0118   21.1007    3.0148 O   0  0  0  0  0  0  0  0  0  0  0  0
   20.4549   32.0042   -0.3661 N   0  0  0  0  0  0  0  0  0  0  0  0
   15.5974   26.3243   -2.0554 N   0  0  0  0  0  0  0  0  0  0  0  0
  1  2  1  0  0  0  0
  1 39  1  0  0  0  0
  3  4  1  0  0  0  0
  5  6  1  0  0  0  0
  5 40  1  0  0  0  0
  9 10  1  1  0  0  0
  9 14  1  0  0  0  0
  9 35  1  0  0  0  0
 10  1  1  0  0  0  0
 11 16  1  0  0  0  0
 11 28  1  0  0  0  0
 11 26  1  6  0  0  0
 12 17  1  0  0  0  0
 12 34  1  0  0  0  0
 12 13  1  1  0  0  0
 14 15  1  6  0  0  0
 14 19  1  0  0  0  0
 16 13  1  1  0  0  0
 16 21  1  0  0  0  0
 17 18  1  6  0  0  0
 17 23  1  0  0  0  0
 18  8  1  0  0  0  0
 19 20  1  1  0  0  0
 19 25  1  0  0  0  0
 20  5  1  0  0  0  0
 21  3  1  6  0  0  0
 21 22  1  0  0  0  0
 21 27  1  0  0  0  0
 23 24  1  6  0  0  0
 23 29  1  0  0  0  0
 25 26  1  6  0  0  0
 25 31  1  0  0  0  0
 27  7  1  1  0  0  0
 27 28  1  0  0  0  0
 29 30  1  1  0  0  0
 29 33  1  0  0  0  0
 31 32  1  1  0  0  0
 31 35  1  0  0  0  0
 33 34  1  0  0  0  0
 33 37  1  1  0  0  0
 35 36  1  6  0  0  0
 37 38  1  0  0  0  0
M  END
>  <CHROM.1>
-120.37473863,114.32649567,123.58050689,105.98700835,149.18066413,-116.75719440
-44.14505808,-51.21798591,169.51778989,-156.51764946,49.94087268,19.31940606
24.49061677,-1.46124902,1.51834177,0.93967305,0.10991217

>  <Name>
1nta_lig

>  <RI>
9.25352e+06

>  <Rbt.Current_Directory>
/home/itssahil/PROJECTS/Mol_Feturizer/New_Systems/rnas/1nta

>  <Rbt.Executable>
rbdock ($Id: //depot/dev/client3/rdock/2013.1/src/exe/rbdock.cxx#4 $)

>  <Rbt.Library>
libRbt.so (2013.1, Build901 2013/11/27)

>  <Rbt.Parameter_File>
/export/apps/rDock/src/rDock_2013.1_src/data/scripts/dock_solv.prm

>  <Rbt.Receptor>
prm/blind_docking_40.prm

>  <SCORE>
-16.8468

>  <SCORE.INTER>
-7.90445

>  <SCORE.INTER.CONST>
1

>  <SCORE.INTER.POLAR>
0

>  <SCORE.INTER.ROT>
11

>  <SCORE.INTER.SOLV>
12.2979

>  <SCORE.INTER.VDW>
-20.3023

>  <SCORE.INTER.norm>
-0.197611

>  <SCORE.INTRA>
-11.2317

>  <SCORE.INTRA.DIHEDRAL>
4.87656

>  <SCORE.INTRA.DIHEDRAL.0>
19.0336

>  <SCORE.INTRA.POLAR>
0

>  <SCORE.INTRA.POLAR.0>
0

>  <SCORE.INTRA.REPUL>
0.000176706

>  <SCORE.INTRA.REPUL.0>
0

>  <SCORE.INTRA.SOLV>
0.15562

>  <SCORE.INTRA.SOLV.lig_0>
-97.5861

>  <SCORE.INTRA.VDW>
-13.7487

>  <SCORE.INTRA.VDW.0>
11.7669

>  <SCORE.INTRA.norm>
-0.280792

>  <SCORE.RESTR>
2.28934

>  <SCORE.RESTR.CAVITY>
2.28934

>  <SCORE.RESTR.norm>
0.0572336

>  <SCORE.SYSTEM>
0

>  <SCORE.SYSTEM.CONST>
0

>  <SCORE.SYSTEM.DIHEDRAL>
0

>  <SCORE.SYSTEM.SOLV>
0

>  <SCORE.SYSTEM.norm>
0

>  <SCORE.heavy>
40

>  <SCORE.norm>
-0.42117

>  <RMSD>
21.441

$$$$
1nta_lig
 OpenBabel11021811403D
libRbt.so/2013.1/901 2013/11/27
 40 42  0  0  0  0  0  0  0  0999 V2000
   19.3681   31.3747    0.1266 C   0  0  0  0  0  0  0  0  0  0  0  0
   20.3147   31.7606    0.8980 N   0  0  0  0  0  0  0  0  0  0  0  0
   19.6782   22.4055   -4.4888 C   0  0  0  0  0  0  0  0  0  0  0  0
   19.8038   21.6209   -5.4031 O   0  0  0  0  0  0  0  0  0  0  0  0
   17.0487   26.0048   -2.2468 C   0  0  0  0  0  0  0  0  0  0  0  0
   16.0129   26.5634   -1.6768 N   0  0  0  0  0  0  0  0  0  0  0  0
   22.9789   22.7052   -4.2116 C   0  0  0  0  0  0  0  0  0  0  0  0
   18.0171   19.4566   -3.5844 C   0  0  0  0  0  0  0  0  0  0  0  0
   19.5112   29.1406   -0.6408 C   0  0  2  0  0  0  0  0  0  0  0  0
   18.9277   30.1430    0.3357 N   0  0  0  0  0  0  0  0  0  0  0  0
   20.8062   24.2522   -1.8081 C   0  0  2  0  0  0  0  0  0  0  0  0
   18.3128   21.8384   -1.1626 C   0  0  1  0  0  0  0  0  0  0  0  0
   19.5878   22.3764   -1.1108 O   0  0  0  0  0  0  0  0  0  0  0  0
   18.3794   28.3893   -1.3672 C   0  0  1  0  0  0  0  0  0  0  0  0
   17.6682   29.3342   -2.1084 O   0  0  0  0  0  0  0  0  0  0  0  0
   19.8799   23.0991   -2.1793 C   0  0  2  0  0  0  0  0  0  0  0  0
   18.2464   20.3578   -1.4659 C   0  0  1  0  0  0  0  0  0  0  0  0
   18.9469   20.1097   -2.6783 N   0  0  0  0  0  0  0  0  0  0  0  0
   18.9129   27.3422   -2.3539 C   0  0  2  0  0  0  0  0  0  0  0  0
   17.8497   26.5957   -3.0684 N   0  0  0  0  0  0  0  0  0  0  0  0
   20.6058   22.5069   -3.3077 C   0  0  1  0  0  0  0  0  0  0  0  0
   21.0778   21.2268   -2.8826 O   0  0  0  0  0  0  0  0  0  0  0  0
   18.8274   19.6128   -0.4493 C   0  0  2  0  0  0  0  0  0  0  0  0
   18.4703   18.2683   -0.6493 O   0  0  0  0  0  0  0  0  0  0  0  0
   19.7760   26.3600   -1.5778 C   0  0  1  0  0  0  0  0  0  0  0  0
   20.2694   25.3964   -2.4952 O   0  0  0  0  0  0  0  0  0  0  0  0
   21.7668   23.3512   -3.6155 C   0  0  1  0  0  0  0  0  0  0  0  0
   22.0668   23.9890   -2.3801 O   0  0  0  0  0  0  0  0  0  0  0  0
   18.3215   20.0729    0.8927 C   0  0  1  0  0  0  0  0  0  0  0  0
   19.0924   19.4801    1.8960 O   0  0  0  0  0  0  0  0  0  0  0  0
   20.9462   27.1091   -0.8790 C   0  0  2  0  0  0  0  0  0  0  0  0
   21.7496   26.1705   -0.1655 O   0  0  0  0  0  0  0  0  0  0  0  0
   18.4645   21.5526    1.0049 C   0  0  1  0  0  0  0  0  0  0  0  0
   17.6867   22.1352   -0.0005 O   0  0  0  0  0  0  0  0  0  0  0  0
   20.3687   28.1437    0.1095 C   0  0  1  0  0  0  0  0  0  0  0  0
   21.4357   28.8466    0.7669 O   0  0  0  0  0  0  0  0  0  0  0  0
   17.9378   22.0654    2.3598 C   0  0  0  0  0  0  0  0  0  0  0  0
   18.4361   23.3785    2.5889 O   0  0  0  0  0  0  0  0  0  0  0  0
   18.8769   32.1290   -0.7964 N   0  0  0  0  0  0  0  0  0  0  0  0
   17.3398   24.7919   -1.9815 N   0  0  0  0  0  0  0  0  0  0  0  0
  1  2  1  0  0  0  0
  1 39  1  0  0  0  0
  3  4  1  0  0  0  0
  5  6  1  0  0  0  0
  5 40  1  0  0  0  0
  9 10  1  1  0  0  0
  9 14  1  0  0  0  0
  9 35  1  0  0  0  0
 10  1  1  0  0  0  0
 11 16  1  0  0  0  0
 11 28  1  0  0  0  0
 11 26  1  6  0  0  0
 12 17  1  0  0  0  0
 12 34  1  0  0  0  0
 12 13  1  1  0  0  0
 14 15  1  6  0  0  0
 14 19  1  0  0  0  0
 16 13  1  1  0  0  0
 16 21  1  0  0  0  0
 17 18  1  6  0  0  0
 17 23  1  0  0  0  0
 18  8  1  0  0  0  0
 19 20  1  1  0  0  0
 19 25  1  0  0  0  0
 20  5  1  0  0  0  0
 21  3  1  6  0  0  0
 21 22  1  0  0  0  0
 21 27  1  0  0  0  0
 23 24  1  6  0  0  0
 23 29  1  0  0  0  0
 25 26  1  6  0  0  0
 25 31  1  0  0  0  0
 27  7  1  1  0  0  0
 27 28  1  0  0  0  0
 29 30  1  1  0  0  0
 29 33  1  0  0  0  0
 31 32  1  1  0  0  0
 31 35  1  0  0  0  0
 33 34  1  0  0  0  0
 33 37  1  1  0  0  0
 35 36  1  6  0  0  0
 37 38  1  0  0  0  0
M  END
>  <CHROM.1>
-124.50854854,-99.45474957,113.98743742,105.11782171,147.27209969,-123.41582842
-57.10374404,84.82609080,-155.77800949,-165.33505707,163.15595345,19.36316613
24.47865481,-1.28905127,1.50060299,1.14393719,0.16172655

>  <Name>
1nta_lig

>  <RI>
0

>  <Rbt.Current_Directory>
/home/itssahil/PROJECTS/Mol_Feturizer/New_Systems/rnas/1nta

>  <Rbt.Executable>
rbdock ($Id: //depot/dev/client3/rdock/2013.1/src/exe/rbdock.cxx#4 $)

>  <Rbt.Library>
libRbt.so (2013.1, Build901 2013/11/27)

>  <Rbt.Parameter_File>
/export/apps/rDock/src/rDock_2013.1_src/data/scripts/dock_solv.prm

>  <Rbt.Receptor>
prm/blind_docking_60.prm

>  <SCORE>
-17.2239

>  <SCORE.INTER>
-7.06381

>  <SCORE.INTER.CONST>
1

>  <SCORE.INTER.POLAR>
0

>  <SCORE.INTER.ROT>
11

>  <SCORE.INTER.SOLV>
10.7307

>  <SCORE.INTER.VDW>
-19.2194

>  <SCORE.INTER.norm>
-0.176595

>  <SCORE.INTRA>
-12.3609

>  <SCORE.INTRA.DIHEDRAL>
5.30985

>  <SCORE.INTRA.DIHEDRAL.0>
19.0336

>  <SCORE.INTRA.POLAR>
0

>  <SCORE.INTRA.POLAR.0>
0

>  <SCORE.INTRA.REPUL>
0

>  <SCORE.INTRA.REPUL.0>
0

>  <SCORE.INTRA.SOLV>
1.80375

>  <SCORE.INTRA.SOLV.lig_0>
-97.5861

>  <SCORE.INTRA.VDW>
-15.9177

>  <SCORE.INTRA.VDW.0>
11.7669

>  <SCORE.INTRA.norm>
-0.309022

>  <SCORE.RESTR>
2.20081

>  <SCORE.RESTR.CAVITY>
2.20081

>  <SCORE.RESTR.norm>
0.0550204

>  <SCORE.SYSTEM>
0

>  <SCORE.SYSTEM.CONST>
0

>  <SCORE.SYSTEM.DIHEDRAL>
0

>  <SCORE.SYSTEM.SOLV>
0

>  <SCORE.SYSTEM.norm>
0

>  <SCORE.heavy>
40

>  <SCORE.norm>
-0.430597

>  <RMSD>
21.455

$$$$
1nta_lig
 OpenBabel11021811403D
libRbt.so/2013.1/901 2013/11/27
 40 42  0  0  0  0  0  0  0  0999 V2000
   19.9008   23.3900   -9.9921 C   0  0  0  0  0  0  0  0  0  0  0  0
   19.8212   24.5693  -10.4849 N   0  0  0  0  0  0  0  0  0  0  0  0
   20.1616   23.8014    0.0380 C   0  0  0  0  0  0  0  0  0  0  0  0
   19.1115   24.1568    0.5261 O   0  0  0  0  0  0  0  0  0  0  0  0
   19.6831   20.3010   -3.9125 C   0  0  0  0  0  0  0  0  0  0  0  0
   19.3617   19.1298   -4.3971 N   0  0  0  0  0  0  0  0  0  0  0  0
   23.4668   23.9498   -0.3009 C   0  0  0  0  0  0  0  0  0  0  0  0
   20.3394   29.6327    0.0878 C   0  0  0  0  0  0  0  0  0  0  0  0
   19.9219   23.0515   -7.6499 C   0  0  2  0  0  0  0  0  0  0  0  0
   19.1311   23.1583   -8.9392 N   0  0  0  0  0  0  0  0  0  0  0  0
   21.3200   24.7223   -3.0730 C   0  0  2  0  0  0  0  0  0  0  0  0
   19.2311   26.8681   -1.0594 C   0  0  1  0  0  0  0  0  0  0  0  0
   20.0151   26.4102   -2.1049 O   0  0  0  0  0  0  0  0  0  0  0  0
   19.1124   22.2727   -6.5958 C   0  0  1  0  0  0  0  0  0  0  0  0
   18.9333   20.9791   -7.0882 O   0  0  0  0  0  0  0  0  0  0  0  0
   20.3538   25.1390   -1.9694 C   0  0  2  0  0  0  0  0  0  0  0  0
   18.8575   28.3328   -1.1231 C   0  0  1  0  0  0  0  0  0  0  0  0
   20.0485   29.1019   -1.2334 N   0  0  0  0  0  0  0  0  0  0  0  0
   19.8564   22.1536   -5.2590 C   0  0  2  0  0  0  0  0  0  0  0  0
   19.1037   21.4130   -4.2183 N   0  0  0  0  0  0  0  0  0  0  0  0
   21.0732   24.6792   -0.7770 C   0  0  1  0  0  0  0  0  0  0  0  0
   21.4857   25.8423   -0.0566 O   0  0  0  0  0  0  0  0  0  0  0  0
   18.0486   28.5950   -2.2200 C   0  0  2  0  0  0  0  0  0  0  0  0
   17.5074   29.8810   -2.0520 O   0  0  0  0  0  0  0  0  0  0  0  0
   20.1506   23.5583   -4.7568 C   0  0  1  0  0  0  0  0  0  0  0  0
   20.8415   23.4423   -3.5227 O   0  0  0  0  0  0  0  0  0  0  0  0
   22.2725   23.9476   -1.2039 C   0  0  1  0  0  0  0  0  0  0  0  0
   22.5780   24.4999   -2.4784 O   0  0  0  0  0  0  0  0  0  0  0  0
   16.9328   27.5867   -2.3015 C   0  0  1  0  0  0  0  0  0  0  0  0
   16.2854   27.7246   -3.5321 O   0  0  0  0  0  0  0  0  0  0  0  0
   21.0059   24.3332   -5.7992 C   0  0  2  0  0  0  0  0  0  0  0  0
   21.2799   25.6435   -5.3059 O   0  0  0  0  0  0  0  0  0  0  0  0
   17.4927   26.2075   -2.2189 C   0  0  1  0  0  0  0  0  0  0  0  0
   18.1344   26.0794   -0.9832 O   0  0  0  0  0  0  0  0  0  0  0  0
   20.2200   24.4391   -7.1230 C   0  0  1  0  0  0  0  0  0  0  0  0
   20.9941   25.1538   -8.1001 O   0  0  0  0  0  0  0  0  0  0  0  0
   16.3772   25.1452   -2.2788 C   0  0  0  0  0  0  0  0  0  0  0  0
   15.7942   25.1515   -3.5769 O   0  0  0  0  0  0  0  0  0  0  0  0
   20.6802   22.4870  -10.4813 N   0  0  0  0  0  0  0  0  0  0  0  0
   20.6194   20.3947   -3.0518 N   0  0  0  0  0  0  0  0  0  0  0  0
  1  2  1  0  0  0  0
  1 39  1  0  0  0  0
  3  4  1  0  0  0  0
  5  6  1  0  0  0  0
  5 40  1  0  0  0  0
  9 10  1  6  0  0  0
  9 14  1  0  0  0  0
  9 35  1  0  0  0  0
 10  1  1  0  0  0  0
 11 16  1  0  0  0  0
 11 28  1  0  0  0  0
 11 26  1  1  0  0  0
 12 17  1  0  0  0  0
 12 34  1  0  0  0  0
 12 13  1  6  0  0  0
 14 15  1  6  0  0  0
 14 19  1  0  0  0  0
 16 13  1  1  0  0  0
 16 21  1  0  0  0  0
 17 18  1  6  0  0  0
 17 23  1  0  0  0  0
 18  8  1  0  0  0  0
 19 20  1  1  0  0  0
 19 25  1  0  0  0  0
 20  5  1  0  0  0  0
 21  3  1  1  0  0  0
 21 22  1  0  0  0  0
 21 27  1  0  0  0  0
 23 24  1  1  0  0  0
 23 29  1  0  0  0  0
 25 26  1  1  0  0  0
 25 31  1  0  0  0  0
 27  7  1  1  0  0  0
 27 28  1  0  0  0  0
 29 30  1  6  0  0  0
 29 33  1  0  0  0  0
 31 32  1  1  0  0  0
 31 35  1  0  0  0  0
 33 34  1  0  0  0  0
 33 37  1  1  0  0  0
 35 36  1  6  0  0  0
 37 38  1  0  0  0  0
M  END
>  <CHROM.1>
-158.31833046,-108.09166244,103.16513152,177.49930814,-174.68480212,-100.92296186
113.71006316,-97.58422686,-60.99050146,171.96831214,68.10254061,19.68024726
24.72153543,-3.72665408,1.39308307,1.09817479,-2.00625352

>  <Name>
1nta_lig

>  <RI>
1.05895e+07

>  <Rbt.Current_Directory>
/home/itssahil/PROJECTS/Mol_Feturizer/New_Systems/rnas/1nta

>  <Rbt.Executable>
rbdock ($Id: //depot/dev/client3/rdock/2013.1/src/exe/rbdock.cxx#4 $)

>  <Rbt.Library>
libRbt.so (2013.1, Build901 2013/11/27)

>  <Rbt.Parameter_File>
/export/apps/rDock/src/rDock_2013.1_src/data/scripts/dock_solv.prm

>  <Rbt.Receptor>
prm/blind_docking_100.prm

>  <SCORE>
-30.1567

>  <SCORE.INTER>
-14.3036

>  <SCORE.INTER.CONST>
1

>  <SCORE.INTER.POLAR>
-1.33081

>  <SCORE.INTER.ROT>
11

>  <SCORE.INTER.SOLV>
21.3698

>  <SCORE.INTER.VDW>
-23.1563

>  <SCORE.INTER.norm>
-0.357591

>  <SCORE.INTRA>
-16.9665

>  <SCORE.INTRA.DIHEDRAL>
-8.95711

>  <SCORE.INTRA.DIHEDRAL.0>
19.0336

>  <SCORE.INTRA.POLAR>
0

>  <SCORE.INTRA.POLAR.0>
0

>  <SCORE.INTRA.REPUL>
0

>  <SCORE.INTRA.REPUL.0>
0

>  <SCORE.INTRA.SOLV>
-3.94339

>  <SCORE.INTRA.SOLV.lig_0>
-97.5861

>  <SCORE.INTRA.VDW>
-10.5163

>  <SCORE.INTRA.VDW.0>
11.7669

>  <SCORE.INTRA.norm>
-0.424163

>  <SCORE.RESTR>
1.1134

>  <SCORE.RESTR.CAVITY>
1.1134

>  <SCORE.RESTR.norm>
0.027835

>  <SCORE.SYSTEM>
0

>  <SCORE.SYSTEM.CONST>
0

>  <SCORE.SYSTEM.DIHEDRAL>
0

>  <SCORE.SYSTEM.SOLV>
0

>  <SCORE.SYSTEM.norm>
0

>  <SCORE.heavy>
40

>  <SCORE.norm>
-0.753919

>  <RMSD>
21.460

$$$$
1nta_lig
 OpenBabel11021811403D
libRbt.so/2013.1/901 2013/11/27
 40 42  0  0  0  0  0  0  0  0999 V2000
   18.8331   29.6546    1.3648 C   0  0  0  0  0  0  0  0  0  0  0  0
   19.5215   30.5414    1.9810 N   0  0  0  0  0  0  0  0  0  0  0  0
   22.2940   23.4663   -3.8941 C   0  0  0  0  0  0  0  0  0  0  0  0
   23.4376   23.7581   -4.1669 O   0  0  0  0  0  0  0  0  0  0  0  0
   15.9203   25.3211   -2.0337 C   0  0  0  0  0  0  0  0  0  0  0  0
   16.0243   24.8219   -3.2377 N   0  0  0  0  0  0  0  0  0  0  0  0
   23.2845   24.3025   -0.8312 C   0  0  0  0  0  0  0  0  0  0  0  0
   18.4005   19.9719   -5.1717 C   0  0  0  0  0  0  0  0  0  0  0  0
   18.6468   28.8254   -0.8439 C   0  0  2  0  0  0  0  0  0  0  0  0
   18.4664   29.9716    0.1320 N   0  0  0  0  0  0  0  0  0  0  0  0
   19.8116   23.7032   -1.5172 C   0  0  2  0  0  0  0  0  0  0  0  0
   18.5958   21.3959   -2.6504 C   0  0  1  0  0  0  0  0  0  0  0  0
   19.9510   21.5396   -2.4049 O   0  0  0  0  0  0  0  0  0  0  0  0
   17.6579   27.6907   -0.5159 C   0  0  1  0  0  0  0  0  0  0  0  0
   16.3716   28.2006   -0.6986 O   0  0  0  0  0  0  0  0  0  0  0  0
   20.3743   22.7786   -2.5913 C   0  0  2  0  0  0  0  0  0  0  0  0
   18.1251   19.9757   -2.8746 C   0  0  1  0  0  0  0  0  0  0  0  0
   18.8907   19.4032   -3.9274 N   0  0  0  0  0  0  0  0  0  0  0  0
   17.8119   26.4908   -1.4600 C   0  0  2  0  0  0  0  0  0  0  0  0
   16.8778   25.3766   -1.1700 N   0  0  0  0  0  0  0  0  0  0  0  0
   21.8034   23.1001   -2.5190 C   0  0  1  0  0  0  0  0  0  0  0  0
   22.4706   21.9485   -1.9986 O   0  0  0  0  0  0  0  0  0  0  0  0
   18.2887   19.2083   -1.7298 C   0  0  2  0  0  0  0  0  0  0  0  0
   17.5710   18.0138   -1.9118 O   0  0  0  0  0  0  0  0  0  0  0  0
   19.2413   25.9844   -1.3492 C   0  0  1  0  0  0  0  0  0  0  0  0
   19.3791   24.8776   -2.2265 O   0  0  0  0  0  0  0  0  0  0  0  0
   21.9889   24.2101   -1.5761 C   0  0  1  0  0  0  0  0  0  0  0  0
   20.8817   24.0990   -0.6903 O   0  0  0  0  0  0  0  0  0  0  0  0
   17.7514   19.9393   -0.5275 C   0  0  1  0  0  0  0  0  0  0  0  0
   18.1422   19.2595    0.6291 O   0  0  0  0  0  0  0  0  0  0  0  0
   20.2419   27.1148   -1.7230 C   0  0  2  0  0  0  0  0  0  0  0  0
   21.5756   26.6180   -1.6233 O   0  0  0  0  0  0  0  0  0  0  0  0
   18.3227   21.3154   -0.4775 C   0  0  1  0  0  0  0  0  0  0  0  0
   17.9226   21.9873   -1.6367 O   0  0  0  0  0  0  0  0  0  0  0  0
   20.0618   28.2959   -0.7464 C   0  0  1  0  0  0  0  0  0  0  0  0
   20.9795   29.3518   -1.0750 O   0  0  0  0  0  0  0  0  0  0  0  0
   17.7800   22.1040    0.7308 C   0  0  0  0  0  0  0  0  0  0  0  0
   18.4207   21.6445    1.9154 O   0  0  0  0  0  0  0  0  0  0  0  0
   18.5118   28.5292    1.9056 N   0  0  0  0  0  0  0  0  0  0  0  0
   14.8125   25.8230   -1.6500 N   0  0  0  0  0  0  0  0  0  0  0  0
  1  2  1  0  0  0  0
  1 39  1  0  0  0  0
  3  4  1  0  0  0  0
  5  6  1  0  0  0  0
  5 40  1  0  0  0  0
  9 10  1  1  0  0  0
  9 14  1  0  0  0  0
  9 35  1  0  0  0  0
 10  1  1  0  0  0  0
 11 16  1  0  0  0  0
 11 28  1  0  0  0  0
 11 26  1  6  0  0  0
 12 17  1  0  0  0  0
 12 34  1  0  0  0  0
 12 13  1  1  0  0  0
 14 15  1  6  0  0  0
 14 19  1  0  0  0  0
 16 13  1  1  0  0  0
 16 21  1  0  0  0  0
 17 18  1  6  0  0  0
 17 23  1  0  0  0  0
 18  8  1  0  0  0  0
 19 20  1  1  0  0  0
 19 25  1  0  0  0  0
 20  5  1  0  0  0  0
 21  3  1  6  0  0  0
 21 22  1  0  0  0  0
 21 27  1  0  0  0  0
 23 24  1  6  0  0  0
 23 29  1  0  0  0  0
 25 26  1  6  0  0  0
 25 31  1  0  0  0  0
 27  7  1  1  0  0  0
 27 28  1  0  0  0  0
 29 30  1  1  0  0  0
 29 33  1  0  0  0  0
 31 32  1  1  0  0  0
 31 35  1  0  0  0  0
 33 34  1  0  0  0  0
 33 37  1  1  0  0  0
 35 36  1  6  0  0  0
 37 38  1  0  0  0  0
M  END
>  <CHROM.1>
67.69229127,136.42432285,-160.83218548,162.02229179,69.08023655,-75.28774561
105.12526979,78.26178607,-178.57441094,-122.72496429,75.71060536,19.16697824
24.22063307,-1.37089473,1.56522854,0.30065800,0.23548873

>  <Name>
1nta_lig

>  <RI>
0

>  <Rbt.Current_Directory>
/home/itssahil/PROJECTS/Mol_Feturizer/New_Systems/rnas/1nta

>  <Rbt.Executable>
rbdock ($Id: //depot/dev/client3/rdock/2013.1/src/exe/rbdock.cxx#4 $)

>  <Rbt.Library>
libRbt.so (2013.1, Build901 2013/11/27)

>  <Rbt.Parameter_File>
/export/apps/rDock/src/rDock_2013.1_src/data/scripts/dock_solv.prm

>  <Rbt.Receptor>
prm/blind_docking_60.prm

>  <SCORE>
-10.238

>  <SCORE.INTER>
-0.693053

>  <SCORE.INTER.CONST>
1

>  <SCORE.INTER.POLAR>
-0.136991

>  <SCORE.INTER.ROT>
11

>  <SCORE.INTER.SOLV>
20.0602

>  <SCORE.INTER.VDW>
-17.6255

>  <SCORE.INTER.norm>
-0.0173263

>  <SCORE.INTRA>
-10.2988

>  <SCORE.INTRA.DIHEDRAL>
-4.88121

>  <SCORE.INTRA.DIHEDRAL.0>
19.0336

>  <SCORE.INTRA.POLAR>
0

>  <SCORE.INTRA.POLAR.0>
0

>  <SCORE.INTRA.REPUL>
0.109424

>  <SCORE.INTRA.REPUL.0>
0

>  <SCORE.INTRA.SOLV>
-1.08858

>  <SCORE.INTRA.SOLV.lig_0>
-97.5861

>  <SCORE.INTRA.VDW>
-7.86104

>  <SCORE.INTRA.VDW.0>
11.7669

>  <SCORE.INTRA.norm>
-0.25747

>  <SCORE.RESTR>
0.753905

>  <SCORE.RESTR.CAVITY>
0.753905

>  <SCORE.RESTR.norm>
0.0188476

>  <SCORE.SYSTEM>
0

>  <SCORE.SYSTEM.CONST>
0

>  <SCORE.SYSTEM.DIHEDRAL>
0

>  <SCORE.SYSTEM.SOLV>
0

>  <SCORE.SYSTEM.norm>
0

>  <SCORE.heavy>
40

>  <SCORE.norm>
-0.255949

>  <RMSD>
21.515

$$$$
1nta_lig
 OpenBabel11021811403D
libRbt.so/2013.1/901 2013/11/27
 40 42  0  0  0  0  0  0  0  0999 V2000
   17.0625   25.8932    5.6966 C   0  0  0  0  0  0  0  0  0  0  0  0
   16.0557   26.6846    5.6845 N   0  0  0  0  0  0  0  0  0  0  0  0
   19.2682   24.3076   -2.6549 C   0  0  0  0  0  0  0  0  0  0  0  0
   18.8469   25.4099   -2.3817 O   0  0  0  0  0  0  0  0  0  0  0  0
   18.3871   27.9213    0.2418 C   0  0  0  0  0  0  0  0  0  0  0  0
   19.5775   28.3101   -0.1344 N   0  0  0  0  0  0  0  0  0  0  0  0
   22.5881   24.1082   -2.6594 C   0  0  0  0  0  0  0  0  0  0  0  0
   19.1832   19.8009   -3.5171 C   0  0  0  0  0  0  0  0  0  0  0  0
   19.0735   26.4227    4.5670 C   0  0  2  0  0  0  0  0  0  0  0  0
   18.2443   26.4753    5.8353 N   0  0  0  0  0  0  0  0  0  0  0  0
   20.7550   23.8182    0.4141 C   0  0  2  0  0  0  0  0  0  0  0  0
   18.2432   21.5620   -0.8577 C   0  0  1  0  0  0  0  0  0  0  0  0
   19.3254   22.0477   -0.1431 O   0  0  0  0  0  0  0  0  0  0  0  0
   18.1742   26.6505    3.3372 C   0  0  1  0  0  0  0  0  0  0  0  0
   17.6499   27.9395    3.4443 O   0  0  0  0  0  0  0  0  0  0  0  0
   19.6651   23.2741   -0.5031 C   0  0  2  0  0  0  0  0  0  0  0  0
   18.3890   20.1466   -1.3718 C   0  0  1  0  0  0  0  0  0  0  0  0
   19.5802   20.0634   -2.1440 N   0  0  0  0  0  0  0  0  0  0  0  0
   18.9586   26.5844    2.0199 C   0  0  2  0  0  0  0  0  0  0  0  0
   18.1226   26.7949    0.8137 N   0  0  0  0  0  0  0  0  0  0  0  0
   20.2527   23.5312   -1.8220 C   0  0  1  0  0  0  0  0  0  0  0  0
   20.5649   22.2626   -2.4011 O   0  0  0  0  0  0  0  0  0  0  0  0
   18.4669   19.2398   -0.3241 C   0  0  2  0  0  0  0  0  0  0  0  0
   18.3016   17.9522   -0.8623 O   0  0  0  0  0  0  0  0  0  0  0  0
   19.6220   25.2190    1.9345 C   0  0  1  0  0  0  0  0  0  0  0  0
   20.3485   25.1646    0.7168 O   0  0  0  0  0  0  0  0  0  0  0  0
   21.5028   24.2800   -1.6423 C   0  0  1  0  0  0  0  0  0  0  0  0
   21.9414   23.9117   -0.3404 O   0  0  0  0  0  0  0  0  0  0  0  0
   17.3790   19.5073    0.6827 C   0  0  1  0  0  0  0  0  0  0  0  0
   17.6247   18.7471    1.8291 O   0  0  0  0  0  0  0  0  0  0  0  0
   20.5654   25.0032    3.1520 C   0  0  2  0  0  0  0  0  0  0  0  0
   21.1857   23.7226    3.0486 O   0  0  0  0  0  0  0  0  0  0  0  0
   17.3894   20.9481    1.0651 C   0  0  1  0  0  0  0  0  0  0  0  0
   17.1390   21.6988   -0.0879 O   0  0  0  0  0  0  0  0  0  0  0  0
   19.7383   25.0673    4.4531 C   0  0  1  0  0  0  0  0  0  0  0  0
   20.5931   24.8689    5.5910 O   0  0  0  0  0  0  0  0  0  0  0  0
   16.2747   21.2664    2.0813 C   0  0  0  0  0  0  0  0  0  0  0  0
   15.0544   20.6867    1.6341 O   0  0  0  0  0  0  0  0  0  0  0  0
   16.9394   24.6154    5.5770 N   0  0  0  0  0  0  0  0  0  0  0  0
   17.3858   28.6922    0.0706 N   0  0  0  0  0  0  0  0  0  0  0  0
  1  2  1  0  0  0  0
  1 39  1  0  0  0  0
  3  4  1  0  0  0  0
  5  6  1  0  0  0  0
  5 40  1  0  0  0  0
  9 10  1  1  0  0  0
  9 14  1  0  0  0  0
  9 35  1  0  0  0  0
 10  1  1  0  0  0  0
 11 16  1  0  0  0  0
 11 28  1  0  0  0  0
 11 26  1  6  0  0  0
 12 17  1  0  0  0  0
 12 34  1  0  0  0  0
 12 13  1  1  0  0  0
 14 15  1  1  0  0  0
 14 19  1  0  0  0  0
 16 13  1  1  0  0  0
 16 21  1  0  0  0  0
 17 18  1  1  0  0  0
 17 23  1  0  0  0  0
 18  8  1  0  0  0  0
 19 20  1  6  0  0  0
 19 25  1  0  0  0  0
 20  5  1  0  0  0  0
 21  3  1  6  0  0  0
 21 22  1  0  0  0  0
 21 27  1  0  0  0  0
 23 24  1  6  0  0  0
 23 29  1  0  0  0  0
 25 26  1  6  0  0  0
 25 31  1  0  0  0  0
 27  7  1  6  0  0  0
 27 28  1  0  0  0  0
 29 30  1  1  0  0  0
 29 33  1  0  0  0  0
 31 32  1  6  0  0  0
 31 35  1  0  0  0  0
 33 34  1  0  0  0  0
 33 37  1  1  0  0  0
 35 36  1  1  0  0  0
 37 38  1  0  0  0  0
M  END
>  <CHROM.1>
39.20105971,-109.46962012,94.48990070,134.57596886,173.71124758,-114.08041408
110.55133719,53.90485471,61.57297486,-167.00502928,-47.01884138,18.89259991
23.71920682,0.97731167,1.70367291,1.05088197,0.58739631

>  <Name>
1nta_lig

>  <RI>
2.40834e+07

>  <Rbt.Current_Directory>
/home/itssahil/PROJECTS/Mol_Feturizer/New_Systems/rnas/1nta

>  <Rbt.Executable>
rbdock ($Id: //depot/dev/client3/rdock/2013.1/src/exe/rbdock.cxx#4 $)

>  <Rbt.Library>
libRbt.so (2013.1, Build901 2013/11/27)

>  <Rbt.Parameter_File>
/export/apps/rDock/src/rDock_2013.1_src/data/scripts/dock_solv.prm

>  <Rbt.Receptor>
prm/blind_docking_80.prm

>  <SCORE>
-23.2604

>  <SCORE.INTER>
-8.34685

>  <SCORE.INTER.CONST>
1

>  <SCORE.INTER.POLAR>
0

>  <SCORE.INTER.ROT>
11

>  <SCORE.INTER.SOLV>
18.2787

>  <SCORE.INTER.VDW>
-22.5908

>  <SCORE.INTER.norm>
-0.208671

>  <SCORE.INTRA>
-16.0772

>  <SCORE.INTRA.DIHEDRAL>
-3.02531

>  <SCORE.INTRA.DIHEDRAL.0>
19.0336

>  <SCORE.INTRA.POLAR>
0

>  <SCORE.INTRA.POLAR.0>
0

>  <SCORE.INTRA.REPUL>
0

>  <SCORE.INTRA.REPUL.0>
0

>  <SCORE.INTRA.SOLV>
-1.51099

>  <SCORE.INTRA.SOLV.lig_0>
-97.5861

>  <SCORE.INTRA.VDW>
-13.8091

>  <SCORE.INTRA.VDW.0>
11.7669

>  <SCORE.INTRA.norm>
-0.401931

>  <SCORE.RESTR>
1.16369

>  <SCORE.RESTR.CAVITY>
1.16369

>  <SCORE.RESTR.norm>
0.0290921

>  <SCORE.SYSTEM>
0

>  <SCORE.SYSTEM.CONST>
0

>  <SCORE.SYSTEM.DIHEDRAL>
0

>  <SCORE.SYSTEM.SOLV>
0

>  <SCORE.SYSTEM.norm>
0

>  <SCORE.heavy>
40

>  <SCORE.norm>
-0.58151

>  <RMSD>
21.555

$$$$
1nta_lig
 OpenBabel11021811403D
libRbt.so/2013.1/901 2013/11/27
 40 42  0  0  0  0  0  0  0  0999 V2000
   20.3975   30.0317    1.3039 C   0  0  0  0  0  0  0  0  0  0  0  0
   20.7647   29.4483    2.3831 N   0  0  0  0  0  0  0  0  0  0  0  0
   19.1567   22.3734   -4.0468 C   0  0  0  0  0  0  0  0  0  0  0  0
   18.2577   21.5709   -4.1694 O   0  0  0  0  0  0  0  0  0  0  0  0
   19.5100   25.0437    2.1466 C   0  0  0  0  0  0  0  0  0  0  0  0
   19.4647   25.4404    3.3917 N   0  0  0  0  0  0  0  0  0  0  0  0
   22.2548   23.5252   -3.6771 C   0  0  0  0  0  0  0  0  0  0  0  0
   18.4323   18.4126   -2.8041 C   0  0  0  0  0  0  0  0  0  0  0  0
   18.7045   28.7306    0.2835 C   0  0  2  0  0  0  0  0  0  0  0  0
   19.1000   29.9827    1.0416 N   0  0  0  0  0  0  0  0  0  0  0  0
   19.8983   23.7517   -0.9778 C   0  0  2  0  0  0  0  0  0  0  0  0
   18.1191   20.7693   -0.8360 C   0  0  1  0  0  0  0  0  0  0  0  0
   19.2972   21.4953   -0.7866 O   0  0  0  0  0  0  0  0  0  0  0  0
   18.7896   27.5024    1.2094 C   0  0  1  0  0  0  0  0  0  0  0  0
   17.8549   27.6904    2.2288 O   0  0  0  0  0  0  0  0  0  0  0  0
   19.3070   22.5094   -1.6354 C   0  0  2  0  0  0  0  0  0  0  0  0
   18.2718   19.2741   -0.6629 C   0  0  1  0  0  0  0  0  0  0  0  0
   19.1982   18.7963   -1.6301 N   0  0  0  0  0  0  0  0  0  0  0  0
   18.4217   26.1997    0.4868 C   0  0  2  0  0  0  0  0  0  0  0  0
   18.4974   24.9950    1.3478 N   0  0  0  0  0  0  0  0  0  0  0  0
   20.0941   22.4435   -2.8712 C   0  0  1  0  0  0  0  0  0  0  0  0
   20.9299   21.2879   -2.7797 O   0  0  0  0  0  0  0  0  0  0  0  0
   18.7434   18.9633    0.6048 C   0  0  2  0  0  0  0  0  0  0  0  0
   18.5785   17.5804    0.7931 O   0  0  0  0  0  0  0  0  0  0  0  0
   19.3681   26.0307   -0.6911 C   0  0  1  0  0  0  0  0  0  0  0  0
   19.0213   24.8269   -1.3576 O   0  0  0  0  0  0  0  0  0  0  0  0
   20.9522   23.6325   -2.9466 C   0  0  1  0  0  0  0  0  0  0  0  0
   21.1425   24.0073   -1.5878 O   0  0  0  0  0  0  0  0  0  0  0  0
   17.9609   19.7101    1.6529 C   0  0  1  0  0  0  0  0  0  0  0  0
   18.6037   19.5692    2.8855 O   0  0  0  0  0  0  0  0  0  0  0  0
   19.2525   27.2483   -1.6518 C   0  0  2  0  0  0  0  0  0  0  0  0
   20.1392   27.0666   -2.7546 O   0  0  0  0  0  0  0  0  0  0  0  0
   17.9169   21.1605    1.3109 C   0  0  1  0  0  0  0  0  0  0  0  0
   17.2688   21.2901    0.0786 O   0  0  0  0  0  0  0  0  0  0  0  0
   19.6391   28.5340   -0.8911 C   0  0  1  0  0  0  0  0  0  0  0  0
   19.5395   29.6717   -1.7632 O   0  0  0  0  0  0  0  0  0  0  0  0
   17.1059   21.9575    2.3517 C   0  0  0  0  0  0  0  0  0  0  0  0
   17.9937   22.4934    3.3262 O   0  0  0  0  0  0  0  0  0  0  0  0
   21.2317   30.6241    0.5194 N   0  0  0  0  0  0  0  0  0  0  0  0
   20.6235   24.6909    1.6347 N   0  0  0  0  0  0  0  0  0  0  0  0
  1  2  1  0  0  0  0
  1 39  1  0  0  0  0
  3  4  1  0  0  0  0
  5  6  1  0  0  0  0
  5 40  1  0  0  0  0
  9 10  1  1  0  0  0
  9 14  1  0  0  0  0
  9 35  1  0  0  0  0
 10  1  1  0  0  0  0
 11 16  1  0  0  0  0
 11 28  1  0  0  0  0
 11 26  1  6  0  0  0
 12 17  1  0  0  0  0
 12 34  1  0  0  0  0
 12 13  1  1  0  0  0
 14 15  1  1  0  0  0
 14 19  1  0  0  0  0
 16 13  1  1  0  0  0
 16 21  1  0  0  0  0
 17 18  1  6  0  0  0
 17 23  1  0  0  0  0
 18  8  1  0  0  0  0
 19 20  1  1  0  0  0
 19 25  1  0  0  0  0
 20  5  1  0  0  0  0
 21  3  1  6  0  0  0
 21 22  1  0  0  0  0
 21 27  1  0  0  0  0
 23 24  1  1  0  0  0
 23 29  1  0  0  0  0
 25 26  1  6  0  0  0
 25 31  1  0  0  0  0
 27  7  1  1  0  0  0
 27 28  1  0  0  0  0
 29 30  1  1  0  0  0
 29 33  1  0  0  0  0
 31 32  1  6  0  0  0
 31 35  1  0  0  0  0
 33 34  1  0  0  0  0
 33 37  1  1  0  0  0
 35 36  1  6  0  0  0
 37 38  1  0  0  0  0
M  END
>  <CHROM.1>
71.44091407,-86.83708469,173.51216698,142.94525737,137.50795848,-91.32532353
-39.01309670,97.02401816,-52.71551037,-99.56292147,94.64814998,19.24252787
23.96056964,-0.25513908,1.19579994,1.25020774,0.47333512

>  <Name>
1nta_lig

>  <RI>
2.40834e+07

>  <Rbt.Current_Directory>
/home/itssahil/PROJECTS/Mol_Feturizer/New_Systems/rnas/1nta

>  <Rbt.Executable>
rbdock ($Id: //depot/dev/client3/rdock/2013.1/src/exe/rbdock.cxx#4 $)

>  <Rbt.Library>
libRbt.so (2013.1, Build901 2013/11/27)

>  <Rbt.Parameter_File>
/export/apps/rDock/src/rDock_2013.1_src/data/scripts/dock_solv.prm

>  <Rbt.Receptor>
prm/blind_docking_80.prm

>  <SCORE>
-17.4177

>  <SCORE.INTER>
-7.16317

>  <SCORE.INTER.CONST>
1

>  <SCORE.INTER.POLAR>
-0.774597

>  <SCORE.INTER.ROT>
11

>  <SCORE.INTER.SOLV>
12.8243

>  <SCORE.INTER.VDW>
-17.4015

>  <SCORE.INTER.norm>
-0.179079

>  <SCORE.INTRA>
-11.9273

>  <SCORE.INTRA.DIHEDRAL>
2.93135

>  <SCORE.INTRA.DIHEDRAL.0>
19.0336

>  <SCORE.INTRA.POLAR>
0

>  <SCORE.INTRA.POLAR.0>
0

>  <SCORE.INTRA.REPUL>
0

>  <SCORE.INTRA.REPUL.0>
0

>  <SCORE.INTRA.SOLV>
4.17176

>  <SCORE.INTRA.SOLV.lig_0>
-97.5861

>  <SCORE.INTRA.VDW>
-15.4789

>  <SCORE.INTRA.VDW.0>
11.7669

>  <SCORE.INTRA.norm>
-0.298183

>  <SCORE.RESTR>
1.67277

>  <SCORE.RESTR.CAVITY>
1.67277

>  <SCORE.RESTR.norm>
0.0418193

>  <SCORE.SYSTEM>
0

>  <SCORE.SYSTEM.CONST>
0

>  <SCORE.SYSTEM.DIHEDRAL>
0

>  <SCORE.SYSTEM.SOLV>
0

>  <SCORE.SYSTEM.norm>
0

>  <SCORE.heavy>
40

>  <SCORE.norm>
-0.435443

>  <RMSD>
21.560

$$$$
1nta_lig
 OpenBabel11021811403D
libRbt.so/2013.1/901 2013/11/27
 40 42  0  0  0  0  0  0  0  0999 V2000
   17.9316   31.1550   -0.4411 C   0  0  0  0  0  0  0  0  0  0  0  0
   18.4867   31.5228   -1.5351 N   0  0  0  0  0  0  0  0  0  0  0  0
   22.6294   23.5436   -3.8405 C   0  0  0  0  0  0  0  0  0  0  0  0
   22.6271   22.8527   -4.8355 O   0  0  0  0  0  0  0  0  0  0  0  0
   16.0347   25.6579   -2.2705 C   0  0  0  0  0  0  0  0  0  0  0  0
   14.9735   26.3436   -1.9334 N   0  0  0  0  0  0  0  0  0  0  0  0
   23.3979   24.1946   -0.6708 C   0  0  0  0  0  0  0  0  0  0  0  0
   18.0490   22.1305   -6.1586 C   0  0  0  0  0  0  0  0  0  0  0  0
   18.7382   28.9752   -0.8864 C   0  0  2  0  0  0  0  0  0  0  0  0
   18.4416   30.0692    0.1206 N   0  0  0  0  0  0  0  0  0  0  0  0
   19.9667   23.8855   -1.6815 C   0  0  2  0  0  0  0  0  0  0  0  0
   18.6713   21.7353   -2.9198 C   0  0  1  0  0  0  0  0  0  0  0  0
   20.0279   21.7498   -2.6428 O   0  0  0  0  0  0  0  0  0  0  0  0
   17.7495   27.8077   -0.7057 C   0  0  1  0  0  0  0  0  0  0  0  0
   16.4743   28.3019   -0.9842 O   0  0  0  0  0  0  0  0  0  0  0  0
   20.5552   22.9588   -2.7398 C   0  0  2  0  0  0  0  0  0  0  0  0
   18.2727   20.9759   -4.1662 C   0  0  1  0  0  0  0  0  0  0  0  0
   19.0059   21.4942   -5.2688 N   0  0  0  0  0  0  0  0  0  0  0  0
   18.0180   26.6581   -1.6860 C   0  0  2  0  0  0  0  0  0  0  0  0
   17.0869   25.5140   -1.5371 N   0  0  0  0  0  0  0  0  0  0  0  0
   21.9915   23.1679   -2.5299 C   0  0  1  0  0  0  0  0  0  0  0  0
   22.5237   21.9515   -2.0015 O   0  0  0  0  0  0  0  0  0  0  0  0
   18.5501   19.6223   -4.0369 C   0  0  2  0  0  0  0  0  0  0  0  0
   17.8947   18.9515   -5.0835 O   0  0  0  0  0  0  0  0  0  0  0  0
   19.4422   26.1736   -1.4654 C   0  0  1  0  0  0  0  0  0  0  0  0
   19.6862   25.1134   -2.3765 O   0  0  0  0  0  0  0  0  0  0  0  0
   22.1715   24.2271   -1.5291 C   0  0  1  0  0  0  0  0  0  0  0  0
   20.9838   24.1696   -0.7486 O   0  0  0  0  0  0  0  0  0  0  0  0
   18.0440   19.1073   -2.7150 C   0  0  1  0  0  0  0  0  0  0  0  0
   18.5433   17.8187   -2.5087 O   0  0  0  0  0  0  0  0  0  0  0  0
   20.4469   27.3392   -1.6907 C   0  0  2  0  0  0  0  0  0  0  0  0
   21.7767   26.8630   -1.4896 O   0  0  0  0  0  0  0  0  0  0  0  0
   18.5349   19.9820   -1.6121 C   0  0  1  0  0  0  0  0  0  0  0  0
   18.0267   21.2669   -1.8263 O   0  0  0  0  0  0  0  0  0  0  0  0
   20.1498   28.4680   -0.6814 C   0  0  1  0  0  0  0  0  0  0  0  0
   21.0695   29.5554   -0.8730 O   0  0  0  0  0  0  0  0  0  0  0  0
   18.0204   19.4982   -0.2419 C   0  0  0  0  0  0  0  0  0  0  0  0
   18.4774   20.3879    0.7703 O   0  0  0  0  0  0  0  0  0  0  0  0
   16.9395   31.7927    0.0797 N   0  0  0  0  0  0  0  0  0  0  0  0
   16.0659   25.0498   -3.3910 N   0  0  0  0  0  0  0  0  0  0  0  0
  1  2  1  0  0  0  0
  1 39  1  0  0  0  0
  3  4  1  0  0  0  0
  5  6  1  0  0  0  0
  5 40  1  0  0  0  0
  9 10  1  1  0  0  0
  9 14  1  0  0  0  0
  9 35  1  0  0  0  0
 10  1  1  0  0  0  0
 11 16  1  0  0  0  0
 11 28  1  0  0  0  0
 11 26  1  6  0  0  0
 12 17  1  0  0  0  0
 12 34  1  0  0  0  0
 12 13  1  1  0  0  0
 14 15  1  6  0  0  0
 14 19  1  0  0  0  0
 16 13  1  1  0  0  0
 16 21  1  0  0  0  0
 17 18  1  6  0  0  0
 17 23  1  0  0  0  0
 18  8  1  0  0  0  0
 19 20  1  1  0  0  0
 19 25  1  0  0  0  0
 20  5  1  0  0  0  0
 21  3  1  6  0  0  0
 21 22  1  0  0  0  0
 21 27  1  0  0  0  0
 23 24  1  6  0  0  0
 23 29  1  0  0  0  0
 25 26  1  6  0  0  0
 25 31  1  0  0  0  0
 27  7  1  1  0  0  0
 27 28  1  0  0  0  0
 29 30  1  1  0  0  0
 29 33  1  0  0  0  0
 31 32  1  1  0  0  0
 31 35  1  0  0  0  0
 33 34  1  0  0  0  0
 33 37  1  1  0  0  0
 35 36  1  6  0  0  0
 37 38  1  0  0  0  0
M  END
>  <CHROM.1>
-109.66118060,-42.83028425,-165.63537138,113.94034187,64.78544229,-113.68830982
89.17620088,-83.91714537,-60.04127296,-117.80752203,-178.07248879,19.19210846
24.39376156,-2.07406839,1.63735376,-0.02017111,0.23964342

>  <Name>
1nta_lig

>  <RI>
1.05895e+07

>  <Rbt.Current_Directory>
/home/itssahil/PROJECTS/Mol_Feturizer/New_Systems/rnas/1nta

>  <Rbt.Executable>
rbdock ($Id: //depot/dev/client3/rdock/2013.1/src/exe/rbdock.cxx#4 $)

>  <Rbt.Library>
libRbt.so (2013.1, Build901 2013/11/27)

>  <Rbt.Parameter_File>
/export/apps/rDock/src/rDock_2013.1_src/data/scripts/dock_solv.prm

>  <Rbt.Receptor>
prm/blind_docking_100.prm

>  <SCORE>
-18.4892

>  <SCORE.INTER>
-1.89663

>  <SCORE.INTER.CONST>
1

>  <SCORE.INTER.POLAR>
0

>  <SCORE.INTER.ROT>
11

>  <SCORE.INTER.SOLV>
19.4396

>  <SCORE.INTER.VDW>
-18.6776

>  <SCORE.INTER.norm>
-0.0474158

>  <SCORE.INTRA>
-16.6955

>  <SCORE.INTRA.DIHEDRAL>
0.524846

>  <SCORE.INTRA.DIHEDRAL.0>
19.0336

>  <SCORE.INTRA.POLAR>
0

>  <SCORE.INTRA.POLAR.0>
0

>  <SCORE.INTRA.REPUL>
0.0290171

>  <SCORE.INTRA.REPUL.0>
0

>  <SCORE.INTRA.SOLV>
-4.1327

>  <SCORE.INTRA.SOLV.lig_0>
-97.5861

>  <SCORE.INTRA.VDW>
-15.0367

>  <SCORE.INTRA.VDW.0>
11.7669

>  <SCORE.INTRA.norm>
-0.417388

>  <SCORE.RESTR>
0.103008

>  <SCORE.RESTR.CAVITY>
0.103008

>  <SCORE.RESTR.norm>
0.00257519

>  <SCORE.SYSTEM>
0

>  <SCORE.SYSTEM.CONST>
0

>  <SCORE.SYSTEM.DIHEDRAL>
0

>  <SCORE.SYSTEM.SOLV>
0

>  <SCORE.SYSTEM.norm>
0

>  <SCORE.heavy>
40

>  <SCORE.norm>
-0.462229

>  <RMSD>
21.575

$$$$
1nta_lig
 OpenBabel11021811403D
libRbt.so/2013.1/901 2013/11/27
 40 42  0  0  0  0  0  0  0  0999 V2000
   17.4427   31.0436   -0.9252 C   0  0  0  0  0  0  0  0  0  0  0  0
   17.0507   31.7082   -1.9473 N   0  0  0  0  0  0  0  0  0  0  0  0
   22.2648   22.9072   -1.7460 C   0  0  0  0  0  0  0  0  0  0  0  0
   23.0572   23.7996   -1.5389 O   0  0  0  0  0  0  0  0  0  0  0  0
   21.3658   27.8556    0.4155 C   0  0  0  0  0  0  0  0  0  0  0  0
   21.2113   28.9334    1.1396 N   0  0  0  0  0  0  0  0  0  0  0  0
   19.8192   23.0072    0.5058 C   0  0  0  0  0  0  0  0  0  0  0  0
   20.9121   19.5622   -3.7117 C   0  0  0  0  0  0  0  0  0  0  0  0
   17.4154   28.6795   -1.0289 C   0  0  2  0  0  0  0  0  0  0  0  0
   16.7244   29.9697   -0.6329 N   0  0  0  0  0  0  0  0  0  0  0  0
   19.6172   24.9840   -2.4844 C   0  0  2  0  0  0  0  0  0  0  0  0
   20.7180   22.5224   -4.8580 C   0  0  1  0  0  0  0  0  0  0  0  0
   19.8636   23.2972   -4.0916 O   0  0  0  0  0  0  0  0  0  0  0  0
   18.6218   28.4209   -0.1066 C   0  0  1  0  0  0  0  0  0  0  0  0
   18.1226   28.2517    1.1858 O   0  0  0  0  0  0  0  0  0  0  0  0
   20.4727   23.8618   -3.0623 C   0  0  2  0  0  0  0  0  0  0  0  0
   20.1927   21.1532   -5.2296 C   0  0  1  0  0  0  0  0  0  0  0  0
   19.8242   20.4685   -4.0389 N   0  0  0  0  0  0  0  0  0  0  0  0
   19.3753   27.1365   -0.4770 C   0  0  2  0  0  0  0  0  0  0  0  0
   20.5468   26.8584    0.3882 N   0  0  0  0  0  0  0  0  0  0  0  0
   20.7743   23.0870   -1.8542 C   0  0  1  0  0  0  0  0  0  0  0  0
   20.0886   21.8386   -1.9696 O   0  0  0  0  0  0  0  0  0  0  0  0
   19.0816   21.2512   -6.0553 C   0  0  2  0  0  0  0  0  0  0  0  0
   18.8355   19.9756   -6.5912 O   0  0  0  0  0  0  0  0  0  0  0  0
   19.8396   27.2619   -1.9194 C   0  0  1  0  0  0  0  0  0  0  0  0
   20.5324   26.0705   -2.2577 O   0  0  0  0  0  0  0  0  0  0  0  0
   20.2402   23.8043   -0.6897 C   0  0  1  0  0  0  0  0  0  0  0  0
   19.1614   24.5656   -1.2184 O   0  0  0  0  0  0  0  0  0  0  0  0
   19.3443   22.2245   -7.1743 C   0  0  1  0  0  0  0  0  0  0  0  0
   18.1441   22.4843   -7.8410 O   0  0  0  0  0  0  0  0  0  0  0  0
   18.6196   27.4786   -2.8594 C   0  0  2  0  0  0  0  0  0  0  0  0
   19.0740   27.5834   -4.2077 O   0  0  0  0  0  0  0  0  0  0  0  0
   19.8572   23.5080   -6.6160 C   0  0  1  0  0  0  0  0  0  0  0  0
   21.0593   23.2372   -5.9549 O   0  0  0  0  0  0  0  0  0  0  0  0
   17.8966   28.7822   -2.4606 C   0  0  1  0  0  0  0  0  0  0  0  0
   16.7653   29.0010   -3.3193 O   0  0  0  0  0  0  0  0  0  0  0  0
   20.1578   24.5255   -7.7344 C   0  0  0  0  0  0  0  0  0  0  0  0
   21.1597   23.9938   -8.5938 O   0  0  0  0  0  0  0  0  0  0  0  0
   18.4643   31.3952   -0.2217 N   0  0  0  0  0  0  0  0  0  0  0  0
   22.3770   27.7496   -0.3542 N   0  0  0  0  0  0  0  0  0  0  0  0
  1  2  1  0  0  0  0
  1 39  1  0  0  0  0
  3  4  1  0  0  0  0
  5  6  1  0  0  0  0
  5 40  1  0  0  0  0
  9 10  1  1  0  0  0
  9 14  1  0  0  0  0
  9 35  1  0  0  0  0
 10  1  1  0  0  0  0
 11 16  1  0  0  0  0
 11 28  1  0  0  0  0
 11 26  1  1  0  0  0
 12 17  1  0  0  0  0
 12 34  1  0  0  0  0
 12 13  1  6  0  0  0
 14 15  1  1  0  0  0
 14 19  1  0  0  0  0
 16 13  1  6  0  0  0
 16 21  1  0  0  0  0
 17 18  1  1  0  0  0
 17 23  1  0  0  0  0
 18  8  1  0  0  0  0
 19 20  1  1  0  0  0
 19 25  1  0  0  0  0
 20  5  1  0  0  0  0
 21  3  1  1  0  0  0
 21 22  1  0  0  0  0
 21 27  1  0  0  0  0
 23 24  1  6  0  0  0
 23 29  1  0  0  0  0
 25 26  1  6  0  0  0
 25 31  1  0  0  0  0
 27  7  1  1  0  0  0
 27 28  1  0  0  0  0
 29 30  1  1  0  0  0
 29 33  1  0  0  0  0
 31 32  1  6  0  0  0
 31 35  1  0  0  0  0
 33 34  1  0  0  0  0
 33 37  1  6  0  0  0
 35 36  1  6  0  0  0
 37 38  1  0  0  0  0
M  END
>  <CHROM.1>
70.54480144,104.36889411,170.59986613,133.34709724,164.44772006,-99.84892421
-54.87060434,79.68179336,67.21308600,75.81759510,-61.09819098,19.65869183
25.30600961,-2.84609908,1.90598533,-1.06898479,0.89419246

>  <Name>
1nta_lig

>  <RI>
1.05895e+07

>  <Rbt.Current_Directory>
/home/itssahil/PROJECTS/Mol_Feturizer/New_Systems/rnas/1nta

>  <Rbt.Executable>
rbdock ($Id: //depot/dev/client3/rdock/2013.1/src/exe/rbdock.cxx#4 $)

>  <Rbt.Library>
libRbt.so (2013.1, Build901 2013/11/27)

>  <Rbt.Parameter_File>
/export/apps/rDock/src/rDock_2013.1_src/data/scripts/dock_solv.prm

>  <Rbt.Receptor>
prm/blind_docking_100.prm

>  <SCORE>
-10.3833

>  <SCORE.INTER>
2.22749

>  <SCORE.INTER.CONST>
1

>  <SCORE.INTER.POLAR>
-0.401641

>  <SCORE.INTER.ROT>
11

>  <SCORE.INTER.SOLV>
15.6934

>  <SCORE.INTER.VDW>
-13.3407

>  <SCORE.INTER.norm>
0.0556873

>  <SCORE.INTRA>
-14.646

>  <SCORE.INTRA.DIHEDRAL>
-7.56901

>  <SCORE.INTRA.DIHEDRAL.0>
19.0336

>  <SCORE.INTRA.POLAR>
0

>  <SCORE.INTRA.POLAR.0>
0

>  <SCORE.INTRA.REPUL>
0

>  <SCORE.INTRA.REPUL.0>
0

>  <SCORE.INTRA.SOLV>
1.47603

>  <SCORE.INTRA.SOLV.lig_0>
-97.5861

>  <SCORE.INTRA.VDW>
-11.5995

>  <SCORE.INTRA.VDW.0>
11.7669

>  <SCORE.INTRA.norm>
-0.36615

>  <SCORE.RESTR>
2.03527

>  <SCORE.RESTR.CAVITY>
2.03527

>  <SCORE.RESTR.norm>
0.0508817

>  <SCORE.SYSTEM>
0

>  <SCORE.SYSTEM.CONST>
0

>  <SCORE.SYSTEM.DIHEDRAL>
0

>  <SCORE.SYSTEM.SOLV>
0

>  <SCORE.SYSTEM.norm>
0

>  <SCORE.heavy>
40

>  <SCORE.norm>
-0.259582

>  <RMSD>
21.647

$$$$
1nta_lig
 OpenBabel11021811403D
libRbt.so/2013.1/901 2013/11/27
 40 42  0  0  0  0  0  0  0  0999 V2000
   20.6690   30.9506    0.5221 C   0  0  0  0  0  0  0  0  0  0  0  0
   19.7080   31.5417    1.1281 N   0  0  0  0  0  0  0  0  0  0  0  0
   18.9399   22.3184   -4.2712 C   0  0  0  0  0  0  0  0  0  0  0  0
   17.9617   21.6046   -4.3006 O   0  0  0  0  0  0  0  0  0  0  0  0
   17.2970   26.6296   -2.4988 C   0  0  0  0  0  0  0  0  0  0  0  0
   17.9591   26.9948   -3.5656 N   0  0  0  0  0  0  0  0  0  0  0  0
   22.2509   22.5194   -4.5121 C   0  0  0  0  0  0  0  0  0  0  0  0
   17.9213   18.5000   -3.0060 C   0  0  0  0  0  0  0  0  0  0  0  0
   20.8105   28.6840   -0.1434 C   0  0  2  0  0  0  0  0  0  0  0  0
   20.9459   29.7273    0.9484 N   0  0  0  0  0  0  0  0  0  0  0  0
   20.5696   23.6904   -1.5638 C   0  0  2  0  0  0  0  0  0  0  0  0
   18.1446   21.1714   -0.9526 C   0  0  1  0  0  0  0  0  0  0  0  0
   19.4047   21.7452   -0.9735 O   0  0  0  0  0  0  0  0  0  0  0  0
   19.3690   28.1420   -0.1813 C   0  0  1  0  0  0  0  0  0  0  0  0
   18.5363   29.2113   -0.5151 O   0  0  0  0  0  0  0  0  0  0  0  0
   19.5474   22.6266   -1.9492 C   0  0  2  0  0  0  0  0  0  0  0  0
   18.1200   19.6600   -1.0142 C   0  0  1  0  0  0  0  0  0  0  0  0
   18.8454   19.2395   -2.1627 N   0  0  0  0  0  0  0  0  0  0  0  0
   19.1790   27.0626   -1.2553 C   0  0  2  0  0  0  0  0  0  0  0  0
   17.8028   26.5145   -1.3170 N   0  0  0  0  0  0  0  0  0  0  0  0
   20.0524   22.2136   -3.2627 C   0  0  1  0  0  0  0  0  0  0  0  0
   20.5336   20.8747   -3.1295 O   0  0  0  0  0  0  0  0  0  0  0  0
   18.7034   19.1041    0.1158 C   0  0  2  0  0  0  0  0  0  0  0  0
   18.3832   17.7358    0.1308 O   0  0  0  0  0  0  0  0  0  0  0  0
   20.1532   25.9320   -0.9645 C   0  0  1  0  0  0  0  0  0  0  0  0
   19.9759   24.9386   -1.9623 O   0  0  0  0  0  0  0  0  0  0  0  0
   21.1815   23.0789   -3.6260 C   0  0  1  0  0  0  0  0  0  0  0  0
   21.7069   23.5041   -2.3746 O   0  0  0  0  0  0  0  0  0  0  0  0
   18.1651   19.7600    1.3602 C   0  0  1  0  0  0  0  0  0  0  0  0
   18.9347   19.3573    2.4547 O   0  0  0  0  0  0  0  0  0  0  0  0
   21.6136   26.4668   -0.9695 C   0  0  2  0  0  0  0  0  0  0  0  0
   22.5124   25.3908   -0.7055 O   0  0  0  0  0  0  0  0  0  0  0  0
   18.2693   21.2418    1.2343 C   0  0  1  0  0  0  0  0  0  0  0  0
   17.4930   21.6339    0.1393 O   0  0  0  0  0  0  0  0  0  0  0  0
   21.7649   27.5406    0.1283 C   0  0  1  0  0  0  0  0  0  0  0  0
   23.1096   28.0472    0.1404 O   0  0  0  0  0  0  0  0  0  0  0  0
   17.7086   21.9512    2.4828 C   0  0  0  0  0  0  0  0  0  0  0  0
   18.2927   23.2445    2.5880 O   0  0  0  0  0  0  0  0  0  0  0  0
   21.3290   31.5067   -0.4357 N   0  0  0  0  0  0  0  0  0  0  0  0
   16.0490   26.3809   -2.5825 N   0  0  0  0  0  0  0  0  0  0  0  0
  1  2  1  0  0  0  0
  1 39  1  0  0  0  0
  3  4  1  0  0  0  0
  5  6  1  0  0  0  0
  5 40  1  0  0  0  0
  9 10  1  1  0  0  0
  9 14  1  0  0  0  0
  9 35  1  0  0  0  0
 10  1  1  0  0  0  0
 11 16  1  0  0  0  0
 11 28  1  0  0  0  0
 11 26  1  6  0  0  0
 12 17  1  0  0  0  0
 12 34  1  0  0  0  0
 12 13  1  1  0  0  0
 14 15  1  6  0  0  0
 14 19  1  0  0  0  0
 16 13  1  1  0  0  0
 16 21  1  0  0  0  0
 17 18  1  6  0  0  0
 17 23  1  0  0  0  0
 18  8  1  0  0  0  0
 19 20  1  1  0  0  0
 19 25  1  0  0  0  0
 20  5  1  0  0  0  0
 21  3  1  6  0  0  0
 21 22  1  0  0  0  0
 21 27  1  0  0  0  0
 23 24  1  1  0  0  0
 23 29  1  0  0  0  0
 25 26  1  6  0  0  0
 25 31  1  0  0  0  0
 27  7  1  1  0  0  0
 27 28  1  0  0  0  0
 29 30  1  1  0  0  0
 29 33  1  0  0  0  0
 31 32  1  1  0  0  0
 31 35  1  0  0  0  0
 33 34  1  0  0  0  0
 33 37  1  1  0  0  0
 35 36  1  6  0  0  0
 37 38  1  0  0  0  0
M  END
>  <CHROM.1>
-89.27986368,120.71188146,136.78447862,124.50800045,151.60033810,-119.66018977
124.17181833,9.54555566,-69.07668348,-163.70408267,156.41826481,19.50524942
24.15040073,-1.01740688,0.96477286,1.24646638,0.65765491

>  <Name>
1nta_lig

>  <RI>
0

>  <Rbt.Current_Directory>
/home/itssahil/PROJECTS/Mol_Feturizer/New_Systems/rnas/1nta

>  <Rbt.Executable>
rbdock ($Id: //depot/dev/client3/rdock/2013.1/src/exe/rbdock.cxx#4 $)

>  <Rbt.Library>
libRbt.so (2013.1, Build901 2013/11/27)

>  <Rbt.Parameter_File>
/export/apps/rDock/src/rDock_2013.1_src/data/scripts/dock_solv.prm

>  <Rbt.Receptor>
prm/blind_docking_60.prm

>  <SCORE>
-21.836

>  <SCORE.INTER>
-6.84312

>  <SCORE.INTER.CONST>
1

>  <SCORE.INTER.POLAR>
0

>  <SCORE.INTER.ROT>
11

>  <SCORE.INTER.SOLV>
15.6624

>  <SCORE.INTER.VDW>
-20.7162

>  <SCORE.INTER.norm>
-0.171078

>  <SCORE.INTRA>
-16.6061

>  <SCORE.INTRA.DIHEDRAL>
4.18532

>  <SCORE.INTRA.DIHEDRAL.0>
19.0336

>  <SCORE.INTRA.POLAR>
0

>  <SCORE.INTRA.POLAR.0>
0

>  <SCORE.INTRA.REPUL>
0

>  <SCORE.INTRA.REPUL.0>
0

>  <SCORE.INTRA.SOLV>
-4.27821

>  <SCORE.INTRA.SOLV.lig_0>
-97.5861

>  <SCORE.INTRA.VDW>
-16.5597

>  <SCORE.INTRA.VDW.0>
11.7669

>  <SCORE.INTRA.norm>
-0.415153

>  <SCORE.RESTR>
1.61328

>  <SCORE.RESTR.CAVITY>
1.61328

>  <SCORE.RESTR.norm>
0.0403319

>  <SCORE.SYSTEM>
0

>  <SCORE.SYSTEM.CONST>
0

>  <SCORE.SYSTEM.DIHEDRAL>
0

>  <SCORE.SYSTEM.SOLV>
0

>  <SCORE.SYSTEM.norm>
0

>  <SCORE.heavy>
40

>  <SCORE.norm>
-0.5459

>  <RMSD>
21.677

$$$$
1nta_lig
 OpenBabel11021811403D
libRbt.so/2013.1/901 2013/11/27
 40 42  0  0  0  0  0  0  0  0999 V2000
   17.4303   26.3986    5.1700 C   0  0  0  0  0  0  0  0  0  0  0  0
   16.3679   25.8765    4.6815 N   0  0  0  0  0  0  0  0  0  0  0  0
   21.6565   24.3030   -3.2067 C   0  0  0  0  0  0  0  0  0  0  0  0
   21.2660   23.9180   -4.2868 O   0  0  0  0  0  0  0  0  0  0  0  0
   17.8506   27.3210   -1.4025 C   0  0  0  0  0  0  0  0  0  0  0  0
   19.1054   27.3947   -1.7630 N   0  0  0  0  0  0  0  0  0  0  0  0
   23.6755   24.1797   -0.5667 C   0  0  0  0  0  0  0  0  0  0  0  0
   18.1091   21.0017   -4.9425 C   0  0  0  0  0  0  0  0  0  0  0  0
   18.6290   27.0650    3.2414 C   0  0  2  0  0  0  0  0  0  0  0  0
   17.9029   27.4490    4.5158 N   0  0  0  0  0  0  0  0  0  0  0  0
   20.1545   23.5874   -0.1901 C   0  0  2  0  0  0  0  0  0  0  0  0
   18.5256   21.7181   -1.9839 C   0  0  1  0  0  0  0  0  0  0  0  0
   19.8806   21.8390   -1.7254 O   0  0  0  0  0  0  0  0  0  0  0  0
   17.6450   27.0486    2.0563 C   0  0  1  0  0  0  0  0  0  0  0  0
   17.1732   28.3523    1.8955 O   0  0  0  0  0  0  0  0  0  0  0  0
   20.2710   23.0990   -1.6299 C   0  0  2  0  0  0  0  0  0  0  0  0
   18.1128   20.4487   -2.6959 C   0  0  1  0  0  0  0  0  0  0  0  0
   18.8662   20.3347   -3.8966 N   0  0  0  0  0  0  0  0  0  0  0  0
   18.3221   26.6424    0.7405 C   0  0  2  0  0  0  0  0  0  0  0  0
   17.4025   26.6115   -0.4219 N   0  0  0  0  0  0  0  0  0  0  0  0
   21.6513   23.4808   -1.9459 C   0  0  1  0  0  0  0  0  0  0  0  0
   22.4027   22.2736   -2.0876 O   0  0  0  0  0  0  0  0  0  0  0  0
   18.3515   19.3325   -1.9065 C   0  0  2  0  0  0  0  0  0  0  0  0
   17.6832   18.2448   -2.4940 O   0  0  0  0  0  0  0  0  0  0  0  0
   18.9318   25.2626    0.9307 C   0  0  1  0  0  0  0  0  0  0  0  0
   19.5594   24.8935   -0.2873 O   0  0  0  0  0  0  0  0  0  0  0  0
   22.2002   24.2396   -0.8151 C   0  0  1  0  0  0  0  0  0  0  0  0
   21.4605   23.7716    0.3059 O   0  0  0  0  0  0  0  0  0  0  0  0
   17.8239   19.5534   -0.5131 C   0  0  1  0  0  0  0  0  0  0  0  0
   18.2858   18.5272    0.3151 O   0  0  0  0  0  0  0  0  0  0  0  0
   19.9592   25.2856    2.0980 C   0  0  2  0  0  0  0  0  0  0  0  0
   20.5272   23.9862    2.2539 O   0  0  0  0  0  0  0  0  0  0  0  0
   18.3331   20.8496    0.0190 C   0  0  1  0  0  0  0  0  0  0  0  0
   17.8622   21.8689   -0.8144 O   0  0  0  0  0  0  0  0  0  0  0  0
   19.2381   25.6883    3.4015 C   0  0  1  0  0  0  0  0  0  0  0  0
   20.1717   25.7144    4.4935 O   0  0  0  0  0  0  0  0  0  0  0  0
   17.7977   21.1217    1.4387 C   0  0  0  0  0  0  0  0  0  0  0  0
   18.2876   22.3791    1.8905 O   0  0  0  0  0  0  0  0  0  0  0  0
   18.0078   25.9335    6.2247 N   0  0  0  0  0  0  0  0  0  0  0  0
   16.9718   28.0037   -2.0255 N   0  0  0  0  0  0  0  0  0  0  0  0
  1  2  1  0  0  0  0
  1 39  1  0  0  0  0
  3  4  1  0  0  0  0
  5  6  1  0  0  0  0
  5 40  1  0  0  0  0
  9 10  1  1  0  0  0
  9 14  1  0  0  0  0
  9 35  1  0  0  0  0
 10  1  1  0  0  0  0
 11 16  1  0  0  0  0
 11 28  1  0  0  0  0
 11 26  1  6  0  0  0
 12 17  1  0  0  0  0
 12 34  1  0  0  0  0
 12 13  1  1  0  0  0
 14 15  1  6  0  0  0
 14 19  1  0  0  0  0
 16 13  1  1  0  0  0
 16 21  1  0  0  0  0
 17 18  1  6  0  0  0
 17 23  1  0  0  0  0
 18  8  1  0  0  0  0
 19 20  1  6  0  0  0
 19 25  1  0  0  0  0
 20  5  1  0  0  0  0
 21  3  1  6  0  0  0
 21 22  1  0  0  0  0
 21 27  1  0  0  0  0
 23 24  1  6  0  0  0
 23 29  1  0  0  0  0
 25 26  1  6  0  0  0
 25 31  1  0  0  0  0
 27  7  1  1  0  0  0
 27 28  1  0  0  0  0
 29 30  1  1  0  0  0
 29 33  1  0  0  0  0
 31 32  1  1  0  0  0
 31 35  1  0  0  0  0
 33 34  1  0  0  0  0
 33 37  1  1  0  0  0
 35 36  1  1  0  0  0
 37 38  1  0  0  0  0
M  END
>  <CHROM.1>
90.75251201,-76.63459717,157.82433137,153.90434465,89.61828893,-90.09346359
126.86730101,38.98061514,-60.60157974,-179.55151189,-178.79795911,19.11938961
23.83134161,0.08388548,1.87193341,1.11825124,0.49814616

>  <Name>
1nta_lig

>  <RI>
2.40834e+07

>  <Rbt.Current_Directory>
/home/itssahil/PROJECTS/Mol_Feturizer/New_Systems/rnas/1nta

>  <Rbt.Executable>
rbdock ($Id: //depot/dev/client3/rdock/2013.1/src/exe/rbdock.cxx#4 $)

>  <Rbt.Library>
libRbt.so (2013.1, Build901 2013/11/27)

>  <Rbt.Parameter_File>
/export/apps/rDock/src/rDock_2013.1_src/data/scripts/dock_solv.prm

>  <Rbt.Receptor>
prm/blind_docking_80.prm

>  <SCORE>
-9.62433

>  <SCORE.INTER>
1.03631

>  <SCORE.INTER.CONST>
1

>  <SCORE.INTER.POLAR>
0

>  <SCORE.INTER.ROT>
11

>  <SCORE.INTER.SOLV>
18.0379

>  <SCORE.INTER.VDW>
-16.2551

>  <SCORE.INTER.norm>
0.0259078

>  <SCORE.INTRA>
-10.7362

>  <SCORE.INTRA.DIHEDRAL>
-6.57422

>  <SCORE.INTRA.DIHEDRAL.0>
19.0336

>  <SCORE.INTRA.POLAR>
0

>  <SCORE.INTRA.POLAR.0>
0

>  <SCORE.INTRA.REPUL>
0

>  <SCORE.INTRA.REPUL.0>
0

>  <SCORE.INTRA.SOLV>
-1.81474

>  <SCORE.INTRA.SOLV.lig_0>
-97.5861

>  <SCORE.INTRA.VDW>
-6.5417

>  <SCORE.INTRA.VDW.0>
11.7669

>  <SCORE.INTRA.norm>
-0.268405

>  <SCORE.RESTR>
0.0755445

>  <SCORE.RESTR.CAVITY>
0.0755445

>  <SCORE.RESTR.norm>
0.00188861

>  <SCORE.SYSTEM>
0

>  <SCORE.SYSTEM.CONST>
0

>  <SCORE.SYSTEM.DIHEDRAL>
0

>  <SCORE.SYSTEM.SOLV>
0

>  <SCORE.SYSTEM.norm>
0

>  <SCORE.heavy>
40

>  <SCORE.norm>
-0.240608

>  <RMSD>
21.688

$$$$
1nta_lig
 OpenBabel11021811403D
libRbt.so/2013.1/901 2013/11/27
 40 42  0  0  0  0  0  0  0  0999 V2000
   20.9120   29.0091    2.5646 C   0  0  0  0  0  0  0  0  0  0  0  0
   21.9468   28.5039    3.1250 N   0  0  0  0  0  0  0  0  0  0  0  0
   18.5160   22.2396   -3.8398 C   0  0  0  0  0  0  0  0  0  0  0  0
   17.5005   21.5802   -3.8029 O   0  0  0  0  0  0  0  0  0  0  0  0
   17.0363   26.0848   -1.4947 C   0  0  0  0  0  0  0  0  0  0  0  0
   16.8526   24.9401   -2.0995 N   0  0  0  0  0  0  0  0  0  0  0  0
   21.8100   22.4433   -4.2516 C   0  0  0  0  0  0  0  0  0  0  0  0
   18.6131   18.1480   -2.6004 C   0  0  0  0  0  0  0  0  0  0  0  0
   20.7789   28.4577    0.2671 C   0  0  2  0  0  0  0  0  0  0  0  0
   21.0984   29.4798    1.3405 N   0  0  0  0  0  0  0  0  0  0  0  0
   20.2992   23.4642   -1.1587 C   0  0  2  0  0  0  0  0  0  0  0  0
   18.0279   20.7059   -0.7499 C   0  0  1  0  0  0  0  0  0  0  0  0
   19.1572   21.4944   -0.6067 O   0  0  0  0  0  0  0  0  0  0  0  0
   19.3686   27.8794    0.4902 C   0  0  1  0  0  0  0  0  0  0  0  0
   18.4650   28.9338    0.3500 O   0  0  0  0  0  0  0  0  0  0  0  0
   19.2514   22.4248   -1.5419 C   0  0  2  0  0  0  0  0  0  0  0  0
   18.2504   19.2190   -0.5819 C   0  0  1  0  0  0  0  0  0  0  0  0
   19.2698   18.8066   -1.4837 N   0  0  0  0  0  0  0  0  0  0  0  0
   18.9997   26.8195   -0.5563 C   0  0  2  0  0  0  0  0  0  0  0  0
   17.6492   26.2373   -0.3691 N   0  0  0  0  0  0  0  0  0  0  0  0
   19.6814   22.0793   -2.9007 C   0  0  1  0  0  0  0  0  0  0  0  0
   20.1615   20.7338   -2.8637 O   0  0  0  0  0  0  0  0  0  0  0  0
   18.6453   18.9159    0.7136 C   0  0  2  0  0  0  0  0  0  0  0  0
   18.5442   17.5235    0.8747 O   0  0  0  0  0  0  0  0  0  0  0  0
   20.0354   25.7085   -0.4870 C   0  0  1  0  0  0  0  0  0  0  0  0
   19.6917   24.7332   -1.4588 O   0  0  0  0  0  0  0  0  0  0  0  0
   20.7938   22.9591   -3.2803 C   0  0  1  0  0  0  0  0  0  0  0  0
   21.3894   23.3171   -2.0393 O   0  0  0  0  0  0  0  0  0  0  0  0
   17.7485   19.6035    1.7093 C   0  0  1  0  0  0  0  0  0  0  0  0
   18.3070   19.4799    2.9842 O   0  0  0  0  0  0  0  0  0  0  0  0
   21.4562   26.2811   -0.7560 C   0  0  2  0  0  0  0  0  0  0  0  0
   22.4115   25.2231   -0.6972 O   0  0  0  0  0  0  0  0  0  0  0  0
   17.6490   21.0541    1.3803 C   0  0  1  0  0  0  0  0  0  0  0  0
   17.0859   21.1662    0.1053 O   0  0  0  0  0  0  0  0  0  0  0  0
   21.7918   27.3338    0.3211 C   0  0  1  0  0  0  0  0  0  0  0  0
   23.1029   27.8748    0.0902 O   0  0  0  0  0  0  0  0  0  0  0  0
   16.7216   21.7904    2.3673 C   0  0  0  0  0  0  0  0  0  0  0  0
   17.4024   21.9698    3.6040 O   0  0  0  0  0  0  0  0  0  0  0  0
   19.7649   29.0630    3.1506 N   0  0  0  0  0  0  0  0  0  0  0  0
   16.6141   27.1606   -2.0338 N   0  0  0  0  0  0  0  0  0  0  0  0
  1  2  1  0  0  0  0
  1 39  1  0  0  0  0
  3  4  1  0  0  0  0
  5  6  1  0  0  0  0
  5 40  1  0  0  0  0
  9 10  1  1  0  0  0
  9 14  1  0  0  0  0
  9 35  1  0  0  0  0
 10  1  1  0  0  0  0
 11 16  1  0  0  0  0
 11 28  1  0  0  0  0
 11 26  1  6  0  0  0
 12 17  1  0  0  0  0
 12 34  1  0  0  0  0
 12 13  1  1  0  0  0
 14 15  1  6  0  0  0
 14 19  1  0  0  0  0
 16 13  1  1  0  0  0
 16 21  1  0  0  0  0
 17 18  1  6  0  0  0
 17 23  1  0  0  0  0
 18  8  1  0  0  0  0
 19 20  1  1  0  0  0
 19 25  1  0  0  0  0
 20  5  1  0  0  0  0
 21  3  1  6  0  0  0
 21 22  1  0  0  0  0
 21 27  1  0  0  0  0
 23 24  1  6  0  0  0
 23 29  1  0  0  0  0
 25 26  1  6  0  0  0
 25 31  1  0  0  0  0
 27  7  1  6  0  0  0
 27 28  1  0  0  0  0
 29 30  1  1  0  0  0
 29 33  1  0  0  0  0
 31 32  1  1  0  0  0
 31 35  1  0  0  0  0
 33 34  1  0  0  0  0
 33 37  1  1  0  0  0
 35 36  1  6  0  0  0
 37 38  1  0  0  0  0
M  END
>  <CHROM.1>
52.44773930,93.31664156,142.39361910,135.47298294,166.24798440,-102.71666164
138.98243438,105.36481079,-64.62602586,-159.44152253,75.47812181,19.32335816
23.71525330,-0.40844265,0.95356381,1.16114200,0.73957545

>  <Name>
1nta_lig

>  <RI>
9.25352e+06

>  <Rbt.Current_Directory>
/home/itssahil/PROJECTS/Mol_Feturizer/New_Systems/rnas/1nta

>  <Rbt.Executable>
rbdock ($Id: //depot/dev/client3/rdock/2013.1/src/exe/rbdock.cxx#4 $)

>  <Rbt.Library>
libRbt.so (2013.1, Build901 2013/11/27)

>  <Rbt.Parameter_File>
/export/apps/rDock/src/rDock_2013.1_src/data/scripts/dock_solv.prm

>  <Rbt.Receptor>
prm/blind_docking_40.prm

>  <SCORE>
-23.0054

>  <SCORE.INTER>
-7.64682

>  <SCORE.INTER.CONST>
1

>  <SCORE.INTER.POLAR>
0

>  <SCORE.INTER.ROT>
11

>  <SCORE.INTER.SOLV>
14.4127

>  <SCORE.INTER.VDW>
-20.8354

>  <SCORE.INTER.norm>
-0.19117

>  <SCORE.INTRA>
-16.0459

>  <SCORE.INTRA.DIHEDRAL>
-1.37297

>  <SCORE.INTRA.DIHEDRAL.0>
19.0336

>  <SCORE.INTRA.POLAR>
0

>  <SCORE.INTRA.POLAR.0>
0

>  <SCORE.INTRA.REPUL>
0

>  <SCORE.INTRA.REPUL.0>
0

>  <SCORE.INTRA.SOLV>
0.682005

>  <SCORE.INTRA.SOLV.lig_0>
-97.5861

>  <SCORE.INTRA.VDW>
-15.7004

>  <SCORE.INTRA.VDW.0>
11.7669

>  <SCORE.INTRA.norm>
-0.401147

>  <SCORE.RESTR>
0.687259

>  <SCORE.RESTR.CAVITY>
0.687259

>  <SCORE.RESTR.norm>
0.0171815

>  <SCORE.SYSTEM>
0

>  <SCORE.SYSTEM.CONST>
0

>  <SCORE.SYSTEM.DIHEDRAL>
0

>  <SCORE.SYSTEM.SOLV>
0

>  <SCORE.SYSTEM.norm>
0

>  <SCORE.heavy>
40

>  <SCORE.norm>
-0.575136

>  <RMSD>
21.705

$$$$
1nta_lig
 OpenBabel11021811403D
libRbt.so/2013.1/901 2013/11/27
 40 42  0  0  0  0  0  0  0  0999 V2000
   18.9686   27.7998   -1.1496 C   0  0  0  0  0  0  0  0  0  0  0  0
   20.0135   27.5022   -0.4716 N   0  0  0  0  0  0  0  0  0  0  0  0
   19.5988   19.5837   -3.6684 C   0  0  0  0  0  0  0  0  0  0  0  0
   19.6835   19.7104   -2.4668 O   0  0  0  0  0  0  0  0  0  0  0  0
   18.9959   21.8696    0.2041 C   0  0  0  0  0  0  0  0  0  0  0  0
   18.6422   20.6178    0.0714 N   0  0  0  0  0  0  0  0  0  0  0  0
   16.5427   18.5056   -4.4165 C   0  0  0  0  0  0  0  0  0  0  0  0
   18.6379   23.1617   -7.9969 C   0  0  0  0  0  0  0  0  0  0  0  0
   17.3641   26.0817   -0.8771 C   0  0  2  0  0  0  0  0  0  0  0  0
   17.8123   27.4989   -0.5777 N   0  0  0  0  0  0  0  0  0  0  0  0
   17.2053   22.0212   -4.1131 C   0  0  2  0  0  0  0  0  0  0  0  0
   20.2813   22.0496   -5.9912 C   0  0  1  0  0  0  0  0  0  0  0  0
   18.9477   22.2311   -5.6651 O   0  0  0  0  0  0  0  0  0  0  0  0
   18.5309   25.1003   -0.6572 C   0  0  1  0  0  0  0  0  0  0  0  0
   18.8677   25.1584    0.6960 O   0  0  0  0  0  0  0  0  0  0  0  0
   18.6058   21.6064   -4.5507 C   0  0  2  0  0  0  0  0  0  0  0  0
   20.7768   22.8618   -7.1675 C   0  0  1  0  0  0  0  0  0  0  0  0
   19.9437   22.5943   -8.2885 N   0  0  0  0  0  0  0  0  0  0  0  0
   18.1403   23.6494   -0.9688 C   0  0  2  0  0  0  0  0  0  0  0  0
   19.2420   22.6769   -0.7723 N   0  0  0  0  0  0  0  0  0  0  0  0
   18.4898   20.1448   -4.5175 C   0  0  1  0  0  0  0  0  0  0  0  0
   18.5603   19.6836   -5.8683 O   0  0  0  0  0  0  0  0  0  0  0  0
   20.7354   24.2209   -6.8894 C   0  0  2  0  0  0  0  0  0  0  0  0
   21.4731   24.8820   -7.8862 O   0  0  0  0  0  0  0  0  0  0  0  0
   17.6725   23.5874   -2.4142 C   0  0  1  0  0  0  0  0  0  0  0  0
   17.3093   22.2448   -2.6958 O   0  0  0  0  0  0  0  0  0  0  0  0
   17.1731   19.7895   -3.9736 C   0  0  1  0  0  0  0  0  0  0  0  0
   16.3561   20.9104   -4.2880 O   0  0  0  0  0  0  0  0  0  0  0  0
   21.3486   24.4993   -5.5422 C   0  0  1  0  0  0  0  0  0  0  0  0
   21.0791   25.8231   -5.1857 O   0  0  0  0  0  0  0  0  0  0  0  0
   16.4655   24.5441   -2.6296 C   0  0  2  0  0  0  0  0  0  0  0  0
   16.0349   24.4641   -3.9874 O   0  0  0  0  0  0  0  0  0  0  0  0
   20.7396   23.6049   -4.5167 C   0  0  1  0  0  0  0  0  0  0  0  0
   21.0183   22.2839   -4.8811 O   0  0  0  0  0  0  0  0  0  0  0  0
   16.9016   25.9906   -2.3158 C   0  0  1  0  0  0  0  0  0  0  0  0
   15.7989   26.8913   -2.5101 O   0  0  0  0  0  0  0  0  0  0  0  0
   21.3569   23.8461   -3.1249 C   0  0  0  0  0  0  0  0  0  0  0  0
   22.6951   24.3048   -3.2797 O   0  0  0  0  0  0  0  0  0  0  0  0
   19.0329   28.3508   -2.3135 N   0  0  0  0  0  0  0  0  0  0  0  0
   19.0951   22.3793    1.3689 N   0  0  0  0  0  0  0  0  0  0  0  0
  1  2  1  0  0  0  0
  1 39  1  0  0  0  0
  3  4  1  0  0  0  0
  5  6  1  0  0  0  0
  5 40  1  0  0  0  0
  9 10  1  6  0  0  0
  9 14  1  0  0  0  0
  9 35  1  0  0  0  0
 10  1  1  0  0  0  0
 11 16  1  0  0  0  0
 11 28  1  0  0  0  0
 11 26  1  1  0  0  0
 12 17  1  0  0  0  0
 12 34  1  0  0  0  0
 12 13  1  1  0  0  0
 14 15  1  1  0  0  0
 14 19  1  0  0  0  0
 16 13  1  6  0  0  0
 16 21  1  0  0  0  0
 17 18  1  6  0  0  0
 17 23  1  0  0  0  0
 18  8  1  0  0  0  0
 19 20  1  6  0  0  0
 19 25  1  0  0  0  0
 20  5  1  0  0  0  0
 21  3  1  1  0  0  0
 21 22  1  0  0  0  0
 21 27  1  0  0  0  0
 23 24  1  6  0  0  0
 23 29  1  0  0  0  0
 25 26  1  1  0  0  0
 25 31  1  0  0  0  0
 27  7  1  6  0  0  0
 27 28  1  0  0  0  0
 29 30  1  1  0  0  0
 29 33  1  0  0  0  0
 31 32  1  6  0  0  0
 31 35  1  0  0  0  0
 33 34  1  0  0  0  0
 33 37  1  1  0  0  0
 35 36  1  1  0  0  0
 37 38  1  0  0  0  0
M  END
>  <CHROM.1>
47.36022433,-87.42440151,89.10054732,-173.42258594,170.61621747,68.27730052
113.37327153,105.37907122,69.31736287,-164.29294041,-28.67546683,18.90811645
23.35442627,-3.43986147,-1.89200322,-1.11052417,-2.58998377

>  <Name>
1nta_lig

>  <RI>
1.05895e+07

>  <Rbt.Current_Directory>
/home/itssahil/PROJECTS/Mol_Feturizer/New_Systems/rnas/1nta

>  <Rbt.Executable>
rbdock ($Id: //depot/dev/client3/rdock/2013.1/src/exe/rbdock.cxx#4 $)

>  <Rbt.Library>
libRbt.so (2013.1, Build901 2013/11/27)

>  <Rbt.Parameter_File>
/export/apps/rDock/src/rDock_2013.1_src/data/scripts/dock_solv.prm

>  <Rbt.Receptor>
prm/blind_docking_100.prm

>  <SCORE>
-12.4648

>  <SCORE.INTER>
-10.2042

>  <SCORE.INTER.CONST>
1

>  <SCORE.INTER.POLAR>
-2.04561

>  <SCORE.INTER.ROT>
11

>  <SCORE.INTER.SOLV>
20.2369

>  <SCORE.INTER.VDW>
-17.6631

>  <SCORE.INTER.norm>
-0.255104

>  <SCORE.INTRA>
-3.62349

>  <SCORE.INTRA.DIHEDRAL>
-8.1623

>  <SCORE.INTRA.DIHEDRAL.0>
19.0336

>  <SCORE.INTRA.POLAR>
0

>  <SCORE.INTRA.POLAR.0>
0

>  <SCORE.INTRA.REPUL>
0

>  <SCORE.INTRA.REPUL.0>
0

>  <SCORE.INTRA.SOLV>
-0.0488143

>  <SCORE.INTRA.SOLV.lig_0>
-97.5861

>  <SCORE.INTRA.VDW>
0.482067

>  <SCORE.INTRA.VDW.0>
11.7669

>  <SCORE.INTRA.norm>
-0.0905873

>  <SCORE.RESTR>
1.36286

>  <SCORE.RESTR.CAVITY>
1.36286

>  <SCORE.RESTR.norm>
0.0340716

>  <SCORE.SYSTEM>
0

>  <SCORE.SYSTEM.CONST>
0

>  <SCORE.SYSTEM.DIHEDRAL>
0

>  <SCORE.SYSTEM.SOLV>
0

>  <SCORE.SYSTEM.norm>
0

>  <SCORE.heavy>
40

>  <SCORE.norm>
-0.31162

>  <RMSD>
21.748

$$$$
1nta_lig
 OpenBabel11021811403D
libRbt.so/2013.1/901 2013/11/27
 40 42  0  0  0  0  0  0  0  0999 V2000
   20.5188   31.0470    1.2986 C   0  0  0  0  0  0  0  0  0  0  0  0
   20.0355   30.9363    2.4793 N   0  0  0  0  0  0  0  0  0  0  0  0
   19.3811   22.6772   -3.8877 C   0  0  0  0  0  0  0  0  0  0  0  0
   19.7190   22.5403   -5.0428 O   0  0  0  0  0  0  0  0  0  0  0  0
   19.4948   24.9908    2.5847 C   0  0  0  0  0  0  0  0  0  0  0  0
   18.5399   25.8238    2.9071 N   0  0  0  0  0  0  0  0  0  0  0  0
   22.6085   23.3313   -3.4211 C   0  0  0  0  0  0  0  0  0  0  0  0
   19.1880   18.6277   -3.0191 C   0  0  0  0  0  0  0  0  0  0  0  0
   20.4393   28.8494    0.4238 C   0  0  2  0  0  0  0  0  0  0  0  0
   21.2657   30.0321    0.8901 N   0  0  0  0  0  0  0  0  0  0  0  0
   20.2622   23.7560   -0.7368 C   0  0  2  0  0  0  0  0  0  0  0  0
   18.2497   20.8283   -1.0629 C   0  0  1  0  0  0  0  0  0  0  0  0
   19.3294   21.6075   -0.6826 O   0  0  0  0  0  0  0  0  0  0  0  0
   20.7850   27.6010    1.2574 C   0  0  1  0  0  0  0  0  0  0  0  0
   20.4219   27.8741    2.5770 O   0  0  0  0  0  0  0  0  0  0  0  0
   19.5054   22.6546   -1.4711 C   0  0  2  0  0  0  0  0  0  0  0  0
   18.4545   19.3343   -0.9418 C   0  0  1  0  0  0  0  0  0  0  0  0
   19.6184   18.9736   -1.6748 N   0  0  0  0  0  0  0  0  0  0  0  0
   19.9931   26.3641    0.8124 C   0  0  2  0  0  0  0  0  0  0  0  0
   20.3045   25.1414    1.5910 N   0  0  0  0  0  0  0  0  0  0  0  0
   20.2966   22.5409   -2.7007 C   0  0  1  0  0  0  0  0  0  0  0  0
   20.9497   21.2703   -2.6680 O   0  0  0  0  0  0  0  0  0  0  0  0
   18.6223   18.9586    0.3837 C   0  0  2  0  0  0  0  0  0  0  0  0
   18.5087   17.5593    0.4471 O   0  0  0  0  0  0  0  0  0  0  0  0
   20.2990   26.1117   -0.6554 C   0  0  1  0  0  0  0  0  0  0  0  0
   19.5617   24.9696   -1.0624 O   0  0  0  0  0  0  0  0  0  0  0  0
   21.3229   23.5908   -2.6986 C   0  0  1  0  0  0  0  0  0  0  0  0
   21.5417   23.8567   -1.3186 O   0  0  0  0  0  0  0  0  0  0  0  0
   17.5602   19.5888    1.2457 C   0  0  1  0  0  0  0  0  0  0  0  0
   17.8909   19.3934    2.5891 O   0  0  0  0  0  0  0  0  0  0  0  0
   19.9097   27.3539   -1.5064 C   0  0  2  0  0  0  0  0  0  0  0  0
   20.1940   27.0941   -2.8801 O   0  0  0  0  0  0  0  0  0  0  0  0
   17.5047   21.0557    0.9856 C   0  0  1  0  0  0  0  0  0  0  0  0
   17.1695   21.2395   -0.3595 O   0  0  0  0  0  0  0  0  0  0  0  0
   20.7330   28.5708   -1.0350 C   0  0  1  0  0  0  0  0  0  0  0  0
   20.3880   29.7301   -1.8109 O   0  0  0  0  0  0  0  0  0  0  0  0
   16.4134   21.7349    1.8364 C   0  0  0  0  0  0  0  0  0  0  0  0
   16.9267   21.9901    3.1389 O   0  0  0  0  0  0  0  0  0  0  0  0
   20.3000   32.0775    0.5553 N   0  0  0  0  0  0  0  0  0  0  0  0
   19.6913   23.9483    3.2927 N   0  0  0  0  0  0  0  0  0  0  0  0
  1  2  1  0  0  0  0
  1 39  1  0  0  0  0
  3  4  1  0  0  0  0
  5  6  1  0  0  0  0
  5 40  1  0  0  0  0
  9 10  1  1  0  0  0
  9 14  1  0  0  0  0
  9 35  1  0  0  0  0
 10  1  1  0  0  0  0
 11 16  1  0  0  0  0
 11 28  1  0  0  0  0
 11 26  1  6  0  0  0
 12 17  1  0  0  0  0
 12 34  1  0  0  0  0
 12 13  1  1  0  0  0
 14 15  1  1  0  0  0
 14 19  1  0  0  0  0
 16 13  1  1  0  0  0
 16 21  1  0  0  0  0
 17 18  1  6  0  0  0
 17 23  1  0  0  0  0
 18  8  1  0  0  0  0
 19 20  1  1  0  0  0
 19 25  1  0  0  0  0
 20  5  1  0  0  0  0
 21  3  1  6  0  0  0
 21 22  1  0  0  0  0
 21 27  1  0  0  0  0
 23 24  1  6  0  0  0
 23 29  1  0  0  0  0
 25 26  1  6  0  0  0
 25 31  1  0  0  0  0
 27  7  1  1  0  0  0
 27 28  1  0  0  0  0
 29 30  1  1  0  0  0
 29 33  1  0  0  0  0
 31 32  1  6  0  0  0
 31 35  1  0  0  0  0
 33 34  1  0  0  0  0
 33 37  1  1  0  0  0
 35 36  1  6  0  0  0
 37 38  1  0  0  0  0
M  END
>  <CHROM.1>
-121.15451239,79.24206511,-168.90364250,140.83577355,156.18063415,-91.68027159
93.06909342,-2.07390813,-174.88807613,-84.11577598,82.41101392,19.59043130
24.09000431,-0.25522256,1.09138187,1.15000324,0.56261031

>  <Name>
1nta_lig

>  <RI>
2.40834e+07

>  <Rbt.Current_Directory>
/home/itssahil/PROJECTS/Mol_Feturizer/New_Systems/rnas/1nta

>  <Rbt.Executable>
rbdock ($Id: //depot/dev/client3/rdock/2013.1/src/exe/rbdock.cxx#4 $)

>  <Rbt.Library>
libRbt.so (2013.1, Build901 2013/11/27)

>  <Rbt.Parameter_File>
/export/apps/rDock/src/rDock_2013.1_src/data/scripts/dock_solv.prm

>  <Rbt.Receptor>
prm/blind_docking_80.prm

>  <SCORE>
-20.813

>  <SCORE.INTER>
-4.61836

>  <SCORE.INTER.CONST>
1

>  <SCORE.INTER.POLAR>
-0.738085

>  <SCORE.INTER.ROT>
11

>  <SCORE.INTER.SOLV>
13.6242

>  <SCORE.INTER.VDW>
-16.0934

>  <SCORE.INTER.norm>
-0.115459

>  <SCORE.INTRA>
-18.9374

>  <SCORE.INTRA.DIHEDRAL>
-2.79298

>  <SCORE.INTRA.DIHEDRAL.0>
19.0336

>  <SCORE.INTRA.POLAR>
0

>  <SCORE.INTRA.POLAR.0>
0

>  <SCORE.INTRA.REPUL>
0

>  <SCORE.INTRA.REPUL.0>
0

>  <SCORE.INTRA.SOLV>
-2.60953

>  <SCORE.INTRA.SOLV.lig_0>
-97.5861

>  <SCORE.INTRA.VDW>
-16.2362

>  <SCORE.INTRA.VDW.0>
11.7669

>  <SCORE.INTRA.norm>
-0.473436

>  <SCORE.RESTR>
2.74282

>  <SCORE.RESTR.CAVITY>
2.74282

>  <SCORE.RESTR.norm>
0.0685706

>  <SCORE.SYSTEM>
0

>  <SCORE.SYSTEM.CONST>
0

>  <SCORE.SYSTEM.DIHEDRAL>
0

>  <SCORE.SYSTEM.SOLV>
0

>  <SCORE.SYSTEM.norm>
0

>  <SCORE.heavy>
40

>  <SCORE.norm>
-0.520324

>  <RMSD>
21.767

$$$$
1nta_lig
 OpenBabel11021811403D
libRbt.so/2013.1/901 2013/11/27
 40 42  0  0  0  0  0  0  0  0999 V2000
   19.6245   30.3585    1.9630 C   0  0  0  0  0  0  0  0  0  0  0  0
   19.9929   31.3991    1.3136 N   0  0  0  0  0  0  0  0  0  0  0  0
   18.9650   22.2280   -0.9830 C   0  0  0  0  0  0  0  0  0  0  0  0
   19.1504   21.0940   -1.3664 O   0  0  0  0  0  0  0  0  0  0  0  0
   19.3663   24.4902    2.2532 C   0  0  0  0  0  0  0  0  0  0  0  0
   18.9993   24.8958    3.4409 N   0  0  0  0  0  0  0  0  0  0  0  0
   16.6752   24.6308   -0.7717 C   0  0  0  0  0  0  0  0  0  0  0  0
   22.7743   20.6495   -3.0854 C   0  0  0  0  0  0  0  0  0  0  0  0
   18.7086   28.5753    0.7052 C   0  0  2  0  0  0  0  0  0  0  0  0
   18.4889   29.8074    1.5612 N   0  0  0  0  0  0  0  0  0  0  0  0
   19.8596   25.2849   -2.2958 C   0  0  2  0  0  0  0  0  0  0  0  0
   21.1701   23.5213   -4.3924 C   0  0  1  0  0  0  0  0  0  0  0  0
   19.8669   23.6086   -3.9326 O   0  0  0  0  0  0  0  0  0  0  0  0
   19.3455   27.4532    1.5469 C   0  0  1  0  0  0  0  0  0  0  0  0
   18.4284   27.1156    2.5433 O   0  0  0  0  0  0  0  0  0  0  0  0
   19.7991   23.7973   -2.6253 C   0  0  2  0  0  0  0  0  0  0  0  0
   21.7167   22.1172   -4.5277 C   0  0  1  0  0  0  0  0  0  0  0  0
   21.5785   21.4526   -3.2781 N   0  0  0  0  0  0  0  0  0  0  0  0
   19.6129   26.1860    0.7238 C   0  0  2  0  0  0  0  0  0  0  0  0
   20.2306   25.0855    1.5019 N   0  0  0  0  0  0  0  0  0  0  0  0
   18.6091   23.3900   -1.8711 C   0  0  1  0  0  0  0  0  0  0  0  0
   17.5999   23.0497   -2.8238 O   0  0  0  0  0  0  0  0  0  0  0  0
   21.0258   21.4030   -5.4966 C   0  0  2  0  0  0  0  0  0  0  0  0
   21.7625   20.2387   -5.7735 O   0  0  0  0  0  0  0  0  0  0  0  0
   20.5317   26.5581   -0.4291 C   0  0  1  0  0  0  0  0  0  0  0  0
   20.7727   25.3839   -1.1886 O   0  0  0  0  0  0  0  0  0  0  0  0
   18.1367   24.5352   -1.0831 C   0  0  1  0  0  0  0  0  0  0  0  0
   18.5923   25.6677   -1.8130 O   0  0  0  0  0  0  0  0  0  0  0  0
   20.8888   22.2219   -6.7533 C   0  0  1  0  0  0  0  0  0  0  0  0
   19.9927   21.5842   -7.6151 O   0  0  0  0  0  0  0  0  0  0  0  0
   19.8726   27.6596   -1.3072 C   0  0  2  0  0  0  0  0  0  0  0  0
   20.7441   27.9873   -2.3880 O   0  0  0  0  0  0  0  0  0  0  0  0
   20.3411   23.5679   -6.4206 C   0  0  1  0  0  0  0  0  0  0  0  0
   21.2467   24.1981   -5.5615 O   0  0  0  0  0  0  0  0  0  0  0  0
   19.6296   28.9172   -0.4467 C   0  0  1  0  0  0  0  0  0  0  0  0
   19.0212   29.9484   -1.2413 O   0  0  0  0  0  0  0  0  0  0  0  0
   20.2048   24.4448   -7.6811 C   0  0  0  0  0  0  0  0  0  0  0  0
   21.4834   24.5942   -8.2876 O   0  0  0  0  0  0  0  0  0  0  0  0
   20.3072   29.8788    2.9458 N   0  0  0  0  0  0  0  0  0  0  0  0
   18.8750   23.4167    1.7710 N   0  0  0  0  0  0  0  0  0  0  0  0
  1  2  1  0  0  0  0
  1 39  1  0  0  0  0
  3  4  1  0  0  0  0
  5  6  1  0  0  0  0
  5 40  1  0  0  0  0
  9 10  1  1  0  0  0
  9 14  1  0  0  0  0
  9 35  1  0  0  0  0
 10  1  1  0  0  0  0
 11 16  1  0  0  0  0
 11 28  1  0  0  0  0
 11 26  1  1  0  0  0
 12 17  1  0  0  0  0
 12 34  1  0  0  0  0
 12 13  1  6  0  0  0
 14 15  1  1  0  0  0
 14 19  1  0  0  0  0
 16 13  1  6  0  0  0
 16 21  1  0  0  0  0
 17 18  1  1  0  0  0
 17 23  1  0  0  0  0
 18  8  1  0  0  0  0
 19 20  1  1  0  0  0
 19 25  1  0  0  0  0
 20  5  1  0  0  0  0
 21  3  1  1  0  0  0
 21 22  1  0  0  0  0
 21 27  1  0  0  0  0
 23 24  1  6  0  0  0
 23 29  1  0  0  0  0
 25 26  1  6  0  0  0
 25 31  1  0  0  0  0
 27  7  1  6  0  0  0
 27 28  1  0  0  0  0
 29 30  1  6  0  0  0
 29 33  1  0  0  0  0
 31 32  1  6  0  0  0
 31 35  1  0  0  0  0
 33 34  1  0  0  0  0
 33 37  1  6  0  0  0
 35 36  1  6  0  0  0
 37 38  1  0  0  0  0
M  END
>  <CHROM.1>
66.23311023,101.52730174,-155.97825323,95.11001973,87.39301795,-141.04604487
76.60055366,-83.81528339,-74.01690145,94.69746946,-59.23841067,19.85176263
25.02510118,-1.89215884,-2.37871356,-1.34048827,-3.06895937

>  <Name>
1nta_lig

>  <RI>
1.05895e+07

>  <Rbt.Current_Directory>
/home/itssahil/PROJECTS/Mol_Feturizer/New_Systems/rnas/1nta

>  <Rbt.Executable>
rbdock ($Id: //depot/dev/client3/rdock/2013.1/src/exe/rbdock.cxx#4 $)

>  <Rbt.Library>
libRbt.so (2013.1, Build901 2013/11/27)

>  <Rbt.Parameter_File>
/export/apps/rDock/src/rDock_2013.1_src/data/scripts/dock_solv.prm

>  <Rbt.Receptor>
prm/blind_docking_100.prm

>  <SCORE>
-1.78343

>  <SCORE.INTER>
1.28505

>  <SCORE.INTER.CONST>
1

>  <SCORE.INTER.POLAR>
-0.210425

>  <SCORE.INTER.ROT>
11

>  <SCORE.INTER.SOLV>
10.9585

>  <SCORE.INTER.VDW>
-13.0281

>  <SCORE.INTER.norm>
0.0321262

>  <SCORE.INTRA>
-4.27047

>  <SCORE.INTRA.DIHEDRAL>
-1.42743

>  <SCORE.INTRA.DIHEDRAL.0>
19.0336

>  <SCORE.INTRA.POLAR>
0

>  <SCORE.INTRA.POLAR.0>
0

>  <SCORE.INTRA.REPUL>
0

>  <SCORE.INTRA.REPUL.0>
0

>  <SCORE.INTRA.SOLV>
2.93138

>  <SCORE.INTRA.SOLV.lig_0>
-97.5861

>  <SCORE.INTRA.VDW>
-5.02244

>  <SCORE.INTRA.VDW.0>
11.7669

>  <SCORE.INTRA.norm>
-0.106762

>  <SCORE.RESTR>
1.20199

>  <SCORE.RESTR.CAVITY>
1.20199

>  <SCORE.RESTR.norm>
0.0300499

>  <SCORE.SYSTEM>
0

>  <SCORE.SYSTEM.CONST>
0

>  <SCORE.SYSTEM.DIHEDRAL>
0

>  <SCORE.SYSTEM.SOLV>
0

>  <SCORE.SYSTEM.norm>
0

>  <SCORE.heavy>
40

>  <SCORE.norm>
-0.0445857

>  <RMSD>
21.791

$$$$
1nta_lig
 OpenBabel11021811403D
libRbt.so/2013.1/901 2013/11/27
 40 42  0  0  0  0  0  0  0  0999 V2000
   20.6233   30.2572    0.5452 C   0  0  0  0  0  0  0  0  0  0  0  0
   19.5094   30.6394    1.0484 N   0  0  0  0  0  0  0  0  0  0  0  0
   20.0386   22.3289   -5.5187 C   0  0  0  0  0  0  0  0  0  0  0  0
   20.2911   22.1572   -6.6909 O   0  0  0  0  0  0  0  0  0  0  0  0
   17.7674   27.2029   -3.0435 C   0  0  0  0  0  0  0  0  0  0  0  0
   17.9671   27.6935   -4.2391 N   0  0  0  0  0  0  0  0  0  0  0  0
   23.3480   22.5740   -5.2965 C   0  0  0  0  0  0  0  0  0  0  0  0
   18.7768   18.1983   -3.9037 C   0  0  0  0  0  0  0  0  0  0  0  0
   21.1140   28.1331   -0.3755 C   0  0  2  0  0  0  0  0  0  0  0  0
   20.9919   29.0213    0.8472 N   0  0  0  0  0  0  0  0  0  0  0  0
   21.2719   23.4080   -2.4884 C   0  0  2  0  0  0  0  0  0  0  0  0
   18.7857   20.9210   -2.3793 C   0  0  1  0  0  0  0  0  0  0  0  0
   20.0789   21.4036   -2.2689 O   0  0  0  0  0  0  0  0  0  0  0  0
   19.7195   27.6583   -0.8259 C   0  0  1  0  0  0  0  0  0  0  0  0
   18.9996   28.7938   -1.2005 O   0  0  0  0  0  0  0  0  0  0  0  0
   20.3305   22.3865   -3.1173 C   0  0  2  0  0  0  0  0  0  0  0  0
   18.5983   19.4734   -1.9816 C   0  0  1  0  0  0  0  0  0  0  0  0
   19.5000   18.6737   -2.7363 N   0  0  0  0  0  0  0  0  0  0  0  0
   19.7841   26.7342   -2.0493 C   0  0  2  0  0  0  0  0  0  0  0  0
   18.4586   26.2537   -2.5078 N   0  0  0  0  0  0  0  0  0  0  0  0
   21.0113   22.1216   -4.3889 C   0  0  1  0  0  0  0  0  0  0  0  0
   21.4977   20.7789   -4.3372 O   0  0  0  0  0  0  0  0  0  0  0  0
   18.8553   19.2891   -0.6302 C   0  0  2  0  0  0  0  0  0  0  0  0
   18.3816   18.0140   -0.2769 O   0  0  0  0  0  0  0  0  0  0  0  0
   20.6513   25.5378   -1.6908 C   0  0  1  0  0  0  0  0  0  0  0  0
   20.7105   24.6887   -2.8263 O   0  0  0  0  0  0  0  0  0  0  0  0
   22.1607   23.0278   -4.5050 C   0  0  1  0  0  0  0  0  0  0  0  0
   22.5091   23.3175   -3.1568 O   0  0  0  0  0  0  0  0  0  0  0  0
   18.1419   20.3344    0.1864 C   0  0  1  0  0  0  0  0  0  0  0  0
   18.6049   20.2755    1.5034 O   0  0  0  0  0  0  0  0  0  0  0  0
   22.0744   26.0104   -1.2782 C   0  0  2  0  0  0  0  0  0  0  0  0
   22.8751   24.8744   -0.9561 O   0  0  0  0  0  0  0  0  0  0  0  0
   18.4434   21.6899   -0.3558 C   0  0  1  0  0  0  0  0  0  0  0  0
   17.9728   21.7390   -1.6717 O   0  0  0  0  0  0  0  0  0  0  0  0
   21.9665   26.9273   -0.0418 C   0  0  1  0  0  0  0  0  0  0  0  0
   23.2729   27.3743    0.3561 O   0  0  0  0  0  0  0  0  0  0  0  0
   17.7137   22.7881    0.4429 C   0  0  0  0  0  0  0  0  0  0  0  0
   16.3315   22.4614    0.5324 O   0  0  0  0  0  0  0  0  0  0  0  0
   21.3437   31.0223   -0.2018 N   0  0  0  0  0  0  0  0  0  0  0  0
   16.8444   27.6853   -2.3074 N   0  0  0  0  0  0  0  0  0  0  0  0
  1  2  1  0  0  0  0
  1 39  1  0  0  0  0
  3  4  1  0  0  0  0
  5  6  1  0  0  0  0
  5 40  1  0  0  0  0
  9 10  1  1  0  0  0
  9 14  1  0  0  0  0
  9 35  1  0  0  0  0
 10  1  1  0  0  0  0
 11 16  1  0  0  0  0
 11 28  1  0  0  0  0
 11 26  1  6  0  0  0
 12 17  1  0  0  0  0
 12 34  1  0  0  0  0
 12 13  1  1  0  0  0
 14 15  1  6  0  0  0
 14 19  1  0  0  0  0
 16 13  1  1  0  0  0
 16 21  1  0  0  0  0
 17 18  1  6  0  0  0
 17 23  1  0  0  0  0
 18  8  1  0  0  0  0
 19 20  1  1  0  0  0
 19 25  1  0  0  0  0
 20  5  1  0  0  0  0
 21  3  1  6  0  0  0
 21 22  1  0  0  0  0
 21 27  1  0  0  0  0
 23 24  1  1  0  0  0
 23 29  1  0  0  0  0
 25 26  1  6  0  0  0
 25 31  1  0  0  0  0
 27  7  1  1  0  0  0
 27 28  1  0  0  0  0
 29 30  1  1  0  0  0
 29 33  1  0  0  0  0
 31 32  1  1  0  0  0
 31 35  1  0  0  0  0
 33 34  1  0  0  0  0
 33 37  1  1  0  0  0
 35 36  1  6  0  0  0
 37 38  1  0  0  0  0
M  END
>  <CHROM.1>
-79.14826199,118.37986218,132.76493556,152.29501353,144.98843270,-94.37981305
70.51730079,75.78883618,-178.18427387,-167.86045277,-51.50309076,19.93895821
24.03759684,-1.85126261,1.37508235,0.91346136,0.36190234

>  <Name>
1nta_lig

>  <RI>
1.05895e+07

>  <Rbt.Current_Directory>
/home/itssahil/PROJECTS/Mol_Feturizer/New_Systems/rnas/1nta

>  <Rbt.Executable>
rbdock ($Id: //depot/dev/client3/rdock/2013.1/src/exe/rbdock.cxx#4 $)

>  <Rbt.Library>
libRbt.so (2013.1, Build901 2013/11/27)

>  <Rbt.Parameter_File>
/export/apps/rDock/src/rDock_2013.1_src/data/scripts/dock_solv.prm

>  <Rbt.Receptor>
prm/blind_docking_100.prm

>  <SCORE>
-29.1441

>  <SCORE.INTER>
-12.2298

>  <SCORE.INTER.CONST>
1

>  <SCORE.INTER.POLAR>
-0.439462

>  <SCORE.INTER.ROT>
11

>  <SCORE.INTER.SOLV>
21.7826

>  <SCORE.INTER.VDW>
-24.8825

>  <SCORE.INTER.norm>
-0.305745

>  <SCORE.INTRA>
-17.9977

>  <SCORE.INTRA.DIHEDRAL>
-1.7658

>  <SCORE.INTRA.DIHEDRAL.0>
19.0336

>  <SCORE.INTRA.POLAR>
0

>  <SCORE.INTRA.POLAR.0>
0

>  <SCORE.INTRA.REPUL>
0

>  <SCORE.INTRA.REPUL.0>
0

>  <SCORE.INTRA.SOLV>
-4.15402

>  <SCORE.INTRA.SOLV.lig_0>
-97.5861

>  <SCORE.INTRA.VDW>
-15.0378

>  <SCORE.INTRA.VDW.0>
11.7669

>  <SCORE.INTRA.norm>
-0.449944

>  <SCORE.RESTR>
1.08347

>  <SCORE.RESTR.CAVITY>
1.08347

>  <SCORE.RESTR.norm>
0.0270867

>  <SCORE.SYSTEM>
0

>  <SCORE.SYSTEM.CONST>
0

>  <SCORE.SYSTEM.DIHEDRAL>
0

>  <SCORE.SYSTEM.SOLV>
0

>  <SCORE.SYSTEM.norm>
0

>  <SCORE.heavy>
40

>  <SCORE.norm>
-0.728602

>  <RMSD>
22.076

$$$$
1nta_lig
 OpenBabel11021811403D
libRbt.so/2013.1/901 2013/11/27
 40 42  0  0  0  0  0  0  0  0999 V2000
   20.5766   29.3439    1.4870 C   0  0  0  0  0  0  0  0  0  0  0  0
   21.4257   29.2114    2.4366 N   0  0  0  0  0  0  0  0  0  0  0  0
   18.9719   19.4354    1.0696 C   0  0  0  0  0  0  0  0  0  0  0  0
   19.5907   18.5449    0.5298 O   0  0  0  0  0  0  0  0  0  0  0  0
   17.5175   25.4306   -1.8203 C   0  0  0  0  0  0  0  0  0  0  0  0
   17.3203   26.3869   -2.6900 N   0  0  0  0  0  0  0  0  0  0  0  0
   16.1279   20.7685    2.1631 C   0  0  0  0  0  0  0  0  0  0  0  0
   16.9362   17.4384   -3.9990 C   0  0  0  0  0  0  0  0  0  0  0  0
   19.8340   27.1136    1.2136 C   0  0  2  0  0  0  0  0  0  0  0  0
   19.5145   28.5554    1.5571 N   0  0  0  0  0  0  0  0  0  0  0  0
   18.0689   22.4406   -0.3522 C   0  0  2  0  0  0  0  0  0  0  0  0
   18.9087   19.6511   -2.4413 C   0  0  1  0  0  0  0  0  0  0  0  0
   18.1975   20.7341   -1.9525 O   0  0  0  0  0  0  0  0  0  0  0  0
   19.0765   26.6929   -0.0600 C   0  0  1  0  0  0  0  0  0  0  0  0
   19.5516   27.4893   -1.1030 O   0  0  0  0  0  0  0  0  0  0  0  0
   18.5029   21.0202   -0.6978 C   0  0  2  0  0  0  0  0  0  0  0  0
   18.4763   19.1537   -3.8030 C   0  0  1  0  0  0  0  0  0  0  0  0
   17.0846   18.8644   -3.7611 N   0  0  0  0  0  0  0  0  0  0  0  0
   19.3445   25.2312   -0.4429 C   0  0  2  0  0  0  0  0  0  0  0  0
   18.6269   24.7902   -1.6630 N   0  0  0  0  0  0  0  0  0  0  0  0
   17.9048   20.2660    0.4086 C   0  0  1  0  0  0  0  0  0  0  0  0
   16.8610   19.4609   -0.1432 O   0  0  0  0  0  0  0  0  0  0  0  0
   18.7084   20.1102   -4.7815 C   0  0  2  0  0  0  0  0  0  0  0  0
   18.5668   19.4836   -6.0314 O   0  0  0  0  0  0  0  0  0  0  0  0
   18.9261   24.3536    0.7261 C   0  0  1  0  0  0  0  0  0  0  0  0
   19.1793   23.0040    0.3682 O   0  0  0  0  0  0  0  0  0  0  0  0
   17.3076   21.2150    1.3564 C   0  0  1  0  0  0  0  0  0  0  0  0
   16.9972   22.3506    0.5582 O   0  0  0  0  0  0  0  0  0  0  0  0
   20.1028   20.6646   -4.6523 C   0  0  1  0  0  0  0  0  0  0  0  0
   20.2260   21.7814   -5.4829 O   0  0  0  0  0  0  0  0  0  0  0  0
   19.7213   24.7459    2.0038 C   0  0  2  0  0  0  0  0  0  0  0  0
   19.3227   23.9055    3.0856 O   0  0  0  0  0  0  0  0  0  0  0  0
   20.3447   21.0977   -3.2464 C   0  0  1  0  0  0  0  0  0  0  0  0
   20.2228   19.9726   -2.4250 O   0  0  0  0  0  0  0  0  0  0  0  0
   19.4174   26.2163    2.3597 C   0  0  1  0  0  0  0  0  0  0  0  0
   20.1430   26.5981    3.5397 O   0  0  0  0  0  0  0  0  0  0  0  0
   21.7714   21.6538   -3.0688 C   0  0  0  0  0  0  0  0  0  0  0  0
   21.8600   22.9255   -3.7012 O   0  0  0  0  0  0  0  0  0  0  0  0
   20.7425   30.1835    0.5228 N   0  0  0  0  0  0  0  0  0  0  0  0
   16.5756   25.0879   -1.0317 N   0  0  0  0  0  0  0  0  0  0  0  0
  1  2  1  0  0  0  0
  1 39  1  0  0  0  0
  3  4  1  0  0  0  0
  5  6  1  0  0  0  0
  5 40  1  0  0  0  0
  9 10  1  1  0  0  0
  9 14  1  0  0  0  0
  9 35  1  0  0  0  0
 10  1  1  0  0  0  0
 11 16  1  0  0  0  0
 11 28  1  0  0  0  0
 11 26  1  1  0  0  0
 12 17  1  0  0  0  0
 12 34  1  0  0  0  0
 12 13  1  6  0  0  0
 14 15  1  6  0  0  0
 14 19  1  0  0  0  0
 16 13  1  6  0  0  0
 16 21  1  0  0  0  0
 17 18  1  1  0  0  0
 17 23  1  0  0  0  0
 18  8  1  0  0  0  0
 19 20  1  6  0  0  0
 19 25  1  0  0  0  0
 20  5  1  0  0  0  0
 21  3  1  1  0  0  0
 21 22  1  0  0  0  0
 21 27  1  0  0  0  0
 23 24  1  6  0  0  0
 23 29  1  0  0  0  0
 25 26  1  6  0  0  0
 25 31  1  0  0  0  0
 27  7  1  6  0  0  0
 27 28  1  0  0  0  0
 29 30  1  6  0  0  0
 29 33  1  0  0  0  0
 31 32  1  1  0  0  0
 31 35  1  0  0  0  0
 33 34  1  0  0  0  0
 33 37  1  6  0  0  0
 35 36  1  1  0  0  0
 37 38  1  0  0  0  0
M  END
>  <CHROM.1>
-116.06732495,-73.53608453,178.40131686,172.09513581,161.50117311,-116.56386799
-29.31476078,104.54423479,-62.91839752,-86.31546498,72.20368440,18.96750263
23.03300687,-0.86354496,-1.19161101,-1.20814788,-2.28223130

>  <Name>
1nta_lig

>  <RI>
1.05895e+07

>  <Rbt.Current_Directory>
/home/itssahil/PROJECTS/Mol_Feturizer/New_Systems/rnas/1nta

>  <Rbt.Executable>
rbdock ($Id: //depot/dev/client3/rdock/2013.1/src/exe/rbdock.cxx#4 $)

>  <Rbt.Library>
libRbt.so (2013.1, Build901 2013/11/27)

>  <Rbt.Parameter_File>
/export/apps/rDock/src/rDock_2013.1_src/data/scripts/dock_solv.prm

>  <Rbt.Receptor>
prm/blind_docking_100.prm

>  <SCORE>
-23.5047

>  <SCORE.INTER>
-4.93112

>  <SCORE.INTER.CONST>
1

>  <SCORE.INTER.POLAR>
0

>  <SCORE.INTER.ROT>
11

>  <SCORE.INTER.SOLV>
12.7656

>  <SCORE.INTER.VDW>
-18.4759

>  <SCORE.INTER.norm>
-0.123278

>  <SCORE.INTRA>
-19.35

>  <SCORE.INTRA.DIHEDRAL>
-9.24279

>  <SCORE.INTRA.DIHEDRAL.0>
19.0336

>  <SCORE.INTRA.POLAR>
0

>  <SCORE.INTRA.POLAR.0>
0

>  <SCORE.INTRA.REPUL>
0

>  <SCORE.INTRA.REPUL.0>
0

>  <SCORE.INTRA.SOLV>
-0.883848

>  <SCORE.INTRA.SOLV.lig_0>
-97.5861

>  <SCORE.INTRA.VDW>
-14.2866

>  <SCORE.INTRA.VDW.0>
11.7669

>  <SCORE.INTRA.norm>
-0.483749

>  <SCORE.RESTR>
0.776367

>  <SCORE.RESTR.CAVITY>
0.776367

>  <SCORE.RESTR.norm>
0.0194092

>  <SCORE.SYSTEM>
0

>  <SCORE.SYSTEM.CONST>
0

>  <SCORE.SYSTEM.DIHEDRAL>
0

>  <SCORE.SYSTEM.SOLV>
0

>  <SCORE.SYSTEM.norm>
0

>  <SCORE.heavy>
40

>  <SCORE.norm>
-0.587618

>  <RMSD>
22.099

$$$$
1nta_lig
 OpenBabel11021811403D
libRbt.so/2013.1/901 2013/11/27
 40 42  0  0  0  0  0  0  0  0999 V2000
   20.5500   26.4356    4.0507 C   0  0  0  0  0  0  0  0  0  0  0  0
   20.4127   27.7068    3.9776 N   0  0  0  0  0  0  0  0  0  0  0  0
   21.2237   24.4936   -4.5072 C   0  0  0  0  0  0  0  0  0  0  0  0
   21.0662   24.2850   -5.6900 O   0  0  0  0  0  0  0  0  0  0  0  0
   20.6385   27.6732   -1.3018 C   0  0  0  0  0  0  0  0  0  0  0  0
   21.8500   27.2268   -1.0949 N   0  0  0  0  0  0  0  0  0  0  0  0
   22.9165   23.9881   -1.6894 C   0  0  0  0  0  0  0  0  0  0  0  0
   17.9303   22.8197   -7.3829 C   0  0  0  0  0  0  0  0  0  0  0  0
   19.6794   25.1995    2.2301 C   0  0  2  0  0  0  0  0  0  0  0  0
   19.5095   25.7248    3.6422 N   0  0  0  0  0  0  0  0  0  0  0  0
   19.4373   23.1266   -1.8978 C   0  0  2  0  0  0  0  0  0  0  0  0
   18.2140   21.5532   -4.2554 C   0  0  1  0  0  0  0  0  0  0  0  0
   19.4952   21.6907   -3.7483 O   0  0  0  0  0  0  0  0  0  0  0  0
   19.5495   26.3530    1.2174 C   0  0  1  0  0  0  0  0  0  0  0  0
   20.5990   27.2388    1.4662 O   0  0  0  0  0  0  0  0  0  0  0  0
   19.7650   22.9302   -3.3741 C   0  0  2  0  0  0  0  0  0  0  0  0
   18.1330   21.2157   -5.7279 C   0  0  1  0  0  0  0  0  0  0  0  0
   18.8617   22.1933   -6.4597 N   0  0  0  0  0  0  0  0  0  0  0  0
   19.6899   25.8746   -0.2339 C   0  0  2  0  0  0  0  0  0  0  0  0
   19.5653   26.9592   -1.2370 N   0  0  0  0  0  0  0  0  0  0  0  0
   21.1366   23.4467   -3.4291 C   0  0  1  0  0  0  0  0  0  0  0  0
   21.9974   22.3357   -3.6871 O   0  0  0  0  0  0  0  0  0  0  0  0
   18.6752   19.9642   -5.9844 C   0  0  2  0  0  0  0  0  0  0  0  0
   18.3031   19.5982   -7.2892 O   0  0  0  0  0  0  0  0  0  0  0  0
   18.6148   24.8309   -0.4921 C   0  0  1  0  0  0  0  0  0  0  0  0
   18.7514   24.3895   -1.8338 O   0  0  0  0  0  0  0  0  0  0  0  0
   21.4816   24.0066   -2.1164 C   0  0  1  0  0  0  0  0  0  0  0  0
   20.6549   23.2899   -1.2076 O   0  0  0  0  0  0  0  0  0  0  0  0
   18.1408   18.9509   -5.0065 C   0  0  1  0  0  0  0  0  0  0  0  0
   18.8756   17.7689   -5.1306 O   0  0  0  0  0  0  0  0  0  0  0  0
   18.7700   23.6432    0.4998 C   0  0  2  0  0  0  0  0  0  0  0  0
   17.7601   22.6708    0.2352 O   0  0  0  0  0  0  0  0  0  0  0  0
   18.3035   19.4594   -3.6145 C   0  0  1  0  0  0  0  0  0  0  0  0
   17.5617   20.6393   -3.5005 O   0  0  0  0  0  0  0  0  0  0  0  0
   18.6130   24.1637    1.9440 C   0  0  1  0  0  0  0  0  0  0  0  0
   18.7524   23.0795    2.8767 O   0  0  0  0  0  0  0  0  0  0  0  0
   17.7487   18.4570   -2.5832 C   0  0  0  0  0  0  0  0  0  0  0  0
   16.4332   18.0719   -2.9658 O   0  0  0  0  0  0  0  0  0  0  0  0
   21.6250   25.8804    4.4960 N   0  0  0  0  0  0  0  0  0  0  0  0
   20.4553   28.9068   -1.5684 N   0  0  0  0  0  0  0  0  0  0  0  0
  1  2  1  0  0  0  0
  1 39  1  0  0  0  0
  3  4  1  0  0  0  0
  5  6  1  0  0  0  0
  5 40  1  0  0  0  0
  9 10  1  1  0  0  0
  9 14  1  0  0  0  0
  9 35  1  0  0  0  0
 10  1  1  0  0  0  0
 11 16  1  0  0  0  0
 11 28  1  0  0  0  0
 11 26  1  6  0  0  0
 12 17  1  0  0  0  0
 12 34  1  0  0  0  0
 12 13  1  1  0  0  0
 14 15  1  1  0  0  0
 14 19  1  0  0  0  0
 16 13  1  1  0  0  0
 16 21  1  0  0  0  0
 17 18  1  6  0  0  0
 17 23  1  0  0  0  0
 18  8  1  0  0  0  0
 19 20  1  6  0  0  0
 19 25  1  0  0  0  0
 20  5  1  0  0  0  0
 21  3  1  6  0  0  0
 21 22  1  0  0  0  0
 21 27  1  0  0  0  0
 23 24  1  6  0  0  0
 23 29  1  0  0  0  0
 25 26  1  6  0  0  0
 25 31  1  0  0  0  0
 27  7  1  1  0  0  0
 27 28  1  0  0  0  0
 29 30  1  1  0  0  0
 29 33  1  0  0  0  0
 31 32  1  6  0  0  0
 31 35  1  0  0  0  0
 33 34  1  0  0  0  0
 33 37  1  1  0  0  0
 35 36  1  1  0  0  0
 37 38  1  0  0  0  0
M  END
>  <CHROM.1>
-72.19209409,99.45605935,-168.49771019,113.34076733,92.21013899,-120.68984643
76.53932212,31.92111216,-64.64407986,100.54836674,-50.15351714,19.53385002
23.39805808,-1.85284775,1.15257746,1.09384127,1.23695796

>  <Name>
1nta_lig

>  <RI>
1.05895e+07

>  <Rbt.Current_Directory>
/home/itssahil/PROJECTS/Mol_Feturizer/New_Systems/rnas/1nta

>  <Rbt.Executable>
rbdock ($Id: //depot/dev/client3/rdock/2013.1/src/exe/rbdock.cxx#4 $)

>  <Rbt.Library>
libRbt.so (2013.1, Build901 2013/11/27)

>  <Rbt.Parameter_File>
/export/apps/rDock/src/rDock_2013.1_src/data/scripts/dock_solv.prm

>  <Rbt.Receptor>
prm/blind_docking_100.prm

>  <SCORE>
-10.5129

>  <SCORE.INTER>
-3.53302

>  <SCORE.INTER.CONST>
1

>  <SCORE.INTER.POLAR>
-0.774597

>  <SCORE.INTER.ROT>
11

>  <SCORE.INTER.SOLV>
16.2667

>  <SCORE.INTER.VDW>
-16.1289

>  <SCORE.INTER.norm>
-0.0883255

>  <SCORE.INTRA>
-8.92117

>  <SCORE.INTRA.DIHEDRAL>
1.18653

>  <SCORE.INTRA.DIHEDRAL.0>
19.0336

>  <SCORE.INTRA.POLAR>
0

>  <SCORE.INTRA.POLAR.0>
0

>  <SCORE.INTRA.REPUL>
0

>  <SCORE.INTRA.REPUL.0>
0

>  <SCORE.INTRA.SOLV>
-1.05745

>  <SCORE.INTRA.SOLV.lig_0>
-97.5861

>  <SCORE.INTRA.VDW>
-8.98571

>  <SCORE.INTRA.VDW.0>
11.7669

>  <SCORE.INTRA.norm>
-0.223029

>  <SCORE.RESTR>
1.94132

>  <SCORE.RESTR.CAVITY>
1.94132

>  <SCORE.RESTR.norm>
0.048533

>  <SCORE.SYSTEM>
0

>  <SCORE.SYSTEM.CONST>
0

>  <SCORE.SYSTEM.DIHEDRAL>
0

>  <SCORE.SYSTEM.SOLV>
0

>  <SCORE.SYSTEM.norm>
0

>  <SCORE.heavy>
40

>  <SCORE.norm>
-0.262822

>  <RMSD>
22.155

$$$$
1nta_lig
 OpenBabel11021811403D
libRbt.so/2013.1/901 2013/11/27
 40 42  0  0  0  0  0  0  0  0999 V2000
   20.0551   28.4800    1.6866 C   0  0  0  0  0  0  0  0  0  0  0  0
   20.6994   28.0383    2.7014 N   0  0  0  0  0  0  0  0  0  0  0  0
   20.5478   22.6824   -5.8473 C   0  0  0  0  0  0  0  0  0  0  0  0
   20.9083   22.4062   -6.9702 O   0  0  0  0  0  0  0  0  0  0  0  0
   17.9415   26.1863   -2.2833 C   0  0  0  0  0  0  0  0  0  0  0  0
   18.1240   25.4143   -1.2438 N   0  0  0  0  0  0  0  0  0  0  0  0
   23.7934   22.5189   -5.1397 C   0  0  0  0  0  0  0  0  0  0  0  0
   17.5272   22.0845   -5.4770 C   0  0  0  0  0  0  0  0  0  0  0  0
   21.1125   28.2789   -0.4211 C   0  0  2  0  0  0  0  0  0  0  0  0
   20.7804   29.1302    0.7889 N   0  0  0  0  0  0  0  0  0  0  0  0
   21.4425   23.5921   -2.6473 C   0  0  2  0  0  0  0  0  0  0  0  0
   18.6123   21.7432   -2.6192 C   0  0  1  0  0  0  0  0  0  0  0  0
   19.9968   21.7485   -2.6467 O   0  0  0  0  0  0  0  0  0  0  0  0
   19.8190   27.8681   -1.1498 C   0  0  1  0  0  0  0  0  0  0  0  0
   19.2173   29.0397   -1.6116 O   0  0  0  0  0  0  0  0  0  0  0  0
   20.4875   22.6959   -3.4282 C   0  0  2  0  0  0  0  0  0  0  0  0
   17.9485   20.8008   -3.5990 C   0  0  1  0  0  0  0  0  0  0  0  0
   18.4247   21.0941   -4.9064 N   0  0  0  0  0  0  0  0  0  0  0  0
   20.0938   26.9830   -2.3729 C   0  0  2  0  0  0  0  0  0  0  0  0
   18.8695   26.5643   -3.0967 N   0  0  0  0  0  0  0  0  0  0  0  0
   21.3112   22.3536   -4.5924 C   0  0  1  0  0  0  0  0  0  0  0  0
   21.6187   20.9612   -4.4989 O   0  0  0  0  0  0  0  0  0  0  0  0
   18.2431   19.4783   -3.2983 C   0  0  2  0  0  0  0  0  0  0  0  0
   17.3726   18.6676   -4.0465 O   0  0  0  0  0  0  0  0  0  0  0  0
   20.8414   25.7460   -1.9010 C   0  0  1  0  0  0  0  0  0  0  0  0
   21.0960   24.9331   -3.0360 O   0  0  0  0  0  0  0  0  0  0  0  0
   22.5661   23.1123   -4.5203 C   0  0  1  0  0  0  0  0  0  0  0  0
   22.7445   23.3527   -3.1299 O   0  0  0  0  0  0  0  0  0  0  0  0
   18.0365   19.2161   -1.8296 C   0  0  1  0  0  0  0  0  0  0  0  0
   18.5646   17.9616   -1.5138 O   0  0  0  0  0  0  0  0  0  0  0  0
   22.1701   26.1549   -1.2038 C   0  0  2  0  0  0  0  0  0  0  0  0
   22.8613   24.9817   -0.7779 O   0  0  0  0  0  0  0  0  0  0  0  0
   18.7594   20.2439   -1.0275 C   0  0  1  0  0  0  0  0  0  0  0  0
   18.2208   21.4938   -1.3483 O   0  0  0  0  0  0  0  0  0  0  0  0
   21.8502   27.0339    0.0234 C   0  0  1  0  0  0  0  0  0  0  0  0
   23.0667   27.4217    0.6827 O   0  0  0  0  0  0  0  0  0  0  0  0
   18.5552   20.0209    0.4841 C   0  0  0  0  0  0  0  0  0  0  0  0
   17.1650   20.0801    0.7822 O   0  0  0  0  0  0  0  0  0  0  0  0
   18.7849   28.3100    1.5461 N   0  0  0  0  0  0  0  0  0  0  0  0
   16.7691   26.6016   -2.5654 N   0  0  0  0  0  0  0  0  0  0  0  0
  1  2  1  0  0  0  0
  1 39  1  0  0  0  0
  3  4  1  0  0  0  0
  5  6  1  0  0  0  0
  5 40  1  0  0  0  0
  9 10  1  1  0  0  0
  9 14  1  0  0  0  0
  9 35  1  0  0  0  0
 10  1  1  0  0  0  0
 11 16  1  0  0  0  0
 11 28  1  0  0  0  0
 11 26  1  6  0  0  0
 12 17  1  0  0  0  0
 12 34  1  0  0  0  0
 12 13  1  1  0  0  0
 14 15  1  6  0  0  0
 14 19  1  0  0  0  0
 16 13  1  1  0  0  0
 16 21  1  0  0  0  0
 17 18  1  6  0  0  0
 17 23  1  0  0  0  0
 18  8  1  0  0  0  0
 19 20  1  1  0  0  0
 19 25  1  0  0  0  0
 20  5  1  0  0  0  0
 21  3  1  6  0  0  0
 21 22  1  0  0  0  0
 21 27  1  0  0  0  0
 23 24  1  6  0  0  0
 23 29  1  0  0  0  0
 25 26  1  6  0  0  0
 25 31  1  0  0  0  0
 27  7  1  1  0  0  0
 27 28  1  0  0  0  0
 29 30  1  1  0  0  0
 29 33  1  0  0  0  0
 31 32  1  1  0  0  0
 31 35  1  0  0  0  0
 33 34  1  0  0  0  0
 33 37  1  1  0  0  0
 35 36  1  6  0  0  0
 37 38  1  0  0  0  0
M  END
>  <CHROM.1>
62.34229039,101.26339333,126.87679942,94.21452165,123.98599041,-90.40270903
-44.04353844,-43.94263267,-173.10397443,-163.26919456,-59.09553189,19.93377278
23.82925670,-2.16895764,1.29077706,0.83116339,0.62673651

>  <Name>
1nta_lig

>  <RI>
1.05895e+07

>  <Rbt.Current_Directory>
/home/itssahil/PROJECTS/Mol_Feturizer/New_Systems/rnas/1nta

>  <Rbt.Executable>
rbdock ($Id: //depot/dev/client3/rdock/2013.1/src/exe/rbdock.cxx#4 $)

>  <Rbt.Library>
libRbt.so (2013.1, Build901 2013/11/27)

>  <Rbt.Parameter_File>
/export/apps/rDock/src/rDock_2013.1_src/data/scripts/dock_solv.prm

>  <Rbt.Receptor>
prm/blind_docking_100.prm

>  <SCORE>
-17.7159

>  <SCORE.INTER>
-7.73726

>  <SCORE.INTER.CONST>
1

>  <SCORE.INTER.POLAR>
0

>  <SCORE.INTER.ROT>
11

>  <SCORE.INTER.SOLV>
11.7476

>  <SCORE.INTER.VDW>
-20.0074

>  <SCORE.INTER.norm>
-0.193431

>  <SCORE.INTRA>
-9.98281

>  <SCORE.INTRA.DIHEDRAL>
2.78917

>  <SCORE.INTRA.DIHEDRAL.0>
19.0336

>  <SCORE.INTRA.POLAR>
0

>  <SCORE.INTRA.POLAR.0>
0

>  <SCORE.INTRA.REPUL>
0.030556

>  <SCORE.INTRA.REPUL.0>
0

>  <SCORE.INTRA.SOLV>
1.86432

>  <SCORE.INTRA.SOLV.lig_0>
-97.5861

>  <SCORE.INTRA.VDW>
-12.4623

>  <SCORE.INTRA.VDW.0>
11.7669

>  <SCORE.INTRA.norm>
-0.24957

>  <SCORE.RESTR>
0.00412852

>  <SCORE.RESTR.CAVITY>
0.00412852

>  <SCORE.RESTR.norm>
0.000103213

>  <SCORE.SYSTEM>
0

>  <SCORE.SYSTEM.CONST>
0

>  <SCORE.SYSTEM.DIHEDRAL>
0

>  <SCORE.SYSTEM.SOLV>
0

>  <SCORE.SYSTEM.norm>
0

>  <SCORE.heavy>
40

>  <SCORE.norm>
-0.442899

>  <RMSD>
22.157

$$$$
1nta_lig
 OpenBabel11021811403D
libRbt.so/2013.1/901 2013/11/27
 40 42  0  0  0  0  0  0  0  0999 V2000
   17.1841   28.5314    0.1514 C   0  0  0  0  0  0  0  0  0  0  0  0
   16.3429   29.4964    0.1859 N   0  0  0  0  0  0  0  0  0  0  0  0
   20.7480   20.2632   -3.1500 C   0  0  0  0  0  0  0  0  0  0  0  0
   21.1686   19.1632   -2.8666 O   0  0  0  0  0  0  0  0  0  0  0  0
   20.5093   23.6074    0.0165 C   0  0  0  0  0  0  0  0  0  0  0  0
   19.7732   23.1700    1.0048 N   0  0  0  0  0  0  0  0  0  0  0  0
   17.9330   18.6433   -3.8663 C   0  0  0  0  0  0  0  0  0  0  0  0
   22.5727   23.4532   -3.0048 C   0  0  0  0  0  0  0  0  0  0  0  0
   17.3873   26.5696   -1.1566 C   0  0  2  0  0  0  0  0  0  0  0  0
   17.4849   28.0794   -1.0569 N   0  0  0  0  0  0  0  0  0  0  0  0
   18.0563   22.2281   -4.0232 C   0  0  2  0  0  0  0  0  0  0  0  0
   20.5821   23.6621   -5.4050 C   0  0  1  0  0  0  0  0  0  0  0  0
   19.8409   22.4978   -5.5171 O   0  0  0  0  0  0  0  0  0  0  0  0
   18.7943   25.9443   -1.1099 C   0  0  1  0  0  0  0  0  0  0  0  0
   19.3387   26.2495    0.1385 O   0  0  0  0  0  0  0  0  0  0  0  0
   19.5265   21.9785   -4.3422 C   0  0  2  0  0  0  0  0  0  0  0  0
   22.0758   23.4681   -5.2643 C   0  0  1  0  0  0  0  0  0  0  0  0
   22.3209   22.6072   -4.1593 N   0  0  0  0  0  0  0  0  0  0  0  0
   18.7580   24.4150   -1.2308 C   0  0  2  0  0  0  0  0  0  0  0  0
   20.0968   23.7791   -1.1943 N   0  0  0  0  0  0  0  0  0  0  0  0
   19.6229   20.5332   -4.1128 C   0  0  1  0  0  0  0  0  0  0  0  0
   19.8420   19.9166   -5.3831 O   0  0  0  0  0  0  0  0  0  0  0  0
   22.6157   22.8974   -6.4085 C   0  0  2  0  0  0  0  0  0  0  0  0
   24.0132   23.0210   -6.3271 O   0  0  0  0  0  0  0  0  0  0  0  0
   18.0742   24.0621   -2.5422 C   0  0  1  0  0  0  0  0  0  0  0  0
   18.0401   22.6474   -2.6472 O   0  0  0  0  0  0  0  0  0  0  0  0
   18.3414   20.0549   -3.5792 C   0  0  1  0  0  0  0  0  0  0  0  0
   17.3904   20.9875   -4.0780 O   0  0  0  0  0  0  0  0  0  0  0  0
   22.1184   23.6139   -7.6364 C   0  0  1  0  0  0  0  0  0  0  0  0
   22.4791   22.8784   -8.7684 O   0  0  0  0  0  0  0  0  0  0  0  0
   16.6365   24.6543   -2.5746 C   0  0  2  0  0  0  0  0  0  0  0  0
   16.0083   24.3042   -3.8068 O   0  0  0  0  0  0  0  0  0  0  0  0
   20.6313   23.7113   -7.5955 C   0  0  1  0  0  0  0  0  0  0  0  0
   20.2819   24.4518   -6.4619 O   0  0  0  0  0  0  0  0  0  0  0  0
   16.7175   26.1910   -2.4604 C   0  0  1  0  0  0  0  0  0  0  0  0
   15.3973   26.7578   -2.4895 O   0  0  0  0  0  0  0  0  0  0  0  0
   20.0844   24.4578   -8.8284 C   0  0  0  0  0  0  0  0  0  0  0  0
   20.2691   23.6494   -9.9848 O   0  0  0  0  0  0  0  0  0  0  0  0
   17.7024   28.0270    1.2187 N   0  0  0  0  0  0  0  0  0  0  0  0
   21.7274   23.9220    0.2255 N   0  0  0  0  0  0  0  0  0  0  0  0
  1  2  1  0  0  0  0
  1 39  1  0  0  0  0
  3  4  1  0  0  0  0
  5  6  1  0  0  0  0
  5 40  1  0  0  0  0
  9 10  1  6  0  0  0
  9 14  1  0  0  0  0
  9 35  1  0  0  0  0
 10  1  1  0  0  0  0
 11 16  1  0  0  0  0
 11 28  1  0  0  0  0
 11 26  1  1  0  0  0
 12 17  1  0  0  0  0
 12 34  1  0  0  0  0
 12 13  1  6  0  0  0
 14 15  1  1  0  0  0
 14 19  1  0  0  0  0
 16 13  1  6  0  0  0
 16 21  1  0  0  0  0
 17 18  1  1  0  0  0
 17 23  1  0  0  0  0
 18  8  1  0  0  0  0
 19 20  1  6  0  0  0
 19 25  1  0  0  0  0
 20  5  1  0  0  0  0
 21  3  1  1  0  0  0
 21 22  1  0  0  0  0
 21 27  1  0  0  0  0
 23 24  1  1  0  0  0
 23 29  1  0  0  0  0
 25 26  1  1  0  0  0
 25 31  1  0  0  0  0
 27  7  1  6  0  0  0
 27 28  1  0  0  0  0
 29 30  1  6  0  0  0
 29 33  1  0  0  0  0
 31 32  1  6  0  0  0
 31 35  1  0  0  0  0
 33 34  1  0  0  0  0
 33 37  1  6  0  0  0
 35 36  1  1  0  0  0
 37 38  1  0  0  0  0
M  END
>  <CHROM.1>
-102.39285827,-130.76702346,93.95378107,85.64711641,105.18174417,-94.81375822
83.38602869,42.88837529,-172.03419053,-151.07850342,69.47756303,19.47228301
23.67617600,-3.55824992,3.01961176,-1.13024197,2.36911098

>  <Name>
1nta_lig

>  <RI>
1.05895e+07

>  <Rbt.Current_Directory>
/home/itssahil/PROJECTS/Mol_Feturizer/New_Systems/rnas/1nta

>  <Rbt.Executable>
rbdock ($Id: //depot/dev/client3/rdock/2013.1/src/exe/rbdock.cxx#4 $)

>  <Rbt.Library>
libRbt.so (2013.1, Build901 2013/11/27)

>  <Rbt.Parameter_File>
/export/apps/rDock/src/rDock_2013.1_src/data/scripts/dock_solv.prm

>  <Rbt.Receptor>
prm/blind_docking_100.prm

>  <SCORE>
-25.045

>  <SCORE.INTER>
-8.34795

>  <SCORE.INTER.CONST>
1

>  <SCORE.INTER.POLAR>
0

>  <SCORE.INTER.ROT>
11

>  <SCORE.INTER.SOLV>
21.9204

>  <SCORE.INTER.VDW>
-23.8054

>  <SCORE.INTER.norm>
-0.208699

>  <SCORE.INTRA>
-17.6516

>  <SCORE.INTRA.DIHEDRAL>
1.43638

>  <SCORE.INTRA.DIHEDRAL.0>
19.0336

>  <SCORE.INTRA.POLAR>
0

>  <SCORE.INTRA.POLAR.0>
0

>  <SCORE.INTRA.REPUL>
0

>  <SCORE.INTRA.REPUL.0>
0

>  <SCORE.INTRA.SOLV>
-2.40966

>  <SCORE.INTRA.SOLV.lig_0>
-97.5861

>  <SCORE.INTRA.VDW>
-17.165

>  <SCORE.INTRA.VDW.0>
11.7669

>  <SCORE.INTRA.norm>
-0.441291

>  <SCORE.RESTR>
0.95457

>  <SCORE.RESTR.CAVITY>
0.95457

>  <SCORE.RESTR.norm>
0.0238642

>  <SCORE.SYSTEM>
0

>  <SCORE.SYSTEM.CONST>
0

>  <SCORE.SYSTEM.DIHEDRAL>
0

>  <SCORE.SYSTEM.SOLV>
0

>  <SCORE.SYSTEM.norm>
0

>  <SCORE.heavy>
40

>  <SCORE.norm>
-0.626126

>  <RMSD>
22.270

$$$$
1nta_lig
 OpenBabel11021811403D
libRbt.so/2013.1/901 2013/11/27
 40 42  0  0  0  0  0  0  0  0999 V2000
   18.3520   29.0351   -0.9961 C   0  0  0  0  0  0  0  0  0  0  0  0
   18.7565   29.8559   -1.8921 N   0  0  0  0  0  0  0  0  0  0  0  0
   19.0994   19.2274    0.8235 C   0  0  0  0  0  0  0  0  0  0  0  0
   18.8423   18.4446    1.7115 O   0  0  0  0  0  0  0  0  0  0  0  0
   20.0611   24.2372    2.8604 C   0  0  0  0  0  0  0  0  0  0  0  0
   21.0928   23.4486    2.7072 N   0  0  0  0  0  0  0  0  0  0  0  0
   16.6500   21.0293    2.1707 C   0  0  0  0  0  0  0  0  0  0  0  0
   16.6915   17.7134   -4.0116 C   0  0  0  0  0  0  0  0  0  0  0  0
   19.0933   26.8525   -0.4601 C   0  0  2  0  0  0  0  0  0  0  0  0
   19.3030   28.3519   -0.3770 N   0  0  0  0  0  0  0  0  0  0  0  0
   18.6038   22.3546   -0.5342 C   0  0  2  0  0  0  0  0  0  0  0  0
   18.8714   19.5724   -2.7354 C   0  0  1  0  0  0  0  0  0  0  0  0
   18.2785   20.6638   -2.1231 O   0  0  0  0  0  0  0  0  0  0  0  0
   19.1006   26.2382    0.9525 C   0  0  1  0  0  0  0  0  0  0  0  0
   18.0132   26.7779    1.6412 O   0  0  0  0  0  0  0  0  0  0  0  0
   18.7478   20.8828   -0.9062 C   0  0  2  0  0  0  0  0  0  0  0  0
   18.3914   19.2776   -4.1395 C   0  0  1  0  0  0  0  0  0  0  0  0
   16.9768   19.1346   -4.1163 N   0  0  0  0  0  0  0  0  0  0  0  0
   18.9154   24.7151    0.9279 C   0  0  2  0  0  0  0  0  0  0  0  0
   18.9221   24.0890    2.2718 N   0  0  0  0  0  0  0  0  0  0  0  0
   18.1356   20.2367    0.2595 C   0  0  1  0  0  0  0  0  0  0  0  0
   16.9192   19.6307   -0.1825 O   0  0  0  0  0  0  0  0  0  0  0  0
   18.7260   20.3066   -5.0086 C   0  0  2  0  0  0  0  0  0  0  0  0
   18.5212   19.8410   -6.3186 O   0  0  0  0  0  0  0  0  0  0  0  0
   20.0375   24.1174    0.0940 C   0  0  1  0  0  0  0  0  0  0  0  0
   19.8594   22.7097    0.0716 O   0  0  0  0  0  0  0  0  0  0  0  0
   17.8070   21.2685    1.2509 C   0  0  1  0  0  0  0  0  0  0  0  0
   17.6250   22.4467    0.4752 O   0  0  0  0  0  0  0  0  0  0  0  0
   20.1713   20.6924   -4.8324 C   0  0  1  0  0  0  0  0  0  0  0  0
   20.4143   21.8750   -5.5358 O   0  0  0  0  0  0  0  0  0  0  0  0
   20.0060   24.7022   -1.3468 C   0  0  2  0  0  0  0  0  0  0  0  0
   21.0584   24.1222   -2.1158 O   0  0  0  0  0  0  0  0  0  0  0  0
   20.4549   20.9389   -3.3898 C   0  0  1  0  0  0  0  0  0  0  0  0
   20.2122   19.7490   -2.6965 O   0  0  0  0  0  0  0  0  0  0  0  0
   20.2048   26.2309   -1.2788 C   0  0  1  0  0  0  0  0  0  0  0  0
   20.1797   26.7906   -2.6021 O   0  0  0  0  0  0  0  0  0  0  0  0
   21.9323   21.3175   -3.1658 C   0  0  0  0  0  0  0  0  0  0  0  0
   22.7626   20.2636   -3.6401 O   0  0  0  0  0  0  0  0  0  0  0  0
   17.1036   28.8772   -0.7156 N   0  0  0  0  0  0  0  0  0  0  0  0
   20.1345   25.2276    3.6606 N   0  0  0  0  0  0  0  0  0  0  0  0
  1  2  1  0  0  0  0
  1 39  1  0  0  0  0
  3  4  1  0  0  0  0
  5  6  1  0  0  0  0
  5 40  1  0  0  0  0
  9 10  1  1  0  0  0
  9 14  1  0  0  0  0
  9 35  1  0  0  0  0
 10  1  1  0  0  0  0
 11 16  1  0  0  0  0
 11 28  1  0  0  0  0
 11 26  1  1  0  0  0
 12 17  1  0  0  0  0
 12 34  1  0  0  0  0
 12 13  1  6  0  0  0
 14 15  1  1  0  0  0
 14 19  1  0  0  0  0
 16 13  1  6  0  0  0
 16 21  1  0  0  0  0
 17 18  1  1  0  0  0
 17 23  1  0  0  0  0
 18  8  1  0  0  0  0
 19 20  1  1  0  0  0
 19 25  1  0  0  0  0
 20  5  1  0  0  0  0
 21  3  1  1  0  0  0
 21 22  1  0  0  0  0
 21 27  1  0  0  0  0
 23 24  1  6  0  0  0
 23 29  1  0  0  0  0
 25 26  1  6  0  0  0
 25 31  1  0  0  0  0
 27  7  1  6  0  0  0
 27 28  1  0  0  0  0
 29 30  1  6  0  0  0
 29 33  1  0  0  0  0
 31 32  1  6  0  0  0
 31 35  1  0  0  0  0
 33 34  1  0  0  0  0
 33 37  1  6  0  0  0
 35 36  1  6  0  0  0
 37 38  1  0  0  0  0
M  END
>  <CHROM.1>
-125.67675448,-124.62164817,161.86250447,-179.23615005,153.56797689,-95.80958765
-63.68599162,-85.51757459,-172.88935680,61.28596234,-58.96563432,19.12888392
22.77956025,-1.11053574,-1.45902876,-1.36663369,-2.57969498

>  <Name>
1nta_lig

>  <RI>
1.05895e+07

>  <Rbt.Current_Directory>
/home/itssahil/PROJECTS/Mol_Feturizer/New_Systems/rnas/1nta

>  <Rbt.Executable>
rbdock ($Id: //depot/dev/client3/rdock/2013.1/src/exe/rbdock.cxx#4 $)

>  <Rbt.Library>
libRbt.so (2013.1, Build901 2013/11/27)

>  <Rbt.Parameter_File>
/export/apps/rDock/src/rDock_2013.1_src/data/scripts/dock_solv.prm

>  <Rbt.Receptor>
prm/blind_docking_100.prm

>  <SCORE>
-23.8925

>  <SCORE.INTER>
-5.35526

>  <SCORE.INTER.CONST>
1

>  <SCORE.INTER.POLAR>
-0.500769

>  <SCORE.INTER.ROT>
11

>  <SCORE.INTER.SOLV>
18.5363

>  <SCORE.INTER.VDW>
-19.013

>  <SCORE.INTER.norm>
-0.133882

>  <SCORE.INTRA>
-19.0555

>  <SCORE.INTRA.DIHEDRAL>
-11.2308

>  <SCORE.INTRA.DIHEDRAL.0>
19.0336

>  <SCORE.INTRA.POLAR>
0

>  <SCORE.INTRA.POLAR.0>
0

>  <SCORE.INTRA.REPUL>
0

>  <SCORE.INTRA.REPUL.0>
0

>  <SCORE.INTRA.SOLV>
-1.65541

>  <SCORE.INTRA.SOLV.lig_0>
-97.5861

>  <SCORE.INTRA.VDW>
-12.6124

>  <SCORE.INTRA.VDW.0>
11.7669

>  <SCORE.INTRA.norm>
-0.476388

>  <SCORE.RESTR>
0.518258

>  <SCORE.RESTR.CAVITY>
0.518258

>  <SCORE.RESTR.norm>
0.0129564

>  <SCORE.SYSTEM>
0

>  <SCORE.SYSTEM.CONST>
0

>  <SCORE.SYSTEM.DIHEDRAL>
0

>  <SCORE.SYSTEM.SOLV>
0

>  <SCORE.SYSTEM.norm>
0

>  <SCORE.heavy>
40

>  <SCORE.norm>
-0.597313

>  <RMSD>
22.314

$$$$
1nta_lig
 OpenBabel11021811403D
libRbt.so/2013.1/901 2013/11/27
 40 42  0  0  0  0  0  0  0  0999 V2000
   18.8499   26.0832    2.1929 C   0  0  0  0  0  0  0  0  0  0  0  0
   19.0046   25.8105    3.4346 N   0  0  0  0  0  0  0  0  0  0  0  0
   20.4283   19.1066   -3.5682 C   0  0  0  0  0  0  0  0  0  0  0  0
   21.5854   19.4463   -3.6826 O   0  0  0  0  0  0  0  0  0  0  0  0
   18.1618   19.5715    0.7192 C   0  0  0  0  0  0  0  0  0  0  0  0
   17.0856   19.8375    1.4127 N   0  0  0  0  0  0  0  0  0  0  0  0
   17.5365   17.9686   -4.7531 C   0  0  0  0  0  0  0  0  0  0  0  0
   21.0168   22.0019   -8.5785 C   0  0  0  0  0  0  0  0  0  0  0  0
   18.7368   24.2884    0.6546 C   0  0  2  0  0  0  0  0  0  0  0  0
   19.5649   25.3487    1.3539 N   0  0  0  0  0  0  0  0  0  0  0  0
   17.7517   21.2637   -3.3437 C   0  0  2  0  0  0  0  0  0  0  0  0
   20.7840   22.1453   -5.0937 C   0  0  1  0  0  0  0  0  0  0  0  0
   19.4650   22.1516   -4.6723 O   0  0  0  0  0  0  0  0  0  0  0  0
   19.3319   22.8925    0.9193 C   0  0  1  0  0  0  0  0  0  0  0  0
   19.2405   22.6602    2.2925 O   0  0  0  0  0  0  0  0  0  0  0  0
   19.1962   21.1735   -3.8237 C   0  0  2  0  0  0  0  0  0  0  0  0
   21.0443   22.8289   -6.4180 C   0  0  1  0  0  0  0  0  0  0  0  0
   20.1984   22.2495   -7.4033 N   0  0  0  0  0  0  0  0  0  0  0  0
   18.5455   21.7791    0.2145 C   0  0  2  0  0  0  0  0  0  0  0  0
   19.0938   20.4209    0.4439 N   0  0  0  0  0  0  0  0  0  0  0  0
   19.2638   19.7722   -4.2511 C   0  0  1  0  0  0  0  0  0  0  0  0
   19.4009   19.7695   -5.6736 O   0  0  0  0  0  0  0  0  0  0  0  0
   20.7784   24.1888   -6.3392 C   0  0  2  0  0  0  0  0  0  0  0  0
   21.3158   24.7949   -7.4877 O   0  0  0  0  0  0  0  0  0  0  0  0
   18.5482   22.0723   -1.2775 C   0  0  1  0  0  0  0  0  0  0  0  0
   17.8170   21.0421   -1.9237 O   0  0  0  0  0  0  0  0  0  0  0  0
   17.9982   19.1132   -3.9053 C   0  0  1  0  0  0  0  0  0  0  0  0
   17.0495   20.1728   -3.8934 O   0  0  0  0  0  0  0  0  0  0  0  0
   21.4220   24.7785   -5.1118 C   0  0  1  0  0  0  0  0  0  0  0  0
   20.9440   26.0787   -4.9289 O   0  0  0  0  0  0  0  0  0  0  0  0
   17.9073   23.4623   -1.5528 C   0  0  2  0  0  0  0  0  0  0  0  0
   17.9095   23.7144   -2.9570 O   0  0  0  0  0  0  0  0  0  0  0  0
   21.0549   23.9717   -3.9132 C   0  0  1  0  0  0  0  0  0  0  0  0
   21.5409   22.6746   -4.1051 O   0  0  0  0  0  0  0  0  0  0  0  0
   18.7313   24.5525   -0.8361 C   0  0  1  0  0  0  0  0  0  0  0  0
   18.1548   25.8461   -1.0795 O   0  0  0  0  0  0  0  0  0  0  0  0
   21.7122   24.5331   -2.6368 C   0  0  0  0  0  0  0  0  0  0  0  0
   21.4050   23.6815   -1.5389 O   0  0  0  0  0  0  0  0  0  0  0  0
   18.0565   27.0128    1.7824 N   0  0  0  0  0  0  0  0  0  0  0  0
   18.3570   18.3896    0.2817 N   0  0  0  0  0  0  0  0  0  0  0  0
  1  2  1  0  0  0  0
  1 39  1  0  0  0  0
  3  4  1  0  0  0  0
  5  6  1  0  0  0  0
  5 40  1  0  0  0  0
  9 10  1  1  0  0  0
  9 14  1  0  0  0  0
  9 35  1  0  0  0  0
 10  1  1  0  0  0  0
 11 16  1  0  0  0  0
 11 28  1  0  0  0  0
 11 26  1  1  0  0  0
 12 17  1  0  0  0  0
 12 34  1  0  0  0  0
 12 13  1  1  0  0  0
 14 15  1  1  0  0  0
 14 19  1  0  0  0  0
 16 13  1  6  0  0  0
 16 21  1  0  0  0  0
 17 18  1  6  0  0  0
 17 23  1  0  0  0  0
 18  8  1  0  0  0  0
 19 20  1  6  0  0  0
 19 25  1  0  0  0  0
 20  5  1  0  0  0  0
 21  3  1  1  0  0  0
 21 22  1  0  0  0  0
 21 27  1  0  0  0  0
 23 24  1  6  0  0  0
 23 29  1  0  0  0  0
 25 26  1  6  0  0  0
 25 31  1  0  0  0  0
 27  7  1  6  0  0  0
 27 28  1  0  0  0  0
 29 30  1  1  0  0  0
 29 33  1  0  0  0  0
 31 32  1  6  0  0  0
 31 35  1  0  0  0  0
 33 34  1  0  0  0  0
 33 37  1  1  0  0  0
 35 36  1  1  0  0  0
 37 38  1  0  0  0  0
M  END
>  <CHROM.1>
-122.83182443,103.77763806,63.98120723,156.68896607,177.43912593,-134.39197738
134.92842129,-35.44919459,-60.40493975,178.86759457,-176.19568957,19.41320749
22.46705425,-2.52465733,-2.15744173,-1.17491324,-2.37883909

>  <Name>
1nta_lig

>  <RI>
1.05895e+07

>  <Rbt.Current_Directory>
/home/itssahil/PROJECTS/Mol_Feturizer/New_Systems/rnas/1nta

>  <Rbt.Executable>
rbdock ($Id: //depot/dev/client3/rdock/2013.1/src/exe/rbdock.cxx#4 $)

>  <Rbt.Library>
libRbt.so (2013.1, Build901 2013/11/27)

>  <Rbt.Parameter_File>
/export/apps/rDock/src/rDock_2013.1_src/data/scripts/dock_solv.prm

>  <Rbt.Receptor>
prm/blind_docking_100.prm

>  <SCORE>
-24.5414

>  <SCORE.INTER>
-3.17082

>  <SCORE.INTER.CONST>
1

>  <SCORE.INTER.POLAR>
-0.650174

>  <SCORE.INTER.ROT>
11

>  <SCORE.INTER.SOLV>
15.7693

>  <SCORE.INTER.VDW>
-16.1364

>  <SCORE.INTER.norm>
-0.0792706

>  <SCORE.INTRA>
-22.0289

>  <SCORE.INTRA.DIHEDRAL>
-11.9366

>  <SCORE.INTRA.DIHEDRAL.0>
19.0336

>  <SCORE.INTRA.POLAR>
0

>  <SCORE.INTRA.POLAR.0>
0

>  <SCORE.INTRA.REPUL>
0.00259789

>  <SCORE.INTRA.REPUL.0>
0

>  <SCORE.INTRA.SOLV>
-2.45903

>  <SCORE.INTRA.SOLV.lig_0>
-97.5861

>  <SCORE.INTRA.VDW>
-14.8441

>  <SCORE.INTRA.VDW.0>
11.7669

>  <SCORE.INTRA.norm>
-0.550723

>  <SCORE.RESTR>
0.658345

>  <SCORE.RESTR.CAVITY>
0.658345

>  <SCORE.RESTR.norm>
0.0164586

>  <SCORE.SYSTEM>
0

>  <SCORE.SYSTEM.CONST>
0

>  <SCORE.SYSTEM.DIHEDRAL>
0

>  <SCORE.SYSTEM.SOLV>
0

>  <SCORE.SYSTEM.norm>
0

>  <SCORE.heavy>
40

>  <SCORE.norm>
-0.613535

>  <RMSD>
22.550

$$$$
1nta_lig
 OpenBabel11021811403D
libRbt.so/2013.1/901 2013/11/27
 40 42  0  0  0  0  0  0  0  0999 V2000
   20.5184   29.4168   -0.6315 C   0  0  0  0  0  0  0  0  0  0  0  0
   19.7345   30.4156   -0.4647 N   0  0  0  0  0  0  0  0  0  0  0  0
   19.1137   19.5453    0.7474 C   0  0  0  0  0  0  0  0  0  0  0  0
   19.0289   18.6972    1.6081 O   0  0  0  0  0  0  0  0  0  0  0  0
   22.6384   23.9853   -1.8933 C   0  0  0  0  0  0  0  0  0  0  0  0
   23.5217   24.0982   -0.9357 N   0  0  0  0  0  0  0  0  0  0  0  0
   16.3257   20.8977    1.9555 C   0  0  0  0  0  0  0  0  0  0  0  0
   16.6601   17.0578   -4.0029 C   0  0  0  0  0  0  0  0  0  0  0  0
   19.9493   27.1273   -0.8187 C   0  0  2  0  0  0  0  0  0  0  0  0
   20.0885   28.4882   -1.4727 N   0  0  0  0  0  0  0  0  0  0  0  0
   17.9142   22.2958   -0.9449 C   0  0  2  0  0  0  0  0  0  0  0  0
   18.6556   19.2591   -2.7119 C   0  0  1  0  0  0  0  0  0  0  0  0
   17.9737   20.3979   -2.3174 O   0  0  0  0  0  0  0  0  0  0  0  0
   20.7627   26.0788   -1.6009 C   0  0  1  0  0  0  0  0  0  0  0  0
   22.1049   26.4518   -1.5150 O   0  0  0  0  0  0  0  0  0  0  0  0
   18.3869   20.8605   -1.1493 C   0  0  2  0  0  0  0  0  0  0  0  0
   18.2743   18.7139   -4.0706 C   0  0  1  0  0  0  0  0  0  0  0  0
   16.8697   18.4930   -4.0945 N   0  0  0  0  0  0  0  0  0  0  0  0
   20.6394   24.6739   -0.9959 C   0  0  2  0  0  0  0  0  0  0  0  0
   21.4067   23.6373   -1.7271 N   0  0  0  0  0  0  0  0  0  0  0  0
   17.9432   20.2372    0.1019 C   0  0  1  0  0  0  0  0  0  0  0  0
   16.8941   19.3248   -0.2284 O   0  0  0  0  0  0  0  0  0  0  0  0
   18.6071   19.6073   -5.0791 C   0  0  2  0  0  0  0  0  0  0  0  0
   18.5032   18.9252   -6.3035 O   0  0  0  0  0  0  0  0  0  0  0  0
   19.1678   24.2918   -0.9878 C   0  0  1  0  0  0  0  0  0  0  0  0
   19.0592   22.9940   -0.4243 O   0  0  0  0  0  0  0  0  0  0  0  0
   17.3936   21.2794    0.9778 C   0  0  1  0  0  0  0  0  0  0  0  0
   16.9450   22.2852    0.0778 O   0  0  0  0  0  0  0  0  0  0  0  0
   20.0183   20.1013   -4.8972 C   0  0  1  0  0  0  0  0  0  0  0  0
   20.2424   21.1673   -5.7723 O   0  0  0  0  0  0  0  0  0  0  0  0
   18.3493   25.3242   -0.1613 C   0  0  2  0  0  0  0  0  0  0  0  0
   16.9745   24.9433   -0.1568 O   0  0  0  0  0  0  0  0  0  0  0  0
   20.2041   20.5935   -3.5023 C   0  0  1  0  0  0  0  0  0  0  0  0
   19.9813   19.5187   -2.6359 O   0  0  0  0  0  0  0  0  0  0  0  0
   18.4916   26.7187   -0.8067 C   0  0  1  0  0  0  0  0  0  0  0  0
   17.7407   27.6878   -0.0571 O   0  0  0  0  0  0  0  0  0  0  0  0
   21.6449   21.0901   -3.2704 C   0  0  0  0  0  0  0  0  0  0  0  0
   22.5563   20.0406   -3.5753 O   0  0  0  0  0  0  0  0  0  0  0  0
   21.6489   29.3150   -0.0201 N   0  0  0  0  0  0  0  0  0  0  0  0
   22.9703   24.2522   -3.0954 N   0  0  0  0  0  0  0  0  0  0  0  0
  1  2  1  0  0  0  0
  1 39  1  0  0  0  0
  3  4  1  0  0  0  0
  5  6  1  0  0  0  0
  5 40  1  0  0  0  0
  9 10  1  6  0  0  0
  9 14  1  0  0  0  0
  9 35  1  0  0  0  0
 10  1  1  0  0  0  0
 11 16  1  0  0  0  0
 11 28  1  0  0  0  0
 11 26  1  1  0  0  0
 12 17  1  0  0  0  0
 12 34  1  0  0  0  0
 12 13  1  6  0  0  0
 14 15  1  1  0  0  0
 14 19  1  0  0  0  0
 16 13  1  6  0  0  0
 16 21  1  0  0  0  0
 17 18  1  1  0  0  0
 17 23  1  0  0  0  0
 18  8  1  0  0  0  0
 19 20  1  6  0  0  0
 19 25  1  0  0  0  0
 20  5  1  0  0  0  0
 21  3  1  1  0  0  0
 21 22  1  0  0  0  0
 21 27  1  0  0  0  0
 23 24  1  6  0  0  0
 23 29  1  0  0  0  0
 25 26  1  1  0  0  0
 25 31  1  0  0  0  0
 27  7  1  6  0  0  0
 27 28  1  0  0  0  0
 29 30  1  6  0  0  0
 29 33  1  0  0  0  0
 31 32  1  6  0  0  0
 31 35  1  0  0  0  0
 33 34  1  0  0  0  0
 33 37  1  6  0  0  0
 35 36  1  1  0  0  0
 37 38  1  0  0  0  0
M  END
>  <CHROM.1>
-124.90941940,-120.41754385,140.05021363,-177.34324475,163.77547592,-105.45722592
52.00761793,68.14156510,-162.25160061,-151.46112249,-56.64393984,19.37620929
22.70408183,-1.67512187,-1.27685775,-0.77277308,-2.67439290

>  <Name>
1nta_lig

>  <RI>
1.05895e+07

>  <Rbt.Current_Directory>
/home/itssahil/PROJECTS/Mol_Feturizer/New_Systems/rnas/1nta

>  <Rbt.Executable>
rbdock ($Id: //depot/dev/client3/rdock/2013.1/src/exe/rbdock.cxx#4 $)

>  <Rbt.Library>
libRbt.so (2013.1, Build901 2013/11/27)

>  <Rbt.Parameter_File>
/export/apps/rDock/src/rDock_2013.1_src/data/scripts/dock_solv.prm

>  <Rbt.Receptor>
prm/blind_docking_100.prm

>  <SCORE>
-25.8805

>  <SCORE.INTER>
-9.74814

>  <SCORE.INTER.CONST>
1

>  <SCORE.INTER.POLAR>
-1.73214

>  <SCORE.INTER.ROT>
11

>  <SCORE.INTER.SOLV>
26.5975

>  <SCORE.INTER.VDW>
-20.5241

>  <SCORE.INTER.norm>
-0.243703

>  <SCORE.INTRA>
-17.2741

>  <SCORE.INTRA.DIHEDRAL>
-4.53394

>  <SCORE.INTRA.DIHEDRAL.0>
19.0336

>  <SCORE.INTRA.POLAR>
0

>  <SCORE.INTRA.POLAR.0>
0

>  <SCORE.INTRA.REPUL>
0

>  <SCORE.INTRA.REPUL.0>
0

>  <SCORE.INTRA.SOLV>
-2.33719

>  <SCORE.INTRA.SOLV.lig_0>
-97.5861

>  <SCORE.INTRA.VDW>
-13.8385

>  <SCORE.INTRA.VDW.0>
11.7669

>  <SCORE.INTRA.norm>
-0.431851

>  <SCORE.RESTR>
1.14168

>  <SCORE.RESTR.CAVITY>
1.14168

>  <SCORE.RESTR.norm>
0.028542

>  <SCORE.SYSTEM>
0

>  <SCORE.SYSTEM.CONST>
0

>  <SCORE.SYSTEM.DIHEDRAL>
0

>  <SCORE.SYSTEM.SOLV>
0

>  <SCORE.SYSTEM.norm>
0

>  <SCORE.heavy>
40

>  <SCORE.norm>
-0.647013

>  <RMSD>
22.596

$$$$
1nta_lig
 OpenBabel11021811403D
libRbt.so/2013.1/901 2013/11/27
 40 42  0  0  0  0  0  0  0  0999 V2000
   20.6563   28.7390   -0.1812 C   0  0  0  0  0  0  0  0  0  0  0  0
   19.9021   29.3330    0.6663 N   0  0  0  0  0  0  0  0  0  0  0  0
   19.0879   19.3014    0.9430 C   0  0  0  0  0  0  0  0  0  0  0  0
   18.7911   18.3607    1.6461 O   0  0  0  0  0  0  0  0  0  0  0  0
   19.7795   24.5699   -2.7186 C   0  0  0  0  0  0  0  0  0  0  0  0
   20.1229   25.4827   -3.5896 N   0  0  0  0  0  0  0  0  0  0  0  0
   16.4233   20.8907    2.1413 C   0  0  0  0  0  0  0  0  0  0  0  0
   16.3191   17.9485   -3.9742 C   0  0  0  0  0  0  0  0  0  0  0  0
   21.5515   26.6529    0.4879 C   0  0  2  0  0  0  0  0  0  0  0  0
   21.7296   28.1498    0.3244 N   0  0  0  0  0  0  0  0  0  0  0  0
   18.4889   22.4353   -0.3563 C   0  0  2  0  0  0  0  0  0  0  0  0
   18.7936   19.5395   -2.4836 C   0  0  1  0  0  0  0  0  0  0  0  0
   18.4052   20.7838   -2.0160 O   0  0  0  0  0  0  0  0  0  0  0  0
   21.1827   26.0133   -0.8641 C   0  0  1  0  0  0  0  0  0  0  0  0
   22.2630   26.2174   -1.7239 O   0  0  0  0  0  0  0  0  0  0  0  0
   18.7614   20.9901   -0.7592 C   0  0  2  0  0  0  0  0  0  0  0  0
   18.2780   19.1742   -3.8581 C   0  0  1  0  0  0  0  0  0  0  0  0
   16.8608   19.2922   -3.8588 N   0  0  0  0  0  0  0  0  0  0  0  0
   20.9667   24.4981   -0.7537 C   0  0  2  0  0  0  0  0  0  0  0  0
   20.6053   23.8494   -2.0369 N   0  0  0  0  0  0  0  0  0  0  0  0
   18.1050   20.2647    0.3334 C   0  0  1  0  0  0  0  0  0  0  0  0
   16.9711   19.5963   -0.2232 O   0  0  0  0  0  0  0  0  0  0  0  0
   18.8008   20.0174   -4.8285 C   0  0  2  0  0  0  0  0  0  0  0  0
   18.5239   19.4467   -6.0825 O   0  0  0  0  0  0  0  0  0  0  0  0
   19.8589   24.2525    0.2584 C   0  0  1  0  0  0  0  0  0  0  0  0
   19.6659   22.8503    0.3592 O   0  0  0  0  0  0  0  0  0  0  0  0
   17.6300   21.2373    1.3254 C   0  0  1  0  0  0  0  0  0  0  0  0
   17.4298   22.4276    0.5730 O   0  0  0  0  0  0  0  0  0  0  0  0
   20.2908   20.1543   -4.6565 C   0  0  1  0  0  0  0  0  0  0  0  0
   20.7504   21.1834   -5.4824 O   0  0  0  0  0  0  0  0  0  0  0  0
   20.2472   24.8583    1.6372 C   0  0  2  0  0  0  0  0  0  0  0  0
   19.2013   24.6089    2.5749 O   0  0  0  0  0  0  0  0  0  0  0  0
   20.6043   20.5123   -3.2437 C   0  0  1  0  0  0  0  0  0  0  0  0
   20.1438   19.4748   -2.4270 O   0  0  0  0  0  0  0  0  0  0  0  0
   20.4455   26.3810    1.4853 C   0  0  1  0  0  0  0  0  0  0  0  0
   20.8043   26.9602    2.7504 O   0  0  0  0  0  0  0  0  0  0  0  0
   22.1244   20.6419   -3.0224 C   0  0  0  0  0  0  0  0  0  0  0  0
   22.5860   21.8400   -3.6360 O   0  0  0  0  0  0  0  0  0  0  0  0
   20.3953   28.7174   -1.4436 N   0  0  0  0  0  0  0  0  0  0  0  0
   18.5454   24.3586   -2.4762 N   0  0  0  0  0  0  0  0  0  0  0  0
  1  2  1  0  0  0  0
  1 39  1  0  0  0  0
  3  4  1  0  0  0  0
  5  6  1  0  0  0  0
  5 40  1  0  0  0  0
  9 10  1  6  0  0  0
  9 14  1  0  0  0  0
  9 35  1  0  0  0  0
 10  1  1  0  0  0  0
 11 16  1  0  0  0  0
 11 28  1  0  0  0  0
 11 26  1  1  0  0  0
 12 17  1  0  0  0  0
 12 34  1  0  0  0  0
 12 13  1  6  0  0  0
 14 15  1  6  0  0  0
 14 19  1  0  0  0  0
 16 13  1  6  0  0  0
 16 21  1  0  0  0  0
 17 18  1  1  0  0  0
 17 23  1  0  0  0  0
 18  8  1  0  0  0  0
 19 20  1  6  0  0  0
 19 25  1  0  0  0  0
 20  5  1  0  0  0  0
 21  3  1  1  0  0  0
 21 22  1  0  0  0  0
 21 27  1  0  0  0  0
 23 24  1  6  0  0  0
 23 29  1  0  0  0  0
 25 26  1  1  0  0  0
 25 31  1  0  0  0  0
 27  7  1  6  0  0  0
 27 28  1  0  0  0  0
 29 30  1  6  0  0  0
 29 33  1  0  0  0  0
 31 32  1  1  0  0  0
 31 35  1  0  0  0  0
 33 34  1  0  0  0  0
 33 37  1  6  0  0  0
 35 36  1  1  0  0  0
 37 38  1  0  0  0  0
M  END
>  <CHROM.1>
56.64479538,100.48083914,152.64527383,173.12719068,172.01188243,-111.24760551
-40.31515202,89.66232936,-162.54507709,-103.09221779,72.96414534,19.54308626
22.75300029,-1.23063379,-1.02306719,-1.06296443,-2.24700971

>  <Name>
1nta_lig

>  <RI>
1.05895e+07

>  <Rbt.Current_Directory>
/home/itssahil/PROJECTS/Mol_Feturizer/New_Systems/rnas/1nta

>  <Rbt.Executable>
rbdock ($Id: //depot/dev/client3/rdock/2013.1/src/exe/rbdock.cxx#4 $)

>  <Rbt.Library>
libRbt.so (2013.1, Build901 2013/11/27)

>  <Rbt.Parameter_File>
/export/apps/rDock/src/rDock_2013.1_src/data/scripts/dock_solv.prm

>  <Rbt.Receptor>
prm/blind_docking_100.prm

>  <SCORE>
-25.1457

>  <SCORE.INTER>
-9.46754

>  <SCORE.INTER.CONST>
1

>  <SCORE.INTER.POLAR>
-0.774597

>  <SCORE.INTER.ROT>
11

>  <SCORE.INTER.SOLV>
15.9767

>  <SCORE.INTER.VDW>
-19.9886

>  <SCORE.INTER.norm>
-0.236688

>  <SCORE.INTRA>
-15.8602

>  <SCORE.INTRA.DIHEDRAL>
-5.30656

>  <SCORE.INTRA.DIHEDRAL.0>
19.0336

>  <SCORE.INTRA.POLAR>
0

>  <SCORE.INTRA.POLAR.0>
0

>  <SCORE.INTRA.REPUL>
0

>  <SCORE.INTRA.REPUL.0>
0

>  <SCORE.INTRA.SOLV>
3.04299

>  <SCORE.INTRA.SOLV.lig_0>
-97.5861

>  <SCORE.INTRA.VDW>
-14.7284

>  <SCORE.INTRA.VDW.0>
11.7669

>  <SCORE.INTRA.norm>
-0.396505

>  <SCORE.RESTR>
0.182049

>  <SCORE.RESTR.CAVITY>
0.182049

>  <SCORE.RESTR.norm>
0.00455123

>  <SCORE.SYSTEM>
0

>  <SCORE.SYSTEM.CONST>
0

>  <SCORE.SYSTEM.DIHEDRAL>
0

>  <SCORE.SYSTEM.SOLV>
0

>  <SCORE.SYSTEM.norm>
0

>  <SCORE.heavy>
40

>  <SCORE.norm>
-0.628642

>  <RMSD>
22.637

$$$$
1nta_lig
 OpenBabel11021811403D
libRbt.so/2013.1/901 2013/11/27
 40 42  0  0  0  0  0  0  0  0999 V2000
   20.1528   28.6463   -0.3560 C   0  0  0  0  0  0  0  0  0  0  0  0
   20.8679   28.3889    0.6747 N   0  0  0  0  0  0  0  0  0  0  0  0
   21.2287   19.4994   -3.2722 C   0  0  0  0  0  0  0  0  0  0  0  0
   22.2099   19.8010   -2.6293 O   0  0  0  0  0  0  0  0  0  0  0  0
   19.0609   22.9784    1.4754 C   0  0  0  0  0  0  0  0  0  0  0  0
   18.9549   23.4745    2.6805 N   0  0  0  0  0  0  0  0  0  0  0  0
   18.4669   19.4196   -1.4208 C   0  0  0  0  0  0  0  0  0  0  0  0
   23.9107   22.6299   -5.3217 C   0  0  0  0  0  0  0  0  0  0  0  0
   19.0694   26.6329   -0.9668 C   0  0  2  0  0  0  0  0  0  0  0  0
   18.9775   28.0370   -0.4019 N   0  0  0  0  0  0  0  0  0  0  0  0
   19.6383   22.5192   -2.8032 C   0  0  2  0  0  0  0  0  0  0  0  0
   20.3715   23.0235   -5.6291 C   0  0  1  0  0  0  0  0  0  0  0  0
   19.7252   21.9339   -5.0701 O   0  0  0  0  0  0  0  0  0  0  0  0
   19.4869   25.6443    0.1383 C   0  0  1  0  0  0  0  0  0  0  0  0
   18.4726   25.6469    1.0970 O   0  0  0  0  0  0  0  0  0  0  0  0
   20.2097   21.6074   -3.8836 C   0  0  2  0  0  0  0  0  0  0  0  0
   21.7595   22.7488   -6.1647 C   0  0  1  0  0  0  0  0  0  0  0  0
   22.5436   22.1776   -5.1250 N   0  0  0  0  0  0  0  0  0  0  0  0
   19.6189   24.2072   -0.3831 C   0  0  2  0  0  0  0  0  0  0  0  0
   20.0245   23.2284    0.6540 N   0  0  0  0  0  0  0  0  0  0  0  0
   19.9456   20.2857   -3.3053 C   0  0  1  0  0  0  0  0  0  0  0  0
   18.9512   19.6590   -4.1179 O   0  0  0  0  0  0  0  0  0  0  0  0
   21.7167   21.8653   -7.2341 C   0  0  2  0  0  0  0  0  0  0  0  0
   22.9762   21.8898   -7.8571 O   0  0  0  0  0  0  0  0  0  0  0  0
   20.6493   24.2044   -1.5012 C   0  0  1  0  0  0  0  0  0  0  0  0
   20.7648   22.8743   -1.9820 O   0  0  0  0  0  0  0  0  0  0  0  0
   19.3973   20.4640   -1.9550 C   0  0  1  0  0  0  0  0  0  0  0  0
   18.7783   21.7437   -2.0002 O   0  0  0  0  0  0  0  0  0  0  0  0
   20.6597   22.2871   -8.2207 C   0  0  1  0  0  0  0  0  0  0  0  0
   20.4737   21.2625   -9.1523 O   0  0  0  0  0  0  0  0  0  0  0  0
   20.2091   25.1681   -2.6397 C   0  0  2  0  0  0  0  0  0  0  0  0
   21.1821   25.1438   -3.6828 O   0  0  0  0  0  0  0  0  0  0  0  0
   19.3689   22.5139   -7.5101 C   0  0  1  0  0  0  0  0  0  0  0  0
   19.5654   23.5427   -6.5837 O   0  0  0  0  0  0  0  0  0  0  0  0
   20.0976   26.6009   -2.0776 C   0  0  1  0  0  0  0  0  0  0  0  0
   19.6922   27.5077   -3.1160 O   0  0  0  0  0  0  0  0  0  0  0  0
   18.2645   22.9674   -8.4852 C   0  0  0  0  0  0  0  0  0  0  0  0
   18.8561   23.6896   -9.5592 O   0  0  0  0  0  0  0  0  0  0  0  0
   20.5481   29.4406   -1.2914 N   0  0  0  0  0  0  0  0  0  0  0  0
   18.1791   22.1629    1.0466 N   0  0  0  0  0  0  0  0  0  0  0  0
  1  2  1  0  0  0  0
  1 39  1  0  0  0  0
  3  4  1  0  0  0  0
  5  6  1  0  0  0  0
  5 40  1  0  0  0  0
  9 10  1  1  0  0  0
  9 14  1  0  0  0  0
  9 35  1  0  0  0  0
 10  1  1  0  0  0  0
 11 16  1  0  0  0  0
 11 28  1  0  0  0  0
 11 26  1  1  0  0  0
 12 17  1  0  0  0  0
 12 34  1  0  0  0  0
 12 13  1  6  0  0  0
 14 15  1  1  0  0  0
 14 19  1  0  0  0  0
 16 13  1  6  0  0  0
 16 21  1  0  0  0  0
 17 18  1  1  0  0  0
 17 23  1  0  0  0  0
 18  8  1  0  0  0  0
 19 20  1  1  0  0  0
 19 25  1  0  0  0  0
 20  5  1  0  0  0  0
 21  3  1  1  0  0  0
 21 22  1  0  0  0  0
 21 27  1  0  0  0  0
 23 24  1  6  0  0  0
 23 29  1  0  0  0  0
 25 26  1  6  0  0  0
 25 31  1  0  0  0  0
 27  7  1  6  0  0  0
 27 28  1  0  0  0  0
 29 30  1  6  0  0  0
 29 33  1  0  0  0  0
 31 32  1  6  0  0  0
 31 35  1  0  0  0  0
 33 34  1  0  0  0  0
 33 37  1  6  0  0  0
 35 36  1  6  0  0  0
 37 38  1  0  0  0  0
M  END
>  <CHROM.1>
83.21686593,-84.07328386,144.96948801,74.10537640,80.35208541,-147.09259114
73.03419648,-102.16961057,63.37752000,75.59234449,-29.98034025,20.13153919
23.40653511,-3.25834437,-2.51525016,-1.40791502,-3.01399376

>  <Name>
1nta_lig

>  <RI>
1.05895e+07

>  <Rbt.Current_Directory>
/home/itssahil/PROJECTS/Mol_Feturizer/New_Systems/rnas/1nta

>  <Rbt.Executable>
rbdock ($Id: //depot/dev/client3/rdock/2013.1/src/exe/rbdock.cxx#4 $)

>  <Rbt.Library>
libRbt.so (2013.1, Build901 2013/11/27)

>  <Rbt.Parameter_File>
/export/apps/rDock/src/rDock_2013.1_src/data/scripts/dock_solv.prm

>  <Rbt.Receptor>
prm/blind_docking_100.prm

>  <SCORE>
-17.6125

>  <SCORE.INTER>
-6.88361

>  <SCORE.INTER.CONST>
1

>  <SCORE.INTER.POLAR>
-0.815563

>  <SCORE.INTER.ROT>
11

>  <SCORE.INTER.SOLV>
15.5663

>  <SCORE.INTER.VDW>
-17.9926

>  <SCORE.INTER.norm>
-0.17209

>  <SCORE.INTRA>
-11.7955

>  <SCORE.INTRA.DIHEDRAL>
-5.46449

>  <SCORE.INTRA.DIHEDRAL.0>
19.0336

>  <SCORE.INTRA.POLAR>
0

>  <SCORE.INTRA.POLAR.0>
0

>  <SCORE.INTRA.REPUL>
0

>  <SCORE.INTRA.REPUL.0>
0

>  <SCORE.INTRA.SOLV>
2.3482

>  <SCORE.INTRA.SOLV.lig_0>
-97.5861

>  <SCORE.INTRA.VDW>
-10.2374

>  <SCORE.INTRA.VDW.0>
11.7669

>  <SCORE.INTRA.norm>
-0.294888

>  <SCORE.RESTR>
1.06658

>  <SCORE.RESTR.CAVITY>
1.06658

>  <SCORE.RESTR.norm>
0.0266644

>  <SCORE.SYSTEM>
0

>  <SCORE.SYSTEM.CONST>
0

>  <SCORE.SYSTEM.DIHEDRAL>
0

>  <SCORE.SYSTEM.SOLV>
0

>  <SCORE.SYSTEM.norm>
0

>  <SCORE.heavy>
40

>  <SCORE.norm>
-0.440314

>  <RMSD>
22.771

$$$$
1nta_lig
 OpenBabel11021811403D
libRbt.so/2013.1/901 2013/11/27
 40 42  0  0  0  0  0  0  0  0999 V2000
   20.1235   26.7481    2.6292 C   0  0  0  0  0  0  0  0  0  0  0  0
   20.3820   27.9443    2.2518 N   0  0  0  0  0  0  0  0  0  0  0  0
   20.7686   19.4210   -4.1256 C   0  0  0  0  0  0  0  0  0  0  0  0
   21.8293   19.4437   -4.7103 O   0  0  0  0  0  0  0  0  0  0  0  0
   20.6773   25.4341   -3.1776 C   0  0  0  0  0  0  0  0  0  0  0  0
   21.8408   25.0576   -3.6405 N   0  0  0  0  0  0  0  0  0  0  0  0
   17.4709   19.0109   -3.9915 C   0  0  0  0  0  0  0  0  0  0  0  0
   17.1683   22.6590   -8.0750 C   0  0  0  0  0  0  0  0  0  0  0  0
   19.6159   25.0215    1.0925 C   0  0  2  0  0  0  0  0  0  0  0  0
   19.1336   26.1480    1.9855 N   0  0  0  0  0  0  0  0  0  0  0  0
   18.9380   22.1968   -3.2245 C   0  0  2  0  0  0  0  0  0  0  0  0
   20.0680   21.9327   -6.4303 C   0  0  1  0  0  0  0  0  0  0  0  0
   20.1435   22.5634   -5.1998 O   0  0  0  0  0  0  0  0  0  0  0  0
   19.4475   25.4111   -0.3883 C   0  0  1  0  0  0  0  0  0  0  0  0
   20.2713   26.5138   -0.6195 O   0  0  0  0  0  0  0  0  0  0  0  0
   20.0210   21.7216   -4.1871 C   0  0  2  0  0  0  0  0  0  0  0  0
   19.4159   22.7384   -7.5322 C   0  0  1  0  0  0  0  0  0  0  0  0
   18.1253   23.1456   -7.0955 N   0  0  0  0  0  0  0  0  0  0  0  0
   19.8992   24.2959   -1.3406 C   0  0  2  0  0  0  0  0  0  0  0  0
   19.7466   24.6352   -2.7757 N   0  0  0  0  0  0  0  0  0  0  0  0
   19.6066   20.3332   -4.4139 C   0  0  1  0  0  0  0  0  0  0  0  0
   19.1715   20.2376   -5.7717 O   0  0  0  0  0  0  0  0  0  0  0  0
   20.1650   23.8662   -7.8372 C   0  0  2  0  0  0  0  0  0  0  0  0
   19.6706   24.3924   -9.0429 O   0  0  0  0  0  0  0  0  0  0  0  0
   19.0798   23.0527   -1.0326 C   0  0  1  0  0  0  0  0  0  0  0  0
   19.5038   22.0239   -1.9132 O   0  0  0  0  0  0  0  0  0  0  0  0
   18.4665   20.0334   -3.5387 C   0  0  1  0  0  0  0  0  0  0  0  0
   17.8559   21.2996   -3.3218 O   0  0  0  0  0  0  0  0  0  0  0  0
   21.6166   23.5014   -8.0058 C   0  0  1  0  0  0  0  0  0  0  0  0
   22.3744   24.6735   -8.0713 O   0  0  0  0  0  0  0  0  0  0  0  0
   19.2821   22.6299    0.4504 C   0  0  2  0  0  0  0  0  0  0  0  0
   18.5145   21.4573    0.7169 O   0  0  0  0  0  0  0  0  0  0  0  0
   22.0776   22.7109   -6.8290 C   0  0  1  0  0  0  0  0  0  0  0  0
   21.3158   21.5395   -6.7753 O   0  0  0  0  0  0  0  0  0  0  0  0
   18.8081   23.7722    1.3733 C   0  0  1  0  0  0  0  0  0  0  0  0
   18.9861   23.4001    2.7497 O   0  0  0  0  0  0  0  0  0  0  0  0
   23.5564   22.3006   -6.9739 C   0  0  0  0  0  0  0  0  0  0  0  0
   23.9773   21.6400   -5.7858 O   0  0  0  0  0  0  0  0  0  0  0  0
   20.7770   26.1648    3.5752 N   0  0  0  0  0  0  0  0  0  0  0  0
   20.4081   26.6766   -3.0766 N   0  0  0  0  0  0  0  0  0  0  0  0
  1  2  1  0  0  0  0
  1 39  1  0  0  0  0
  3  4  1  0  0  0  0
  5  6  1  0  0  0  0
  5 40  1  0  0  0  0
  9 10  1  1  0  0  0
  9 14  1  0  0  0  0
  9 35  1  0  0  0  0
 10  1  1  0  0  0  0
 11 16  1  0  0  0  0
 11 28  1  0  0  0  0
 11 26  1  1  0  0  0
 12 17  1  0  0  0  0
 12 34  1  0  0  0  0
 12 13  1  1  0  0  0
 14 15  1  6  0  0  0
 14 19  1  0  0  0  0
 16 13  1  6  0  0  0
 16 21  1  0  0  0  0
 17 18  1  1  0  0  0
 17 23  1  0  0  0  0
 18  8  1  0  0  0  0
 19 20  1  6  0  0  0
 19 25  1  0  0  0  0
 20  5  1  0  0  0  0
 21  3  1  1  0  0  0
 21 22  1  0  0  0  0
 21 27  1  0  0  0  0
 23 24  1  6  0  0  0
 23 29  1  0  0  0  0
 25 26  1  6  0  0  0
 25 31  1  0  0  0  0
 27  7  1  6  0  0  0
 27 28  1  0  0  0  0
 29 30  1  1  0  0  0
 29 33  1  0  0  0  0
 31 32  1  1  0  0  0
 31 35  1  0  0  0  0
 33 34  1  0  0  0  0
 33 37  1  6  0  0  0
 35 36  1  1  0  0  0
 37 38  1  0  0  0  0
M  END
>  <CHROM.1>
-110.38919729,110.40182284,144.84720405,146.05573483,-127.74533404,-123.68581071
76.84707983,88.01758154,-60.90308391,-78.20632261,175.57145389,20.01590099
23.15612025,-3.34501616,-1.80393148,-1.14402578,-2.12700582

>  <Name>
1nta_lig

>  <RI>
1.05895e+07

>  <Rbt.Current_Directory>
/home/itssahil/PROJECTS/Mol_Feturizer/New_Systems/rnas/1nta

>  <Rbt.Executable>
rbdock ($Id: //depot/dev/client3/rdock/2013.1/src/exe/rbdock.cxx#4 $)

>  <Rbt.Library>
libRbt.so (2013.1, Build901 2013/11/27)

>  <Rbt.Parameter_File>
/export/apps/rDock/src/rDock_2013.1_src/data/scripts/dock_solv.prm

>  <Rbt.Receptor>
prm/blind_docking_100.prm

>  <SCORE>
-12.964

>  <SCORE.INTER>
-13.9504

>  <SCORE.INTER.CONST>
1

>  <SCORE.INTER.POLAR>
-1.91028

>  <SCORE.INTER.ROT>
11

>  <SCORE.INTER.SOLV>
18.1077

>  <SCORE.INTER.VDW>
-19.9018

>  <SCORE.INTER.norm>
-0.348759

>  <SCORE.INTRA>
0.712466

>  <SCORE.INTRA.DIHEDRAL>
1.88186

>  <SCORE.INTRA.DIHEDRAL.0>
19.0336

>  <SCORE.INTRA.POLAR>
0

>  <SCORE.INTRA.POLAR.0>
0

>  <SCORE.INTRA.REPUL>
0.127988

>  <SCORE.INTRA.REPUL.0>
0

>  <SCORE.INTRA.SOLV>
-0.991953

>  <SCORE.INTRA.SOLV.lig_0>
-97.5861

>  <SCORE.INTRA.VDW>
-0.372427

>  <SCORE.INTRA.VDW.0>
11.7669

>  <SCORE.INTRA.norm>
0.0178117

>  <SCORE.RESTR>
0.273894

>  <SCORE.RESTR.CAVITY>
0.273894

>  <SCORE.RESTR.norm>
0.00684735

>  <SCORE.SYSTEM>
0

>  <SCORE.SYSTEM.CONST>
0

>  <SCORE.SYSTEM.DIHEDRAL>
0

>  <SCORE.SYSTEM.SOLV>
0

>  <SCORE.SYSTEM.norm>
0

>  <SCORE.heavy>
40

>  <SCORE.norm>
-0.3241

>  <RMSD>
22.803

$$$$
1nta_lig
 OpenBabel11021811403D
libRbt.so/2013.1/901 2013/11/27
 40 42  0  0  0  0  0  0  0  0999 V2000
   19.3921   27.7663    1.0589 C   0  0  0  0  0  0  0  0  0  0  0  0
   18.3270   27.8343    1.7667 N   0  0  0  0  0  0  0  0  0  0  0  0
   21.0510   19.8014   -3.4760 C   0  0  0  0  0  0  0  0  0  0  0  0
   21.3595   18.6891   -3.8432 O   0  0  0  0  0  0  0  0  0  0  0  0
   22.1078   24.4263   -2.9144 C   0  0  0  0  0  0  0  0  0  0  0  0
   22.6000   25.4548   -3.5546 N   0  0  0  0  0  0  0  0  0  0  0  0
   17.8997   18.8009   -3.1162 C   0  0  0  0  0  0  0  0  0  0  0  0
   17.4753   22.3723   -7.9706 C   0  0  0  0  0  0  0  0  0  0  0  0
   20.4406   25.6449    1.0277 C   0  0  2  0  0  0  0  0  0  0  0  0
   20.3800   27.0552    1.5813 N   0  0  0  0  0  0  0  0  0  0  0  0
   18.7773   22.2487   -2.6337 C   0  0  2  0  0  0  0  0  0  0  0  0
   19.9931   21.9976   -5.8795 C   0  0  1  0  0  0  0  0  0  0  0  0
   19.7945   22.6909   -4.6974 O   0  0  0  0  0  0  0  0  0  0  0  0
   20.6377   25.6842   -0.4996 C   0  0  1  0  0  0  0  0  0  0  0  0
   21.8749   26.2841   -0.7392 O   0  0  0  0  0  0  0  0  0  0  0  0
   19.8821   21.9146   -3.6302 C   0  0  2  0  0  0  0  0  0  0  0  0
   19.6028   22.7395   -7.1389 C   0  0  1  0  0  0  0  0  0  0  0  0
   18.2481   23.1553   -7.0209 N   0  0  0  0  0  0  0  0  0  0  0  0
   20.6829   24.2809   -1.1188 C   0  0  2  0  0  0  0  0  0  0  0  0
   20.8671   24.2809   -2.5900 N   0  0  0  0  0  0  0  0  0  0  0  0
   19.7255   20.4611   -3.7473 C   0  0  1  0  0  0  0  0  0  0  0  0
   19.2504   20.1913   -5.0677 O   0  0  0  0  0  0  0  0  0  0  0  0
   20.4025   23.8578   -7.3284 C   0  0  2  0  0  0  0  0  0  0  0  0
   20.1886   24.3170   -8.6393 O   0  0  0  0  0  0  0  0  0  0  0  0
   19.3802   23.5739   -0.7796 C   0  0  1  0  0  0  0  0  0  0  0  0
   19.4288   22.2761   -1.3513 O   0  0  0  0  0  0  0  0  0  0  0  0
   18.7062   20.0188   -2.7875 C   0  0  1  0  0  0  0  0  0  0  0  0
   17.8798   21.1627   -2.6104 O   0  0  0  0  0  0  0  0  0  0  0  0
   21.8548   23.4998   -7.1519 C   0  0  1  0  0  0  0  0  0  0  0  0
   22.6099   24.6747   -7.1085 O   0  0  0  0  0  0  0  0  0  0  0  0
   19.1991   23.4928    0.7629 C   0  0  2  0  0  0  0  0  0  0  0  0
   17.9781   22.8178    1.0610 O   0  0  0  0  0  0  0  0  0  0  0  0
   22.0421   22.7749   -5.8627 C   0  0  1  0  0  0  0  0  0  0  0  0
   21.2858   21.6001   -5.9185 O   0  0  0  0  0  0  0  0  0  0  0  0
   19.1491   24.9213    1.3443 C   0  0  1  0  0  0  0  0  0  0  0  0
   18.9810   24.8676    2.7704 O   0  0  0  0  0  0  0  0  0  0  0  0
   23.5156   22.3728   -5.6547 C   0  0  0  0  0  0  0  0  0  0  0  0
   23.8665   21.3732   -6.6049 O   0  0  0  0  0  0  0  0  0  0  0  0
   19.5019   28.3530   -0.0839 N   0  0  0  0  0  0  0  0  0  0  0  0
   22.8722   23.4597   -2.5865 N   0  0  0  0  0  0  0  0  0  0  0  0
  1  2  1  0  0  0  0
  1 39  1  0  0  0  0
  3  4  1  0  0  0  0
  5  6  1  0  0  0  0
  5 40  1  0  0  0  0
  9 10  1  6  0  0  0
  9 14  1  0  0  0  0
  9 35  1  0  0  0  0
 10  1  1  0  0  0  0
 11 16  1  0  0  0  0
 11 28  1  0  0  0  0
 11 26  1  1  0  0  0
 12 17  1  0  0  0  0
 12 34  1  0  0  0  0
 12 13  1  1  0  0  0
 14 15  1  1  0  0  0
 14 19  1  0  0  0  0
 16 13  1  6  0  0  0
 16 21  1  0  0  0  0
 17 18  1  1  0  0  0
 17 23  1  0  0  0  0
 18  8  1  0  0  0  0
 19 20  1  6  0  0  0
 19 25  1  0  0  0  0
 20  5  1  0  0  0  0
 21  3  1  1  0  0  0
 21 22  1  0  0  0  0
 21 27  1  0  0  0  0
 23 24  1  6  0  0  0
 23 29  1  0  0  0  0
 25 26  1  1  0  0  0
 25 31  1  0  0  0  0
 27  7  1  6  0  0  0
 27 28  1  0  0  0  0
 29 30  1  1  0  0  0
 29 33  1  0  0  0  0
 31 32  1  6  0  0  0
 31 35  1  0  0  0  0
 33 34  1  0  0  0  0
 33 37  1  6  0  0  0
 35 36  1  1  0  0  0
 37 38  1  0  0  0  0
M  END
>  <CHROM.1>
59.37496828,98.18407229,116.01921879,166.72480530,-137.42482740,-110.87437604
81.72649636,-114.93194543,-158.33533374,-95.65638662,-68.35927328,20.23158482
23.28843616,-3.10544828,-1.83051200,-1.04989708,-2.28217682

>  <Name>
1nta_lig

>  <RI>
1.05895e+07

>  <Rbt.Current_Directory>
/home/itssahil/PROJECTS/Mol_Feturizer/New_Systems/rnas/1nta

>  <Rbt.Executable>
rbdock ($Id: //depot/dev/client3/rdock/2013.1/src/exe/rbdock.cxx#4 $)

>  <Rbt.Library>
libRbt.so (2013.1, Build901 2013/11/27)

>  <Rbt.Parameter_File>
/export/apps/rDock/src/rDock_2013.1_src/data/scripts/dock_solv.prm

>  <Rbt.Receptor>
prm/blind_docking_100.prm

>  <SCORE>
-9.75955

>  <SCORE.INTER>
-12.7698

>  <SCORE.INTER.CONST>
1

>  <SCORE.INTER.POLAR>
-1.98033

>  <SCORE.INTER.ROT>
11

>  <SCORE.INTER.SOLV>
19.1397

>  <SCORE.INTER.VDW>
-19.2254

>  <SCORE.INTER.norm>
-0.319246

>  <SCORE.INTRA>
2.85975

>  <SCORE.INTRA.DIHEDRAL>
3.39274

>  <SCORE.INTRA.DIHEDRAL.0>
19.0336

>  <SCORE.INTRA.POLAR>
0

>  <SCORE.INTRA.POLAR.0>
0

>  <SCORE.INTRA.REPUL>
0.0642989

>  <SCORE.INTRA.REPUL.0>
0

>  <SCORE.INTRA.SOLV>
4.11645

>  <SCORE.INTRA.SOLV.lig_0>
-97.5861

>  <SCORE.INTRA.VDW>
-1.21634

>  <SCORE.INTRA.VDW.0>
11.7669

>  <SCORE.INTRA.norm>
0.0714937

>  <SCORE.RESTR>
0.150532

>  <SCORE.RESTR.CAVITY>
0.150532

>  <SCORE.RESTR.norm>
0.0037633

>  <SCORE.SYSTEM>
0

>  <SCORE.SYSTEM.CONST>
0

>  <SCORE.SYSTEM.DIHEDRAL>
0

>  <SCORE.SYSTEM.SOLV>
0

>  <SCORE.SYSTEM.norm>
0

>  <SCORE.heavy>
40

>  <SCORE.norm>
-0.243989

>  <RMSD>
22.877

$$$$
1nta_lig
 OpenBabel11021811403D
libRbt.so/2013.1/901 2013/11/27
 40 42  0  0  0  0  0  0  0  0999 V2000
   19.1758   26.6578    3.1962 C   0  0  0  0  0  0  0  0  0  0  0  0
   20.2993   26.3340    3.7187 N   0  0  0  0  0  0  0  0  0  0  0  0
   21.3365   19.6003   -3.2768 C   0  0  0  0  0  0  0  0  0  0  0  0
   22.1794   19.5114   -4.1422 O   0  0  0  0  0  0  0  0  0  0  0  0
   20.8382   26.5074   -2.0381 C   0  0  0  0  0  0  0  0  0  0  0  0
   22.1122   26.4888   -1.7442 N   0  0  0  0  0  0  0  0  0  0  0  0
   18.3926   18.8638   -1.9159 C   0  0  0  0  0  0  0  0  0  0  0  0
   23.8218   22.6803   -5.0338 C   0  0  0  0  0  0  0  0  0  0  0  0
   19.2380   24.8409    1.6812 C   0  0  2  0  0  0  0  0  0  0  0  0
   18.4662   25.6547    2.7015 N   0  0  0  0  0  0  0  0  0  0  0  0
   19.1382   22.2288   -2.9214 C   0  0  2  0  0  0  0  0  0  0  0  0
   20.3670   22.9662   -5.6420 C   0  0  1  0  0  0  0  0  0  0  0  0
   19.6827   21.8588   -5.1698 O   0  0  0  0  0  0  0  0  0  0  0  0
   19.2714   25.5805    0.3304 C   0  0  1  0  0  0  0  0  0  0  0  0
   19.9679   26.7731    0.5317 O   0  0  0  0  0  0  0  0  0  0  0  0
   20.0340   21.5295   -3.9380 C   0  0  2  0  0  0  0  0  0  0  0  0
   21.7782   22.7010   -6.1183 C   0  0  1  0  0  0  0  0  0  0  0  0
   22.5023   22.0721   -5.0685 N   0  0  0  0  0  0  0  0  0  0  0  0
   20.0219   24.7900   -0.7498 C   0  0  2  0  0  0  0  0  0  0  0  0
   20.0697   25.4709   -2.0659 N   0  0  0  0  0  0  0  0  0  0  0  0
   19.9458   20.1387   -3.4812 C   0  0  1  0  0  0  0  0  0  0  0  0
   19.2280   19.4099   -4.4791 O   0  0  0  0  0  0  0  0  0  0  0  0
   21.7828   21.8698   -7.2297 C   0  0  2  0  0  0  0  0  0  0  0  0
   23.0730   21.9093   -7.7855 O   0  0  0  0  0  0  0  0  0  0  0  0
   19.3355   23.4428   -0.9102 C   0  0  1  0  0  0  0  0  0  0  0  0
   20.0353   22.7149   -1.9073 O   0  0  0  0  0  0  0  0  0  0  0  0
   19.1734   20.1013   -2.2332 C   0  0  1  0  0  0  0  0  0  0  0  0
   18.3324   21.2455   -2.3137 O   0  0  0  0  0  0  0  0  0  0  0  0
   20.7821   22.3503   -8.2478 C   0  0  1  0  0  0  0  0  0  0  0  0
   20.6351   21.3733   -9.2359 O   0  0  0  0  0  0  0  0  0  0  0  0
   19.3392   22.6738    0.4416 C   0  0  2  0  0  0  0  0  0  0  0  0
   18.7010   21.4097    0.2684 O   0  0  0  0  0  0  0  0  0  0  0  0
   19.4584   22.5581   -7.5942 C   0  0  1  0  0  0  0  0  0  0  0  0
   19.6161   23.5395   -6.6106 O   0  0  0  0  0  0  0  0  0  0  0  0
   18.5683   23.4958    1.4957 C   0  0  1  0  0  0  0  0  0  0  0  0
   18.5597   22.8006    2.7532 O   0  0  0  0  0  0  0  0  0  0  0  0
   18.4101   23.0702   -8.6017 C   0  0  0  0  0  0  0  0  0  0  0  0
   19.0563   23.8766   -9.5801 O   0  0  0  0  0  0  0  0  0  0  0  0
   18.7612   27.8777    3.1482 N   0  0  0  0  0  0  0  0  0  0  0  0
   20.2654   27.6160   -2.3013 N   0  0  0  0  0  0  0  0  0  0  0  0
  1  2  1  0  0  0  0
  1 39  1  0  0  0  0
  3  4  1  0  0  0  0
  5  6  1  0  0  0  0
  5 40  1  0  0  0  0
  9 10  1  1  0  0  0
  9 14  1  0  0  0  0
  9 35  1  0  0  0  0
 10  1  1  0  0  0  0
 11 16  1  0  0  0  0
 11 28  1  0  0  0  0
 11 26  1  1  0  0  0
 12 17  1  0  0  0  0
 12 34  1  0  0  0  0
 12 13  1  6  0  0  0
 14 15  1  1  0  0  0
 14 19  1  0  0  0  0
 16 13  1  6  0  0  0
 16 21  1  0  0  0  0
 17 18  1  1  0  0  0
 17 23  1  0  0  0  0
 18  8  1  0  0  0  0
 19 20  1  6  0  0  0
 19 25  1  0  0  0  0
 20  5  1  0  0  0  0
 21  3  1  1  0  0  0
 21 22  1  0  0  0  0
 21 27  1  0  0  0  0
 23 24  1  6  0  0  0
 23 29  1  0  0  0  0
 25 26  1  6  0  0  0
 25 31  1  0  0  0  0
 27  7  1  6  0  0  0
 27 28  1  0  0  0  0
 29 30  1  6  0  0  0
 29 33  1  0  0  0  0
 31 32  1  6  0  0  0
 31 35  1  0  0  0  0
 33 34  1  0  0  0  0
 33 37  1  6  0  0  0
 35 36  1  1  0  0  0
 37 38  1  0  0  0  0
M  END
>  <CHROM.1>
-78.01884147,-55.33485431,177.65065964,78.71347965,91.03933321,-137.90040300
70.29277945,59.51894505,-60.55056152,-127.85480175,-32.11152172,20.04704435
23.11957782,-2.85882335,-2.18999913,-1.32232420,-2.55572127

>  <Name>
1nta_lig

>  <RI>
1.05895e+07

>  <Rbt.Current_Directory>
/home/itssahil/PROJECTS/Mol_Feturizer/New_Systems/rnas/1nta

>  <Rbt.Executable>
rbdock ($Id: //depot/dev/client3/rdock/2013.1/src/exe/rbdock.cxx#4 $)

>  <Rbt.Library>
libRbt.so (2013.1, Build901 2013/11/27)

>  <Rbt.Parameter_File>
/export/apps/rDock/src/rDock_2013.1_src/data/scripts/dock_solv.prm

>  <Rbt.Receptor>
prm/blind_docking_100.prm

>  <SCORE>
-17.8525

>  <SCORE.INTER>
-3.08016

>  <SCORE.INTER.CONST>
1

>  <SCORE.INTER.POLAR>
-0.48397

>  <SCORE.INTER.ROT>
11

>  <SCORE.INTER.SOLV>
16.6546

>  <SCORE.INTER.VDW>
-16.9251

>  <SCORE.INTER.norm>
-0.0770039

>  <SCORE.INTRA>
-15.8702

>  <SCORE.INTRA.DIHEDRAL>
-1.30449

>  <SCORE.INTRA.DIHEDRAL.0>
19.0336

>  <SCORE.INTRA.POLAR>
0

>  <SCORE.INTRA.POLAR.0>
0

>  <SCORE.INTRA.REPUL>
0.0165306

>  <SCORE.INTRA.REPUL.0>
0

>  <SCORE.INTRA.SOLV>
-2.11607

>  <SCORE.INTRA.SOLV.lig_0>
-97.5861

>  <SCORE.INTRA.VDW>
-14.2426

>  <SCORE.INTRA.VDW.0>
11.7669

>  <SCORE.INTRA.norm>
-0.396755

>  <SCORE.RESTR>
1.09783

>  <SCORE.RESTR.CAVITY>
1.09783

>  <SCORE.RESTR.norm>
0.0274458

>  <SCORE.SYSTEM>
0

>  <SCORE.SYSTEM.CONST>
0

>  <SCORE.SYSTEM.DIHEDRAL>
0

>  <SCORE.SYSTEM.SOLV>
0

>  <SCORE.SYSTEM.norm>
0

>  <SCORE.heavy>
40

>  <SCORE.norm>
-0.446314

>  <RMSD>
22.884

$$$$
1nta_lig
 OpenBabel11021811403D
libRbt.so/2013.1/901 2013/11/27
 40 42  0  0  0  0  0  0  0  0999 V2000
   19.0630   26.8996   -0.8325 C   0  0  0  0  0  0  0  0  0  0  0  0
   18.0158   26.8850   -1.5695 N   0  0  0  0  0  0  0  0  0  0  0  0
   19.9715   21.0510   -5.7092 C   0  0  0  0  0  0  0  0  0  0  0  0
   18.7710   21.1288   -5.5680 O   0  0  0  0  0  0  0  0  0  0  0  0
   21.1362   24.0342   -6.1538 C   0  0  0  0  0  0  0  0  0  0  0  0
   22.0961   23.1615   -6.3178 N   0  0  0  0  0  0  0  0  0  0  0  0
   22.8337   19.3852   -6.0158 C   0  0  0  0  0  0  0  0  0  0  0  0
   17.9912   17.5762   -2.4068 C   0  0  0  0  0  0  0  0  0  0  0  0
   21.0301   26.5288   -2.0949 C   0  0  2  0  0  0  0  0  0  0  0  0
   20.1229   27.4951   -1.3584 N   0  0  0  0  0  0  0  0  0  0  0  0
   22.2753   21.5330   -3.1935 C   0  0  2  0  0  0  0  0  0  0  0  0
   18.9053   20.5359   -2.4316 C   0  0  1  0  0  0  0  0  0  0  0  0
   20.2873   20.6022   -2.3748 O   0  0  0  0  0  0  0  0  0  0  0  0
   20.2541   25.8363   -3.2312 C   0  0  1  0  0  0  0  0  0  0  0  0
   19.8748   26.8297   -4.1351 O   0  0  0  0  0  0  0  0  0  0  0  0
   20.8147   21.1740   -3.4443 C   0  0  2  0  0  0  0  0  0  0  0  0
   18.2566   19.6414   -1.3982 C   0  0  1  0  0  0  0  0  0  0  0  0
   18.8272   18.3426   -1.4981 N   0  0  0  0  0  0  0  0  0  0  0  0
   21.1188   24.8269   -3.9981 C   0  0  2  0  0  0  0  0  0  0  0  0
   20.4019   24.1372   -5.0974 N   0  0  0  0  0  0  0  0  0  0  0  0
   20.9183   20.4412   -4.7105 C   0  0  1  0  0  0  0  0  0  0  0  0
   20.6037   19.0746   -4.4357 O   0  0  0  0  0  0  0  0  0  0  0  0
   18.4647   20.1274   -0.1151 C   0  0  2  0  0  0  0  0  0  0  0  0
   17.6022   19.4312    0.7489 O   0  0  0  0  0  0  0  0  0  0  0  0
   21.6257   23.7915   -3.0068 C   0  0  1  0  0  0  0  0  0  0  0  0
   22.4273   22.8630   -3.7203 O   0  0  0  0  0  0  0  0  0  0  0  0
   22.3065   20.5123   -5.1831 C   0  0  1  0  0  0  0  0  0  0  0  0
   23.0673   20.6859   -3.9939 O   0  0  0  0  0  0  0  0  0  0  0  0
   18.1543   21.6001   -0.0556 C   0  0  1  0  0  0  0  0  0  0  0  0
   18.5977   22.1083    1.1681 O   0  0  0  0  0  0  0  0  0  0  0  0
   22.4477   24.4824   -1.8817 C   0  0  2  0  0  0  0  0  0  0  0  0
   22.9228   23.4947   -0.9684 O   0  0  0  0  0  0  0  0  0  0  0  0
   18.8773   22.3120   -1.1479 C   0  0  1  0  0  0  0  0  0  0  0  0
   18.4236   21.7986   -2.3669 O   0  0  0  0  0  0  0  0  0  0  0  0
   21.5415   25.4801   -1.1303 C   0  0  1  0  0  0  0  0  0  0  0  0
   22.2835   26.1290   -0.0846 O   0  0  0  0  0  0  0  0  0  0  0  0
   18.5687   23.8222   -1.1328 C   0  0  0  0  0  0  0  0  0  0  0  0
   17.1868   24.0203   -1.4086 O   0  0  0  0  0  0  0  0  0  0  0  0
   19.0901   26.3672    0.3414 N   0  0  0  0  0  0  0  0  0  0  0  0
   20.8877   24.8823   -7.0732 N   0  0  0  0  0  0  0  0  0  0  0  0
  1  2  1  0  0  0  0
  1 39  1  0  0  0  0
  3  4  1  0  0  0  0
  5  6  1  0  0  0  0
  5 40  1  0  0  0  0
  9 10  1  1  0  0  0
  9 14  1  0  0  0  0
  9 35  1  0  0  0  0
 10  1  1  0  0  0  0
 11 16  1  0  0  0  0
 11 28  1  0  0  0  0
 11 26  1  6  0  0  0
 12 17  1  0  0  0  0
 12 34  1  0  0  0  0
 12 13  1  1  0  0  0
 14 15  1  6  0  0  0
 14 19  1  0  0  0  0
 16 13  1  1  0  0  0
 16 21  1  0  0  0  0
 17 18  1  1  0  0  0
 17 23  1  0  0  0  0
 18  8  1  0  0  0  0
 19 20  1  6  0  0  0
 19 25  1  0  0  0  0
 20  5  1  0  0  0  0
 21  3  1  6  0  0  0
 21 22  1  0  0  0  0
 21 27  1  0  0  0  0
 23 24  1  1  0  0  0
 23 29  1  0  0  0  0
 25 26  1  6  0  0  0
 25 31  1  0  0  0  0
 27  7  1  1  0  0  0
 27 28  1  0  0  0  0
 29 30  1  1  0  0  0
 29 33  1  0  0  0  0
 31 32  1  1  0  0  0
 31 35  1  0  0  0  0
 33 34  1  0  0  0  0
 33 37  1  6  0  0  0
 35 36  1  1  0  0  0
 37 38  1  0  0  0  0
M  END
>  <CHROM.1>
59.14623010,-92.51543598,63.79951003,167.46347777,166.09409971,-92.34760933
138.12912248,77.63827325,-59.87384096,-144.48636113,-64.26271083,20.19271410
22.74180723,-2.71108997,1.47001170,0.98487720,0.29323269

>  <Name>
1nta_lig

>  <RI>
1.05895e+07

>  <Rbt.Current_Directory>
/home/itssahil/PROJECTS/Mol_Feturizer/New_Systems/rnas/1nta

>  <Rbt.Executable>
rbdock ($Id: //depot/dev/client3/rdock/2013.1/src/exe/rbdock.cxx#4 $)

>  <Rbt.Library>
libRbt.so (2013.1, Build901 2013/11/27)

>  <Rbt.Parameter_File>
/export/apps/rDock/src/rDock_2013.1_src/data/scripts/dock_solv.prm

>  <Rbt.Receptor>
prm/blind_docking_100.prm

>  <SCORE>
-30.7636

>  <SCORE.INTER>
-13.277

>  <SCORE.INTER.CONST>
1

>  <SCORE.INTER.POLAR>
-0.965261

>  <SCORE.INTER.ROT>
11

>  <SCORE.INTER.SOLV>
17.6268

>  <SCORE.INTER.VDW>
-22.4427

>  <SCORE.INTER.norm>
-0.331926

>  <SCORE.INTRA>
-18.2832

>  <SCORE.INTRA.DIHEDRAL>
-9.48136

>  <SCORE.INTRA.DIHEDRAL.0>
19.0336

>  <SCORE.INTRA.POLAR>
0

>  <SCORE.INTRA.POLAR.0>
0

>  <SCORE.INTRA.REPUL>
0

>  <SCORE.INTRA.REPUL.0>
0

>  <SCORE.INTRA.SOLV>
7.83036

>  <SCORE.INTRA.SOLV.lig_0>
-97.5861

>  <SCORE.INTRA.VDW>
-17.4577

>  <SCORE.INTRA.VDW.0>
11.7669

>  <SCORE.INTRA.norm>
-0.457081

>  <SCORE.RESTR>
0.796698

>  <SCORE.RESTR.CAVITY>
0.796698

>  <SCORE.RESTR.norm>
0.0199174

>  <SCORE.SYSTEM>
0

>  <SCORE.SYSTEM.CONST>
0

>  <SCORE.SYSTEM.DIHEDRAL>
0

>  <SCORE.SYSTEM.SOLV>
0

>  <SCORE.SYSTEM.norm>
0

>  <SCORE.heavy>
40

>  <SCORE.norm>
-0.76909

>  <RMSD>
22.909

$$$$
1nta_lig
 OpenBabel11021811403D
libRbt.so/2013.1/901 2013/11/27
 40 42  0  0  0  0  0  0  0  0999 V2000
   18.0513   28.0926    0.1733 C   0  0  0  0  0  0  0  0  0  0  0  0
   17.6129   28.0762    1.3765 N   0  0  0  0  0  0  0  0  0  0  0  0
   21.4247   19.5314   -3.8129 C   0  0  0  0  0  0  0  0  0  0  0  0
   22.4019   19.7179   -3.1219 O   0  0  0  0  0  0  0  0  0  0  0  0
   18.6983   22.4171    0.8202 C   0  0  0  0  0  0  0  0  0  0  0  0
   18.4550   22.5200    2.1008 N   0  0  0  0  0  0  0  0  0  0  0  0
   18.6363   19.3857   -2.0060 C   0  0  0  0  0  0  0  0  0  0  0  0
   18.2003   20.6441   -8.2062 C   0  0  0  0  0  0  0  0  0  0  0  0
   19.4347   26.4325   -0.7916 C   0  0  2  0  0  0  0  0  0  0  0  0
   19.3094   27.7077    0.0191 N   0  0  0  0  0  0  0  0  0  0  0  0
   19.9509   22.5543   -3.0655 C   0  0  2  0  0  0  0  0  0  0  0  0
   20.5348   21.4844   -6.4644 C   0  0  1  0  0  0  0  0  0  0  0  0
   20.0460   22.1902   -5.3780 O   0  0  0  0  0  0  0  0  0  0  0  0
   19.5499   25.2174    0.1482 C   0  0  1  0  0  0  0  0  0  0  0  0
   18.3581   25.1418    0.8705 O   0  0  0  0  0  0  0  0  0  0  0  0
   20.5002   21.7295   -4.2245 C   0  0  2  0  0  0  0  0  0  0  0  0
   20.0587   21.9661   -7.8172 C   0  0  1  0  0  0  0  0  0  0  0  0
   18.6367   21.9760   -7.8221 N   0  0  0  0  0  0  0  0  0  0  0  0
   19.7032   23.8977   -0.6197 C   0  0  2  0  0  0  0  0  0  0  0  0
   19.8217   22.7062    0.2545 N   0  0  0  0  0  0  0  0  0  0  0  0
   20.1750   20.3698   -3.7814 C   0  0  1  0  0  0  0  0  0  0  0  0
   19.1676   19.8673   -4.6616 O   0  0  0  0  0  0  0  0  0  0  0  0
   20.5191   23.2483   -8.0817 C   0  0  2  0  0  0  0  0  0  0  0  0
   20.2965   23.5078   -9.4448 O   0  0  0  0  0  0  0  0  0  0  0  0
   20.9443   24.0015   -1.4919 C   0  0  1  0  0  0  0  0  0  0  0  0
   21.0792   22.7804   -2.2022 O   0  0  0  0  0  0  0  0  0  0  0  0
   19.6155   20.4378   -2.4257 C   0  0  1  0  0  0  0  0  0  0  0  0
   19.0492   21.7404   -2.3512 O   0  0  0  0  0  0  0  0  0  0  0  0
   21.9925   23.3477   -7.7853 C   0  0  1  0  0  0  0  0  0  0  0  0
   22.3743   24.6912   -7.8274 O   0  0  0  0  0  0  0  0  0  0  0  0
   20.8124   25.2008   -2.4732 C   0  0  2  0  0  0  0  0  0  0  0  0
   21.9804   25.2752   -3.2890 O   0  0  0  0  0  0  0  0  0  0  0  0
   22.2675   22.8255   -6.4163 C   0  0  1  0  0  0  0  0  0  0  0  0
   21.8856   21.4806   -6.3866 O   0  0  0  0  0  0  0  0  0  0  0  0
   20.6703   26.5065   -1.6632 C   0  0  1  0  0  0  0  0  0  0  0  0
   20.5480   27.6280   -2.5532 O   0  0  0  0  0  0  0  0  0  0  0  0
   23.7710   22.8919   -6.0826 C   0  0  0  0  0  0  0  0  0  0  0  0
   24.0040   22.2376   -4.8406 O   0  0  0  0  0  0  0  0  0  0  0  0
   17.3225   28.4630   -0.8236 N   0  0  0  0  0  0  0  0  0  0  0  0
   17.7918   21.9802    0.0367 N   0  0  0  0  0  0  0  0  0  0  0  0
  1  2  1  0  0  0  0
  1 39  1  0  0  0  0
  3  4  1  0  0  0  0
  5  6  1  0  0  0  0
  5 40  1  0  0  0  0
  9 10  1  1  0  0  0
  9 14  1  0  0  0  0
  9 35  1  0  0  0  0
 10  1  1  0  0  0  0
 11 16  1  0  0  0  0
 11 28  1  0  0  0  0
 11 26  1  1  0  0  0
 12 17  1  0  0  0  0
 12 34  1  0  0  0  0
 12 13  1  1  0  0  0
 14 15  1  6  0  0  0
 14 19  1  0  0  0  0
 16 13  1  6  0  0  0
 16 21  1  0  0  0  0
 17 18  1  1  0  0  0
 17 23  1  0  0  0  0
 18  8  1  0  0  0  0
 19 20  1  1  0  0  0
 19 25  1  0  0  0  0
 20  5  1  0  0  0  0
 21  3  1  6  0  0  0
 21 22  1  0  0  0  0
 21 27  1  0  0  0  0
 23 24  1  6  0  0  0
 23 29  1  0  0  0  0
 25 26  1  6  0  0  0
 25 31  1  0  0  0  0
 27  7  1  6  0  0  0
 27 28  1  0  0  0  0
 29 30  1  1  0  0  0
 29 33  1  0  0  0  0
 31 32  1  6  0  0  0
 31 35  1  0  0  0  0
 33 34  1  0  0  0  0
 33 37  1  6  0  0  0
 35 36  1  6  0  0  0
 37 38  1  0  0  0  0
M  END
>  <CHROM.1>
-96.42388692,115.14463413,150.84578425,-179.69334209,179.06536784,-86.49925099
72.00019406,-112.20931808,64.33895190,61.97476792,-173.00170548,20.16659819
23.27195826,-3.34940378,-2.56180388,-1.25807016,-3.04149242

>  <Name>
1nta_lig

>  <RI>
1.05895e+07

>  <Rbt.Current_Directory>
/home/itssahil/PROJECTS/Mol_Feturizer/New_Systems/rnas/1nta

>  <Rbt.Executable>
rbdock ($Id: //depot/dev/client3/rdock/2013.1/src/exe/rbdock.cxx#4 $)

>  <Rbt.Library>
libRbt.so (2013.1, Build901 2013/11/27)

>  <Rbt.Parameter_File>
/export/apps/rDock/src/rDock_2013.1_src/data/scripts/dock_solv.prm

>  <Rbt.Receptor>
prm/blind_docking_100.prm

>  <SCORE>
-31.2059

>  <SCORE.INTER>
-10.8486

>  <SCORE.INTER.CONST>
1

>  <SCORE.INTER.POLAR>
-1.88598

>  <SCORE.INTER.ROT>
11

>  <SCORE.INTER.SOLV>
18.0419

>  <SCORE.INTER.VDW>
-17.8931

>  <SCORE.INTER.norm>
-0.271215

>  <SCORE.INTRA>
-20.4879

>  <SCORE.INTRA.DIHEDRAL>
-12.9716

>  <SCORE.INTRA.DIHEDRAL.0>
19.0336

>  <SCORE.INTRA.POLAR>
0

>  <SCORE.INTRA.POLAR.0>
0

>  <SCORE.INTRA.REPUL>
0

>  <SCORE.INTRA.REPUL.0>
0

>  <SCORE.INTRA.SOLV>
-0.176244

>  <SCORE.INTRA.SOLV.lig_0>
-97.5861

>  <SCORE.INTRA.VDW>
-13.914

>  <SCORE.INTRA.VDW.0>
11.7669

>  <SCORE.INTRA.norm>
-0.512198

>  <SCORE.RESTR>
0.130573

>  <SCORE.RESTR.CAVITY>
0.130573

>  <SCORE.RESTR.norm>
0.00326433

>  <SCORE.SYSTEM>
0

>  <SCORE.SYSTEM.CONST>
0

>  <SCORE.SYSTEM.DIHEDRAL>
0

>  <SCORE.SYSTEM.SOLV>
0

>  <SCORE.SYSTEM.norm>
0

>  <SCORE.heavy>
40

>  <SCORE.norm>
-0.780148

>  <RMSD>
22.944

$$$$
1nta_lig
 OpenBabel11021811403D
libRbt.so/2013.1/901 2013/11/27
 40 42  0  0  0  0  0  0  0  0999 V2000
   20.2359   27.9971   -0.3132 C   0  0  0  0  0  0  0  0  0  0  0  0
   21.2825   28.0155    0.4247 N   0  0  0  0  0  0  0  0  0  0  0  0
   19.8731   18.6952   -3.6945 C   0  0  0  0  0  0  0  0  0  0  0  0
   20.0083   18.6785   -2.4908 O   0  0  0  0  0  0  0  0  0  0  0  0
   21.0904   24.9988   -4.3814 C   0  0  0  0  0  0  0  0  0  0  0  0
   20.9035   25.9990   -5.2026 N   0  0  0  0  0  0  0  0  0  0  0  0
   16.6312   19.1878   -4.2498 C   0  0  0  0  0  0  0  0  0  0  0  0
   22.7894   21.1090   -3.0812 C   0  0  0  0  0  0  0  0  0  0  0  0
   19.5952   25.7213   -0.4177 C   0  0  2  0  0  0  0  0  0  0  0  0
   19.2984   27.1336    0.0475 N   0  0  0  0  0  0  0  0  0  0  0  0
   18.8675   21.9804   -3.9487 C   0  0  2  0  0  0  0  0  0  0  0  0
   21.5337   22.2219   -5.3991 C   0  0  1  0  0  0  0  0  0  0  0  0
   20.4219   21.4239   -5.6109 O   0  0  0  0  0  0  0  0  0  0  0  0
   19.7424   25.6893   -1.9507 C   0  0  1  0  0  0  0  0  0  0  0  0
   20.8461   26.4799   -2.2745 O   0  0  0  0  0  0  0  0  0  0  0  0
   19.8889   20.9827   -4.4838 C   0  0  2  0  0  0  0  0  0  0  0  0
   22.8579   21.4912   -5.3619 C   0  0  1  0  0  0  0  0  0  0  0  0
   22.7828   20.4627   -4.3828 N   0  0  0  0  0  0  0  0  0  0  0  0
   20.0211   24.2766   -2.4813 C   0  0  2  0  0  0  0  0  0  0  0  0
   20.1640   24.2076   -3.9553 N   0  0  0  0  0  0  0  0  0  0  0  0
   19.1085   19.7411   -4.4608 C   0  0  1  0  0  0  0  0  0  0  0  0
   18.8842   19.3567   -5.8187 O   0  0  0  0  0  0  0  0  0  0  0  0
   23.1488   20.9208   -6.5933 C   0  0  2  0  0  0  0  0  0  0  0  0
   24.4974   20.5262   -6.5716 O   0  0  0  0  0  0  0  0  0  0  0  0
   18.8747   23.3762   -2.0489 C   0  0  1  0  0  0  0  0  0  0  0  0
   19.1392   22.0710   -2.5389 O   0  0  0  0  0  0  0  0  0  0  0  0
   17.8089   20.0138   -3.8345 C   0  0  1  0  0  0  0  0  0  0  0  0
   17.5912   21.3978   -4.0800 O   0  0  0  0  0  0  0  0  0  0  0  0
   22.9357   21.9220   -7.6982 C   0  0  1  0  0  0  0  0  0  0  0  0
   23.0002   21.2614   -8.9278 O   0  0  0  0  0  0  0  0  0  0  0  0
   18.7511   23.3710   -0.4986 C   0  0  2  0  0  0  0  0  0  0  0  0
   17.6782   22.5136   -0.1125 O   0  0  0  0  0  0  0  0  0  0  0  0
   21.5840   22.5370   -7.5673 C   0  0  1  0  0  0  0  0  0  0  0  0
   21.5319   23.1979   -6.3361 O   0  0  0  0  0  0  0  0  0  0  0  0
   18.4622   24.8049   -0.0073 C   0  0  1  0  0  0  0  0  0  0  0  0
   18.3435   24.8209    1.4247 O   0  0  0  0  0  0  0  0  0  0  0  0
   21.3354   23.5841   -8.6709 C   0  0  0  0  0  0  0  0  0  0  0  0
   21.0499   22.9157   -9.8944 O   0  0  0  0  0  0  0  0  0  0  0  0
   20.1014   28.7622   -1.3421 N   0  0  0  0  0  0  0  0  0  0  0  0
   22.2657   24.7348   -3.9625 N   0  0  0  0  0  0  0  0  0  0  0  0
  1  2  1  0  0  0  0
  1 39  1  0  0  0  0
  3  4  1  0  0  0  0
  5  6  1  0  0  0  0
  5 40  1  0  0  0  0
  9 10  1  6  0  0  0
  9 14  1  0  0  0  0
  9 35  1  0  0  0  0
 10  1  1  0  0  0  0
 11 16  1  0  0  0  0
 11 28  1  0  0  0  0
 11 26  1  1  0  0  0
 12 17  1  0  0  0  0
 12 34  1  0  0  0  0
 12 13  1  6  0  0  0
 14 15  1  1  0  0  0
 14 19  1  0  0  0  0
 16 13  1  6  0  0  0
 16 21  1  0  0  0  0
 17 18  1  1  0  0  0
 17 23  1  0  0  0  0
 18  8  1  0  0  0  0
 19 20  1  6  0  0  0
 19 25  1  0  0  0  0
 20  5  1  0  0  0  0
 21  3  1  1  0  0  0
 21 22  1  0  0  0  0
 21 27  1  0  0  0  0
 23 24  1  1  0  0  0
 23 29  1  0  0  0  0
 25 26  1  1  0  0  0
 25 31  1  0  0  0  0
 27  7  1  6  0  0  0
 27 28  1  0  0  0  0
 29 30  1  6  0  0  0
 29 33  1  0  0  0  0
 31 32  1  6  0  0  0
 31 35  1  0  0  0  0
 33 34  1  0  0  0  0
 33 37  1  6  0  0  0
 35 36  1  1  0  0  0
 37 38  1  0  0  0  0
M  END
>  <CHROM.1>
-58.15564786,-80.62319692,146.88434532,90.38919101,88.13118958,-71.77517912
56.53063656,-118.51494280,73.62886690,-76.35294815,76.39957326,20.37100010
22.91872944,-3.84916970,-1.98790711,-0.91124804,-2.58063870

>  <Name>
1nta_lig

>  <RI>
1.05895e+07

>  <Rbt.Current_Directory>
/home/itssahil/PROJECTS/Mol_Feturizer/New_Systems/rnas/1nta

>  <Rbt.Executable>
rbdock ($Id: //depot/dev/client3/rdock/2013.1/src/exe/rbdock.cxx#4 $)

>  <Rbt.Library>
libRbt.so (2013.1, Build901 2013/11/27)

>  <Rbt.Parameter_File>
/export/apps/rDock/src/rDock_2013.1_src/data/scripts/dock_solv.prm

>  <Rbt.Receptor>
prm/blind_docking_100.prm

>  <SCORE>
-13.5339

>  <SCORE.INTER>
-5.82946

>  <SCORE.INTER.CONST>
1

>  <SCORE.INTER.POLAR>
-1.71942

>  <SCORE.INTER.ROT>
11

>  <SCORE.INTER.SOLV>
20.2815

>  <SCORE.INTER.VDW>
-15.8487

>  <SCORE.INTER.norm>
-0.145736

>  <SCORE.INTRA>
-9.62244

>  <SCORE.INTRA.DIHEDRAL>
-3.97127

>  <SCORE.INTRA.DIHEDRAL.0>
19.0336

>  <SCORE.INTRA.POLAR>
0

>  <SCORE.INTRA.POLAR.0>
0

>  <SCORE.INTRA.REPUL>
0

>  <SCORE.INTRA.REPUL.0>
0

>  <SCORE.INTRA.SOLV>
4.23069

>  <SCORE.INTRA.SOLV.lig_0>
-97.5861

>  <SCORE.INTRA.VDW>
-9.75215

>  <SCORE.INTRA.VDW.0>
11.7669

>  <SCORE.INTRA.norm>
-0.240561

>  <SCORE.RESTR>
1.91804

>  <SCORE.RESTR.CAVITY>
1.91804

>  <SCORE.RESTR.norm>
0.047951

>  <SCORE.SYSTEM>
0

>  <SCORE.SYSTEM.CONST>
0

>  <SCORE.SYSTEM.DIHEDRAL>
0

>  <SCORE.SYSTEM.SOLV>
0

>  <SCORE.SYSTEM.norm>
0

>  <SCORE.heavy>
40

>  <SCORE.norm>
-0.338346

>  <RMSD>
23.373

$$$$
